1a07_ligand
 OpenBabel08222323343D

 74 74  0  0  1  0  0  0  0  0999 V2000
   44.0322  -10.1707   36.8725 H   0  0  0  0  0  0  0  0  0  0  0  0
   45.6471   -9.4170   36.6477 H   0  0  0  0  0  0  0  0  0  0  0  0
   44.2461   -8.8444   35.6801 H   0  0  0  0  0  0  0  0  0  0  0  0
   42.8260   -9.4888   38.3338 H   0  0  0  0  0  0  0  0  0  0  0  0
   43.1727   -6.8535   39.6658 H   0  0  0  0  0  0  0  0  0  0  0  0
   40.8677   -7.1581   40.4448 H   0  0  0  0  0  0  0  0  0  0  0  0
   40.7810   -8.7401   39.5984 H   0  0  0  0  0  0  0  0  0  0  0  0
   40.0332   -8.8187   37.4226 H   0  0  0  0  0  0  0  0  0  0  0  0
   41.4642   -5.1232   38.9472 H   0  0  0  0  0  0  0  0  0  0  0  0
   39.1761   -7.6553   35.4204 H   0  0  0  0  0  0  0  0  0  0  0  0
   40.6374   -3.9542   36.9612 H   0  0  0  0  0  0  0  0  0  0  0  0
   39.4435   -5.2128   35.2295 H   0  0  0  0  0  0  0  0  0  0  0  0
   43.2470   -6.7506   41.6804 H   0  0  0  0  0  0  0  0  0  0  0  0
   44.2386   -8.9750   43.2447 H   0  0  0  0  0  0  0  0  0  0  0  0
   44.3863   -7.2980   45.0089 H   0  0  0  0  0  0  0  0  0  0  0  0
   43.3851   -6.1613   44.0434 H   0  0  0  0  0  0  0  0  0  0  0  0
   45.6855   -5.5308   43.8641 H   0  0  0  0  0  0  0  0  0  0  0  0
   45.1182   -6.1782   42.2874 H   0  0  0  0  0  0  0  0  0  0  0  0
   43.2905  -10.2788   46.5386 H   0  0  0  0  0  0  0  0  0  0  0  0
   44.2758   -9.5157   45.2449 H   0  0  0  0  0  0  0  0  0  0  0  0
   43.0164  -11.1400   43.6269 H   0  0  0  0  0  0  0  0  0  0  0  0
   42.5645  -12.0428   45.1126 H   0  0  0  0  0  0  0  0  0  0  0  0
   44.7906  -12.6765   45.5452 H   0  0  0  0  0  0  0  0  0  0  0  0
   45.4703  -11.3351   44.5627 H   0  0  0  0  0  0  0  0  0  0  0  0
   44.3232  -12.1970   42.5522 H   0  0  0  0  0  0  0  0  0  0  0  0
   43.5729  -13.5079   43.5245 H   0  0  0  0  0  0  0  0  0  0  0  0
   45.4843  -14.3613   42.1896 H   0  0  0  0  0  0  0  0  0  0  0  0
   45.8246  -14.4818   43.9492 H   0  0  0  0  0  0  0  0  0  0  0  0
   46.5750  -13.1709   42.9769 H   0  0  0  0  0  0  0  0  0  0  0  0
   40.7356  -10.6738   45.8215 H   0  0  0  0  0  0  0  0  0  0  0  0
   40.0894   -9.1381   45.1502 H   0  0  0  0  0  0  0  0  0  0  0  0
   42.0801   -9.2169   47.4451 H   0  0  0  0  0  0  0  0  0  0  0  0
   40.3064   -9.3117   47.7126 H   0  0  0  0  0  0  0  0  0  0  0  0
   40.0337   -7.1175   46.5986 H   0  0  0  0  0  0  0  0  0  0  0  0
   41.8133   -7.0210   46.3741 H   0  0  0  0  0  0  0  0  0  0  0  0
   42.1114   -7.3513   48.8240 H   0  0  0  0  0  0  0  0  0  0  0  0
   44.2370   -8.2120   37.7350 C   0  0  0  0  0  0  0  0  0  0  0  0
   44.7330   -7.0880   37.6820 O   0  0  0  0  0  0  0  0  0  0  0  0
   44.5630   -9.2310   36.6600 C   0  0  0  0  0  0  0  0  0  0  0  0
   43.2450   -8.6020   38.5290 N   0  0  0  0  0  0  0  0  0  0  0  0
   42.7180   -7.8550   39.6520 C   0  0  2  0  0  0  0  0  0  0  0  0
   43.0310   -8.5870   40.9380 C   0  0  0  0  0  0  0  0  0  0  0  0
   42.9840   -9.8300   41.0350 O   0  0  0  0  0  0  0  0  0  0  0  0
   41.2230   -7.7330   39.5770 C   0  0  0  0  0  0  0  0  0  0  0  0
   40.7870   -7.0350   38.3170 C   0  0  0  0  0  0  0  0  0  0  0  0
   40.1550   -7.7460   37.3250 C   0  0  0  0  0  0  0  0  0  0  0  0
   40.9540   -5.6820   38.1710 C   0  0  0  0  0  0  0  0  0  0  0  0
   39.6750   -7.0980   36.2050 C   0  0  0  0  0  0  0  0  0  0  0  0
   40.4900   -5.0230   37.0660 C   0  0  0  0  0  0  0  0  0  0  0  0
   39.8380   -5.7310   36.0960 C   0  0  0  0  0  0  0  0  0  0  0  0
   40.3258   -7.3578   49.0200 H   0  0  0  0  0  0  0  0  0  0  0  0
   43.2610   -7.7270   41.8960 N   0  0  0  0  0  0  0  0  0  0  0  0
   43.5320   -8.1320   43.2420 C   0  0  2  0  0  0  0  0  0  0  0  0
   42.2220   -8.5590   43.8920 C   0  0  0  0  0  0  0  0  0  0  0  0
   41.1700   -8.1200   43.4080 O   0  0  0  0  0  0  0  0  0  0  0  0
   44.1300   -6.9690   43.9910 C   0  0  0  0  0  0  0  0  0  0  0  0
   45.3750   -6.4380   43.3250 C   0  0  0  0  0  0  0  0  0  0  0  0
   46.5620   -7.3880   43.2880 C   0  0  0  0  0  0  0  0  0  0  0  0
   46.9350   -7.9210   44.3350 O   0  5  0  0  0  0  0  0  0  0  0  0
   47.1520   -7.5390   42.2180 O   0  0  0  0  0  0  0  0  0  0  0  0
   41.2764   -5.1223   49.5235 H   0  0  0  0  0  0  0  0  0  0  0  0
   42.1750   -9.3920   44.9650 N   0  0  0  0  0  0  0  0  0  0  0  0
   43.3590  -10.0850   45.4580 C   0  0  0  0  0  0  0  0  0  0  0  0
   43.3090  -11.3700   44.6620 C   0  0  0  0  0  0  0  0  0  0  0  0
   44.6400  -12.0510   44.6530 C   0  0  0  0  0  0  0  0  0  0  0  0
   44.4660  -12.8770   43.4050 C   0  0  0  0  0  0  0  0  0  0  0  0
   45.6740  -13.7880   43.1090 C   0  0  0  0  0  0  0  0  0  0  0  0
   40.9270   -9.5980   45.6950 C   0  0  0  0  0  0  0  0  0  0  0  0
   41.0950   -8.9380   47.0430 C   0  0  0  0  0  0  0  0  0  0  0  0
   41.0080   -7.4330   47.0000 C   0  0  0  0  0  0  0  0  0  0  0  0
   41.1620   -6.9710   48.4190 C   0  0  0  0  0  0  0  0  0  0  0  0
   41.1630   -5.4480   48.4790 C   0  0  0  0  0  0  0  0  0  0  0  0
   40.2139   -5.0645   48.0764 H   0  0  0  0  0  0  0  0  0  0  0  0
   41.9994   -5.0580   47.8805 H   0  0  0  0  0  0  0  0  0  0  0  0
 37 38  2  0  0  0  0
 37 39  1  0  0  0  0
 39  1  1  0  0  0  0
 39  2  1  0  0  0  0
 39  3  1  0  0  0  0
 40  4  1  0  0  0  0
 40 37  1  0  0  0  0
 41  5  1  1  0  0  0
 41 40  1  0  0  0  0
 41 44  1  0  0  0  0
 42 41  1  0  0  0  0
 42 43  2  0  0  0  0
 44  6  1  0  0  0  0
 44  7  1  0  0  0  0
 44 45  1  0  0  0  0
 45 47  2  0  0  0  0
 45 46  1  0  0  0  0
 46  8  1  0  0  0  0
 46 48  2  0  0  0  0
 47  9  1  0  0  0  0
 47 49  1  0  0  0  0
 48 10  1  0  0  0  0
 48 50  1  0  0  0  0
 49 11  1  0  0  0  0
 49 50  2  0  0  0  0
 50 12  1  0  0  0  0
 52 13  1  0  0  0  0
 52 42  1  0  0  0  0
 53 14  1  6  0  0  0
 53 56  1  0  0  0  0
 53 52  1  0  0  0  0
 54 53  1  0  0  0  0
 54 55  2  0  0  0  0
 54 62  1  0  0  0  0
 56 15  1  0  0  0  0
 56 16  1  0  0  0  0
 56 57  1  0  0  0  0
 57 17  1  0  0  0  0
 57 18  1  0  0  0  0
 57 58  1  0  0  0  0
 58 59  1  0  0  0  0
 58 60  2  0  0  0  0
 62 68  1  0  0  0  0
 62 63  1  0  0  0  0
 63 19  1  0  0  0  0
 63 20  1  0  0  0  0
 63 64  1  0  0  0  0
 64 21  1  0  0  0  0
 64 22  1  0  0  0  0
 64 65  1  0  0  0  0
 65 23  1  0  0  0  0
 65 24  1  0  0  0  0
 65 66  1  0  0  0  0
 66 25  1  0  0  0  0
 66 26  1  0  0  0  0
 66 67  1  0  0  0  0
 67 27  1  0  0  0  0
 67 28  1  0  0  0  0
 67 29  1  0  0  0  0
 68 30  1  0  0  0  0
 68 31  1  0  0  0  0
 68 69  1  0  0  0  0
 69 32  1  0  0  0  0
 69 33  1  0  0  0  0
 69 70  1  0  0  0  0
 70 34  1  0  0  0  0
 70 35  1  0  0  0  0
 70 71  1  0  0  0  0
 71 72  1  0  0  0  0
 71 36  1  0  0  0  0
 71 51  1  0  0  0  0
 72 61  1  0  0  0  0
 72 73  1  0  0  0  0
 72 74  1  0  0  0  0
M  CHG  1  59  -1
M  END
