1a09_ligand
 OpenBabel08222323343D

 82 82  0  0  1  0  0  0  0  0999 V2000
   41.5690    7.6580   23.9860 C   0  0  0  0  0  0  0  0  0  0  0  0
   41.1850    8.8370   24.0740 O   0  0  0  0  0  0  0  0  0  0  0  0
   41.6080    6.7520   25.1990 C   0  0  0  0  0  0  0  0  0  0  0  0
   41.9470    7.1470   22.8190 N   0  0  0  0  0  0  0  0  0  0  0  0
   42.0200    7.9800   21.6280 C   0  0  2  0  0  0  0  0  0  0  0  0
   40.9030    7.5910   20.6760 C   0  0  0  0  0  0  0  0  0  0  0  0
   40.4140    6.4590   20.6570 O   0  0  0  0  0  0  0  0  0  0  0  0
   43.4150    7.8260   20.9730 C   0  0  0  0  0  0  0  0  0  0  0  0
   44.5820    8.2860   21.8500 C   0  0  0  0  0  0  0  0  0  0  0  0
   45.3280    9.4170   21.5490 C   0  0  0  0  0  0  0  0  0  0  0  0
   44.9450    7.5470   22.9810 C   0  0  0  0  0  0  0  0  0  0  0  0
   46.3990    9.8200   22.3110 C   0  0  0  0  0  0  0  0  0  0  0  0
   46.0060    7.9400   23.7790 C   0  0  0  0  0  0  0  0  0  0  0  0
   46.7240    9.0770   23.4160 C   0  0  0  0  0  0  0  0  0  0  0  0
   47.3460   11.0080   22.0440 C   0  0  0  0  0  0  0  0  0  0  0  0
   47.8280    9.5570   24.1510 O   0  0  0  0  0  0  0  0  0  0  0  0
   47.4170   10.2450   25.7320 P   0  0  0  0  0  0  0  0  0  0  0  0
   47.5280    8.9350   26.4310 O   0  0  0  0  0  1  0  0  0  0  0  0
   46.0720   10.8710   25.5970 O   0  0  0  0  0  1  0  0  0  0  0  0
   48.5930   11.1150   25.9320 O   0  0  0  0  0  0  0  0  0  0  0  0
   47.5820   11.1630   20.6750 O   0  0  0  0  0  0  0  0  0  0  0  0
   41.9759    5.7585   24.9029 H   0  0  0  0  0  0  0  0  0  0  0  0
   40.5957    6.6578   25.6191 H   0  0  0  0  0  0  0  0  0  0  0  0
   40.4140    8.5720   19.9380 N   0  0  0  0  0  0  0  0  0  0  0  0
   39.3000    8.4030   19.0260 C   0  0  2  0  0  0  0  0  0  0  0  0
   39.6240    7.6770   17.7320 C   0  0  0  0  0  0  0  0  0  0  0  0
   40.7900    7.7110   17.3230 O   0  0  0  0  0  0  0  0  0  0  0  0
   38.7290    9.7400   18.6680 C   0  0  0  0  0  0  0  0  0  0  0  0
   38.1620   10.5010   19.8320 C   0  0  0  0  0  0  0  0  0  0  0  0
   36.9900    9.8410   20.5210 C   0  0  0  0  0  0  0  0  0  0  0  0
   35.9880    9.5130   19.8810 O   0  5  0  0  0  0  0  0  0  0  0  0
   37.0870    9.6910   21.7320 O   0  0  0  0  0  0  0  0  0  0  0  0
   42.2807    7.1815   25.9560 H   0  0  0  0  0  0  0  0  0  0  0  0
   38.6700    6.9840   17.0660 N   0  0  0  0  0  0  0  0  0  0  0  0
   37.3700    6.6720   17.6660 C   0  0  0  0  0  0  0  0  0  0  0  0
   37.6030    5.4210   18.5170 C   0  0  0  0  0  0  0  0  0  0  0  0
   36.2730    5.0170   19.0110 C   0  0  0  0  0  0  0  0  0  0  0  0
   36.4210    3.9430   20.0280 C   0  0  0  0  0  0  0  0  0  0  0  0
   34.9920    3.5810   20.4620 C   0  0  0  0  0  0  0  0  0  0  0  0
   38.9310    6.4700   15.7140 C   0  0  0  0  0  0  0  0  0  0  0  0
   38.2520    7.3850   14.6720 C   0  0  0  0  0  0  0  0  0  0  0  0
   39.0020    8.6740   14.3820 C   0  0  0  0  0  0  0  0  0  0  0  0
   38.2860    9.4370   13.2880 C   0  0  0  0  0  0  0  0  0  0  0  0
   38.9860   10.7990   13.0860 C   0  0  0  0  0  0  0  0  0  0  0  0
   42.1844    6.1775   22.7585 H   0  0  0  0  0  0  0  0  0  0  0  0
   41.8838    9.0326   21.9171 H   0  0  0  0  0  0  0  0  0  0  0  0
   43.4270    8.4189   20.0465 H   0  0  0  0  0  0  0  0  0  0  0  0
   43.5654    6.7637   20.7305 H   0  0  0  0  0  0  0  0  0  0  0  0
   45.0558   10.0050   20.6800 H   0  0  0  0  0  0  0  0  0  0  0  0
   44.3872    6.6533   23.2364 H   0  0  0  0  0  0  0  0  0  0  0  0
   46.2717    7.3759   24.6657 H   0  0  0  0  0  0  0  0  0  0  0  0
   48.3028   10.8273   22.5557 H   0  0  0  0  0  0  0  0  0  0  0  0
   46.8883   11.9281   22.4364 H   0  0  0  0  0  0  0  0  0  0  0  0
   48.1664   11.8991   20.5369 H   0  0  0  0  0  0  0  0  0  0  0  0
   40.8336    9.4766   20.0124 H   0  0  0  0  0  0  0  0  0  0  0  0
   38.5314    7.8191   19.5535 H   0  0  0  0  0  0  0  0  0  0  0  0
   37.9255    9.5859   17.9328 H   0  0  0  0  0  0  0  0  0  0  0  0
   39.5280   10.3462   18.2163 H   0  0  0  0  0  0  0  0  0  0  0  0
   37.8326   11.4852   19.4675 H   0  0  0  0  0  0  0  0  0  0  0  0
   38.9626   10.6341   20.5745 H   0  0  0  0  0  0  0  0  0  0  0  0
   36.6235    6.4712   16.8835 H   0  0  0  0  0  0  0  0  0  0  0  0
   37.0265    7.5065   18.2950 H   0  0  0  0  0  0  0  0  0  0  0  0
   38.2712    5.6503   19.3601 H   0  0  0  0  0  0  0  0  0  0  0  0
   38.0445    4.6194   17.9067 H   0  0  0  0  0  0  0  0  0  0  0  0
   35.6687    4.6442   18.1709 H   0  0  0  0  0  0  0  0  0  0  0  0
   35.7728    5.8847   19.4658 H   0  0  0  0  0  0  0  0  0  0  0  0
   37.0024    4.3067   20.8880 H   0  0  0  0  0  0  0  0  0  0  0  0
   36.9223    3.0671   19.5905 H   0  0  0  0  0  0  0  0  0  0  0  0
   35.0297    2.7850   21.2202 H   0  0  0  0  0  0  0  0  0  0  0  0
   34.4217    3.2296   19.5895 H   0  0  0  0  0  0  0  0  0  0  0  0
   34.5017    4.4692   20.8870 H   0  0  0  0  0  0  0  0  0  0  0  0
   38.5263    5.4510   15.6253 H   0  0  0  0  0  0  0  0  0  0  0  0
   40.0158    6.4508   15.5327 H   0  0  0  0  0  0  0  0  0  0  0  0
   37.2507    7.6465   15.0449 H   0  0  0  0  0  0  0  0  0  0  0  0
   38.1577    6.8232   13.7310 H   0  0  0  0  0  0  0  0  0  0  0  0
   40.0254    8.4376   14.0551 H   0  0  0  0  0  0  0  0  0  0  0  0
   39.0409    9.2890   15.2932 H   0  0  0  0  0  0  0  0  0  0  0  0
   37.2374    9.6004   13.5775 H   0  0  0  0  0  0  0  0  0  0  0  0
   38.3224    8.8609   12.3516 H   0  0  0  0  0  0  0  0  0  0  0  0
   38.4723   11.3611   12.2922 H   0  0  0  0  0  0  0  0  0  0  0  0
   40.0346   10.6332   12.7980 H   0  0  0  0  0  0  0  0  0  0  0  0
   38.9496   11.3727   14.0238 H   0  0  0  0  0  0  0  0  0  0  0  0
  1  2  2  0  0  0  0
  1  3  1  0  0  0  0
  1  4  1  0  0  0  0
  3 22  1  0  0  0  0
  3 23  1  0  0  0  0
  3 33  1  0  0  0  0
  4  5  1  0  0  0  0
  4 45  1  0  0  0  0
  5  6  1  0  0  0  0
  5  8  1  0  0  0  0
  5 46  1  1  0  0  0
  6  7  2  0  0  0  0
  6 24  1  0  0  0  0
  8  9  1  0  0  0  0
  8 47  1  0  0  0  0
  8 48  1  0  0  0  0
  9 10  2  0  0  0  0
  9 11  1  0  0  0  0
 10 12  1  0  0  0  0
 10 49  1  0  0  0  0
 11 13  2  0  0  0  0
 11 50  1  0  0  0  0
 12 14  2  0  0  0  0
 12 15  1  0  0  0  0
 13 14  1  0  0  0  0
 13 51  1  0  0  0  0
 14 16  1  0  0  0  0
 15 21  1  0  0  0  0
 15 52  1  0  0  0  0
 15 53  1  0  0  0  0
 16 17  1  0  0  0  0
 17 18  1  0  0  0  0
 17 19  1  0  0  0  0
 17 20  2  0  0  0  0
 21 54  1  0  0  0  0
 24 25  1  0  0  0  0
 24 55  1  0  0  0  0
 25 26  1  0  0  0  0
 25 28  1  0  0  0  0
 25 56  1  1  0  0  0
 26 27  2  0  0  0  0
 26 34  1  0  0  0  0
 28 29  1  0  0  0  0
 28 57  1  0  0  0  0
 28 58  1  0  0  0  0
 29 30  1  0  0  0  0
 29 59  1  0  0  0  0
 29 60  1  0  0  0  0
 30 31  1  0  0  0  0
 30 32  2  0  0  0  0
 34 35  1  0  0  0  0
 34 40  1  0  0  0  0
 35 36  1  0  0  0  0
 35 61  1  0  0  0  0
 35 62  1  0  0  0  0
 36 37  1  0  0  0  0
 36 63  1  0  0  0  0
 36 64  1  0  0  0  0
 37 38  1  0  0  0  0
 37 65  1  0  0  0  0
 37 66  1  0  0  0  0
 38 39  1  0  0  0  0
 38 67  1  0  0  0  0
 38 68  1  0  0  0  0
 39 69  1  0  0  0  0
 39 70  1  0  0  0  0
 39 71  1  0  0  0  0
 40 41  1  0  0  0  0
 40 72  1  0  0  0  0
 40 73  1  0  0  0  0
 41 42  1  0  0  0  0
 41 74  1  0  0  0  0
 41 75  1  0  0  0  0
 42 43  1  0  0  0  0
 42 76  1  0  0  0  0
 42 77  1  0  0  0  0
 43 44  1  0  0  0  0
 43 78  1  0  0  0  0
 43 79  1  0  0  0  0
 44 80  1  0  0  0  0
 44 81  1  0  0  0  0
 44 82  1  0  0  0  0
M  CHG  1  31  -1
M  END
