1a2c_ligand
 OpenBabel08222323343D

 92 94  0  0  1  0  0  0  0  0999 V2000
   16.1150  -18.1270   21.9550 O   0  0  0  0  0  0  0  0  0  0  0  0
   13.0940  -17.6970   23.8350 O   0  0  0  0  0  0  0  0  0  0  0  0
   15.4060  -20.9170   28.1120 O   0  0  0  0  0  0  0  0  0  0  0  0
   15.2360  -17.7810   22.7540 C   0  0  0  0  0  0  0  0  0  0  0  0
   13.8180  -18.3070   22.7360 C   0  0  1  0  0  0  0  0  0  0  0  0
   13.7910  -19.8430   22.8730 C   0  0  0  0  0  0  0  0  0  0  0  0
   14.2690  -20.3830   24.1940 C   0  0  0  0  0  0  0  0  0  0  0  0
   13.3540  -20.7060   25.1210 C   0  0  0  0  0  0  0  0  0  0  0  0
   13.7420  -20.8120   26.4210 C   0  0  0  0  0  0  0  0  0  0  0  0
   15.0680  -20.7230   26.7550 C   0  0  0  0  0  0  0  0  0  0  0  0
   15.9950  -20.5080   25.8180 C   0  0  0  0  0  0  0  0  0  0  0  0
   15.6020  -20.3590   24.5100 C   0  0  0  0  0  0  0  0  0  0  0  0
   15.4220  -16.8730   23.7010 N   0  0  0  0  0  0  0  0  0  0  0  0
   16.5660  -16.0380   24.0450 C   0  0  2  0  0  0  0  0  0  0  0  0
   16.4450  -14.9470   23.0150 C   0  0  0  0  0  0  0  0  0  0  0  0
   15.4510  -14.2040   23.1150 O   0  0  0  0  0  0  0  0  0  0  0  0
   17.7670  -16.9500   24.2180 C   0  0  0  0  0  0  0  0  0  0  0  0
   17.6580  -17.6860   25.5470 C   0  0  0  0  0  0  0  0  0  0  0  0
   18.5880  -17.0490   26.5540 C   0  0  0  0  0  0  0  0  0  0  0  0
   16.2430  -17.5850   26.1220 C   0  0  0  0  0  0  0  0  0  0  0  0
   15.5220  -13.9470   19.7680 O   0  0  0  0  0  0  0  0  0  0  0  0
   20.4090  -17.4610   20.1070 O   0  0  0  0  0  0  0  0  0  0  0  0
   17.2620  -14.7610   21.9760 N   0  0  0  0  0  0  0  0  0  0  0  0
   16.0070  -13.1080   20.5290 C   0  0  0  0  0  0  0  0  0  0  0  0
   17.1510  -13.5110   21.3110 C   0  0  2  0  0  0  0  0  0  0  0  0
   18.5360  -13.2750   20.6590 C   0  0  0  0  0  0  0  0  0  0  0  0
   19.5390  -14.1750   21.3630 C   0  0  2  0  0  0  0  0  0  0  0  0
   20.8410  -14.3950   20.6040 C   0  0  0  0  0  0  0  0  0  0  0  0
   20.6070  -15.1310   19.2150 C   0  0  0  0  0  0  0  0  0  0  0  0
   19.7300  -16.3680   19.4980 C   0  0  2  0  0  0  0  0  0  0  0  0
   18.3280  -16.0470   20.1460 C   0  0  0  0  0  0  0  0  0  0  0  0
   18.5180  -15.3340   21.5870 C   0  0  2  0  0  0  0  0  0  0  0  0
   15.7610  -11.0520   17.9370 O   0  0  0  0  0  0  0  0  0  0  0  0
   15.4610  -11.8910   20.5710 N   0  0  0  0  0  0  0  0  0  0  0  0
   11.4980  -12.1600   23.6800 N   0  0  0  0  0  0  0  0  0  0  0  0
   10.1570  -12.8340   25.4680 N   0  0  0  0  0  0  0  0  0  0  0  0
   10.3670  -10.5480   25.0080 N   0  0  0  0  0  0  0  0  0  0  0  0
   14.2540  -11.6070   19.9070 C   0  0  1  0  0  0  0  0  0  0  0  0
   13.2090  -10.8090   20.7390 C   0  0  0  0  0  0  0  0  0  0  0  0
   13.1740  -11.7830   21.9080 C   0  0  0  0  0  0  0  0  0  0  0  0
   12.2180  -11.1000   22.9290 C   0  0  0  0  0  0  0  0  0  0  0  0
   10.6740  -11.8330   24.7200 C   0  0  0  0  0  3  0  0  0  0  0  0
   14.5510  -10.6980   18.7130 C   0  0  0  0  0  0  0  0  0  0  0  0
   13.0939  -16.7531   23.7275 H   0  0  0  0  0  0  0  0  0  0  0  0
   16.3461  -20.8317   28.2183 H   0  0  0  0  0  0  0  0  0  0  0  0
   13.3413  -18.0276   21.7848 H   0  0  0  0  0  0  0  0  0  0  0  0
   14.4295  -20.2652   22.0831 H   0  0  0  0  0  0  0  0  0  0  0  0
   12.7540  -20.1785   22.7248 H   0  0  0  0  0  0  0  0  0  0  0  0
   12.3219  -20.8798   24.8386 H   0  0  0  0  0  0  0  0  0  0  0  0
   12.9994  -20.9674   27.1952 H   0  0  0  0  0  0  0  0  0  0  0  0
   17.0439  -20.4518   26.0860 H   0  0  0  0  0  0  0  0  0  0  0  0
   16.3435  -20.2230   23.7311 H   0  0  0  0  0  0  0  0  0  0  0  0
   14.6269  -16.7344   24.2915 H   0  0  0  0  0  0  0  0  0  0  0  0
   16.4134  -15.5643   25.0259 H   0  0  0  0  0  0  0  0  0  0  0  0
   18.6884  -16.3493   24.2060 H   0  0  0  0  0  0  0  0  0  0  0  0
   17.7945  -17.6801   23.3957 H   0  0  0  0  0  0  0  0  0  0  0  0
   17.9256  -18.7427   25.3999 H   0  0  0  0  0  0  0  0  0  0  0  0
   18.5090  -17.5808   27.5137 H   0  0  0  0  0  0  0  0  0  0  0  0
   18.3088  -15.9944   26.6952 H   0  0  0  0  0  0  0  0  0  0  0  0
   19.6229  -17.1083   26.1861 H   0  0  0  0  0  0  0  0  0  0  0  0
   15.5285  -18.0384   25.4192 H   0  0  0  0  0  0  0  0  0  0  0  0
   15.9845  -16.5270   26.2761 H   0  0  0  0  0  0  0  0  0  0  0  0
   16.1992  -18.1171   27.0837 H   0  0  0  0  0  0  0  0  0  0  0  0
   19.7977  -18.1751   20.2445 H   0  0  0  0  0  0  0  0  0  0  0  0
   17.1053  -12.7903   22.1408 H   0  0  0  0  0  0  0  0  0  0  0  0
   18.8308  -12.2218   20.7769 H   0  0  0  0  0  0  0  0  0  0  0  0
   18.4939  -13.5265   19.5890 H   0  0  0  0  0  0  0  0  0  0  0  0
   19.8306  -13.7522   22.3357 H   0  0  0  0  0  0  0  0  0  0  0  0
   21.5123  -15.0093   21.2220 H   0  0  0  0  0  0  0  0  0  0  0  0
   21.3096  -13.4183   20.4132 H   0  0  0  0  0  0  0  0  0  0  0  0
   21.5709  -15.4423   18.7860 H   0  0  0  0  0  0  0  0  0  0  0  0
   20.0936  -14.4574   18.5130 H   0  0  0  0  0  0  0  0  0  0  0  0
   19.4774  -16.7420   18.4949 H   0  0  0  0  0  0  0  0  0  0  0  0
   17.7670  -16.9840   20.2772 H   0  0  0  0  0  0  0  0  0  0  0  0
   17.7674  -15.3741   19.4805 H   0  0  0  0  0  0  0  0  0  0  0  0
   18.8775  -16.0463   22.3442 H   0  0  0  0  0  0  0  0  0  0  0  0
   16.5223  -11.0123   18.5039 H   0  0  0  0  0  0  0  0  0  0  0  0
   15.9194  -11.1661   21.0851 H   0  0  0  0  0  0  0  0  0  0  0  0
   11.6205  -13.1478   23.4153 H   0  0  0  0  0  0  0  0  0  0  0  0
    9.5329  -12.6170   26.2581 H   0  0  0  0  0  0  0  0  0  0  0  0
   10.3873  -13.8134   25.2476 H   0  0  0  0  0  0  0  0  0  0  0  0
   10.7601   -9.7846   24.4391 H   0  0  0  0  0  0  0  0  0  0  0  0
    9.7401  -10.3325   25.7963 H   0  0  0  0  0  0  0  0  0  0  0  0
   13.8079  -12.5555   19.5733 H   0  0  0  0  0  0  0  0  0  0  0  0
   12.2380  -10.7184   20.2302 H   0  0  0  0  0  0  0  0  0  0  0  0
   13.5666   -9.8095   21.0272 H   0  0  0  0  0  0  0  0  0  0  0  0
   14.1776  -11.9154   22.3384 H   0  0  0  0  0  0  0  0  0  0  0  0
   12.7783  -12.7598   21.5930 H   0  0  0  0  0  0  0  0  0  0  0  0
   11.4944  -10.4671   22.3943 H   0  0  0  0  0  0  0  0  0  0  0  0
   12.8009  -10.4812   23.6270 H   0  0  0  0  0  0  0  0  0  0  0  0
   13.6873  -10.7364   18.0330 H   0  0  0  0  0  0  0  0  0  0  0  0
   14.6761   -9.6720   19.0893 H   0  0  0  0  0  0  0  0  0  0  0  0
  2 44  1  0  0  0  0
  3 45  1  0  0  0  0
  4  1  2  0  0  0  0
  4  5  1  0  0  0  0
  5  2  1  0  0  0  0
  5  6  1  0  0  0  0
  5 46  1  6  0  0  0
  6  7  1  0  0  0  0
  6 47  1  0  0  0  0
  6 48  1  0  0  0  0
  7 12  2  0  0  0  0
  7  8  1  0  0  0  0
  8  9  2  0  0  0  0
  8 49  1  0  0  0  0
  9 10  1  0  0  0  0
  9 50  1  0  0  0  0
 10  3  1  0  0  0  0
 11 10  2  0  0  0  0
 11 51  1  0  0  0  0
 12 11  1  0  0  0  0
 12 52  1  0  0  0  0
 13  4  1  0  0  0  0
 13 53  1  0  0  0  0
 14 17  1  0  0  0  0
 14 13  1  0  0  0  0
 14 54  1  1  0  0  0
 15 14  1  0  0  0  0
 15 16  2  0  0  0  0
 17 18  1  0  0  0  0
 17 55  1  0  0  0  0
 17 56  1  0  0  0  0
 18 20  1  0  0  0  0
 18 19  1  0  0  0  0
 18 57  1  0  0  0  0
 19 58  1  0  0  0  0
 19 59  1  0  0  0  0
 19 60  1  0  0  0  0
 20 61  1  0  0  0  0
 20 62  1  0  0  0  0
 20 63  1  0  0  0  0
 22 64  1  0  0  0  0
 23 25  1  0  0  0  0
 23 32  1  0  0  0  0
 23 15  1  0  0  0  0
 24 21  2  0  0  0  0
 24 34  1  0  0  0  0
 25 24  1  0  0  0  0
 25 26  1  0  0  0  0
 25 65  1  1  0  0  0
 26 66  1  0  0  0  0
 26 67  1  0  0  0  0
 27 26  1  0  0  0  0
 27 28  1  0  0  0  0
 27 68  1  1  0  0  0
 28 29  1  0  0  0  0
 28 69  1  0  0  0  0
 28 70  1  0  0  0  0
 29 71  1  0  0  0  0
 29 72  1  0  0  0  0
 30 29  1  0  0  0  0
 30 22  1  0  0  0  0
 30 73  1  6  0  0  0
 31 30  1  0  0  0  0
 31 74  1  0  0  0  0
 31 75  1  0  0  0  0
 32 27  1  0  0  0  0
 32 31  1  0  0  0  0
 32 76  1  1  0  0  0
 33 77  1  0  0  0  0
 34 38  1  0  0  0  0
 34 78  1  0  0  0  0
 35 42  1  0  0  0  0
 35 79  1  0  0  0  0
 36 80  1  0  0  0  0
 36 81  1  0  0  0  0
 37 82  1  0  0  0  0
 37 83  1  0  0  0  0
 38 43  1  0  0  0  0
 38 39  1  0  0  0  0
 38 84  1  6  0  0  0
 39 40  1  0  0  0  0
 39 85  1  0  0  0  0
 39 86  1  0  0  0  0
 40 41  1  0  0  0  0
 40 87  1  0  0  0  0
 40 88  1  0  0  0  0
 41 35  1  0  0  0  0
 41 89  1  0  0  0  0
 41 90  1  0  0  0  0
 42 36  1  0  0  0  0
 42 37  1  0  0  0  0
 43 33  1  0  0  0  0
 43 91  1  0  0  0  0
 43 92  1  0  0  0  0
M  END
