1a61_ligand
 OpenBabel08222323343D

 73 76  0  0  1  0  0  0  0  0999 V2000
   19.0370  -15.6150   25.1650 C   0  0  0  0  0  0  0  0  0  0  0  0
   20.0690  -16.5970   25.1350 C   0  0  0  0  0  0  0  0  0  0  0  0
   21.3830  -16.2100   25.4730 C   0  0  0  0  0  0  0  0  0  0  0  0
   21.7440  -14.8830   25.7230 C   0  0  0  0  0  0  0  0  0  0  0  0
   20.7080  -13.9430   25.7400 C   0  0  0  0  0  0  0  0  0  0  0  0
   19.3550  -14.2880   25.4280 C   0  0  0  0  0  0  0  0  0  0  0  0
   15.5860  -16.5550   23.3450 N   0  3  0  0  0  0  0  0  0  0  0  0
   17.6880  -14.4220   21.7280 N   0  0  0  0  0  0  0  0  0  0  0  0
   18.7100  -15.2140   21.0630 N   0  3  2  0  0  0  0  0  0  0  0  0
   16.0220  -14.0220   23.2360 O   0  0  0  0  0  0  0  0  0  0  0  0
   17.6720  -16.2780   24.8000 C   0  0  0  0  0  0  0  0  0  0  0  0
   16.9120  -14.7780   22.7140 C   0  0  0  0  0  0  0  0  0  0  0  0
   17.0120  -16.1670   23.3240 C   0  0  2  0  0  0  0  0  0  0  0  0
   17.9490  -17.0910   22.5950 C   0  0  0  0  0  0  0  0  0  0  0  0
   19.0630  -16.4860   21.7100 C   0  0  0  0  0  0  0  0  0  0  0  0
   19.6960  -14.1920   20.7210 C   0  0  0  0  0  0  0  0  0  0  0  0
   18.6360  -13.2090   20.0030 C   0  0  0  0  0  0  0  0  0  0  0  0
   17.7120  -13.0190   21.1530 C   0  0  1  0  0  0  0  0  0  0  0  0
   16.4450  -12.9930   20.5090 C   0  0  0  0  0  0  0  0  0  0  0  0
   15.9560  -13.9920   19.7990 O   0  0  0  0  0  0  0  0  0  0  0  0
   15.3260  -12.0680   20.5520 N   0  0  0  0  0  0  0  0  0  0  0  0
   14.1450  -11.3480   20.0420 C   0  0  2  0  0  0  0  0  0  0  0  0
   14.3350  -10.5940   18.7500 C   0  0  2  0  0  0  0  0  0  0  0  0
   13.4310  -10.0020   18.1220 O   0  0  0  0  0  0  0  0  0  0  0  0
   13.1790  -10.7500   21.0510 C   0  0  0  0  0  0  0  0  0  0  0  0
   12.7560  -11.8500   21.9990 C   0  0  0  0  0  0  0  0  0  0  0  0
   11.8340  -11.2710   23.0490 C   0  0  0  0  0  0  0  0  0  0  0  0
   11.3950  -12.3040   23.9700 N   0  0  0  0  0  0  0  0  0  0  0  0
   10.5320  -12.0930   24.9790 C   0  0  0  0  0  3  0  0  0  0  0  0
   10.2130  -10.7730   25.0850 N   0  0  0  0  0  0  0  0  0  0  0  0
    9.5290  -12.9890   25.2030 N   0  0  0  0  0  0  0  0  0  0  0  0
   15.2430  -11.1340   17.6010 C   0  0  0  0  0  0  0  0  0  0  0  0
   16.6190  -10.9610   17.4630 N   0  0  0  0  0  0  0  0  0  0  0  0
   17.4270  -11.3970   16.3700 C   0  0  0  0  0  0  0  0  0  0  0  0
   16.5370  -11.9990   15.5410 C   0  0  0  0  0  0  0  0  0  0  0  0
   14.8770  -12.0620   16.1050 S   0  0  0  0  0  0  0  0  0  0  0  0
   19.8488  -17.6216   24.8579 H   0  0  0  0  0  0  0  0  0  0  0  0
   22.1468  -16.9761   25.5419 H   0  0  0  0  0  0  0  0  0  0  0  0
   22.7752  -14.5965   25.8951 H   0  0  0  0  0  0  0  0  0  0  0  0
   20.9387  -12.9160   25.9990 H   0  0  0  0  0  0  0  0  0  0  0  0
   18.5872  -13.5235   25.3971 H   0  0  0  0  0  0  0  0  0  0  0  0
   15.4952  -17.4800   23.7351 H   0  0  0  0  0  0  0  0  0  0  0  0
   15.2224  -16.5497   22.4049 H   0  0  0  0  0  0  0  0  0  0  0  0
   15.0678  -15.9000   23.9094 H   0  0  0  0  0  0  0  0  0  0  0  0
   18.3203  -15.5137   20.1830 H   0  0  0  0  0  0  0  0  0  0  0  0
   16.9326  -15.8563   25.4967 H   0  0  0  0  0  0  0  0  0  0  0  0
   17.7925  -17.3530   24.9996 H   0  0  0  0  0  0  0  0  0  0  0  0
   17.3317  -17.7283   21.9448 H   0  0  0  0  0  0  0  0  0  0  0  0
   18.4440  -17.7131   23.3552 H   0  0  0  0  0  0  0  0  0  0  0  0
   19.9475  -16.3156   22.3413 H   0  0  0  0  0  0  0  0  0  0  0  0
   19.3089  -17.2142   20.9231 H   0  0  0  0  0  0  0  0  0  0  0  0
   20.4739  -14.5587   20.0351 H   0  0  0  0  0  0  0  0  0  0  0  0
   20.1698  -13.7400   21.6049 H   0  0  0  0  0  0  0  0  0  0  0  0
   18.1400  -13.6871   19.1455 H   0  0  0  0  0  0  0  0  0  0  0  0
   19.0975  -12.2643   19.6797 H   0  0  0  0  0  0  0  0  0  0  0  0
   17.9393  -12.1938   21.8439 H   0  0  0  0  0  0  0  0  0  0  0  0
   15.4018  -11.7015   21.4793 H   0  0  0  0  0  0  0  0  0  0  0  0
   13.5430  -12.1970   19.6860 H   0  0  0  0  0  0  0  0  0  0  0  0
   14.9245   -9.7529   19.1436 H   0  0  0  0  0  0  0  0  0  0  0  0
   13.7978   -9.6036   17.3415 H   0  0  0  0  0  0  0  0  0  0  0  0
   12.2981  -10.3459   20.5308 H   0  0  0  0  0  0  0  0  0  0  0  0
   13.6755   -9.9442   21.6115 H   0  0  0  0  0  0  0  0  0  0  0  0
   13.6445  -12.2791   22.4852 H   0  0  0  0  0  0  0  0  0  0  0  0
   12.2287  -12.6363   21.4390 H   0  0  0  0  0  0  0  0  0  0  0  0
   10.9555  -10.8301   22.5552 H   0  0  0  0  0  0  0  0  0  0  0  0
   12.3696  -10.4908   23.6097 H   0  0  0  0  0  0  0  0  0  0  0  0
   11.7672  -13.2559   23.8426 H   0  0  0  0  0  0  0  0  0  0  0  0
    9.5592  -10.4583   25.8161 H   0  0  0  0  0  0  0  0  0  0  0  0
   10.6255  -10.0896   24.4341 H   0  0  0  0  0  0  0  0  0  0  0  0
    9.7166  -13.9995   25.1356 H   0  0  0  0  0  0  0  0  0  0  0  0
    8.5837  -12.6553   25.4396 H   0  0  0  0  0  0  0  0  0  0  0  0
   18.5006  -11.2756   16.2339 H   0  0  0  0  0  0  0  0  0  0  0  0
   16.8359  -12.4185   14.5815 H   0  0  0  0  0  0  0  0  0  0  0  0
  1  2  2  0  0  0  0
  1  6  1  0  0  0  0
  2  3  1  0  0  0  0
  2 37  1  0  0  0  0
  3  4  2  0  0  0  0
  3 38  1  0  0  0  0
  4 39  1  0  0  0  0
  5  4  1  0  0  0  0
  5 40  1  0  0  0  0
  6  5  2  0  0  0  0
  6 41  1  0  0  0  0
  7 42  1  0  0  0  0
  7 43  1  0  0  0  0
  7 44  1  0  0  0  0
  8  9  1  0  0  0  0
  8 18  1  0  0  0  0
  9 15  1  0  0  0  0
  9 16  1  0  0  0  0
  9 45  1  6  0  0  0
 11  1  1  0  0  0  0
 11 46  1  0  0  0  0
 11 47  1  0  0  0  0
 12  8  1  0  0  0  0
 12 10  2  0  0  0  0
 12 13  1  0  0  0  0
 13  7  1  0  0  0  0
 13 11  1  1  0  0  0
 13 14  1  0  0  0  0
 14 15  1  0  0  0  0
 14 48  1  0  0  0  0
 14 49  1  0  0  0  0
 15 50  1  0  0  0  0
 15 51  1  0  0  0  0
 16 17  1  0  0  0  0
 16 52  1  0  0  0  0
 16 53  1  0  0  0  0
 17 18  1  0  0  0  0
 17 54  1  0  0  0  0
 17 55  1  0  0  0  0
 18 19  1  0  0  0  0
 18 56  1  1  0  0  0
 19 20  2  0  0  0  0
 19 21  1  0  0  0  0
 21 22  1  0  0  0  0
 21 57  1  0  0  0  0
 22 23  1  0  0  0  0
 22 25  1  0  0  0  0
 22 58  1  6  0  0  0
 23 24  1  0  0  0  0
 23 32  1  0  0  0  0
 23 59  1  1  0  0  0
 24 60  1  0  0  0  0
 25 26  1  0  0  0  0
 25 61  1  0  0  0  0
 25 62  1  0  0  0  0
 26 27  1  0  0  0  0
 26 63  1  0  0  0  0
 26 64  1  0  0  0  0
 27 28  1  0  0  0  0
 27 65  1  0  0  0  0
 27 66  1  0  0  0  0
 28 29  1  0  0  0  0
 28 67  1  0  0  0  0
 29 30  1  0  0  0  0
 29 31  1  0  0  0  0
 30 68  1  0  0  0  0
 30 69  1  0  0  0  0
 31 70  1  0  0  0  0
 31 71  1  0  0  0  0
 32 33  2  0  0  0  0
 32 36  1  0  0  0  0
 33 34  1  0  0  0  0
 34 35  2  0  0  0  0
 34 72  1  0  0  0  0
 35 36  1  0  0  0  0
 35 73  1  0  0  0  0
M  CHG  2   7   1   9   1
M  END
