1abt_ligand
 OpenBabel08222323343D

125129  0  0  1  0  0  0  0  0999 V2000
   -2.7010    7.6930    8.8020 N   0  3  0  0  0  0  0  0  0  0  0  0
   -3.9840    6.9580    8.9060 C   0  0  2  0  0  0  0  0  0  0  0  0
   -4.2990    6.1360    7.6380 C   0  0  0  0  0  0  0  0  0  0  0  0
   -4.8670    6.6220    6.6600 O   0  0  0  0  0  0  0  0  0  0  0  0
   -5.0990    7.9470    9.2680 C   0  0  0  0  0  0  0  0  0  0  0  0
   -6.4020    7.2300    9.6480 C   0  0  0  0  0  0  0  0  0  0  0  0
   -7.4730    8.2330   10.0830 C   0  0  0  0  0  0  0  0  0  0  0  0
   -8.8100    7.5420   10.3560 C   0  0  0  0  0  0  0  0  0  0  0  0
   -8.7250    6.6180   11.4980 N   0  3  0  0  0  0  0  0  0  0  0  0
   -2.5414    8.2120    9.6512 H   0  0  0  0  0  0  0  0  0  0  0  0
   -2.7408    8.3297    8.0216 H   0  0  0  0  0  0  0  0  0  0  0  0
   -1.9484    7.0371    8.6626 H   0  0  0  0  0  0  0  0  0  0  0  0
   -3.8922    6.2423    9.7363 H   0  0  0  0  0  0  0  0  0  0  0  0
   -5.2912    8.5980    8.4024 H   0  0  0  0  0  0  0  0  0  0  0  0
   -4.7685    8.5585   10.1205 H   0  0  0  0  0  0  0  0  0  0  0  0
   -6.2018    6.5354   10.4771 H   0  0  0  0  0  0  0  0  0  0  0  0
   -6.7694    6.6662    8.7778 H   0  0  0  0  0  0  0  0  0  0  0  0
   -7.6116    8.9768    9.2846 H   0  0  0  0  0  0  0  0  0  0  0  0
   -7.1379    8.7383   11.0008 H   0  0  0  0  0  0  0  0  0  0  0  0
   -9.1072    6.9755    9.4612 H   0  0  0  0  0  0  0  0  0  0  0  0
   -9.5687    8.3081   10.5737 H   0  0  0  0  0  0  0  0  0  0  0  0
   -9.6224    6.1835   11.6461 H   0  0  0  0  0  0  0  0  0  0  0  0
   -8.4587    7.1293   12.3249 H   0  0  0  0  0  0  0  0  0  0  0  0
   -8.0358    5.9082   11.3053 H   0  0  0  0  0  0  0  0  0  0  0  0
   -3.8810    4.8830    7.7180 N   0  0  0  0  0  0  0  0  0  0  0  0
   -3.8780    3.9320    6.5890 C   0  0  2  0  0  0  0  0  0  0  0  0
   -4.1940    2.5160    7.0900 C   0  0  0  0  0  0  0  0  0  0  0  0
   -3.8830    2.1590    8.2250 O   0  0  0  0  0  0  0  0  0  0  0  0
   -2.5170    3.9420    5.8880 C   0  0  0  0  0  0  0  0  0  0  0  0
   -2.1050    5.3190    5.3770 C   0  0  0  0  0  0  0  0  0  0  0  0
   -1.3580    6.2040    6.0400 N   0  0  0  0  0  0  0  0  0  0  0  0
   -2.4960    5.8910    4.2380 C   0  0  0  0  0  0  0  0  0  0  0  0
   -1.3270    7.3310    5.3410 C   0  0  0  0  0  0  0  0  0  0  0  0
   -2.0290    7.1440    4.2320 N   0  0  0  0  0  0  0  0  0  0  0  0
   -3.5447    4.5588    8.6022 H   0  0  0  0  0  0  0  0  0  0  0  0
   -4.6514    4.2356    5.8681 H   0  0  0  0  0  0  0  0  0  0  0  0
   -2.5611    3.2522    5.0323 H   0  0  0  0  0  0  0  0  0  0  0  0
   -1.7556    3.5934    6.6012 H   0  0  0  0  0  0  0  0  0  0  0  0
   -3.0888    5.4223    3.4539 H   0  0  0  0  0  0  0  0  0  0  0  0
   -0.8150    8.2484    5.6277 H   0  0  0  0  0  0  0  0  0  0  0  0
   -2.1874    7.8436    3.4928 H   0  0  0  0  0  0  0  0  0  0  0  0
   -4.7800    1.7420    6.1910 N   0  0  0  0  0  0  0  0  0  0  0  0
   -5.2450    0.3720    6.4880 C   0  0  2  0  0  0  0  0  0  0  0  0
   -4.4200   -0.7450    5.8420 C   0  0  0  0  0  0  0  0  0  0  0  0
   -3.8880   -0.6030    4.7380 O   0  0  0  0  0  0  0  0  0  0  0  0
   -6.7020    0.2410    6.0460 C   0  0  0  0  0  0  0  0  0  0  0  0
   -7.6890    0.6330    7.1400 C   0  0  0  0  0  0  0  0  0  0  0  0
   -8.3210   -0.2520    7.8980 C   0  0  0  0  0  0  0  0  0  0  0  0
   -8.0370    1.8980    7.5910 C   0  0  0  0  0  0  0  0  0  0  0  0
   -9.0410    0.3700    8.8310 N   0  0  0  0  0  0  0  0  0  0  0  0
   -8.8940    1.6880    8.6850 C   0  0  0  0  0  0  0  0  0  0  0  0
   -7.7400    3.2140    7.1650 C   0  0  0  0  0  0  0  0  0  0  0  0
   -9.4720    2.7810    9.3740 C   0  0  0  0  0  0  0  0  0  0  0  0
   -8.3140    4.3040    7.8460 C   0  0  0  0  0  0  0  0  0  0  0  0
   -9.1810    4.0940    8.9360 C   0  0  0  0  0  0  0  0  0  0  0  0
   -4.9143    2.1013    5.2675 H   0  0  0  0  0  0  0  0  0  0  0  0
   -5.1929    0.2328    7.5779 H   0  0  0  0  0  0  0  0  0  0  0  0
   -6.8902   -0.8047    5.7612 H   0  0  0  0  0  0  0  0  0  0  0  0
   -6.8652    0.8932    5.1754 H   0  0  0  0  0  0  0  0  0  0  0  0
   -8.2605   -1.3324    7.7758 H   0  0  0  0  0  0  0  0  0  0  0  0
   -9.6176   -0.0919    9.5487 H   0  0  0  0  0  0  0  0  0  0  0  0
   -7.0776    3.3811    6.3233 H   0  0  0  0  0  0  0  0  0  0  0  0
  -10.1261    2.6147   10.2223 H   0  0  0  0  0  0  0  0  0  0  0  0
   -8.0865    5.3152    7.5284 H   0  0  0  0  0  0  0  0  0  0  0  0
   -9.6273    4.9427    9.4416 H   0  0  0  0  0  0  0  0  0  0  0  0
   -4.2220   -1.7680    6.6660 N   0  0  0  0  0  0  0  0  0  0  0  0
   -3.8200   -3.1110    6.2120 C   0  0  2  0  0  0  0  0  0  0  0  0
   -4.9900   -3.8630    5.5570 C   0  0  0  0  0  0  0  0  0  0  0  0
   -6.1100   -3.9020    6.0540 O   0  0  0  0  0  0  0  0  0  0  0  0
   -3.2120   -4.0170    7.2990 C   0  0  0  0  0  0  0  0  0  0  0  0
   -1.7810   -3.6120    7.6710 C   0  0  0  0  0  0  0  0  0  0  0  0
   -4.0850   -4.1420    8.5640 C   0  0  0  0  0  0  0  0  0  0  0  0
   -4.3527   -1.6188    7.6461 H   0  0  0  0  0  0  0  0  0  0  0  0
   -3.0453   -2.9614    5.4455 H   0  0  0  0  0  0  0  0  0  0  0  0
   -3.1524   -5.0236    6.8594 H   0  0  0  0  0  0  0  0  0  0  0  0
   -1.3983   -4.2900    8.4481 H   0  0  0  0  0  0  0  0  0  0  0  0
   -1.7792   -2.5800    8.0516 H   0  0  0  0  0  0  0  0  0  0  0  0
   -1.1387   -3.6755    6.7803 H   0  0  0  0  0  0  0  0  0  0  0  0
   -5.1064   -4.4328    8.2773 H   0  0  0  0  0  0  0  0  0  0  0  0
   -4.1124   -3.1750    9.0876 H   0  0  0  0  0  0  0  0  0  0  0  0
   -3.6590   -4.9074    9.2294 H   0  0  0  0  0  0  0  0  0  0  0  0
   -4.6750   -4.3900    4.3880 N   0  0  0  0  0  0  0  0  0  0  0  0
   -5.5130   -5.3520    3.6540 C   0  0  2  0  0  0  0  0  0  0  0  0
   -4.7150   -6.6280    3.3820 C   0  0  0  0  0  0  0  0  0  0  0  0
   -3.5050   -6.6030    3.1430 O   0  0  0  0  0  0  0  0  0  0  0  0
   -6.0390   -4.7400    2.3550 C   0  0  0  0  0  0  0  0  0  0  0  0
   -7.3340   -3.9570    2.6070 C   0  0  0  0  0  0  0  0  0  0  0  0
   -8.5680   -4.6430    2.5280 C   0  0  0  0  0  0  0  0  0  0  0  0
   -7.2630   -2.5760    2.8580 C   0  0  0  0  0  0  0  0  0  0  0  0
   -9.7610   -3.9120    2.7080 C   0  0  0  0  0  0  0  0  0  0  0  0
   -8.4550   -1.8450    3.0370 C   0  0  0  0  0  0  0  0  0  0  0  0
   -9.6900   -2.5310    2.9580 C   0  0  0  0  0  0  0  0  0  0  0  0
  -10.8330   -1.8260    3.1590 O   0  0  0  0  0  0  0  0  0  0  0  0
   -3.8073   -4.1167    3.9727 H   0  0  0  0  0  0  0  0  0  0  0  0
   -6.3767   -5.6115    4.2838 H   0  0  0  0  0  0  0  0  0  0  0  0
   -6.2390   -5.5447    1.6323 H   0  0  0  0  0  0  0  0  0  0  0  0
   -5.2797   -4.0584    1.9440 H   0  0  0  0  0  0  0  0  0  0  0  0
   -8.5966   -5.7090    2.3331 H   0  0  0  0  0  0  0  0  0  0  0  0
   -6.3017   -2.0781    2.9134 H   0  0  0  0  0  0  0  0  0  0  0  0
  -10.7222   -4.4102    2.6540 H   0  0  0  0  0  0  0  0  0  0  0  0
   -8.4260   -0.7789    3.2312 H   0  0  0  0  0  0  0  0  0  0  0  0
  -11.5804   -2.4067    3.0773 H   0  0  0  0  0  0  0  0  0  0  0  0
   -5.4530   -7.7350    3.4160 N   0  0  0  0  0  0  0  0  0  0  0  0
   -4.8720   -9.0890    3.3200 C   0  0  2  0  0  0  0  0  0  0  0  0
   -5.2660   -9.9090    2.0830 C   0  0  0  0  0  0  0  0  0  0  0  0
   -4.6170  -10.9690    1.8930 O   0  0  0  0  0  0  0  0  0  0  0  0
   -5.1600   -9.8730    4.6080 C   0  0  0  0  0  0  0  0  0  0  0  0
   -4.2660   -9.4620    5.7900 C   0  0  0  0  0  0  0  0  0  0  0  0
   -4.5740   -8.2880    6.5160 C   0  0  0  0  0  0  0  0  0  0  0  0
   -3.2970  -10.3750    6.2540 C   0  0  0  0  0  0  0  0  0  0  0  0
   -3.9280   -8.0370    7.7370 C   0  0  0  0  0  0  0  0  0  0  0  0
   -2.6510  -10.1330    7.4790 C   0  0  0  0  0  0  0  0  0  0  0  0
   -2.9690   -8.9700    8.2040 C   0  0  0  0  0  0  0  0  0  0  0  0
   -2.3200   -8.7180    9.3680 O   0  0  0  0  0  0  0  0  0  0  0  0
   -6.4445   -7.6458    3.5107 H   0  0  0  0  0  0  0  0  0  0  0  0
   -3.7824   -8.9515    3.2583 H   0  0  0  0  0  0  0  0  0  0  0  0
   -5.0013  -10.9428    4.4072 H   0  0  0  0  0  0  0  0  0  0  0  0
   -6.2097   -9.7047    4.8906 H   0  0  0  0  0  0  0  0  0  0  0  0
   -5.3049   -7.5857    6.1318 H   0  0  0  0  0  0  0  0  0  0  0  0
   -3.0523  -11.2557    5.6714 H   0  0  0  0  0  0  0  0  0  0  0  0
   -4.1583   -7.1469    8.3113 H   0  0  0  0  0  0  0  0  0  0  0  0
   -1.9170  -10.8338    7.8602 H   0  0  0  0  0  0  0  0  0  0  0  0
   -2.6405   -7.9039    9.7382 H   0  0  0  0  0  0  0  0  0  0  0  0
   -6.2367   -9.5208    1.2609 O   0  0  0  0  0  0  0  0  0  0  0  0
   -5.8814   -9.3996    0.3882 H   0  0  0  0  0  0  0  0  0  0  0  0
  1 10  1  0  0  0  0
  1 11  1  0  0  0  0
  1 12  1  0  0  0  0
  2  1  1  0  0  0  0
  2  5  1  0  0  0  0
  2 13  1  1  0  0  0
  3  2  1  0  0  0  0
  3  4  2  0  0  0  0
  5  6  1  0  0  0  0
  5 14  1  0  0  0  0
  5 15  1  0  0  0  0
  6  7  1  0  0  0  0
  6 16  1  0  0  0  0
  6 17  1  0  0  0  0
  7  8  1  0  0  0  0
  7 18  1  0  0  0  0
  7 19  1  0  0  0  0
  8  9  1  0  0  0  0
  8 20  1  0  0  0  0
  8 21  1  0  0  0  0
  9 22  1  0  0  0  0
  9 23  1  0  0  0  0
  9 24  1  0  0  0  0
 25 35  1  0  0  0  0
 25  3  1  0  0  0  0
 26 25  1  0  0  0  0
 26 29  1  0  0  0  0
 26 36  1  6  0  0  0
 27 26  1  0  0  0  0
 27 28  2  0  0  0  0
 29 30  1  0  0  0  0
 29 37  1  0  0  0  0
 29 38  1  0  0  0  0
 30 31  1  0  0  0  0
 30 32  2  0  0  0  0
 31 33  2  0  0  0  0
 32 34  1  0  0  0  0
 32 39  1  0  0  0  0
 33 40  1  0  0  0  0
 34 33  1  0  0  0  0
 34 41  1  0  0  0  0
 42 56  1  0  0  0  0
 42 27  1  0  0  0  0
 43 42  1  0  0  0  0
 43 46  1  0  0  0  0
 43 57  1  1  0  0  0
 44 43  1  0  0  0  0
 44 45  2  0  0  0  0
 46 47  1  0  0  0  0
 46 58  1  0  0  0  0
 46 59  1  0  0  0  0
 47 48  2  0  0  0  0
 47 49  1  0  0  0  0
 48 50  1  0  0  0  0
 48 60  1  0  0  0  0
 49 52  2  0  0  0  0
 49 51  1  0  0  0  0
 50 61  1  0  0  0  0
 51 53  2  0  0  0  0
 51 50  1  0  0  0  0
 52 54  1  0  0  0  0
 52 62  1  0  0  0  0
 53 55  1  0  0  0  0
 53 63  1  0  0  0  0
 54 55  2  0  0  0  0
 54 64  1  0  0  0  0
 55 65  1  0  0  0  0
 66 73  1  0  0  0  0
 66 44  1  0  0  0  0
 67 66  1  0  0  0  0
 67 70  1  0  0  0  0
 67 74  1  6  0  0  0
 68 67  1  0  0  0  0
 68 69  2  0  0  0  0
 70 72  1  0  0  0  0
 70 71  1  0  0  0  0
 70 75  1  0  0  0  0
 71 76  1  0  0  0  0
 71 77  1  0  0  0  0
 71 78  1  0  0  0  0
 72 79  1  0  0  0  0
 72 80  1  0  0  0  0
 72 81  1  0  0  0  0
 82 94  1  0  0  0  0
 82 68  1  0  0  0  0
 83 82  1  0  0  0  0
 83 86  1  0  0  0  0
 83 95  1  1  0  0  0
 84 83  1  0  0  0  0
 84 85  2  0  0  0  0
 84103  1  0  0  0  0
 86 87  1  0  0  0  0
 86 96  1  0  0  0  0
 86 97  1  0  0  0  0
 87 88  2  0  0  0  0
 87 89  1  0  0  0  0
 88 90  1  0  0  0  0
 88 98  1  0  0  0  0
 89 91  2  0  0  0  0
 89 99  1  0  0  0  0
 90 92  2  0  0  0  0
 90100  1  0  0  0  0
 91 92  1  0  0  0  0
 91101  1  0  0  0  0
 92 93  1  0  0  0  0
 93102  1  0  0  0  0
103104  1  0  0  0  0
103115  1  0  0  0  0
104107  1  0  0  0  0
104105  1  0  0  0  0
104116  1  6  0  0  0
105106  2  0  0  0  0
105124  1  0  0  0  0
107108  1  0  0  0  0
107117  1  0  0  0  0
107118  1  0  0  0  0
108109  2  0  0  0  0
108110  1  0  0  0  0
109111  1  0  0  0  0
109119  1  0  0  0  0
110112  2  0  0  0  0
110120  1  0  0  0  0
111113  2  0  0  0  0
111121  1  0  0  0  0
112113  1  0  0  0  0
112122  1  0  0  0  0
113114  1  0  0  0  0
114123  1  0  0  0  0
124125  1  0  0  0  0
M  CHG  2   1   1   9   1
M  END
