1af6_ligand
 OpenBabel08222323343D

 45 46  0  0  1  0  0  0  0  0999 V2000
   12.4190   39.2880   85.7670 C   0  0  2  0  0  0  0  0  0  0  0  0
   13.0120   37.8620   85.6750 C   0  0  1  0  0  0  0  0  0  0  0  0
   14.4260   37.9190   85.0500 C   0  0  2  0  0  0  0  0  0  0  0  0
   14.3370   38.5690   83.6650 C   0  0  1  0  0  0  0  0  0  0  0  0
   13.5240   39.8610   83.6470 C   0  0  1  0  0  0  0  0  0  0  0  0
   13.0830   40.1780   82.2090 C   0  0  0  0  0  0  0  0  0  0  0  0
   13.0850   37.3160   86.9890 O   0  0  0  0  0  0  0  0  0  0  0  0
   14.9570   36.5940   84.9620 O   0  0  0  0  0  0  0  0  0  0  0  0
   15.6480   38.8500   83.1520 O   0  0  0  0  0  0  0  0  0  0  0  0
   12.3140   39.8530   84.4570 O   0  0  0  0  0  0  0  0  0  0  0  0
   12.3130   41.3720   82.2470 O   0  0  0  0  0  0  0  0  0  0  0  0
   11.4430   40.9520   87.8580 C   0  0  0  0  0  0  0  0  0  0  0  0
   12.8040   41.2550   87.1810 C   0  0  1  0  0  0  0  0  0  0  0  0
   13.9170   41.7790   88.1490 C   0  0  2  0  0  0  0  0  0  0  0  0
   14.8430   42.4840   87.1270 C   0  0  1  0  0  0  0  0  0  0  0  0
   13.7690   43.2140   86.2970 C   0  0  1  0  0  0  0  0  0  0  0  0
   14.2040   43.6460   84.9250 C   0  0  0  0  0  0  0  0  0  0  0  0
   10.9650   42.0370   88.6640 O   0  0  0  0  0  0  0  0  0  0  0  0
   13.2970   40.0420   86.5380 O   0  0  0  0  0  0  0  0  0  0  0  0
   14.5930   40.6720   88.7730 O   0  0  0  0  0  0  0  0  0  0  0  0
   15.7700   43.3640   87.7470 O   0  0  0  0  0  0  0  0  0  0  0  0
   12.6650   42.2850   86.1410 O   0  0  0  0  0  0  0  0  0  0  0  0
   13.2820   44.6090   84.4310 O   0  0  0  0  0  0  0  0  0  0  0  0
   11.4259   39.2587   86.2391 H   0  0  0  0  0  0  0  0  0  0  0  0
   12.3626   37.2321   85.0494 H   0  0  0  0  0  0  0  0  0  0  0  0
   15.0834   38.5263   85.6895 H   0  0  0  0  0  0  0  0  0  0  0  0
   13.8455   37.8501   82.9931 H   0  0  0  0  0  0  0  0  0  0  0  0
   14.1761   40.6673   84.0137 H   0  0  0  0  0  0  0  0  0  0  0  0
   12.4741   39.3519   81.8130 H   0  0  0  0  0  0  0  0  0  0  0  0
   13.9662   40.3219   81.5693 H   0  0  0  0  0  0  0  0  0  0  0  0
   13.6446   37.8632   87.5274 H   0  0  0  0  0  0  0  0  0  0  0  0
   15.8281   36.6276   84.5844 H   0  0  0  0  0  0  0  0  0  0  0  0
   16.1662   38.0538   83.1572 H   0  0  0  0  0  0  0  0  0  0  0  0
   11.5550   41.2410   82.8045 H   0  0  0  0  0  0  0  0  0  0  0  0
   11.5594   40.0648   88.4978 H   0  0  0  0  0  0  0  0  0  0  0  0
   10.7000   40.7438   87.0740 H   0  0  0  0  0  0  0  0  0  0  0  0
   13.5261   42.4699   88.9104 H   0  0  0  0  0  0  0  0  0  0  0  0
   15.3987   41.7577   86.5157 H   0  0  0  0  0  0  0  0  0  0  0  0
   13.4396   44.1041   86.8531 H   0  0  0  0  0  0  0  0  0  0  0  0
   14.2241   42.7755   84.2529 H   0  0  0  0  0  0  0  0  0  0  0  0
   15.2086   44.0907   84.9792 H   0  0  0  0  0  0  0  0  0  0  0  0
   10.1319   41.7980   89.0529 H   0  0  0  0  0  0  0  0  0  0  0  0
   14.8503   40.0441   88.1082 H   0  0  0  0  0  0  0  0  0  0  0  0
   15.3054   43.9504   88.3324 H   0  0  0  0  0  0  0  0  0  0  0  0
   13.2660   45.3587   85.0141 H   0  0  0  0  0  0  0  0  0  0  0  0
  1  2  1  0  0  0  0
  1 10  1  0  0  0  0
  1 24  1  1  0  0  0
  2  3  1  0  0  0  0
  2  7  1  0  0  0  0
  2 25  1  6  0  0  0
  3  4  1  0  0  0  0
  3  8  1  0  0  0  0
  3 26  1  1  0  0  0
  4  9  1  0  0  0  0
  4 27  1  6  0  0  0
  5  4  1  0  0  0  0
  5  6  1  0  0  0  0
  5 28  1  1  0  0  0
  6 11  1  0  0  0  0
  6 29  1  0  0  0  0
  6 30  1  0  0  0  0
  7 31  1  0  0  0  0
  8 32  1  0  0  0  0
  9 33  1  0  0  0  0
 10  5  1  0  0  0  0
 11 34  1  0  0  0  0
 12 18  1  0  0  0  0
 12 35  1  0  0  0  0
 12 36  1  0  0  0  0
 13 12  1  0  0  0  0
 13 14  1  0  0  0  0
 13 19  1  6  0  0  0
 13 22  1  0  0  0  0
 14 15  1  0  0  0  0
 14 20  1  0  0  0  0
 14 37  1  1  0  0  0
 15 21  1  0  0  0  0
 15 38  1  6  0  0  0
 16 15  1  0  0  0  0
 16 17  1  0  0  0  0
 16 39  1  1  0  0  0
 17 23  1  0  0  0  0
 17 40  1  0  0  0  0
 17 41  1  0  0  0  0
 18 42  1  0  0  0  0
 19  1  1  0  0  0  0
 20 43  1  0  0  0  0
 21 44  1  0  0  0  0
 22 16  1  0  0  0  0
 23 45  1  0  0  0  0
M  END
