1ag9_ligand
 OpenBabel08222323343D

 52 54  0  0  1  0  0  0  0  0999 V2000
   -0.0430   61.5430   24.7750 N   0  0  0  0  0  0  0  0  0  0  0  0
   -0.1900   62.2760   25.9270 C   0  0  0  0  0  0  0  0  0  0  0  0
    0.7360   62.4200   26.6830 O   0  0  0  0  0  0  0  0  0  0  0  0
   -1.4260   62.8660   26.2360 N   0  0  0  0  0  0  0  0  0  0  0  0
   -2.5260   62.7340   25.4120 C   0  0  0  0  0  0  0  0  0  0  0  0
   -3.5770   63.2580   25.6800 O   0  0  0  0  0  0  0  0  0  0  0  0
   -2.3780   61.9190   24.1540 C   0  0  0  0  0  0  0  0  0  0  0  0
   -3.4100   61.7410   23.3360 N   0  0  0  0  0  0  0  0  0  0  0  0
   -3.2040   61.0560   22.1390 C   0  0  0  0  0  0  0  0  0  0  0  0
   -4.2620   60.9870   21.1630 C   0  0  0  0  0  0  0  0  0  0  0  0
   -4.0280   60.4080   19.9180 C   0  0  0  0  0  0  0  0  0  0  0  0
   -5.0580   60.4770   18.8490 C   0  0  0  0  0  0  0  0  0  0  0  0
   -2.7780   59.7630   19.6320 C   0  0  0  0  0  0  0  0  0  0  0  0
   -2.5700   59.0880   18.3040 C   0  0  0  0  0  0  0  0  0  0  0  0
   -1.7550   59.7920   20.5790 C   0  0  0  0  0  0  0  0  0  0  0  0
   -1.9440   60.4450   21.8320 C   0  0  0  0  0  0  0  0  0  0  0  0
   -0.9340   60.5620   22.7950 N   0  0  0  0  0  0  0  0  0  0  0  0
   -1.0570   61.3520   23.9270 C   0  0  0  0  0  0  0  0  0  0  0  0
    0.2820   59.8130   22.5530 C   0  0  0  0  0  0  0  0  0  0  0  0
    0.2420   58.3750   23.0800 C   0  0  2  0  0  0  0  0  0  0  0  0
    0.0230   58.3150   24.4910 O   0  0  0  0  0  0  0  0  0  0  0  0
    1.5730   57.6900   22.7570 C   0  0  2  0  0  0  0  0  0  0  0  0
    1.7030   57.5240   21.3380 O   0  0  0  0  0  0  0  0  0  0  0  0
    1.9130   56.3790   23.4820 C   0  0  2  0  0  0  0  0  0  0  0  0
    3.2480   55.9870   23.1630 O   0  0  0  0  0  0  0  0  0  0  0  0
    0.8900   55.2850   23.1870 C   0  0  0  0  0  0  0  0  0  0  0  0
    1.1590   54.1790   24.0620 O   0  0  0  0  0  0  0  0  0  0  0  0
    0.5590   52.8830   23.7940 P   0  0  0  0  0  0  0  0  0  0  0  0
    1.2460   52.3190   22.6330 O   0  0  0  0  0  1  0  0  0  0  0  0
   -0.9140   52.9300   23.7380 O   0  0  0  0  0  1  0  0  0  0  0  0
    0.9770   52.0670   24.9160 O   0  0  0  0  0  0  0  0  0  0  0  0
    0.8483   61.1410   24.5652 H   0  0  0  0  0  0  0  0  0  0  0  0
   -1.5123   63.3979   27.0784 H   0  0  0  0  0  0  0  0  0  0  0  0
   -4.3431   62.1017   23.5811 H   0  0  0  0  0  0  0  0  0  0  0  0
   -5.2419   61.3865   21.3982 H   0  0  0  0  0  0  0  0  0  0  0  0
   -5.9479   60.9992   19.2304 H   0  0  0  0  0  0  0  0  0  0  0  0
   -5.3350   59.4582   18.5403 H   0  0  0  0  0  0  0  0  0  0  0  0
   -4.6537   61.0248   17.9850 H   0  0  0  0  0  0  0  0  0  0  0  0
   -1.5602   58.6533   18.2678 H   0  0  0  0  0  0  0  0  0  0  0  0
   -2.6805   59.8263   17.4961 H   0  0  0  0  0  0  0  0  0  0  0  0
   -3.3171   58.2907   18.1769 H   0  0  0  0  0  0  0  0  0  0  0  0
   -0.8072   59.3136   20.3604 H   0  0  0  0  0  0  0  0  0  0  0  0
    1.1152   60.3381   23.0429 H   0  0  0  0  0  0  0  0  0  0  0  0
    0.4574   59.7791   21.4676 H   0  0  0  0  0  0  0  0  0  0  0  0
   -0.5751   57.8391   22.5749 H   0  0  0  0  0  0  0  0  0  0  0  0
   -0.8075   58.7266   24.6992 H   0  0  0  0  0  0  0  0  0  0  0  0
    2.3505   58.4029   23.0688 H   0  0  0  0  0  0  0  0  0  0  0  0
    0.9874   56.9884   21.0161 H   0  0  0  0  0  0  0  0  0  0  0  0
    1.8745   56.5748   24.5637 H   0  0  0  0  0  0  0  0  0  0  0  0
    3.8512   56.6668   23.4398 H   0  0  0  0  0  0  0  0  0  0  0  0
    0.9798   54.9625   22.1392 H   0  0  0  0  0  0  0  0  0  0  0  0
   -0.1262   55.6654   23.3677 H   0  0  0  0  0  0  0  0  0  0  0  0
  1  2  1  0  0  0  0
  1 18  1  0  0  0  0
  1 32  1  0  0  0  0
  2  3  2  0  0  0  0
  2  4  1  0  0  0  0
  4  5  1  0  0  0  0
  4 33  1  0  0  0  0
  5  6  2  0  0  0  0
  5  7  1  0  0  0  0
  7  8  1  0  0  0  0
  7 18  2  0  0  0  0
  8  9  1  0  0  0  0
  8 34  1  0  0  0  0
  9 10  2  0  0  0  0
  9 16  1  0  0  0  0
 10 11  1  0  0  0  0
 10 35  1  0  0  0  0
 11 12  1  0  0  0  0
 11 13  2  0  0  0  0
 12 36  1  0  0  0  0
 12 37  1  0  0  0  0
 12 38  1  0  0  0  0
 13 14  1  0  0  0  0
 13 15  1  0  0  0  0
 14 39  1  0  0  0  0
 14 40  1  0  0  0  0
 14 41  1  0  0  0  0
 15 16  2  0  0  0  0
 15 42  1  0  0  0  0
 16 17  1  0  0  0  0
 17 18  1  0  0  0  0
 17 19  1  0  0  0  0
 19 20  1  0  0  0  0
 19 43  1  0  0  0  0
 19 44  1  0  0  0  0
 20 21  1  0  0  0  0
 20 22  1  0  0  0  0
 20 45  1  6  0  0  0
 21 46  1  0  0  0  0
 22 23  1  0  0  0  0
 22 24  1  0  0  0  0
 22 47  1  1  0  0  0
 23 48  1  0  0  0  0
 24 25  1  0  0  0  0
 24 26  1  0  0  0  0
 24 49  1  1  0  0  0
 25 50  1  0  0  0  0
 26 27  1  0  0  0  0
 26 51  1  0  0  0  0
 26 52  1  0  0  0  0
 27 28  1  0  0  0  0
 28 29  1  0  0  0  0
 28 30  1  0  0  0  0
 28 31  2  0  0  0  0
M  END
