1agw_ligand
 OpenBabel08222323343D

 44 47  0  0  0  0  0  0  0  0999 V2000
    5.2005    1.7049   20.2886 H   0  0  0  0  0  0  0  0  0  0  0  0
    7.8424    6.2528   19.1756 H   0  0  0  0  0  0  0  0  0  0  0  0
    7.0025    6.1833   16.8514 H   0  0  0  0  0  0  0  0  0  0  0  0
    5.5324    4.3545   16.0907 H   0  0  0  0  0  0  0  0  0  0  0  0
    4.8815    2.5295   17.6122 H   0  0  0  0  0  0  0  0  0  0  0  0
    7.9735    6.1125   21.7862 H   0  0  0  0  0  0  0  0  0  0  0  0
    9.8783    6.4361   23.3191 H   0  0  0  0  0  0  0  0  0  0  0  0
   11.2070    5.7812   25.2910 H   0  0  0  0  0  0  0  0  0  0  0  0
    9.1253    2.0521   25.4448 H   0  0  0  0  0  0  0  0  0  0  0  0
    7.8023    2.7060   23.4673 H   0  0  0  0  0  0  0  0  0  0  0  0
   12.9549    1.3416   30.7458 H   0  0  0  0  0  0  0  0  0  0  0  0
   12.5027    1.2185   27.6581 H   0  0  0  0  0  0  0  0  0  0  0  0
   11.3105    0.9701   28.9786 H   0  0  0  0  0  0  0  0  0  0  0  0
   10.3863    1.4808   26.7022 H   0  0  0  0  0  0  0  0  0  0  0  0
    9.8058    2.5055   28.0586 H   0  0  0  0  0  0  0  0  0  0  0  0
   11.0015    5.0621   28.0651 H   0  0  0  0  0  0  0  0  0  0  0  0
   12.2394    5.2211   26.7732 H   0  0  0  0  0  0  0  0  0  0  0  0
   13.7361    3.8206   27.8431 H   0  0  0  0  0  0  0  0  0  0  0  0
   13.0046    4.7670   29.1832 H   0  0  0  0  0  0  0  0  0  0  0  0
    5.7630    2.5310   20.3220 N   0  0  0  0  0  0  0  0  0  0  0  0
    6.4340    2.9940   21.4270 C   0  0  0  0  0  0  0  0  0  0  0  0
    6.3730    2.3820   22.4940 O   0  0  0  0  0  0  0  0  0  0  0  0
    7.0950    4.1650   21.1310 C   0  0  0  0  0  0  0  0  0  0  0  0
    7.1970    5.4450   18.8500 C   0  0  0  0  0  0  0  0  0  0  0  0
    6.7240    5.4000   17.5470 C   0  0  0  0  0  0  0  0  0  0  0  0
    5.8900    4.3560   17.1140 C   0  0  0  0  0  0  0  0  0  0  0  0
    5.5170    3.3380   17.9550 C   0  0  0  0  0  0  0  0  0  0  0  0
    5.9880    3.3830   19.2720 C   0  0  0  0  0  0  0  0  0  0  0  0
    6.8240    4.4240   19.7400 C   0  0  0  0  0  0  0  0  0  0  0  0
    7.9420    5.0530   22.0360 C   0  0  0  0  0  0  0  0  0  0  0  0
    8.7500    4.6160   23.2540 C   0  0  0  0  0  0  0  0  0  0  0  0
    9.7100    5.4700   23.7810 C   0  0  0  0  0  0  0  0  0  0  0  0
   10.4610    5.1000   24.8980 C   0  0  0  0  0  0  0  0  0  0  0  0
   10.2640    3.8680   25.5130 C   0  0  0  0  0  0  0  0  0  0  0  0
    9.2980    3.0170   24.9820 C   0  0  0  0  0  0  0  0  0  0  0  0
    8.5480    3.3860   23.8630 C   0  0  0  0  0  0  0  0  0  0  0  0
   12.4930    2.7110   29.1520 N   0  0  0  0  0  0  0  0  0  0  0  0
   13.2630    2.2770   30.2810 C   0  0  0  0  0  0  0  0  0  0  0  0
   14.2360    2.8450   30.7850 O   0  0  0  0  0  0  0  0  0  0  0  0
   11.7640    1.7130   28.3060 C   0  0  0  0  0  0  0  0  0  0  0  0
   10.6690    2.2640   27.4210 C   0  0  0  0  0  0  0  0  0  0  0  0
   11.0300    3.4890   26.6500 N   0  0  0  0  0  0  0  0  0  0  0  0
   11.7510    4.5220   27.4680 C   0  0  0  0  0  0  0  0  0  0  0  0
   12.8190    3.9910   28.4260 C   0  0  0  0  0  0  0  0  0  0  0  0
 20  1  1  0  0  0  0
 21 20  1  0  0  0  0
 21 22  2  0  0  0  0
 23 21  1  0  0  0  0
 23 29  1  0  0  0  0
 24  2  1  0  0  0  0
 24 25  1  0  0  0  0
 25  3  1  0  0  0  0
 25 26  2  0  0  0  0
 26  4  1  0  0  0  0
 27  5  1  0  0  0  0
 27 26  1  0  0  0  0
 28 20  1  0  0  0  0
 28 27  2  0  0  0  0
 29 28  1  0  0  0  0
 29 24  2  0  0  0  0
 30  6  1  0  0  0  0
 30 23  2  0  0  0  0
 31 30  1  0  0  0  0
 32  7  1  0  0  0  0
 32 31  1  0  0  0  0
 33  8  1  0  0  0  0
 33 32  2  0  0  0  0
 34 33  1  0  0  0  0
 34 35  2  0  0  0  0
 35  9  1  0  0  0  0
 35 36  1  0  0  0  0
 36 10  1  0  0  0  0
 36 31  2  0  0  0  0
 37 40  1  0  0  0  0
 37 44  1  0  0  0  0
 37 38  1  0  0  0  0
 38 11  1  0  0  0  0
 38 39  2  0  0  0  0
 40 12  1  0  0  0  0
 40 13  1  0  0  0  0
 40 41  1  0  0  0  0
 41 14  1  0  0  0  0
 41 15  1  0  0  0  0
 41 42  1  0  0  0  0
 42 34  1  0  0  0  0
 42 43  1  0  0  0  0
 43 16  1  0  0  0  0
 43 17  1  0  0  0  0
 44 18  1  0  0  0  0
 44 19  1  0  0  0  0
 44 43  1  0  0  0  0
M  END
