1ahx_ligand
 OpenBabel08222323343D

 20 20  0  0  0  0  0  0  0  0999 V2000
  -10.2340   56.7110   23.8630 C   0  0  0  0  0  0  0  0  0  0  0  0
  -11.2720   56.7050   23.2390 O   0  5  0  0  0  0  0  0  0  0  0  0
  -10.1360   57.2790   25.0310 O   0  0  0  0  0  0  0  0  0  0  0  0
   -9.0350   56.0370   23.1180 C   0  0  0  0  0  0  0  0  0  0  0  0
   -9.2200   54.5170   22.7860 C   0  0  0  0  0  0  0  0  0  0  0  0
   -9.2120   53.5680   23.9780 C   0  0  0  0  0  0  0  0  0  0  0  0
   -8.0510   52.8910   24.3810 C   0  0  0  0  0  0  0  0  0  0  0  0
   -8.0730   52.0090   25.4680 C   0  0  0  0  0  0  0  0  0  0  0  0
   -9.2780   51.7920   26.1390 C   0  0  0  0  0  0  0  0  0  0  0  0
  -10.4490   52.4350   25.7340 C   0  0  0  0  0  0  0  0  0  0  0  0
  -10.4120   53.3030   24.6480 C   0  0  0  0  0  0  0  0  0  0  0  0
   -8.1411   56.1399   23.7507 H   0  0  0  0  0  0  0  0  0  0  0  0
   -8.8781   56.5746   22.1712 H   0  0  0  0  0  0  0  0  0  0  0  0
   -8.4038   54.2178   22.1120 H   0  0  0  0  0  0  0  0  0  0  0  0
  -10.1839   54.4001   22.2691 H   0  0  0  0  0  0  0  0  0  0  0  0
   -7.1239   53.0532   23.8431 H   0  0  0  0  0  0  0  0  0  0  0  0
   -7.1683   51.5023   25.7839 H   0  0  0  0  0  0  0  0  0  0  0  0
   -9.3046   51.1154   26.9855 H   0  0  0  0  0  0  0  0  0  0  0  0
  -11.3795   52.2592   26.2616 H   0  0  0  0  0  0  0  0  0  0  0  0
  -11.3261   53.7814   24.3155 H   0  0  0  0  0  0  0  0  0  0  0  0
  1  2  1  0  0  0  0
  1  3  2  0  0  0  0
  1  4  1  0  0  0  0
  4  5  1  0  0  0  0
  4 12  1  0  0  0  0
  4 13  1  0  0  0  0
  5  6  1  0  0  0  0
  5 14  1  0  0  0  0
  5 15  1  0  0  0  0
  6  7  2  0  0  0  0
  6 11  1  0  0  0  0
  7  8  1  0  0  0  0
  7 16  1  0  0  0  0
  8  9  2  0  0  0  0
  8 17  1  0  0  0  0
  9 10  1  0  0  0  0
  9 18  1  0  0  0  0
 10 11  2  0  0  0  0
 10 19  1  0  0  0  0
 11 20  1  0  0  0  0
M  CHG  1   2  -1
M  END
