1al7_ligand
 OpenBabel08222323343D

 44 44  0  0  0  0  0  0  0  0999 V2000
   47.0180   53.0920   19.9480 N   0  0  0  0  0  0  0  0  0  0  0  0
   47.4880   53.6560   21.0750 N   0  0  0  0  0  0  0  0  0  0  0  0
   48.2280   54.7350   20.7700 N   0  0  0  0  0  0  0  0  0  0  0  0
   47.4680   53.8400   18.8920 C   0  0  0  0  0  0  0  0  0  0  0  0
   48.2410   54.8740   19.3950 C   0  0  0  0  0  0  0  0  0  0  0  0
   49.2300   55.7830   18.6680 C   0  0  0  0  0  0  0  0  0  0  0  0
   49.9400   56.5930   19.2470 O   0  5  0  0  0  0  0  0  0  0  0  0
   49.0570   55.8320   17.3220 O   0  0  0  0  0  0  0  0  0  0  0  0
   46.7560   53.8760   17.2990 S   0  0  0  0  0  0  0  0  0  0  0  0
   44.2430   58.3890   13.6330 C   0  0  0  0  0  0  0  0  0  0  0  0
   45.0680   57.1010   13.7820 C   0  0  0  0  0  0  0  0  0  0  0  0
   44.7280   56.2790   15.0390 C   0  0  0  0  0  0  0  0  0  0  0  0
   44.8490   57.0740   16.3570 C   0  0  0  0  0  0  0  0  0  0  0  0
   45.4970   56.2620   17.4910 C   0  0  0  0  0  0  0  0  0  0  0  0
   45.1820   54.7540   17.4800 C   0  0  0  0  0  0  0  0  0  0  0  0
   44.4670   54.1980   18.7400 C   0  0  0  0  0  0  0  0  0  0  0  0
   44.2220   55.2430   19.8460 C   0  0  0  0  0  0  0  0  0  0  0  0
   42.7500   55.2870   20.2900 C   0  0  0  0  0  0  0  0  0  0  0  0
   42.5450   55.0110   21.7890 C   0  0  0  0  0  0  0  0  0  0  0  0
   41.3780   54.0590   22.0950 C   0  0  0  0  0  0  0  0  0  0  0  0
   46.4270   52.2505   19.8895 H   0  0  0  0  0  0  0  0  0  0  0  0
   44.5458   58.9142   12.7151 H   0  0  0  0  0  0  0  0  0  0  0  0
   44.4185   59.0395   14.5025 H   0  0  0  0  0  0  0  0  0  0  0  0
   43.1743   58.1352   13.5746 H   0  0  0  0  0  0  0  0  0  0  0  0
   46.1323   57.3755   13.8261 H   0  0  0  0  0  0  0  0  0  0  0  0
   44.8881   56.4712   12.8983 H   0  0  0  0  0  0  0  0  0  0  0  0
   45.4142   55.4207   15.0879 H   0  0  0  0  0  0  0  0  0  0  0  0
   43.6935   55.9166   14.9467 H   0  0  0  0  0  0  0  0  0  0  0  0
   43.8415   57.3794   16.6760 H   0  0  0  0  0  0  0  0  0  0  0  0
   45.4619   57.9685   16.1719 H   0  0  0  0  0  0  0  0  0  0  0  0
   45.1477   56.6757   18.4485 H   0  0  0  0  0  0  0  0  0  0  0  0
   46.5878   56.3824   17.4156 H   0  0  0  0  0  0  0  0  0  0  0  0
   44.5415   54.5473   16.6100 H   0  0  0  0  0  0  0  0  0  0  0  0
   45.0866   53.3918   19.1596 H   0  0  0  0  0  0  0  0  0  0  0  0
   43.4936   53.7894   18.4311 H   0  0  0  0  0  0  0  0  0  0  0  0
   44.5066   56.2349   19.4651 H   0  0  0  0  0  0  0  0  0  0  0  0
   44.8466   54.9911   20.7157 H   0  0  0  0  0  0  0  0  0  0  0  0
   42.1927   54.5300   19.7187 H   0  0  0  0  0  0  0  0  0  0  0  0
   42.3492   56.2860   20.0634 H   0  0  0  0  0  0  0  0  0  0  0  0
   42.3515   55.9689   22.2939 H   0  0  0  0  0  0  0  0  0  0  0  0
   43.4683   54.5660   22.1883 H   0  0  0  0  0  0  0  0  0  0  0  0
   41.2986   53.9140   23.1825 H   0  0  0  0  0  0  0  0  0  0  0  0
   41.5584   53.0893   21.6080 H   0  0  0  0  0  0  0  0  0  0  0  0
   40.4416   54.4923   21.7136 H   0  0  0  0  0  0  0  0  0  0  0  0
  1  2  1  0  0  0  0
  1 21  1  0  0  0  0
  3  2  2  0  0  0  0
  4  1  1  0  0  0  0
  4  5  2  0  0  0  0
  5  3  1  0  0  0  0
  5  6  1  0  0  0  0
  6  7  1  0  0  0  0
  6  8  2  0  0  0  0
  9  4  1  0  0  0  0
 10 22  1  0  0  0  0
 10 23  1  0  0  0  0
 10 24  1  0  0  0  0
 11 10  1  0  0  0  0
 11 25  1  0  0  0  0
 11 26  1  0  0  0  0
 12 11  1  0  0  0  0
 12 27  1  0  0  0  0
 12 28  1  0  0  0  0
 13 12  1  0  0  0  0
 13 29  1  0  0  0  0
 13 30  1  0  0  0  0
 14 13  1  0  0  0  0
 14 15  1  0  0  0  0
 14 31  1  0  0  0  0
 14 32  1  0  0  0  0
 15  9  1  0  0  0  0
 15 16  1  0  0  0  0
 15 33  1  0  0  0  0
 16 17  1  0  0  0  0
 16 34  1  0  0  0  0
 16 35  1  0  0  0  0
 17 18  1  0  0  0  0
 17 36  1  0  0  0  0
 17 37  1  0  0  0  0
 18 19  1  0  0  0  0
 18 38  1  0  0  0  0
 18 39  1  0  0  0  0
 19 20  1  0  0  0  0
 19 40  1  0  0  0  0
 19 41  1  0  0  0  0
 20 42  1  0  0  0  0
 20 43  1  0  0  0  0
 20 44  1  0  0  0  0
M  CHG  1   7  -1
M  END
