1avd_ligand
 OpenBabel08222323343D

 31 32  0  0  1  0  0  0  0  0999 V2000
   33.3470    7.5510   14.5800 C   0  0  0  0  0  0  0  0  0  0  0  0
   32.4630    6.7800   14.3090 O   0  5  0  0  0  0  0  0  0  0  0  0
   34.6310    7.3580   14.2570 O   0  0  0  0  0  0  0  0  0  0  0  0
   33.0640    8.8120   15.3570 C   0  0  0  0  0  0  0  0  0  0  0  0
   34.3370    9.2700   16.1400 C   0  0  0  0  0  0  0  0  0  0  0  0
   34.1000   10.3970   17.1550 C   0  0  0  0  0  0  0  0  0  0  0  0
   35.4080   11.0180   17.7030 C   0  0  0  0  0  0  0  0  0  0  0  0
   36.0120   10.2850   18.9330 C   0  0  2  0  0  0  0  0  0  0  0  0
   35.0490   10.3590   20.4690 S   0  0  0  0  0  0  0  0  0  0  0  0
   36.5110    9.7330   21.3280 C   0  0  0  0  0  0  0  0  0  0  0  0
   37.5950   10.6450   20.7660 C   0  0  2  0  0  0  0  0  0  0  0  0
   37.4320   11.9640   21.3400 N   0  0  0  0  0  0  0  0  0  0  0  0
   37.0050   12.8970   20.5100 C   0  0  0  0  0  0  0  0  0  0  0  0
   36.7480   14.0660   20.8030 O   0  0  0  0  0  0  0  0  0  0  0  0
   36.9170   12.3440   19.2800 N   0  0  0  0  0  0  0  0  0  0  0  0
   37.3380   10.9370   19.2710 C   0  0  2  0  0  0  0  0  0  0  0  0
   32.2489    8.6221   16.0708 H   0  0  0  0  0  0  0  0  0  0  0  0
   32.7627    9.6072   14.6593 H   0  0  0  0  0  0  0  0  0  0  0  0
   35.0808    9.6194   15.4088 H   0  0  0  0  0  0  0  0  0  0  0  0
   34.7363    8.4001   16.6821 H   0  0  0  0  0  0  0  0  0  0  0  0
   33.5269    9.9894   18.0008 H   0  0  0  0  0  0  0  0  0  0  0  0
   33.5164   11.1902   16.6649 H   0  0  0  0  0  0  0  0  0  0  0  0
   35.1976   12.0578   17.9937 H   0  0  0  0  0  0  0  0  0  0  0  0
   36.1562   11.0069   16.8967 H   0  0  0  0  0  0  0  0  0  0  0  0
   36.1623    9.2297   18.6614 H   0  0  0  0  0  0  0  0  0  0  0  0
   36.7032    8.6784   21.0813 H   0  0  0  0  0  0  0  0  0  0  0  0
   36.4164    9.8432   22.4184 H   0  0  0  0  0  0  0  0  0  0  0  0
   38.5949   10.2227   20.9445 H   0  0  0  0  0  0  0  0  0  0  0  0
   37.6298   12.1554   22.3014 H   0  0  0  0  0  0  0  0  0  0  0  0
   36.6014   12.8364   18.4689 H   0  0  0  0  0  0  0  0  0  0  0  0
   38.1737   10.6842   18.6019 H   0  0  0  0  0  0  0  0  0  0  0  0
  1  2  1  0  0  0  0
  1  3  2  0  0  0  0
  1  4  1  0  0  0  0
  4  5  1  0  0  0  0
  4 17  1  0  0  0  0
  4 18  1  0  0  0  0
  5  6  1  0  0  0  0
  5 19  1  0  0  0  0
  5 20  1  0  0  0  0
  6  7  1  0  0  0  0
  6 21  1  0  0  0  0
  6 22  1  0  0  0  0
  7  8  1  0  0  0  0
  7 23  1  0  0  0  0
  7 24  1  0  0  0  0
  8  9  1  0  0  0  0
  8 16  1  0  0  0  0
  8 25  1  6  0  0  0
  9 10  1  0  0  0  0
 10 11  1  0  0  0  0
 10 26  1  0  0  0  0
 10 27  1  0  0  0  0
 11 12  1  0  0  0  0
 11 16  1  0  0  0  0
 11 28  1  1  0  0  0
 12 13  1  0  0  0  0
 12 29  1  0  0  0  0
 13 14  2  0  0  0  0
 13 15  1  0  0  0  0
 15 16  1  0  0  0  0
 15 30  1  0  0  0  0
 16 31  1  6  0  0  0
M  CHG  1   2  -1
M  END
