1awi_ligand
 OpenBabel08222323343D

143152  0  0  1  0  0  0  0  0999 V2000
   30.3990   78.5970   38.4640 N   0  3  0  0  0  0  0  0  0  0  0  0
   31.3660   77.5690   38.0550 C   0  0  2  0  0  0  0  0  0  0  0  0
   31.0050   76.1880   38.6270 C   0  0  0  0  0  0  0  0  0  0  0  0
   31.6040   75.7300   39.6050 O   0  0  0  0  0  0  0  0  0  0  0  0
   32.6820   78.1050   38.6220 C   0  0  0  0  0  0  0  0  0  0  0  0
   32.2420   78.8430   39.8560 C   0  0  0  0  0  0  0  0  0  0  0  0
   31.0130   79.5740   39.3810 C   0  0  0  0  0  0  0  0  0  0  0  0
   30.0490   75.4870   37.9850 N   0  0  0  0  0  0  0  0  0  0  0  0
   29.6000   74.1620   38.4270 C   0  0  2  0  0  0  0  0  0  0  0  0
   30.6790   73.0940   38.3910 C   0  0  0  0  0  0  0  0  0  0  0  0
   31.7560   73.3020   37.8330 O   0  0  0  0  0  0  0  0  0  0  0  0
   28.4570   73.8510   37.4610 C   0  0  0  0  0  0  0  0  0  0  0  0
   28.8910   74.5370   36.2080 C   0  0  0  0  0  0  0  0  0  0  0  0
   29.4010   75.8620   36.7140 C   0  0  0  0  0  0  0  0  0  0  0  0
   30.4340   71.9640   39.0700 N   0  0  0  0  0  0  0  0  0  0  0  0
   31.3880   70.8540   39.1140 C   0  0  2  0  0  0  0  0  0  0  0  0
   31.2980   70.1170   37.7900 C   0  0  0  0  0  0  0  0  0  0  0  0
   30.2820   70.1940   37.1000 O   0  0  0  0  0  0  0  0  0  0  0  0
   30.8470   69.9720   40.2440 C   0  0  0  0  0  0  0  0  0  0  0  0
   29.9280   70.8850   41.0250 C   0  0  0  0  0  0  0  0  0  0  0  0
   29.2850   71.6920   39.9450 C   0  0  0  0  0  0  0  0  0  0  0  0
   32.3530   69.3860   37.4200 N   0  0  0  0  0  0  0  0  0  0  0  0
   32.3250   68.6510   36.1580 C   0  0  2  0  0  0  0  0  0  0  0  0
   31.1920   67.6230   36.1410 C   0  0  0  0  0  0  0  0  0  0  0  0
   30.9370   66.9400   37.1370 O   0  0  0  0  0  0  0  0  0  0  0  0
   33.7000   67.9960   36.1230 C   0  0  0  0  0  0  0  0  0  0  0  0
   34.0230   67.8050   37.5700 C   0  0  0  0  0  0  0  0  0  0  0  0
   33.5990   69.1210   38.1520 C   0  0  0  0  0  0  0  0  0  0  0  0
   30.4340   67.5840   35.0400 N   0  0  0  0  0  0  0  0  0  0  0  0
   29.3120   66.6700   34.8470 C   0  0  2  0  0  0  0  0  0  0  0  0
   29.7410   65.2430   34.5380 C   0  0  0  0  0  0  0  0  0  0  0  0
   30.9170   64.9740   34.2780 O   0  0  0  0  0  0  0  0  0  0  0  0
   28.5840   67.2890   33.6590 C   0  0  0  0  0  0  0  0  0  0  0  0
   28.9210   68.7200   33.7710 C   0  0  0  0  0  0  0  0  0  0  0  0
   30.3860   68.6480   34.0320 C   0  0  0  0  0  0  0  0  0  0  0  0
   28.7930   64.2960   34.6160 N   0  0  0  0  0  0  0  0  0  0  0  0
   29.1310   62.9030   34.3240 C   0  0  2  0  0  0  0  0  0  0  0  0
   29.5600   62.8190   32.8650 C   0  0  0  0  0  0  0  0  0  0  0  0
   29.2770   63.7180   32.0770 O   0  0  0  0  0  0  0  0  0  0  0  0
   27.8080   62.1790   34.5560 C   0  0  0  0  0  0  0  0  0  0  0  0
   27.1430   63.0140   35.6190 C   0  0  0  0  0  0  0  0  0  0  0  0
   27.4140   64.4080   35.1300 C   0  0  0  0  0  0  0  0  0  0  0  0
   30.2770   61.7590   32.4870 N   0  0  0  0  0  0  0  0  0  0  0  0
   30.6830   61.6810   31.0850 C   0  0  2  0  0  0  0  0  0  0  0  0
   29.4440   61.3440   30.2580 C   0  0  0  0  0  0  0  0  0  0  0  0
   28.3410   61.2600   30.8030 O   0  0  0  0  0  0  0  0  0  0  0  0
   31.6980   60.5440   31.1020 C   0  0  0  0  0  0  0  0  0  0  0  0
   31.1550   59.6350   32.1700 C   0  0  0  0  0  0  0  0  0  0  0  0
   30.7580   60.5940   33.2550 C   0  0  0  0  0  0  0  0  0  0  0  0
   29.5710   61.2980   28.9250 N   0  0  0  0  0  0  0  0  0  0  0  0
   28.3560   60.9580   28.1830 C   0  0  2  0  0  0  0  0  0  0  0  0
   28.1330   59.4650   28.3500 C   0  0  0  0  0  0  0  0  0  0  0  0
   29.0510   58.7390   28.7410 O   0  0  0  0  0  0  0  0  0  0  0  0
   28.7270   61.3070   26.7420 C   0  0  0  0  0  0  0  0  0  0  0  0
   29.7110   62.4090   26.9140 C   0  0  0  0  0  0  0  0  0  0  0  0
   30.5790   61.8670   28.0230 C   0  0  0  0  0  0  0  0  0  0  0  0
   26.8880   59.0040   28.1620 N   0  0  0  0  0  0  0  0  0  0  0  0
   26.5670   57.5800   28.2960 C   0  0  2  0  0  0  0  0  0  0  0  0
   27.5360   56.6870   27.4950 C   0  0  0  0  0  0  0  0  0  0  0  0
   28.1300   57.1390   26.5130 O   0  0  0  0  0  0  0  0  0  0  0  0
   25.1290   57.5350   27.7980 C   0  0  0  0  0  0  0  0  0  0  0  0
   24.5690   58.8200   28.3620 C   0  0  0  0  0  0  0  0  0  0  0  0
   25.6580   59.8020   27.9840 C   0  0  0  0  0  0  0  0  0  0  0  0
   27.6390   55.3960   27.8650 N   0  0  0  0  0  0  0  0  0  0  0  0
   28.4810   54.3500   27.2930 C   0  0  2  0  0  0  0  0  0  0  0  0
   29.7710   54.7780   26.5890 C   0  0  0  0  0  0  0  0  0  0  0  0
   30.1370   54.1470   25.5770 O   0  5  0  0  0  0  0  0  0  0  0  0
   27.4990   53.6080   26.3960 C   0  0  0  0  0  0  0  0  0  0  0  0
   26.1920   53.6750   27.2180 C   0  0  0  0  0  0  0  0  0  0  0  0
   26.4050   54.7490   28.3120 C   0  0  0  0  0  0  0  0  0  0  0  0
   30.4670   55.6620   27.1370 O   0  0  0  0  0  0  0  0  0  0  0  0
   29.6235   78.1520   38.9295 H   0  0  0  0  0  0  0  0  0  0  0  0
   30.0665   79.0800   37.6441 H   0  0  0  0  0  0  0  0  0  0  0  0
   31.4173   77.4968   36.9586 H   0  0  0  0  0  0  0  0  0  0  0  0
   33.1725   78.7840   37.9090 H   0  0  0  0  0  0  0  0  0  0  0  0
   33.3672   77.2828   38.8761 H   0  0  0  0  0  0  0  0  0  0  0  0
   33.0164   79.5468   40.1951 H   0  0  0  0  0  0  0  0  0  0  0  0
   31.9988   78.1450   40.6706 H   0  0  0  0  0  0  0  0  0  0  0  0
   31.2805   80.5014   38.8535 H   0  0  0  0  0  0  0  0  0  0  0  0
   30.3411   79.8097   40.2194 H   0  0  0  0  0  0  0  0  0  0  0  0
   29.2196   74.2243   39.4572 H   0  0  0  0  0  0  0  0  0  0  0  0
   27.5046   74.2609   37.8282 H   0  0  0  0  0  0  0  0  0  0  0  0
   28.3537   72.7671   37.3044 H   0  0  0  0  0  0  0  0  0  0  0  0
   28.0454   74.6750   35.5182 H   0  0  0  0  0  0  0  0  0  0  0  0
   29.6882   73.9723   35.7025 H   0  0  0  0  0  0  0  0  0  0  0  0
   28.5749   76.5687   36.8818 H   0  0  0  0  0  0  0  0  0  0  0  0
   30.1249   76.3037   36.0134 H   0  0  0  0  0  0  0  0  0  0  0  0
   32.4166   71.1906   39.3107 H   0  0  0  0  0  0  0  0  0  0  0  0
   31.6670   69.6078   40.8804 H   0  0  0  0  0  0  0  0  0  0  0  0
   30.2905   69.1150   39.8368 H   0  0  0  0  0  0  0  0  0  0  0  0
   30.4961   71.5254   41.7158 H   0  0  0  0  0  0  0  0  0  0  0  0
   29.1805   70.3088   41.5900 H   0  0  0  0  0  0  0  0  0  0  0  0
   28.8506   72.6219   40.3408 H   0  0  0  0  0  0  0  0  0  0  0  0
   28.5067   71.1175   39.4214 H   0  0  0  0  0  0  0  0  0  0  0  0
   32.1994   69.3366   35.3070 H   0  0  0  0  0  0  0  0  0  0  0  0
   34.4374   68.6520   35.6373 H   0  0  0  0  0  0  0  0  0  0  0  0
   33.6642   67.0311   35.5960 H   0  0  0  0  0  0  0  0  0  0  0  0
   35.0980   67.6275   37.7210 H   0  0  0  0  0  0  0  0  0  0  0  0
   33.4495   66.9719   38.0024 H   0  0  0  0  0  0  0  0  0  0  0  0
   34.3489   69.9031   37.9623 H   0  0  0  0  0  0  0  0  0  0  0  0
   33.4184   69.0408   39.2341 H   0  0  0  0  0  0  0  0  0  0  0  0
   28.6687   66.6598   35.7392 H   0  0  0  0  0  0  0  0  0  0  0  0
   27.4980   67.1317   33.7354 H   0  0  0  0  0  0  0  0  0  0  0  0
   28.9493   66.8702   32.7097 H   0  0  0  0  0  0  0  0  0  0  0  0
   28.3852   69.1971   34.6049 H   0  0  0  0  0  0  0  0  0  0  0  0
   28.7031   69.2605   32.8381 H   0  0  0  0  0  0  0  0  0  0  0  0
   30.7738   69.5982   34.4278 H   0  0  0  0  0  0  0  0  0  0  0  0
   30.9455   68.3726   33.1259 H   0  0  0  0  0  0  0  0  0  0  0  0
   29.9238   62.5188   34.9827 H   0  0  0  0  0  0  0  0  0  0  0  0
   27.9771   61.1512   34.9096 H   0  0  0  0  0  0  0  0  0  0  0  0
   27.2041   62.1559   33.6369 H   0  0  0  0  0  0  0  0  0  0  0  0
   27.5964   62.8408   36.6061 H   0  0  0  0  0  0  0  0  0  0  0  0
   26.0632   62.8107   35.6706 H   0  0  0  0  0  0  0  0  0  0  0  0
   27.3525   65.1376   35.9509 H   0  0  0  0  0  0  0  0  0  0  0  0
   26.7130   64.6940   34.3320 H   0  0  0  0  0  0  0  0  0  0  0  0
   31.1365   62.6175   30.7284 H   0  0  0  0  0  0  0  0  0  0  0  0
   32.7010   60.9110   31.3653 H   0  0  0  0  0  0  0  0  0  0  0  0
   31.7383   60.0331   30.1287 H   0  0  0  0  0  0  0  0  0  0  0  0
   31.9260   58.9345   32.5234 H   0  0  0  0  0  0  0  0  0  0  0  0
   30.2855   59.0693   31.8040 H   0  0  0  0  0  0  0  0  0  0  0  0
   31.6192   60.8608   33.8852 H   0  0  0  0  0  0  0  0  0  0  0  0
   29.9591   60.1747   33.8842 H   0  0  0  0  0  0  0  0  0  0  0  0
   27.4787   61.5260   28.5260 H   0  0  0  0  0  0  0  0  0  0  0  0
   27.8464   61.6465   26.1770 H   0  0  0  0  0  0  0  0  0  0  0  0
   29.1816   60.4460   26.2300 H   0  0  0  0  0  0  0  0  0  0  0  0
   29.2172   63.3458   27.2116 H   0  0  0  0  0  0  0  0  0  0  0  0
   30.2915   62.5764   25.9948 H   0  0  0  0  0  0  0  0  0  0  0  0
   31.1522   62.6675   28.5135 H   0  0  0  0  0  0  0  0  0  0  0  0
   31.2698   61.0951   27.6530 H   0  0  0  0  0  0  0  0  0  0  0  0
   26.6117   57.2727   29.3512 H   0  0  0  0  0  0  0  0  0  0  0  0
   24.5953   56.6578   28.1926 H   0  0  0  0  0  0  0  0  0  0  0  0
   25.0854   57.5270   26.6989 H   0  0  0  0  0  0  0  0  0  0  0  0
   24.4405   58.7599   29.4528 H   0  0  0  0  0  0  0  0  0  0  0  0
   23.6089   59.0819   27.8935 H   0  0  0  0  0  0  0  0  0  0  0  0
   25.6525   60.6769   28.6507 H   0  0  0  0  0  0  0  0  0  0  0  0
   25.5481   60.1347   26.9413 H   0  0  0  0  0  0  0  0  0  0  0  0
   28.7933   53.6802   28.1077 H   0  0  0  0  0  0  0  0  0  0  0  0
   27.8152   52.5670   26.2336 H   0  0  0  0  0  0  0  0  0  0  0  0
   27.3859   54.1126   25.4251 H   0  0  0  0  0  0  0  0  0  0  0  0
   25.9856   52.6988   27.6811 H   0  0  0  0  0  0  0  0  0  0  0  0
   25.3505   53.9580   26.5686 H   0  0  0  0  0  0  0  0  0  0  0  0
   26.5307   54.2902   29.3038 H   0  0  0  0  0  0  0  0  0  0  0  0
   25.5677   55.4618   28.3411 H   0  0  0  0  0  0  0  0  0  0  0  0
  1  7  1  0  0  0  0
  1 72  1  0  0  0  0
  1 73  1  0  0  0  0
  2  1  1  0  0  0  0
  2  5  1  0  0  0  0
  2 74  1  6  0  0  0
  3  2  1  0  0  0  0
  3  4  2  0  0  0  0
  5  6  1  0  0  0  0
  5 75  1  0  0  0  0
  5 76  1  0  0  0  0
  6  7  1  0  0  0  0
  6 77  1  0  0  0  0
  6 78  1  0  0  0  0
  7 79  1  0  0  0  0
  7 80  1  0  0  0  0
  8 14  1  0  0  0  0
  8  3  1  0  0  0  0
  9  8  1  0  0  0  0
  9 12  1  0  0  0  0
  9 81  1  1  0  0  0
 10  9  1  0  0  0  0
 10 11  2  0  0  0  0
 12 13  1  0  0  0  0
 12 82  1  0  0  0  0
 12 83  1  0  0  0  0
 13 14  1  0  0  0  0
 13 84  1  0  0  0  0
 13 85  1  0  0  0  0
 14 86  1  0  0  0  0
 14 87  1  0  0  0  0
 15 21  1  0  0  0  0
 15 10  1  0  0  0  0
 16 15  1  0  0  0  0
 16 19  1  0  0  0  0
 16 88  1  1  0  0  0
 17 16  1  0  0  0  0
 17 18  2  0  0  0  0
 19 20  1  0  0  0  0
 19 89  1  0  0  0  0
 19 90  1  0  0  0  0
 20 21  1  0  0  0  0
 20 91  1  0  0  0  0
 20 92  1  0  0  0  0
 21 93  1  0  0  0  0
 21 94  1  0  0  0  0
 22 28  1  0  0  0  0
 22 17  1  0  0  0  0
 23 22  1  0  0  0  0
 23 26  1  0  0  0  0
 23 95  1  6  0  0  0
 24 23  1  0  0  0  0
 24 25  2  0  0  0  0
 26 27  1  0  0  0  0
 26 96  1  0  0  0  0
 26 97  1  0  0  0  0
 27 28  1  0  0  0  0
 27 98  1  0  0  0  0
 27 99  1  0  0  0  0
 28100  1  0  0  0  0
 28101  1  0  0  0  0
 29 35  1  0  0  0  0
 29 24  1  0  0  0  0
 30 29  1  0  0  0  0
 30 33  1  0  0  0  0
 30102  1  1  0  0  0
 31 30  1  0  0  0  0
 31 32  2  0  0  0  0
 33 34  1  0  0  0  0
 33103  1  0  0  0  0
 33104  1  0  0  0  0
 34 35  1  0  0  0  0
 34105  1  0  0  0  0
 34106  1  0  0  0  0
 35107  1  0  0  0  0
 35108  1  0  0  0  0
 36 42  1  0  0  0  0
 36 31  1  0  0  0  0
 37 36  1  0  0  0  0
 37 40  1  0  0  0  0
 37109  1  1  0  0  0
 38 37  1  0  0  0  0
 38 39  2  0  0  0  0
 40 41  1  0  0  0  0
 40110  1  0  0  0  0
 40111  1  0  0  0  0
 41 42  1  0  0  0  0
 41112  1  0  0  0  0
 41113  1  0  0  0  0
 42114  1  0  0  0  0
 42115  1  0  0  0  0
 43 49  1  0  0  0  0
 43 38  1  0  0  0  0
 44 43  1  0  0  0  0
 44 47  1  0  0  0  0
 44116  1  6  0  0  0
 45 44  1  0  0  0  0
 45 46  2  0  0  0  0
 47 48  1  0  0  0  0
 47117  1  0  0  0  0
 47118  1  0  0  0  0
 48 49  1  0  0  0  0
 48119  1  0  0  0  0
 48120  1  0  0  0  0
 49121  1  0  0  0  0
 49122  1  0  0  0  0
 50 56  1  0  0  0  0
 50 45  1  0  0  0  0
 51 50  1  0  0  0  0
 51 54  1  0  0  0  0
 51123  1  1  0  0  0
 52 51  1  0  0  0  0
 52 53  2  0  0  0  0
 54 55  1  0  0  0  0
 54124  1  0  0  0  0
 54125  1  0  0  0  0
 55 56  1  0  0  0  0
 55126  1  0  0  0  0
 55127  1  0  0  0  0
 56128  1  0  0  0  0
 56129  1  0  0  0  0
 57 63  1  0  0  0  0
 57 52  1  0  0  0  0
 58 57  1  0  0  0  0
 58 61  1  0  0  0  0
 58130  1  1  0  0  0
 59 58  1  0  0  0  0
 59 60  2  0  0  0  0
 59 64  1  0  0  0  0
 61 62  1  0  0  0  0
 61131  1  0  0  0  0
 61132  1  0  0  0  0
 62 63  1  0  0  0  0
 62133  1  0  0  0  0
 62134  1  0  0  0  0
 63135  1  0  0  0  0
 63136  1  0  0  0  0
 64 65  1  0  0  0  0
 64 70  1  0  0  0  0
 65 68  1  0  0  0  0
 65 66  1  0  0  0  0
 65137  1  1  0  0  0
 66 67  1  0  0  0  0
 66 71  2  0  0  0  0
 68138  1  0  0  0  0
 68139  1  0  0  0  0
 69 68  1  0  0  0  0
 69140  1  0  0  0  0
 69141  1  0  0  0  0
 70 69  1  0  0  0  0
 70142  1  0  0  0  0
 70143  1  0  0  0  0
M  CHG  2   1   1  67  -1
M  END
