1axr_ligand
 OpenBabel08222323343D

 25 26  0  0  1  0  0  0  0  0999 V2000
   34.1300   22.4540   27.2440 C   0  0  0  0  0  0  0  0  0  0  0  0
   34.0150   22.8750   25.7920 C   0  0  1  0  0  0  0  0  0  0  0  0
   32.6100   22.4600   25.2760 C   0  0  2  0  0  0  0  0  0  0  0  0
   32.3490   20.9990   25.6100 C   0  0  1  0  0  0  0  0  0  0  0  0
   32.1530   20.8530   27.1400 C   0  0  1  0  0  0  0  0  0  0  0  0
   32.0400   19.4280   27.6180 C   0  0  0  0  0  0  0  0  0  0  0  0
   35.0110   22.8020   28.2190 C   0  0  0  0  0  0  0  0  0  0  0  0
   33.6460   21.2760   29.1170 N   0  0  0  0  0  0  0  0  0  0  0  0
   34.7380   22.1040   29.3320 N   0  0  0  0  0  0  0  0  0  0  0  0
   33.2430   21.4890   27.8060 N   0  0  0  0  0  0  0  0  0  0  0  0
   34.2970   24.2490   25.5610 O   0  0  0  0  0  0  0  0  0  0  0  0
   32.5880   22.6280   23.8830 O   0  0  0  0  0  0  0  0  0  0  0  0
   31.2450   20.4370   24.9220 O   0  0  0  0  0  0  0  0  0  0  0  0
   33.1410   18.7010   27.0730 O   0  0  0  0  0  0  0  0  0  0  0  0
   34.7626   22.3022   25.2236 H   0  0  0  0  0  0  0  0  0  0  0  0
   31.8387   23.0900   25.7430 H   0  0  0  0  0  0  0  0  0  0  0  0
   33.2428   20.4275   25.3193 H   0  0  0  0  0  0  0  0  0  0  0  0
   31.2213   21.3713   27.4105 H   0  0  0  0  0  0  0  0  0  0  0  0
   31.0927   18.9899   27.2707 H   0  0  0  0  0  0  0  0  0  0  0  0
   32.0773   19.3970   28.7169 H   0  0  0  0  0  0  0  0  0  0  0  0
   35.8120   23.5322   28.1134 H   0  0  0  0  0  0  0  0  0  0  0  0
   35.1634   24.4534   25.8926 H   0  0  0  0  0  0  0  0  0  0  0  0
   32.7508   23.5400   23.6725 H   0  0  0  0  0  0  0  0  0  0  0  0
   30.4498   20.8883   25.1795 H   0  0  0  0  0  0  0  0  0  0  0  0
   33.9547   19.0881   27.3739 H   0  0  0  0  0  0  0  0  0  0  0  0
  1  2  1  0  0  0  0
  1  7  2  0  0  0  0
  1 10  1  0  0  0  0
  2  3  1  0  0  0  0
  2 11  1  0  0  0  0
  2 15  1  6  0  0  0
  3  4  1  0  0  0  0
  3 12  1  0  0  0  0
  3 16  1  1  0  0  0
  4  5  1  0  0  0  0
  4 13  1  0  0  0  0
  4 17  1  6  0  0  0
  5  6  1  0  0  0  0
  5 10  1  0  0  0  0
  5 18  1  1  0  0  0
  6 14  1  0  0  0  0
  6 19  1  0  0  0  0
  6 20  1  0  0  0  0
  7  9  1  0  0  0  0
  7 21  1  0  0  0  0
  8 10  1  0  0  0  0
  9  8  2  0  0  0  0
 11 22  1  0  0  0  0
 12 23  1  0  0  0  0
 13 24  1  0  0  0  0
 14 25  1  0  0  0  0
M  END
