1azx_ligand
 OpenBabel08222323343D

158162  0  0  1  0  0  0  0  0999 V2000
   16.7440   40.3170    8.9470 O   0  0  0  0  0  0  0  0  0  0  0  0
   17.9670   40.4210    8.2250 C   0  0  0  0  0  0  0  0  0  0  0  0
   16.2660   41.5770    9.4160 C   0  0  2  0  0  0  0  0  0  0  0  0
   15.6260   41.3920   10.7960 C   0  0  2  0  0  0  0  0  0  0  0  0
   15.1150   42.6380   11.2870 O   0  0  0  0  0  0  0  0  0  0  0  0
   16.6470   40.8420   11.8040 C   0  0  0  0  0  0  0  0  0  0  0  0
   16.7180   41.7050   12.9320 O   0  0  0  0  0  0  0  0  0  0  0  0
   17.7700   41.3180   14.0830 S   0  0  0  0  0  0  0  0  0  0  0  0
   18.6210   42.4530   14.1910 O   0  0  0  0  0  0  0  0  0  0  0  0
   18.4450   40.1520   13.6200 O   0  0  0  0  0  0  0  0  0  0  0  0
   16.9800   41.1150   15.2430 O   0  0  0  0  0  0  0  0  0  0  0  0
   15.2290   42.1660    8.4530 C   0  0  2  0  0  0  0  0  0  0  0  0
   15.8190   42.3410    7.1710 O   0  0  0  0  0  0  0  0  0  0  0  0
   15.3620   41.3730    6.2280 C   0  0  0  0  0  0  0  0  0  0  0  0
   14.7700   43.5170    9.0500 C   0  0  1  0  0  0  0  0  0  0  0  0
   13.7950   44.1350    8.2140 O   0  0  0  0  0  0  0  0  0  0  0  0
   14.2510   45.4430    7.3930 S   0  0  0  0  0  0  0  0  0  0  0  0
   15.3090   45.0000    6.5500 O   0  0  0  0  0  0  0  0  0  0  0  0
   14.6740   46.3840    8.3820 O   0  0  0  0  0  0  0  0  0  0  0  0
   13.0840   45.8430    6.6700 O   0  0  0  0  0  0  0  0  0  0  0  0
   14.1460   43.2510   10.4300 C   0  0  1  0  0  0  0  0  0  0  0  0
   13.0370   42.3690   10.2200 O   0  0  0  0  0  0  0  0  0  0  0  0
   11.9370   42.4780   11.1280 C   0  0  2  0  0  0  0  0  0  0  0  0
   11.1810   41.1220   11.1950 C   0  0  2  0  0  0  0  0  0  0  0  0
   10.0760   41.2390   12.1090 O   0  0  0  0  0  0  0  0  0  0  0  0
   12.1360   40.0030   11.6660 C   0  0  0  0  0  0  0  0  0  0  0  0
   12.4050   39.8550   12.8840 O   0  5  0  0  0  0  0  0  0  0  0  0
   12.6600   39.2320   10.8290 O   0  0  0  0  0  0  0  0  0  0  0  0
   10.9640   43.5760   10.6590 C   0  0  2  0  0  0  0  0  0  0  0  0
   11.6140   44.8430   10.5760 O   0  0  0  0  0  0  0  0  0  0  0  0
   12.0270   45.3590   11.8420 C   0  0  0  0  0  0  0  0  0  0  0  0
    9.8160   43.6230   11.6630 C   0  0  1  0  0  0  0  0  0  0  0  0
    8.8780   44.6140   11.2790 O   0  0  0  0  0  0  0  0  0  0  0  0
    8.5930   45.5310   12.3310 C   0  0  0  0  0  0  0  0  0  0  0  0
    9.1320   42.2470   11.7300 C   0  0  2  0  0  0  0  0  0  0  0  0
    8.0870   42.3440   12.6930 O   0  0  0  0  0  0  0  0  0  0  0  0
    7.0310   41.3880   12.6620 C   0  0  2  0  0  0  0  0  0  0  0  0
    5.7060   42.1250   12.4110 C   0  0  2  0  0  0  0  0  0  0  0  0
    4.6060   41.2090   12.4150 O   0  0  0  0  0  0  0  0  0  0  0  0
    5.7120   42.8680   11.0660 C   0  0  0  0  0  0  0  0  0  0  0  0
    6.3980   42.0760   10.0950 O   0  0  0  0  0  0  0  0  0  0  0  0
    6.5290   42.6810    8.5940 S   0  0  0  0  0  0  0  0  0  0  0  0
    7.9320   42.7810    8.3470 O   0  0  0  0  0  0  0  0  0  0  0  0
    5.8870   43.9530    8.6320 O   0  0  0  0  0  0  0  0  0  0  0  0
    5.8720   41.7320    7.7540 O   0  0  0  0  0  0  0  0  0  0  0  0
    6.9410   40.6530   14.0040 C   0  0  2  0  0  0  0  0  0  0  0  0
    8.1390   39.9650   14.2840 O   0  0  0  0  0  0  0  0  0  0  0  0
    8.8290   40.3350   15.6910 S   0  0  0  0  0  0  0  0  0  0  0  0
    7.8500   40.0280   16.6750 O   0  0  0  0  0  0  0  0  0  0  0  0
    9.9890   39.5160   15.7550 O   0  0  0  0  0  0  0  0  0  0  0  0
    9.1290   41.7250   15.6040 O   0  0  0  0  0  0  0  0  0  0  0  0
    5.7780   39.6580   13.9270 C   0  0  1  0  0  0  0  0  0  0  0  0
    5.6630   38.9250   15.1510 O   0  0  0  0  0  0  0  0  0  0  0  0
    4.6780   37.6340   15.1860 S   0  0  0  0  0  0  0  0  0  0  0  0
    3.7190   37.9370   16.1940 O   0  0  0  0  0  0  0  0  0  0  0  0
    5.5070   36.5320   15.5160 O   0  0  0  0  0  0  0  0  0  0  0  0
    4.1120   37.5300   13.8790 O   0  0  0  0  0  0  0  0  0  0  0  0
    4.4740   40.4520   13.6440 C   0  0  1  0  0  0  0  0  0  0  0  0
    4.2290   41.3230   14.7590 O   0  0  0  0  0  0  0  0  0  0  0  0
    3.1980   42.3130   14.6320 C   0  0  2  0  0  0  0  0  0  0  0  0
    3.5520   43.4950   15.5740 C   0  0  1  0  0  0  0  0  0  0  0  0
    3.3240   43.1000   16.9240 O   0  0  0  0  0  0  0  0  0  0  0  0
    5.0030   43.9510   15.4290 C   0  0  0  0  0  0  0  0  0  0  0  0
    5.3460   44.6560   14.4520 O   0  5  0  0  0  0  0  0  0  0  0  0
    5.8550   43.6310   16.2920 O   0  0  0  0  0  0  0  0  0  0  0  0
    1.8480   41.6800   15.0550 C   0  0  2  0  0  0  0  0  0  0  0  0
    1.0620   41.3840   13.9170 O   0  0  0  0  0  0  0  0  0  0  0  0
    0.6350   40.0310   13.8990 C   0  0  0  0  0  0  0  0  0  0  0  0
    1.0740   42.6380   15.9850 C   0  0  1  0  0  0  0  0  0  0  0  0
   -0.1650   42.0330   16.3760 O   0  0  0  0  0  0  0  0  0  0  0  0
   -1.5090   42.9510   16.3470 S   0  0  0  0  0  0  0  0  0  0  0  0
   -1.1960   44.1360   17.0850 O   0  0  0  0  0  0  0  0  0  0  0  0
   -1.7630   43.2020   14.9660 O   0  0  0  0  0  0  0  0  0  0  0  0
   -2.5060   42.1400   16.9710 O   0  0  0  0  0  0  0  0  0  0  0  0
    1.9410   42.9750   17.2320 C   0  0  2  0  0  0  0  0  0  0  0  0
    1.4820   44.1940   17.7980 O   0  0  0  0  0  0  0  0  0  0  0  0
    1.8810   44.4700   19.1380 C   0  0  2  0  0  0  0  0  0  0  0  0
    0.7030   44.2150   20.0930 C   0  0  2  0  0  0  0  0  0  0  0  0
    1.0720   44.5120   21.4450 O   0  0  0  0  0  0  0  0  0  0  0  0
    0.2340   42.7570   20.0510 C   0  0  0  0  0  0  0  0  0  0  0  0
    1.3640   41.9120   20.2400 O   0  0  0  0  0  0  0  0  0  0  0  0
    1.0820   40.3310   20.4270 S   0  0  0  0  0  0  0  0  0  0  0  0
    1.7730   39.7050   19.3450 O   0  0  0  0  0  0  0  0  0  0  0  0
   -0.3330   40.1830   20.3450 O   0  0  0  0  0  0  0  0  0  0  0  0
    1.6100   39.9950   21.7090 O   0  0  0  0  0  0  0  0  0  0  0  0
    2.3200   45.9260   19.2570 C   0  0  2  0  0  0  0  0  0  0  0  0
    3.4210   46.1880   18.3840 O   0  0  0  0  0  0  0  0  0  0  0  0
    3.2920   47.4130   17.3330 S   0  0  0  0  0  0  0  0  0  0  0  0
    2.1840   47.0710   16.5140 O   0  0  0  0  0  0  0  0  0  0  0  0
    4.5250   47.4190   16.6300 O   0  0  0  0  0  0  0  0  0  0  0  0
    3.0820   48.5830   18.1170 O   0  0  0  0  0  0  0  0  0  0  0  0
    2.7260   46.1670   20.7240 C   0  0  1  0  0  0  0  0  0  0  0  0
    3.1690   47.5110   20.9070 O   0  0  0  0  0  0  0  0  0  0  0  0
    4.3270   47.7540   22.0110 S   0  0  0  0  0  0  0  0  0  0  0  0
    5.4170   48.2960   21.2740 O   0  0  0  0  0  0  0  0  0  0  0  0
    4.6010   46.4760   22.5570 O   0  0  0  0  0  0  0  0  0  0  0  0
    3.7670   48.6560   22.9630 O   0  0  0  0  0  0  0  0  0  0  0  0
    1.5180   45.8610   21.6490 C   0  0  1  0  0  0  0  0  0  0  0  0
    0.4590   46.7770   21.4020 O   0  0  0  0  0  0  0  0  0  0  0  0
    0.0100   47.4370   22.5800 C   0  0  0  0  0  0  0  0  0  0  0  0
   18.2821   39.4212    7.8916 H   0  0  0  0  0  0  0  0  0  0  0  0
   18.7419   40.8513    8.8764 H   0  0  0  0  0  0  0  0  0  0  0  0
   17.8218   41.0707    7.3493 H   0  0  0  0  0  0  0  0  0  0  0  0
   17.1137   42.2731    9.4980 H   0  0  0  0  0  0  0  0  0  0  0  0
   14.7955   40.6767   10.7037 H   0  0  0  0  0  0  0  0  0  0  0  0
   17.6362   40.7816   11.3268 H   0  0  0  0  0  0  0  0  0  0  0  0
   16.3353   39.8387   12.1300 H   0  0  0  0  0  0  0  0  0  0  0  0
   18.8864   40.3469   12.8017 H   0  0  0  0  0  0  0  0  0  0  0  0
   14.3673   41.4879    8.3655 H   0  0  0  0  0  0  0  0  0  0  0  0
   15.8459   41.5508    5.2563 H   0  0  0  0  0  0  0  0  0  0  0  0
   14.2711   41.4575    6.1152 H   0  0  0  0  0  0  0  0  0  0  0  0
   15.6167   40.3643    6.5853 H   0  0  0  0  0  0  0  0  0  0  0  0
   15.6374   44.1853    9.1547 H   0  0  0  0  0  0  0  0  0  0  0  0
   12.8144   45.1392    6.0917 H   0  0  0  0  0  0  0  0  0  0  0  0
   13.8002   44.1933   10.8799 H   0  0  0  0  0  0  0  0  0  0  0  0
   12.3179   42.7338   12.1278 H   0  0  0  0  0  0  0  0  0  0  0  0
   10.7990   40.8710   10.1945 H   0  0  0  0  0  0  0  0  0  0  0  0
   10.5716   43.3154    9.6650 H   0  0  0  0  0  0  0  0  0  0  0  0
   12.5176   46.3330   11.6985 H   0  0  0  0  0  0  0  0  0  0  0  0
   12.7334   44.6582   12.3108 H   0  0  0  0  0  0  0  0  0  0  0  0
   11.1481   45.4833   12.4917 H   0  0  0  0  0  0  0  0  0  0  0  0
   10.2164   43.8742   12.6562 H   0  0  0  0  0  0  0  0  0  0  0  0
    7.8628   46.2754   11.9807 H   0  0  0  0  0  0  0  0  0  0  0  0
    9.5194   46.0407   12.6342 H   0  0  0  0  0  0  0  0  0  0  0  0
    8.1766   44.9852   13.1905 H   0  0  0  0  0  0  0  0  0  0  0  0
    8.7090   41.9928   10.7469 H   0  0  0  0  0  0  0  0  0  0  0  0
    7.2140   40.6622   11.8559 H   0  0  0  0  0  0  0  0  0  0  0  0
    5.5621   42.8582   13.2182 H   0  0  0  0  0  0  0  0  0  0  0  0
    6.2250   43.8341   11.1816 H   0  0  0  0  0  0  0  0  0  0  0  0
    4.6769   43.0397   10.7359 H   0  0  0  0  0  0  0  0  0  0  0  0
    8.3254   43.3583    8.9908 H   0  0  0  0  0  0  0  0  0  0  0  0
    6.7502   41.3814   14.8059 H   0  0  0  0  0  0  0  0  0  0  0  0
    9.7187   41.8755   14.8746 H   0  0  0  0  0  0  0  0  0  0  0  0
    5.9587   38.9505   13.1043 H   0  0  0  0  0  0  0  0  0  0  0  0
    4.8074   37.4130   13.2424 H   0  0  0  0  0  0  0  0  0  0  0  0
    3.6336   39.7498   13.5407 H   0  0  0  0  0  0  0  0  0  0  0  0
    3.1349   42.6667   13.5923 H   0  0  0  0  0  0  0  0  0  0  0  0
    2.8949   44.3427   15.3298 H   0  0  0  0  0  0  0  0  0  0  0  0
    2.0520   40.7454   15.5981 H   0  0  0  0  0  0  0  0  0  0  0  0
    0.0294   39.8496   12.9988 H   0  0  0  0  0  0  0  0  0  0  0  0
    0.0308   39.8252   14.7949 H   0  0  0  0  0  0  0  0  0  0  0  0
    1.5136   39.3693   13.8893 H   0  0  0  0  0  0  0  0  0  0  0  0
    0.8582   43.5694   15.4411 H   0  0  0  0  0  0  0  0  0  0  0  0
   -0.4668   44.5824   16.6708 H   0  0  0  0  0  0  0  0  0  0  0  0
    1.8204   42.1666   17.9681 H   0  0  0  0  0  0  0  0  0  0  0  0
    2.7201   43.8128   19.4098 H   0  0  0  0  0  0  0  0  0  0  0  0
   -0.1312   44.8668   19.7944 H   0  0  0  0  0  0  0  0  0  0  0  0
   -0.2290   42.5443   19.0761 H   0  0  0  0  0  0  0  0  0  0  0  0
   -0.4993   42.5801   20.8516 H   0  0  0  0  0  0  0  0  0  0  0  0
    1.4286   40.0290   18.5211 H   0  0  0  0  0  0  0  0  0  0  0  0
    1.4835   46.5886   18.9902 H   0  0  0  0  0  0  0  0  0  0  0  0
    3.8205   48.7080   18.7013 H   0  0  0  0  0  0  0  0  0  0  0  0
    3.5516   45.4870   20.9807 H   0  0  0  0  0  0  0  0  0  0  0  0
    2.9940   48.2642   23.3522 H   0  0  0  0  0  0  0  0  0  0  0  0
    1.8393   45.9709   22.6953 H   0  0  0  0  0  0  0  0  0  0  0  0
   -0.8060   48.1289   22.3242 H   0  0  0  0  0  0  0  0  0  0  0  0
    0.8432   48.0011   23.0245 H   0  0  0  0  0  0  0  0  0  0  0  0
   -0.3544   46.6913   23.3019 H   0  0  0  0  0  0  0  0  0  0  0  0
  1  2  1  0  0  0  0
  1  3  1  0  0  0  0
  2101  1  0  0  0  0
  2102  1  0  0  0  0
  2103  1  0  0  0  0
  3  4  1  0  0  0  0
  3 12  1  0  0  0  0
  3104  1  1  0  0  0
  4  5  1  0  0  0  0
  4  6  1  0  0  0  0
  4105  1  6  0  0  0
  5 21  1  0  0  0  0
  6  7  1  0  0  0  0
  6106  1  0  0  0  0
  6107  1  0  0  0  0
  7  8  1  0  0  0  0
  8  9  2  0  0  0  0
  8 10  1  0  0  0  0
  8 11  2  0  0  0  0
 10108  1  0  0  0  0
 12 13  1  0  0  0  0
 12 15  1  0  0  0  0
 12109  1  6  0  0  0
 13 14  1  0  0  0  0
 14110  1  0  0  0  0
 14111  1  0  0  0  0
 14112  1  0  0  0  0
 15 16  1  0  0  0  0
 15 21  1  0  0  0  0
 15113  1  1  0  0  0
 16 17  1  0  0  0  0
 17 18  2  0  0  0  0
 17 19  2  0  0  0  0
 17 20  1  0  0  0  0
 20114  1  0  0  0  0
 21 22  1  0  0  0  0
 21115  1  1  0  0  0
 22 23  1  0  0  0  0
 23 24  1  0  0  0  0
 23 29  1  0  0  0  0
 23116  1  1  0  0  0
 24 25  1  0  0  0  0
 24 26  1  0  0  0  0
 24117  1  6  0  0  0
 25 35  1  0  0  0  0
 26 27  1  0  0  0  0
 26 28  2  0  0  0  0
 29 30  1  0  0  0  0
 29 32  1  0  0  0  0
 29118  1  6  0  0  0
 30 31  1  0  0  0  0
 31119  1  0  0  0  0
 31120  1  0  0  0  0
 31121  1  0  0  0  0
 32 33  1  0  0  0  0
 32 35  1  0  0  0  0
 32122  1  1  0  0  0
 33 34  1  0  0  0  0
 34123  1  0  0  0  0
 34124  1  0  0  0  0
 34125  1  0  0  0  0
 35 36  1  0  0  0  0
 35126  1  6  0  0  0
 36 37  1  0  0  0  0
 37 38  1  0  0  0  0
 37 46  1  0  0  0  0
 37127  1  6  0  0  0
 38 39  1  0  0  0  0
 38 40  1  0  0  0  0
 38128  1  1  0  0  0
 39 58  1  0  0  0  0
 40 41  1  0  0  0  0
 40129  1  0  0  0  0
 40130  1  0  0  0  0
 41 42  1  0  0  0  0
 42 43  1  0  0  0  0
 42 44  2  0  0  0  0
 42 45  2  0  0  0  0
 43131  1  0  0  0  0
 46 47  1  0  0  0  0
 46 52  1  0  0  0  0
 46132  1  1  0  0  0
 47 48  1  0  0  0  0
 48 49  2  0  0  0  0
 48 50  2  0  0  0  0
 48 51  1  0  0  0  0
 51133  1  0  0  0  0
 52 53  1  0  0  0  0
 52 58  1  0  0  0  0
 52134  1  6  0  0  0
 53 54  1  0  0  0  0
 54 55  2  0  0  0  0
 54 56  2  0  0  0  0
 54 57  1  0  0  0  0
 57135  1  0  0  0  0
 58 59  1  0  0  0  0
 58136  1  6  0  0  0
 59 60  1  0  0  0  0
 60 61  1  0  0  0  0
 60 66  1  0  0  0  0
 60137  1  6  0  0  0
 61 62  1  0  0  0  0
 61 63  1  0  0  0  0
 61138  1  6  0  0  0
 62 75  1  0  0  0  0
 63 64  1  0  0  0  0
 63 65  2  0  0  0  0
 66 67  1  0  0  0  0
 66 69  1  0  0  0  0
 66139  1  1  0  0  0
 67 68  1  0  0  0  0
 68140  1  0  0  0  0
 68141  1  0  0  0  0
 68142  1  0  0  0  0
 69 70  1  0  0  0  0
 69 75  1  0  0  0  0
 69143  1  6  0  0  0
 70 71  1  0  0  0  0
 71 72  1  0  0  0  0
 71 73  2  0  0  0  0
 71 74  2  0  0  0  0
 72144  1  0  0  0  0
 75 76  1  0  0  0  0
 75145  1  1  0  0  0
 76 77  1  0  0  0  0
 77 78  1  0  0  0  0
 77 86  1  0  0  0  0
 77146  1  1  0  0  0
 78 79  1  0  0  0  0
 78 80  1  0  0  0  0
 78147  1  6  0  0  0
 79 98  1  0  0  0  0
 80 81  1  0  0  0  0
 80148  1  0  0  0  0
 80149  1  0  0  0  0
 81 82  1  0  0  0  0
 82 83  1  0  0  0  0
 82 84  2  0  0  0  0
 82 85  2  0  0  0  0
 83150  1  0  0  0  0
 86 87  1  0  0  0  0
 86 92  1  0  0  0  0
 86151  1  6  0  0  0
 87 88  1  0  0  0  0
 88 89  2  0  0  0  0
 88 90  2  0  0  0  0
 88 91  1  0  0  0  0
 91152  1  0  0  0  0
 92 93  1  0  0  0  0
 92 98  1  0  0  0  0
 92153  1  1  0  0  0
 93 94  1  0  0  0  0
 94 95  2  0  0  0  0
 94 96  2  0  0  0  0
 94 97  1  0  0  0  0
 97154  1  0  0  0  0
 98 99  1  0  0  0  0
 98155  1  1  0  0  0
 99100  1  0  0  0  0
100156  1  0  0  0  0
100157  1  0  0  0  0
100158  1  0  0  0  0
M  CHG  2  27  -1  64  -1
M  END
