1b42_ligand
 OpenBabel08222323343D

 19 20  0  0  1  0  0  0  0  0999 V2000
   18.5840   12.3140   19.6800 N   0  0  0  0  0  0  0  0  0  0  0  0
   18.9520   13.3950   18.9240 C   0  0  0  0  0  0  0  0  0  0  0  0
   18.3390   14.5040   19.2460 N   0  0  0  0  0  0  0  0  0  0  0  0
   17.4970   14.1420   20.3050 C   0  0  0  0  0  0  0  0  0  0  0  0
   16.5740   14.8800   21.1070 C   0  0  2  0  0  3  0  0  0  0  0  0
   16.3460   16.1760   20.9850 N   0  0  0  0  0  0  0  0  0  0  0  0
   15.9140   14.2170   22.0590 N   0  0  0  0  0  0  0  0  0  0  0  0
   16.1580   12.9120   22.2200 C   0  0  0  0  0  0  0  0  0  0  0  0
   16.9980   12.0940   21.5610 N   0  0  0  0  0  0  0  0  0  0  0  0
   17.6440   12.7980   20.5810 C   0  0  0  0  0  0  0  0  0  0  0  0
   14.9780   14.9840   22.8580 C   0  0  0  0  0  0  0  0  0  0  0  0
   18.9306   11.3475   19.5980 H   0  0  0  0  0  0  0  0  0  0  0  0
   19.6899   13.3361   18.1253 H   0  0  0  0  0  0  0  0  0  0  0  0
   16.8376   16.7195   20.2612 H   0  0  0  0  0  0  0  0  0  0  0  0
   15.6767   16.6426   21.6137 H   0  0  0  0  0  0  0  0  0  0  0  0
   15.5865   12.4367   23.0090 H   0  0  0  0  0  0  0  0  0  0  0  0
   14.9730   16.0290   22.5144 H   0  0  0  0  0  0  0  0  0  0  0  0
   15.2815   14.9469   23.9146 H   0  0  0  0  0  0  0  0  0  0  0  0
   13.9695   14.5581   22.7510 H   0  0  0  0  0  0  0  0  0  0  0  0
  1  2  1  0  0  0  0
  1 12  1  0  0  0  0
  2  3  2  0  0  0  0
  2 13  1  0  0  0  0
  3  4  1  0  0  0  0
  4 10  2  0  0  0  0
  4  5  1  0  0  0  0
  5  7  1  0  0  0  0
  5  6  1  1  0  0  0
  6 14  1  0  0  0  0
  6 15  1  0  0  0  0
  7 11  1  0  0  0  0
  7  8  1  0  0  0  0
  8  9  2  0  0  0  0
  8 16  1  0  0  0  0
  9 10  1  0  0  0  0
 10  1  1  0  0  0  0
 11 17  1  0  0  0  0
 11 18  1  0  0  0  0
 11 19  1  0  0  0  0
M  END
