1b9t_ligand
 OpenBabel08222323343D

 41 42  0  0  0  0  0  0  0  0999 V2000
   33.8350   -9.7190   64.6050 C   0  0  0  0  0  0  0  0  0  0  0  0
   32.5300   -9.4640   64.0870 C   0  0  0  0  0  0  0  0  0  0  0  0
   31.4600  -10.3440   64.4570 C   0  0  0  0  0  0  0  0  0  0  0  0
   31.7010  -11.4430   65.3090 C   0  0  0  0  0  0  0  0  0  0  0  0
   32.9860  -11.7000   65.8150 C   0  0  0  0  0  0  0  0  0  0  0  0
   34.0630  -10.8250   65.4590 C   0  0  0  0  0  0  0  0  0  0  0  0
   33.2090  -12.8620   66.6940 C   0  0  0  0  0  0  0  0  0  0  0  0
   32.1250  -13.6200   66.9520 O   0  5  0  0  0  0  0  0  0  0  0  0
   30.1790  -10.1610   64.0130 N   0  0  0  0  0  0  0  0  0  0  0  0
   29.2990  -11.0450   63.5120 C   0  0  0  0  0  3  0  0  0  0  0  0
   29.7330  -12.1730   62.9090 N   0  0  0  0  0  0  0  0  0  0  0  0
   32.2740   -8.3760   63.2370 N   0  0  0  0  0  0  0  0  0  0  0  0
   32.4450   -8.3520   61.7310 C   0  0  0  0  0  0  0  0  0  0  0  0
   32.2020   -6.8470   61.4010 C   0  0  0  0  0  0  0  0  0  0  0  0
   31.5800   -6.1860   62.6270 C   0  0  0  0  0  0  0  0  0  0  0  0
   31.7990   -7.1960   63.7300 C   0  0  0  0  0  0  0  0  0  0  0  0
   31.3670   -9.2380   61.0210 C   0  0  0  0  0  0  0  0  0  0  0  0
   31.6700   -9.4450   59.6410 O   0  0  0  0  0  0  0  0  0  0  0  0
   33.8760   -8.8440   61.2880 C   0  0  0  0  0  0  0  0  0  0  0  0
   34.4430   -7.9650   60.3610 O   0  0  0  0  0  0  0  0  0  0  0  0
   34.2810  -13.1100   67.1400 O   0  0  0  0  0  0  0  0  0  0  0  0
   27.9970  -10.7800   63.6210 N   0  0  0  0  0  0  0  0  0  0  0  0
   31.5580   -6.9480   64.9060 O   0  0  0  0  0  0  0  0  0  0  0  0
   34.6565   -9.0621   64.3431 H   0  0  0  0  0  0  0  0  0  0  0  0
   30.8812  -12.0995   65.5773 H   0  0  0  0  0  0  0  0  0  0  0  0
   35.0585  -11.0108   65.8458 H   0  0  0  0  0  0  0  0  0  0  0  0
   29.8342   -9.1922   64.0720 H   0  0  0  0  0  0  0  0  0  0  0  0
   29.0540  -12.8467   62.5270 H   0  0  0  0  0  0  0  0  0  0  0  0
   30.7430  -12.3595   62.8312 H   0  0  0  0  0  0  0  0  0  0  0  0
   31.5187   -6.7592   60.5435 H   0  0  0  0  0  0  0  0  0  0  0  0
   33.1580   -6.3594   61.1596 H   0  0  0  0  0  0  0  0  0  0  0  0
   30.5067   -6.0022   62.4712 H   0  0  0  0  0  0  0  0  0  0  0  0
   32.0847   -5.2366   62.8590 H   0  0  0  0  0  0  0  0  0  0  0  0
   30.3897   -8.7393   61.0992 H   0  0  0  0  0  0  0  0  0  0  0  0
   31.3217  -10.2146   61.5251 H   0  0  0  0  0  0  0  0  0  0  0  0
   32.5106   -9.8809   59.5644 H   0  0  0  0  0  0  0  0  0  0  0  0
   33.7883   -9.8409   60.8314 H   0  0  0  0  0  0  0  0  0  0  0  0
   34.5265   -8.9020   62.1732 H   0  0  0  0  0  0  0  0  0  0  0  0
   33.8863   -7.9143   59.5928 H   0  0  0  0  0  0  0  0  0  0  0  0
   27.6846   -9.9147   64.0841 H   0  0  0  0  0  0  0  0  0  0  0  0
   27.3035  -11.4406   63.2421 H   0  0  0  0  0  0  0  0  0  0  0  0
  1  6  2  0  0  0  0
  1  2  1  0  0  0  0
  1 24  1  0  0  0  0
  2 12  1  0  0  0  0
  2  3  2  0  0  0  0
  3  9  1  0  0  0  0
  3  4  1  0  0  0  0
  4  5  2  0  0  0  0
  4 25  1  0  0  0  0
  5  7  1  0  0  0  0
  6  5  1  0  0  0  0
  6 26  1  0  0  0  0
  7 21  2  0  0  0  0
  7  8  1  0  0  0  0
  9 10  1  0  0  0  0
  9 27  1  0  0  0  0
 10 22  1  0  0  0  0
 10 11  1  0  0  0  0
 11 28  1  0  0  0  0
 11 29  1  0  0  0  0
 12 16  1  0  0  0  0
 12 13  1  0  0  0  0
 13 19  1  0  0  0  0
 13 17  1  0  0  0  0
 13 14  1  0  0  0  0
 14 15  1  0  0  0  0
 14 30  1  0  0  0  0
 14 31  1  0  0  0  0
 15 16  1  0  0  0  0
 15 32  1  0  0  0  0
 15 33  1  0  0  0  0
 16 23  2  0  0  0  0
 17 18  1  0  0  0  0
 17 34  1  0  0  0  0
 17 35  1  0  0  0  0
 18 36  1  0  0  0  0
 19 20  1  0  0  0  0
 19 37  1  0  0  0  0
 19 38  1  0  0  0  0
 20 39  1  0  0  0  0
 22 40  1  0  0  0  0
 22 41  1  0  0  0  0
M  CHG  1   8  -1
M  END
