1ba8_ligand
 OpenBabel08222323343D

 65 66  0  0  1  0  0  0  0  0999 V2000
   17.4360  -16.4350   23.5770 N   0  0  0  0  0  0  0  0  0  0  0  0
   18.4420  -15.7570   22.8520 C   0  0  1  0  0  0  0  0  0  0  0  0
   19.0330  -16.4690   21.6970 C   0  0  0  0  0  0  0  0  0  0  0  0
   19.9950  -15.6810   20.8840 C   0  0  0  0  0  0  0  0  0  0  0  0
   17.9020  -14.3370   22.4450 C   0  0  0  0  0  0  0  0  0  0  0  0
   19.7720  -14.1610   20.8010 C   0  0  0  0  0  0  0  0  0  0  0  0
   16.8830  -13.9820   22.9910 O   0  0  0  0  0  0  0  0  0  0  0  0
   18.5700  -13.7210   21.5090 N   0  0  0  0  0  0  0  0  0  0  0  0
   18.0610  -12.3810   21.1590 C   0  0  0  0  0  0  0  0  0  0  0  0
   16.7650  -12.5590   20.3690 C   0  0  0  0  0  0  0  0  0  0  0  0
   16.5080  -13.6410   19.8490 O   0  0  0  0  0  0  0  0  0  0  0  0
   15.9480  -11.5220   20.4040 N   0  0  0  0  0  0  0  0  0  0  0  0
   14.6430  -11.5230   19.6890 C   0  0  2  0  0  0  0  0  0  0  0  0
   14.7650  -10.7360   18.4010 C   0  0  0  0  0  0  0  0  0  0  0  0
   13.7430  -10.2930   17.8470 O   0  0  0  0  0  0  0  0  0  0  0  0
   13.5370  -10.9750   20.5490 C   0  0  0  0  0  0  0  0  0  0  0  0
   13.1190  -11.9050   21.6620 C   0  0  0  0  0  0  0  0  0  0  0  0
   12.1690  -11.2620   22.5840 C   0  0  0  0  0  0  0  0  0  0  0  0
   11.6040  -12.2630   23.4450 N   0  0  0  0  0  0  0  0  0  0  0  0
   10.8140  -12.0520   24.4600 C   0  0  0  0  0  3  0  0  0  0  0  0
   10.5110  -10.7690   24.7930 N   0  0  0  0  0  0  0  0  0  0  0  0
   10.1950  -13.0590   25.1040 N   0  0  0  0  0  0  0  0  0  0  0  0
   18.5050  -17.0080   26.1270 C   0  0  0  0  0  0  0  0  0  0  0  0
   19.7260  -16.1890   25.9210 C   0  0  0  0  0  0  0  0  0  0  0  0
   19.5880  -14.8030   26.0630 C   0  0  0  0  0  0  0  0  0  0  0  0
   20.7160  -14.0070   25.8690 C   0  0  0  0  0  0  0  0  0  0  0  0
   21.9460  -14.5170   25.5360 C   0  0  0  0  0  0  0  0  0  0  0  0
   22.0680  -15.8840   25.3950 C   0  0  0  0  0  0  0  0  0  0  0  0
   20.9500  -16.7130   25.5920 C   0  0  0  0  0  0  0  0  0  0  0  0
   17.8190  -17.6730   24.6280 S   0  0  0  0  0  0  0  0  0  0  0  0
   16.5900  -18.2410   24.9980 O   0  0  0  0  0  0  0  0  0  0  0  0
   18.8640  -18.3330   23.9230 O   0  0  0  0  0  0  0  0  0  0  0  0
   16.4795  -16.1685   23.4582 H   0  0  0  0  0  0  0  0  0  0  0  0
   19.2717  -15.5989   23.5567 H   0  0  0  0  0  0  0  0  0  0  0  0
   18.2115  -16.7855   21.0375 H   0  0  0  0  0  0  0  0  0  0  0  0
   19.5592  -17.3563   22.0789 H   0  0  0  0  0  0  0  0  0  0  0  0
   19.9613  -16.0760   19.8579 H   0  0  0  0  0  0  0  0  0  0  0  0
   20.9969  -15.8450   21.3074 H   0  0  0  0  0  0  0  0  0  0  0  0
   19.6789  -13.8775   19.7423 H   0  0  0  0  0  0  0  0  0  0  0  0
   20.6434  -13.6541   21.2411 H   0  0  0  0  0  0  0  0  0  0  0  0
   18.8023  -11.8489   20.5448 H   0  0  0  0  0  0  0  0  0  0  0  0
   17.8633  -11.8057   22.0755 H   0  0  0  0  0  0  0  0  0  0  0  0
   16.2143  -10.7120   20.9265 H   0  0  0  0  0  0  0  0  0  0  0  0
   14.3915  -12.5635   19.4361 H   0  0  0  0  0  0  0  0  0  0  0  0
   15.2625  -11.3930   17.6724 H   0  0  0  0  0  0  0  0  0  0  0  0
   15.4105   -9.8717   18.6160 H   0  0  0  0  0  0  0  0  0  0  0  0
   13.9893   -9.8268   17.0567 H   0  0  0  0  0  0  0  0  0  0  0  0
   12.6626  -10.7825   19.9100 H   0  0  0  0  0  0  0  0  0  0  0  0
   13.8797  -10.0301   20.9958 H   0  0  0  0  0  0  0  0  0  0  0  0
   14.0128  -12.2089   22.2266 H   0  0  0  0  0  0  0  0  0  0  0  0
   12.6427  -12.7941   21.2231 H   0  0  0  0  0  0  0  0  0  0  0  0
   11.3677  -10.7757   22.0082 H   0  0  0  0  0  0  0  0  0  0  0  0
   12.6946  -10.5088   23.1893 H   0  0  0  0  0  0  0  0  0  0  0  0
   11.8467  -13.2429   23.2405 H   0  0  0  0  0  0  0  0  0  0  0  0
    9.8888  -10.5773   25.5912 H   0  0  0  0  0  0  0  0  0  0  0  0
   10.9036   -9.9888   24.2471 H   0  0  0  0  0  0  0  0  0  0  0  0
   10.4139  -14.0362   24.8629 H   0  0  0  0  0  0  0  0  0  0  0  0
    9.5024  -12.8524   25.8379 H   0  0  0  0  0  0  0  0  0  0  0  0
   17.7421  -16.3770   26.6063 H   0  0  0  0  0  0  0  0  0  0  0  0
   18.7589  -17.8461   26.7927 H   0  0  0  0  0  0  0  0  0  0  0  0
   18.6311  -14.3613   26.3166 H   0  0  0  0  0  0  0  0  0  0  0  0
   20.6169  -12.9340   25.9868 H   0  0  0  0  0  0  0  0  0  0  0  0
   22.7982  -13.8636   25.3879 H   0  0  0  0  0  0  0  0  0  0  0  0
   23.0257  -16.3186   25.1324 H   0  0  0  0  0  0  0  0  0  0  0  0
   21.0572  -17.7861   25.4819 H   0  0  0  0  0  0  0  0  0  0  0  0
  1  2  1  0  0  0  0
  1 33  1  0  0  0  0
  2  3  1  0  0  0  0
  2  5  1  0  0  0  0
  2 34  1  1  0  0  0
  3  4  1  0  0  0  0
  3 35  1  0  0  0  0
  3 36  1  0  0  0  0
  4  6  1  0  0  0  0
  4 37  1  0  0  0  0
  4 38  1  0  0  0  0
  5  7  2  0  0  0  0
  5  8  1  0  0  0  0
  6 39  1  0  0  0  0
  6 40  1  0  0  0  0
  8  6  1  0  0  0  0
  8  9  1  0  0  0  0
  9 10  1  0  0  0  0
  9 41  1  0  0  0  0
  9 42  1  0  0  0  0
 10 11  2  0  0  0  0
 10 12  1  0  0  0  0
 12 13  1  0  0  0  0
 12 43  1  0  0  0  0
 13 14  1  0  0  0  0
 13 16  1  0  0  0  0
 13 44  1  6  0  0  0
 14 15  1  0  0  0  0
 14 45  1  0  0  0  0
 14 46  1  0  0  0  0
 15 47  1  0  0  0  0
 16 17  1  0  0  0  0
 16 48  1  0  0  0  0
 16 49  1  0  0  0  0
 17 18  1  0  0  0  0
 17 50  1  0  0  0  0
 17 51  1  0  0  0  0
 18 19  1  0  0  0  0
 18 52  1  0  0  0  0
 18 53  1  0  0  0  0
 19 20  1  0  0  0  0
 19 54  1  0  0  0  0
 20 21  1  0  0  0  0
 20 22  1  0  0  0  0
 21 55  1  0  0  0  0
 21 56  1  0  0  0  0
 22 57  1  0  0  0  0
 22 58  1  0  0  0  0
 23 24  1  0  0  0  0
 23 30  1  0  0  0  0
 23 59  1  0  0  0  0
 23 60  1  0  0  0  0
 24 25  2  0  0  0  0
 24 29  1  0  0  0  0
 25 26  1  0  0  0  0
 25 61  1  0  0  0  0
 26 27  2  0  0  0  0
 26 62  1  0  0  0  0
 27 28  1  0  0  0  0
 27 63  1  0  0  0  0
 28 29  2  0  0  0  0
 28 64  1  0  0  0  0
 29 65  1  0  0  0  0
 30  1  1  0  0  0  0
 30 31  2  0  0  0  0
 30 32  2  0  0  0  0
M  END
