1bbz_ligand
 OpenBabel08222323343D

144150  0  0  1  0  0  0  0  0999 V2000
   15.9570   27.9000    9.3420 C   0  0  0  0  0  0  0  0  0  0  0  0
   15.4610   27.9470    8.2110 O   0  0  0  0  0  0  0  0  0  0  0  0
   17.2670   27.1320    9.5190 C   0  0  0  0  0  0  0  0  0  0  0  0
   15.3980   28.4630   10.4080 N   0  0  0  0  0  0  0  0  0  0  0  0
   14.1490   29.2120   10.3090 C   0  0  2  0  0  0  0  0  0  0  0  0
   14.3920   30.5550    9.6200 C   0  0  0  0  0  0  0  0  0  0  0  0
   15.4780   31.1040    9.7070 O   0  0  0  0  0  0  0  0  0  0  0  0
   13.5490   29.4250   11.6930 C   0  0  0  0  0  0  0  0  0  0  0  0
   13.3940   31.0830    8.8930 N   0  0  0  0  0  0  0  0  0  0  0  0
   13.6190   32.3740    8.2360 C   0  0  2  0  0  0  0  0  0  0  0  0
   13.9990   33.4520    9.2630 C   0  0  0  0  0  0  0  0  0  0  0  0
   13.5600   33.4130   10.4100 O   0  0  0  0  0  0  0  0  0  0  0  0
   12.2600   32.6630    7.5960 C   0  0  0  0  0  0  0  0  0  0  0  0
   11.7510   31.2870    7.2600 C   0  0  0  0  0  0  0  0  0  0  0  0
   12.0800   30.5250    8.5270 C   0  0  0  0  0  0  0  0  0  0  0  0
   14.8420   34.3980    8.8630 N   0  0  0  0  0  0  0  0  0  0  0  0
   15.2470   35.4610    9.7730 C   0  0  2  0  0  0  0  0  0  0  0  0
   14.2250   36.5950    9.7230 C   0  0  0  0  0  0  0  0  0  0  0  0
   14.0740   37.3490   10.6870 O   0  0  0  0  0  0  0  0  0  0  0  0
   16.6360   35.9820    9.3970 C   0  0  0  0  0  0  0  0  0  0  0  0
   17.5550   34.9070    9.2300 O   0  0  0  0  0  0  0  0  0  0  0  0
   13.5530   36.7260    8.5810 N   0  0  0  0  0  0  0  0  0  0  0  0
   12.5370   37.7530    8.4010 C   0  0  2  0  0  0  0  0  0  0  0  0
   11.2630   37.4040    9.1730 C   0  0  0  0  0  0  0  0  0  0  0  0
   11.1340   36.3070    9.7470 O   0  0  0  0  0  0  0  0  0  0  0  0
   12.2480   38.0010    6.9110 C   0  0  0  0  0  0  0  0  0  0  0  0
   11.9590   36.7600    6.0990 C   0  0  0  0  0  0  0  0  0  0  0  0
   10.7140   36.1220    6.1750 C   0  0  0  0  0  0  0  0  0  0  0  0
   12.9280   36.2190    5.2570 C   0  0  0  0  0  0  0  0  0  0  0  0
   10.4440   34.9720    5.4300 C   0  0  0  0  0  0  0  0  0  0  0  0
   12.6710   35.0710    4.5090 C   0  0  0  0  0  0  0  0  0  0  0  0
   11.4230   34.4490    4.6020 C   0  0  0  0  0  0  0  0  0  0  0  0
   11.1680   33.3000    3.8830 O   0  0  0  0  0  0  0  0  0  0  0  0
   10.3320   38.3430    9.2110 N   0  0  0  0  0  0  0  0  0  0  0  0
    9.1020   38.1320    9.9510 C   0  0  2  0  0  0  0  0  0  0  0  0
    8.0340   37.3430    9.2030 C   0  0  0  0  0  0  0  0  0  0  0  0
    7.9760   37.3800    7.9730 O   0  0  0  0  0  0  0  0  0  0  0  0
    8.5080   39.4780   10.3500 C   0  0  0  0  0  0  0  0  0  0  0  0
    7.2810   39.2950   11.0200 O   0  0  0  0  0  0  0  0  0  0  0  0
    7.2410   36.5350    9.9400 N   0  0  0  0  0  0  0  0  0  0  0  0
    6.1780   35.7700    9.2820 C   0  0  2  0  0  0  0  0  0  0  0  0
    5.0960   36.7940    8.9500 C   0  0  0  0  0  0  0  0  0  0  0  0
    4.9470   37.7980    9.6490 O   0  0  0  0  0  0  0  0  0  0  0  0
    5.7320   34.7900   10.3690 C   0  0  0  0  0  0  0  0  0  0  0  0
    6.0360   35.5230   11.6380 C   0  0  0  0  0  0  0  0  0  0  0  0
    7.3810   36.1360   11.3530 C   0  0  0  0  0  0  0  0  0  0  0  0
    4.3550   36.5840    7.8670 N   0  0  0  0  0  0  0  0  0  0  0  0
    3.3310   37.5820    7.5690 C   0  0  2  0  0  0  0  0  0  0  0  0
    2.2460   37.5330    8.6260 C   0  0  0  0  0  0  0  0  0  0  0  0
    1.9880   36.4780    9.2120 O   0  0  0  0  0  0  0  0  0  0  0  0
    2.8090   37.1320    6.2070 C   0  0  0  0  0  0  0  0  0  0  0  0
    2.9080   35.6320    6.3030 C   0  0  0  0  0  0  0  0  0  0  0  0
    4.2750   35.4390    6.9450 C   0  0  0  0  0  0  0  0  0  0  0  0
    1.6430   38.6870    8.9400 N   0  0  0  0  0  0  0  0  0  0  0  0
    0.5810   38.7330    9.9470 C   0  0  2  0  0  0  0  0  0  0  0  0
   -0.6560   38.0500    9.3990 C   0  0  0  0  0  0  0  0  0  0  0  0
   -0.7640   37.8280    8.2020 O   0  0  0  0  0  0  0  0  0  0  0  0
    0.3430   40.2320   10.1190 C   0  0  0  0  0  0  0  0  0  0  0  0
    0.6820   40.7810    8.7710 C   0  0  0  0  0  0  0  0  0  0  0  0
    1.9470   40.0330    8.4300 C   0  0  0  0  0  0  0  0  0  0  0  0
   -1.5750   37.6460   10.2750 N   0  0  0  0  0  0  0  0  0  0  0  0
   -2.7910   36.9880    9.7930 C   0  0  2  0  0  0  0  0  0  0  0  0
   -3.4880   37.8680    8.7490 C   0  0  0  0  0  0  0  0  0  0  0  0
   -3.4570   39.1040    8.8390 O   0  0  0  0  0  0  0  0  0  0  0  0
   -3.6190   36.8520   11.0650 C   0  0  0  0  0  0  0  0  0  0  0  0
   -2.5530   36.6530   12.1150 C   0  0  0  0  0  0  0  0  0  0  0  0
   -1.5520   37.7100   11.7450 C   0  0  0  0  0  0  0  0  0  0  0  0
   -4.0850   37.2430    7.7250 N   0  0  0  0  0  0  0  0  0  0  0  0
   -4.7770   37.9900    6.6730 C   0  0  2  0  0  0  0  0  0  0  0  0
   -6.0000   38.7590    7.1750 C   0  0  0  0  0  0  0  0  0  0  0  0
   -6.6030   38.3400    8.1920 O   0  5  0  0  0  0  0  0  0  0  0  0
   -5.1400   36.8990    5.6630 C   0  0  0  0  0  0  0  0  0  0  0  0
   -5.3150   35.6990    6.5210 C   0  0  0  0  0  0  0  0  0  0  0  0
   -4.1650   35.7930    7.4830 C   0  0  0  0  0  0  0  0  0  0  0  0
   -6.3070   39.7980    6.5530 O   0  0  0  0  0  0  0  0  0  0  0  0
   17.5806   27.1798   10.5723 H   0  0  0  0  0  0  0  0  0  0  0  0
   18.0445   27.5820    8.8842 H   0  0  0  0  0  0  0  0  0  0  0  0
   17.1185   26.0817    9.2280 H   0  0  0  0  0  0  0  0  0  0  0  0
   15.8433   28.3714   11.2987 H   0  0  0  0  0  0  0  0  0  0  0  0
   13.4375   28.6307    9.7041 H   0  0  0  0  0  0  0  0  0  0  0  0
   12.6096   29.9900   11.6023 H   0  0  0  0  0  0  0  0  0  0  0  0
   14.2576   29.9895   12.3169 H   0  0  0  0  0  0  0  0  0  0  0  0
   13.3465   28.4494   12.1590 H   0  0  0  0  0  0  0  0  0  0  0  0
   14.4080   32.3004    7.4731 H   0  0  0  0  0  0  0  0  0  0  0  0
   12.3711   33.2766    6.6899 H   0  0  0  0  0  0  0  0  0  0  0  0
   11.5889   33.1719    8.3035 H   0  0  0  0  0  0  0  0  0  0  0  0
   12.2761   30.8657    6.3901 H   0  0  0  0  0  0  0  0  0  0  0  0
   10.6683   31.2954    7.0660 H   0  0  0  0  0  0  0  0  0  0  0  0
   11.3332   30.7150    9.3120 H   0  0  0  0  0  0  0  0  0  0  0  0
   12.1449   29.4436    8.3366 H   0  0  0  0  0  0  0  0  0  0  0  0
   15.2012   34.3801    7.9299 H   0  0  0  0  0  0  0  0  0  0  0  0
   15.2845   35.0594   10.7964 H   0  0  0  0  0  0  0  0  0  0  0  0
   16.9997   36.6457   10.1952 H   0  0  0  0  0  0  0  0  0  0  0  0
   16.5662   36.5455    8.4549 H   0  0  0  0  0  0  0  0  0  0  0  0
   17.2466   34.3327    8.5389 H   0  0  0  0  0  0  0  0  0  0  0  0
   13.7518   36.1014    7.8258 H   0  0  0  0  0  0  0  0  0  0  0  0
   12.9329   38.6896    8.8206 H   0  0  0  0  0  0  0  0  0  0  0  0
   13.1252   38.4988    6.4720 H   0  0  0  0  0  0  0  0  0  0  0  0
   11.3748   38.6661    6.8393 H   0  0  0  0  0  0  0  0  0  0  0  0
    9.9465   36.5283    6.8237 H   0  0  0  0  0  0  0  0  0  0  0  0
   13.8974   36.6984    5.1822 H   0  0  0  0  0  0  0  0  0  0  0  0
    9.4745   34.4920    5.4994 H   0  0  0  0  0  0  0  0  0  0  0  0
   13.4357   34.6627    3.8582 H   0  0  0  0  0  0  0  0  0  0  0  0
   11.2663   33.4799    2.9553 H   0  0  0  0  0  0  0  0  0  0  0  0
   10.4772   39.2052    8.7258 H   0  0  0  0  0  0  0  0  0  0  0  0
    9.3563   37.5720   10.8630 H   0  0  0  0  0  0  0  0  0  0  0  0
    8.3407   40.0825    9.4463 H   0  0  0  0  0  0  0  0  0  0  0  0
    9.2101   40.0008   11.0161 H   0  0  0  0  0  0  0  0  0  0  0  0
    6.6719   38.8455   10.4459 H   0  0  0  0  0  0  0  0  0  0  0  0
    6.5202   35.2447    8.3781 H   0  0  0  0  0  0  0  0  0  0  0  0
    6.3012   33.8505   10.3104 H   0  0  0  0  0  0  0  0  0  0  0  0
    4.6567   34.5730   10.2871 H   0  0  0  0  0  0  0  0  0  0  0  0
    6.0882   34.8320   12.4923 H   0  0  0  0  0  0  0  0  0  0  0  0
    5.2816   36.2980   11.8388 H   0  0  0  0  0  0  0  0  0  0  0  0
    7.5682   37.0072   11.9980 H   0  0  0  0  0  0  0  0  0  0  0  0
    8.1904   35.4026   11.4832 H   0  0  0  0  0  0  0  0  0  0  0  0
    3.7560   38.5952    7.5172 H   0  0  0  0  0  0  0  0  0  0  0  0
    3.4367   37.5210    5.3917 H   0  0  0  0  0  0  0  0  0  0  0  0
    1.7682   37.4532    6.0536 H   0  0  0  0  0  0  0  0  0  0  0  0
    2.8655   35.1652    5.3079 H   0  0  0  0  0  0  0  0  0  0  0  0
    2.1086   35.2194    6.9360 H   0  0  0  0  0  0  0  0  0  0  0  0
    4.3278   34.4848    7.4897 H   0  0  0  0  0  0  0  0  0  0  0  0
    5.0768   35.4767    6.1929 H   0  0  0  0  0  0  0  0  0  0  0  0
    0.8903   38.2617   10.8916 H   0  0  0  0  0  0  0  0  0  0  0  0
    1.0018   40.6509   10.8939 H   0  0  0  0  0  0  0  0  0  0  0  0
   -0.7058   40.4390   10.3782 H   0  0  0  0  0  0  0  0  0  0  0  0
    0.8599   41.8656    8.8155 H   0  0  0  0  0  0  0  0  0  0  0  0
   -0.1147   40.5697    8.0426 H   0  0  0  0  0  0  0  0  0  0  0  0
    2.1251   40.0200    7.3446 H   0  0  0  0  0  0  0  0  0  0  0  0
    2.8196   40.4675    8.9396 H   0  0  0  0  0  0  0  0  0  0  0  0
   -2.5700   36.0026    9.3571 H   0  0  0  0  0  0  0  0  0  0  0  0
   -4.2938   35.9850   11.0116 H   0  0  0  0  0  0  0  0  0  0  0  0
   -4.2057   37.7620   11.2589 H   0  0  0  0  0  0  0  0  0  0  0  0
   -2.1134   35.6466   12.0530 H   0  0  0  0  0  0  0  0  0  0  0  0
   -2.9524   36.8170   13.1267 H   0  0  0  0  0  0  0  0  0  0  0  0
   -1.8634   38.7007   12.1076 H   0  0  0  0  0  0  0  0  0  0  0  0
   -0.5536   37.4719   12.1406 H   0  0  0  0  0  0  0  0  0  0  0  0
   -4.0873   38.7134    6.2137 H   0  0  0  0  0  0  0  0  0  0  0  0
   -4.3304   36.7495    4.9336 H   0  0  0  0  0  0  0  0  0  0  0  0
   -6.0713   37.1451    5.1319 H   0  0  0  0  0  0  0  0  0  0  0  0
   -5.2561   34.7763    5.9251 H   0  0  0  0  0  0  0  0  0  0  0  0
   -6.2774   35.7314    7.0527 H   0  0  0  0  0  0  0  0  0  0  0  0
   -4.3758   35.2438    8.4125 H   0  0  0  0  0  0  0  0  0  0  0  0
   -3.2363   35.4110    7.0340 H   0  0  0  0  0  0  0  0  0  0  0  0
  1  2  2  0  0  0  0
  1  3  1  0  0  0  0
  1  4  1  0  0  0  0
  3 76  1  0  0  0  0
  3 77  1  0  0  0  0
  3 78  1  0  0  0  0
  4  5  1  0  0  0  0
  4 79  1  0  0  0  0
  5  6  1  0  0  0  0
  5  8  1  0  0  0  0
  5 80  1  6  0  0  0
  6  7  2  0  0  0  0
  6  9  1  0  0  0  0
  8 81  1  0  0  0  0
  8 82  1  0  0  0  0
  8 83  1  0  0  0  0
  9 10  1  0  0  0  0
  9 15  1  0  0  0  0
 10 11  1  0  0  0  0
 10 13  1  0  0  0  0
 10 84  1  6  0  0  0
 11 12  2  0  0  0  0
 11 16  1  0  0  0  0
 13 14  1  0  0  0  0
 13 85  1  0  0  0  0
 13 86  1  0  0  0  0
 14 15  1  0  0  0  0
 14 87  1  0  0  0  0
 14 88  1  0  0  0  0
 15 89  1  0  0  0  0
 15 90  1  0  0  0  0
 16 17  1  0  0  0  0
 16 91  1  0  0  0  0
 17 18  1  0  0  0  0
 17 20  1  0  0  0  0
 17 92  1  1  0  0  0
 18 19  2  0  0  0  0
 18 22  1  0  0  0  0
 20 21  1  0  0  0  0
 20 93  1  0  0  0  0
 20 94  1  0  0  0  0
 21 95  1  0  0  0  0
 22 23  1  0  0  0  0
 22 96  1  0  0  0  0
 23 24  1  0  0  0  0
 23 26  1  0  0  0  0
 23 97  1  1  0  0  0
 24 25  2  0  0  0  0
 24 34  1  0  0  0  0
 26 27  1  0  0  0  0
 26 98  1  0  0  0  0
 26 99  1  0  0  0  0
 27 28  2  0  0  0  0
 27 29  1  0  0  0  0
 28 30  1  0  0  0  0
 28100  1  0  0  0  0
 29 31  2  0  0  0  0
 29101  1  0  0  0  0
 30 32  2  0  0  0  0
 30102  1  0  0  0  0
 31 32  1  0  0  0  0
 31103  1  0  0  0  0
 32 33  1  0  0  0  0
 33104  1  0  0  0  0
 34 35  1  0  0  0  0
 34105  1  0  0  0  0
 35 36  1  0  0  0  0
 35 38  1  0  0  0  0
 35106  1  1  0  0  0
 36 37  2  0  0  0  0
 36 40  1  0  0  0  0
 38 39  1  0  0  0  0
 38107  1  0  0  0  0
 38108  1  0  0  0  0
 39109  1  0  0  0  0
 40 41  1  0  0  0  0
 40 46  1  0  0  0  0
 41 42  1  0  0  0  0
 41 44  1  0  0  0  0
 41110  1  6  0  0  0
 42 43  2  0  0  0  0
 42 47  1  0  0  0  0
 44 45  1  0  0  0  0
 44111  1  0  0  0  0
 44112  1  0  0  0  0
 45 46  1  0  0  0  0
 45113  1  0  0  0  0
 45114  1  0  0  0  0
 46115  1  0  0  0  0
 46116  1  0  0  0  0
 47 48  1  0  0  0  0
 47 53  1  0  0  0  0
 48 49  1  0  0  0  0
 48 51  1  0  0  0  0
 48117  1  6  0  0  0
 49 50  2  0  0  0  0
 49 54  1  0  0  0  0
 51 52  1  0  0  0  0
 51118  1  0  0  0  0
 51119  1  0  0  0  0
 52 53  1  0  0  0  0
 52120  1  0  0  0  0
 52121  1  0  0  0  0
 53122  1  0  0  0  0
 53123  1  0  0  0  0
 54 55  1  0  0  0  0
 54 60  1  0  0  0  0
 55 56  1  0  0  0  0
 55 58  1  0  0  0  0
 55124  1  1  0  0  0
 56 57  2  0  0  0  0
 56 61  1  0  0  0  0
 58 59  1  0  0  0  0
 58125  1  0  0  0  0
 58126  1  0  0  0  0
 59 60  1  0  0  0  0
 59127  1  0  0  0  0
 59128  1  0  0  0  0
 60129  1  0  0  0  0
 60130  1  0  0  0  0
 61 62  1  0  0  0  0
 61 67  1  0  0  0  0
 62 63  1  0  0  0  0
 62 65  1  0  0  0  0
 62131  1  6  0  0  0
 63 64  2  0  0  0  0
 63 68  1  0  0  0  0
 65 66  1  0  0  0  0
 65132  1  0  0  0  0
 65133  1  0  0  0  0
 66 67  1  0  0  0  0
 66134  1  0  0  0  0
 66135  1  0  0  0  0
 67136  1  0  0  0  0
 67137  1  0  0  0  0
 68 69  1  0  0  0  0
 68 74  1  0  0  0  0
 69 70  1  0  0  0  0
 69 72  1  0  0  0  0
 69138  1  6  0  0  0
 70 71  1  0  0  0  0
 70 75  2  0  0  0  0
 72 73  1  0  0  0  0
 72139  1  0  0  0  0
 72140  1  0  0  0  0
 73 74  1  0  0  0  0
 73141  1  0  0  0  0
 73142  1  0  0  0  0
 74143  1  0  0  0  0
 74144  1  0  0  0  0
M  CHG  1  71  -1
M  END
