1bdl_ligand
 OpenBabel08222323343D

 81 83  0  0  1  0  0  0  0  0999 V2000
  -13.6500   15.0960   42.0230 C   0  0  0  0  0  0  0  0  0  0  0  0
  -13.0110   16.2490   42.7830 C   0  0  0  0  0  0  0  0  0  0  0  0
  -14.5580   14.3960   43.0250 C   0  0  0  0  0  0  0  0  0  0  0  0
  -14.5160   15.6670   40.9040 C   0  0  0  0  0  0  0  0  0  0  0  0
  -12.6090   14.2160   41.6550 O   0  0  0  0  0  0  0  0  0  0  0  0
  -12.3090   13.6110   40.4230 C   0  0  0  0  0  0  0  0  0  0  0  0
  -11.1620   13.7590   39.9980 O   0  0  0  0  0  0  0  0  0  0  0  0
  -13.1870   12.9030   39.7080 N   0  0  0  0  0  0  0  0  0  0  0  0
  -12.8170   12.2760   38.4290 C   0  0  1  0  0  0  0  0  0  0  0  0
  -13.9030   11.2450   38.0990 C   0  0  0  0  0  0  0  0  0  0  0  0
  -13.4030    9.8120   38.2280 C   0  0  0  0  0  0  0  0  0  0  0  0
  -14.0170    8.8020   37.4810 C   0  0  0  0  0  0  0  0  0  0  0  0
  -13.5710    7.4880   37.6000 C   0  0  0  0  0  0  0  0  0  0  0  0
  -12.5130    7.1850   38.4560 C   0  0  0  0  0  0  0  0  0  0  0  0
  -11.9010    8.1870   39.2070 C   0  0  0  0  0  0  0  0  0  0  0  0
  -12.3420    9.5010   39.0930 C   0  0  0  0  0  0  0  0  0  0  0  0
  -12.4860   13.1280   37.1410 C   0  0  1  0  0  0  0  0  0  0  0  0
  -11.2820   12.5710   36.5960 O   0  0  0  0  0  0  0  0  0  0  0  0
  -13.5780   13.1830   36.0370 C   0  0  0  0  0  0  0  0  0  0  0  0
  -13.1420   13.2530   34.5700 C   0  0  1  0  0  0  0  0  0  0  0  0
  -14.4070   13.0000   33.7130 C   0  0  0  0  0  0  0  0  0  0  0  0
  -14.2220   13.1810   32.2030 C   0  0  0  0  0  0  0  0  0  0  0  0
  -14.8930   14.2080   31.5350 C   0  0  0  0  0  0  0  0  0  0  0  0
  -14.7020   14.3900   30.1680 C   0  0  0  0  0  0  0  0  0  0  0  0
  -13.8480   13.5420   29.4700 C   0  0  0  0  0  0  0  0  0  0  0  0
  -13.1750   12.5190   30.1290 C   0  0  0  0  0  0  0  0  0  0  0  0
  -13.3650   12.3340   31.4920 C   0  0  0  0  0  0  0  0  0  0  0  0
  -12.4650   14.5780   34.2000 C   0  0  0  0  0  0  0  0  0  0  0  0
  -12.8250   15.6470   34.7020 O   0  0  0  0  0  0  0  0  0  0  0  0
  -11.4980   14.5200   33.2920 N   0  0  0  0  0  0  0  0  0  0  0  0
  -10.7480   15.6810   32.7980 C   0  0  1  0  0  0  0  0  0  0  0  0
   -9.3160   15.7850   33.4010 C   0  0  0  0  0  0  0  0  0  0  0  0
   -9.3890   15.8910   34.9160 C   0  0  0  0  0  0  0  0  0  0  0  0
  -10.6210   15.4560   31.2890 C   0  0  0  0  0  0  0  0  0  0  0  0
   -9.7840   14.5510   30.8120 N   0  0  0  0  0  0  0  0  0  0  0  0
   -9.9720   14.5780   29.4460 C   0  0  0  0  0  0  0  0  0  0  0  0
  -10.9460   15.5330   29.1670 C   0  0  0  0  0  0  0  0  0  0  0  0
  -11.3380   16.0690   30.3710 N   0  0  0  0  0  0  0  0  0  0  0  0
  -13.7901   16.9622   43.0902 H   0  0  0  0  0  0  0  0  0  0  0  0
  -12.2836   16.7579   42.1335 H   0  0  0  0  0  0  0  0  0  0  0  0
  -12.4974   15.8605   43.6748 H   0  0  0  0  0  0  0  0  0  0  0  0
  -15.0555   13.5450   42.5368 H   0  0  0  0  0  0  0  0  0  0  0  0
  -15.3166   15.1042   43.3896 H   0  0  0  0  0  0  0  0  0  0  0  0
  -13.9579   14.0330   43.8724 H   0  0  0  0  0  0  0  0  0  0  0  0
  -13.8760   16.1774   40.1692 H   0  0  0  0  0  0  0  0  0  0  0  0
  -15.2342   16.3853   41.3263 H   0  0  0  0  0  0  0  0  0  0  0  0
  -15.0621   14.8500   40.4097 H   0  0  0  0  0  0  0  0  0  0  0  0
  -14.1204   12.7961   40.0506 H   0  0  0  0  0  0  0  0  0  0  0  0
  -11.8895   11.7238   38.6407 H   0  0  0  0  0  0  0  0  0  0  0  0
  -14.2429   11.4086   37.0657 H   0  0  0  0  0  0  0  0  0  0  0  0
  -14.7471   11.3879   38.7897 H   0  0  0  0  0  0  0  0  0  0  0  0
  -14.8362    9.0406   36.8124 H   0  0  0  0  0  0  0  0  0  0  0  0
  -14.0467    6.7004   37.0268 H   0  0  0  0  0  0  0  0  0  0  0  0
  -12.1637    6.1621   38.5381 H   0  0  0  0  0  0  0  0  0  0  0  0
  -11.0846    7.9431   39.8772 H   0  0  0  0  0  0  0  0  0  0  0  0
  -11.8667   10.2847   39.6718 H   0  0  0  0  0  0  0  0  0  0  0  0
  -12.2958   14.1629   37.4615 H   0  0  0  0  0  0  0  0  0  0  0  0
  -11.0380   13.0515   35.8136 H   0  0  0  0  0  0  0  0  0  0  0  0
  -14.1926   14.0737   36.2343 H   0  0  0  0  0  0  0  0  0  0  0  0
  -14.1955   12.2795   36.1478 H   0  0  0  0  0  0  0  0  0  0  0  0
  -12.4181   12.4464   34.3821 H   0  0  0  0  0  0  0  0  0  0  0  0
  -15.1883   13.6991   34.0458 H   0  0  0  0  0  0  0  0  0  0  0  0
  -14.7385   11.9668   33.8932 H   0  0  0  0  0  0  0  0  0  0  0  0
  -15.5623   14.8631   32.0808 H   0  0  0  0  0  0  0  0  0  0  0  0
  -15.2172   15.1901   29.6490 H   0  0  0  0  0  0  0  0  0  0  0  0
  -13.7061   13.6798   28.4042 H   0  0  0  0  0  0  0  0  0  0  0  0
  -12.5041   11.8679   29.5803 H   0  0  0  0  0  0  0  0  0  0  0  0
  -12.8483   11.5317   32.0062 H   0  0  0  0  0  0  0  0  0  0  0  0
  -11.2643   13.6223   32.9185 H   0  0  0  0  0  0  0  0  0  0  0  0
  -11.3021   16.6065   33.0131 H   0  0  0  0  0  0  0  0  0  0  0  0
   -8.6165   17.0357   32.8370 C   0  0  0  0  0  0  0  0  0  0  0  0
   -8.7407   14.8884   33.1271 H   0  0  0  0  0  0  0  0  0  0  0  0
   -8.3716   15.9637   35.3279 H   0  0  0  0  0  0  0  0  0  0  0  0
   -9.8862   14.9980   35.3225 H   0  0  0  0  0  0  0  0  0  0  0  0
   -9.9619   16.7880   35.1936 H   0  0  0  0  0  0  0  0  0  0  0  0
   -9.1335   13.9557   31.3442 H   0  0  0  0  0  0  0  0  0  0  0  0
   -9.4509   13.9615   28.7150 H   0  0  0  0  0  0  0  0  0  0  0  0
  -11.3251   15.8038   28.1827 H   0  0  0  0  0  0  0  0  0  0  0  0
   -8.5620   16.9623   31.7408 H   0  0  0  0  0  0  0  0  0  0  0  0
   -7.5997   17.1052   33.2508 H   0  0  0  0  0  0  0  0  0  0  0  0
   -9.1882   17.9330   33.1164 H   0  0  0  0  0  0  0  0  0  0  0  0
  1  2  1  0  0  0  0
  1  3  1  0  0  0  0
  1  4  1  0  0  0  0
  1  5  1  0  0  0  0
  2 39  1  0  0  0  0
  2 40  1  0  0  0  0
  2 41  1  0  0  0  0
  3 42  1  0  0  0  0
  3 43  1  0  0  0  0
  3 44  1  0  0  0  0
  4 45  1  0  0  0  0
  4 46  1  0  0  0  0
  4 47  1  0  0  0  0
  5  6  1  0  0  0  0
  6  7  2  0  0  0  0
  6  8  1  0  0  0  0
  8  9  1  0  0  0  0
  8 48  1  0  0  0  0
  9 10  1  0  0  0  0
  9 17  1  0  0  0  0
  9 49  1  1  0  0  0
 10 11  1  0  0  0  0
 10 50  1  0  0  0  0
 10 51  1  0  0  0  0
 11 12  2  0  0  0  0
 11 16  1  0  0  0  0
 12 13  1  0  0  0  0
 12 52  1  0  0  0  0
 13 14  2  0  0  0  0
 13 53  1  0  0  0  0
 14 15  1  0  0  0  0
 14 54  1  0  0  0  0
 15 16  2  0  0  0  0
 15 55  1  0  0  0  0
 16 56  1  0  0  0  0
 17 18  1  0  0  0  0
 17 19  1  0  0  0  0
 17 57  1  1  0  0  0
 18 58  1  0  0  0  0
 19 20  1  0  0  0  0
 19 59  1  0  0  0  0
 19 60  1  0  0  0  0
 20 21  1  0  0  0  0
 20 28  1  0  0  0  0
 20 61  1  6  0  0  0
 21 22  1  0  0  0  0
 21 62  1  0  0  0  0
 21 63  1  0  0  0  0
 22 23  2  0  0  0  0
 22 27  1  0  0  0  0
 23 24  1  0  0  0  0
 23 64  1  0  0  0  0
 24 25  2  0  0  0  0
 24 65  1  0  0  0  0
 25 26  1  0  0  0  0
 25 66  1  0  0  0  0
 26 27  2  0  0  0  0
 26 67  1  0  0  0  0
 27 68  1  0  0  0  0
 28 29  2  0  0  0  0
 28 30  1  0  0  0  0
 30 31  1  0  0  0  0
 30 69  1  0  0  0  0
 31 32  1  0  0  0  0
 31 34  1  0  0  0  0
 31 70  1  1  0  0  0
 32 33  1  0  0  0  0
 32 71  1  0  0  0  0
 32 72  1  0  0  0  0
 33 73  1  0  0  0  0
 33 74  1  0  0  0  0
 33 75  1  0  0  0  0
 34 35  1  0  0  0  0
 34 38  2  0  0  0  0
 35 36  1  0  0  0  0
 35 76  1  0  0  0  0
 36 37  2  0  0  0  0
 36 77  1  0  0  0  0
 37 38  1  0  0  0  0
 37 78  1  0  0  0  0
 71 79  1  0  0  0  0
 71 80  1  0  0  0  0
 71 81  1  0  0  0  0
M  END
