1bgo_ligand
 OpenBabel08222323343D

 65 67  0  0  1  0  0  0  0  0999 V2000
   36.5060   22.5160  -10.5830 C   0  0  0  0  0  0  0  0  0  0  0  0
   37.0090   21.2510  -10.4490 C   0  0  0  0  0  0  0  0  0  0  0  0
   37.2190   20.4360  -11.4710 C   0  0  0  0  0  0  0  0  0  0  0  0
   37.7290   19.0560  -11.2890 C   0  0  0  0  0  0  0  0  0  0  0  0
   37.3690   18.1980  -10.2310 C   0  0  0  0  0  0  0  0  0  0  0  0
   37.7750   16.8200  -10.1530 C   0  0  0  0  0  0  0  0  0  0  0  0
   38.5940   16.3020  -11.2070 C   0  0  0  0  0  0  0  0  0  0  0  0
   38.9660   17.1720  -12.2650 C   0  0  0  0  0  0  0  0  0  0  0  0
   38.5200   18.5260  -12.2730 C   0  0  0  0  0  0  0  0  0  0  0  0
   37.1260   15.9440   -9.0570 C   0  0  2  0  0  0  0  0  0  0  0  0
   35.7080   15.4250   -9.5760 C   0  0  0  0  0  0  0  0  0  0  0  0
   36.9270   16.7220   -7.6860 C   0  0  0  0  0  0  0  0  0  0  0  0
   36.1720   17.0100   -5.1920 C   0  0  0  0  0  0  0  0  0  0  0  0
   37.2120   14.9030   -5.8190 C   0  0  0  0  0  0  0  0  0  0  0  0
   35.6570   14.1210  -10.0380 N   0  0  0  0  0  0  0  0  0  0  0  0
   34.4460   13.4270  -10.5640 C   0  0  0  0  0  0  0  0  0  0  0  0
   34.0810   12.2580   -9.6300 C   0  0  2  0  0  0  0  0  0  0  0  0
   35.2640   11.3260   -9.3130 C   0  0  0  0  0  0  0  0  0  0  0  0
   36.9070   20.9290  -12.7030 C   0  0  0  0  0  0  0  0  0  0  0  0
   36.3960   22.2000  -12.8590 C   0  0  0  0  0  0  0  0  0  0  0  0
   36.1920   23.0060  -11.7910 C   0  0  0  0  0  0  0  0  0  0  0  0
   34.7530   16.1760   -9.5480 O   0  0  0  0  0  0  0  0  0  0  0  0
   36.3530   16.0500   -6.3880 C   0  0  0  0  0  0  0  0  0  0  0  0
   33.0630   11.4800  -10.1480 O   0  0  0  0  0  0  0  0  0  0  0  0
   34.9320   10.0410   -8.7200 N   0  0  0  0  0  0  0  0  0  0  0  0
   35.2530    8.5010   -9.5100 S   0  0  0  0  0  0  0  0  0  0  0  0
   35.0740    8.7640  -10.9330 O   0  0  0  0  0  0  0  0  0  0  0  0
   34.4110    7.5570   -8.8920 O   0  0  0  0  0  0  0  0  0  0  0  0
   36.8130    8.1330   -9.1710 C   0  0  0  0  0  0  0  0  0  0  0  0
   37.0730    7.3640   -8.1450 N   0  0  0  0  0  0  0  0  0  0  0  0
   38.3650    7.1210   -7.8180 C   0  0  0  0  0  0  0  0  0  0  0  0
   39.4280    7.6860   -8.5830 C   0  0  0  0  0  0  0  0  0  0  0  0
   39.0540    8.5170   -9.6910 C   0  0  0  0  0  0  0  0  0  0  0  0
   37.7030    8.7260   -9.9710 C   0  0  0  0  0  0  0  0  0  0  0  0
   36.3594   23.1299   -9.7017 H   0  0  0  0  0  0  0  0  0  0  0  0
   37.2484   20.8969   -9.4528 H   0  0  0  0  0  0  0  0  0  0  0  0
   36.7533   18.5975   -9.4332 H   0  0  0  0  0  0  0  0  0  0  0  0
   38.9225   15.2690  -11.1972 H   0  0  0  0  0  0  0  0  0  0  0  0
   39.5920   16.8053  -13.0704 H   0  0  0  0  0  0  0  0  0  0  0  0
   38.8207   19.1650  -13.0954 H   0  0  0  0  0  0  0  0  0  0  0  0
   37.7799   15.0790   -8.8723 H   0  0  0  0  0  0  0  0  0  0  0  0
   36.2557   17.5637   -7.9117 H   0  0  0  0  0  0  0  0  0  0  0  0
   37.9198   17.1081   -7.4117 H   0  0  0  0  0  0  0  0  0  0  0  0
   35.7677   16.4538   -4.3334 H   0  0  0  0  0  0  0  0  0  0  0  0
   35.4744   17.8140   -5.4694 H   0  0  0  0  0  0  0  0  0  0  0  0
   37.1449   17.4459   -4.9212 H   0  0  0  0  0  0  0  0  0  0  0  0
   37.3975   14.1582   -6.6069 H   0  0  0  0  0  0  0  0  0  0  0  0
   36.6800   14.4268   -4.9822 H   0  0  0  0  0  0  0  0  0  0  0  0
   38.1714   15.3057   -5.4620 H   0  0  0  0  0  0  0  0  0  0  0  0
   36.5086   13.5972  -10.0172 H   0  0  0  0  0  0  0  0  0  0  0  0
   34.6536   13.0400  -11.5725 H   0  0  0  0  0  0  0  0  0  0  0  0
   33.6067   14.1366  -10.6091 H   0  0  0  0  0  0  0  0  0  0  0  0
   33.7325   12.6971   -8.6836 H   0  0  0  0  0  0  0  0  0  0  0  0
   35.9295   11.8550   -8.6150 H   0  0  0  0  0  0  0  0  0  0  0  0
   35.7993   11.1322  -10.2542 H   0  0  0  0  0  0  0  0  0  0  0  0
   37.0639   20.3089  -13.5782 H   0  0  0  0  0  0  0  0  0  0  0  0
   36.1538   22.5594  -13.8526 H   0  0  0  0  0  0  0  0  0  0  0  0
   35.7913   24.0065  -11.9074 H   0  0  0  0  0  0  0  0  0  0  0  0
   35.3676   15.6436   -6.6598 H   0  0  0  0  0  0  0  0  0  0  0  0
   32.3174   12.0318  -10.3533 H   0  0  0  0  0  0  0  0  0  0  0  0
   34.4997   10.0314   -7.8183 H   0  0  0  0  0  0  0  0  0  0  0  0
   38.5933    6.4907   -6.9662 H   0  0  0  0  0  0  0  0  0  0  0  0
   40.4672    7.4968   -8.3392 H   0  0  0  0  0  0  0  0  0  0  0  0
   39.8164    8.9798  -10.3071 H   0  0  0  0  0  0  0  0  0  0  0  0
   37.3887    9.3445  -10.8039 H   0  0  0  0  0  0  0  0  0  0  0  0
  1  2  2  0  0  0  0
  1 21  1  0  0  0  0
  1 35  1  0  0  0  0
  2  3  1  0  0  0  0
  2 36  1  0  0  0  0
  3  4  1  0  0  0  0
  3 19  2  0  0  0  0
  4  5  2  0  0  0  0
  4  9  1  0  0  0  0
  5  6  1  0  0  0  0
  5 37  1  0  0  0  0
  6  7  2  0  0  0  0
  6 10  1  0  0  0  0
  7  8  1  0  0  0  0
  7 38  1  0  0  0  0
  8  9  2  0  0  0  0
  8 39  1  0  0  0  0
  9 40  1  0  0  0  0
 10 11  1  0  0  0  0
 10 12  1  0  0  0  0
 10 41  1  1  0  0  0
 11 15  1  0  0  0  0
 11 22  2  0  0  0  0
 12 23  1  0  0  0  0
 12 42  1  0  0  0  0
 12 43  1  0  0  0  0
 13 44  1  0  0  0  0
 13 45  1  0  0  0  0
 13 46  1  0  0  0  0
 14 47  1  0  0  0  0
 14 48  1  0  0  0  0
 14 49  1  0  0  0  0
 15 16  1  0  0  0  0
 15 50  1  0  0  0  0
 16 17  1  0  0  0  0
 16 51  1  0  0  0  0
 16 52  1  0  0  0  0
 17 18  1  0  0  0  0
 17 24  1  0  0  0  0
 17 53  1  1  0  0  0
 18 25  1  0  0  0  0
 18 54  1  0  0  0  0
 18 55  1  0  0  0  0
 19 20  1  0  0  0  0
 19 56  1  0  0  0  0
 20 21  2  0  0  0  0
 20 57  1  0  0  0  0
 21 58  1  0  0  0  0
 23 13  1  0  0  0  0
 23 14  1  0  0  0  0
 23 59  1  0  0  0  0
 24 60  1  0  0  0  0
 25 26  1  0  0  0  0
 25 61  1  0  0  0  0
 26 27  2  0  0  0  0
 26 28  2  0  0  0  0
 26 29  1  0  0  0  0
 29 30  2  0  0  0  0
 29 34  1  0  0  0  0
 30 31  1  0  0  0  0
 31 32  2  0  0  0  0
 31 62  1  0  0  0  0
 32 33  1  0  0  0  0
 32 63  1  0  0  0  0
 33 34  2  0  0  0  0
 33 64  1  0  0  0  0
 34 65  1  0  0  0  0
M  END
