1bil_ligand
 OpenBabel08222323343D

 98100  0  0  1  0  0  0  0  0999 V2000
   42.6780   61.3260   49.5400 C   0  0  0  0  0  0  0  0  0  0  0  0
   43.8000   62.4050   47.5520 C   0  0  0  0  0  0  0  0  0  0  0  0
   41.6350   61.3190   47.3170 C   0  0  0  0  0  0  0  0  0  0  0  0
   41.6010   61.6280   46.1740 O   0  0  0  0  0  0  0  0  0  0  0  0
   42.6860   61.6600   48.1050 N   0  0  0  0  0  0  0  0  0  0  0  0
   39.5960   60.0250   46.8630 N   0  0  0  0  0  0  0  0  0  0  0  0
   38.8020   60.9020   46.2930 C   0  0  0  0  0  0  0  0  0  0  0  0
   38.9480   62.0460   46.6140 O   0  0  0  0  0  0  0  0  0  0  0  0
   40.5160   60.4930   47.9050 C   0  0  0  0  0  0  0  0  0  0  0  0
   39.5960   58.6350   46.4440 C   0  0  1  0  0  0  0  0  0  0  0  0
   41.0710   58.3440   46.0070 C   0  0  0  0  0  0  0  0  0  0  0  0
   39.2750   57.7620   47.6730 C   0  0  0  0  0  0  0  0  0  0  0  0
   40.0460   56.7350   47.9830 C   0  0  0  0  0  0  0  0  0  0  0  0
   38.2760   58.0740   48.4460 C   0  0  0  0  0  0  0  0  0  0  0  0
   39.8170   56.0270   49.0960 C   0  0  0  0  0  0  0  0  0  0  0  0
   38.0320   57.3560   49.5440 C   0  0  0  0  0  0  0  0  0  0  0  0
   38.7890   56.3200   49.8620 C   0  0  0  0  0  0  0  0  0  0  0  0
   36.2920   61.0310   43.5100 C   0  0  0  0  0  0  0  0  0  0  0  0
   36.5720   60.1740   42.6580 O   0  0  0  0  0  0  0  0  0  0  0  0
   37.4220   61.6330   44.2900 C   0  0  1  0  0  0  0  0  0  0  0  0
   37.7980   60.4680   45.2390 C   0  0  0  0  0  0  0  0  0  0  0  0
   38.6110   61.9110   43.3530 C   0  0  0  0  0  0  0  0  0  0  0  0
   38.4330   63.2880   42.7490 C   0  0  0  0  0  0  0  0  0  0  0  0
   37.8310   63.4240   41.5910 C   0  0  0  0  0  0  0  0  0  0  0  0
   37.6200   65.1320   41.1860 S   0  0  0  0  0  0  0  0  0  0  0  0
   38.4270   65.4480   42.6970 C   0  0  0  0  0  0  0  0  0  0  0  0
   38.7640   64.4180   43.3590 N   0  0  0  0  0  0  0  0  0  0  0  0
   38.6720   66.6810   43.0370 N   0  0  0  0  0  0  0  0  0  0  0  0
   32.9370   61.5410   42.5010 C   0  0  1  0  0  0  0  0  0  0  0  0
   33.8720   60.5950   43.2990 C   0  0  2  0  0  0  0  0  0  0  0  0
   33.0270   59.8490   44.3920 C   0  0  0  0  0  0  0  0  0  0  0  0
   33.8770   59.1580   45.4910 C   0  0  0  0  0  0  0  0  0  0  0  0
   32.9940   58.8390   46.7460 C   0  0  0  0  0  0  0  0  0  0  0  0
   33.8070   57.9750   47.7630 C   0  0  0  0  0  0  0  0  0  0  0  0
   34.1990   56.6280   47.0890 C   0  0  0  0  0  0  0  0  0  0  0  0
   35.1680   56.9920   45.9410 C   0  0  0  0  0  0  0  0  0  0  0  0
   34.3530   57.8270   44.9140 C   0  0  0  0  0  0  0  0  0  0  0  0
   35.0080   61.2930   43.9130 N   0  0  0  0  0  0  0  0  0  0  0  0
   32.7980   62.8060   43.1460 O   0  0  0  0  0  0  0  0  0  0  0  0
   33.5000   61.7800   41.0910 C   0  0  2  0  0  0  0  0  0  0  0  0
   32.5460   62.7620   40.3350 C   0  0  0  0  0  0  0  0  0  0  0  0
   33.1650   63.1330   38.9640 C   0  0  0  0  0  0  0  0  0  0  0  0
   32.1240   63.6600   37.9810 C   0  0  0  0  0  0  0  0  0  0  0  0
   34.2660   64.1800   39.1790 C   0  0  0  0  0  0  0  0  0  0  0  0
   33.4940   60.5190   40.4480 O   0  0  0  0  0  0  0  0  0  0  0  0
   43.6094   61.6820   50.0045 H   0  0  0  0  0  0  0  0  0  0  0  0
   42.6008   60.2356   49.6623 H   0  0  0  0  0  0  0  0  0  0  0  0
   41.8179   61.8111   50.0246 H   0  0  0  0  0  0  0  0  0  0  0  0
   43.6376   62.5622   46.4755 H   0  0  0  0  0  0  0  0  0  0  0  0
   44.7310   61.8390   47.7036 H   0  0  0  0  0  0  0  0  0  0  0  0
   43.8766   63.3791   48.0573 H   0  0  0  0  0  0  0  0  0  0  0  0
   40.9463   59.6220   48.4209 H   0  0  0  0  0  0  0  0  0  0  0  0
   39.9577   61.1076   48.6265 H   0  0  0  0  0  0  0  0  0  0  0  0
   38.8822   58.4521   45.6273 H   0  0  0  0  0  0  0  0  0  0  0  0
   41.1549   57.2995   45.6723 H   0  0  0  0  0  0  0  0  0  0  0  0
   41.7458   58.5112   46.8595 H   0  0  0  0  0  0  0  0  0  0  0  0
   41.3486   59.0168   45.1822 H   0  0  0  0  0  0  0  0  0  0  0  0
   40.8693   56.4638   47.3321 H   0  0  0  0  0  0  0  0  0  0  0  0
   37.6418   58.9174   48.1980 H   0  0  0  0  0  0  0  0  0  0  0  0
   40.4790   55.2121   49.3658 H   0  0  0  0  0  0  0  0  0  0  0  0
   37.2005   57.6263   50.1848 H   0  0  0  0  0  0  0  0  0  0  0  0
   38.5663   55.7226   50.7387 H   0  0  0  0  0  0  0  0  0  0  0  0
   37.1231   62.5429   44.8311 H   0  0  0  0  0  0  0  0  0  0  0  0
   38.2353   59.6518   44.6452 H   0  0  0  0  0  0  0  0  0  0  0  0
   36.8873   60.1092   45.7409 H   0  0  0  0  0  0  0  0  0  0  0  0
   38.6384   61.1557   42.5538 H   0  0  0  0  0  0  0  0  0  0  0  0
   39.5503   61.8747   43.9242 H   0  0  0  0  0  0  0  0  0  0  0  0
   37.5050   62.5958   40.9635 H   0  0  0  0  0  0  0  0  0  0  0  0
   39.1484   66.8848   43.9272 H   0  0  0  0  0  0  0  0  0  0  0  0
   38.3894   67.4524   42.4157 H   0  0  0  0  0  0  0  0  0  0  0  0
   31.9465   61.0693   42.4208 H   0  0  0  0  0  0  0  0  0  0  0  0
   34.2768   59.8480   42.6004 H   0  0  0  0  0  0  0  0  0  0  0  0
   32.4183   59.0808   43.8927 H   0  0  0  0  0  0  0  0  0  0  0  0
   32.3661   60.5823   44.8772 H   0  0  0  0  0  0  0  0  0  0  0  0
   34.7291   59.7933   45.7744 H   0  0  0  0  0  0  0  0  0  0  0  0
   32.0984   58.2840   46.4302 H   0  0  0  0  0  0  0  0  0  0  0  0
   32.6911   59.7804   47.2277 H   0  0  0  0  0  0  0  0  0  0  0  0
   33.1909   57.7761   48.6523 H   0  0  0  0  0  0  0  0  0  0  0  0
   34.7171   58.5162   48.0610 H   0  0  0  0  0  0  0  0  0  0  0  0
   33.3053   56.1259   46.6900 H   0  0  0  0  0  0  0  0  0  0  0  0
   34.6970   55.9682   47.8147 H   0  0  0  0  0  0  0  0  0  0  0  0
   35.5526   56.0776   45.4656 H   0  0  0  0  0  0  0  0  0  0  0  0
   36.0092   57.5852   46.3290 H   0  0  0  0  0  0  0  0  0  0  0  0
   34.9887   58.0286   44.0392 H   0  0  0  0  0  0  0  0  0  0  0  0
   33.4745   57.2431   44.6022 H   0  0  0  0  0  0  0  0  0  0  0  0
   34.8436   61.9670   44.6332 H   0  0  0  0  0  0  0  0  0  0  0  0
   32.4299   62.6796   44.0125 H   0  0  0  0  0  0  0  0  0  0  0  0
   34.5186   62.1929   41.1354 H   0  0  0  0  0  0  0  0  0  0  0  0
   32.4095   63.6743   40.9342 H   0  0  0  0  0  0  0  0  0  0  0  0
   31.5711   62.2774   40.1777 H   0  0  0  0  0  0  0  0  0  0  0  0
   33.6164   62.2279   38.5317 H   0  0  0  0  0  0  0  0  0  0  0  0
   32.6128   63.9079   37.0272 H   0  0  0  0  0  0  0  0  0  0  0  0
   31.6514   64.5624   38.3961 H   0  0  0  0  0  0  0  0  0  0  0  0
   31.3574   62.8898   37.8108 H   0  0  0  0  0  0  0  0  0  0  0  0
   35.0100   63.7892   39.8888 H   0  0  0  0  0  0  0  0  0  0  0  0
   33.8218   65.1014   39.5836 H   0  0  0  0  0  0  0  0  0  0  0  0
   34.7555   64.3999   38.2188 H   0  0  0  0  0  0  0  0  0  0  0  0
   32.6116   60.1670   40.4518 H   0  0  0  0  0  0  0  0  0  0  0  0
  1 46  1  0  0  0  0
  1 47  1  0  0  0  0
  1 48  1  0  0  0  0
  2 49  1  0  0  0  0
  2 50  1  0  0  0  0
  2 51  1  0  0  0  0
  3  5  1  0  0  0  0
  3  4  2  0  0  0  0
  5  1  1  0  0  0  0
  5  2  1  0  0  0  0
  6 10  1  0  0  0  0
  6  9  1  0  0  0  0
  7  6  1  0  0  0  0
  7  8  2  0  0  0  0
  9  3  1  0  0  0  0
  9 52  1  0  0  0  0
  9 53  1  0  0  0  0
 10 12  1  0  0  0  0
 10 11  1  0  0  0  0
 10 54  1  6  0  0  0
 11 55  1  0  0  0  0
 11 56  1  0  0  0  0
 11 57  1  0  0  0  0
 12 14  2  0  0  0  0
 12 13  1  0  0  0  0
 13 15  2  0  0  0  0
 13 58  1  0  0  0  0
 14 16  1  0  0  0  0
 14 59  1  0  0  0  0
 15 17  1  0  0  0  0
 15 60  1  0  0  0  0
 16 17  2  0  0  0  0
 16 61  1  0  0  0  0
 17 62  1  0  0  0  0
 18 20  1  0  0  0  0
 18 19  2  0  0  0  0
 20 22  1  0  0  0  0
 20 21  1  0  0  0  0
 20 63  1  1  0  0  0
 21  7  1  0  0  0  0
 21 64  1  0  0  0  0
 21 65  1  0  0  0  0
 22 23  1  0  0  0  0
 22 66  1  0  0  0  0
 22 67  1  0  0  0  0
 23 27  1  0  0  0  0
 23 24  2  0  0  0  0
 24 25  1  0  0  0  0
 24 68  1  0  0  0  0
 25 26  1  0  0  0  0
 26 28  1  0  0  0  0
 27 26  2  0  0  0  0
 28 69  1  0  0  0  0
 28 70  1  0  0  0  0
 29 39  1  0  0  0  0
 29 40  1  0  0  0  0
 29 71  1  6  0  0  0
 30 29  1  0  0  0  0
 30 31  1  0  0  0  0
 30 72  1  6  0  0  0
 31 32  1  0  0  0  0
 31 73  1  0  0  0  0
 31 74  1  0  0  0  0
 32 37  1  0  0  0  0
 32 33  1  0  0  0  0
 32 75  1  0  0  0  0
 33 34  1  0  0  0  0
 33 76  1  0  0  0  0
 33 77  1  0  0  0  0
 34 35  1  0  0  0  0
 34 78  1  0  0  0  0
 34 79  1  0  0  0  0
 35 80  1  0  0  0  0
 35 81  1  0  0  0  0
 36 35  1  0  0  0  0
 36 82  1  0  0  0  0
 36 83  1  0  0  0  0
 37 36  1  0  0  0  0
 37 84  1  0  0  0  0
 37 85  1  0  0  0  0
 38 30  1  0  0  0  0
 38 18  1  0  0  0  0
 38 86  1  0  0  0  0
 39 87  1  0  0  0  0
 40 45  1  0  0  0  0
 40 41  1  0  0  0  0
 40 88  1  1  0  0  0
 41 42  1  0  0  0  0
 41 89  1  0  0  0  0
 41 90  1  0  0  0  0
 42 44  1  0  0  0  0
 42 43  1  0  0  0  0
 42 91  1  0  0  0  0
 43 92  1  0  0  0  0
 43 93  1  0  0  0  0
 43 94  1  0  0  0  0
 44 95  1  0  0  0  0
 44 96  1  0  0  0  0
 44 97  1  0  0  0  0
 45 98  1  0  0  0  0
M  END
