1bji_ligand
 OpenBabel08222323343D

 55 56  0  0  1  0  0  0  0  0999 V2000
   23.7040   20.1290   65.2380 C   0  0  0  0  0  0  0  0  0  0  0  0
   24.3820   21.1730   65.2880 O   0  5  0  0  0  0  0  0  0  0  0  0
   22.5200   20.0760   65.6350 O   0  0  0  0  0  0  0  0  0  0  0  0
   24.2850   19.0260   64.6280 C   0  0  0  0  0  0  0  0  0  0  0  0
   23.6200   17.9000   64.2370 C   0  0  0  0  0  0  0  0  0  0  0  0
   24.2200   17.0020   63.1800 C   0  0  1  0  0  0  0  0  0  0  0  0
   25.6680   16.9470   63.2730 C   0  0  1  0  0  0  0  0  0  0  0  0
   26.3350   16.2020   62.1880 N   0  0  0  0  0  0  0  0  0  0  0  0
   27.0420   15.0800   62.3280 C   0  0  0  0  0  0  0  0  0  0  0  0
   27.2660   14.5750   63.4110 O   0  0  0  0  0  0  0  0  0  0  0  0
   27.7040   14.3420   61.2240 C   0  0  0  0  0  0  0  0  0  0  0  0
   26.1640   18.3740   63.3030 C   0  0  1  0  0  0  0  0  0  0  0  0
   25.6120   19.0450   64.3690 O   0  0  0  0  0  0  0  0  0  0  0  0
   27.6610   18.2750   63.5730 C   0  0  0  0  0  0  0  0  0  0  0  0
   27.9280   17.9720   64.7320 O   0  0  0  0  0  0  0  0  0  0  0  0
   28.6180   18.4690   62.6520 N   0  0  0  0  0  0  0  0  0  0  0  0
   30.0060   18.3720   63.1720 C   0  0  0  0  0  0  0  0  0  0  0  0
   30.5980   16.9840   62.9900 C   0  0  0  0  0  0  0  0  0  0  0  0
   32.0180   17.0640   63.4730 C   0  0  0  0  0  0  0  0  0  0  0  0
   32.2970   17.0400   64.8270 C   0  0  0  0  0  0  0  0  0  0  0  0
   33.0810   17.1290   62.5700 C   0  0  0  0  0  0  0  0  0  0  0  0
   33.6060   17.0720   65.2810 C   0  0  0  0  0  0  0  0  0  0  0  0
   34.3940   17.1650   63.0160 C   0  0  0  0  0  0  0  0  0  0  0  0
   34.6500   17.1340   64.3760 C   0  0  0  0  0  0  0  0  0  0  0  0
   28.2350   18.8470   61.2970 C   0  0  0  0  0  0  0  0  0  0  0  0
   28.0520   20.4090   61.2910 C   0  0  0  0  0  0  0  0  0  0  0  0
   29.1410   21.3770   61.6740 C   0  0  0  0  0  0  0  0  0  0  0  0
   23.7350   15.7120   63.4460 N   0  3  0  0  0  0  0  0  0  0  0  0
   22.6598   17.6495   64.6855 H   0  0  0  0  0  0  0  0  0  0  0  0
   23.9200   17.3409   62.1774 H   0  0  0  0  0  0  0  0  0  0  0  0
   25.9305   16.4552   64.2213 H   0  0  0  0  0  0  0  0  0  0  0  0
   26.2490   16.5723   61.2631 H   0  0  0  0  0  0  0  0  0  0  0  0
   28.2139   13.4557   61.6295 H   0  0  0  0  0  0  0  0  0  0  0  0
   28.4402   14.9968   60.7349 H   0  0  0  0  0  0  0  0  0  0  0  0
   26.9487   14.0263   60.4893 H   0  0  0  0  0  0  0  0  0  0  0  0
   25.9492   18.8919   62.3566 H   0  0  0  0  0  0  0  0  0  0  0  0
   29.9990   18.6150   64.2448 H   0  0  0  0  0  0  0  0  0  0  0  0
   30.6355   19.0974   62.6358 H   0  0  0  0  0  0  0  0  0  0  0  0
   30.5725   16.6953   61.9289 H   0  0  0  0  0  0  0  0  0  0  0  0
   30.0348   16.2490   63.5837 H   0  0  0  0  0  0  0  0  0  0  0  0
   31.4829   16.9957   65.5413 H   0  0  0  0  0  0  0  0  0  0  0  0
   32.8774   17.1516   61.5055 H   0  0  0  0  0  0  0  0  0  0  0  0
   33.8115   17.0484   66.3451 H   0  0  0  0  0  0  0  0  0  0  0  0
   35.2117   17.2169   62.3063 H   0  0  0  0  0  0  0  0  0  0  0  0
   35.6732   17.1584   64.7332 H   0  0  0  0  0  0  0  0  0  0  0  0
   27.2911   18.3549   61.0198 H   0  0  0  0  0  0  0  0  0  0  0  0
   29.0227   18.5561   60.5865 H   0  0  0  0  0  0  0  0  0  0  0  0
   27.2135   20.6157   61.9722 H   0  0  0  0  0  0  0  0  0  0  0  0
   27.7631   20.6735   60.2631 H   0  0  0  0  0  0  0  0  0  0  0  0
   28.7635   22.4066   61.5874 H   0  0  0  0  0  0  0  0  0  0  0  0
   30.0021   21.2446   61.0025 H   0  0  0  0  0  0  0  0  0  0  0  0
   29.4525   21.1868   62.7117 H   0  0  0  0  0  0  0  0  0  0  0  0
   22.7286   15.7132   63.3898 H   0  0  0  0  0  0  0  0  0  0  0  0
   24.0194   15.4302   64.3710 H   0  0  0  0  0  0  0  0  0  0  0  0
   24.1086   15.0662   62.7682 H   0  0  0  0  0  0  0  0  0  0  0  0
  1  3  2  0  0  0  0
  1  2  1  0  0  0  0
  4  1  1  0  0  0  0
  4 13  1  0  0  0  0
  4  5  2  0  0  0  0
  5  6  1  0  0  0  0
  5 29  1  0  0  0  0
  6 28  1  0  0  0  0
  6  7  1  0  0  0  0
  6 30  1  6  0  0  0
  7 12  1  0  0  0  0
  7  8  1  0  0  0  0
  7 31  1  1  0  0  0
  8  9  1  0  0  0  0
  8 32  1  0  0  0  0
  9 11  1  0  0  0  0
  9 10  2  0  0  0  0
 11 33  1  0  0  0  0
 11 34  1  0  0  0  0
 11 35  1  0  0  0  0
 12 14  1  0  0  0  0
 12 13  1  0  0  0  0
 12 36  1  6  0  0  0
 14 16  1  0  0  0  0
 14 15  2  0  0  0  0
 16 25  1  0  0  0  0
 16 17  1  0  0  0  0
 17 18  1  0  0  0  0
 17 37  1  0  0  0  0
 17 38  1  0  0  0  0
 18 19  1  0  0  0  0
 18 39  1  0  0  0  0
 18 40  1  0  0  0  0
 19 21  2  0  0  0  0
 19 20  1  0  0  0  0
 20 22  2  0  0  0  0
 20 41  1  0  0  0  0
 21 23  1  0  0  0  0
 21 42  1  0  0  0  0
 22 24  1  0  0  0  0
 22 43  1  0  0  0  0
 23 44  1  0  0  0  0
 24 23  2  0  0  0  0
 24 45  1  0  0  0  0
 25 26  1  0  0  0  0
 25 46  1  0  0  0  0
 25 47  1  0  0  0  0
 26 27  1  0  0  0  0
 26 48  1  0  0  0  0
 26 49  1  0  0  0  0
 27 50  1  0  0  0  0
 27 51  1  0  0  0  0
 27 52  1  0  0  0  0
 28 53  1  0  0  0  0
 28 54  1  0  0  0  0
 28 55  1  0  0  0  0
M  CHG  2   2  -1  28   1
M  END
