1bm2_ligand
 OpenBabel08222323343D

111112  0  0  1  0  0  0  0  0999 V2000
   35.4540   27.7120   22.8160 C   0  0  0  0  0  0  0  0  0  0  0  0
   35.6410   28.6930   22.0890 O   0  0  0  0  0  0  0  0  0  0  0  0
   34.6570   27.8440   24.1000 C   0  0  0  0  0  0  0  0  0  0  0  0
   35.9300   26.4970   22.5490 N   0  0  0  0  0  0  0  0  0  0  0  0
   36.7080   26.1910   21.3590 C   0  0  1  0  0  0  0  0  0  0  0  0
   37.9670   25.4240   21.7290 C   0  0  0  0  0  0  0  0  0  0  0  0
   39.0610   26.2590   22.8870 S   0  0  0  0  0  0  0  0  0  0  0  0
   39.3040   27.8400   22.0480 C   0  0  0  0  0  0  0  0  0  0  0  0
   40.5490   27.9090   21.1710 C   0  0  0  0  0  0  0  0  0  0  0  0
   40.3500   27.1840   19.9170 N   0  0  0  0  0  0  0  0  0  0  0  0
   35.8790   25.3380   20.4100 C   0  0  0  0  0  0  0  0  0  0  0  0
   35.1690   24.4140   20.8300 O   0  0  0  0  0  0  0  0  0  0  0  0
   35.9850   25.6380   19.1240 N   0  3  0  0  0  0  0  0  0  0  0  0
   35.2310   24.9020   18.1280 C   0  0  2  0  0  0  0  0  0  0  0  0
   36.1270   24.4840   16.9810 C   0  0  0  0  0  0  0  0  0  0  0  0
   37.2350   24.9910   16.8400 O   0  0  0  0  0  0  0  0  0  0  0  0
   34.0670   25.7520   17.6330 C   0  0  0  0  0  0  0  0  0  0  0  0
   33.0930   26.1350   18.7300 C   0  0  0  0  0  0  0  0  0  0  0  0
   31.9110   25.4300   18.9200 C   0  0  0  0  0  0  0  0  0  0  0  0
   33.3370   27.2310   19.5530 C   0  0  0  0  0  0  0  0  0  0  0  0
   30.9870   25.8160   19.8990 C   0  0  0  0  0  0  0  0  0  0  0  0
   32.4200   27.6200   20.5370 C   0  0  0  0  0  0  0  0  0  0  0  0
   31.2480   26.9170   20.7010 C   0  0  0  0  0  0  0  0  0  0  0  0
   30.2860   27.3970   21.6040 O   0  0  0  0  0  0  0  0  0  0  0  0
   29.7000   26.4850   22.7420 P   0  0  0  0  0  0  0  0  0  0  0  0
   30.2160   27.0720   24.0820 O   0  0  0  0  0  1  0  0  0  0  0  0
   30.1810   25.0280   22.5510 O   0  0  0  0  0  1  0  0  0  0  0  0
   28.1610   26.5680   22.6730 O   0  0  0  0  0  0  0  0  0  0  0  0
   35.6540   23.5410   16.1770 N   0  0  0  0  0  0  0  0  0  0  0  0
   36.4170   23.0580   15.0410 C   0  0  2  0  0  0  0  0  0  0  0  0
   36.7320   24.2130   14.0900 C   0  0  0  0  0  0  0  0  0  0  0  0
   37.8790   24.3750   13.6740 O   0  0  0  0  0  0  0  0  0  0  0  0
   35.6530   21.9390   14.3000 C   0  0  0  0  0  0  0  0  0  0  0  0
   36.3890   21.5380   13.0190 C   0  0  0  0  0  0  0  0  0  0  0  0
   35.4880   20.7330   15.2150 C   0  0  0  0  0  0  0  0  0  0  0  0
   35.7370   25.0580   13.8130 N   0  0  0  0  0  0  0  0  0  0  0  0
   35.9190   26.1940   12.9060 C   0  0  2  0  0  0  0  0  0  0  0  0
   36.5320   27.4350   13.5410 C   0  0  0  0  0  0  0  0  0  0  0  0
   36.8770   28.3850   12.8410 O   0  0  0  0  0  0  0  0  0  0  0  0
   34.6200   26.5410   12.1690 C   0  0  0  0  0  0  0  0  0  0  0  0
   33.4930   26.9030   13.1050 C   0  0  0  0  0  0  0  0  0  0  0  0
   33.3590   26.3290   14.1910 O   0  0  0  0  0  0  0  0  0  0  0  0
   32.6570   27.8390   12.6850 N   0  0  0  0  0  0  0  0  0  0  0  0
   36.5970   27.4610   14.8670 N   0  0  0  0  0  0  0  0  0  0  0  0
   37.2310   28.5670   15.5840 C   0  0  2  0  0  0  0  0  0  0  0  0
   37.9860   27.9350   16.7640 C   0  0  0  0  0  0  0  0  0  0  0  0
   37.4390   27.7930   17.8660 O   0  0  0  0  0  0  0  0  0  0  0  0
   36.2220   29.6200   16.1120 C   0  0  0  0  0  0  0  0  0  0  0  0
   36.9800   30.8220   16.6570 C   0  0  0  0  0  0  0  0  0  0  0  0
   35.2550   30.0610   15.0140 C   0  0  0  0  0  0  0  0  0  0  0  0
   39.2090   27.4280   16.5070 N   0  0  0  0  0  0  0  0  0  0  0  0
   40.0350   26.8000   17.5410 C   0  0  2  0  0  0  0  0  0  0  0  0
   40.2580   27.7530   18.7190 C   0  0  0  0  0  0  0  0  0  0  0  0
   40.3540   28.9730   18.5360 O   0  0  0  0  0  0  0  0  0  0  0  0
   41.3410   26.5230   16.7960 C   0  0  0  0  0  0  0  0  0  0  0  0
   40.8900   26.2690   15.4100 C   0  0  0  0  0  0  0  0  0  0  0  0
   39.9070   27.3880   15.2070 C   0  0  0  0  0  0  0  0  0  0  0  0
   34.6039   26.8660   24.6007 H   0  0  0  0  0  0  0  0  0  0  0  0
   33.6400   28.1919   23.8662 H   0  0  0  0  0  0  0  0  0  0  0  0
   35.1492   28.5697   24.7642 H   0  0  0  0  0  0  0  0  0  0  0  0
   35.7434   25.7596   23.1982 H   0  0  0  0  0  0  0  0  0  0  0  0
   36.9874   27.1303   20.8594 H   0  0  0  0  0  0  0  0  0  0  0  0
   38.5323   25.2321   20.8051 H   0  0  0  0  0  0  0  0  0  0  0  0
   37.6627   24.4671   22.1782 H   0  0  0  0  0  0  0  0  0  0  0  0
   39.3797   28.6264   22.8134 H   0  0  0  0  0  0  0  0  0  0  0  0
   38.4262   28.0297   21.4128 H   0  0  0  0  0  0  0  0  0  0  0  0
   41.3957   27.4630   21.7133 H   0  0  0  0  0  0  0  0  0  0  0  0
   40.7718   28.9623   20.9455 H   0  0  0  0  0  0  0  0  0  0  0  0
   40.2779   26.1877   19.9639 H   0  0  0  0  0  0  0  0  0  0  0  0
   35.9105   25.5438   19.3411 H   0  0  0  0  0  0  0  0  0  0  0  0
   35.3725   25.9070   19.8780 H   0  0  0  0  0  0  0  0  0  0  0  0
   36.3819   26.4633   18.7028 H   0  0  0  0  0  0  0  0  0  0  0  0
   36.7247   25.0554   19.4837 H   0  0  0  0  0  0  0  0  0  0  0  0
   34.8246   23.9938   18.5971 H   0  0  0  0  0  0  0  0  0  0  0  0
   33.5217   25.1836   16.8652 H   0  0  0  0  0  0  0  0  0  0  0  0
   34.4719   26.6733   17.1888 H   0  0  0  0  0  0  0  0  0  0  0  0
   31.7004   24.5663   18.2998 H   0  0  0  0  0  0  0  0  0  0  0  0
   34.2549   27.7943   19.4296 H   0  0  0  0  0  0  0  0  0  0  0  0
   30.0688   25.2549   20.0298 H   0  0  0  0  0  0  0  0  0  0  0  0
   32.6329   28.4743   21.1693 H   0  0  0  0  0  0  0  0  0  0  0  0
   34.7500   23.1536   16.3580 H   0  0  0  0  0  0  0  0  0  0  0  0
   37.3658   22.6424   15.4112 H   0  0  0  0  0  0  0  0  0  0  0  0
   34.6557   22.3147   14.0277 H   0  0  0  0  0  0  0  0  0  0  0  0
   35.8284   20.7413   12.5082 H   0  0  0  0  0  0  0  0  0  0  0  0
   37.3952   21.1733   13.2731 H   0  0  0  0  0  0  0  0  0  0  0  0
   36.4722   22.4112   12.3553 H   0  0  0  0  0  0  0  0  0  0  0  0
   34.9582   21.0367   16.1299 H   0  0  0  0  0  0  0  0  0  0  0  0
   36.4788   20.3355   15.4800 H   0  0  0  0  0  0  0  0  0  0  0  0
   34.9078   19.9557   14.6962 H   0  0  0  0  0  0  0  0  0  0  0  0
   34.8428   24.9118   14.2361 H   0  0  0  0  0  0  0  0  0  0  0  0
   36.6359   25.8579   12.1424 H   0  0  0  0  0  0  0  0  0  0  0  0
   34.3130   25.6710   11.5700 H   0  0  0  0  0  0  0  0  0  0  0  0
   34.8115   27.3954   11.5033 H   0  0  0  0  0  0  0  0  0  0  0  0
   31.8906   28.1205   13.2624 H   0  0  0  0  0  0  0  0  0  0  0  0
   32.7917   28.2647   11.7902 H   0  0  0  0  0  0  0  0  0  0  0  0
   36.2023   26.7048   15.3889 H   0  0  0  0  0  0  0  0  0  0  0  0
   37.9411   29.0718   14.9125 H   0  0  0  0  0  0  0  0  0  0  0  0
   35.6392   29.1684   16.9283 H   0  0  0  0  0  0  0  0  0  0  0  0
   36.2637   31.5683   17.0312 H   0  0  0  0  0  0  0  0  0  0  0  0
   37.5875   31.2668   15.8551 H   0  0  0  0  0  0  0  0  0  0  0  0
   37.6366   30.4997   17.4786 H   0  0  0  0  0  0  0  0  0  0  0  0
   34.7136   29.1845   14.6285 H   0  0  0  0  0  0  0  0  0  0  0  0
   35.8194   30.5324   14.1959 H   0  0  0  0  0  0  0  0  0  0  0  0
   34.5358   30.7835   15.4272 H   0  0  0  0  0  0  0  0  0  0  0  0
   39.5787   25.8674   17.9043 H   0  0  0  0  0  0  0  0  0  0  0  0
   41.8537   25.6431   17.2118 H   0  0  0  0  0  0  0  0  0  0  0  0
   42.0125   27.3932   16.8394 H   0  0  0  0  0  0  0  0  0  0  0  0
   40.4048   25.2860   15.3187 H   0  0  0  0  0  0  0  0  0  0  0  0
   41.7253   26.3333   14.6971 H   0  0  0  0  0  0  0  0  0  0  0  0
   39.2098   27.1627   14.3866 H   0  0  0  0  0  0  0  0  0  0  0  0
   40.4212   28.3383   15.0008 H   0  0  0  0  0  0  0  0  0  0  0  0
  1  2  2  0  0  0  0
  1  3  1  0  0  0  0
  3 58  1  0  0  0  0
  3 59  1  0  0  0  0
  3 60  1  0  0  0  0
  4  1  1  0  0  0  0
  4 61  1  0  0  0  0
  5  4  1  0  0  0  0
  5 11  1  0  0  0  0
  5 62  1  6  0  0  0
  6  5  1  0  0  0  0
  6 63  1  0  0  0  0
  6 64  1  0  0  0  0
  7  6  1  0  0  0  0
  8  7  1  0  0  0  0
  8 65  1  0  0  0  0
  8 66  1  0  0  0  0
  9  8  1  0  0  0  0
  9 67  1  0  0  0  0
  9 68  1  0  0  0  0
 10  9  1  0  0  0  0
 10 69  1  0  0  0  0
 11 12  2  0  0  0  0
 11 70  1  0  0  0  0
 13 71  1  0  0  0  0
 13 72  1  0  0  0  0
 13 73  1  0  0  0  0
 14 13  1  0  0  0  0
 14 17  1  0  0  0  0
 14 74  1  1  0  0  0
 15 14  1  0  0  0  0
 15 16  2  0  0  0  0
 17 18  1  0  0  0  0
 17 75  1  0  0  0  0
 17 76  1  0  0  0  0
 18 20  2  0  0  0  0
 18 19  1  0  0  0  0
 19 21  2  0  0  0  0
 19 77  1  0  0  0  0
 20 22  1  0  0  0  0
 20 78  1  0  0  0  0
 21 23  1  0  0  0  0
 21 79  1  0  0  0  0
 22 23  2  0  0  0  0
 22 80  1  0  0  0  0
 23 24  1  0  0  0  0
 24 25  1  0  0  0  0
 25 28  2  0  0  0  0
 25 27  1  0  0  0  0
 25 26  1  0  0  0  0
 29 30  1  0  0  0  0
 29 15  1  0  0  0  0
 29 81  1  0  0  0  0
 30 31  1  0  0  0  0
 30 33  1  0  0  0  0
 30 82  1  1  0  0  0
 31 32  2  0  0  0  0
 31 36  1  0  0  0  0
 33 34  1  0  0  0  0
 33 35  1  0  0  0  0
 33 83  1  0  0  0  0
 34 84  1  0  0  0  0
 34 85  1  0  0  0  0
 34 86  1  0  0  0  0
 35 87  1  0  0  0  0
 35 88  1  0  0  0  0
 35 89  1  0  0  0  0
 36 37  1  0  0  0  0
 36 90  1  0  0  0  0
 37 38  1  0  0  0  0
 37 40  1  0  0  0  0
 37 91  1  6  0  0  0
 38 39  2  0  0  0  0
 38 44  1  0  0  0  0
 40 41  1  0  0  0  0
 40 92  1  0  0  0  0
 40 93  1  0  0  0  0
 41 42  2  0  0  0  0
 41 43  1  0  0  0  0
 43 94  1  0  0  0  0
 43 95  1  0  0  0  0
 44 45  1  0  0  0  0
 44 96  1  0  0  0  0
 45 46  1  0  0  0  0
 45 48  1  0  0  0  0
 45 97  1  6  0  0  0
 46 47  2  0  0  0  0
 46 51  1  0  0  0  0
 48 49  1  0  0  0  0
 48 50  1  0  0  0  0
 48 98  1  0  0  0  0
 49 99  1  0  0  0  0
 49100  1  0  0  0  0
 49101  1  0  0  0  0
 50102  1  0  0  0  0
 50103  1  0  0  0  0
 50104  1  0  0  0  0
 51 52  1  0  0  0  0
 51 57  1  0  0  0  0
 52 55  1  0  0  0  0
 52 53  1  0  0  0  0
 52105  1  1  0  0  0
 53 54  2  0  0  0  0
 53 10  1  0  0  0  0
 55106  1  0  0  0  0
 55107  1  0  0  0  0
 56 55  1  0  0  0  0
 56108  1  0  0  0  0
 56109  1  0  0  0  0
 57 56  1  0  0  0  0
 57110  1  0  0  0  0
 57111  1  0  0  0  0
M  CHG  1  13   1
M  END
