1bm6_ligand
 OpenBabel08222323343D

 50 51  0  0  1  0  0  0  0  0999 V2000
   -1.6310    0.7510    0.8530 N   0  0  0  0  0  0  0  0  0  0  0  0
   -2.4850   -0.3800    0.4250 C   0  0  2  0  0  0  0  0  0  0  0  0
   -2.6800   -1.2620    1.6390 C   0  0  0  0  0  0  0  0  0  0  0  0
   -3.1730   -2.6440    1.2100 C   0  0  0  0  0  0  0  0  0  0  0  0
   -3.7090   -0.6140    2.5650 C   0  0  0  0  0  0  0  0  0  0  0  0
   -1.7960   -1.1870   -0.6890 C   0  0  0  0  0  0  0  0  0  0  0  0
   -0.6210   -1.0400   -0.9570 O   0  0  0  0  0  0  0  0  0  0  0  0
   -1.9810   -2.8210   -2.3560 O   0  0  0  0  0  0  0  0  0  0  0  0
   -2.5400   -2.0350   -1.3490 N   0  0  0  0  0  0  0  0  0  0  0  0
   -3.4545   -0.0065    0.0638 H   0  0  0  0  0  0  0  0  0  0  0  0
   -1.7231   -1.3674    2.1711 H   0  0  0  0  0  0  0  0  0  0  0  0
   -3.3113   -3.2763    2.0994 H   0  0  0  0  0  0  0  0  0  0  0  0
   -2.4313   -3.1071    0.5427 H   0  0  0  0  0  0  0  0  0  0  0  0
   -4.1312   -2.5431    0.6794 H   0  0  0  0  0  0  0  0  0  0  0  0
   -3.3515    0.3800    2.8719 H   0  0  0  0  0  0  0  0  0  0  0  0
   -3.8492   -1.2443    3.4556 H   0  0  0  0  0  0  0  0  0  0  0  0
   -4.6668   -0.5113    2.0340 H   0  0  0  0  0  0  0  0  0  0  0  0
   -1.6203   -2.2588   -3.0315 H   0  0  0  0  0  0  0  0  0  0  0  0
   -3.5123   -2.1203   -1.1313 H   0  0  0  0  0  0  0  0  0  0  0  0
   -0.2070    0.3900    1.1270 C   0  0  0  0  0  0  0  0  0  0  0  0
    0.1120    0.7340    2.5600 C   0  0  0  0  0  0  0  0  0  0  0  0
   -0.7440    1.5370    3.2970 C   0  0  0  0  0  0  0  0  0  0  0  0
    1.2730    0.2410    3.1680 C   0  0  0  0  0  0  0  0  0  0  0  0
   -0.4090    1.8190    4.6120 C   0  0  0  0  0  0  0  0  0  0  0  0
    0.7730    1.2850    5.1410 C   0  0  0  0  0  0  0  0  0  0  0  0
    1.6060    0.5080    4.4380 N   0  0  0  0  0  0  0  0  0  0  0  0
    0.4543    0.9560    0.4545 H   0  0  0  0  0  0  0  0  0  0  0  0
   -0.0604   -0.6879    0.9637 H   0  0  0  0  0  0  0  0  0  0  0  0
   -1.6515    1.9340    2.8566 H   0  0  0  0  0  0  0  0  0  0  0  0
    1.9346   -0.3873    2.5827 H   0  0  0  0  0  0  0  0  0  0  0  0
   -1.0519    2.4433    5.2218 H   0  0  0  0  0  0  0  0  0  0  0  0
    1.0256    1.5122    6.1704 H   0  0  0  0  0  0  0  0  0  0  0  0
   -1.8470    2.1640    0.0700 S   0  0  0  0  0  0  0  0  0  0  0  0
   -1.4340    3.1920    0.9660 O   0  0  0  0  0  0  0  0  0  0  0  0
   -3.2030    2.1710   -0.3540 O   0  0  0  0  0  0  0  0  0  0  0  0
   -0.8490    2.1840   -1.3690 C   0  0  0  0  0  0  0  0  0  0  0  0
   -1.4510    1.9840   -2.6060 C   0  0  0  0  0  0  0  0  0  0  0  0
    0.5190    2.4090   -1.2690 C   0  0  0  0  0  0  0  0  0  0  0  0
   -0.6800    2.0170   -3.7660 C   0  0  0  0  0  0  0  0  0  0  0  0
    1.3040    2.4340   -2.4280 C   0  0  0  0  0  0  0  0  0  0  0  0
    0.6990    2.2420   -3.6800 C   0  0  0  0  0  0  0  0  0  0  0  0
    1.4550    2.2850   -4.8300 O   0  0  0  0  0  0  0  0  0  0  0  0
    0.8670    2.9780   -5.9220 C   0  0  0  0  0  0  0  0  0  0  0  0
   -2.5180    1.8028   -2.6679 H   0  0  0  0  0  0  0  0  0  0  0  0
    0.9759    2.5644   -0.2983 H   0  0  0  0  0  0  0  0  0  0  0  0
   -1.1469    1.8688   -4.7330 H   0  0  0  0  0  0  0  0  0  0  0  0
    2.3729    2.6007   -2.3589 H   0  0  0  0  0  0  0  0  0  0  0  0
    1.5504    2.9518   -6.7836 H   0  0  0  0  0  0  0  0  0  0  0  0
    0.6791    4.0231   -5.6347 H   0  0  0  0  0  0  0  0  0  0  0  0
   -0.0837    2.4957   -6.1933 H   0  0  0  0  0  0  0  0  0  0  0  0
  1  2  1  0  0  0  0
  1 20  1  0  0  0  0
  1 33  1  0  0  0  0
  2  3  1  0  0  0  0
  2  6  1  0  0  0  0
  2 10  1  6  0  0  0
  3  4  1  0  0  0  0
  3  5  1  0  0  0  0
  3 11  1  0  0  0  0
  4 12  1  0  0  0  0
  4 13  1  0  0  0  0
  4 14  1  0  0  0  0
  5 15  1  0  0  0  0
  5 16  1  0  0  0  0
  5 17  1  0  0  0  0
  6  7  2  0  0  0  0
  6  9  1  0  0  0  0
  8 18  1  0  0  0  0
  9  8  1  0  0  0  0
  9 19  1  0  0  0  0
 20 21  1  0  0  0  0
 20 27  1  0  0  0  0
 20 28  1  0  0  0  0
 21 22  2  0  0  0  0
 21 23  1  0  0  0  0
 22 24  1  0  0  0  0
 22 29  1  0  0  0  0
 23 26  2  0  0  0  0
 23 30  1  0  0  0  0
 24 25  2  0  0  0  0
 24 31  1  0  0  0  0
 25 26  1  0  0  0  0
 25 32  1  0  0  0  0
 33 34  2  0  0  0  0
 33 35  2  0  0  0  0
 33 36  1  0  0  0  0
 36 37  2  0  0  0  0
 36 38  1  0  0  0  0
 37 39  1  0  0  0  0
 37 44  1  0  0  0  0
 38 40  2  0  0  0  0
 38 45  1  0  0  0  0
 39 41  2  0  0  0  0
 39 46  1  0  0  0  0
 40 41  1  0  0  0  0
 40 47  1  0  0  0  0
 41 42  1  0  0  0  0
 42 43  1  0  0  0  0
 43 48  1  0  0  0  0
 43 49  1  0  0  0  0
 43 50  1  0  0  0  0
M  END
