1bmq_ligand
 OpenBabel08222323343D

 72 74  0  0  1  0  0  0  0  0999 V2000
   34.2130   70.0440   11.3720 C   0  0  0  0  0  0  0  0  0  0  0  0
   34.5360   68.8900   10.5870 C   0  0  0  0  0  0  0  0  0  0  0  0
   35.7850   68.7480    9.8930 C   0  0  0  0  0  0  0  0  0  0  0  0
   36.7550   69.7900    9.9520 C   0  0  0  0  0  0  0  0  0  0  0  0
   36.4610   70.9540   10.7180 C   0  0  0  0  0  0  0  0  0  0  0  0
   35.1640   71.1030   11.4660 C   0  0  0  0  0  0  0  0  0  0  0  0
   34.9430   72.2750   12.2620 C   0  0  0  0  0  0  0  0  0  0  0  0
   35.9560   73.3010   12.3350 C   0  0  0  0  0  0  0  0  0  0  0  0
   37.1990   73.1710   11.6110 C   0  0  0  0  0  0  0  0  0  0  0  0
   37.4430   72.0010   10.8110 C   0  0  0  0  0  0  0  0  0  0  0  0
   33.5470   67.8210   10.4700 C   0  0  0  0  0  0  0  0  0  0  0  0
   32.5810   67.6660   11.2140 O   0  0  0  0  0  0  0  0  0  0  0  0
   33.7680   66.9870    9.4460 N   0  0  0  0  0  0  0  0  0  0  0  0
   32.9160   65.8570    9.1460 C   0  0  2  0  0  0  0  0  0  0  0  0
   33.8450   64.8570    8.4600 C   0  0  0  0  0  0  0  0  0  0  0  0
   34.7280   65.2450    7.6940 O   0  0  0  0  0  0  0  0  0  0  0  0
   31.7930   66.2700    8.1690 C   0  0  0  0  0  0  0  0  0  0  0  0
   30.7730   65.1480    8.0400 C   0  0  0  0  0  0  0  0  0  0  0  0
   31.1220   67.5450    8.6510 C   0  0  0  0  0  0  0  0  0  0  0  0
   33.6690   63.5550    8.7410 N   0  0  0  0  0  0  0  0  0  0  0  0
   34.5310   62.5540    8.1060 C   0  0  2  0  0  0  0  0  0  0  0  0
   34.1510   62.3430    6.6380 C   0  0  0  0  0  0  0  0  0  0  0  0
   32.9680   62.3310    6.2910 O   0  0  0  0  0  0  0  0  0  0  0  0
   34.3050   61.3000    8.9460 C   0  0  0  0  0  0  0  0  0  0  0  0
   32.9250   61.4650    9.4930 C   0  0  0  0  0  0  0  0  0  0  0  0
   32.6900   62.9450    9.6590 C   0  0  0  0  0  0  0  0  0  0  0  0
   35.1990   62.1830    5.7990 N   0  0  0  0  0  0  0  0  0  0  0  0
   35.4540   62.6050    3.3400 C   0  0  0  0  0  0  0  0  0  0  0  0
   34.3940   63.4640    2.6940 C   0  0  0  0  0  0  0  0  0  0  0  0
   33.2020   62.8630    2.3380 N   0  0  0  0  0  0  0  0  0  0  0  0
   34.6210   64.6530    2.4930 O   0  0  0  0  0  0  0  0  0  0  0  0
   34.8940   61.7220    4.4500 C   0  0  1  0  0  0  0  0  0  0  0  0
   31.9200   62.2980    3.3010 S   0  0  0  0  0  0  0  0  0  0  0  0
   31.4050   63.3940    4.0810 O   0  0  0  0  0  0  0  0  0  0  0  0
   32.3220   61.1080    4.0020 O   0  0  0  0  0  0  0  0  0  0  0  0
   30.5750   61.6910    2.2590 C   0  0  0  0  0  0  0  0  0  0  0  0
   34.3580   59.4410    3.8250 O   0  0  0  0  0  0  0  0  0  0  0  0
   35.4060   60.2890    4.2820 C   0  0  0  0  0  0  0  0  0  0  0  0
   33.2612   70.1114   11.8863 H   0  0  0  0  0  0  0  0  0  0  0  0
   35.9899   67.8482    9.3243 H   0  0  0  0  0  0  0  0  0  0  0  0
   37.6976   69.6986    9.4245 H   0  0  0  0  0  0  0  0  0  0  0  0
   34.0145   72.3907   12.8094 H   0  0  0  0  0  0  0  0  0  0  0  0
   35.7812   74.1819   12.9421 H   0  0  0  0  0  0  0  0  0  0  0  0
   37.9465   73.9538   11.6705 H   0  0  0  0  0  0  0  0  0  0  0  0
   38.3785   71.9070   10.2714 H   0  0  0  0  0  0  0  0  0  0  0  0
   34.5609   67.1534    8.8599 H   0  0  0  0  0  0  0  0  0  0  0  0
   32.4812   65.4343   10.0637 H   0  0  0  0  0  0  0  0  0  0  0  0
   32.2366   66.4580    7.1801 H   0  0  0  0  0  0  0  0  0  0  0  0
   29.9788   65.4529    7.3426 H   0  0  0  0  0  0  0  0  0  0  0  0
   30.3337   64.9366    9.0261 H   0  0  0  0  0  0  0  0  0  0  0  0
   31.2691   64.2436    7.6580 H   0  0  0  0  0  0  0  0  0  0  0  0
   31.8729   68.3440    8.7384 H   0  0  0  0  0  0  0  0  0  0  0  0
   30.6597   67.3673    9.6332 H   0  0  0  0  0  0  0  0  0  0  0  0
   30.3476   67.8468    7.9304 H   0  0  0  0  0  0  0  0  0  0  0  0
   35.5851   62.8641    8.1586 H   0  0  0  0  0  0  0  0  0  0  0  0
   35.0420   61.2386    9.7603 H   0  0  0  0  0  0  0  0  0  0  0  0
   34.3713   60.3963    8.3224 H   0  0  0  0  0  0  0  0  0  0  0  0
   32.8411   60.9579   10.4655 H   0  0  0  0  0  0  0  0  0  0  0  0
   32.1886   61.0418    8.7940 H   0  0  0  0  0  0  0  0  0  0  0  0
   31.6625   63.2142    9.3732 H   0  0  0  0  0  0  0  0  0  0  0  0
   32.8760   63.2584   10.6968 H   0  0  0  0  0  0  0  0  0  0  0  0
   36.1371   62.3716    6.0894 H   0  0  0  0  0  0  0  0  0  0  0  0
   36.2273   63.2605    3.7671 H   0  0  0  0  0  0  0  0  0  0  0  0
   35.9036   61.9609    2.5700 H   0  0  0  0  0  0  0  0  0  0  0  0
   33.0723   62.7404    1.3541 H   0  0  0  0  0  0  0  0  0  0  0  0
   33.7993   61.7146    4.3427 H   0  0  0  0  0  0  0  0  0  0  0  0
   29.7535   61.3291    2.8947 H   0  0  0  0  0  0  0  0  0  0  0  0
   30.9420   60.8669    1.6296 H   0  0  0  0  0  0  0  0  0  0  0  0
   30.2104   62.5074    1.6183 H   0  0  0  0  0  0  0  0  0  0  0  0
   33.6495   59.4458    4.4579 H   0  0  0  0  0  0  0  0  0  0  0  0
   35.7756   59.9198    5.2500 H   0  0  0  0  0  0  0  0  0  0  0  0
   36.2259   60.2801    3.5488 H   0  0  0  0  0  0  0  0  0  0  0  0
  1  6  1  0  0  0  0
  1 39  1  0  0  0  0
  2  1  2  0  0  0  0
  2  3  1  0  0  0  0
  3  4  2  0  0  0  0
  3 40  1  0  0  0  0
  4  5  1  0  0  0  0
  4 41  1  0  0  0  0
  5 10  1  0  0  0  0
  6  5  2  0  0  0  0
  6  7  1  0  0  0  0
  7  8  2  0  0  0  0
  7 42  1  0  0  0  0
  8  9  1  0  0  0  0
  8 43  1  0  0  0  0
  9 44  1  0  0  0  0
 10  9  2  0  0  0  0
 10 45  1  0  0  0  0
 11  2  1  0  0  0  0
 11 12  2  0  0  0  0
 13 11  1  0  0  0  0
 13 46  1  0  0  0  0
 14 13  1  0  0  0  0
 14 17  1  0  0  0  0
 14 47  1  1  0  0  0
 15 14  1  0  0  0  0
 15 16  2  0  0  0  0
 17 18  1  0  0  0  0
 17 19  1  0  0  0  0
 17 48  1  0  0  0  0
 18 49  1  0  0  0  0
 18 50  1  0  0  0  0
 18 51  1  0  0  0  0
 19 52  1  0  0  0  0
 19 53  1  0  0  0  0
 19 54  1  0  0  0  0
 20 15  1  0  0  0  0
 20 26  1  0  0  0  0
 21 20  1  0  0  0  0
 21 24  1  0  0  0  0
 21 55  1  1  0  0  0
 22 21  1  0  0  0  0
 22 23  2  0  0  0  0
 24 25  1  0  0  0  0
 24 56  1  0  0  0  0
 24 57  1  0  0  0  0
 25 26  1  0  0  0  0
 25 58  1  0  0  0  0
 25 59  1  0  0  0  0
 26 60  1  0  0  0  0
 26 61  1  0  0  0  0
 27 22  1  0  0  0  0
 27 62  1  0  0  0  0
 28 29  1  0  0  0  0
 28 32  1  0  0  0  0
 28 63  1  0  0  0  0
 28 64  1  0  0  0  0
 29 30  1  0  0  0  0
 29 31  2  0  0  0  0
 30 33  1  0  0  0  0
 30 65  1  0  0  0  0
 32 27  1  0  0  0  0
 32 38  1  0  0  0  0
 32 66  1  6  0  0  0
 33 34  2  0  0  0  0
 33 35  2  0  0  0  0
 33 36  1  0  0  0  0
 36 67  1  0  0  0  0
 36 68  1  0  0  0  0
 36 69  1  0  0  0  0
 37 70  1  0  0  0  0
 38 37  1  0  0  0  0
 38 71  1  0  0  0  0
 38 72  1  0  0  0  0
M  END
