1bnm_ligand
 OpenBabel08222323343D

 43 45  0  0  1  0  0  0  0  0999 V2000
   -5.4000    1.9440   15.9240 C   0  0  0  0  0  0  0  0  0  0  0  0
   -2.4630    4.8670   13.9500 C   0  0  0  0  0  0  0  0  0  0  0  0
   -2.8930    3.4230   13.6810 C   0  0  1  0  0  0  0  0  0  0  0  0
   -1.7410    2.8760   12.0540 C   0  0  0  0  0  0  0  0  0  0  0  0
   -2.7850    9.0350   12.1510 C   0  0  0  0  0  0  0  0  0  0  0  0
   -2.0570    9.6170   13.1770 C   0  0  0  0  0  0  0  0  0  0  0  0
   -1.8380    8.8910   14.3630 C   0  0  0  0  0  0  0  0  0  0  0  0
   -2.3290    7.6200   14.5370 C   0  0  0  0  0  0  0  0  0  0  0  0
   -0.6130   10.6880   15.2670 C   0  0  0  0  0  0  0  0  0  0  0  0
   -5.5380   -0.6170   16.2430 N   0  0  0  0  0  0  0  0  0  0  0  0
   -5.9500    0.6570   16.8730 S   0  0  0  0  0  0  0  0  0  0  0  0
   -5.3910    0.7990   18.1650 O   0  0  0  0  0  0  0  0  0  0  0  0
   -7.3510    0.9550   16.9350 O   0  0  0  0  0  0  0  0  0  0  0  0
   -6.2800    3.4070   15.8760 S   0  0  0  0  0  0  0  0  0  0  0  0
   -5.0780    4.0110   14.8260 C   0  0  0  0  0  0  0  0  0  0  0  0
   -4.0830    3.0570   14.5530 C   0  0  0  0  0  0  0  0  0  0  0  0
   -4.2700    1.8750   15.1870 C   0  0  0  0  0  0  0  0  0  0  0  0
   -3.5320    5.8130   13.6450 N   0  0  0  0  0  0  0  0  0  0  0  0
   -4.9100    5.6420   14.3140 S   0  0  0  0  0  0  0  0  0  0  0  0
   -6.1270    6.0410   13.5250 O   0  0  0  0  0  0  0  0  0  0  0  0
   -4.9680    6.5100   15.5190 O   0  0  0  0  0  0  0  0  0  0  0  0
   -3.1500    3.2010   12.2660 N   0  3  0  0  0  0  0  0  0  0  0  0
   -3.0530    7.0560   13.5040 C   0  0  0  0  0  0  0  0  0  0  0  0
   -3.2870    7.7480   12.3110 C   0  0  0  0  0  0  0  0  0  0  0  0
   -1.1630    9.3500   15.3770 O   0  0  0  0  0  0  0  0  0  0  0  0
   -1.5896    5.1017   13.3238 H   0  0  0  0  0  0  0  0  0  0  0  0
   -2.1908    4.9664   15.0111 H   0  0  0  0  0  0  0  0  0  0  0  0
   -2.0585    2.7664   13.9681 H   0  0  0  0  0  0  0  0  0  0  0  0
   -1.5754    2.6373   10.9930 H   0  0  0  0  0  0  0  0  0  0  0  0
   -1.4679    2.0080   12.6720 H   0  0  0  0  0  0  0  0  0  0  0  0
   -1.1192    3.7380   12.3373 H   0  0  0  0  0  0  0  0  0  0  0  0
   -2.9618    9.5793   11.2303 H   0  0  0  0  0  0  0  0  0  0  0  0
   -1.6607   10.6200   13.0673 H   0  0  0  0  0  0  0  0  0  0  0  0
   -2.1536    7.0754   15.4577 H   0  0  0  0  0  0  0  0  0  0  0  0
   -0.0726   10.9394   16.1915 H   0  0  0  0  0  0  0  0  0  0  0  0
   -1.4296   11.4085   15.1122 H   0  0  0  0  0  0  0  0  0  0  0  0
    0.0802   10.7305   14.4140 H   0  0  0  0  0  0  0  0  0  0  0  0
   -5.7798   -1.4877   16.6712 H   0  0  0  0  0  0  0  0  0  0  0  0
   -5.0178   -0.6072   15.3890 H   0  0  0  0  0  0  0  0  0  0  0  0
   -3.6147    1.0082   15.1144 H   0  0  0  0  0  0  0  0  0  0  0  0
   -3.4607    4.0225   11.7713 H   0  0  0  0  0  0  0  0  0  0  0  0
   -3.7803    2.4371   12.0781 H   0  0  0  0  0  0  0  0  0  0  0  0
   -3.8571    7.2831   11.5148 H   0  0  0  0  0  0  0  0  0  0  0  0
  1 11  1  0  0  0  0
  2  3  1  0  0  0  0
  2 26  1  0  0  0  0
  2 27  1  0  0  0  0
  3 16  1  0  0  0  0
  3 22  1  0  0  0  0
  3 28  1  1  0  0  0
  4 29  1  0  0  0  0
  4 30  1  0  0  0  0
  4 31  1  0  0  0  0
  5 24  1  0  0  0  0
  5 32  1  0  0  0  0
  6  5  2  0  0  0  0
  6 33  1  0  0  0  0
  7  6  1  0  0  0  0
  7 25  1  0  0  0  0
  8  7  2  0  0  0  0
  8 34  1  0  0  0  0
  9 35  1  0  0  0  0
  9 36  1  0  0  0  0
  9 37  1  0  0  0  0
 10 38  1  0  0  0  0
 10 39  1  0  0  0  0
 11 10  1  0  0  0  0
 11 12  2  0  0  0  0
 11 13  2  0  0  0  0
 14  1  1  0  0  0  0
 15 14  1  0  0  0  0
 15 16  2  0  0  0  0
 16 17  1  0  0  0  0
 17  1  2  0  0  0  0
 17 40  1  0  0  0  0
 18  2  1  0  0  0  0
 18 19  1  0  0  0  0
 18 23  1  0  0  0  0
 19 15  1  0  0  0  0
 19 20  2  0  0  0  0
 19 21  2  0  0  0  0
 22  4  1  0  0  0  0
 22 41  1  0  0  0  0
 22 42  1  0  0  0  0
 23  8  1  0  0  0  0
 23 24  2  0  0  0  0
 24 43  1  0  0  0  0
 25  9  1  0  0  0  0
M  CHG  1  22   1
M  END
