1bqm_ligand
 OpenBabel08222323343D

 42 43  0  0  1  0  0  0  0  0999 V2000
  143.3080  -26.7940   71.7780 C   0  0  2  0  0  0  0  0  0  0  0  0
  142.2270  -27.6930   70.8790 C   0  0  0  0  0  0  0  0  0  0  0  0
  141.9390  -29.2540   72.8390 C   0  0  0  0  0  0  0  0  0  0  0  0
  143.0130  -28.5030   73.6420 C   0  0  0  0  0  0  0  0  0  0  0  0
  143.6540  -29.1090   74.7660 C   0  0  0  0  0  0  0  0  0  0  0  0
  143.3430  -30.4270   75.1680 C   0  0  0  0  0  0  0  0  0  0  0  0
  142.1390  -31.1500   74.5210 C   0  0  0  0  0  0  0  0  0  0  0  0
  141.3980  -30.4820   73.3910 C   0  0  0  0  0  0  0  0  0  0  0  0
  144.0780  -26.0980   74.2440 C   0  0  0  0  0  0  0  0  0  0  0  0
  144.0830  -25.6040   76.7710 C   0  0  0  0  0  0  0  0  0  0  0  0
  145.2930  -24.8540   77.3910 C   0  0  0  0  0  0  0  0  0  0  0  0
  142.9760  -24.6160   76.2600 C   0  0  0  0  0  0  0  0  0  0  0  0
  144.7870  -26.7570   71.1570 C   0  0  0  0  0  0  0  0  0  0  0  0
  147.3120  -27.9380   70.9790 C   0  0  0  0  0  0  0  0  0  0  0  0
  143.8060  -32.2590   77.0390 C   0  0  0  0  0  0  0  0  0  0  0  0
  143.3390  -27.1230   73.3180 N   0  0  0  0  0  0  0  0  0  0  0  0
  141.4890  -28.7400   71.5500 N   0  0  0  0  0  0  0  0  0  0  0  0
  144.3020  -24.8810   73.8050 O   0  0  0  0  0  0  0  0  0  0  0  0
  144.4690  -26.5310   75.5540 O   0  0  0  0  0  0  0  0  0  0  0  0
  144.2650  -31.0640   76.2330 O   0  0  0  0  0  0  0  0  0  0  0  0
  141.9050  -27.1290   69.1770 S   0  0  0  0  0  0  0  0  0  0  0  0
  145.9590  -27.7730   72.2290 S   0  0  0  0  0  0  0  0  0  0  0  0
  142.9358  -25.7610   71.7120 H   0  0  0  0  0  0  0  0  0  0  0  0
  144.3946  -28.5455   75.3220 H   0  0  0  0  0  0  0  0  0  0  0  0
  141.8311  -32.1268   74.8762 H   0  0  0  0  0  0  0  0  0  0  0  0
  140.4818  -30.9093   72.9997 H   0  0  0  0  0  0  0  0  0  0  0  0
  143.6510  -26.2355   77.5613 H   0  0  0  0  0  0  0  0  0  0  0  0
  144.9478  -24.2311   78.2293 H   0  0  0  0  0  0  0  0  0  0  0  0
  145.7589  -24.2146   76.6267 H   0  0  0  0  0  0  0  0  0  0  0  0
  146.0294  -25.5849   77.7563 H   0  0  0  0  0  0  0  0  0  0  0  0
  142.1418  -25.1903   75.8307 H   0  0  0  0  0  0  0  0  0  0  0  0
  143.4011  -23.9555   75.4899 H   0  0  0  0  0  0  0  0  0  0  0  0
  142.6090  -24.0097   77.1012 H   0  0  0  0  0  0  0  0  0  0  0  0
  145.1397  -25.7159   71.1168 H   0  0  0  0  0  0  0  0  0  0  0  0
  144.7663  -27.1767   70.1404 H   0  0  0  0  0  0  0  0  0  0  0  0
  148.1389  -28.5225   71.4087 H   0  0  0  0  0  0  0  0  0  0  0  0
  147.6763  -26.9386   70.6989 H   0  0  0  0  0  0  0  0  0  0  0  0
  146.9257  -28.4511   70.0860 H   0  0  0  0  0  0  0  0  0  0  0  0
  144.6019  -32.5582   77.7368 H   0  0  0  0  0  0  0  0  0  0  0  0
  143.5806  -33.0945   76.3600 H   0  0  0  0  0  0  0  0  0  0  0  0
  142.9018  -31.9933   77.6063 H   0  0  0  0  0  0  0  0  0  0  0  0
  140.6638  -29.1146   71.1272 H   0  0  0  0  0  0  0  0  0  0  0  0
  1  2  1  0  0  0  0
  1 13  1  0  0  0  0
  1 23  1  6  0  0  0
  2 17  1  0  0  0  0
  2 21  2  0  0  0  0
  3  8  1  0  0  0  0
  3 17  1  0  0  0  0
  4  3  2  0  0  0  0
  4  5  1  0  0  0  0
  5  6  2  0  0  0  0
  5 24  1  0  0  0  0
  6  7  1  0  0  0  0
  6 20  1  0  0  0  0
  7 25  1  0  0  0  0
  8  7  2  0  0  0  0
  8 26  1  0  0  0  0
  9 16  1  0  0  0  0
  9 18  2  0  0  0  0
 10 11  1  0  0  0  0
 10 12  1  0  0  0  0
 10 19  1  0  0  0  0
 10 27  1  0  0  0  0
 11 28  1  0  0  0  0
 11 29  1  0  0  0  0
 11 30  1  0  0  0  0
 12 31  1  0  0  0  0
 12 32  1  0  0  0  0
 12 33  1  0  0  0  0
 13 22  1  0  0  0  0
 13 34  1  0  0  0  0
 13 35  1  0  0  0  0
 14 36  1  0  0  0  0
 14 37  1  0  0  0  0
 14 38  1  0  0  0  0
 15 39  1  0  0  0  0
 15 40  1  0  0  0  0
 15 41  1  0  0  0  0
 16  1  1  0  0  0  0
 16  4  1  0  0  0  0
 17 42  1  0  0  0  0
 19  9  1  0  0  0  0
 20 15  1  0  0  0  0
 22 14  1  0  0  0  0
M  END
