1bqn_ligand
 OpenBabel08222323343D

 42 43  0  0  1  0  0  0  0  0999 V2000
  143.9560  -27.3820   72.1070 C   0  0  2  0  0  0  0  0  0  0  0  0
  142.5410  -27.8860   71.4070 C   0  0  0  0  0  0  0  0  0  0  0  0
  142.3180  -29.5460   73.2470 C   0  0  0  0  0  0  0  0  0  0  0  0
  143.4460  -28.9490   74.0060 C   0  0  0  0  0  0  0  0  0  0  0  0
  143.9620  -29.6270   75.1350 C   0  0  0  0  0  0  0  0  0  0  0  0
  143.3740  -30.8700   75.5670 C   0  0  0  0  0  0  0  0  0  0  0  0
  142.2430  -31.4130   74.8510 C   0  0  0  0  0  0  0  0  0  0  0  0
  141.7250  -30.7420   73.6910 C   0  0  0  0  0  0  0  0  0  0  0  0
  145.0120  -26.8940   74.4610 C   0  0  0  0  0  0  0  0  0  0  0  0
  144.6230  -25.9730   76.8710 C   0  0  0  0  0  0  0  0  0  0  0  0
  145.6770  -24.8610   76.8150 C   0  0  0  0  0  0  0  0  0  0  0  0
  143.2270  -25.4470   76.5330 C   0  0  0  0  0  0  0  0  0  0  0  0
  145.2460  -27.9690   71.4050 C   0  0  0  0  0  0  0  0  0  0  0  0
  147.8000  -29.1520   71.6900 C   0  0  0  0  0  0  0  0  0  0  0  0
  143.3650  -32.9040   77.1590 C   0  0  0  0  0  0  0  0  0  0  0  0
  144.0030  -27.6550   73.6310 N   0  0  0  0  0  0  0  0  0  0  0  0
  141.8150  -28.9190   72.0630 N   0  0  0  0  0  0  0  0  0  0  0  0
  145.8580  -26.1200   73.8770 O   0  0  0  0  0  0  0  0  0  0  0  0
  144.9670  -27.1170   75.8890 O   0  0  0  0  0  0  0  0  0  0  0  0
  143.9250  -31.5960   76.7300 O   0  0  0  0  0  0  0  0  0  0  0  0
  142.0210  -27.1610   69.8910 S   0  0  0  0  0  0  0  0  0  0  0  0
  146.5300  -28.4160   72.7410 S   0  0  0  0  0  0  0  0  0  0  0  0
  143.9927  -26.2903   71.9769 H   0  0  0  0  0  0  0  0  0  0  0  0
  144.8029  -29.2102   75.6774 H   0  0  0  0  0  0  0  0  0  0  0  0
  141.7819  -32.3331   75.1913 H   0  0  0  0  0  0  0  0  0  0  0  0
  140.8773  -31.1572   73.1580 H   0  0  0  0  0  0  0  0  0  0  0  0
  144.6076  -26.3780   77.8936 H   0  0  0  0  0  0  0  0  0  0  0  0
  145.4062  -24.0632   77.5223 H   0  0  0  0  0  0  0  0  0  0  0  0
  145.7210  -24.4484   75.7963 H   0  0  0  0  0  0  0  0  0  0  0  0
  146.6600  -25.2735   77.0863 H   0  0  0  0  0  0  0  0  0  0  0  0
  142.5019  -26.2726   76.5840 H   0  0  0  0  0  0  0  0  0  0  0  0
  143.2304  -25.0242   75.5175 H   0  0  0  0  0  0  0  0  0  0  0  0
  142.9448  -24.6660   77.2544 H   0  0  0  0  0  0  0  0  0  0  0  0
  145.6696  -27.2167   70.7234 H   0  0  0  0  0  0  0  0  0  0  0  0
  144.9777  -28.8707   70.8349 H   0  0  0  0  0  0  0  0  0  0  0  0
  148.6465  -29.4787   72.3119 H   0  0  0  0  0  0  0  0  0  0  0  0
  148.1480  -28.4072   70.9591 H   0  0  0  0  0  0  0  0  0  0  0  0
  147.3794  -30.0185   71.1587 H   0  0  0  0  0  0  0  0  0  0  0  0
  143.9167  -33.2684   78.0381 H   0  0  0  0  0  0  0  0  0  0  0  0
  143.4609  -33.6307   76.3388 H   0  0  0  0  0  0  0  0  0  0  0  0
  142.3030  -32.7811   77.4178 H   0  0  0  0  0  0  0  0  0  0  0  0
  140.9353  -29.2129   71.6891 H   0  0  0  0  0  0  0  0  0  0  0  0
  1  2  1  0  0  0  0
  1 13  1  0  0  0  0
  1 23  1  6  0  0  0
  2 17  1  0  0  0  0
  2 21  2  0  0  0  0
  3  8  1  0  0  0  0
  3 17  1  0  0  0  0
  4  3  2  0  0  0  0
  4  5  1  0  0  0  0
  5  6  2  0  0  0  0
  5 24  1  0  0  0  0
  6  7  1  0  0  0  0
  6 20  1  0  0  0  0
  7 25  1  0  0  0  0
  8  7  2  0  0  0  0
  8 26  1  0  0  0  0
  9 16  1  0  0  0  0
  9 18  2  0  0  0  0
 10 11  1  0  0  0  0
 10 12  1  0  0  0  0
 10 19  1  0  0  0  0
 10 27  1  0  0  0  0
 11 28  1  0  0  0  0
 11 29  1  0  0  0  0
 11 30  1  0  0  0  0
 12 31  1  0  0  0  0
 12 32  1  0  0  0  0
 12 33  1  0  0  0  0
 13 22  1  0  0  0  0
 13 34  1  0  0  0  0
 13 35  1  0  0  0  0
 14 36  1  0  0  0  0
 14 37  1  0  0  0  0
 14 38  1  0  0  0  0
 15 39  1  0  0  0  0
 15 40  1  0  0  0  0
 15 41  1  0  0  0  0
 16  1  1  0  0  0  0
 16  4  1  0  0  0  0
 17 42  1  0  0  0  0
 19  9  1  0  0  0  0
 20 15  1  0  0  0  0
 22 14  1  0  0  0  0
M  END
