1br8_ligand
 OpenBabel08222323343D

155154  0  0  1  0  0  0  0  0999 V2000
   31.2460    9.5370   86.9010 N   0  3  0  0  0  0  0  0  0  0  0  0
   30.0790    9.3290   86.0410 C   0  0  2  0  0  0  0  0  0  0  0  0
   29.2540   10.6170   85.8580 C   0  0  0  0  0  0  0  0  0  0  0  0
   28.6810   11.1420   86.8130 O   0  0  0  0  0  0  0  0  0  0  0  0
   29.2040    8.2080   86.6080 C   0  0  0  0  0  0  0  0  0  0  0  0
   28.1610    7.8700   85.7190 O   0  0  0  0  0  0  0  0  0  0  0  0
   29.1700   11.0870   84.6150 N   0  0  0  0  0  0  0  0  0  0  0  0
   28.4420   12.3170   84.2860 C   0  0  2  0  0  0  0  0  0  0  0  0
   27.6410   12.1320   83.0300 C   0  0  0  0  0  0  0  0  0  0  0  0
   28.1660   11.6550   82.0180 O   0  0  0  0  0  0  0  0  0  0  0  0
   29.4210   13.4500   84.0500 C   0  0  0  0  0  0  0  0  0  0  0  0
   28.8240   14.6120   83.2720 C   0  0  0  0  0  0  0  0  0  0  0  0
   29.8460   15.7100   82.9890 C   0  0  0  0  0  0  0  0  0  0  0  0
   31.0650   15.4280   83.1050 O   0  5  0  0  0  0  0  0  0  0  0  0
   29.4300   16.8820   82.7980 O   0  0  0  0  0  0  0  0  0  0  0  0
   26.3790   12.5490   83.0740 N   0  0  0  0  0  0  0  0  0  0  0  0
   25.4760   12.3740   81.9470 C   0  0  2  0  0  0  0  0  0  0  0  0
   24.4420   13.4650   81.8450 C   0  0  0  0  0  0  0  0  0  0  0  0
   24.1440   14.1610   82.8120 O   0  0  0  0  0  0  0  0  0  0  0  0
   24.7830   11.0100   82.0460 C   0  0  0  0  0  0  0  0  0  0  0  0
   23.8770   13.5970   80.6600 N   0  0  0  0  0  0  0  0  0  0  0  0
   22.8860   14.6170   80.4040 C   0  0  2  0  0  0  0  0  0  0  0  0
   22.1380   14.2850   79.1290 C   0  0  0  0  0  0  0  0  0  0  0  0
   22.6010   13.4840   78.3090 O   0  0  0  0  0  0  0  0  0  0  0  0
   23.5660   15.9770   80.2790 C   0  0  0  0  0  0  0  0  0  0  0  0
   20.9810   14.9000   78.9580 N   0  0  0  0  0  0  0  0  0  0  0  0
   20.1850   14.6650   77.7810 C   0  0  2  0  0  0  0  0  0  0  0  0
   19.0790   15.7000   77.6680 C   0  0  0  0  0  0  0  0  0  0  0  0
   18.7170   16.3590   78.6490 O   0  0  0  0  0  0  0  0  0  0  0  0
   19.6080   13.2590   77.8070 C   0  0  0  0  0  0  0  0  0  0  0  0
   18.5490   15.8450   76.4610 N   0  0  0  0  0  0  0  0  0  0  0  0
   17.4760   16.7840   76.2140 C   0  0  2  0  0  0  0  0  0  0  0  0
   16.4970   16.1890   75.2160 C   0  0  0  0  0  0  0  0  0  0  0  0
   16.8620   15.3480   74.3940 O   0  0  0  0  0  0  0  0  0  0  0  0
   18.0220   18.1020   75.6780 C   0  0  0  0  0  0  0  0  0  0  0  0
   16.9680   19.0290   75.4720 O   0  0  0  0  0  0  0  0  0  0  0  0
   15.2570   16.6530   75.2720 N   0  0  0  0  0  0  0  0  0  0  0  0
   14.2200   16.1780   74.3710 C   0  0  2  0  0  0  0  0  0  0  0  0
   13.3620   17.3520   73.9110 C   0  0  0  0  0  0  0  0  0  0  0  0
   12.6400   17.9720   74.6990 O   0  0  0  0  0  0  0  0  0  0  0  0
   13.3460   15.1430   75.0500 C   0  0  2  0  0  0  0  0  0  0  0  0
   14.1550   14.0360   75.4610 O   0  0  0  0  0  0  0  0  0  0  0  0
   12.2620   14.6560   74.1080 C   0  0  0  0  0  0  0  0  0  0  0  0
   13.4970   17.6890   72.6370 N   0  0  0  0  0  0  0  0  0  0  0  0
   12.7610   18.7910   72.0600 C   0  0  2  0  0  0  0  0  0  0  0  0
   11.5900   18.2700   71.2690 C   0  0  0  0  0  0  0  0  0  0  0  0
   11.6960   17.2370   70.6210 O   0  0  0  0  0  0  0  0  0  0  0  0
   13.6650   19.6040   71.1610 C   0  0  0  0  0  0  0  0  0  0  0  0
   10.4980   19.0310   71.2680 N   0  0  0  0  0  0  0  0  0  0  0  0
    9.2910   18.6720   70.5220 C   0  0  2  0  0  0  0  0  0  0  0  0
    8.7620   19.8960   69.7570 C   0  0  0  0  0  0  0  0  0  0  0  0
    8.1540   20.7900   70.3480 O   0  0  0  0  0  0  0  0  0  0  0  0
    8.1780   18.1370   71.4670 C   0  0  0  0  0  0  0  0  0  0  0  0
    6.8210   18.2550   70.8140 C   0  0  0  0  0  0  0  0  0  0  0  0
    8.4470   16.6940   71.8540 C   0  0  0  0  0  0  0  0  0  0  0  0
    9.0060   19.9330   68.4440 N   0  0  0  0  0  0  0  0  0  0  0  0
    8.5490   21.0540   67.6130 C   0  0  2  0  0  0  0  0  0  0  0  0
    7.1090   20.8600   67.1090 C   0  0  0  0  0  0  0  0  0  0  0  0
    6.7870   19.8300   66.5030 O   0  0  0  0  0  0  0  0  0  0  0  0
    9.5020   21.3210   66.4200 C   0  0  0  0  0  0  0  0  0  0  0  0
   10.9510   21.2270   66.8590 C   0  0  0  0  0  0  0  0  0  0  0  0
    9.2150   20.3760   65.2740 C   0  0  0  0  0  0  0  0  0  0  0  0
    6.2510   21.8440   67.3940 N   0  0  0  0  0  0  0  0  0  0  0  0
    4.8320   21.8210   66.9850 C   0  0  2  0  0  0  0  0  0  0  0  0
    4.5420   22.8200   65.8440 C   0  0  0  0  0  0  0  0  0  0  0  0
    5.1280   23.9070   65.8050 O   0  0  0  0  0  0  0  0  0  0  0  0
    3.8930   22.0390   68.1760 C   0  0  2  0  0  0  0  0  0  0  0  0
    3.9230   20.8150   69.1000 C   0  0  0  0  0  0  0  0  0  0  0  0
    2.4770   22.3260   67.6980 C   0  0  0  0  0  0  0  0  0  0  0  0
    3.0700   20.9610   70.3430 C   0  0  0  0  0  0  0  0  0  0  0  0
    3.6350   22.4600   64.9300 N   0  0  0  0  0  0  0  0  0  0  0  0
    3.3700   23.3020   63.7610 C   0  0  2  0  0  0  0  0  0  0  0  0
    1.9140   23.6020   63.4420 C   0  0  0  0  0  0  0  0  0  0  0  0
    1.6048   24.6653   62.8409 O   0  5  0  0  0  0  0  0  0  0  0  0
    4.0500   22.6880   62.5350 C   0  0  0  0  0  0  0  0  0  0  0  0
    1.0109   22.7357   63.5882 O   0  0  0  0  0  0  0  0  0  0  0  0
   31.2619   10.4929   87.2205 H   0  0  0  0  0  0  0  0  0  0  0  0
   30.4401    9.0167   85.0500 H   0  0  0  0  0  0  0  0  0  0  0  0
   28.7679    8.5415   87.5612 H   0  0  0  0  0  0  0  0  0  0  0  0
   29.8286    7.3193   86.7816 H   0  0  0  0  0  0  0  0  0  0  0  0
   27.6370    7.1738   86.0975 H   0  0  0  0  0  0  0  0  0  0  0  0
   29.6201   10.5825   83.8782 H   0  0  0  0  0  0  0  0  0  0  0  0
   27.7702   12.5738   85.1183 H   0  0  0  0  0  0  0  0  0  0  0  0
   31.1922    8.9109   87.7044 H   0  0  0  0  0  0  0  0  0  0  0  0
   30.2795   13.0571   83.4856 H   0  0  0  0  0  0  0  0  0  0  0  0
   29.7639   13.8235   85.0262 H   0  0  0  0  0  0  0  0  0  0  0  0
   27.9975   15.0413   83.8573 H   0  0  0  0  0  0  0  0  0  0  0  0
   28.4373   14.2341   82.3141 H   0  0  0  0  0  0  0  0  0  0  0  0
   26.0420   12.9945   83.9034 H   0  0  0  0  0  0  0  0  0  0  0  0
   26.0780   12.3935   81.0266 H   0  0  0  0  0  0  0  0  0  0  0  0
   24.2102   10.9570   82.9836 H   0  0  0  0  0  0  0  0  0  0  0  0
   25.5402   10.2122   82.0334 H   0  0  0  0  0  0  0  0  0  0  0  0
   24.1015   10.8821   81.1921 H   0  0  0  0  0  0  0  0  0  0  0  0
   24.1408   12.9765   79.9215 H   0  0  0  0  0  0  0  0  0  0  0  0
   22.1736   14.6476   81.2416 H   0  0  0  0  0  0  0  0  0  0  0  0
   24.2859   15.9519   79.4477 H   0  0  0  0  0  0  0  0  0  0  0  0
   24.0948   16.2100   81.2150 H   0  0  0  0  0  0  0  0  0  0  0  0
   22.8077   16.7496   80.0843 H   0  0  0  0  0  0  0  0  0  0  0  0
   20.6536   15.5374   79.6555 H   0  0  0  0  0  0  0  0  0  0  0  0
   20.8350   14.7565   76.8983 H   0  0  0  0  0  0  0  0  0  0  0  0
   18.9751   13.1389   78.6986 H   0  0  0  0  0  0  0  0  0  0  0  0
   20.4281   12.5266   77.8381 H   0  0  0  0  0  0  0  0  0  0  0  0
   19.0032   13.0940   76.9031 H   0  0  0  0  0  0  0  0  0  0  0  0
   18.8989   15.2928   75.7042 H   0  0  0  0  0  0  0  0  0  0  0  0
   16.9496   16.9777   77.1602 H   0  0  0  0  0  0  0  0  0  0  0  0
   18.5354   17.9194   74.7225 H   0  0  0  0  0  0  0  0  0  0  0  0
   18.7354   18.5202   76.4034 H   0  0  0  0  0  0  0  0  0  0  0  0
   16.5242   19.1905   76.2963 H   0  0  0  0  0  0  0  0  0  0  0  0
   15.0284   17.3490   75.9527 H   0  0  0  0  0  0  0  0  0  0  0  0
   14.6973   15.7175   73.4935 H   0  0  0  0  0  0  0  0  0  0  0  0
   12.8746   15.5962   75.9345 H   0  0  0  0  0  0  0  0  0  0  0  0
   14.8334   14.3428   76.0510 H   0  0  0  0  0  0  0  0  0  0  0  0
   12.1113   13.5756   74.2497 H   0  0  0  0  0  0  0  0  0  0  0  0
   12.5648   14.8507   73.0686 H   0  0  0  0  0  0  0  0  0  0  0  0
   11.3236   15.1884   74.3223 H   0  0  0  0  0  0  0  0  0  0  0  0
   14.1247   17.1672   72.0593 H   0  0  0  0  0  0  0  0  0  0  0  0
   12.3882   19.4350   72.8701 H   0  0  0  0  0  0  0  0  0  0  0  0
   14.0503   18.9643   70.3533 H   0  0  0  0  0  0  0  0  0  0  0  0
   14.5066   19.9997   71.7484 H   0  0  0  0  0  0  0  0  0  0  0  0
   13.0958   20.4394   70.7273 H   0  0  0  0  0  0  0  0  0  0  0  0
   10.5024   19.8798   71.7967 H   0  0  0  0  0  0  0  0  0  0  0  0
    9.5484   17.8834   69.7996 H   0  0  0  0  0  0  0  0  0  0  0  0
    8.1783   18.7480   72.3817 H   0  0  0  0  0  0  0  0  0  0  0  0
    6.6108   19.3120   70.5937 H   0  0  0  0  0  0  0  0  0  0  0  0
    6.0512   17.8622   71.4945 H   0  0  0  0  0  0  0  0  0  0  0  0
    6.8128   17.6768   69.8783 H   0  0  0  0  0  0  0  0  0  0  0  0
    8.4629   16.0686   70.9492 H   0  0  0  0  0  0  0  0  0  0  0  0
    7.6536   16.3415   72.5294 H   0  0  0  0  0  0  0  0  0  0  0  0
    9.4194   16.6262   72.3638 H   0  0  0  0  0  0  0  0  0  0  0  0
    9.5103   19.1817   68.0183 H   0  0  0  0  0  0  0  0  0  0  0  0
    8.5569   21.9513   68.2493 H   0  0  0  0  0  0  0  0  0  0  0  0
    9.3218   22.3464   66.0649 H   0  0  0  0  0  0  0  0  0  0  0  0
   11.1483   21.9803   67.6359 H   0  0  0  0  0  0  0  0  0  0  0  0
   11.6082   21.4095   65.9960 H   0  0  0  0  0  0  0  0  0  0  0  0
   11.1472   20.2231   67.2635 H   0  0  0  0  0  0  0  0  0  0  0  0
    9.3642   19.3386   65.6080 H   0  0  0  0  0  0  0  0  0  0  0  0
    9.8973   20.5941   64.4392 H   0  0  0  0  0  0  0  0  0  0  0  0
    8.1748   20.5081   64.9414 H   0  0  0  0  0  0  0  0  0  0  0  0
    6.5856   22.6334   67.9086 H   0  0  0  0  0  0  0  0  0  0  0  0
    4.6270   20.8143   66.5919 H   0  0  0  0  0  0  0  0  0  0  0  0
    4.2484   22.9113   68.7442 H   0  0  0  0  0  0  0  0  0  0  0  0
    4.9635   20.6430   69.4127 H   0  0  0  0  0  0  0  0  0  0  0  0
    3.5619   19.9444   68.5329 H   0  0  0  0  0  0  0  0  0  0  0  0
    2.4754   23.2380   67.0830 H   0  0  0  0  0  0  0  0  0  0  0  0
    1.8184   22.4690   68.5674 H   0  0  0  0  0  0  0  0  0  0  0  0
    2.1136   21.4786   67.0982 H   0  0  0  0  0  0  0  0  0  0  0  0
    3.4298   21.8145   70.9364 H   0  0  0  0  0  0  0  0  0  0  0  0
    3.1374   20.0422   70.9440 H   0  0  0  0  0  0  0  0  0  0  0  0
    2.0233   21.1324   70.0514 H   0  0  0  0  0  0  0  0  0  0  0  0
    3.1307   21.6043   65.0460 H   0  0  0  0  0  0  0  0  0  0  0  0
    3.8483   24.2720   63.9620 H   0  0  0  0  0  0  0  0  0  0  0  0
    3.6501   21.6781   62.3613 H   0  0  0  0  0  0  0  0  0  0  0  0
    5.1345   22.6280   62.7088 H   0  0  0  0  0  0  0  0  0  0  0  0
    3.8542   23.3166   61.6538 H   0  0  0  0  0  0  0  0  0  0  0  0
   32.0865    9.3430   86.3795 H   0  0  0  0  0  0  0  0  0  0  0  0
  1 84  1  0  0  0  0
  1 77  1  0  0  0  0
  1155  1  0  0  0  0
  2  1  1  0  0  0  0
  2  5  1  0  0  0  0
  2  3  1  0  0  0  0
  2 78  1  6  0  0  0
  3  4  2  0  0  0  0
  3  7  1  0  0  0  0
  5  6  1  0  0  0  0
  5 79  1  0  0  0  0
  5 80  1  0  0  0  0
  6 81  1  0  0  0  0
  7 82  1  0  0  0  0
  8  7  1  0  0  0  0
  8 11  1  0  0  0  0
  8  9  1  0  0  0  0
  8 83  1  1  0  0  0
  9 10  2  0  0  0  0
  9 16  1  0  0  0  0
 11 12  1  0  0  0  0
 11 85  1  0  0  0  0
 11 86  1  0  0  0  0
 12 13  1  0  0  0  0
 12 87  1  0  0  0  0
 12 88  1  0  0  0  0
 13 15  2  0  0  0  0
 13 14  1  0  0  0  0
 16 89  1  0  0  0  0
 17 16  1  0  0  0  0
 17 20  1  0  0  0  0
 17 18  1  0  0  0  0
 17 90  1  6  0  0  0
 18 19  2  0  0  0  0
 18 21  1  0  0  0  0
 20 91  1  0  0  0  0
 20 92  1  0  0  0  0
 20 93  1  0  0  0  0
 21 94  1  0  0  0  0
 22 21  1  0  0  0  0
 22 25  1  0  0  0  0
 22 23  1  0  0  0  0
 22 95  1  1  0  0  0
 23 24  2  0  0  0  0
 23 26  1  0  0  0  0
 25 96  1  0  0  0  0
 25 97  1  0  0  0  0
 25 98  1  0  0  0  0
 26 99  1  0  0  0  0
 27 26  1  0  0  0  0
 27 30  1  0  0  0  0
 27 28  1  0  0  0  0
 27100  1  6  0  0  0
 28 29  2  0  0  0  0
 28 31  1  0  0  0  0
 30101  1  0  0  0  0
 30102  1  0  0  0  0
 30103  1  0  0  0  0
 31104  1  0  0  0  0
 32 31  1  0  0  0  0
 32 35  1  0  0  0  0
 32 33  1  0  0  0  0
 32105  1  1  0  0  0
 33 34  2  0  0  0  0
 33 37  1  0  0  0  0
 35 36  1  0  0  0  0
 35106  1  0  0  0  0
 35107  1  0  0  0  0
 36108  1  0  0  0  0
 37109  1  0  0  0  0
 38 37  1  0  0  0  0
 38 41  1  0  0  0  0
 38 39  1  0  0  0  0
 38110  1  6  0  0  0
 39 40  2  0  0  0  0
 39 44  1  0  0  0  0
 41 43  1  0  0  0  0
 41 42  1  0  0  0  0
 41111  1  1  0  0  0
 42112  1  0  0  0  0
 43113  1  0  0  0  0
 43114  1  0  0  0  0
 43115  1  0  0  0  0
 44116  1  0  0  0  0
 45 44  1  0  0  0  0
 45 48  1  0  0  0  0
 45 46  1  0  0  0  0
 45117  1  1  0  0  0
 46 47  2  0  0  0  0
 46 49  1  0  0  0  0
 48118  1  0  0  0  0
 48119  1  0  0  0  0
 48120  1  0  0  0  0
 49121  1  0  0  0  0
 50 49  1  0  0  0  0
 50 53  1  0  0  0  0
 50 51  1  0  0  0  0
 50122  1  6  0  0  0
 51 52  2  0  0  0  0
 51 56  1  0  0  0  0
 53 55  1  0  0  0  0
 53 54  1  0  0  0  0
 53123  1  0  0  0  0
 54124  1  0  0  0  0
 54125  1  0  0  0  0
 54126  1  0  0  0  0
 55127  1  0  0  0  0
 55128  1  0  0  0  0
 55129  1  0  0  0  0
 56130  1  0  0  0  0
 57 56  1  0  0  0  0
 57 60  1  0  0  0  0
 57 58  1  0  0  0  0
 57131  1  1  0  0  0
 58 59  2  0  0  0  0
 58 63  1  0  0  0  0
 60 62  1  0  0  0  0
 60 61  1  0  0  0  0
 60132  1  0  0  0  0
 61133  1  0  0  0  0
 61134  1  0  0  0  0
 61135  1  0  0  0  0
 62136  1  0  0  0  0
 62137  1  0  0  0  0
 62138  1  0  0  0  0
 63139  1  0  0  0  0
 64 63  1  0  0  0  0
 64 67  1  0  0  0  0
 64 65  1  0  0  0  0
 64140  1  6  0  0  0
 65 66  2  0  0  0  0
 65 71  1  0  0  0  0
 67 69  1  0  0  0  0
 67 68  1  0  0  0  0
 67141  1  1  0  0  0
 68 70  1  0  0  0  0
 68142  1  0  0  0  0
 68143  1  0  0  0  0
 69144  1  0  0  0  0
 69145  1  0  0  0  0
 69146  1  0  0  0  0
 70147  1  0  0  0  0
 70148  1  0  0  0  0
 70149  1  0  0  0  0
 71150  1  0  0  0  0
 72 71  1  0  0  0  0
 72 75  1  0  0  0  0
 72 73  1  0  0  0  0
 72151  1  1  0  0  0
 73 74  1  0  0  0  0
 73 76  2  0  0  0  0
 75152  1  0  0  0  0
 75153  1  0  0  0  0
 75154  1  0  0  0  0
M  CHG  3   1   1  14  -1  74  -1
M  END
