1bwn_ligand
 OpenBabel08222323343D

 36 36  0  0  1  0  0  0  0  0999 V2000
   -2.0570    4.4570   38.9080 C   0  0  2  0  0  0  0  0  0  0  0  0
   -3.3750    4.7570   39.5510 O   0  0  0  0  0  0  0  0  0  0  0  0
   -0.9220    5.3440   39.3220 C   0  0  2  0  0  0  0  0  0  0  0  0
   -1.2400    6.7360   39.0570 O   0  0  0  0  0  0  0  0  0  0  0  0
    0.2860    4.8550   38.6020 C   0  0  2  0  0  0  0  0  0  0  0  0
    1.4160    5.4540   39.1340 O   0  0  0  0  0  0  0  0  0  0  0  0
    0.1400    4.9860   37.0440 C   0  0  1  0  0  0  0  0  0  0  0  0
    1.3480    4.4490   36.4640 O   0  0  0  0  0  0  0  0  0  0  0  0
   -1.0180    4.1230   36.6270 C   0  0  2  0  0  0  0  0  0  0  0  0
   -1.2860    4.4020   35.1940 O   0  0  0  0  0  0  0  0  0  0  0  0
   -2.2840    4.5460   37.4010 C   0  0  1  0  0  0  0  0  0  0  0  0
   -3.4050    3.7320   37.0590 O   0  0  0  0  0  0  0  0  0  0  0  0
   -3.8660    3.9650   40.9260 P   0  0  0  0  0  0  0  0  0  0  0  0
   -5.0750    4.5840   41.3290 O   0  0  0  0  0  1  0  0  0  0  0  0
   -2.7500    4.1010   41.8920 O   0  0  0  0  0  1  0  0  0  0  0  0
   -3.9510    2.6150   40.4580 O   0  0  0  0  0  0  0  0  0  0  0  0
    2.5960    4.6970   39.7910 P   0  0  0  0  0  0  0  0  0  0  0  0
    3.5360    5.7300   40.1190 O   0  0  0  0  0  1  0  0  0  0  0  0
    1.7720    4.1390   40.8380 O   0  0  0  0  0  1  0  0  0  0  0  0
    3.0770    3.7150   38.8170 O   0  0  0  0  0  0  0  0  0  0  0  0
    2.4700    5.2610   35.7560 P   0  0  0  0  0  0  0  0  0  0  0  0
    2.0540    6.6810   35.9260 O   0  0  0  0  0  1  0  0  0  0  0  0
    3.7070    4.9050   36.4370 O   0  0  0  0  0  1  0  0  0  0  0  0
    2.4410    4.8040   34.3950 O   0  0  0  0  0  0  0  0  0  0  0  0
   -0.7620    3.5510   33.9580 P   0  0  0  0  0  0  0  0  0  0  0  0
    0.2910    4.3430   33.4030 O   0  0  0  0  0  1  0  0  0  0  0  0
   -0.2390    2.4120   34.6060 O   0  0  0  0  0  1  0  0  0  0  0  0
   -2.0180    3.5070   33.2300 O   0  0  0  0  0  0  0  0  0  0  0  0
   -1.7771    3.4257   39.1688 H   0  0  0  0  0  0  0  0  0  0  0  0
   -0.7532    5.2367   40.4037 H   0  0  0  0  0  0  0  0  0  0  0  0
   -0.5109    7.2828   39.3250 H   0  0  0  0  0  0  0  0  0  0  0  0
    0.3737    3.7785   38.8102 H   0  0  0  0  0  0  0  0  0  0  0  0
   -0.0163    6.0318   36.7409 H   0  0  0  0  0  0  0  0  0  0  0  0
   -0.7921    3.0594   36.7936 H   0  0  0  0  0  0  0  0  0  0  0  0
   -2.5142    5.5892   37.1388 H   0  0  0  0  0  0  0  0  0  0  0  0
   -3.5808    3.8118   36.1288 H   0  0  0  0  0  0  0  0  0  0  0  0
  1  2  1  0  0  0  0
  1  3  1  0  0  0  0
  1 11  1  0  0  0  0
  1 29  1  1  0  0  0
  2 13  1  0  0  0  0
  3  4  1  0  0  0  0
  3  5  1  0  0  0  0
  3 30  1  1  0  0  0
  4 31  1  0  0  0  0
  5  6  1  0  0  0  0
  5  7  1  0  0  0  0
  5 32  1  1  0  0  0
  6 17  1  0  0  0  0
  7  8  1  0  0  0  0
  7  9  1  0  0  0  0
  7 33  1  6  0  0  0
  8 21  1  0  0  0  0
  9 10  1  0  0  0  0
  9 11  1  0  0  0  0
  9 34  1  1  0  0  0
 10 25  1  0  0  0  0
 11 12  1  0  0  0  0
 11 35  1  6  0  0  0
 12 36  1  0  0  0  0
 13 14  1  0  0  0  0
 13 15  1  0  0  0  0
 13 16  2  0  0  0  0
 17 18  1  0  0  0  0
 17 19  1  0  0  0  0
 17 20  2  0  0  0  0
 21 22  1  0  0  0  0
 21 23  1  0  0  0  0
 21 24  2  0  0  0  0
 25 26  1  0  0  0  0
 25 27  1  0  0  0  0
 25 28  2  0  0  0  0
M  END
