1bzs_ligand
 OpenBabel08222323343D

 46 49  0  0  1  0  0  0  0  0999 V2000
   30.3900   59.3230   55.7800 C   0  0  0  0  0  0  0  0  0  0  0  0
   30.4040   59.0550   54.3880 C   0  0  0  0  0  0  0  0  0  0  0  0
   29.4640   59.6780   53.5540 C   0  0  0  0  0  0  0  0  0  0  0  0
   29.5570   59.4040   52.1020 C   0  0  0  0  0  0  0  0  0  0  0  0
   27.1290   60.3290   52.0360 C   0  0  1  0  0  0  0  0  0  0  0  0
   27.4340   61.2220   53.2390 C   0  0  0  0  0  0  0  0  0  0  0  0
   27.6250   58.3170   49.3640 C   0  0  0  0  0  0  0  0  0  0  0  0
   26.4710   55.9070   48.3830 C   0  0  0  0  0  0  0  0  0  0  0  0
   27.7630   55.9340   49.0370 C   0  0  0  0  0  0  0  0  0  0  0  0
   28.3570   57.1120   49.5420 C   0  0  0  0  0  0  0  0  0  0  0  0
   26.0010   54.6670   47.7170 C   0  0  0  0  0  0  0  0  0  0  0  0
   24.7090   53.5400   45.9710 C   0  0  0  0  0  0  0  0  0  0  0  0
   26.4680   53.3980   48.1780 C   0  0  0  0  0  0  0  0  0  0  0  0
   29.8250   59.6520   49.3690 O   0  0  0  0  0  0  0  0  0  0  0  0
   28.4930   60.5630   54.0960 C   0  0  0  0  0  0  0  0  0  0  0  0
   28.4960   60.8580   55.4930 C   0  0  0  0  0  0  0  0  0  0  0  0
   29.4510   60.2230   56.3240 C   0  0  0  0  0  0  0  0  0  0  0  0
   28.4190   59.9900   51.3650 N   0  0  0  0  0  0  0  0  0  0  0  0
   28.4470   59.8400   49.7700 S   0  0  0  0  0  0  0  0  0  0  0  0
   26.3100   58.3200   48.8060 C   0  0  0  0  0  0  0  0  0  0  0  0
   25.7260   57.1190   48.3240 C   0  0  0  0  0  0  0  0  0  0  0  0
   25.1270   54.7500   46.6090 C   0  0  0  0  0  0  0  0  0  0  0  0
   25.1650   52.2760   46.4320 C   0  0  0  0  0  0  0  0  0  0  0  0
   26.0530   52.2050   47.5400 C   0  0  0  0  0  0  0  0  0  0  0  0
   27.6780   60.9140   49.2150 O   0  0  0  0  0  0  0  0  0  0  0  0
   26.3880   59.0790   52.4950 C   0  0  0  0  0  0  0  0  0  0  0  0
   25.1420   59.0600   52.5280 O   0  5  0  0  0  0  0  0  0  0  0  0
   27.0290   58.0640   52.8840 O   0  0  0  0  0  0  0  0  0  0  0  0
   31.1057   58.8329   56.4301 H   0  0  0  0  0  0  0  0  0  0  0  0
   31.1363   58.3732   53.9710 H   0  0  0  0  0  0  0  0  0  0  0  0
   29.5626   58.3155   51.9436 H   0  0  0  0  0  0  0  0  0  0  0  0
   30.4924   59.8355   51.7163 H   0  0  0  0  0  0  0  0  0  0  0  0
   26.4904   60.8771   51.3277 H   0  0  0  0  0  0  0  0  0  0  0  0
   26.5185   61.3652   53.8318 H   0  0  0  0  0  0  0  0  0  0  0  0
   27.8003   62.1982   52.8884 H   0  0  0  0  0  0  0  0  0  0  0  0
   28.3031   55.0003   49.1447 H   0  0  0  0  0  0  0  0  0  0  0  0
   29.3202   57.0976   50.0390 H   0  0  0  0  0  0  0  0  0  0  0  0
   24.0347   53.5882   45.1236 H   0  0  0  0  0  0  0  0  0  0  0  0
   27.1453   53.3486   49.0229 H   0  0  0  0  0  0  0  0  0  0  0  0
   27.7795   61.5561   55.9105 H   0  0  0  0  0  0  0  0  0  0  0  0
   29.4601   60.4308   57.3879 H   0  0  0  0  0  0  0  0  0  0  0  0
   25.7527   59.2481   48.7500 H   0  0  0  0  0  0  0  0  0  0  0  0
   24.7222   57.1247   47.9148 H   0  0  0  0  0  0  0  0  0  0  0  0
   24.7803   55.7122   46.2498 H   0  0  0  0  0  0  0  0  0  0  0  0
   24.8366   51.3676   45.9400 H   0  0  0  0  0  0  0  0  0  0  0  0
   26.4095   51.2442   47.8934 H   0  0  0  0  0  0  0  0  0  0  0  0
  1 17  2  0  0  0  0
  1  2  1  0  0  0  0
  1 29  1  0  0  0  0
  2  3  2  0  0  0  0
  2 30  1  0  0  0  0
  3 15  1  0  0  0  0
  3  4  1  0  0  0  0
  4 18  1  0  0  0  0
  4 31  1  0  0  0  0
  4 32  1  0  0  0  0
  5 26  1  0  0  0  0
  5  6  1  0  0  0  0
  5 33  1  6  0  0  0
  6 15  1  0  0  0  0
  6 34  1  0  0  0  0
  6 35  1  0  0  0  0
  7 20  2  0  0  0  0
  7 10  1  0  0  0  0
  8 21  2  0  0  0  0
  8 11  1  0  0  0  0
  9  8  1  0  0  0  0
  9 36  1  0  0  0  0
 10  9  2  0  0  0  0
 10 37  1  0  0  0  0
 11 22  2  0  0  0  0
 11 13  1  0  0  0  0
 12 22  1  0  0  0  0
 12 38  1  0  0  0  0
 13 24  2  0  0  0  0
 13 39  1  0  0  0  0
 15 16  2  0  0  0  0
 16 17  1  0  0  0  0
 16 40  1  0  0  0  0
 17 41  1  0  0  0  0
 18 19  1  0  0  0  0
 18  5  1  0  0  0  0
 19 14  2  0  0  0  0
 19 25  2  0  0  0  0
 19  7  1  0  0  0  0
 20 42  1  0  0  0  0
 21 20  1  0  0  0  0
 21 43  1  0  0  0  0
 22 44  1  0  0  0  0
 23 12  2  0  0  0  0
 23 45  1  0  0  0  0
 24 23  1  0  0  0  0
 24 46  1  0  0  0  0
 26 28  2  0  0  0  0
 26 27  1  0  0  0  0
M  CHG  1  27  -1
M  END
