1c29_ligand
 OpenBabel08222323343D

 27 27  0  0  0  0  0  0  0  0999 V2000
   47.9710   29.1420    9.8220 P   0  0  0  0  0  0  0  0  0  0  0  0
   48.2770   28.2420    8.5310 O   0  0  0  0  0  1  0  0  0  0  0  0
   49.1540   30.1860   10.0580 O   0  0  0  0  0  1  0  0  0  0  0  0
   46.5790   29.9440    9.6730 O   0  0  0  0  0  0  0  0  0  0  0  0
   47.8760   28.1660   11.2010 C   0  0  0  0  0  0  0  0  0  0  0  0
   47.8940   28.6370   12.4270 C   0  0  0  0  0  0  0  0  0  0  0  0
   48.8170   28.2050   14.6670 C   0  0  0  0  0  0  0  0  0  0  0  0
   47.8010   27.8110   13.6360 C   0  0  0  0  0  0  0  0  0  0  0  0
   48.7110   26.9190   15.8920 S   0  0  0  0  0  0  0  0  0  0  0  0
   51.7340   27.1470   15.3740 O   0  0  0  0  0  0  0  0  0  0  0  0
   51.4960   23.5420   14.6870 C   0  0  0  0  0  0  0  0  0  0  0  0
   52.0130   24.8370   14.8560 C   0  0  0  0  0  0  0  0  0  0  0  0
   51.1830   25.8930   15.2230 C   0  0  0  0  0  0  0  0  0  0  0  0
   49.8190   25.6440   15.4280 C   0  0  0  0  0  0  0  0  0  0  0  0
   49.2850   24.3650   15.2630 C   0  0  0  0  0  0  0  0  0  0  0  0
   50.1300   23.3050   14.8900 C   0  0  0  0  0  0  0  0  0  0  0  0
   47.7955   27.0886   11.0646 H   0  0  0  0  0  0  0  0  0  0  0  0
   47.9841   29.7147   12.5549 H   0  0  0  0  0  0  0  0  0  0  0  0
   48.5700   29.1832   15.1052 H   0  0  0  0  0  0  0  0  0  0  0  0
   49.8247   28.2439   14.2276 H   0  0  0  0  0  0  0  0  0  0  0  0
   47.9648   26.7588   13.3604 H   0  0  0  0  0  0  0  0  0  0  0  0
   46.7954   27.9249   14.0671 H   0  0  0  0  0  0  0  0  0  0  0  0
   52.1242   27.4212   14.5524 H   0  0  0  0  0  0  0  0  0  0  0  0
   52.1520   22.7281   14.4003 H   0  0  0  0  0  0  0  0  0  0  0  0
   53.0704   25.0164   14.6989 H   0  0  0  0  0  0  0  0  0  0  0  0
   48.2269   24.1903   15.4212 H   0  0  0  0  0  0  0  0  0  0  0  0
   49.7260   22.3075   14.7599 H   0  0  0  0  0  0  0  0  0  0  0  0
  1  2  1  0  0  0  0
  1  3  1  0  0  0  0
  1  4  2  0  0  0  0
  5  1  1  0  0  0  0
  5 17  1  0  0  0  0
  6  5  2  0  0  0  0
  6 18  1  0  0  0  0
  7  8  1  0  0  0  0
  7 19  1  0  0  0  0
  7 20  1  0  0  0  0
  8  6  1  0  0  0  0
  8 21  1  0  0  0  0
  8 22  1  0  0  0  0
  9  7  1  0  0  0  0
 10 23  1  0  0  0  0
 11 16  1  0  0  0  0
 11 24  1  0  0  0  0
 12 11  2  0  0  0  0
 12 25  1  0  0  0  0
 13 10  1  0  0  0  0
 13 12  1  0  0  0  0
 13 14  2  0  0  0  0
 14  9  1  0  0  0  0
 14 15  1  0  0  0  0
 15 16  2  0  0  0  0
 15 26  1  0  0  0  0
 16 27  1  0  0  0  0
M  END
