1c3b_ligand
 OpenBabel08222323343D

 19 20  0  0  0  0  0  0  0  0999 V2000
   26.2010    5.1640   16.9450 B   0  0  0  0  0  0  0  0  0  0  0  0
   26.3150    6.2430   17.9770 O   0  0  0  0  0  0  0  0  0  0  0  0
   25.1800    4.1770   17.1080 O   0  0  0  0  0  0  0  0  0  0  0  0
   25.7230    5.9200   15.6570 C   0  0  0  0  0  0  0  0  0  0  0  0
   25.4640    7.2610   15.5840 C   0  0  0  0  0  0  0  0  0  0  0  0
   24.9960    6.5280   13.4110 C   0  0  0  0  0  0  0  0  0  0  0  0
   25.0290    7.5990   14.2420 C   0  0  0  0  0  0  0  0  0  0  0  0
   24.5840    6.6610   12.0200 C   0  0  0  0  0  0  0  0  0  0  0  0
   25.4670    5.0630   14.1670 S   0  0  0  0  0  0  0  0  0  0  0  0
   24.6580    8.8890   13.7370 C   0  0  0  0  0  0  0  0  0  0  0  0
   24.2220    7.9240   11.5320 C   0  0  0  0  0  0  0  0  0  0  0  0
   24.2560    9.0390   12.3860 C   0  0  0  0  0  0  0  0  0  0  0  0
   26.4857    5.8513   18.8255 H   0  0  0  0  0  0  0  0  0  0  0  0
   24.3297    4.6007   17.1149 H   0  0  0  0  0  0  0  0  0  0  0  0
   25.5683    7.9666   16.4069 H   0  0  0  0  0  0  0  0  0  0  0  0
   24.5577    5.7937   11.3703 H   0  0  0  0  0  0  0  0  0  0  0  0
   24.6851    9.7529   14.3912 H   0  0  0  0  0  0  0  0  0  0  0  0
   23.9166    8.0402   10.4984 H   0  0  0  0  0  0  0  0  0  0  0  0
   23.9742   10.0162   12.0110 H   0  0  0  0  0  0  0  0  0  0  0  0
  1  3  1  0  0  0  0
  1  2  1  0  0  0  0
  2 13  1  0  0  0  0
  3 14  1  0  0  0  0
  4  9  1  0  0  0  0
  4  5  2  0  0  0  0
  4  1  1  0  0  0  0
  5  7  1  0  0  0  0
  5 15  1  0  0  0  0
  6  8  2  0  0  0  0
  6  7  1  0  0  0  0
  7 10  2  0  0  0  0
  8 11  1  0  0  0  0
  8 16  1  0  0  0  0
  9  6  1  0  0  0  0
 10 12  1  0  0  0  0
 10 17  1  0  0  0  0
 11 12  2  0  0  0  0
 11 18  1  0  0  0  0
 12 19  1  0  0  0  0
M  END
