1c3i_ligand
 OpenBabel08222323343D

 64 65  0  0  1  0  0  0  0  0999 V2000
   39.7760  -48.5280   -1.6220 N   0  3  0  0  0  0  0  0  0  0  0  0
   39.8700  -48.2370   -0.1400 C   0  0  2  0  0  0  0  0  0  0  0  0
   41.3050  -48.4470    0.3440 C   0  0  0  0  0  0  0  0  0  0  0  0
   41.7440  -47.8030    1.2830 O   0  0  0  0  0  0  0  0  0  0  0  0
   40.9660  -47.7210   -7.9970 C   0  0  0  0  0  0  0  0  0  0  0  0
   41.5310  -46.6570   -8.7140 C   0  0  0  0  0  0  0  0  0  0  0  0
   40.7060  -48.9180   -8.6730 C   0  0  0  0  0  0  0  0  0  0  0  0
   41.7790  -46.7770  -10.0810 C   0  0  0  0  0  0  0  0  0  0  0  0
   40.9860  -49.0490  -10.0380 C   0  0  0  0  0  0  0  0  0  0  0  0
   41.5060  -47.9760  -10.7530 C   0  0  0  0  0  0  0  0  0  0  0  0
   40.1710  -47.3840   -3.8460 C   0  0  0  0  0  0  0  0  0  0  0  0
   39.9240  -46.3090   -4.7170 C   0  0  0  0  0  0  0  0  0  0  0  0
   40.6740  -48.5660   -4.3860 C   0  0  0  0  0  0  0  0  0  0  0  0
   40.1890  -46.4320   -6.0730 C   0  0  0  0  0  0  0  0  0  0  0  0
   40.9430  -48.6970   -5.7580 C   0  0  0  0  0  0  0  0  0  0  0  0
   40.7010  -47.6190   -6.6220 C   0  0  0  0  0  0  0  0  0  0  0  0
   39.8950  -47.2310   -2.3470 C   0  0  0  0  0  0  0  0  0  0  0  0
   38.9250  -49.2080    0.6270 C   0  0  0  0  0  0  0  0  0  0  0  0
   37.1920  -48.8670    0.1010 S   0  0  0  0  0  0  0  0  0  0  0  0
   42.0510  -49.3850   -0.2660 N   0  0  0  0  0  0  0  0  0  0  0  0
   43.4210  -49.6680    0.1840 C   0  0  0  0  0  0  0  0  0  0  0  0
   44.3980  -49.1460   -0.8400 C   0  0  0  0  0  0  0  0  0  0  0  0
   44.1330  -49.2510   -2.0230 O   0  0  0  0  0  0  0  0  0  0  0  0
   45.5470  -48.5840   -0.4180 N   0  0  0  0  0  0  0  0  0  0  0  0
   46.5110  -48.0380   -1.3650 C   0  0  1  0  0  0  0  0  0  0  0  0
   47.5260  -47.1350   -0.5850 C   0  0  0  0  0  0  0  0  0  0  0  0
   48.5880  -47.9980    0.1600 C   0  0  0  0  0  0  0  0  0  0  0  0
   48.1860  -46.1350   -1.5810 C   0  0  0  0  0  0  0  0  0  0  0  0
   47.1450  -49.1320   -2.1890 C   0  0  0  0  0  0  0  0  0  0  0  0
   47.2000  -50.2520   -1.7200 O   0  0  0  0  0  0  0  0  0  0  0  0
   47.6460  -48.8800   -3.4130 O   0  0  0  0  0  0  0  0  0  0  0  0
   48.7310  -49.6910   -3.9050 C   0  0  0  0  0  0  0  0  0  0  0  0
   40.5230  -49.1457   -1.8986 H   0  0  0  0  0  0  0  0  0  0  0  0
   38.8890  -48.9584   -1.8317 H   0  0  0  0  0  0  0  0  0  0  0  0
   39.5669  -47.1969    0.0505 H   0  0  0  0  0  0  0  0  0  0  0  0
   41.7770  -45.7339   -8.2018 H   0  0  0  0  0  0  0  0  0  0  0  0
   40.2816  -49.7559   -8.1318 H   0  0  0  0  0  0  0  0  0  0  0  0
   42.1867  -45.9351  -10.6288 H   0  0  0  0  0  0  0  0  0  0  0  0
   40.7966  -49.9910  -10.5398 H   0  0  0  0  0  0  0  0  0  0  0  0
   41.6977  -48.0657  -11.8161 H   0  0  0  0  0  0  0  0  0  0  0  0
   39.5246  -45.3796   -4.3274 H   0  0  0  0  0  0  0  0  0  0  0  0
   40.8628  -49.4073   -3.7290 H   0  0  0  0  0  0  0  0  0  0  0  0
   39.9957  -45.5891   -6.7267 H   0  0  0  0  0  0  0  0  0  0  0  0
   41.3366  -49.6286   -6.1482 H   0  0  0  0  0  0  0  0  0  0  0  0
   40.7201  -46.6577   -1.8992 H   0  0  0  0  0  0  0  0  0  0  0  0
   38.9532  -46.6764   -2.2226 H   0  0  0  0  0  0  0  0  0  0  0  0
   39.0236  -49.0444    1.7103 H   0  0  0  0  0  0  0  0  0  0  0  0
   39.1880  -50.2490    0.3879 H   0  0  0  0  0  0  0  0  0  0  0  0
   36.9575  -47.9113    0.3199 H   0  0  0  0  0  0  0  0  0  0  0  0
   41.6686  -49.8964   -1.0356 H   0  0  0  0  0  0  0  0  0  0  0  0
   43.5536  -50.7539    0.2986 H   0  0  0  0  0  0  0  0  0  0  0  0
   43.6007  -49.1727    1.1496 H   0  0  0  0  0  0  0  0  0  0  0  0
   45.7420  -48.5406    0.5618 H   0  0  0  0  0  0  0  0  0  0  0  0
   45.9671  -47.3874   -2.0656 H   0  0  0  0  0  0  0  0  0  0  0  0
   46.9708  -46.5570    0.1684 H   0  0  0  0  0  0  0  0  0  0  0  0
   49.2851  -47.3382    0.6973 H   0  0  0  0  0  0  0  0  0  0  0  0
   49.1453  -48.6040   -0.5695 H   0  0  0  0  0  0  0  0  0  0  0  0
   48.0834  -48.6610    0.8782 H   0  0  0  0  0  0  0  0  0  0  0  0
   47.4033  -45.5478   -2.0837 H   0  0  0  0  0  0  0  0  0  0  0  0
   48.7646  -46.6932   -2.3317 H   0  0  0  0  0  0  0  0  0  0  0  0
   48.8559  -45.4579   -1.0309 H   0  0  0  0  0  0  0  0  0  0  0  0
   49.0151  -49.3515   -4.9120 H   0  0  0  0  0  0  0  0  0  0  0  0
   48.4119  -50.7428   -3.9492 H   0  0  0  0  0  0  0  0  0  0  0  0
   49.5941  -49.5977   -3.2295 H   0  0  0  0  0  0  0  0  0  0  0  0
  1 17  1  0  0  0  0
  1  2  1  0  0  0  0
  1 33  1  0  0  0  0
  1 34  1  0  0  0  0
  2 18  1  0  0  0  0
  2  3  1  0  0  0  0
  2 35  1  1  0  0  0
  3 20  1  0  0  0  0
  3  4  2  0  0  0  0
  5  7  2  0  0  0  0
  5  6  1  0  0  0  0
  6  8  2  0  0  0  0
  6 36  1  0  0  0  0
  7 37  1  0  0  0  0
  8 10  1  0  0  0  0
  8 38  1  0  0  0  0
  9  7  1  0  0  0  0
  9 39  1  0  0  0  0
 10  9  2  0  0  0  0
 10 40  1  0  0  0  0
 11 13  2  0  0  0  0
 11 12  1  0  0  0  0
 12 14  2  0  0  0  0
 12 41  1  0  0  0  0
 13 42  1  0  0  0  0
 14 16  1  0  0  0  0
 14 43  1  0  0  0  0
 15 13  1  0  0  0  0
 15 44  1  0  0  0  0
 16 15  2  0  0  0  0
 16  5  1  0  0  0  0
 17 11  1  0  0  0  0
 17 45  1  0  0  0  0
 17 46  1  0  0  0  0
 18 19  1  0  0  0  0
 18 47  1  0  0  0  0
 18 48  1  0  0  0  0
 19 49  1  0  0  0  0
 20 21  1  0  0  0  0
 20 50  1  0  0  0  0
 21 22  1  0  0  0  0
 21 51  1  0  0  0  0
 21 52  1  0  0  0  0
 22 24  1  0  0  0  0
 22 23  2  0  0  0  0
 24 25  1  0  0  0  0
 24 53  1  0  0  0  0
 25 29  1  0  0  0  0
 25 26  1  0  0  0  0
 25 54  1  6  0  0  0
 26 28  1  0  0  0  0
 26 27  1  0  0  0  0
 26 55  1  0  0  0  0
 27 56  1  0  0  0  0
 27 57  1  0  0  0  0
 27 58  1  0  0  0  0
 28 59  1  0  0  0  0
 28 60  1  0  0  0  0
 28 61  1  0  0  0  0
 29 31  1  0  0  0  0
 29 30  2  0  0  0  0
 31 32  1  0  0  0  0
 32 62  1  0  0  0  0
 32 63  1  0  0  0  0
 32 64  1  0  0  0  0
M  CHG  1   1   1
M  END
