1c50_ligand
 OpenBabel08222323343D

 54 57  0  0  1  0  0  0  0  0999 V2000
   17.4960    7.6850   49.6050 Cl  0  0  0  0  0  0  0  0  0  0  0  0
   17.9620    8.9860   50.5590 C   0  0  0  0  0  0  0  0  0  0  0  0
   18.5840   10.0270   49.9050 C   0  0  0  0  0  0  0  0  0  0  0  0
   18.9960   11.2080   50.6350 C   0  0  0  0  0  0  0  0  0  0  0  0
   18.7160   11.1570   52.0920 C   0  0  0  0  0  0  0  0  0  0  0  0
   18.9970   12.1260   52.9520 N   0  0  0  0  0  0  0  0  0  0  0  0
   18.1100   10.1130   52.6960 C   0  0  0  0  0  0  0  0  0  0  0  0
   17.6680    8.9620   51.9940 C   0  0  0  0  0  0  0  0  0  0  0  0
   18.0150   10.4300   54.1040 C   0  0  0  0  0  0  0  0  0  0  0  0
   18.6590   11.7930   54.1700 C   0  0  0  0  0  0  0  0  0  0  0  0
   18.8490   12.5480   55.4360 C   0  0  0  0  0  0  0  0  0  0  0  0
   19.3550   13.6320   55.2530 O   0  0  0  0  0  0  0  0  0  0  0  0
   18.4780   12.0820   56.6830 N   0  0  0  0  0  0  0  0  0  0  0  0
   18.7420   12.9100   57.9080 C   0  0  2  0  0  0  0  0  0  0  0  0
   20.2620   13.0890   58.1330 C   0  0  0  0  0  0  0  0  0  0  0  0
   21.0010   11.9680   58.3170 O   0  0  0  0  0  0  0  0  0  0  0  0
   20.8900   14.2860   58.1740 N   0  0  0  0  0  0  0  0  0  0  0  0
   19.9240   15.3970   58.4740 C   0  0  0  0  0  0  0  0  0  0  0  0
   20.6690   16.7520   58.5520 C   0  0  0  0  0  0  0  0  0  0  0  0
   21.7850   16.6900   59.6430 C   0  0  2  0  0  0  0  0  0  0  0  0
   22.5080   17.9300   59.7510 O   0  0  0  0  0  0  0  0  0  0  0  0
   22.7750   15.5550   59.3100 C   0  0  0  0  0  0  0  0  0  0  0  0
   22.0160   14.1970   59.1750 C   0  0  0  0  0  0  0  0  0  0  0  0
   18.1550   12.2170   59.2290 C   0  0  0  0  0  0  0  0  0  0  0  0
   18.3930   13.0720   60.5040 C   0  0  0  0  0  0  0  0  0  0  0  0
   17.5860   14.1970   60.8740 C   0  0  0  0  0  0  0  0  0  0  0  0
   17.8870   14.9170   62.0450 C   0  0  0  0  0  0  0  0  0  0  0  0
   19.0100   14.5190   62.8470 C   0  0  0  0  0  0  0  0  0  0  0  0
   19.3280   15.1940   63.9460 F   0  0  0  0  0  0  0  0  0  0  0  0
   19.8010   13.4020   62.4760 C   0  0  0  0  0  0  0  0  0  0  0  0
   19.4950   12.7040   61.3270 C   0  0  0  0  0  0  0  0  0  0  0  0
   18.7660    9.9617   48.8384 H   0  0  0  0  0  0  0  0  0  0  0  0
   19.4693   12.0582   50.1574 H   0  0  0  0  0  0  0  0  0  0  0  0
   19.4265   13.0258   52.6936 H   0  0  0  0  0  0  0  0  0  0  0  0
   17.1574    8.1369   52.4772 H   0  0  0  0  0  0  0  0  0  0  0  0
   17.5877    9.8364   54.9108 H   0  0  0  0  0  0  0  0  0  0  0  0
   18.0325   11.1910   56.7700 H   0  0  0  0  0  0  0  0  0  0  0  0
   18.2715   13.8951   57.7733 H   0  0  0  0  0  0  0  0  0  0  0  0
   19.4306   15.1985   59.4369 H   0  0  0  0  0  0  0  0  0  0  0  0
   19.1672   15.4446   57.6771 H   0  0  0  0  0  0  0  0  0  0  0  0
   19.9529   17.5464   58.8091 H   0  0  0  0  0  0  0  0  0  0  0  0
   21.1264   16.9723   57.5761 H   0  0  0  0  0  0  0  0  0  0  0  0
   21.3106   16.4776   60.6124 H   0  0  0  0  0  0  0  0  0  0  0  0
   22.9192   18.1291   58.9180 H   0  0  0  0  0  0  0  0  0  0  0  0
   23.5204   15.4757   60.1150 H   0  0  0  0  0  0  0  0  0  0  0  0
   23.2827   15.7829   58.3612 H   0  0  0  0  0  0  0  0  0  0  0  0
   22.7252   13.4230   58.8464 H   0  0  0  0  0  0  0  0  0  0  0  0
   21.6008   13.9214   60.1556 H   0  0  0  0  0  0  0  0  0  0  0  0
   18.6439   11.2407   59.3624 H   0  0  0  0  0  0  0  0  0  0  0  0
   17.0726   12.0704   59.0994 H   0  0  0  0  0  0  0  0  0  0  0  0
   16.7470   14.4922   60.2543 H   0  0  0  0  0  0  0  0  0  0  0  0
   17.2773   15.7637   62.3388 H   0  0  0  0  0  0  0  0  0  0  0  0
   20.6404   13.0990   63.0914 H   0  0  0  0  0  0  0  0  0  0  0  0
   20.1075   11.8556   61.0438 H   0  0  0  0  0  0  0  0  0  0  0  0
  1  2  1  0  0  0  0
  2  3  2  0  0  0  0
  2  8  1  0  0  0  0
  3  4  1  0  0  0  0
  3 32  1  0  0  0  0
  4  5  2  0  0  0  0
  4 33  1  0  0  0  0
  5  6  1  0  0  0  0
  5  7  1  0  0  0  0
  6 10  1  0  0  0  0
  6 34  1  0  0  0  0
  7  8  2  0  0  0  0
  7  9  1  0  0  0  0
  8 35  1  0  0  0  0
  9 10  2  0  0  0  0
  9 36  1  0  0  0  0
 10 11  1  0  0  0  0
 11 12  2  0  0  0  0
 11 13  1  0  0  0  0
 13 14  1  0  0  0  0
 13 37  1  0  0  0  0
 14 15  1  0  0  0  0
 14 24  1  0  0  0  0
 14 38  1  6  0  0  0
 15 16  2  0  0  0  0
 15 17  1  0  0  0  0
 17 18  1  0  0  0  0
 17 23  1  0  0  0  0
 18 19  1  0  0  0  0
 18 39  1  0  0  0  0
 18 40  1  0  0  0  0
 19 20  1  0  0  0  0
 19 41  1  0  0  0  0
 19 42  1  0  0  0  0
 20 21  1  0  0  0  0
 20 22  1  0  0  0  0
 20 43  1  1  0  0  0
 21 44  1  0  0  0  0
 22 23  1  0  0  0  0
 22 45  1  0  0  0  0
 22 46  1  0  0  0  0
 23 47  1  0  0  0  0
 23 48  1  0  0  0  0
 24 25  1  0  0  0  0
 24 49  1  0  0  0  0
 24 50  1  0  0  0  0
 25 26  2  0  0  0  0
 25 31  1  0  0  0  0
 26 27  1  0  0  0  0
 26 51  1  0  0  0  0
 27 28  2  0  0  0  0
 27 52  1  0  0  0  0
 28 29  1  0  0  0  0
 28 30  1  0  0  0  0
 30 31  2  0  0  0  0
 30 53  1  0  0  0  0
 31 54  1  0  0  0  0
M  END
