1c5f_ligand
 OpenBabel08222323343D

196196  0  0  1  0  0  0  0  0999 V2000
   -4.0440   -8.4980   47.4340 N   0  0  0  0  0  0  0  0  0  0  0  0
   -4.0730   -9.9820   47.6770 C   0  0  0  0  0  0  0  0  0  0  0  0
   -5.2810   -7.7590   47.1980 C   0  0  2  0  0  0  0  0  0  0  0  0
   -6.2150   -7.6820   48.4050 C   0  0  0  0  0  0  0  0  0  0  0  0
   -6.0250   -8.3780   49.4090 O   0  0  0  0  0  0  0  0  0  0  0  0
   -6.0640   -8.3290   45.9800 C   0  0  2  0  0  0  0  0  0  0  0  0
   -6.5070   -9.6640   46.2570 O   0  0  0  0  0  0  0  0  0  0  0  0
   -5.1710   -8.3280   44.7230 C   0  0  2  0  0  0  0  0  0  0  0  0
   -4.6880   -6.9190   44.4260 C   0  0  0  0  0  0  0  0  0  0  0  0
   -5.9650   -8.8740   43.5270 C   0  0  0  0  0  0  0  0  0  0  0  0
   -7.2800   -8.1430   43.2430 C   0  0  0  0  0  0  0  0  0  0  0  0
   -8.2350   -8.6620   42.3330 C   0  0  0  0  0  0  0  0  0  0  0  0
   -9.5410   -7.9190   42.0920 C   0  0  0  0  0  0  0  0  0  0  0  0
   -7.2340   -6.8360   48.2930 N   0  0  0  0  0  0  0  0  0  0  0  0
   -8.1750   -6.6350   49.3850 C   0  0  2  0  0  0  0  0  0  0  0  0
   -9.6080   -7.0080   49.0010 C   0  0  0  0  0  0  0  0  0  0  0  0
  -10.4060   -6.1280   48.6660 O   0  0  0  0  0  0  0  0  0  0  0  0
   -8.1240   -5.1690   49.8210 C   0  0  0  0  0  0  0  0  0  0  0  0
   -6.7170   -4.6090   49.9010 C   0  0  0  0  0  0  0  0  0  0  0  0
   -9.9380   -8.3000   49.0640 N   0  0  0  0  0  0  0  0  0  0  0  0
  -11.2820   -8.7290   48.7030 C   0  0  0  0  0  0  0  0  0  0  0  0
  -11.2490   -9.9640   47.8090 C   0  0  0  0  0  0  0  0  0  0  0  0
  -11.6900  -11.0440   48.2100 O   0  0  0  0  0  0  0  0  0  0  0  0
   -8.9150   -9.3320   49.4530 C   0  0  0  0  0  0  0  0  0  0  0  0
  -10.7230   -9.8220   46.5950 N   0  0  0  0  0  0  0  0  0  0  0  0
  -10.1900   -8.4920   46.1490 C   0  0  0  0  0  0  0  0  0  0  0  0
  -10.6480  -10.9660   45.7020 C   0  0  1  0  0  0  0  0  0  0  0  0
  -11.0330  -10.5730   44.2710 C   0  0  0  0  0  0  0  0  0  0  0  0
  -11.0240  -11.7340   43.2650 C   0  0  0  0  0  0  0  0  0  0  0  0
  -11.9790  -12.8100   43.7510 C   0  0  0  0  0  0  0  0  0  0  0  0
  -11.4150  -11.2450   41.8630 C   0  0  0  0  0  0  0  0  0  0  0  0
   -9.2370  -11.5200   45.7120 C   0  0  0  0  0  0  0  0  0  0  0  0
   -8.3890  -11.1150   44.9130 O   0  0  0  0  0  0  0  0  0  0  0  0
   -8.9820  -12.4480   46.6220 N   0  0  0  0  0  0  0  0  0  0  0  0
   -7.6640  -13.0430   46.7170 C   0  0  2  0  0  0  0  0  0  0  0  0
   -7.4480  -14.1120   45.6400 C   0  0  0  0  0  0  0  0  0  0  0  0
   -8.2980  -14.9870   45.4450 O   0  0  0  0  0  0  0  0  0  0  0  0
   -7.4550  -13.6750   48.0990 C   0  0  0  0  0  0  0  0  0  0  0  0
   -6.0510  -14.2410   48.2000 C   0  0  0  0  0  0  0  0  0  0  0  0
   -7.6900  -12.6340   49.1830 C   0  0  0  0  0  0  0  0  0  0  0  0
   -6.3190  -14.0330   44.9380 N   0  0  0  0  0  0  0  0  0  0  0  0
   -5.3590  -12.9070   45.1870 C   0  0  0  0  0  0  0  0  0  0  0  0
   -6.0100  -15.0130   43.9000 C   0  0  1  0  0  0  0  0  0  0  0  0
   -5.5850  -14.3220   42.5890 C   0  0  0  0  0  0  0  0  0  0  0  0
   -6.6600  -13.4350   41.9320 C   0  0  0  0  0  0  0  0  0  0  0  0
   -6.1620  -12.8880   40.6070 C   0  0  0  0  0  0  0  0  0  0  0  0
   -7.9330  -14.2440   41.7100 C   0  0  0  0  0  0  0  0  0  0  0  0
   -4.8760  -15.8830   44.4190 C   0  0  0  0  0  0  0  0  0  0  0  0
   -4.3360  -15.6270   45.4920 O   0  0  0  0  0  0  0  0  0  0  0  0
   -4.5260  -16.9190   43.6710 N   0  0  0  0  0  0  0  0  0  0  0  0
   -3.4430  -17.7970   44.0780 C   0  0  2  0  0  0  0  0  0  0  0  0
   -2.1240  -17.1860   43.6130 C   0  0  0  0  0  0  0  0  0  0  0  0
   -2.1210  -16.1830   42.9000 O   0  0  0  0  0  0  0  0  0  0  0  0
   -3.6340  -19.1700   43.4630 C   0  0  0  0  0  0  0  0  0  0  0  0
   -1.0110  -17.7860   44.0200 N   0  0  0  0  0  0  0  0  0  0  0  0
    0.3050  -17.2870   43.6220 C   0  0  2  0  0  0  0  0  0  0  0  0
    1.3020  -18.4290   43.5540 C   0  0  0  0  0  0  0  0  0  0  0  0
    0.8330  -16.2150   44.5850 C   0  0  0  0  0  0  0  0  0  0  0  0
    0.8310  -16.4160   45.8010 O   0  0  0  0  0  0  0  0  0  0  0  0
    1.2550  -15.0670   44.0500 N   0  0  0  0  0  0  0  0  0  0  0  0
    0.9840  -14.7550   42.6030 C   0  0  0  0  0  0  0  0  0  0  0  0
    1.8290  -14.0410   44.9110 C   0  0  1  0  0  0  0  0  0  0  0  0
    3.3540  -14.0150   44.7210 C   0  0  0  0  0  0  0  0  0  0  0  0
    4.1250  -15.3390   44.8350 C   0  0  0  0  0  0  0  0  0  0  0  0
    5.5940  -15.1230   44.4700 C   0  0  0  0  0  0  0  0  0  0  0  0
    4.0060  -15.8850   46.2470 C   0  0  0  0  0  0  0  0  0  0  0  0
    1.2750  -12.6250   44.7130 C   0  0  0  0  0  0  0  0  0  0  0  0
    1.9980  -11.7330   44.2680 O   0  0  0  0  0  0  0  0  0  0  0  0
    0.0000  -12.4130   45.0270 N   0  0  0  0  0  0  0  0  0  0  0  0
   -0.8940  -13.5720   45.3730 C   0  0  0  0  0  0  0  0  0  0  0  0
   -0.5660  -11.0710   44.8980 C   0  0  1  0  0  0  0  0  0  0  0  0
   -1.7640  -11.0800   43.9410 C   0  0  0  0  0  0  0  0  0  0  0  0
   -1.5120  -11.4970   42.4840 C   0  0  0  0  0  0  0  0  0  0  0  0
   -2.8280  -11.4700   41.7100 C   0  0  0  0  0  0  0  0  0  0  0  0
   -0.5060  -10.5570   41.8390 C   0  0  0  0  0  0  0  0  0  0  0  0
   -1.0080  -10.5540   46.2730 C   0  0  0  0  0  0  0  0  0  0  0  0
   -1.1640  -11.3380   47.2150 O   0  0  0  0  0  0  0  0  0  0  0  0
   -1.1810   -9.2390   46.4070 N   0  0  0  0  0  0  0  0  0  0  0  0
   -0.8090   -8.3060   45.2940 C   0  0  0  0  0  0  0  0  0  0  0  0
   -1.6370   -8.6930   47.6830 C   0  0  1  0  0  0  0  0  0  0  0  0
   -0.5690   -7.8100   48.3630 C   0  0  0  0  0  0  0  0  0  0  0  0
   -1.0400   -7.4300   49.7650 C   0  0  0  0  0  0  0  0  0  0  0  0
    0.7670   -8.5480   48.4290 C   0  0  0  0  0  0  0  0  0  0  0  0
   -2.8870   -7.8490   47.4500 C   0  0  0  0  0  0  0  0  0  0  0  0
   -2.8070   -6.6320   47.2880 O   0  0  0  0  0  0  0  0  0  0  0  0
   -5.1113  -10.3417   47.6257 H   0  0  0  0  0  0  0  0  0  0  0  0
   -3.6587  -10.1987   48.6727 H   0  0  0  0  0  0  0  0  0  0  0  0
   -3.4704  -10.4910   46.9103 H   0  0  0  0  0  0  0  0  0  0  0  0
   -4.9878   -6.7278   46.9519 H   0  0  0  0  0  0  0  0  0  0  0  0
   -6.9421   -7.6932   45.7938 H   0  0  0  0  0  0  0  0  0  0  0  0
   -6.9830  -10.0005   45.5069 H   0  0  0  0  0  0  0  0  0  0  0  0
   -4.2993   -8.9748   44.9013 H   0  0  0  0  0  0  0  0  0  0  0  0
   -4.0526   -6.9309   43.5282 H   0  0  0  0  0  0  0  0  0  0  0  0
   -4.1074   -6.5425   45.2811 H   0  0  0  0  0  0  0  0  0  0  0  0
   -5.5541   -6.2632   44.2536 H   0  0  0  0  0  0  0  0  0  0  0  0
   -6.1966   -9.9312   43.7237 H   0  0  0  0  0  0  0  0  0  0  0  0
   -5.3307   -8.7980   42.6315 H   0  0  0  0  0  0  0  0  0  0  0  0
   -7.4864   -7.2026   43.7519 H   0  0  0  0  0  0  0  0  0  0  0  0
   -8.0338   -9.5934   41.8058 H   0  0  0  0  0  0  0  0  0  0  0  0
  -10.1477   -8.4719   41.3597 H   0  0  0  0  0  0  0  0  0  0  0  0
   -9.3243   -6.9130   41.7035 H   0  0  0  0  0  0  0  0  0  0  0  0
  -10.0952   -7.8351   43.0385 H   0  0  0  0  0  0  0  0  0  0  0  0
   -7.3566   -6.3271   47.4409 H   0  0  0  0  0  0  0  0  0  0  0  0
   -7.8681   -7.2701   50.2291 H   0  0  0  0  0  0  0  0  0  0  0  0
   -8.5888   -5.0851   50.8144 H   0  0  0  0  0  0  0  0  0  0  0  0
   -8.6960   -4.5705   49.0967 H   0  0  0  0  0  0  0  0  0  0  0  0
   -6.7587   -3.5567   50.2188 H   0  0  0  0  0  0  0  0  0  0  0  0
   -6.2394   -4.6747   48.9123 H   0  0  0  0  0  0  0  0  0  0  0  0
   -6.1323   -5.1893   50.6300 H   0  0  0  0  0  0  0  0  0  0  0  0
  -11.7868   -7.9120   48.1666 H   0  0  0  0  0  0  0  0  0  0  0  0
  -11.8409   -8.9658   49.6203 H   0  0  0  0  0  0  0  0  0  0  0  0
   -7.9640   -8.8336   49.6921 H   0  0  0  0  0  0  0  0  0  0  0  0
   -8.7628  -10.0307   48.6171 H   0  0  0  0  0  0  0  0  0  0  0  0
   -9.2701   -9.8863   50.3343 H   0  0  0  0  0  0  0  0  0  0  0  0
  -10.3323   -7.7524   46.9508 H   0  0  0  0  0  0  0  0  0  0  0  0
  -10.7293   -8.1643   45.2480 H   0  0  0  0  0  0  0  0  0  0  0  0
   -9.1178   -8.5843   45.9214 H   0  0  0  0  0  0  0  0  0  0  0  0
  -11.3432  -11.7410   46.0571 H   0  0  0  0  0  0  0  0  0  0  0  0
  -10.3215   -9.8105   43.9213 H   0  0  0  0  0  0  0  0  0  0  0  0
  -12.0465  -10.1461   44.2932 H   0  0  0  0  0  0  0  0  0  0  0  0
  -10.0090  -12.1551   43.2163 H   0  0  0  0  0  0  0  0  0  0  0  0
  -11.9811  -13.6476   43.0380 H   0  0  0  0  0  0  0  0  0  0  0  0
  -12.9935  -12.3920   43.8286 H   0  0  0  0  0  0  0  0  0  0  0  0
  -11.6541  -13.1699   44.7384 H   0  0  0  0  0  0  0  0  0  0  0  0
  -10.7087  -10.4678   41.5356 H   0  0  0  0  0  0  0  0  0  0  0  0
  -12.4324  -10.8277   41.8907 H   0  0  0  0  0  0  0  0  0  0  0  0
  -11.3839  -12.0891   41.1583 H   0  0  0  0  0  0  0  0  0  0  0  0
   -9.7046  -12.7404   47.2484 H   0  0  0  0  0  0  0  0  0  0  0  0
   -6.9168  -12.2482   46.5755 H   0  0  0  0  0  0  0  0  0  0  0  0
   -8.1778  -14.4937   48.2306 H   0  0  0  0  0  0  0  0  0  0  0  0
   -5.9082  -14.6923   49.1929 H   0  0  0  0  0  0  0  0  0  0  0  0
   -5.3186  -13.4330   48.0558 H   0  0  0  0  0  0  0  0  0  0  0  0
   -5.9082  -15.0081   47.4246 H   0  0  0  0  0  0  0  0  0  0  0  0
   -8.7115  -12.2358   49.0937 H   0  0  0  0  0  0  0  0  0  0  0  0
   -6.9656  -11.8143   49.0675 H   0  0  0  0  0  0  0  0  0  0  0  0
   -7.5629  -13.0990   50.1717 H   0  0  0  0  0  0  0  0  0  0  0  0
   -5.7446  -12.2685   45.9955 H   0  0  0  0  0  0  0  0  0  0  0  0
   -5.2480  -12.3101   44.2697 H   0  0  0  0  0  0  0  0  0  0  0  0
   -4.3807  -13.3169   45.4784 H   0  0  0  0  0  0  0  0  0  0  0  0
   -6.8966  -15.6345   43.7061 H   0  0  0  0  0  0  0  0  0  0  0  0
   -5.3035  -15.1042   41.8686 H   0  0  0  0  0  0  0  0  0  0  0  0
   -4.7103  -13.6912   42.8057 H   0  0  0  0  0  0  0  0  0  0  0  0
   -6.8838  -12.5924   42.6028 H   0  0  0  0  0  0  0  0  0  0  0  0
   -6.9419  -12.2583   40.1539 H   0  0  0  0  0  0  0  0  0  0  0  0
   -5.9263  -13.7230   39.9309 H   0  0  0  0  0  0  0  0  0  0  0  0
   -5.2569  -12.2860   40.7757 H   0  0  0  0  0  0  0  0  0  0  0  0
   -8.2896  -14.6380   42.6731 H   0  0  0  0  0  0  0  0  0  0  0  0
   -7.7217  -15.0803   41.0274 H   0  0  0  0  0  0  0  0  0  0  0  0
   -8.7062  -13.5974   41.2695 H   0  0  0  0  0  0  0  0  0  0  0  0
   -5.0131  -17.0985   42.8163 H   0  0  0  0  0  0  0  0  0  0  0  0
   -3.4370  -17.8900   45.1740 H   0  0  0  0  0  0  0  0  0  0  0  0
   -2.8107  -19.8293   43.7753 H   0  0  0  0  0  0  0  0  0  0  0  0
   -3.6385  -19.0832   42.3664 H   0  0  0  0  0  0  0  0  0  0  0  0
   -4.5912  -19.5934   43.8013 H   0  0  0  0  0  0  0  0  0  0  0  0
   -1.0739  -18.5922   44.6083 H   0  0  0  0  0  0  0  0  0  0  0  0
    0.2128  -16.8387   42.6218 H   0  0  0  0  0  0  0  0  0  0  0  0
    2.2859  -18.0393   43.2539 H   0  0  0  0  0  0  0  0  0  0  0  0
    0.9607  -19.1703   42.8164 H   0  0  0  0  0  0  0  0  0  0  0  0
    1.3822  -18.9051   44.5424 H   0  0  0  0  0  0  0  0  0  0  0  0
    0.5543  -15.6402   42.1113 H   0  0  0  0  0  0  0  0  0  0  0  0
    1.9252  -14.4796   42.1048 H   0  0  0  0  0  0  0  0  0  0  0  0
    0.2744  -13.9172   42.5352 H   0  0  0  0  0  0  0  0  0  0  0  0
    1.6129  -14.3316   45.9497 H   0  0  0  0  0  0  0  0  0  0  0  0
    3.7651  -13.3325   45.4794 H   0  0  0  0  0  0  0  0  0  0  0  0
    3.5503  -13.6093   43.7176 H   0  0  0  0  0  0  0  0  0  0  0  0
    3.6890  -16.0668   44.1348 H   0  0  0  0  0  0  0  0  0  0  0  0
    6.1368  -16.0760   44.5547 H   0  0  0  0  0  0  0  0  0  0  0  0
    6.0377  -14.3862   45.1557 H   0  0  0  0  0  0  0  0  0  0  0  0
    5.6644  -14.7515   43.4370 H   0  0  0  0  0  0  0  0  0  0  0  0
    2.9446  -16.0347   46.4940 H   0  0  0  0  0  0  0  0  0  0  0  0
    4.4499  -15.1700   46.9553 H   0  0  0  0  0  0  0  0  0  0  0  0
    4.5372  -16.8459   46.3146 H   0  0  0  0  0  0  0  0  0  0  0  0
   -0.2957  -14.4935   45.4260 H   0  0  0  0  0  0  0  0  0  0  0  0
   -1.6683  -13.6816   44.5994 H   0  0  0  0  0  0  0  0  0  0  0  0
   -1.3718  -13.3886   46.3467 H   0  0  0  0  0  0  0  0  0  0  0  0
    0.2056  -10.3988   44.4947 H   0  0  0  0  0  0  0  0  0  0  0  0
   -2.1783  -10.0612   43.9239 H   0  0  0  0  0  0  0  0  0  0  0  0
   -2.5108  -11.7727   44.3563 H   0  0  0  0  0  0  0  0  0  0  0  0
   -1.1068  -12.5195   42.4678 H   0  0  0  0  0  0  0  0  0  0  0  0
   -2.6462  -11.7687   40.6671 H   0  0  0  0  0  0  0  0  0  0  0  0
   -3.2458  -10.4527   41.7324 H   0  0  0  0  0  0  0  0  0  0  0  0
   -3.5400  -12.1691   42.1728 H   0  0  0  0  0  0  0  0  0  0  0  0
    0.4370  -10.5850   42.4047 H   0  0  0  0  0  0  0  0  0  0  0  0
   -0.9061   -9.5324   41.8438 H   0  0  0  0  0  0  0  0  0  0  0  0
   -0.3209  -10.8736   40.8019 H   0  0  0  0  0  0  0  0  0  0  0  0
   -0.4918   -8.8894   44.4171 H   0  0  0  0  0  0  0  0  0  0  0  0
    0.0166   -7.6565   45.6204 H   0  0  0  0  0  0  0  0  0  0  0  0
   -1.6788   -7.6875   45.0278 H   0  0  0  0  0  0  0  0  0  0  0  0
   -1.8820   -9.5295   48.3540 H   0  0  0  0  0  0  0  0  0  0  0  0
   -0.4360   -6.8922   47.7714 H   0  0  0  0  0  0  0  0  0  0  0  0
   -0.2789   -6.8008   50.2495 H   0  0  0  0  0  0  0  0  0  0  0  0
   -1.1943   -8.3423   50.3599 H   0  0  0  0  0  0  0  0  0  0  0  0
   -1.9861   -6.8731   49.6956 H   0  0  0  0  0  0  0  0  0  0  0  0
    1.0900   -8.8133   47.4115 H   0  0  0  0  0  0  0  0  0  0  0  0
    0.6509   -9.4637   49.0273 H   0  0  0  0  0  0  0  0  0  0  0  0
    1.5221   -7.8984   48.8957 H   0  0  0  0  0  0  0  0  0  0  0  0
  1  2  1  0  0  0  0
  1  3  1  0  0  0  0
  1 84  1  0  0  0  0
  2 86  1  0  0  0  0
  2 87  1  0  0  0  0
  2 88  1  0  0  0  0
  3  4  1  0  0  0  0
  3  6  1  0  0  0  0
  3 89  1  6  0  0  0
  4  5  2  0  0  0  0
  4 14  1  0  0  0  0
  6  7  1  0  0  0  0
  6  8  1  0  0  0  0
  6 90  1  6  0  0  0
  7 91  1  0  0  0  0
  8  9  1  0  0  0  0
  8 10  1  0  0  0  0
  8 92  1  1  0  0  0
  9 93  1  0  0  0  0
  9 94  1  0  0  0  0
  9 95  1  0  0  0  0
 10 11  1  0  0  0  0
 10 96  1  0  0  0  0
 10 97  1  0  0  0  0
 11 12  2  0  0  0  0
 11 98  1  0  0  0  0
 12 13  1  0  0  0  0
 12 99  1  0  0  0  0
 13100  1  0  0  0  0
 13101  1  0  0  0  0
 13102  1  0  0  0  0
 14 15  1  0  0  0  0
 14103  1  0  0  0  0
 15 16  1  0  0  0  0
 15 18  1  0  0  0  0
 15104  1  1  0  0  0
 16 17  2  0  0  0  0
 16 20  1  0  0  0  0
 18 19  1  0  0  0  0
 18105  1  0  0  0  0
 18106  1  0  0  0  0
 19107  1  0  0  0  0
 19108  1  0  0  0  0
 19109  1  0  0  0  0
 20 21  1  0  0  0  0
 20 24  1  0  0  0  0
 21 22  1  0  0  0  0
 21110  1  0  0  0  0
 21111  1  0  0  0  0
 22 23  2  0  0  0  0
 22 25  1  0  0  0  0
 24112  1  0  0  0  0
 24113  1  0  0  0  0
 24114  1  0  0  0  0
 25 26  1  0  0  0  0
 25 27  1  0  0  0  0
 26115  1  0  0  0  0
 26116  1  0  0  0  0
 26117  1  0  0  0  0
 27 28  1  0  0  0  0
 27 32  1  0  0  0  0
 27118  1  1  0  0  0
 28 29  1  0  0  0  0
 28119  1  0  0  0  0
 28120  1  0  0  0  0
 29 30  1  0  0  0  0
 29 31  1  0  0  0  0
 29121  1  0  0  0  0
 30122  1  0  0  0  0
 30123  1  0  0  0  0
 30124  1  0  0  0  0
 31125  1  0  0  0  0
 31126  1  0  0  0  0
 31127  1  0  0  0  0
 32 33  2  0  0  0  0
 32 34  1  0  0  0  0
 34 35  1  0  0  0  0
 34128  1  0  0  0  0
 35 36  1  0  0  0  0
 35 38  1  0  0  0  0
 35129  1  6  0  0  0
 36 37  2  0  0  0  0
 36 41  1  0  0  0  0
 38 39  1  0  0  0  0
 38 40  1  0  0  0  0
 38130  1  0  0  0  0
 39131  1  0  0  0  0
 39132  1  0  0  0  0
 39133  1  0  0  0  0
 40134  1  0  0  0  0
 40135  1  0  0  0  0
 40136  1  0  0  0  0
 41 42  1  0  0  0  0
 41 43  1  0  0  0  0
 42137  1  0  0  0  0
 42138  1  0  0  0  0
 42139  1  0  0  0  0
 43 44  1  0  0  0  0
 43 48  1  0  0  0  0
 43140  1  6  0  0  0
 44 45  1  0  0  0  0
 44141  1  0  0  0  0
 44142  1  0  0  0  0
 45 46  1  0  0  0  0
 45 47  1  0  0  0  0
 45143  1  0  0  0  0
 46144  1  0  0  0  0
 46145  1  0  0  0  0
 46146  1  0  0  0  0
 47147  1  0  0  0  0
 47148  1  0  0  0  0
 47149  1  0  0  0  0
 48 49  2  0  0  0  0
 48 50  1  0  0  0  0
 50 51  1  0  0  0  0
 50150  1  0  0  0  0
 51 52  1  0  0  0  0
 51 54  1  0  0  0  0
 51151  1  1  0  0  0
 52 53  2  0  0  0  0
 52 55  1  0  0  0  0
 54152  1  0  0  0  0
 54153  1  0  0  0  0
 54154  1  0  0  0  0
 55 56  1  0  0  0  0
 55155  1  0  0  0  0
 56 57  1  0  0  0  0
 56 58  1  0  0  0  0
 56156  1  6  0  0  0
 57157  1  0  0  0  0
 57158  1  0  0  0  0
 57159  1  0  0  0  0
 58 59  2  0  0  0  0
 58 60  1  0  0  0  0
 60 61  1  0  0  0  0
 60 62  1  0  0  0  0
 61160  1  0  0  0  0
 61161  1  0  0  0  0
 61162  1  0  0  0  0
 62 63  1  0  0  0  0
 62 67  1  0  0  0  0
 62163  1  1  0  0  0
 63 64  1  0  0  0  0
 63164  1  0  0  0  0
 63165  1  0  0  0  0
 64 65  1  0  0  0  0
 64 66  1  0  0  0  0
 64166  1  0  0  0  0
 65167  1  0  0  0  0
 65168  1  0  0  0  0
 65169  1  0  0  0  0
 66170  1  0  0  0  0
 66171  1  0  0  0  0
 66172  1  0  0  0  0
 67 68  2  0  0  0  0
 67 69  1  0  0  0  0
 69 70  1  0  0  0  0
 69 71  1  0  0  0  0
 70173  1  0  0  0  0
 70174  1  0  0  0  0
 70175  1  0  0  0  0
 71 72  1  0  0  0  0
 71 76  1  0  0  0  0
 71176  1  6  0  0  0
 72 73  1  0  0  0  0
 72177  1  0  0  0  0
 72178  1  0  0  0  0
 73 74  1  0  0  0  0
 73 75  1  0  0  0  0
 73179  1  0  0  0  0
 74180  1  0  0  0  0
 74181  1  0  0  0  0
 74182  1  0  0  0  0
 75183  1  0  0  0  0
 75184  1  0  0  0  0
 75185  1  0  0  0  0
 76 77  2  0  0  0  0
 76 78  1  0  0  0  0
 78 79  1  0  0  0  0
 78 80  1  0  0  0  0
 79186  1  0  0  0  0
 79187  1  0  0  0  0
 79188  1  0  0  0  0
 80 81  1  0  0  0  0
 80 84  1  0  0  0  0
 80189  1  1  0  0  0
 81 82  1  0  0  0  0
 81 83  1  0  0  0  0
 81190  1  0  0  0  0
 82191  1  0  0  0  0
 82192  1  0  0  0  0
 82193  1  0  0  0  0
 83194  1  0  0  0  0
 83195  1  0  0  0  0
 83196  1  0  0  0  0
 84 85  2  0  0  0  0
M  END
