1c8l_ligand
 OpenBabel08222323343D

 48 49  0  0  1  0  0  0  0  0999 V2000
   27.9840    2.2510   52.8030 C   0  0  0  0  0  0  0  0  0  0  0  0
   27.3740    3.6400   53.2040 C   0  0  0  0  0  0  0  0  0  0  0  0
   27.5180    4.1850   54.5800 C   0  0  0  0  0  0  0  0  0  0  0  0
   28.2810    3.3460   55.5780 C   0  0  0  0  0  0  0  0  0  0  0  0
   28.8430    2.1180   55.2840 C   0  0  0  0  0  0  0  0  0  0  0  0
   28.7160    1.5580   53.9240 C   0  0  0  0  0  0  0  0  0  0  0  0
   27.8130    1.6960   51.2780 C   0  0  2  0  0  0  0  0  0  0  0  0
   26.9240    0.2420   51.2620 C   0  0  0  0  0  0  0  0  0  0  0  0
   29.9220    0.3260   50.5510 C   0  0  0  0  0  0  0  0  0  0  0  0
   27.5800   -1.0080   51.0400 C   0  0  0  0  0  0  0  0  0  0  0  0
   29.2470    1.6420   50.7020 C   0  0  0  0  0  0  0  0  0  0  0  0
   29.9120    3.0060   50.3170 C   0  0  0  0  0  0  0  0  0  0  0  0
   31.2670    0.2260   50.0340 C   0  0  0  0  0  0  0  0  0  0  0  0
   26.9550   -2.3850   50.9090 C   0  0  0  0  0  0  0  0  0  0  0  0
   30.1650   -2.1880   53.0780 C   0  0  0  0  0  0  0  0  0  0  0  0
   29.9110   -2.0780   51.5870 C   0  0  0  0  0  0  0  0  0  0  0  0
   25.3130    0.4070   51.4540 C   0  0  0  0  0  0  0  0  0  0  0  0
   23.3250    2.0490   51.2840 C   0  0  0  0  0  0  0  0  0  0  0  0
   23.1830    2.5150   52.7870 C   0  0  0  0  0  0  0  0  0  0  0  0
   23.1540    3.1190   50.2240 C   0  0  0  0  0  0  0  0  0  0  0  0
   29.1240   -0.9320   50.9800 N   0  0  0  0  0  0  0  0  0  0  0  0
   29.1510    3.9740   50.0270 O   0  5  0  0  0  0  0  0  0  0  0  0
   31.1170    3.2400   50.2400 O   0  0  0  0  0  0  0  0  0  0  0  0
   32.1510    0.5650   50.8990 O   0  5  0  0  0  0  0  0  0  0  0  0
   31.4150   -0.1680   48.9280 O   0  0  0  0  0  0  0  0  0  0  0  0
   24.6060   -0.4760   51.9310 O   0  0  0  0  0  0  0  0  0  0  0  0
   24.8660    1.6380   51.1200 O   0  0  0  0  0  0  0  0  0  0  0  0
   26.5250    4.5890   52.1160 Cl  0  0  0  0  0  0  0  0  0  0  0  0
   27.0935    5.1437   54.8553 H   0  0  0  0  0  0  0  0  0  0  0  0
   28.3946    3.7302   56.5853 H   0  0  0  0  0  0  0  0  0  0  0  0
   29.3760    1.5672   56.0505 H   0  0  0  0  0  0  0  0  0  0  0  0
   29.1738    0.5967   53.7204 H   0  0  0  0  0  0  0  0  0  0  0  0
   27.2395    2.4274   50.6897 H   0  0  0  0  0  0  0  0  0  0  0  0
   25.8600   -2.2978   50.9678 H   0  0  0  0  0  0  0  0  0  0  0  0
   27.3156   -3.0304   51.7235 H   0  0  0  0  0  0  0  0  0  0  0  0
   27.2362   -2.8248   49.9408 H   0  0  0  0  0  0  0  0  0  0  0  0
   30.7533   -3.0944   53.2838 H   0  0  0  0  0  0  0  0  0  0  0  0
   29.2042   -2.2458   53.6104 H   0  0  0  0  0  0  0  0  0  0  0  0
   30.7218   -1.3037   53.4213 H   0  0  0  0  0  0  0  0  0  0  0  0
   29.3835   -2.9988   51.2975 H   0  0  0  0  0  0  0  0  0  0  0  0
   30.9012   -2.0567   51.1084 H   0  0  0  0  0  0  0  0  0  0  0  0
   22.6409    1.2099   51.0896 H   0  0  0  0  0  0  0  0  0  0  0  0
   22.1430    2.8163   52.9807 H   0  0  0  0  0  0  0  0  0  0  0  0
   23.8523    3.3683   52.9711 H   0  0  0  0  0  0  0  0  0  0  0  0
   23.4548    1.6849   53.4555 H   0  0  0  0  0  0  0  0  0  0  0  0
   23.2753    2.6702   49.2271 H   0  0  0  0  0  0  0  0  0  0  0  0
   23.9126    3.9025   50.3681 H   0  0  0  0  0  0  0  0  0  0  0  0
   22.1501    3.5608   50.3075 H   0  0  0  0  0  0  0  0  0  0  0  0
  1  2  2  0  0  0  0
  1  6  1  0  0  0  0
  2  3  1  0  0  0  0
  2 28  1  0  0  0  0
  3  4  2  0  0  0  0
  3 29  1  0  0  0  0
  4 30  1  0  0  0  0
  5  4  1  0  0  0  0
  5 31  1  0  0  0  0
  6  5  2  0  0  0  0
  6 32  1  0  0  0  0
  7  1  1  0  0  0  0
  7 11  1  0  0  0  0
  7 33  1  6  0  0  0
  8  7  1  0  0  0  0
  8 10  2  0  0  0  0
  9 13  1  0  0  0  0
 10 14  1  0  0  0  0
 10 21  1  0  0  0  0
 11  9  2  0  0  0  0
 11 12  1  0  0  0  0
 12 22  1  0  0  0  0
 12 23  2  0  0  0  0
 13 24  1  0  0  0  0
 13 25  2  0  0  0  0
 14 34  1  0  0  0  0
 14 35  1  0  0  0  0
 14 36  1  0  0  0  0
 15 37  1  0  0  0  0
 15 38  1  0  0  0  0
 15 39  1  0  0  0  0
 16 15  1  0  0  0  0
 16 40  1  0  0  0  0
 16 41  1  0  0  0  0
 17  8  1  0  0  0  0
 17 26  2  0  0  0  0
 18 19  1  0  0  0  0
 18 20  1  0  0  0  0
 18 27  1  0  0  0  0
 18 42  1  0  0  0  0
 19 43  1  0  0  0  0
 19 44  1  0  0  0  0
 19 45  1  0  0  0  0
 20 46  1  0  0  0  0
 20 47  1  0  0  0  0
 20 48  1  0  0  0  0
 21  9  1  0  0  0  0
 21 16  1  0  0  0  0
 27 17  1  0  0  0  0
M  CHG  2  22  -1  24  -1
M  END
