1c9d_ligand
 OpenBabel08222323343D

 29 29  0  0  0  0  0  0  0  0999 V2000
   48.6380   29.6800    9.8960 P   0  0  0  0  0  0  0  0  0  0  0  0
   47.4120   30.4050    9.8700 O   0  0  0  0  0  1  0  0  0  0  0  0
   48.7220   28.8610    8.7600 O   0  0  0  0  0  1  0  0  0  0  0  0
   49.7060   30.5850    9.9370 O   0  0  0  0  0  0  0  0  0  0  0  0
   48.6670   29.4480   12.7140 C   0  0  0  0  0  0  0  0  0  0  0  0
   48.3390   27.9400   14.7410 C   0  0  0  0  0  0  0  0  0  0  0  0
   49.9650   24.7630   15.6320 C   0  0  0  0  0  0  0  0  0  0  0  0
   50.3470   26.1260   15.7160 C   0  0  0  0  0  0  0  0  0  0  0  0
   51.7050   26.5190   15.3850 C   0  0  0  0  0  0  0  0  0  0  0  0
   52.1370   27.8750   15.4570 O   0  0  0  0  0  0  0  0  0  0  0  0
   52.6290   25.5320   14.9870 C   0  0  0  0  0  0  0  0  0  0  0  0
   52.2260   24.1720   14.9110 C   0  0  0  0  0  0  0  0  0  0  0  0
   50.8850   23.7960   15.2390 C   0  0  0  0  0  0  0  0  0  0  0  0
   50.5000   22.4760   15.1660 F   0  0  0  0  0  0  0  0  0  0  0  0
   49.0870   27.2930   16.2430 S   0  0  0  0  0  0  0  0  0  0  0  0
   49.2980   28.8680   13.9960 C   0  0  0  0  0  0  0  0  0  0  0  0
   48.7210   28.6310   11.4210 C   0  0  0  0  0  0  0  0  0  0  0  0
   49.1715   30.4043   12.5114 H   0  0  0  0  0  0  0  0  0  0  0  0
   47.6051   29.6329   12.9334 H   0  0  0  0  0  0  0  0  0  0  0  0
   47.4312   28.5017   15.0064 H   0  0  0  0  0  0  0  0  0  0  0  0
   48.0712   27.0996   14.0837 H   0  0  0  0  0  0  0  0  0  0  0  0
   48.9495   24.4725   15.8756 H   0  0  0  0  0  0  0  0  0  0  0  0
   53.0510   27.9288   15.2039 H   0  0  0  0  0  0  0  0  0  0  0  0
   53.6468   25.8106   14.7390 H   0  0  0  0  0  0  0  0  0  0  0  0
   52.9382   23.4150   14.6029 H   0  0  0  0  0  0  0  0  0  0  0  0
   49.5760   29.6986   14.6614 H   0  0  0  0  0  0  0  0  0  0  0  0
   50.1994   28.3002   13.7219 H   0  0  0  0  0  0  0  0  0  0  0  0
   49.6629   28.0630   11.4047 H   0  0  0  0  0  0  0  0  0  0  0  0
   47.8713   27.9325   11.4123 H   0  0  0  0  0  0  0  0  0  0  0  0
  1  2  1  0  0  0  0
  1  3  1  0  0  0  0
  1  4  2  0  0  0  0
  5 17  1  0  0  0  0
  5 18  1  0  0  0  0
  5 19  1  0  0  0  0
  6 16  1  0  0  0  0
  6 20  1  0  0  0  0
  6 21  1  0  0  0  0
  7 13  1  0  0  0  0
  7 22  1  0  0  0  0
  8  7  2  0  0  0  0
  8  9  1  0  0  0  0
  8 15  1  0  0  0  0
  9 10  1  0  0  0  0
  9 11  2  0  0  0  0
 10 23  1  0  0  0  0
 11 12  1  0  0  0  0
 11 24  1  0  0  0  0
 12 13  2  0  0  0  0
 12 25  1  0  0  0  0
 13 14  1  0  0  0  0
 15  6  1  0  0  0  0
 16  5  1  0  0  0  0
 16 26  1  0  0  0  0
 16 27  1  0  0  0  0
 17  1  1  0  0  0  0
 17 28  1  0  0  0  0
 17 29  1  0  0  0  0
M  END
