1ci7_ligand
 OpenBabel08222323343D

 56 58  0  0  1  0  0  0  0  0999 V2000
  108.7850  -21.9730   56.2760 N   0  0  0  0  0  0  0  0  0  0  0  0
  108.3030  -20.7440   56.6860 C   0  0  0  0  0  0  0  0  0  0  0  0
  107.8000  -20.5760   57.9110 N   0  0  0  0  0  0  0  0  0  0  0  0
  108.3720  -19.6830   55.8120 N   0  0  0  0  0  0  0  0  0  0  0  0
  108.9460  -19.7890   54.5530 C   0  0  0  0  0  0  0  0  0  0  0  0
  108.8670  -18.6610   53.7420 O   0  0  0  0  0  0  0  0  0  0  0  0
  109.5540  -21.0380   54.1200 C   0  0  0  0  0  0  0  0  0  0  0  0
  110.2490  -21.2560   52.8710 C   0  0  0  0  0  0  0  0  0  0  0  0
  110.8100  -22.5530   52.5190 C   0  0  0  0  0  0  0  0  0  0  0  0
  110.6480  -23.6520   53.4380 C   0  0  0  0  0  0  0  0  0  0  0  0
  109.9650  -23.4570   54.6990 C   0  0  0  0  0  0  0  0  0  0  0  0
  109.4200  -22.1620   55.0600 C   0  0  0  0  0  0  0  0  0  0  0  0
  111.7410  -22.7620   51.3740 C   0  0  0  0  0  0  0  0  0  0  0  0
  112.2980  -21.5610   50.6720 N   0  0  0  0  0  0  0  0  0  0  0  0
  115.3200  -18.9300   52.1750 C   0  0  0  0  0  0  0  0  0  0  0  0
  115.1670  -20.2440   52.7120 C   0  0  0  0  0  0  0  0  0  0  0  0
  114.1350  -21.1020   52.2100 C   0  0  0  0  0  0  0  0  0  0  0  0
  113.2260  -20.6700   51.1690 C   0  0  0  0  0  0  0  0  0  0  0  0
  113.3410  -19.3070   50.6930 C   0  0  0  0  0  0  0  0  0  0  0  0
  114.3800  -18.4440   51.1920 C   0  0  0  0  0  0  0  0  0  0  0  0
  116.5060  -18.1900   52.5250 C   0  0  0  0  0  0  0  0  0  0  0  0
  117.1550  -18.4340   53.5420 O   0  0  0  0  0  0  0  0  0  0  0  0
  116.8680  -17.2210   51.6800 N   0  0  0  0  0  0  0  0  0  0  0  0
  117.9660  -16.2330   51.7860 C   0  0  2  0  0  0  0  0  0  0  0  0
  118.4530  -15.7990   53.1710 C   0  0  0  0  0  0  0  0  0  0  0  0
  119.3910  -16.7840   53.8630 C   0  0  0  0  0  0  0  0  0  0  0  0
  120.6500  -17.0690   53.0540 C   0  0  0  0  0  0  0  0  0  0  0  0
  121.3090  -16.1040   52.5940 O   0  5  0  0  0  0  0  0  0  0  0  0
  120.9880  -18.2620   52.8890 O   0  0  0  0  0  0  0  0  0  0  0  0
  117.6530  -15.0140   50.9180 C   0  0  0  0  0  0  0  0  0  0  0  0
  116.9600  -15.1920   49.8910 O   0  5  0  0  0  0  0  0  0  0  0  0
  118.1000  -13.8990   51.2680 O   0  0  0  0  0  0  0  0  0  0  0  0
  111.9960  -21.5880   49.2190 C   0  0  0  0  0  0  0  0  0  0  0  0
  111.5860  -20.2860   48.6760 C   0  0  0  0  0  0  0  0  0  0  0  0
  111.2430  -19.2650   48.1460 C   0  0  0  0  0  0  0  0  0  0  0  0
  108.6668  -22.7827   56.9016 H   0  0  0  0  0  0  0  0  0  0  0  0
  107.4452  -19.6532   58.1999 H   0  0  0  0  0  0  0  0  0  0  0  0
  107.7667  -21.3691   58.5673 H   0  0  0  0  0  0  0  0  0  0  0  0
  110.3555  -20.4304   52.1767 H   0  0  0  0  0  0  0  0  0  0  0  0
  111.0400  -24.6300   53.1830 H   0  0  0  0  0  0  0  0  0  0  0  0
  109.8592  -24.2907   55.3836 H   0  0  0  0  0  0  0  0  0  0  0  0
  111.2010  -23.3555   50.6216 H   0  0  0  0  0  0  0  0  0  0  0  0
  112.5960  -23.3410   51.7532 H   0  0  0  0  0  0  0  0  0  0  0  0
  115.8292  -20.5914   53.4968 H   0  0  0  0  0  0  0  0  0  0  0  0
  114.0322  -22.1001   52.6201 H   0  0  0  0  0  0  0  0  0  0  0  0
  112.6396  -18.9337   49.9556 H   0  0  0  0  0  0  0  0  0  0  0  0
  114.4570  -17.4257   50.8285 H   0  0  0  0  0  0  0  0  0  0  0  0
  116.3138  -17.1523   50.8504 H   0  0  0  0  0  0  0  0  0  0  0  0
  118.8349  -16.7283   51.3282 H   0  0  0  0  0  0  0  0  0  0  0  0
  117.5716  -15.6581   53.8139 H   0  0  0  0  0  0  0  0  0  0  0  0
  118.9839  -14.8418   53.0616 H   0  0  0  0  0  0  0  0  0  0  0  0
  118.8528  -17.7303   54.0203 H   0  0  0  0  0  0  0  0  0  0  0  0
  119.6861  -16.3639   54.8358 H   0  0  0  0  0  0  0  0  0  0  0  0
  111.1821  -22.3077   49.0469 H   0  0  0  0  0  0  0  0  0  0  0  0
  112.8977  -21.9192   48.6831 H   0  0  0  0  0  0  0  0  0  0  0  0
  110.9413  -18.3668   47.6798 H   0  0  0  0  0  0  0  0  0  0  0  0
  1  2  1  0  0  0  0
  1 36  1  0  0  0  0
  2  3  1  0  0  0  0
  3 37  1  0  0  0  0
  3 38  1  0  0  0  0
  4  2  2  0  0  0  0
  5  4  1  0  0  0  0
  5  6  2  0  0  0  0
  7  5  1  0  0  0  0
  7 12  1  0  0  0  0
  8  7  2  0  0  0  0
  8 39  1  0  0  0  0
  9  8  1  0  0  0  0
  9 10  2  0  0  0  0
 10 11  1  0  0  0  0
 10 40  1  0  0  0  0
 11 12  2  0  0  0  0
 11 41  1  0  0  0  0
 12  1  1  0  0  0  0
 13  9  1  0  0  0  0
 13 42  1  0  0  0  0
 13 43  1  0  0  0  0
 14 13  1  0  0  0  0
 14 33  1  0  0  0  0
 15 20  1  0  0  0  0
 15 21  1  0  0  0  0
 16 15  2  0  0  0  0
 16 44  1  0  0  0  0
 17 16  1  0  0  0  0
 17 18  2  0  0  0  0
 17 45  1  0  0  0  0
 18 14  1  0  0  0  0
 18 19  1  0  0  0  0
 19 20  2  0  0  0  0
 19 46  1  0  0  0  0
 20 47  1  0  0  0  0
 21 22  2  0  0  0  0
 21 23  1  0  0  0  0
 23 24  1  0  0  0  0
 23 48  1  0  0  0  0
 24 25  1  0  0  0  0
 24 30  1  0  0  0  0
 24 49  1  6  0  0  0
 25 26  1  0  0  0  0
 25 50  1  0  0  0  0
 25 51  1  0  0  0  0
 26 27  1  0  0  0  0
 26 52  1  0  0  0  0
 26 53  1  0  0  0  0
 27 28  1  0  0  0  0
 27 29  2  0  0  0  0
 30 31  1  0  0  0  0
 30 32  2  0  0  0  0
 33 34  1  0  0  0  0
 33 54  1  0  0  0  0
 33 55  1  0  0  0  0
 34 35  3  0  0  0  0
 35 56  1  0  0  0  0
M  CHG  2  28  -1  31  -1
M  END
