1cka_ligand
 OpenBabel08222323343D

147151  0  0  1  0  0  0  0  0999 V2000
  123.4010  141.3890   19.5450 N   0  3  0  0  0  0  0  0  0  0  0  0
  122.8660  140.8050   18.3160 C   0  0  2  0  0  0  0  0  0  0  0  0
  122.1830  139.4680   18.5490 C   0  0  0  0  0  0  0  0  0  0  0  0
  122.4260  138.8000   19.5520 O   0  0  0  0  0  0  0  0  0  0  0  0
  124.1130  140.6710   17.4470 C   0  0  0  0  0  0  0  0  0  0  0  0
  124.8310  141.9610   17.7610 C   0  0  0  0  0  0  0  0  0  0  0  0
  124.6710  142.1000   19.2800 C   0  0  0  0  0  0  0  0  0  0  0  0
  121.2660  139.0940   17.6450 N   0  0  0  0  0  0  0  0  0  0  0  0
  120.4870  137.8550   17.6690 C   0  0  2  0  0  0  0  0  0  0  0  0
  121.3150  136.5970   17.5210 C   0  0  0  0  0  0  0  0  0  0  0  0
  122.5050  136.6470   17.2210 O   0  0  0  0  0  0  0  0  0  0  0  0
  119.5650  138.0210   16.4560 C   0  0  0  0  0  0  0  0  0  0  0  0
  119.3730  139.4830   16.3690 C   0  0  0  0  0  0  0  0  0  0  0  0
  120.7780  139.9810   16.5750 C   0  0  0  0  0  0  0  0  0  0  0  0
  120.6910  135.4380   17.7230 N   0  0  0  0  0  0  0  0  0  0  0  0
  121.3980  134.1690   17.5880 C   0  0  2  0  0  0  0  0  0  0  0  0
  121.5500  133.8670   16.1040 C   0  0  0  0  0  0  0  0  0  0  0  0
  121.0330  134.5990   15.2510 O   0  0  0  0  0  0  0  0  0  0  0  0
  120.4380  133.1880   18.2410 C   0  0  0  0  0  0  0  0  0  0  0  0
  119.1280  133.7400   17.8360 C   0  0  0  0  0  0  0  0  0  0  0  0
  119.2930  135.2050   18.1180 C   0  0  0  0  0  0  0  0  0  0  0  0
  122.2670  132.7940   15.7980 N   0  0  0  0  0  0  0  0  0  0  0  0
  122.4840  132.3980   14.4080 C   0  0  2  0  0  0  0  0  0  0  0  0
  121.1430  132.0660   13.7410 C   0  0  0  0  0  0  0  0  0  0  0  0
  120.2670  131.4580   14.3660 O   0  0  0  0  0  0  0  0  0  0  0  0
  123.4180  131.1750   14.3550 C   0  0  0  0  0  0  0  0  0  0  0  0
  123.5673  140.6543   20.2148 H   0  0  0  0  0  0  0  0  0  0  0  0
  120.9890  132.4830   12.4880 N   0  0  0  0  0  0  0  0  0  0  0  0
  119.7730  132.1890   11.7120 C   0  0  2  0  0  0  0  0  0  0  0  0
  119.9450  130.7630   11.1930 C   0  0  0  0  0  0  0  0  0  0  0  0
  120.9350  130.4500   10.5380 O   0  0  0  0  0  0  0  0  0  0  0  0
  119.6700  133.1390   10.5270 C   0  0  0  0  0  0  0  0  0  0  0  0
  118.3080  133.4950    9.9700 C   0  0  0  0  0  0  0  0  0  0  0  0
  117.3770  134.0170   11.0960 C   0  0  0  0  0  0  0  0  0  0  0  0
  118.5280  134.5710    8.9120 C   0  0  0  0  0  0  0  0  0  0  0  0
  122.7298  142.0405   19.9206 H   0  0  0  0  0  0  0  0  0  0  0  0
  118.9930  129.8720   11.4930 N   0  0  0  0  0  0  0  0  0  0  0  0
  119.1470  128.4930   11.0060 C   0  0  2  0  0  0  0  0  0  0  0  0
  118.9980  128.3800    9.4870 C   0  0  0  0  0  0  0  0  0  0  0  0
  118.3630  129.2250    8.8570 O   0  0  0  0  0  0  0  0  0  0  0  0
  118.0230  127.7460   11.7290 C   0  0  0  0  0  0  0  0  0  0  0  0
  116.9380  128.8350   11.8580 C   0  0  0  0  0  0  0  0  0  0  0  0
  117.7200  130.0660   12.2120 C   0  0  0  0  0  0  0  0  0  0  0  0
  119.6410  127.3720    8.8710 N   0  0  0  0  0  0  0  0  0  0  0  0
  119.4890  127.2530    7.4150 C   0  0  2  0  0  0  0  0  0  0  0  0
  118.0620  126.8050    7.1200 C   0  0  0  0  0  0  0  0  0  0  0  0
  117.4280  126.1900    7.9740 O   0  0  0  0  0  0  0  0  0  0  0  0
  120.4730  126.1240    7.0580 C   0  0  0  0  0  0  0  0  0  0  0  0
  120.5300  125.2970    8.2900 C   0  0  0  0  0  0  0  0  0  0  0  0
  120.5710  126.3490    9.3840 C   0  0  0  0  0  0  0  0  0  0  0  0
  117.5420  127.1520    5.9500 N   0  0  0  0  0  0  0  0  0  0  0  0
  116.2140  126.6790    5.5720 C   0  0  2  0  0  0  0  0  0  0  0  0
  116.4210  125.3750    4.7960 C   0  0  0  0  0  0  0  0  0  0  0  0
  117.4240  125.2040    4.0890 O   0  0  0  0  0  0  0  0  0  0  0  0
  115.4850  127.7040    4.7090 C   0  0  0  0  0  0  0  0  0  0  0  0
  114.9600  128.8900    5.4990 C   0  0  0  0  0  0  0  0  0  0  0  0
  114.1880  129.8270    4.6140 C   0  0  0  0  0  0  0  0  0  0  0  0
  113.4870  130.8830    5.4200 C   0  0  0  0  0  0  0  0  0  0  0  0
  112.8910  131.9130    4.5340 N   0  3  0  0  0  0  0  0  0  0  0  0
  122.1426  141.4897   17.8494 H   0  0  0  0  0  0  0  0  0  0  0  0
  123.8550  140.6030   16.3799 H   0  0  0  0  0  0  0  0  0  0  0  0
  124.7130  139.7954   17.7357 H   0  0  0  0  0  0  0  0  0  0  0  0
  124.3641  142.8083   17.2375 H   0  0  0  0  0  0  0  0  0  0  0  0
  115.5080  124.4340    4.9770 N   0  0  0  0  0  0  0  0  0  0  0  0
  115.6100  123.1650    4.2790 C   0  0  2  0  0  0  0  0  0  0  0  0
  114.7350  123.2050    3.0280 C   0  0  0  0  0  0  0  0  0  0  0  0
  115.1790  122.0370    5.2050 C   0  0  0  0  0  0  0  0  0  0  0  0
  115.9040  122.0600    6.5450 C   0  0  0  0  0  0  0  0  0  0  0  0
  115.6260  120.7920    7.3260 C   0  0  0  0  0  0  0  0  0  0  0  0
  116.5190  120.6770    8.5530 C   0  0  0  0  0  0  0  0  0  0  0  0
  116.3350  119.3590    9.2390 N   0  3  0  0  0  0  0  0  0  0  0  0
  125.8931  141.8977   17.4818 H   0  0  0  0  0  0  0  0  0  0  0  0
  125.5089  141.6249   19.8113 H   0  0  0  0  0  0  0  0  0  0  0  0
  124.6018  143.1573   19.5755 H   0  0  0  0  0  0  0  0  0  0  0  0
  119.9069  137.7889   18.6013 H   0  0  0  0  0  0  0  0  0  0  0  0
  118.6059  137.5071   16.6174 H   0  0  0  0  0  0  0  0  0  0  0  0
  120.0407  137.6316   15.5438 H   0  0  0  0  0  0  0  0  0  0  0  0
  118.6976  139.8475   17.1570 H   0  0  0  0  0  0  0  0  0  0  0  0
  118.9816  139.7793   15.3846 H   0  0  0  0  0  0  0  0  0  0  0  0
  121.3787  139.8710   15.6601 H   0  0  0  0  0  0  0  0  0  0  0  0
  120.7857  141.0336   16.8944 H   0  0  0  0  0  0  0  0  0  0  0  0
  122.3782  134.1785   18.0872 H   0  0  0  0  0  0  0  0  0  0  0  0
  120.5509  133.1839   19.3352 H   0  0  0  0  0  0  0  0  0  0  0  0
  120.5809  132.1684   17.8538 H   0  0  0  0  0  0  0  0  0  0  0  0
  118.3124  133.3091   18.4352 H   0  0  0  0  0  0  0  0  0  0  0  0
  118.9334  133.5600   16.7684 H   0  0  0  0  0  0  0  0  0  0  0  0
  118.6009  135.8087   17.5127 H   0  0  0  0  0  0  0  0  0  0  0  0
  119.1368  135.4267   19.1840 H   0  0  0  0  0  0  0  0  0  0  0  0
  122.6668  132.2455   16.5324 H   0  0  0  0  0  0  0  0  0  0  0  0
  122.9551  133.2320   13.8672 H   0  0  0  0  0  0  0  0  0  0  0  0
  123.5781  130.8811   13.3072 H   0  0  0  0  0  0  0  0  0  0  0  0
  122.9596  130.3394   14.9042 H   0  0  0  0  0  0  0  0  0  0  0  0
  124.3836  131.4308   14.8156 H   0  0  0  0  0  0  0  0  0  0  0  0
  121.7213  133.0124   12.0597 H   0  0  0  0  0  0  0  0  0  0  0  0
  118.8766  132.2729   12.3440 H   0  0  0  0  0  0  0  0  0  0  0  0
  120.2433  132.6868    9.7043 H   0  0  0  0  0  0  0  0  0  0  0  0
  120.1471  134.0823   10.8313 H   0  0  0  0  0  0  0  0  0  0  0  0
  117.8507  132.6073    9.5086 H   0  0  0  0  0  0  0  0  0  0  0  0
  116.3942  134.2697   10.6714 H   0  0  0  0  0  0  0  0  0  0  0  0
  117.8208  134.9140   11.5524 H   0  0  0  0  0  0  0  0  0  0  0  0
  117.2558  133.2374   11.8625 H   0  0  0  0  0  0  0  0  0  0  0  0
  119.1896  134.1810    8.1245 H   0  0  0  0  0  0  0  0  0  0  0  0
  118.9922  135.4532    9.3771 H   0  0  0  0  0  0  0  0  0  0  0  0
  117.5610  134.8549    8.4712 H   0  0  0  0  0  0  0  0  0  0  0  0
  120.1295  128.0922   11.2959 H   0  0  0  0  0  0  0  0  0  0  0  0
  118.3512  127.3911   12.7171 H   0  0  0  0  0  0  0  0  0  0  0  0
  117.6636  126.8935   11.1340 H   0  0  0  0  0  0  0  0  0  0  0  0
  116.2201  128.5830   12.6524 H   0  0  0  0  0  0  0  0  0  0  0  0
  116.4009  128.9699   10.9076 H   0  0  0  0  0  0  0  0  0  0  0  0
  117.2051  130.9741   11.8653 H   0  0  0  0  0  0  0  0  0  0  0  0
  117.8854  130.1301   13.2976 H   0  0  0  0  0  0  0  0  0  0  0  0
  119.7257  128.1902    6.8900 H   0  0  0  0  0  0  0  0  0  0  0  0
  121.4650  126.5320    6.8143 H   0  0  0  0  0  0  0  0  0  0  0  0
  120.1001  125.5342    6.2077 H   0  0  0  0  0  0  0  0  0  0  0  0
  121.4331  124.6692    8.3070 H   0  0  0  0  0  0  0  0  0  0  0  0
  119.6384  124.6595    8.3836 H   0  0  0  0  0  0  0  0  0  0  0  0
  120.2228  125.9395   10.3437 H   0  0  0  0  0  0  0  0  0  0  0  0
  121.5850  126.7576    9.5059 H   0  0  0  0  0  0  0  0  0  0  0  0
  118.0601  127.7379    5.3268 H   0  0  0  0  0  0  0  0  0  0  0  0
  115.6179  126.4856    6.4760 H   0  0  0  0  0  0  0  0  0  0  0  0
  114.6347  127.2067    4.2195 H   0  0  0  0  0  0  0  0  0  0  0  0
  116.1825  128.0755    3.9439 H   0  0  0  0  0  0  0  0  0  0  0  0
  115.8089  129.4313    5.9422 H   0  0  0  0  0  0  0  0  0  0  0  0
  114.2996  128.5252    6.2994 H   0  0  0  0  0  0  0  0  0  0  0  0
  113.4399  129.2518    4.0487 H   0  0  0  0  0  0  0  0  0  0  0  0
  114.8830  130.3130    3.9134 H   0  0  0  0  0  0  0  0  0  0  0  0
  114.2119  131.3628    6.0939 H   0  0  0  0  0  0  0  0  0  0  0  0
  112.6894  130.4131    6.0141 H   0  0  0  0  0  0  0  0  0  0  0  0
  112.4266  132.6103    5.0945 H   0  0  0  0  0  0  0  0  0  0  0  0
  112.2231  131.4791    3.9162 H   0  0  0  0  0  0  0  0  0  0  0  0
  113.6183  132.3494    3.9894 H   0  0  0  0  0  0  0  0  0  0  0  0
  114.7424  124.5983    5.5990 H   0  0  0  0  0  0  0  0  0  0  0  0
  116.6553  123.0000    3.9789 H   0  0  0  0  0  0  0  0  0  0  0  0
  114.8103  122.2446    2.4970 H   0  0  0  0  0  0  0  0  0  0  0  0
  115.0756  124.0165    2.3681 H   0  0  0  0  0  0  0  0  0  0  0  0
  113.6888  123.3826    3.3178 H   0  0  0  0  0  0  0  0  0  0  0  0
  115.3874  121.0772    4.7097 H   0  0  0  0  0  0  0  0  0  0  0  0
  114.0983  122.1276    5.3891 H   0  0  0  0  0  0  0  0  0  0  0  0
  115.5580  122.9263    7.1280 H   0  0  0  0  0  0  0  0  0  0  0  0
  116.9864  122.1454    6.3686 H   0  0  0  0  0  0  0  0  0  0  0  0
  115.8048  119.9251    6.6730 H   0  0  0  0  0  0  0  0  0  0  0  0
  114.5748  120.7965    7.6499 H   0  0  0  0  0  0  0  0  0  0  0  0
  116.2676  121.4848    9.2560 H   0  0  0  0  0  0  0  0  0  0  0  0
  117.5695  120.7753    8.2420 H   0  0  0  0  0  0  0  0  0  0  0  0
  116.9380  119.3129   10.0454 H   0  0  0  0  0  0  0  0  0  0  0  0
  116.5681  118.6133    8.6021 H   0  0  0  0  0  0  0  0  0  0  0  0
  115.3751  119.2635    9.5314 H   0  0  0  0  0  0  0  0  0  0  0  0
  1  2  1  0  0  0  0
  1  7  1  0  0  0  0
  1 27  1  0  0  0  0
  1 36  1  0  0  0  0
  2  3  1  0  0  0  0
  2  5  1  0  0  0  0
  2 60  1  6  0  0  0
  3  4  2  0  0  0  0
  3  8  1  0  0  0  0
  5  6  1  0  0  0  0
  5 61  1  0  0  0  0
  5 62  1  0  0  0  0
  6  7  1  0  0  0  0
  6 63  1  0  0  0  0
  6 72  1  0  0  0  0
  7 73  1  0  0  0  0
  7 74  1  0  0  0  0
  8  9  1  0  0  0  0
  8 14  1  0  0  0  0
  9 10  1  0  0  0  0
  9 12  1  0  0  0  0
  9 75  1  1  0  0  0
 10 11  2  0  0  0  0
 10 15  1  0  0  0  0
 12 13  1  0  0  0  0
 12 76  1  0  0  0  0
 12 77  1  0  0  0  0
 13 14  1  0  0  0  0
 13 78  1  0  0  0  0
 13 79  1  0  0  0  0
 14 80  1  0  0  0  0
 14 81  1  0  0  0  0
 15 16  1  0  0  0  0
 15 21  1  0  0  0  0
 16 17  1  0  0  0  0
 16 19  1  0  0  0  0
 16 82  1  1  0  0  0
 17 18  2  0  0  0  0
 17 22  1  0  0  0  0
 19 20  1  0  0  0  0
 19 83  1  0  0  0  0
 19 84  1  0  0  0  0
 20 21  1  0  0  0  0
 20 85  1  0  0  0  0
 20 86  1  0  0  0  0
 21 87  1  0  0  0  0
 21 88  1  0  0  0  0
 22 23  1  0  0  0  0
 22 89  1  0  0  0  0
 23 24  1  0  0  0  0
 23 26  1  0  0  0  0
 23 90  1  6  0  0  0
 24 25  2  0  0  0  0
 24 28  1  0  0  0  0
 26 91  1  0  0  0  0
 26 92  1  0  0  0  0
 26 93  1  0  0  0  0
 28 29  1  0  0  0  0
 28 94  1  0  0  0  0
 29 30  1  0  0  0  0
 29 32  1  0  0  0  0
 29 95  1  1  0  0  0
 30 31  2  0  0  0  0
 30 37  1  0  0  0  0
 32 33  1  0  0  0  0
 32 96  1  0  0  0  0
 32 97  1  0  0  0  0
 33 34  1  0  0  0  0
 33 35  1  0  0  0  0
 33 98  1  0  0  0  0
 34 99  1  0  0  0  0
 34100  1  0  0  0  0
 34101  1  0  0  0  0
 35102  1  0  0  0  0
 35103  1  0  0  0  0
 35104  1  0  0  0  0
 37 38  1  0  0  0  0
 37 43  1  0  0  0  0
 38 39  1  0  0  0  0
 38 41  1  0  0  0  0
 38105  1  1  0  0  0
 39 40  2  0  0  0  0
 39 44  1  0  0  0  0
 41 42  1  0  0  0  0
 41106  1  0  0  0  0
 41107  1  0  0  0  0
 42 43  1  0  0  0  0
 42108  1  0  0  0  0
 42109  1  0  0  0  0
 43110  1  0  0  0  0
 43111  1  0  0  0  0
 44 45  1  0  0  0  0
 44 50  1  0  0  0  0
 45 46  1  0  0  0  0
 45 48  1  0  0  0  0
 45112  1  6  0  0  0
 46 47  2  0  0  0  0
 46 51  1  0  0  0  0
 48 49  1  0  0  0  0
 48113  1  0  0  0  0
 48114  1  0  0  0  0
 49 50  1  0  0  0  0
 49115  1  0  0  0  0
 49116  1  0  0  0  0
 50117  1  0  0  0  0
 50118  1  0  0  0  0
 51 52  1  0  0  0  0
 51119  1  0  0  0  0
 52 53  1  0  0  0  0
 52 55  1  0  0  0  0
 52120  1  1  0  0  0
 53 54  2  0  0  0  0
 53 64  1  0  0  0  0
 55 56  1  0  0  0  0
 55121  1  0  0  0  0
 55122  1  0  0  0  0
 56 57  1  0  0  0  0
 56123  1  0  0  0  0
 56124  1  0  0  0  0
 57 58  1  0  0  0  0
 57125  1  0  0  0  0
 57126  1  0  0  0  0
 58 59  1  0  0  0  0
 58127  1  0  0  0  0
 58128  1  0  0  0  0
 59129  1  0  0  0  0
 59130  1  0  0  0  0
 59131  1  0  0  0  0
 64 65  1  0  0  0  0
 64132  1  0  0  0  0
 65 66  1  0  0  0  0
 65 67  1  0  0  0  0
 65133  1  6  0  0  0
 66134  1  0  0  0  0
 66135  1  0  0  0  0
 66136  1  0  0  0  0
 67 68  1  0  0  0  0
 67137  1  0  0  0  0
 67138  1  0  0  0  0
 68 69  1  0  0  0  0
 68139  1  0  0  0  0
 68140  1  0  0  0  0
 69 70  1  0  0  0  0
 69141  1  0  0  0  0
 69142  1  0  0  0  0
 70 71  1  0  0  0  0
 70143  1  0  0  0  0
 70144  1  0  0  0  0
 71145  1  0  0  0  0
 71146  1  0  0  0  0
 71147  1  0  0  0  0
M  CHG  3   1   1  59   1  71   1
M  END
