1ckb_ligand
 OpenBabel08222323343D

124128  0  0  1  0  0  0  0  0999 V2000
  122.0740  139.0660   17.8570 N   0  3  0  0  0  0  0  0  0  0  0  0
  121.0060  138.0680   17.8280 C   0  0  2  0  0  0  0  0  0  0  0  0
  121.6070  136.7390   17.4500 C   0  0  0  0  0  0  0  0  0  0  0  0
  122.7370  136.6690   16.9810 O   0  0  0  0  0  0  0  0  0  0  0  0
  120.0900  138.5730   16.7030 C   0  0  0  0  0  0  0  0  0  0  0  0
  120.3690  139.9990   16.6300 C   0  0  0  0  0  0  0  0  0  0  0  0
  121.8590  140.0630   16.8000 C   0  0  0  0  0  0  0  0  0  0  0  0
  120.8470  135.6590   17.6310 N   0  0  0  0  0  0  0  0  0  0  0  0
  121.3860  134.3500   17.2820 C   0  0  2  0  0  0  0  0  0  0  0  0
  121.5310  134.1080   15.7710 C   0  0  0  0  0  0  0  0  0  0  0  0
  121.0600  134.9020   14.9430 O   0  0  0  0  0  0  0  0  0  0  0  0
  120.3980  133.3910   17.9560 C   0  0  0  0  0  0  0  0  0  0  0  0
  119.1260  134.1790   18.0700 C   0  0  0  0  0  0  0  0  0  0  0  0
  119.5840  135.5510   18.3790 C   0  0  0  0  0  0  0  0  0  0  0  0
  122.3080  133.0780   15.3940 N   0  0  0  0  0  0  0  0  0  0  0  0
  122.4580  132.8060   13.9640 C   0  0  2  0  0  0  0  0  0  0  0  0
  121.0980  132.4070   13.3900 C   0  0  0  0  0  0  0  0  0  0  0  0
  120.2980  131.7460   14.0600 O   0  0  0  0  0  0  0  0  0  0  0  0
  123.4680  131.6450   13.9260 C   0  0  0  0  0  0  0  0  0  0  0  0
  123.4260  131.0570   15.2720 C   0  0  0  0  0  0  0  0  0  0  0  0
  123.1980  132.2200   16.1960 C   0  0  0  0  0  0  0  0  0  0  0  0
  120.7860  132.9240   12.2130 N   0  0  0  0  0  0  0  0  0  0  0  0
  119.5260  132.5870   11.5830 C   0  0  2  0  0  0  0  0  0  0  0  0
  119.8340  131.2480   10.9460 C   0  0  0  0  0  0  0  0  0  0  0  0
  120.7450  131.1410   10.1140 O   0  0  0  0  0  0  0  0  0  0  0  0
  119.0830  133.6180   10.5140 C   0  0  0  0  0  0  0  0  0  0  0  0
  117.7510  133.2110    9.9380 C   0  0  0  0  0  0  0  0  0  0  0  0
  118.9250  134.9820   11.1210 C   0  0  0  0  0  0  0  0  0  0  0  0
  119.0800  130.2030   11.3320 N   0  0  0  0  0  0  0  0  0  0  0  0
  119.2720  128.8400   10.8110 C   0  0  2  0  0  0  0  0  0  0  0  0
  119.0650  128.6750    9.3100 C   0  0  0  0  0  0  0  0  0  0  0  0
  118.2800  129.3890    8.6970 O   0  0  0  0  0  0  0  0  0  0  0  0
  118.2430  128.0270   11.5940 C   0  0  0  0  0  0  0  0  0  0  0  0
  117.1190  129.0210   11.7950 C   0  0  0  0  0  0  0  0  0  0  0  0
  117.8760  130.2830   12.1860 C   0  0  0  0  0  0  0  0  0  0  0  0
  119.7760  127.7190    8.6970 N   0  0  0  0  0  0  0  0  0  0  0  0
  119.5840  127.5290    7.2610 C   0  0  2  0  0  0  0  0  0  0  0  0
  118.1760  126.9500    7.0210 C   0  0  0  0  0  0  0  0  0  0  0  0
  117.5480  126.4020    7.9470 O   0  0  0  0  0  0  0  0  0  0  0  0
  120.6840  126.4920    6.9080 C   0  0  0  0  0  0  0  0  0  0  0  0
  120.8030  125.6780    8.1800 C   0  0  0  0  0  0  0  0  0  0  0  0
  120.7770  126.7680    9.2370 C   0  0  0  0  0  0  0  0  0  0  0  0
  117.6910  127.0900    5.7920 N   0  0  0  0  0  0  0  0  0  0  0  0
  116.3960  126.5580    5.3880 C   0  0  2  0  0  0  0  0  0  0  0  0
  116.6790  125.2200    4.7020 C   0  0  0  0  0  0  0  0  0  0  0  0
  117.8020  124.9620    4.2650 O   0  0  0  0  0  0  0  0  0  0  0  0
  115.7310  127.5070    4.3950 C   0  0  0  0  0  0  0  0  0  0  0  0
  116.1130  128.9720    4.6080 C   0  0  0  0  0  0  0  0  0  0  0  0
  115.3270  129.9170    3.7120 C   0  0  0  0  0  0  0  0  0  0  0  0
  114.1500  130.4320    4.4000 N   0  0  0  0  0  0  0  0  0  0  0  0
  113.9710  131.7080    4.7340 C   0  0  0  0  0  3  0  0  0  0  0  0
  114.8680  132.6460    4.4460 N   0  0  0  0  0  0  0  0  0  0  0  0
  112.9320  132.0330    5.4600 N   0  0  0  0  0  0  0  0  0  0  0  0
  115.6730  124.3600    4.5990 N   0  0  0  0  0  0  0  0  0  0  0  0
  115.8620  123.0660    3.9460 C   0  0  0  0  0  0  0  0  0  0  0  0
  114.7420  122.7470    2.9590 C   0  0  0  0  0  0  0  0  0  0  0  0
  115.9940  121.9650    4.9850 C   0  0  0  0  0  0  0  0  0  0  0  0
  122.9609  138.6101   17.7103 H   0  0  0  0  0  0  0  0  0  0  0  0
  122.0768  139.5259   18.7540 H   0  0  0  0  0  0  0  0  0  0  0  0
  120.4750  137.9980   18.7888 H   0  0  0  0  0  0  0  0  0  0  0  0
  119.0332  138.3943   16.9503 H   0  0  0  0  0  0  0  0  0  0  0  0
  120.3325  138.0787   15.7507 H   0  0  0  0  0  0  0  0  0  0  0  0
  119.8558  140.5437   17.4362 H   0  0  0  0  0  0  0  0  0  0  0  0
  120.0645  140.4117   15.6569 H   0  0  0  0  0  0  0  0  0  0  0  0
  122.3818  139.7854   15.8729 H   0  0  0  0  0  0  0  0  0  0  0  0
  122.1847  141.0640   17.1190 H   0  0  0  0  0  0  0  0  0  0  0  0
  122.3829  134.2319   17.7318 H   0  0  0  0  0  0  0  0  0  0  0  0
  120.7617  133.0942   18.9508 H   0  0  0  0  0  0  0  0  0  0  0  0
  120.2451  132.4935   17.3387 H   0  0  0  0  0  0  0  0  0  0  0  0
  118.4934  133.7860   18.8795 H   0  0  0  0  0  0  0  0  0  0  0  0
  118.5660  134.1573   17.1235 H   0  0  0  0  0  0  0  0  0  0  0  0
  118.8548  136.2979   18.0322 H   0  0  0  0  0  0  0  0  0  0  0  0
  119.7527  135.6769   19.4587 H   0  0  0  0  0  0  0  0  0  0  0  0
  122.8474  133.6820   13.4246 H   0  0  0  0  0  0  0  0  0  0  0  0
  124.4774  132.0185   13.6991 H   0  0  0  0  0  0  0  0  0  0  0  0
  123.1737  130.9016   13.1705 H   0  0  0  0  0  0  0  0  0  0  0  0
  124.3779  130.5579   15.5060 H   0  0  0  0  0  0  0  0  0  0  0  0
  122.6025  130.3322   15.3520 H   0  0  0  0  0  0  0  0  0  0  0  0
  122.7107  131.8999   17.1288 H   0  0  0  0  0  0  0  0  0  0  0  0
  124.1416  132.7334   16.4327 H   0  0  0  0  0  0  0  0  0  0  0  0
  121.4208  133.5482   11.7576 H   0  0  0  0  0  0  0  0  0  0  0  0
  118.7306  132.4921   12.3368 H   0  0  0  0  0  0  0  0  0  0  0  0
  119.8377  133.6565    9.7147 H   0  0  0  0  0  0  0  0  0  0  0  0
  117.4398  133.9448    9.1799 H   0  0  0  0  0  0  0  0  0  0  0  0
  117.0004  133.1729   10.7412 H   0  0  0  0  0  0  0  0  0  0  0  0
  117.8407  132.2184    9.4725 H   0  0  0  0  0  0  0  0  0  0  0  0
  119.8846  135.3056   11.5505 H   0  0  0  0  0  0  0  0  0  0  0  0
  118.1627  134.9448   11.9132 H   0  0  0  0  0  0  0  0  0  0  0  0
  118.6120  135.6951   10.3441 H   0  0  0  0  0  0  0  0  0  0  0  0
  120.2901  128.4989   11.0499 H   0  0  0  0  0  0  0  0  0  0  0  0
  118.6528  127.6910   12.5579 H   0  0  0  0  0  0  0  0  0  0  0  0
  117.9030  127.1550   11.0161 H   0  0  0  0  0  0  0  0  0  0  0  0
  116.4393  128.6983   12.5974 H   0  0  0  0  0  0  0  0  0  0  0  0
  116.5468  129.1698   10.8674 H   0  0  0  0  0  0  0  0  0  0  0  0
  117.2882  131.1857   11.9630 H   0  0  0  0  0  0  0  0  0  0  0  0
  118.1427  130.2734   13.2531 H   0  0  0  0  0  0  0  0  0  0  0  0
  119.7143  128.4652    6.6983 H   0  0  0  0  0  0  0  0  0  0  0  0
  121.6346  126.9901    6.6667 H   0  0  0  0  0  0  0  0  0  0  0  0
  120.3756  125.8606    6.0617 H   0  0  0  0  0  0  0  0  0  0  0  0
  121.7458  125.1121    8.2088 H   0  0  0  0  0  0  0  0  0  0  0  0
  119.9561  124.9856    8.2953 H   0  0  0  0  0  0  0  0  0  0  0  0
  120.4597  126.3684   10.2115 H   0  0  0  0  0  0  0  0  0  0  0  0
  121.7628  127.2450    9.3396 H   0  0  0  0  0  0  0  0  0  0  0  0
  118.2384  127.5818    5.1149 H   0  0  0  0  0  0  0  0  0  0  0  0
  115.7460  126.4157    6.2639 H   0  0  0  0  0  0  0  0  0  0  0  0
  114.6400  127.4123    4.4989 H   0  0  0  0  0  0  0  0  0  0  0  0
  116.0294  127.2130    3.3779 H   0  0  0  0  0  0  0  0  0  0  0  0
  117.1849  129.0917    4.3921 H   0  0  0  0  0  0  0  0  0  0  0  0
  115.9184  129.2380    5.6575 H   0  0  0  0  0  0  0  0  0  0  0  0
  115.0076  129.3748    2.8098 H   0  0  0  0  0  0  0  0  0  0  0  0
  115.9726  130.7598    3.4240 H   0  0  0  0  0  0  0  0  0  0  0  0
  113.4060  129.7630    4.6445 H   0  0  0  0  0  0  0  0  0  0  0  0
  114.6965  133.6240    4.7198 H   0  0  0  0  0  0  0  0  0  0  0  0
  115.7345  132.3947    3.9491 H   0  0  0  0  0  0  0  0  0  0  0  0
  112.2250  131.3217    5.6948 H   0  0  0  0  0  0  0  0  0  0  0  0
  112.8212  133.0001    5.7967 H   0  0  0  0  0  0  0  0  0  0  0  0
  114.7767  124.5999    4.9720 H   0  0  0  0  0  0  0  0  0  0  0  0
  116.8030  123.1121    3.3782 H   0  0  0  0  0  0  0  0  0  0  0  0
  114.9295  121.7670    2.4959 H   0  0  0  0  0  0  0  0  0  0  0  0
  114.7096  123.5213    2.1783 H   0  0  0  0  0  0  0  0  0  0  0  0
  113.7798  122.7228    3.4915 H   0  0  0  0  0  0  0  0  0  0  0  0
  116.1355  120.9985    4.4791 H   0  0  0  0  0  0  0  0  0  0  0  0
  115.0813  121.9278    5.5979 H   0  0  0  0  0  0  0  0  0  0  0  0
  116.8607  122.1715    5.6300 H   0  0  0  0  0  0  0  0  0  0  0  0
  1  2  1  0  0  0  0
  1  7  1  0  0  0  0
  1 58  1  0  0  0  0
  1 59  1  0  0  0  0
  2  3  1  0  0  0  0
  2  5  1  0  0  0  0
  2 60  1  1  0  0  0
  3  4  2  0  0  0  0
  3  8  1  0  0  0  0
  5  6  1  0  0  0  0
  5 61  1  0  0  0  0
  5 62  1  0  0  0  0
  6  7  1  0  0  0  0
  6 63  1  0  0  0  0
  6 64  1  0  0  0  0
  7 65  1  0  0  0  0
  7 66  1  0  0  0  0
  8  9  1  0  0  0  0
  8 14  1  0  0  0  0
  9 10  1  0  0  0  0
  9 12  1  0  0  0  0
  9 67  1  1  0  0  0
 10 11  2  0  0  0  0
 10 15  1  0  0  0  0
 12 13  1  0  0  0  0
 12 68  1  0  0  0  0
 12 69  1  0  0  0  0
 13 14  1  0  0  0  0
 13 70  1  0  0  0  0
 13 71  1  0  0  0  0
 14 72  1  0  0  0  0
 14 73  1  0  0  0  0
 15 16  1  0  0  0  0
 15 21  1  0  0  0  0
 16 17  1  0  0  0  0
 16 19  1  0  0  0  0
 16 74  1  6  0  0  0
 17 18  2  0  0  0  0
 17 22  1  0  0  0  0
 19 20  1  0  0  0  0
 19 75  1  0  0  0  0
 19 76  1  0  0  0  0
 20 21  1  0  0  0  0
 20 77  1  0  0  0  0
 20 78  1  0  0  0  0
 21 79  1  0  0  0  0
 21 80  1  0  0  0  0
 22 23  1  0  0  0  0
 22 81  1  0  0  0  0
 23 24  1  0  0  0  0
 23 26  1  0  0  0  0
 23 82  1  1  0  0  0
 24 25  2  0  0  0  0
 24 29  1  0  0  0  0
 26 27  1  0  0  0  0
 26 28  1  0  0  0  0
 26 83  1  0  0  0  0
 27 84  1  0  0  0  0
 27 85  1  0  0  0  0
 27 86  1  0  0  0  0
 28 87  1  0  0  0  0
 28 88  1  0  0  0  0
 28 89  1  0  0  0  0
 29 30  1  0  0  0  0
 29 35  1  0  0  0  0
 30 31  1  0  0  0  0
 30 33  1  0  0  0  0
 30 90  1  1  0  0  0
 31 32  2  0  0  0  0
 31 36  1  0  0  0  0
 33 34  1  0  0  0  0
 33 91  1  0  0  0  0
 33 92  1  0  0  0  0
 34 35  1  0  0  0  0
 34 93  1  0  0  0  0
 34 94  1  0  0  0  0
 35 95  1  0  0  0  0
 35 96  1  0  0  0  0
 36 37  1  0  0  0  0
 36 42  1  0  0  0  0
 37 38  1  0  0  0  0
 37 40  1  0  0  0  0
 37 97  1  6  0  0  0
 38 39  2  0  0  0  0
 38 43  1  0  0  0  0
 40 41  1  0  0  0  0
 40 98  1  0  0  0  0
 40 99  1  0  0  0  0
 41 42  1  0  0  0  0
 41100  1  0  0  0  0
 41101  1  0  0  0  0
 42102  1  0  0  0  0
 42103  1  0  0  0  0
 43 44  1  0  0  0  0
 43104  1  0  0  0  0
 44 45  1  0  0  0  0
 44 47  1  0  0  0  0
 44105  1  1  0  0  0
 45 46  2  0  0  0  0
 45 54  1  0  0  0  0
 47 48  1  0  0  0  0
 47106  1  0  0  0  0
 47107  1  0  0  0  0
 48 49  1  0  0  0  0
 48108  1  0  0  0  0
 48109  1  0  0  0  0
 49 50  1  0  0  0  0
 49110  1  0  0  0  0
 49111  1  0  0  0  0
 50 51  1  0  0  0  0
 50112  1  0  0  0  0
 51 52  1  0  0  0  0
 51 53  1  0  0  0  0
 52113  1  0  0  0  0
 52114  1  0  0  0  0
 53115  1  0  0  0  0
 53116  1  0  0  0  0
 54 55  1  0  0  0  0
 54117  1  0  0  0  0
 55 56  1  0  0  0  0
 55 57  1  0  0  0  0
 55118  1  0  0  0  0
 56119  1  0  0  0  0
 56120  1  0  0  0  0
 56121  1  0  0  0  0
 57122  1  0  0  0  0
 57123  1  0  0  0  0
 57124  1  0  0  0  0
M  CHG  1   1   1
M  END
