1clu_ligand
 OpenBabel08222323343D

 50 52  0  0  1  0  0  0  0  0999 V2000
    5.2607   34.2734   25.2525 H   0  0  0  0  0  0  0  0  0  0  0  0
    5.6850   33.3690   24.7920 C   0  0  0  0  0  0  0  0  0  0  0  0
    5.4530   33.3920   23.4430 N   0  0  0  0  0  0  0  0  0  0  0  0
    5.6370   32.6640   22.1030 P   0  0  1  0  0  0  0  0  0  0  0  0
    5.4220   31.2260   22.3480 O   0  0  0  0  0  1  0  0  0  0  0  0
    4.6450   33.1780   21.1760 O   0  0  0  0  0  0  0  0  0  0  0  0
    7.1290   32.9080   21.5480 N   0  0  0  0  0  0  0  0  0  0  0  0
    7.5520   32.3960   20.0850 P   0  0  1  0  0  0  0  0  0  0  0  0
    7.6270   30.9150   20.0000 O   0  0  0  0  0  1  0  0  0  0  0  0
    6.7110   32.9950   19.0510 O   0  0  0  0  0  0  0  0  0  0  0  0
    9.0390   32.9840   19.9020 O   0  0  0  0  0  0  0  0  0  0  0  0
    9.5350   34.4850   19.5530 P   0  0  1  0  0  0  0  0  0  0  0  0
    9.5520   34.7300   18.0710 O   0  0  0  0  0  1  0  0  0  0  0  0
    8.7410   35.4670   20.3200 O   0  0  0  0  0  0  0  0  0  0  0  0
   11.0240   34.4410   20.0970 O   0  0  0  0  0  0  0  0  0  0  0  0
   11.3590   34.1760   21.4430 C   0  0  0  0  0  0  0  0  0  0  0  0
   12.7400   34.6550   21.7240 C   0  0  1  0  0  0  0  0  0  0  0  0
   13.7150   33.9180   20.9460 O   0  0  0  0  0  0  0  0  0  0  0  0
   13.5560   36.0260   19.9230 C   0  0  2  0  0  0  0  0  0  0  0  0
   14.3140   37.1610   19.5760 O   0  0  0  0  0  0  0  0  0  0  0  0
   12.9730   36.1350   21.3500 C   0  0  2  0  0  0  0  0  0  0  0  0
   13.8980   36.7400   22.2500 O   0  0  0  0  0  0  0  0  0  0  0  0
   14.4370   34.8000   20.0490 C   0  0  2  0  0  0  0  0  0  0  0  0
   14.6250   34.0700   18.7920 N   0  0  0  0  0  0  0  0  0  0  0  0
   15.7880   33.5970   18.3170 C   0  0  0  0  0  0  0  0  0  0  0  0
   16.9900   33.7790   18.8720 N   0  0  0  0  0  0  0  0  0  0  0  0
   18.0140   33.2770   18.1650 C   0  0  0  0  0  0  0  0  0  0  0  0
   19.2830   33.5280   18.5300 N   0  0  0  0  0  0  0  0  0  0  0  0
   17.7890   32.4900   17.0170 N   0  0  0  0  0  0  0  0  0  0  0  0
   16.5770   32.4560   16.3380 C   0  0  0  0  0  0  0  0  0  0  0  0
   16.5080   31.8990   15.2410 O   0  0  0  0  0  0  0  0  0  0  0  0
   15.5050   32.9840   17.1350 C   0  0  0  0  0  0  0  0  0  0  0  0
   14.1160   32.9560   16.9170 N   0  0  0  0  0  0  0  0  0  0  0  0
   13.6690   33.5400   17.9640 C   0  0  0  0  0  0  0  0  0  0  0  0
    6.7688   33.3373   24.9772 H   0  0  0  0  0  0  0  0  0  0  0  0
    5.2119   32.4779   25.2303 H   0  0  0  0  0  0  0  0  0  0  0  0
    4.9549   34.2370   23.2484 H   0  0  0  0  0  0  0  0  0  0  0  0
    7.7985   33.3827   22.1194 H   0  0  0  0  0  0  0  0  0  0  0  0
   11.3042   33.0928   21.6263 H   0  0  0  0  0  0  0  0  0  0  0  0
   10.6507   34.6962   22.1046 H   0  0  0  0  0  0  0  0  0  0  0  0
   12.9373   34.5164   22.7972 H   0  0  0  0  0  0  0  0  0  0  0  0
   12.7612   35.8756   19.1775 H   0  0  0  0  0  0  0  0  0  0  0  0
   13.7616   37.9330   19.6137 H   0  0  0  0  0  0  0  0  0  0  0  0
   12.0311   36.7031   21.3527 H   0  0  0  0  0  0  0  0  0  0  0  0
   14.1098   37.6143   21.9444 H   0  0  0  0  0  0  0  0  0  0  0  0
   15.4168   35.0811   20.4625 H   0  0  0  0  0  0  0  0  0  0  0  0
   19.4752   34.1002   19.3646 H   0  0  0  0  0  0  0  0  0  0  0  0
   20.0632   33.1482   17.9751 H   0  0  0  0  0  0  0  0  0  0  0  0
   18.5407   31.9270   16.6735 H   0  0  0  0  0  0  0  0  0  0  0  0
   12.6045   33.6111   18.1822 H   0  0  0  0  0  0  0  0  0  0  0  0
  2  3  1  0  0  0  0
  2  1  1  0  0  0  0
  2 35  1  0  0  0  0
  2 36  1  0  0  0  0
  3  4  1  0  0  0  0
  3 37  1  0  0  0  0
  4  7  1  0  0  0  0
  4  6  2  6  0  0  0
  4  5  1  0  0  0  0
  7  8  1  0  0  0  0
  7 38  1  0  0  0  0
  8 11  1  0  0  0  0
  8 10  2  6  0  0  0
  8  9  1  0  0  0  0
 11 12  1  0  0  0  0
 12 15  1  0  0  0  0
 12 14  2  1  0  0  0
 12 13  1  0  0  0  0
 15 16  1  0  0  0  0
 16 17  1  0  0  0  0
 16 39  1  0  0  0  0
 16 40  1  0  0  0  0
 17 21  1  0  0  0  0
 17 18  1  0  0  0  0
 17 41  1  1  0  0  0
 18 23  1  0  0  0  0
 19 21  1  0  0  0  0
 19 20  1  0  0  0  0
 19 42  1  6  0  0  0
 20 43  1  0  0  0  0
 21 22  1  0  0  0  0
 21 44  1  6  0  0  0
 22 45  1  0  0  0  0
 23 24  1  0  0  0  0
 23 19  1  0  0  0  0
 23 46  1  1  0  0  0
 24 34  1  0  0  0  0
 24 25  1  0  0  0  0
 25 32  2  0  0  0  0
 25 26  1  0  0  0  0
 26 27  2  0  0  0  0
 27 29  1  0  0  0  0
 27 28  1  0  0  0  0
 28 47  1  0  0  0  0
 28 48  1  0  0  0  0
 29 30  1  0  0  0  0
 29 49  1  0  0  0  0
 30 32  1  0  0  0  0
 30 31  2  0  0  0  0
 32 33  1  0  0  0  0
 33 34  2  0  0  0  0
 34 50  1  0  0  0  0
M  END
