1cpi_ligand
 OpenBabel08222323343D

103105  0  0  1  0  0  0  0  0999 V2000
    4.2490    3.3440   10.4910 C   0  0  0  0  0  0  0  0  0  0  0  0
    4.1140    4.2700   11.3000 O   0  0  0  0  0  0  0  0  0  0  0  0
    4.8290    3.5710    9.1120 C   0  0  0  0  0  0  0  0  0  0  0  0
    5.8690    4.6580    9.0570 C   0  0  0  0  0  0  0  0  0  0  0  0
    3.9120    2.0840   10.7490 N   0  0  0  0  0  0  0  0  0  0  0  0
    3.3240    1.6650   12.0230 C   0  0  2  0  0  0  0  0  0  0  0  0
    4.0550    0.4320   12.5450 C   0  0  0  0  0  0  0  0  0  0  0  0
    3.8610   -0.6810   12.0360 O   0  0  0  0  0  0  0  0  0  0  0  0
    1.8370    1.3720   11.8290 C   0  0  0  0  0  0  0  0  0  0  0  0
    1.0780    2.5770   11.2900 C   0  0  0  0  0  0  0  0  0  0  0  0
    0.7740    3.5130   12.0260 O   0  0  0  0  0  0  0  0  0  0  0  0
    0.8110    2.5770    9.9930 N   0  0  0  0  0  0  0  0  0  0  0  0
    4.8980    0.6450   13.5590 N   0  0  0  0  0  0  0  0  0  0  0  0
    5.6950   -0.4380   14.1710 C   0  0  2  0  0  0  0  0  0  0  0  0
    5.1730   -0.7350   15.5820 C   0  0  1  0  0  0  0  0  0  0  0  0
    5.2660    0.4250   16.4280 O   0  0  0  0  0  0  0  0  0  0  0  0
    7.1400    0.0470   14.2830 C   0  0  0  0  0  0  0  0  0  0  0  0
    7.5240    0.8130   13.0560 C   0  0  0  0  0  0  0  0  0  0  0  0
    7.6430    0.1830   11.8220 C   0  0  0  0  0  0  0  0  0  0  0  0
    7.5550    2.1930   13.0970 C   0  0  0  0  0  0  0  0  0  0  0  0
    7.7510    0.9180   10.6550 C   0  0  0  0  0  0  0  0  0  0  0  0
    7.6690    2.9320   11.9650 C   0  0  0  0  0  0  0  0  0  0  0  0
    7.7530    2.2990   10.7300 C   0  0  0  0  0  0  0  0  0  0  0  0
    7.7360    3.0770    9.5830 O   0  0  0  0  0  0  0  0  0  0  0  0
    3.7270   -1.1680   15.4940 C   0  0  0  0  0  0  0  0  0  0  0  0
    3.5730   -2.6280   15.5040 N   0  3  1  0  0  0  0  0  0  0  0  0
    4.2990   -3.4650   16.4560 C   0  0  2  0  0  0  0  0  0  0  0  0
    5.5900   -4.1130   15.9410 C   0  0  0  0  0  0  0  0  0  0  0  0
    5.8690   -4.1740   14.7250 O   0  0  0  0  0  0  0  0  0  0  0  0
    3.2690   -4.5380   16.7950 C   0  0  0  0  0  0  0  0  0  0  0  0
    2.6110   -4.7530   15.4730 C   0  0  0  0  0  0  0  0  0  0  0  0
    2.4310   -3.3560   14.9190 C   0  0  0  0  0  0  0  0  0  0  0  0
    6.4040   -4.5230   16.9010 N   0  0  0  0  0  0  0  0  0  0  0  0
    7.6420   -5.2620   16.6320 C   0  0  2  0  0  0  0  0  0  0  0  0
    7.4690   -6.3740   17.6280 C   0  0  0  0  0  0  0  0  0  0  0  0
    7.5770   -6.1410   18.8380 O   0  0  0  0  0  0  0  0  0  0  0  0
    8.9410   -4.5460   17.0440 C   0  0  2  0  0  0  0  0  0  0  0  0
    9.1960   -3.3310   16.1680 C   0  0  0  0  0  0  0  0  0  0  0  0
   10.1040   -5.5230   16.9400 C   0  0  0  0  0  0  0  0  0  0  0  0
    9.2120   -3.6560   14.7230 C   0  0  0  0  0  0  0  0  0  0  0  0
    7.1020   -7.5530   17.1500 N   0  0  0  0  0  0  0  0  0  0  0  0
    6.9450   -8.6850   18.0590 C   0  0  2  0  0  0  0  0  0  0  0  0
    8.0200   -9.7490   17.8010 C   0  0  0  0  0  0  0  0  0  0  0  0
    8.3360  -10.0780   16.6430 O   0  0  0  0  0  0  0  0  0  0  0  0
    5.5150   -9.2710   18.0080 C   0  0  0  0  0  0  0  0  0  0  0  0
    4.5130   -8.2070   18.3910 C   0  0  0  0  0  0  0  0  0  0  0  0
    5.2000   -9.8440   16.6210 C   0  0  0  0  0  0  0  0  0  0  0  0
    8.6340  -10.2480   18.8790 N   0  0  0  0  0  0  0  0  0  0  0  0
    7.1280    4.3450    9.8830 C   0  0  0  0  0  0  0  0  0  0  0  0
    4.0083    3.8427    8.4319 H   0  0  0  0  0  0  0  0  0  0  0  0
    5.2913    2.6325    8.7723 H   0  0  0  0  0  0  0  0  0  0  0  0
    5.4225    5.5869    9.4414 H   0  0  0  0  0  0  0  0  0  0  0  0
    6.1676    4.8014    8.0081 H   0  0  0  0  0  0  0  0  0  0  0  0
    4.0667    1.3930   10.0429 H   0  0  0  0  0  0  0  0  0  0  0  0
    3.4334    2.4791   12.7546 H   0  0  0  0  0  0  0  0  0  0  0  0
    1.4032    1.0850   12.7982 H   0  0  0  0  0  0  0  0  0  0  0  0
    1.7299    0.5393   11.1183 H   0  0  0  0  0  0  0  0  0  0  0  0
    0.3149    3.3432    9.5847 H   0  0  0  0  0  0  0  0  0  0  0  0
    1.1055    1.8108    9.4219 H   0  0  0  0  0  0  0  0  0  0  0  0
    4.9933    1.5735   13.9178 H   0  0  0  0  0  0  0  0  0  0  0  0
    5.6414   -1.3447   13.5506 H   0  0  0  0  0  0  0  0  0  0  0  0
    5.7715   -1.5468   16.0211 H   0  0  0  0  0  0  0  0  0  0  0  0
    6.1740    0.6970   16.4919 H   0  0  0  0  0  0  0  0  0  0  0  0
    7.8071   -0.8206   14.3934 H   0  0  0  0  0  0  0  0  0  0  0  0
    7.2374    0.6988   15.1637 H   0  0  0  0  0  0  0  0  0  0  0  0
    7.6513   -0.8999   11.7738 H   0  0  0  0  0  0  0  0  0  0  0  0
    7.4868    2.6967   14.0544 H   0  0  0  0  0  0  0  0  0  0  0  0
    7.8328    0.4190    9.6962 H   0  0  0  0  0  0  0  0  0  0  0  0
    7.6946    4.0141   12.0233 H   0  0  0  0  0  0  0  0  0  0  0  0
    3.2977   -0.7749   14.5606 H   0  0  0  0  0  0  0  0  0  0  0  0
    3.1813   -0.7504   16.3530 H   0  0  0  0  0  0  0  0  0  0  0  0
    4.1972   -2.7698   14.7254 H   0  0  0  0  0  0  0  0  0  0  0  0
    4.5503   -2.8719   17.3476 H   0  0  0  0  0  0  0  0  0  0  0  0
    2.5504   -4.1808   17.5473 H   0  0  0  0  0  0  0  0  0  0  0  0
    3.7520   -5.4576   17.1569 H   0  0  0  0  0  0  0  0  0  0  0  0
    1.6387   -5.2521   15.5973 H   0  0  0  0  0  0  0  0  0  0  0  0
    3.2508   -5.3559   14.8118 H   0  0  0  0  0  0  0  0  0  0  0  0
    2.4805   -3.3553   13.8201 H   0  0  0  0  0  0  0  0  0  0  0  0
    1.4743   -2.9205   15.2433 H   0  0  0  0  0  0  0  0  0  0  0  0
    6.1645   -4.3201   17.8505 H   0  0  0  0  0  0  0  0  0  0  0  0
    7.6994   -5.6000   15.5868 H   0  0  0  0  0  0  0  0  0  0  0  0
    8.8464   -4.2123   18.0879 H   0  0  0  0  0  0  0  0  0  0  0  0
   10.1700   -2.8992   16.4415 H   0  0  0  0  0  0  0  0  0  0  0  0
    8.4024   -2.5921   16.3528 H   0  0  0  0  0  0  0  0  0  0  0  0
    9.9068   -6.3970   17.5782 H   0  0  0  0  0  0  0  0  0  0  0  0
   11.0291   -5.0285   17.2711 H   0  0  0  0  0  0  0  0  0  0  0  0
   10.2163   -5.8496   15.8956 H   0  0  0  0  0  0  0  0  0  0  0  0
    9.4002   -2.7403   14.1433 H   0  0  0  0  0  0  0  0  0  0  0  0
    8.2401   -4.0810   14.4319 H   0  0  0  0  0  0  0  0  0  0  0  0
   10.0077   -4.3880   14.5206 H   0  0  0  0  0  0  0  0  0  0  0  0
    6.9331   -7.6677   16.1711 H   0  0  0  0  0  0  0  0  0  0  0  0
    7.1009   -8.3072   19.0802 H   0  0  0  0  0  0  0  0  0  0  0  0
    5.4497  -10.0897   18.7397 H   0  0  0  0  0  0  0  0  0  0  0  0
    3.4978   -8.6288   18.3532 H   0  0  0  0  0  0  0  0  0  0  0  0
    4.5863   -7.3642   17.6879 H   0  0  0  0  0  0  0  0  0  0  0  0
    4.7253   -7.8534   19.4107 H   0  0  0  0  0  0  0  0  0  0  0  0
    5.9420  -10.6149   16.3656 H   0  0  0  0  0  0  0  0  0  0  0  0
    5.2373   -9.0375   15.8739 H   0  0  0  0  0  0  0  0  0  0  0  0
    4.1949  -10.2908   16.6284 H   0  0  0  0  0  0  0  0  0  0  0  0
    9.3435  -10.9446   18.7726 H   0  0  0  0  0  0  0  0  0  0  0  0
    8.3836   -9.9246   19.7915 H   0  0  0  0  0  0  0  0  0  0  0  0
    6.8510    4.3502   10.9475 H   0  0  0  0  0  0  0  0  0  0  0  0
    7.8692    5.1353    9.6931 H   0  0  0  0  0  0  0  0  0  0  0  0
  1  2  2  0  0  0  0
  1  3  1  0  0  0  0
  1  5  1  0  0  0  0
  3  4  1  0  0  0  0
  3 50  1  0  0  0  0
  3 51  1  0  0  0  0
  4 49  1  0  0  0  0
  4 52  1  0  0  0  0
  4 53  1  0  0  0  0
  5  6  1  0  0  0  0
  5 54  1  0  0  0  0
  6  7  1  0  0  0  0
  6  9  1  0  0  0  0
  6 55  1  1  0  0  0
  7  8  2  0  0  0  0
  7 13  1  0  0  0  0
  9 10  1  0  0  0  0
  9 56  1  0  0  0  0
  9 57  1  0  0  0  0
 10 11  2  0  0  0  0
 10 12  1  0  0  0  0
 12 58  1  0  0  0  0
 12 59  1  0  0  0  0
 13 14  1  0  0  0  0
 13 60  1  0  0  0  0
 14 15  1  0  0  0  0
 14 17  1  0  0  0  0
 14 61  1  6  0  0  0
 15 16  1  0  0  0  0
 15 25  1  0  0  0  0
 15 62  1  1  0  0  0
 16 63  1  0  0  0  0
 17 18  1  0  0  0  0
 17 64  1  0  0  0  0
 17 65  1  0  0  0  0
 18 19  2  0  0  0  0
 18 20  1  0  0  0  0
 19 21  1  0  0  0  0
 19 66  1  0  0  0  0
 20 22  2  0  0  0  0
 20 67  1  0  0  0  0
 21 23  2  0  0  0  0
 21 68  1  0  0  0  0
 22 23  1  0  0  0  0
 22 69  1  0  0  0  0
 23 24  1  0  0  0  0
 24 49  1  0  0  0  0
 25 26  1  0  0  0  0
 25 70  1  0  0  0  0
 25 71  1  0  0  0  0
 26 27  1  0  0  0  0
 26 32  1  0  0  0  0
 26 72  1  6  0  0  0
 27 28  1  0  0  0  0
 27 30  1  0  0  0  0
 27 73  1  1  0  0  0
 28 29  2  0  0  0  0
 28 33  1  0  0  0  0
 30 31  1  0  0  0  0
 30 74  1  0  0  0  0
 30 75  1  0  0  0  0
 31 32  1  0  0  0  0
 31 76  1  0  0  0  0
 31 77  1  0  0  0  0
 32 78  1  0  0  0  0
 32 79  1  0  0  0  0
 33 34  1  0  0  0  0
 33 80  1  0  0  0  0
 34 35  1  0  0  0  0
 34 37  1  0  0  0  0
 34 81  1  6  0  0  0
 35 36  2  0  0  0  0
 35 41  1  0  0  0  0
 37 38  1  0  0  0  0
 37 39  1  0  0  0  0
 37 82  1  1  0  0  0
 38 40  1  0  0  0  0
 38 83  1  0  0  0  0
 38 84  1  0  0  0  0
 39 85  1  0  0  0  0
 39 86  1  0  0  0  0
 39 87  1  0  0  0  0
 40 88  1  0  0  0  0
 40 89  1  0  0  0  0
 40 90  1  0  0  0  0
 41 42  1  0  0  0  0
 41 91  1  0  0  0  0
 42 43  1  0  0  0  0
 42 45  1  0  0  0  0
 42 92  1  1  0  0  0
 43 44  2  0  0  0  0
 43 48  1  0  0  0  0
 45 46  1  0  0  0  0
 45 47  1  0  0  0  0
 45 93  1  0  0  0  0
 46 94  1  0  0  0  0
 46 95  1  0  0  0  0
 46 96  1  0  0  0  0
 47 97  1  0  0  0  0
 47 98  1  0  0  0  0
 47 99  1  0  0  0  0
 48100  1  0  0  0  0
 48101  1  0  0  0  0
 49102  1  0  0  0  0
 49103  1  0  0  0  0
M  CHG  1  26   1
M  END
