1cs4_ligand
 OpenBabel08222323343D

 34 36  0  0  1  0  0  0  0  0999 V2000
   55.0230  -10.3820   55.2600 P   0  0  0  0  0  0  0  0  0  0  0  0
   56.1060   -9.9600   56.1760 O   0  0  0  0  0  1  0  0  0  0  0  0
   53.9310   -9.4260   54.9360 O   0  0  0  0  0  1  0  0  0  0  0  0
   54.4020  -11.6150   55.8160 O   0  0  0  0  0  0  0  0  0  0  0  0
   59.6900  -12.0660   53.7340 O   0  0  0  0  0  0  0  0  0  0  0  0
   59.1170  -11.2540   52.7170 C   0  0  0  0  0  0  0  0  0  0  0  0
   57.6490  -11.5790   52.5600 C   0  0  1  0  0  0  0  0  0  0  0  0
   57.5110  -12.8680   51.9040 O   0  0  0  0  0  0  0  0  0  0  0  0
   56.8800  -11.6740   53.8850 C   0  0  1  0  0  0  0  0  0  0  0  0
   55.6680  -10.9000   53.8670 O   0  0  0  0  0  0  0  0  0  0  0  0
   56.5750  -13.1570   54.0180 C   0  0  0  0  0  0  0  0  0  0  0  0
   56.5270  -13.6310   52.5750 C   0  0  2  0  0  0  0  0  0  0  0  0
   56.8470  -15.0550   52.4180 N   0  0  0  0  0  0  0  0  0  0  0  0
   58.0410  -15.6930   52.6570 C   0  0  0  0  0  0  0  0  0  0  0  0
   57.9750  -16.9980   52.5360 N   0  0  0  0  0  0  0  0  0  0  0  0
   56.6560  -17.2320   52.1740 C   0  0  0  0  0  0  0  0  0  0  0  0
   55.9370  -18.4210   51.9360 C   0  0  0  0  0  0  0  0  0  0  0  0
   56.4710  -19.6380   52.0430 N   0  0  0  0  0  0  0  0  0  0  0  0
   54.6330  -18.3100   51.5810 N   0  0  0  0  0  0  0  0  0  0  0  0
   54.0990  -17.0880   51.4920 C   0  0  0  0  0  0  0  0  0  0  0  0
   54.6710  -15.8980   51.7090 N   0  0  0  0  0  0  0  0  0  0  0  0
   55.9610  -16.0440   52.0600 C   0  0  0  0  0  0  0  0  0  0  0  0
   59.5959  -12.9813   53.4974 H   0  0  0  0  0  0  0  0  0  0  0  0
   59.6354  -11.4426   51.7653 H   0  0  0  0  0  0  0  0  0  0  0  0
   59.2280  -10.1946   52.9913 H   0  0  0  0  0  0  0  0  0  0  0  0
   57.1880  -10.7959   51.9401 H   0  0  0  0  0  0  0  0  0  0  0  0
   57.5103  -11.3315   54.7189 H   0  0  0  0  0  0  0  0  0  0  0  0
   55.6088  -13.3179   54.5186 H   0  0  0  0  0  0  0  0  0  0  0  0
   57.3684  -13.6745   54.5772 H   0  0  0  0  0  0  0  0  0  0  0  0
   55.5297  -13.4382   52.1530 H   0  0  0  0  0  0  0  0  0  0  0  0
   58.9558  -15.1649   52.9219 H   0  0  0  0  0  0  0  0  0  0  0  0
   55.8951  -20.4713   51.8563 H   0  0  0  0  0  0  0  0  0  0  0  0
   57.4594  -19.7448   52.3123 H   0  0  0  0  0  0  0  0  0  0  0  0
   53.0547  -17.0565   51.2031 H   0  0  0  0  0  0  0  0  0  0  0  0
  1  2  1  0  0  0  0
  1  3  1  0  0  0  0
  1  4  2  0  0  0  0
  5 23  1  0  0  0  0
  6  5  1  0  0  0  0
  6 24  1  0  0  0  0
  6 25  1  0  0  0  0
  7  6  1  0  0  0  0
  7  8  1  0  0  0  0
  7 26  1  6  0  0  0
  8 12  1  0  0  0  0
  9  7  1  0  0  0  0
  9 10  1  0  0  0  0
  9 11  1  0  0  0  0
  9 27  1  1  0  0  0
 10  1  1  0  0  0  0
 11 12  1  0  0  0  0
 11 28  1  0  0  0  0
 11 29  1  0  0  0  0
 12 13  1  0  0  0  0
 12 30  1  6  0  0  0
 13 14  1  0  0  0  0
 13 22  1  0  0  0  0
 14 15  2  0  0  0  0
 14 31  1  0  0  0  0
 15 16  1  0  0  0  0
 16 17  2  0  0  0  0
 16 22  1  0  0  0  0
 17 18  1  0  0  0  0
 17 19  1  0  0  0  0
 18 32  1  0  0  0  0
 18 33  1  0  0  0  0
 19 20  2  0  0  0  0
 20 21  1  0  0  0  0
 20 34  1  0  0  0  0
 21 22  2  0  0  0  0
M  END
