1csr_ligand
 OpenBabel08222323343D

 86 88  0  0  1  0  0  0  0  0999 V2000
   19.6050   -7.9490   13.3360 N   0  0  0  0  0  0  0  0  0  0  0  0
   19.0720   -8.5130   14.4190 C   0  0  0  0  0  0  0  0  0  0  0  0
   18.2440   -9.5500   14.4930 N   0  0  0  0  0  0  0  0  0  0  0  0
   17.9520  -10.0560   13.2720 C   0  0  0  0  0  0  0  0  0  0  0  0
   18.4210   -9.5850   12.0620 C   0  0  0  0  0  0  0  0  0  0  0  0
   19.2950   -8.4680   12.1170 C   0  0  0  0  0  0  0  0  0  0  0  0
   19.8000   -7.8590   11.0480 N   0  0  0  0  0  0  0  0  0  0  0  0
   17.8890  -10.3470   11.0160 N   0  0  0  0  0  0  0  0  0  0  0  0
   17.1450  -11.2670   11.6040 C   0  0  0  0  0  0  0  0  0  0  0  0
   17.1730  -11.1650   12.9710 N   0  0  0  0  0  0  0  0  0  0  0  0
   16.3170  -12.0110   13.7940 C   0  0  1  0  0  0  0  0  0  0  0  0
   14.8720  -11.7550   13.3480 C   0  0  2  0  0  0  0  0  0  0  0  0
   14.3760  -10.4860   13.7530 O   0  0  0  0  0  0  0  0  0  0  0  0
   14.1910  -12.9500   13.9980 C   0  0  2  0  0  0  0  0  0  0  0  0
   13.9050  -12.7370   15.3910 O   0  0  0  0  0  0  0  0  0  0  0  0
   12.4830  -13.1090   16.0610 P   0  0  0  0  0  0  0  0  0  0  0  0
   11.3980  -12.7250   15.0980 O   0  0  0  0  0  1  0  0  0  0  0  0
   12.4890  -12.5760   17.4470 O   0  0  0  0  0  1  0  0  0  0  0  0
   12.5050  -14.5930   16.1880 O   0  0  0  0  0  0  0  0  0  0  0  0
   15.2360  -14.0680   13.7700 C   0  0  2  0  0  0  0  0  0  0  0  0
   16.5010  -13.3820   13.5500 O   0  0  0  0  0  0  0  0  0  0  0  0
   14.9700  -14.8570   12.5230 C   0  0  0  0  0  0  0  0  0  0  0  0
   14.5080  -13.9370   11.5200 O   0  0  0  0  0  0  0  0  0  0  0  0
   14.7660  -14.3070    9.9820 P   0  0  2  0  0  0  0  0  0  0  0  0
   13.9030  -15.4490    9.5380 O   0  0  0  0  0  1  0  0  0  0  0  0
   16.2400  -14.4960    9.9100 O   0  0  0  0  0  0  0  0  0  0  0  0
   14.4660  -12.9220    9.2460 O   0  0  0  0  0  0  0  0  0  0  0  0
   13.0980  -12.6540    8.4220 P   0  0  1  0  0  0  0  0  0  0  0  0
   13.0840  -13.3720    7.1060 O   0  0  0  0  0  1  0  0  0  0  0  0
   11.9240  -12.6590    9.3360 O   0  0  0  0  0  0  0  0  0  0  0  0
   13.3770  -11.0970    8.1960 O   0  0  0  0  0  0  0  0  0  0  0  0
   14.7190   -9.1770    7.5000 C   0  0  0  0  0  0  0  0  0  0  0  0
   14.2380  -10.5690    7.1340 C   0  0  0  0  0  0  0  0  0  0  0  0
   15.3510   -8.4930    6.2700 C   0  0  0  0  0  0  0  0  0  0  0  0
   13.4750   -8.4040    7.9840 C   0  0  0  0  0  0  0  0  0  0  0  0
   15.7650   -9.3040    8.6280 C   0  0  1  0  0  0  0  0  0  0  0  0
   16.8920  -10.1390    8.4580 O   0  0  0  0  0  0  0  0  0  0  0  0
   16.0700   -7.9860    9.3590 C   0  0  0  0  0  0  0  0  0  0  0  0
   15.4040   -7.6430   10.3550 O   0  0  0  0  0  0  0  0  0  0  0  0
   17.0550   -7.2290    8.8640 N   0  0  0  0  0  0  0  0  0  0  0  0
   17.4170   -5.9320    9.4480 C   0  0  0  0  0  0  0  0  0  0  0  0
   16.7440   -4.8190    8.6380 C   0  0  0  0  0  0  0  0  0  0  0  0
   17.2220   -4.6520    7.1730 C   0  0  0  0  0  0  0  0  0  0  0  0
   18.4110   -4.7740    6.9060 O   0  0  0  0  0  0  0  0  0  0  0  0
   16.3130   -4.3220    6.2310 N   0  0  0  0  0  0  0  0  0  0  0  0
   16.6340   -4.1100    4.8150 C   0  0  0  0  0  0  0  0  0  0  0  0
   16.4180   -5.3910    3.9540 C   0  0  0  0  0  0  0  0  0  0  0  0
   16.6550   -5.1430    2.4270 C   0  0  1  0  0  0  0  0  0  0  0  0
   16.7120   -6.3280    1.7520 F   0  0  0  0  0  0  0  0  0  0  0  0
   15.5450   -4.3660    1.8010 C   0  0  0  0  0  0  0  0  0  0  0  0
   14.4110   -4.8160    1.8120 O   0  0  0  0  0  0  0  0  0  0  0  0
   15.9020   -3.1950    1.2700 N   0  0  0  0  0  0  0  0  0  0  0  0
   19.3510   -8.0664   15.3665 H   0  0  0  0  0  0  0  0  0  0  0  0
   19.5919   -8.2171   10.1050 H   0  0  0  0  0  0  0  0  0  0  0  0
   20.3993   -7.0292   11.1631 H   0  0  0  0  0  0  0  0  0  0  0  0
   16.5741  -12.0210   11.0640 H   0  0  0  0  0  0  0  0  0  0  0  0
   16.4677  -11.7803   14.8589 H   0  0  0  0  0  0  0  0  0  0  0  0
   14.7859  -11.8145   12.2530 H   0  0  0  0  0  0  0  0  0  0  0  0
   13.4814  -10.3854   13.4496 H   0  0  0  0  0  0  0  0  0  0  0  0
   13.2496  -13.1878   13.4811 H   0  0  0  0  0  0  0  0  0  0  0  0
   15.2805  -14.7359   14.6429 H   0  0  0  0  0  0  0  0  0  0  0  0
   14.2002  -15.6184   12.7173 H   0  0  0  0  0  0  0  0  0  0  0  0
   15.8944  -15.3481   12.1849 H   0  0  0  0  0  0  0  0  0  0  0  0
   13.6695  -10.5224    6.1935 H   0  0  0  0  0  0  0  0  0  0  0  0
   15.1061  -11.2322    7.0053 H   0  0  0  0  0  0  0  0  0  0  0  0
   15.6955   -7.4858    6.5473 H   0  0  0  0  0  0  0  0  0  0  0  0
   14.6022   -8.4164    5.4679 H   0  0  0  0  0  0  0  0  0  0  0  0
   16.2059   -9.0889    5.9179 H   0  0  0  0  0  0  0  0  0  0  0  0
   13.0453   -8.9123    8.8598 H   0  0  0  0  0  0  0  0  0  0  0  0
   12.7281   -8.3692    7.1772 H   0  0  0  0  0  0  0  0  0  0  0  0
   13.7645   -7.3794    8.2602 H   0  0  0  0  0  0  0  0  0  0  0  0
   15.1955   -9.8651    9.3835 H   0  0  0  0  0  0  0  0  0  0  0  0
   17.4314  -10.1039    9.2392 H   0  0  0  0  0  0  0  0  0  0  0  0
   17.5628   -7.5582    8.0679 H   0  0  0  0  0  0  0  0  0  0  0  0
   18.5090   -5.8040    9.4153 H   0  0  0  0  0  0  0  0  0  0  0  0
   17.0737   -5.8882   10.4921 H   0  0  0  0  0  0  0  0  0  0  0  0
   16.9249   -3.8679    9.1602 H   0  0  0  0  0  0  0  0  0  0  0  0
   15.6639   -5.0260    8.6167 H   0  0  0  0  0  0  0  0  0  0  0  0
   15.3605   -4.2153    6.5163 H   0  0  0  0  0  0  0  0  0  0  0  0
   17.6877   -3.8047    4.7343 H   0  0  0  0  0  0  0  0  0  0  0  0
   15.9893   -3.3094    4.4235 H   0  0  0  0  0  0  0  0  0  0  0  0
   15.3848   -5.7404    4.0970 H   0  0  0  0  0  0  0  0  0  0  0  0
   17.1183   -6.1670    4.2967 H   0  0  0  0  0  0  0  0  0  0  0  0
   17.6014   -4.5964    2.3028 H   0  0  0  0  0  0  0  0  0  0  0  0
   15.2156   -2.6148    0.8315 H   0  0  0  0  0  0  0  0  0  0  0  0
   16.8559   -2.8976    1.3106 H   0  0  0  0  0  0  0  0  0  0  0  0
  1  2  2  0  0  0  0
  1  6  1  0  0  0  0
  2  3  1  0  0  0  0
  2 53  1  0  0  0  0
  3  4  2  0  0  0  0
  4  5  1  0  0  0  0
  4 10  1  0  0  0  0
  5  6  2  0  0  0  0
  5  8  1  0  0  0  0
  6  7  1  0  0  0  0
  7 54  1  0  0  0  0
  7 55  1  0  0  0  0
  8  9  2  0  0  0  0
  9 10  1  0  0  0  0
  9 56  1  0  0  0  0
 10 11  1  0  0  0  0
 11 12  1  0  0  0  0
 11 21  1  0  0  0  0
 11 57  1  1  0  0  0
 12 13  1  0  0  0  0
 12 14  1  0  0  0  0
 12 58  1  6  0  0  0
 13 59  1  0  0  0  0
 14 15  1  0  0  0  0
 14 20  1  0  0  0  0
 14 60  1  6  0  0  0
 15 16  1  0  0  0  0
 16 17  1  0  0  0  0
 16 18  1  0  0  0  0
 16 19  2  0  0  0  0
 20 21  1  0  0  0  0
 20 22  1  0  0  0  0
 20 61  1  1  0  0  0
 22 23  1  0  0  0  0
 22 62  1  0  0  0  0
 22 63  1  0  0  0  0
 23 24  1  0  0  0  0
 24 25  1  6  0  0  0
 24 26  2  0  0  0  0
 24 27  1  0  0  0  0
 27 28  1  0  0  0  0
 28 29  1  6  0  0  0
 28 30  2  0  0  0  0
 28 31  1  0  0  0  0
 31 33  1  0  0  0  0
 32 34  1  0  0  0  0
 32 35  1  0  0  0  0
 32 36  1  0  0  0  0
 33 32  1  0  0  0  0
 33 64  1  0  0  0  0
 33 65  1  0  0  0  0
 34 66  1  0  0  0  0
 34 67  1  0  0  0  0
 34 68  1  0  0  0  0
 35 69  1  0  0  0  0
 35 70  1  0  0  0  0
 35 71  1  0  0  0  0
 36 37  1  0  0  0  0
 36 38  1  0  0  0  0
 36 72  1  1  0  0  0
 37 73  1  0  0  0  0
 38 39  2  0  0  0  0
 38 40  1  0  0  0  0
 40 41  1  0  0  0  0
 40 74  1  0  0  0  0
 41 42  1  0  0  0  0
 41 75  1  0  0  0  0
 41 76  1  0  0  0  0
 42 43  1  0  0  0  0
 42 77  1  0  0  0  0
 42 78  1  0  0  0  0
 43 44  2  0  0  0  0
 43 45  1  0  0  0  0
 45 46  1  0  0  0  0
 45 79  1  0  0  0  0
 46 47  1  0  0  0  0
 46 80  1  0  0  0  0
 46 81  1  0  0  0  0
 47 48  1  0  0  0  0
 47 82  1  0  0  0  0
 47 83  1  0  0  0  0
 48 49  1  0  0  0  0
 48 50  1  0  0  0  0
 48 84  1  6  0  0  0
 50 51  2  0  0  0  0
 50 52  1  0  0  0  0
 52 85  1  0  0  0  0
 52 86  1  0  0  0  0
M  END
