1css_ligand
 OpenBabel08222323343D

 84 86  0  0  1  0  0  0  0  0999 V2000
   19.5320   -8.0740   13.3290 N   0  0  0  0  0  0  0  0  0  0  0  0
   18.9640   -8.6380   14.3990 C   0  0  0  0  0  0  0  0  0  0  0  0
   18.1290   -9.6800   14.4730 N   0  0  0  0  0  0  0  0  0  0  0  0
   17.9050  -10.1970   13.2480 C   0  0  0  0  0  0  0  0  0  0  0  0
   18.3910   -9.7350   12.0470 C   0  0  0  0  0  0  0  0  0  0  0  0
   19.2690   -8.6220   12.1290 C   0  0  0  0  0  0  0  0  0  0  0  0
   19.8050   -8.0040   11.1210 N   0  0  0  0  0  0  0  0  0  0  0  0
   17.9180  -10.5300   10.9980 N   0  0  0  0  0  0  0  0  0  0  0  0
   17.1450  -11.4310   11.5770 C   0  0  0  0  0  0  0  0  0  0  0  0
   17.1050  -11.2840   12.9470 N   0  0  0  0  0  0  0  0  0  0  0  0
   16.2500  -12.0580   13.8160 C   0  0  1  0  0  0  0  0  0  0  0  0
   14.8110  -11.7650   13.3230 C   0  0  2  0  0  0  0  0  0  0  0  0
   14.3200  -10.4690   13.6720 O   0  0  0  0  0  0  0  0  0  0  0  0
   14.0500  -12.9220   13.9570 C   0  0  2  0  0  0  0  0  0  0  0  0
   14.0350  -12.7290   15.3800 O   0  0  0  0  0  0  0  0  0  0  0  0
   12.6460  -13.0350   16.1910 P   0  0  0  0  0  0  0  0  0  0  0  0
   11.5340  -12.3990   15.4210 O   0  0  0  0  0  1  0  0  0  0  0  0
   12.8430  -12.7000   17.6280 O   0  0  0  0  0  1  0  0  0  0  0  0
   12.5460  -14.5220   16.0860 O   0  0  0  0  0  0  0  0  0  0  0  0
   15.0190  -14.0860   13.6890 C   0  0  2  0  0  0  0  0  0  0  0  0
   16.3020  -13.4310   13.5140 O   0  0  0  0  0  0  0  0  0  0  0  0
   14.7460  -14.8750   12.4350 C   0  0  0  0  0  0  0  0  0  0  0  0
   14.4250  -13.9010   11.3980 O   0  0  0  0  0  0  0  0  0  0  0  0
   14.7690  -14.3310    9.9000 P   0  0  2  0  0  0  0  0  0  0  0  0
   13.9250  -15.5180    9.5720 O   0  0  0  0  0  1  0  0  0  0  0  0
   16.2250  -14.4630    9.7360 O   0  0  0  0  0  0  0  0  0  0  0  0
   14.4290  -12.9800    9.1650 O   0  0  0  0  0  0  0  0  0  0  0  0
   13.0630  -12.6090    8.4300 P   0  0  1  0  0  0  0  0  0  0  0  0
   13.0220  -13.3530    7.1480 O   0  0  0  0  0  1  0  0  0  0  0  0
   11.8890  -12.6360    9.3110 O   0  0  0  0  0  0  0  0  0  0  0  0
   13.3740  -11.0200    8.2010 O   0  0  0  0  0  0  0  0  0  0  0  0
   14.7360   -9.1530    7.5860 C   0  0  0  0  0  0  0  0  0  0  0  0
   14.3060  -10.5630    7.2240 C   0  0  0  0  0  0  0  0  0  0  0  0
   15.5070   -8.6070    6.3510 C   0  0  0  0  0  0  0  0  0  0  0  0
   13.4290   -8.3380    7.8260 C   0  0  0  0  0  0  0  0  0  0  0  0
   15.6290   -9.2810    8.8510 C   0  0  1  0  0  0  0  0  0  0  0  0
   16.8090   -9.9470    8.3530 O   0  0  0  0  0  0  0  0  0  0  0  0
   16.0230   -7.9120    9.4100 C   0  0  0  0  0  0  0  0  0  0  0  0
   15.3450   -7.3500   10.2700 O   0  0  0  0  0  0  0  0  0  0  0  0
   17.1260   -7.3290    8.9390 N   0  0  0  0  0  0  0  0  0  0  0  0
   17.5430   -5.9990    9.4450 C   0  0  0  0  0  0  0  0  0  0  0  0
   16.8180   -4.9080    8.6530 C   0  0  0  0  0  0  0  0  0  0  0  0
   17.2450   -4.7930    7.1920 C   0  0  0  0  0  0  0  0  0  0  0  0
   18.4660   -4.8100    6.9130 O   0  0  0  0  0  0  0  0  0  0  0  0
   16.2560   -4.5780    6.2470 N   0  0  0  0  0  0  0  0  0  0  0  0
   16.6380   -4.4270    4.8480 C   0  0  0  0  0  0  0  0  0  0  0  0
   16.6350   -5.6900    4.0160 C   0  0  0  0  0  0  0  0  0  0  0  0
   16.5010   -5.6090    2.4760 C   0  0  2  0  0  0  0  0  0  0  0  0
   17.7410   -5.5260    1.8810 F   0  0  0  0  0  0  0  0  0  0  0  0
   15.5710   -4.5230    2.0140 C   0  0  0  0  0  0  0  0  0  0  0  0
   14.3970   -4.7260    1.8140 O   0  5  0  0  0  0  0  0  0  0  0  0
   16.1290   -3.3630    1.8060 O   0  0  0  0  0  0  0  0  0  0  0  0
   19.2181   -8.1827   15.3494 H   0  0  0  0  0  0  0  0  0  0  0  0
   19.6562   -8.3542   10.1639 H   0  0  0  0  0  0  0  0  0  0  0  0
   20.3791   -7.1634   11.2784 H   0  0  0  0  0  0  0  0  0  0  0  0
   16.6011  -12.2024   11.0338 H   0  0  0  0  0  0  0  0  0  0  0  0
   16.4295  -11.8376   14.8786 H   0  0  0  0  0  0  0  0  0  0  0  0
   14.7675  -11.8456   12.2268 H   0  0  0  0  0  0  0  0  0  0  0  0
   13.4372  -10.3652   13.3367 H   0  0  0  0  0  0  0  0  0  0  0  0
   13.0429  -13.0700   13.5401 H   0  0  0  0  0  0  0  0  0  0  0  0
   15.0289  -14.7696   14.5507 H   0  0  0  0  0  0  0  0  0  0  0  0
   13.8976  -15.5573   12.5918 H   0  0  0  0  0  0  0  0  0  0  0  0
   15.6356  -15.4556   12.1494 H   0  0  0  0  0  0  0  0  0  0  0  0
   13.8318  -10.5623    6.2315 H   0  0  0  0  0  0  0  0  0  0  0  0
   15.1837  -11.2260    7.2106 H   0  0  0  0  0  0  0  0  0  0  0  0
   15.8462   -7.5807    6.5549 H   0  0  0  0  0  0  0  0  0  0  0  0
   14.8422   -8.6061    5.4747 H   0  0  0  0  0  0  0  0  0  0  0  0
   16.3781   -9.2479    6.1498 H   0  0  0  0  0  0  0  0  0  0  0  0
   12.9012   -8.7413    8.7028 H   0  0  0  0  0  0  0  0  0  0  0  0
   12.7809   -8.4151    6.9405 H   0  0  0  0  0  0  0  0  0  0  0  0
   13.6825   -7.2825    8.0041 H   0  0  0  0  0  0  0  0  0  0  0  0
   15.1277   -9.8733    9.6307 H   0  0  0  0  0  0  0  0  0  0  0  0
   17.4251  -10.0720    9.0652 H   0  0  0  0  0  0  0  0  0  0  0  0
   17.6742   -7.7907    8.2416 H   0  0  0  0  0  0  0  0  0  0  0  0
   18.6298   -5.8826    9.3211 H   0  0  0  0  0  0  0  0  0  0  0  0
   17.2841   -5.9133   10.5107 H   0  0  0  0  0  0  0  0  0  0  0  0
   17.0105   -3.9425    9.1436 H   0  0  0  0  0  0  0  0  0  0  0  0
   15.7398   -5.1241    8.6792 H   0  0  0  0  0  0  0  0  0  0  0  0
   15.2952   -4.5271    6.5196 H   0  0  0  0  0  0  0  0  0  0  0  0
   17.6553   -4.0095    4.8208 H   0  0  0  0  0  0  0  0  0  0  0  0
   15.9378   -3.7172    4.3834 H   0  0  0  0  0  0  0  0  0  0  0  0
   15.7952   -6.3032    4.3747 H   0  0  0  0  0  0  0  0  0  0  0  0
   17.5826   -6.2083    4.2242 H   0  0  0  0  0  0  0  0  0  0  0  0
   16.0535   -6.5590    2.1486 H   0  0  0  0  0  0  0  0  0  0  0  0
  1  2  2  0  0  0  0
  1  6  1  0  0  0  0
  2  3  1  0  0  0  0
  2 53  1  0  0  0  0
  3  4  2  0  0  0  0
  4  5  1  0  0  0  0
  4 10  1  0  0  0  0
  5  6  2  0  0  0  0
  5  8  1  0  0  0  0
  6  7  1  0  0  0  0
  7 54  1  0  0  0  0
  7 55  1  0  0  0  0
  8  9  2  0  0  0  0
  9 10  1  0  0  0  0
  9 56  1  0  0  0  0
 10 11  1  0  0  0  0
 11 12  1  0  0  0  0
 11 21  1  0  0  0  0
 11 57  1  1  0  0  0
 12 13  1  0  0  0  0
 12 14  1  0  0  0  0
 12 58  1  6  0  0  0
 13 59  1  0  0  0  0
 14 15  1  0  0  0  0
 14 20  1  0  0  0  0
 14 60  1  6  0  0  0
 15 16  1  0  0  0  0
 16 17  1  0  0  0  0
 16 18  1  0  0  0  0
 16 19  2  0  0  0  0
 20 21  1  0  0  0  0
 20 22  1  0  0  0  0
 20 61  1  1  0  0  0
 22 23  1  0  0  0  0
 22 62  1  0  0  0  0
 22 63  1  0  0  0  0
 23 24  1  0  0  0  0
 24 25  1  6  0  0  0
 24 26  2  0  0  0  0
 24 27  1  0  0  0  0
 27 28  1  0  0  0  0
 28 29  1  6  0  0  0
 28 30  2  0  0  0  0
 28 31  1  0  0  0  0
 31 33  1  0  0  0  0
 32 34  1  0  0  0  0
 32 35  1  0  0  0  0
 32 36  1  0  0  0  0
 33 32  1  0  0  0  0
 33 64  1  0  0  0  0
 33 65  1  0  0  0  0
 34 66  1  0  0  0  0
 34 67  1  0  0  0  0
 34 68  1  0  0  0  0
 35 69  1  0  0  0  0
 35 70  1  0  0  0  0
 35 71  1  0  0  0  0
 36 37  1  0  0  0  0
 36 38  1  0  0  0  0
 36 72  1  1  0  0  0
 37 73  1  0  0  0  0
 38 39  2  0  0  0  0
 38 40  1  0  0  0  0
 40 41  1  0  0  0  0
 40 74  1  0  0  0  0
 41 42  1  0  0  0  0
 41 75  1  0  0  0  0
 41 76  1  0  0  0  0
 42 43  1  0  0  0  0
 42 77  1  0  0  0  0
 42 78  1  0  0  0  0
 43 44  2  0  0  0  0
 43 45  1  0  0  0  0
 45 46  1  0  0  0  0
 45 79  1  0  0  0  0
 46 47  1  0  0  0  0
 46 80  1  0  0  0  0
 46 81  1  0  0  0  0
 47 48  1  0  0  0  0
 47 82  1  0  0  0  0
 47 83  1  0  0  0  0
 48 49  1  0  0  0  0
 48 50  1  0  0  0  0
 48 84  1  6  0  0  0
 50 51  1  0  0  0  0
 50 52  2  0  0  0  0
M  CHG  1  51  -1
M  END
