1cw2_ligand
 OpenBabel08222323343D

 30 30  0  0  0  0  0  0  0  0999 V2000
   46.9560   30.2100    9.7290 O   0  0  0  0  0  1  0  0  0  0  0  0
   48.4690   28.7120    8.5800 O   0  0  0  0  0  1  0  0  0  0  0  0
   47.7130   26.3180   16.1920 O   0  0  0  0  0  0  0  0  0  0  0  0
   49.6490   24.6200   15.6400 C   0  0  0  0  0  0  0  0  0  0  0  0
   50.1260   25.9330   15.7100 C   0  0  0  0  0  0  0  0  0  0  0  0
   51.4640   26.2280   15.3170 C   0  0  0  0  0  0  0  0  0  0  0  0
   52.2950   25.1950   14.8580 C   0  0  0  0  0  0  0  0  0  0  0  0
   51.8110   23.8760   14.7890 C   0  0  0  0  0  0  0  0  0  0  0  0
   50.4920   23.5920   15.1780 C   0  0  0  0  0  0  0  0  0  0  0  0
   51.9530   27.5050   15.3800 O   0  0  0  0  0  0  0  0  0  0  0  0
   49.0580   27.2410   16.3030 S   0  0  1  0  0  0  0  0  0  0  0  0
   49.0490   28.4950   14.9860 C   0  0  0  0  0  0  0  0  0  0  0  0
   48.6040   27.8780   13.6700 C   0  0  0  0  0  0  0  0  0  0  0  0
   48.5950   28.9230   12.5610 C   0  0  0  0  0  0  0  0  0  0  0  0
   48.1530   28.2930   11.2330 C   0  0  0  0  0  0  0  0  0  0  0  0
   48.2270   29.3870    9.9100 P   0  0  0  0  0  0  0  0  0  0  0  0
   49.3350   30.4200   10.0340 O   0  0  0  0  0  0  0  0  0  0  0  0
   48.6323   24.3947   15.9409 H   0  0  0  0  0  0  0  0  0  0  0  0
   53.3127   25.4139   14.5557 H   0  0  0  0  0  0  0  0  0  0  0  0
   52.4558   23.0794   14.4358 H   0  0  0  0  0  0  0  0  0  0  0  0
   50.1209   22.5750   15.1221 H   0  0  0  0  0  0  0  0  0  0  0  0
   52.2187   27.7844   14.5118 H   0  0  0  0  0  0  0  0  0  0  0  0
   50.0629   28.9054   14.8693 H   0  0  0  0  0  0  0  0  0  0  0  0
   48.3554   29.3035   15.2601 H   0  0  0  0  0  0  0  0  0  0  0  0
   47.5901   27.4680   13.7880 H   0  0  0  0  0  0  0  0  0  0  0  0
   49.2975   27.0687   13.3978 H   0  0  0  0  0  0  0  0  0  0  0  0
   49.6074   29.3375   12.4458 H   0  0  0  0  0  0  0  0  0  0  0  0
   47.8968   29.7296   12.8292 H   0  0  0  0  0  0  0  0  0  0  0  0
   47.1158   27.9426   11.3398 H   0  0  0  0  0  0  0  0  0  0  0  0
   48.8088   27.4369   11.0163 H   0  0  0  0  0  0  0  0  0  0  0  0
  4  9  1  0  0  0  0
  4 18  1  0  0  0  0
  5  4  2  0  0  0  0
  5  6  1  0  0  0  0
  6  7  2  0  0  0  0
  6 10  1  0  0  0  0
  7  8  1  0  0  0  0
  7 19  1  0  0  0  0
  8 20  1  0  0  0  0
  9  8  2  0  0  0  0
  9 21  1  0  0  0  0
 10 22  1  0  0  0  0
 11  3  2  6  0  0  0
 11  5  1  0  0  0  0
 12 11  1  0  0  0  0
 12 23  1  0  0  0  0
 12 24  1  0  0  0  0
 13 12  1  0  0  0  0
 13 25  1  0  0  0  0
 13 26  1  0  0  0  0
 14 13  1  0  0  0  0
 14 27  1  0  0  0  0
 14 28  1  0  0  0  0
 15 14  1  0  0  0  0
 15 16  1  0  0  0  0
 15 29  1  0  0  0  0
 15 30  1  0  0  0  0
 16  1  1  0  0  0  0
 16  2  1  0  0  0  0
 16 17  2  0  0  0  0
M  END
