1czc_ligand
 OpenBabel08222323343D

 15 14  0  0  0  0  0  0  0  0999 V2000
   24.7030   10.1530  -10.8530 C   0  0  0  0  0  0  0  0  0  0  0  0
   23.2970    9.9960  -11.3500 C   0  0  0  0  0  0  0  0  0  0  0  0
   22.9610   10.8420  -12.5170 C   0  0  0  0  0  0  0  0  0  0  0  0
   23.6990   10.2330  -13.7050 C   0  0  0  0  0  0  0  0  0  0  0  0
   24.3590   11.2860  -14.5330 C   0  0  0  0  0  0  0  0  0  0  0  0
   25.5060   10.9490  -11.4040 O   0  5  0  0  0  0  0  0  0  0  0  0
   25.0040    9.4500   -9.8840 O   0  0  0  0  0  0  0  0  0  0  0  0
   23.8520   12.4080  -14.5190 O   0  5  0  0  0  0  0  0  0  0  0  0
   25.3790   11.0160  -15.2060 O   0  0  0  0  0  0  0  0  0  0  0  0
   22.6115   10.2545  -10.5295 H   0  0  0  0  0  0  0  0  0  0  0  0
   23.1484    8.9438  -11.6342 H   0  0  0  0  0  0  0  0  0  0  0  0
   23.2960   11.8761  -12.3484 H   0  0  0  0  0  0  0  0  0  0  0  0
   21.8757   10.8327  -12.6959 H   0  0  0  0  0  0  0  0  0  0  0  0
   22.9795    9.6843  -14.3305 H   0  0  0  0  0  0  0  0  0  0  0  0
   24.4657    9.5378  -13.3322 H   0  0  0  0  0  0  0  0  0  0  0  0
  1  2  1  0  0  0  0
  1  6  1  0  0  0  0
  1  7  2  0  0  0  0
  2  3  1  0  0  0  0
  2 10  1  0  0  0  0
  2 11  1  0  0  0  0
  3  4  1  0  0  0  0
  3 12  1  0  0  0  0
  3 13  1  0  0  0  0
  4  5  1  0  0  0  0
  4 14  1  0  0  0  0
  4 15  1  0  0  0  0
  5  8  1  0  0  0  0
  5  9  2  0  0  0  0
M  CHG  2   6  -1   8  -1
M  END
