1cze_ligand
 OpenBabel08222323343D

 12 11  0  0  0  0  0  0  0  0999 V2000
   24.5500   10.2780  -10.9290 C   0  0  0  0  0  0  0  0  0  0  0  0
   24.1320   10.1920   -9.7980 O   0  5  0  0  0  0  0  0  0  0  0  0
   25.6880   10.6540  -11.1490 O   0  0  0  0  0  0  0  0  0  0  0  0
   23.6390    9.9020  -12.1110 C   0  0  0  0  0  0  0  0  0  0  0  0
   24.2590   10.0180  -13.5320 C   0  0  0  0  0  0  0  0  0  0  0  0
   24.2680   11.3430  -14.3080 C   0  0  0  0  0  0  0  0  0  0  0  0
   24.7840   11.3420  -15.3880 O   0  5  0  0  0  0  0  0  0  0  0  0
   23.7700   12.3310  -13.8240 O   0  0  0  0  0  0  0  0  0  0  0  0
   22.7585   10.5604  -12.0764 H   0  0  0  0  0  0  0  0  0  0  0  0
   23.3222    8.8582  -11.9694 H   0  0  0  0  0  0  0  0  0  0  0  0
   23.7214    9.2949  -14.1629 H   0  0  0  0  0  0  0  0  0  0  0  0
   25.3106    9.7100  -13.4357 H   0  0  0  0  0  0  0  0  0  0  0  0
  1  2  1  0  0  0  0
  1  3  2  0  0  0  0
  1  4  1  0  0  0  0
  4  5  1  0  0  0  0
  4  9  1  0  0  0  0
  4 10  1  0  0  0  0
  5  6  1  0  0  0  0
  5 11  1  0  0  0  0
  5 12  1  0  0  0  0
  6  7  1  0  0  0  0
  6  8  2  0  0  0  0
M  CHG  2   2  -1   7  -1
M  END
