1czq_ligand
 OpenBabel08222323343D

246251  0  0  1  0  0  0  0  0999 V2000
   11.6740   -0.2850   28.7850 C   0  0  0  0  0  0  0  0  0  0  0  0
   11.9050    0.6770   28.0160 O   0  0  0  0  0  0  0  0  0  0  0  0
   10.2750   -0.7940   28.9420 C   0  0  0  0  0  0  0  0  0  0  0  0
   12.6310   -0.8990   29.4870 N   0  0  0  0  0  0  0  0  0  0  0  0
   13.9970   -0.4230   29.3560 C   0  0  0  0  0  0  0  0  0  0  0  0
   15.2000   -1.0510   30.0440 C   0  0  0  0  0  0  0  0  0  0  0  0
   15.1330   -2.0440   30.7850 O   0  0  0  0  0  0  0  0  0  0  0  0
   16.3320   -0.4240   29.7520 N   0  0  0  0  0  0  0  0  0  0  0  0
   17.6390   -0.7970   30.2790 C   0  0  2  0  0  0  0  0  0  0  0  0
   18.6880    0.1960   29.7620 C   0  0  0  0  0  0  0  0  0  0  0  0
   18.0260   -2.2170   29.8710 C   0  0  0  0  0  0  0  0  0  0  0  0
   18.6110   -2.9820   30.6470 O   0  0  0  0  0  0  0  0  0  0  0  0
   17.6990   -2.5770   28.6400 N   0  0  0  0  0  0  0  0  0  0  0  0
   18.0610   -3.8920   28.1590 C   0  0  1  0  0  0  0  0  0  0  0  0
   17.1040   -4.9870   28.6180 C   0  0  0  0  0  0  0  0  0  0  0  0
   17.5310   -6.0200   29.1110 O   0  0  0  0  0  0  0  0  0  0  0  0
   18.1280   -3.8760   26.6380 C   0  0  0  0  0  0  0  0  0  0  0  0
   19.5020   -2.9910   25.8400 S   0  0  0  0  0  0  0  0  0  0  0  0
   15.8130   -4.7360   28.4740 N   0  0  0  0  0  0  0  0  0  0  0  0
   14.7820   -5.7020   28.8340 C   0  0  1  0  0  0  0  0  0  0  0  0
   14.8750   -6.1800   30.2760 C   0  0  0  0  0  0  0  0  0  0  0  0
   14.8320   -7.3810   30.5530 O   0  0  0  0  0  0  0  0  0  0  0  0
   13.3970   -5.0900   28.5740 C   0  0  0  0  0  0  0  0  0  0  0  0
   13.0600   -4.8440   27.0930 C   0  0  0  0  0  0  0  0  0  0  0  0
   13.6630   -3.5680   26.5000 C   0  0  0  0  0  0  0  0  0  0  0  0
   14.4220   -2.8590   27.1820 O   0  5  0  0  0  0  0  0  0  0  0  0
   13.3670   -3.2640   25.3230 O   0  0  0  0  0  0  0  0  0  0  0  0
   15.0220   -5.2370   31.1960 N   0  0  0  0  0  0  0  0  0  0  0  0
   15.0980   -5.5660   32.6110 C   0  0  2  0  0  0  0  0  0  0  0  0
   14.9840   -4.2960   33.4060 C   0  0  0  0  0  0  0  0  0  0  0  0
   16.3620   -6.3400   33.0080 C   0  0  0  0  0  0  0  0  0  0  0  0
   16.3870   -7.0440   34.0270 O   0  0  0  0  0  0  0  0  0  0  0  0
   17.4180   -6.2020   32.2160 N   0  0  0  0  0  0  0  0  0  0  0  0
   18.6730   -6.8930   32.4890 C   0  0  2  0  0  0  0  0  0  0  0  0
   18.4800   -8.4080   32.3690 C   0  0  0  0  0  0  0  0  0  0  0  0
   18.1690   -8.8470   30.9690 C   0  0  0  0  0  0  0  0  0  0  0  0
   19.3970   -8.7620   30.0700 C   0  0  0  0  0  0  0  0  0  0  0  0
   19.7150   -7.4080   29.6070 N   0  0  0  0  0  0  0  0  0  0  0  0
   20.1210   -7.1340   28.3700 C   0  0  0  0  0  3  0  0  0  0  0  0
   20.2480   -8.1180   27.4810 N   0  0  0  0  0  0  0  0  0  0  0  0
   20.4090   -5.8910   28.0150 N   0  0  0  0  0  0  0  0  0  0  0  0
   19.3130   -6.5820   33.8330 C   0  0  0  0  0  0  0  0  0  0  0  0
   19.9940   -7.4230   34.4210 O   0  0  0  0  0  0  0  0  0  0  0  0
   19.1000   -5.3790   34.3420 N   0  0  0  0  0  0  0  0  0  0  0  0
   19.7310   -5.0180   35.6240 C   0  0  1  0  0  0  0  0  0  0  0  0
   21.1560   -4.6360   35.3290 C   0  0  0  0  0  0  0  0  0  0  0  0
   21.4120   -3.7430   34.5360 O   0  0  0  0  0  0  0  0  0  0  0  0
   18.9700   -3.8880   36.2840 C   0  0  0  0  0  0  0  0  0  0  0  0
   17.6550   -4.3210   36.8540 C   0  0  0  0  0  0  0  0  0  0  0  0
   16.6500   -3.4450   37.1870 N   0  0  0  0  0  0  0  0  0  0  0  0
   17.1780   -5.5670   37.1040 C   0  0  0  0  0  0  0  0  0  0  0  0
   15.5950   -4.1340   37.6080 C   0  0  0  0  0  0  0  0  0  0  0  0
   15.8940   -5.4190   37.5620 N   0  0  0  0  0  0  0  0  0  0  0  0
   22.0910   -5.2980   36.0030 N   0  0  0  0  0  0  0  0  0  0  0  0
   23.4940   -5.1220   35.7780 C   0  0  2  0  0  0  0  0  0  0  0  0
   24.2840   -5.9940   36.7550 C   0  0  0  0  0  0  0  0  0  0  0  0
   24.1750   -7.4280   36.4590 C   0  0  0  0  0  0  0  0  0  0  0  0
   24.7430   -8.2070   37.6310 C   0  0  0  0  0  0  0  0  0  0  0  0
   24.5810   -9.6030   37.3250 N   0  0  0  0  0  0  0  0  0  0  0  0
   25.2580  -10.1890   36.3520 C   0  0  0  0  0  3  0  0  0  0  0  0
   26.1390   -9.4850   35.6580 N   0  0  0  0  0  0  0  0  0  0  0  0
   24.9870  -11.4320   36.0270 N   0  0  0  0  0  0  0  0  0  0  0  0
   23.9850   -3.7110   35.8730 C   0  0  0  0  0  0  0  0  0  0  0  0
   24.8560   -3.3610   35.1240 O   0  0  0  0  0  0  0  0  0  0  0  0
   23.4070   -2.9340   36.7830 N   0  0  0  0  0  0  0  0  0  0  0  0
   23.9000   -1.5780   36.9510 C   0  0  1  0  0  0  0  0  0  0  0  0
   23.6010   -0.7170   35.7470 C   0  0  0  0  0  0  0  0  0  0  0  0
   24.1420    0.3830   35.6550 O   0  0  0  0  0  0  0  0  0  0  0  0
   23.3580   -0.9540   38.2610 C   0  0  0  0  0  0  0  0  0  0  0  0
   21.8760   -0.6520   38.3230 C   0  0  0  0  0  0  0  0  0  0  0  0
   20.9960   -1.8160   38.7860 C   0  0  0  0  0  0  0  0  0  0  0  0
   21.4070   -2.9820   38.5840 O   0  5  0  0  0  0  0  0  0  0  0  0
   19.9330   -1.4980   39.3100 O   0  0  0  0  0  0  0  0  0  0  0  0
   22.7470   -1.1860   34.8440 N   0  0  0  0  0  0  0  0  0  0  0  0
   22.4620   -0.4350   33.6110 C   0  0  2  0  0  0  0  0  0  0  0  0
   20.9600   -0.1870   33.4200 C   0  0  0  0  0  0  0  0  0  0  0  0
   20.3540    0.7910   34.4100 C   0  0  0  0  0  0  0  0  0  0  0  0
   19.5040    0.5120   35.4490 C   0  0  0  0  0  0  0  0  0  0  0  0
   19.1220    1.6760   36.0730 N   0  0  0  0  0  0  0  0  0  0  0  0
   19.7340    2.7300   35.4240 C   0  0  0  0  0  0  0  0  0  0  0  0
   19.6500    4.1070   35.6660 C   0  0  0  0  0  0  0  0  0  0  0  0
   20.3820    4.9350   34.8500 C   0  0  0  0  0  0  0  0  0  0  0  0
   21.1740    4.4440   33.8050 C   0  0  0  0  0  0  0  0  0  0  0  0
   21.2370    3.0750   33.5630 C   0  0  0  0  0  0  0  0  0  0  0  0
   20.5040    2.2000   34.3840 C   0  0  0  0  0  0  0  0  0  0  0  0
   23.0000   -1.1400   32.3760 C   0  0  0  0  0  0  0  0  0  0  0  0
   22.7900   -0.6820   31.2440 O   0  0  0  0  0  0  0  0  0  0  0  0
   23.7440   -2.2270   32.5720 N   0  0  0  0  0  0  0  0  0  0  0  0
   24.2530   -2.9400   31.4070 C   0  0  2  0  0  0  0  0  0  0  0  0
   25.0340   -4.1680   31.8670 C   0  0  0  0  0  0  0  0  0  0  0  0
   25.1260   -2.0740   30.5010 C   0  0  0  0  0  0  0  0  0  0  0  0
   25.0780   -2.2210   29.2670 O   0  0  0  0  0  0  0  0  0  0  0  0
   25.8840   -1.1420   31.0840 N   0  0  0  0  0  0  0  0  0  0  0  0
   26.7590   -0.2750   30.3170 C   0  0  2  0  0  0  0  0  0  0  0  0
   27.5860    0.6450   31.2390 C   0  0  0  0  0  0  0  0  0  0  0  0
   26.7250    1.5880   32.0590 C   0  0  0  0  0  0  0  0  0  0  0  0
   26.1770    1.3350   33.2560 C   0  0  0  0  0  0  0  0  0  0  0  0
   25.4020    2.4000   33.6680 N   0  0  0  0  0  0  0  0  0  0  0  0
   25.4590    3.3710   32.7060 C   0  0  0  0  0  0  0  0  0  0  0  0
   24.8420    4.6280   32.6640 C   0  0  0  0  0  0  0  0  0  0  0  0
   25.0900    5.4060   31.5500 C   0  0  0  0  0  0  0  0  0  0  0  0
   25.9040    4.9770   30.5250 C   0  0  0  0  0  0  0  0  0  0  0  0
   26.5190    3.7140   30.5610 C   0  0  0  0  0  0  0  0  0  0  0  0
   26.2850    2.9000   31.6760 C   0  0  0  0  0  0  0  0  0  0  0  0
   25.9130    0.5770   29.3460 C   0  0  0  0  0  0  0  0  0  0  0  0
   26.3470    0.8700   28.2310 O   0  0  0  0  0  0  0  0  0  0  0  0
   24.7400    1.0200   29.7900 N   0  0  0  0  0  0  0  0  0  0  0  0
   23.9150    1.8660   28.9260 C   0  0  2  0  0  0  0  0  0  0  0  0
   22.8830    2.6470   29.7560 C   0  0  0  0  0  0  0  0  0  0  0  0
   21.8570    3.4890   28.9710 C   0  0  0  0  0  0  0  0  0  0  0  0
   22.5590    4.5850   28.2040 C   0  0  0  0  0  0  0  0  0  0  0  0
   20.8860    4.1050   29.9380 C   0  0  0  0  0  0  0  0  0  0  0  0
   23.2650    1.0110   27.8470 C   0  0  0  0  0  0  0  0  0  0  0  0
   23.2240    1.4290   26.7020 O   0  0  0  0  0  0  0  0  0  0  0  0
   22.7750   -0.1800   28.1990 N   0  0  0  0  0  0  0  0  0  0  0  0
   22.1900   -1.0460   27.1960 C   0  0  1  0  0  0  0  0  0  0  0  0
   23.2720   -1.3290   26.1240 C   0  0  0  0  0  0  0  0  0  0  0  0
   22.9630   -1.3180   24.9160 O   0  0  0  0  0  0  0  0  0  0  0  0
   21.6750   -2.3190   27.8740 C   0  0  0  0  0  0  0  0  0  0  0  0
   21.2160   -3.6690   26.7320 S   0  0  0  0  0  0  0  0  0  0  0  0
   24.5140   -1.5680   26.5330 N   0  0  0  0  0  0  0  0  0  0  0  0
   25.6270   -1.8570   25.6140 C   0  0  2  0  0  0  0  0  0  0  0  0
   26.8680   -2.3020   26.4010 C   0  0  0  0  0  0  0  0  0  0  0  0
   25.9870   -0.6720   24.7170 C   0  0  0  0  0  0  0  0  0  0  0  0
   26.5110   -0.8440   23.6140 O   0  0  0  0  0  0  0  0  0  0  0  0
   25.7230    0.5440   25.1920 N   0  0  0  0  0  0  0  0  0  0  0  0
   26.0170    1.7430   24.4000 C   0  0  2  0  0  0  0  0  0  0  0  0
   26.0060    2.9850   25.3140 C   0  0  0  0  0  0  0  0  0  0  0  0
   24.9950    1.9320   23.2780 C   0  0  0  0  0  0  0  0  0  0  0  0
   25.3550    2.5700   22.2560 O   0  5  0  0  0  0  0  0  0  0  0  0
   23.8430    1.4600   23.4100 O   0  0  0  0  0  0  0  0  0  0  0  0
   10.2681   -1.6343   29.6518 H   0  0  0  0  0  0  0  0  0  0  0  0
    9.8972   -1.1348   27.9668 H   0  0  0  0  0  0  0  0  0  0  0  0
    9.6318    0.0130   29.3228 H   0  0  0  0  0  0  0  0  0  0  0  0
   12.4120   -1.6676   30.0880 H   0  0  0  0  0  0  0  0  0  0  0  0
   13.9783    0.6243   29.6917 H   0  0  0  0  0  0  0  0  0  0  0  0
   14.2204   -0.4591   28.2795 H   0  0  0  0  0  0  0  0  0  0  0  0
   16.2857    0.3567   29.1287 H   0  0  0  0  0  0  0  0  0  0  0  0
   17.6049   -0.7451   31.3772 H   0  0  0  0  0  0  0  0  0  0  0  0
   19.6779   -0.0785   30.1553 H   0  0  0  0  0  0  0  0  0  0  0  0
   18.4288    1.2110   30.0974 H   0  0  0  0  0  0  0  0  0  0  0  0
   18.7095    0.1674   28.6626 H   0  0  0  0  0  0  0  0  0  0  0  0
   17.2042   -1.9430   28.0456 H   0  0  0  0  0  0  0  0  0  0  0  0
   19.0602   -4.1316   28.5516 H   0  0  0  0  0  0  0  0  0  0  0  0
   17.1945   -3.4202   26.2764 H   0  0  0  0  0  0  0  0  0  0  0  0
   18.1783   -4.9228   26.3040 H   0  0  0  0  0  0  0  0  0  0  0  0
   15.5337   -3.8499   28.1041 H   0  0  0  0  0  0  0  0  0  0  0  0
   14.9029   -6.5803   28.1828 H   0  0  0  0  0  0  0  0  0  0  0  0
   13.3466   -4.1251   29.0998 H   0  0  0  0  0  0  0  0  0  0  0  0
   12.6397   -5.7727   28.9869 H   0  0  0  0  0  0  0  0  0  0  0  0
   11.9660   -4.7820   26.9969 H   0  0  0  0  0  0  0  0  0  0  0  0
   13.4313   -5.7003   26.5109 H   0  0  0  0  0  0  0  0  0  0  0  0
   15.0819   -4.2802   30.9116 H   0  0  0  0  0  0  0  0  0  0  0  0
   14.2351   -6.2043   32.8519 H   0  0  0  0  0  0  0  0  0  0  0  0
   15.0399   -4.5292   34.4795 H   0  0  0  0  0  0  0  0  0  0  0  0
   14.0217   -3.8107   33.1859 H   0  0  0  0  0  0  0  0  0  0  0  0
   15.8070   -3.6184   33.1347 H   0  0  0  0  0  0  0  0  0  0  0  0
   17.3516   -5.6100   31.4128 H   0  0  0  0  0  0  0  0  0  0  0  0
   19.3850   -6.5769   31.7125 H   0  0  0  0  0  0  0  0  0  0  0  0
   17.6492   -8.7091   33.0241 H   0  0  0  0  0  0  0  0  0  0  0  0
   19.4042   -8.9067   32.6962 H   0  0  0  0  0  0  0  0  0  0  0  0
   17.3802   -8.1995   30.5584 H   0  0  0  0  0  0  0  0  0  0  0  0
   17.8142   -9.8879   30.9915 H   0  0  0  0  0  0  0  0  0  0  0  0
   19.2222   -9.3952   29.1877 H   0  0  0  0  0  0  0  0  0  0  0  0
   20.2617   -9.1457   30.6313 H   0  0  0  0  0  0  0  0  0  0  0  0
   19.6192   -6.6287   30.2736 H   0  0  0  0  0  0  0  0  0  0  0  0
   20.5621   -7.9088   26.5226 H   0  0  0  0  0  0  0  0  0  0  0  0
   20.0321   -9.0880   27.7520 H   0  0  0  0  0  0  0  0  0  0  0  0
   20.3131   -5.1252   28.6971 H   0  0  0  0  0  0  0  0  0  0  0  0
   20.7289   -5.6901   27.0568 H   0  0  0  0  0  0  0  0  0  0  0  0
   18.5177   -4.7226   33.8623 H   0  0  0  0  0  0  0  0  0  0  0  0
   19.7212   -5.8882   36.2968 H   0  0  0  0  0  0  0  0  0  0  0  0
   18.7857   -3.1048   35.5340 H   0  0  0  0  0  0  0  0  0  0  0  0
   19.5867   -3.4787   37.0977 H   0  0  0  0  0  0  0  0  0  0  0  0
   16.7057   -2.4186   37.1208 H   0  0  0  0  0  0  0  0  0  0  0  0
   17.7131   -6.5055   36.9669 H   0  0  0  0  0  0  0  0  0  0  0  0
   14.6462   -3.7112   37.9350 H   0  0  0  0  0  0  0  0  0  0  0  0
   21.8001   -5.9514   36.7019 H   0  0  0  0  0  0  0  0  0  0  0  0
   23.7036   -5.4708   34.7560 H   0  0  0  0  0  0  0  0  0  0  0  0
   23.9030   -5.8157   37.7714 H   0  0  0  0  0  0  0  0  0  0  0  0
   25.3442   -5.7051   36.7048 H   0  0  0  0  0  0  0  0  0  0  0  0
   24.7437   -7.6628   35.5471 H   0  0  0  0  0  0  0  0  0  0  0  0
   23.1186   -7.6971   36.3119 H   0  0  0  0  0  0  0  0  0  0  0  0
   24.1964   -7.9561   38.5520 H   0  0  0  0  0  0  0  0  0  0  0  0
   25.8092   -7.9699   37.7612 H   0  0  0  0  0  0  0  0  0  0  0  0
   23.9181  -10.1627   37.8801 H   0  0  0  0  0  0  0  0  0  0  0  0
   26.6716   -9.9319   34.8981 H   0  0  0  0  0  0  0  0  0  0  0  0
   26.2917   -8.4904   35.8781 H   0  0  0  0  0  0  0  0  0  0  0  0
   24.2998  -11.9694   36.5746 H   0  0  0  0  0  0  0  0  0  0  0  0
   25.4617  -11.8697   35.2245 H   0  0  0  0  0  0  0  0  0  0  0  0
   22.6496   -3.2752   37.3397 H   0  0  0  0  0  0  0  0  0  0  0  0
   24.9945   -1.6358   37.0440 H   0  0  0  0  0  0  0  0  0  0  0  0
   23.8953   -0.0081   38.4238 H   0  0  0  0  0  0  0  0  0  0  0  0
   23.5878   -1.6519   39.0796 H   0  0  0  0  0  0  0  0  0  0  0  0
   21.5462   -0.3546   37.3166 H   0  0  0  0  0  0  0  0  0  0  0  0
   21.7276    0.1859   39.0201 H   0  0  0  0  0  0  0  0  0  0  0  0
   22.2914   -2.0616   35.0044 H   0  0  0  0  0  0  0  0  0  0  0  0
   22.9628    0.5408   33.6946 H   0  0  0  0  0  0  0  0  0  0  0  0
   20.4368   -1.1491   33.5231 H   0  0  0  0  0  0  0  0  0  0  0  0
   20.8031    0.2089   32.4058 H   0  0  0  0  0  0  0  0  0  0  0  0
   19.1788   -0.4863   35.7379 H   0  0  0  0  0  0  0  0  0  0  0  0
   18.4899    1.7490   36.8829 H   0  0  0  0  0  0  0  0  0  0  0  0
   19.0328    4.5031   36.4643 H   0  0  0  0  0  0  0  0  0  0  0  0
   20.3452    6.0048   35.0210 H   0  0  0  0  0  0  0  0  0  0  0  0
   21.7383    5.1305   33.1842 H   0  0  0  0  0  0  0  0  0  0  0  0
   21.8434    2.6882   32.7520 H   0  0  0  0  0  0  0  0  0  0  0  0
   23.9488   -2.5467   33.4971 H   0  0  0  0  0  0  0  0  0  0  0  0
   23.3894   -3.2776   30.8153 H   0  0  0  0  0  0  0  0  0  0  0  0
   25.4191   -4.7076   30.9892 H   0  0  0  0  0  0  0  0  0  0  0  0
   24.3704   -4.8302   32.4424 H   0  0  0  0  0  0  0  0  0  0  0  0
   25.8754   -3.8512   32.5008 H   0  0  0  0  0  0  0  0  0  0  0  0
   25.8476   -1.0385   32.0780 H   0  0  0  0  0  0  0  0  0  0  0  0
   27.4511   -0.9001   29.7337 H   0  0  0  0  0  0  0  0  0  0  0  0
   28.2680    1.2436   30.6173 H   0  0  0  0  0  0  0  0  0  0  0  0
   28.1721    0.0176   31.9266 H   0  0  0  0  0  0  0  0  0  0  0  0
   26.3230    0.4173   33.8239 H   0  0  0  0  0  0  0  0  0  0  0  0
   24.8714    2.4545   34.5491 H   0  0  0  0  0  0  0  0  0  0  0  0
   24.2009    4.9734   33.4670 H   0  0  0  0  0  0  0  0  0  0  0  0
   24.6296    6.3849   31.4802 H   0  0  0  0  0  0  0  0  0  0  0  0
   26.0735    5.6265   29.6738 H   0  0  0  0  0  0  0  0  0  0  0  0
   27.1556    3.3799   29.7497 H   0  0  0  0  0  0  0  0  0  0  0  0
   24.4241    0.7769   30.7071 H   0  0  0  0  0  0  0  0  0  0  0  0
   24.5702    2.5977   28.4307 H   0  0  0  0  0  0  0  0  0  0  0  0
   23.4357    3.3286   30.4193 H   0  0  0  0  0  0  0  0  0  0  0  0
   22.3231    1.9194   30.3620 H   0  0  0  0  0  0  0  0  0  0  0  0
   21.3149    2.8409   28.2667 H   0  0  0  0  0  0  0  0  0  0  0  0
   21.8167    5.1775   27.6491 H   0  0  0  0  0  0  0  0  0  0  0  0
   23.2738    4.1381   27.4974 H   0  0  0  0  0  0  0  0  0  0  0  0
   23.0975    5.2375   28.9070 H   0  0  0  0  0  0  0  0  0  0  0  0
   20.3726    3.3099   30.4986 H   0  0  0  0  0  0  0  0  0  0  0  0
   20.1450    4.7004   29.3844 H   0  0  0  0  0  0  0  0  0  0  0  0
   21.4294    4.7556   30.6390 H   0  0  0  0  0  0  0  0  0  0  0  0
   22.8118   -0.4739   29.1541 H   0  0  0  0  0  0  0  0  0  0  0  0
   21.3411   -0.5357   26.7174 H   0  0  0  0  0  0  0  0  0  0  0  0
   20.7859   -2.0551   28.4654 H   0  0  0  0  0  0  0  0  0  0  0  0
   22.4636   -2.6920   28.5440 H   0  0  0  0  0  0  0  0  0  0  0  0
   24.7018   -1.5506   27.5151 H   0  0  0  0  0  0  0  0  0  0  0  0
   25.3144   -2.6872   24.9636 H   0  0  0  0  0  0  0  0  0  0  0  0
   27.6896   -2.5139   25.7009 H   0  0  0  0  0  0  0  0  0  0  0  0
   26.6320   -3.2102   26.9750 H   0  0  0  0  0  0  0  0  0  0  0  0
   27.1715   -1.5008   27.0908 H   0  0  0  0  0  0  0  0  0  0  0  0
   25.3186    0.6409   26.1015 H   0  0  0  0  0  0  0  0  0  0  0  0
   27.0163    1.6340   23.9534 H   0  0  0  0  0  0  0  0  0  0  0  0
   26.2268    3.8818   24.7166 H   0  0  0  0  0  0  0  0  0  0  0  0
   26.7687    2.8699   26.0982 H   0  0  0  0  0  0  0  0  0  0  0  0
   25.0146    3.0892   25.7791 H   0  0  0  0  0  0  0  0  0  0  0  0
  1  2  2  0  0  0  0
  1  3  1  0  0  0  0
  1  4  1  0  0  0  0
  3132  1  0  0  0  0
  3133  1  0  0  0  0
  3134  1  0  0  0  0
  4  5  1  0  0  0  0
  4135  1  0  0  0  0
  5  6  1  0  0  0  0
  5136  1  0  0  0  0
  5137  1  0  0  0  0
  6  7  2  0  0  0  0
  6  8  1  0  0  0  0
  8  9  1  0  0  0  0
  8138  1  0  0  0  0
  9 10  1  0  0  0  0
  9 11  1  0  0  0  0
  9139  1  1  0  0  0
 10140  1  0  0  0  0
 10141  1  0  0  0  0
 10142  1  0  0  0  0
 11 12  2  0  0  0  0
 11 13  1  0  0  0  0
 13 14  1  0  0  0  0
 13143  1  0  0  0  0
 14 15  1  0  0  0  0
 14 17  1  0  0  0  0
 14144  1  1  0  0  0
 15 16  2  0  0  0  0
 15 19  1  0  0  0  0
 17 18  1  0  0  0  0
 17145  1  0  0  0  0
 17146  1  0  0  0  0
 18120  1  0  0  0  0
 19 20  1  0  0  0  0
 19147  1  0  0  0  0
 20 21  1  0  0  0  0
 20 23  1  0  0  0  0
 20148  1  6  0  0  0
 21 22  2  0  0  0  0
 21 28  1  0  0  0  0
 23 24  1  0  0  0  0
 23149  1  0  0  0  0
 23150  1  0  0  0  0
 24 25  1  0  0  0  0
 24151  1  0  0  0  0
 24152  1  0  0  0  0
 25 26  1  0  0  0  0
 25 27  2  0  0  0  0
 28 29  1  0  0  0  0
 28153  1  0  0  0  0
 29 30  1  0  0  0  0
 29 31  1  0  0  0  0
 29154  1  1  0  0  0
 30155  1  0  0  0  0
 30156  1  0  0  0  0
 30157  1  0  0  0  0
 31 32  2  0  0  0  0
 31 33  1  0  0  0  0
 33 34  1  0  0  0  0
 33158  1  0  0  0  0
 34 35  1  0  0  0  0
 34 42  1  0  0  0  0
 34159  1  6  0  0  0
 35 36  1  0  0  0  0
 35160  1  0  0  0  0
 35161  1  0  0  0  0
 36 37  1  0  0  0  0
 36162  1  0  0  0  0
 36163  1  0  0  0  0
 37 38  1  0  0  0  0
 37164  1  0  0  0  0
 37165  1  0  0  0  0
 38 39  1  0  0  0  0
 38166  1  0  0  0  0
 39 40  1  0  0  0  0
 39 41  1  0  0  0  0
 40167  1  0  0  0  0
 40168  1  0  0  0  0
 41169  1  0  0  0  0
 41170  1  0  0  0  0
 42 43  2  0  0  0  0
 42 44  1  0  0  0  0
 44 45  1  0  0  0  0
 44171  1  0  0  0  0
 45 46  1  0  0  0  0
 45 48  1  0  0  0  0
 45172  1  1  0  0  0
 46 47  2  0  0  0  0
 46 54  1  0  0  0  0
 48 49  1  0  0  0  0
 48173  1  0  0  0  0
 48174  1  0  0  0  0
 49 50  1  0  0  0  0
 49 51  2  0  0  0  0
 50 52  1  0  0  0  0
 50175  1  0  0  0  0
 51 53  1  0  0  0  0
 51176  1  0  0  0  0
 52 53  2  0  0  0  0
 52177  1  0  0  0  0
 54 55  1  0  0  0  0
 54178  1  0  0  0  0
 55 56  1  0  0  0  0
 55 63  1  0  0  0  0
 55179  1  6  0  0  0
 56 57  1  0  0  0  0
 56180  1  0  0  0  0
 56181  1  0  0  0  0
 57 58  1  0  0  0  0
 57182  1  0  0  0  0
 57183  1  0  0  0  0
 58 59  1  0  0  0  0
 58184  1  0  0  0  0
 58185  1  0  0  0  0
 59 60  1  0  0  0  0
 59186  1  0  0  0  0
 60 61  1  0  0  0  0
 60 62  1  0  0  0  0
 61187  1  0  0  0  0
 61188  1  0  0  0  0
 62189  1  0  0  0  0
 62190  1  0  0  0  0
 63 64  2  0  0  0  0
 63 65  1  0  0  0  0
 65 66  1  0  0  0  0
 65191  1  0  0  0  0
 66 67  1  0  0  0  0
 66 69  1  0  0  0  0
 66192  1  1  0  0  0
 67 68  2  0  0  0  0
 67 74  1  0  0  0  0
 69 70  1  0  0  0  0
 69193  1  0  0  0  0
 69194  1  0  0  0  0
 70 71  1  0  0  0  0
 70195  1  0  0  0  0
 70196  1  0  0  0  0
 71 72  1  0  0  0  0
 71 73  2  0  0  0  0
 74 75  1  0  0  0  0
 74197  1  0  0  0  0
 75 76  1  0  0  0  0
 75 86  1  0  0  0  0
 75198  1  1  0  0  0
 76 77  1  0  0  0  0
 76199  1  0  0  0  0
 76200  1  0  0  0  0
 77 78  2  0  0  0  0
 77 85  1  0  0  0  0
 78 79  1  0  0  0  0
 78201  1  0  0  0  0
 79 80  1  0  0  0  0
 79202  1  0  0  0  0
 80 81  2  0  0  0  0
 80 85  1  0  0  0  0
 81 82  1  0  0  0  0
 81203  1  0  0  0  0
 82 83  2  0  0  0  0
 82204  1  0  0  0  0
 83 84  1  0  0  0  0
 83205  1  0  0  0  0
 84 85  2  0  0  0  0
 84206  1  0  0  0  0
 86 87  2  0  0  0  0
 86 88  1  0  0  0  0
 88 89  1  0  0  0  0
 88207  1  0  0  0  0
 89 90  1  0  0  0  0
 89 91  1  0  0  0  0
 89208  1  6  0  0  0
 90209  1  0  0  0  0
 90210  1  0  0  0  0
 90211  1  0  0  0  0
 91 92  2  0  0  0  0
 91 93  1  0  0  0  0
 93 94  1  0  0  0  0
 93212  1  0  0  0  0
 94 95  1  0  0  0  0
 94105  1  0  0  0  0
 94213  1  6  0  0  0
 95 96  1  0  0  0  0
 95214  1  0  0  0  0
 95215  1  0  0  0  0
 96 97  2  0  0  0  0
 96104  1  0  0  0  0
 97 98  1  0  0  0  0
 97216  1  0  0  0  0
 98 99  1  0  0  0  0
 98217  1  0  0  0  0
 99100  2  0  0  0  0
 99104  1  0  0  0  0
100101  1  0  0  0  0
100218  1  0  0  0  0
101102  2  0  0  0  0
101219  1  0  0  0  0
102103  1  0  0  0  0
102220  1  0  0  0  0
103104  2  0  0  0  0
103221  1  0  0  0  0
105106  2  0  0  0  0
105107  1  0  0  0  0
107108  1  0  0  0  0
107222  1  0  0  0  0
108109  1  0  0  0  0
108113  1  0  0  0  0
108223  1  6  0  0  0
109110  1  0  0  0  0
109224  1  0  0  0  0
109225  1  0  0  0  0
110111  1  0  0  0  0
110112  1  0  0  0  0
110226  1  0  0  0  0
111227  1  0  0  0  0
111228  1  0  0  0  0
111229  1  0  0  0  0
112230  1  0  0  0  0
112231  1  0  0  0  0
112232  1  0  0  0  0
113114  2  0  0  0  0
113115  1  0  0  0  0
115116  1  0  0  0  0
115233  1  0  0  0  0
116117  1  0  0  0  0
116119  1  0  0  0  0
116234  1  6  0  0  0
117118  2  0  0  0  0
117121  1  0  0  0  0
119120  1  0  0  0  0
119235  1  0  0  0  0
119236  1  0  0  0  0
121122  1  0  0  0  0
121237  1  0  0  0  0
122123  1  0  0  0  0
122124  1  0  0  0  0
122238  1  6  0  0  0
123239  1  0  0  0  0
123240  1  0  0  0  0
123241  1  0  0  0  0
124125  2  0  0  0  0
124126  1  0  0  0  0
126127  1  0  0  0  0
126242  1  0  0  0  0
127128  1  0  0  0  0
127129  1  0  0  0  0
127243  1  6  0  0  0
128244  1  0  0  0  0
128245  1  0  0  0  0
128246  1  0  0  0  0
129130  1  0  0  0  0
129131  2  0  0  0  0
M  CHG  3  26  -1  72  -1 130  -1
M  END
