1d1p_ligand
 OpenBabel08222323343D

 35 35  0  0  1  0  0  0  0  0999 V2000
   -4.1490    2.2440   29.2940 N   0  3  1  0  0  0  0  0  0  0  0  0
   -4.7340    2.5950   28.0110 C   0  0  0  0  0  0  0  0  0  0  0  0
   -6.0290    3.3870   28.3020 C   0  0  0  0  0  0  0  0  0  0  0  0
   -6.9950    2.5910   29.1150 N   0  3  1  0  0  0  0  0  0  0  0  0
   -6.3200    2.1380   30.3750 C   0  0  0  0  0  0  0  0  0  0  0  0
   -5.0370    1.3620   30.0780 C   0  0  0  0  0  0  0  0  0  0  0  0
   -8.2130    3.4030   29.3810 C   0  0  0  0  0  0  0  0  0  0  0  0
   -9.2680    2.7150   30.2100 C   0  0  0  0  0  0  0  0  0  0  0  0
   -9.7770    1.4870   29.6800 O   0  0  0  0  0  0  0  0  0  0  0  0
   -2.7100    2.0330   29.4200 C   0  0  0  0  0  0  0  0  0  0  0  0
   -2.0160    0.7880   28.9150 C   0  0  0  0  0  0  0  0  0  0  0  0
   -0.3250    1.0900   29.4660 S   0  0  0  0  0  0  0  0  0  0  0  0
   -0.4120    1.8640   30.7390 O   0  0  0  0  0  0  0  0  0  0  0  0
    0.3470   -0.1810   29.6400 O   0  0  0  0  0  0  0  0  0  0  0  0
    0.2900    1.9030   28.4270 O   0  0  0  0  0  0  0  0  0  0  0  0
   -4.2402    3.1161   29.7911 H   0  0  0  0  0  0  0  0  0  0  0  0
   -4.9693    1.6836   27.4418 H   0  0  0  0  0  0  0  0  0  0  0  0
   -4.0333    3.2168   27.4345 H   0  0  0  0  0  0  0  0  0  0  0  0
   -6.5042    3.6557   27.3470 H   0  0  0  0  0  0  0  0  0  0  0  0
   -5.7699    4.3030   28.8532 H   0  0  0  0  0  0  0  0  0  0  0  0
   -7.2685    1.7747   28.5907 H   0  0  0  0  0  0  0  0  0  0  0  0
   -7.0085    1.4883   30.9352 H   0  0  0  0  0  0  0  0  0  0  0  0
   -6.0711    3.0198   30.9836 H   0  0  0  0  0  0  0  0  0  0  0  0
   -4.5453    1.0770   31.0198 H   0  0  0  0  0  0  0  0  0  0  0  0
   -5.2724    0.4570   29.4987 H   0  0  0  0  0  0  0  0  0  0  0  0
   -8.6614    3.6729   28.4135 H   0  0  0  0  0  0  0  0  0  0  0  0
   -7.9052    4.3169   29.9102 H   0  0  0  0  0  0  0  0  0  0  0  0
  -10.1136    3.4094   30.3232 H   0  0  0  0  0  0  0  0  0  0  0  0
   -8.8341    2.5014   31.1980 H   0  0  0  0  0  0  0  0  0  0  0  0
  -10.4314    1.1351   30.2719 H   0  0  0  0  0  0  0  0  0  0  0  0
   -2.4878    2.0893   30.4958 H   0  0  0  0  0  0  0  0  0  0  0  0
   -2.2326    2.8780   28.9022 H   0  0  0  0  0  0  0  0  0  0  0  0
   -2.0758    0.7082   27.8195 H   0  0  0  0  0  0  0  0  0  0  0  0
   -2.4337   -0.1211   29.3723 H   0  0  0  0  0  0  0  0  0  0  0  0
   -0.8584    2.6870   30.5780 H   0  0  0  0  0  0  0  0  0  0  0  0
  1  2  1  0  0  0  0
  1  6  1  0  0  0  0
  1 10  1  0  0  0  0
  1 16  1  1  0  0  0
  2  3  1  0  0  0  0
  2 17  1  0  0  0  0
  2 18  1  0  0  0  0
  3  4  1  0  0  0  0
  3 19  1  0  0  0  0
  3 20  1  0  0  0  0
  4  5  1  0  0  0  0
  4  7  1  0  0  0  0
  4 21  1  6  0  0  0
  5  6  1  0  0  0  0
  5 22  1  0  0  0  0
  5 23  1  0  0  0  0
  6 24  1  0  0  0  0
  6 25  1  0  0  0  0
  7  8  1  0  0  0  0
  7 26  1  0  0  0  0
  7 27  1  0  0  0  0
  8  9  1  0  0  0  0
  8 28  1  0  0  0  0
  8 29  1  0  0  0  0
  9 30  1  0  0  0  0
 10 11  1  0  0  0  0
 10 31  1  0  0  0  0
 10 32  1  0  0  0  0
 11 12  1  0  0  0  0
 11 33  1  0  0  0  0
 11 34  1  0  0  0  0
 12 13  1  0  0  0  0
 12 14  2  0  0  0  0
 12 15  2  0  0  0  0
 13 35  1  0  0  0  0
M  CHG  2   1   1   4   1
M  END
