1d4w_ligand
 OpenBabel08222323343D

172172  0  0  1  0  0  0  0  0999 V2000
   -0.1040  -11.0540    8.3520 N   0  3  0  0  0  0  0  0  0  0  0  0
    1.1030  -10.2200    8.3250 C   0  0  2  0  0  0  0  0  0  0  0  0
    1.6930  -10.0910    9.7260 C   0  0  0  0  0  0  0  0  0  0  0  0
    0.9590   -9.6650   10.6300 O   0  0  0  0  0  0  0  0  0  0  0  0
    0.7940   -8.8410    7.7400 C   0  0  0  0  0  0  0  0  0  0  0  0
    0.8050   -7.8220    8.7210 O   0  0  0  0  0  0  0  0  0  0  0  0
    2.9650  -10.4570    9.8620 N   0  0  0  0  0  0  0  0  0  0  0  0
    3.6820  -10.3930   11.1250 C   0  0  2  0  0  0  0  0  0  0  0  0
    4.4040   -9.0640   11.3030 C   0  0  0  0  0  0  0  0  0  0  0  0
    4.7760   -8.7690   12.4440 O   0  0  0  0  0  0  0  0  0  0  0  0
    4.6980  -11.5340   11.2530 C   0  0  0  0  0  0  0  0  0  0  0  0
    4.0740  -12.9350   11.2930 C   0  0  0  0  0  0  0  0  0  0  0  0
    5.1040  -13.9860   11.6670 C   0  0  0  0  0  0  0  0  0  0  0  0
    2.9030  -12.9730   12.2580 C   0  0  0  0  0  0  0  0  0  0  0  0
    4.5860   -8.2820   10.2510 N   0  0  0  0  0  0  0  0  0  0  0  0
    5.1580   -6.9400   10.3820 C   0  0  2  0  0  0  0  0  0  0  0  0
    4.0960   -5.9050   10.7190 C   0  0  0  0  0  0  0  0  0  0  0  0
    3.0440   -5.8090   10.0590 O   0  0  0  0  0  0  0  0  0  0  0  0
    5.8930   -6.5710    9.0730 C   0  0  2  0  0  0  0  0  0  0  0  0
    7.1740   -7.2290    9.0390 O   0  0  0  0  0  0  0  0  0  0  0  0
    6.1760   -5.0700    8.9700 C   0  0  0  0  0  0  0  0  0  0  0  0
    4.3600   -5.1010   11.7550 N   0  0  0  0  0  0  0  0  0  0  0  0
    3.5030   -3.9540   12.0900 C   0  0  2  0  0  0  0  0  0  0  0  0
    4.3350   -2.6750   12.0190 C   0  0  0  0  0  0  0  0  0  0  0  0
    5.3370   -2.6000   12.7190 O   0  0  0  0  0  0  0  0  0  0  0  0
    2.8220   -4.1280   13.4550 C   0  0  2  0  0  0  0  0  0  0  0  0
    1.6860   -5.1740   13.4230 C   0  0  0  0  0  0  0  0  0  0  0  0
    2.2540   -2.8300   14.0120 C   0  0  0  0  0  0  0  0  0  0  0  0
    1.3040   -5.6470   14.8090 C   0  0  0  0  0  0  0  0  0  0  0  0
    3.9870   -1.7400   11.1600 N   0  0  0  0  0  0  0  0  0  0  0  0
    4.6520   -0.4490   11.0650 C   0  0  2  0  0  0  0  0  0  0  0  0
    4.1870    0.5470   12.1310 C   0  0  0  0  0  0  0  0  0  0  0  0
    3.1170    1.1510   12.0290 O   0  0  0  0  0  0  0  0  0  0  0  0
    4.4820    0.1310    9.6660 C   0  0  0  0  0  0  0  0  0  0  0  0
    5.4660   -0.4630    8.6770 C   0  0  0  0  0  0  0  0  0  0  0  0
    5.0990   -1.5540    7.9130 C   0  0  0  0  0  0  0  0  0  0  0  0
    6.7830    0.0140    8.6030 C   0  0  0  0  0  0  0  0  0  0  0  0
    5.9880   -2.2150    7.0720 C   0  0  0  0  0  0  0  0  0  0  0  0
    7.6810   -0.6440    7.7640 C   0  0  0  0  0  0  0  0  0  0  0  0
    7.2950   -1.7430    7.0120 C   0  0  0  0  0  0  0  0  0  0  0  0
    8.2580   -2.4170    6.1650 O   0  0  0  0  0  0  0  0  0  0  0  0
    8.5440   -1.8860    4.6560 P   0  0  0  0  0  0  0  0  0  0  0  0
    7.2720   -2.2290    3.9480 O   0  0  0  0  0  1  0  0  0  0  0  0
    9.6700   -2.7210    4.1670 O   0  0  0  0  0  1  0  0  0  0  0  0
    8.7830   -0.4500    4.6480 O   0  0  0  0  0  0  0  0  0  0  0  0
    5.0480    0.7270   13.1660 N   0  0  0  0  0  0  0  0  0  0  0  0
    4.6480    1.5280   14.3290 C   0  0  2  0  0  0  0  0  0  0  0  0
    5.3790    2.8580   14.2330 C   0  0  0  0  0  0  0  0  0  0  0  0
    6.1760    3.0100   13.3040 O   0  0  0  0  0  0  0  0  0  0  0  0
    4.9590    0.7610   15.5960 C   0  0  0  0  0  0  0  0  0  0  0  0
    5.1370    3.7860   15.1170 N   0  0  0  0  0  0  0  0  0  0  0  0
    5.6930    5.1280   15.1510 C   0  0  2  0  0  0  0  0  0  0  0  0
    6.2030    5.4160   16.5580 C   0  0  0  0  0  0  0  0  0  0  0  0
    5.6170    4.9120   17.5230 O   0  0  0  0  0  0  0  0  0  0  0  0
    4.6190    6.1460   14.7540 C   0  0  0  0  0  0  0  0  0  0  0  0
    4.1100    5.9510   13.3300 C   0  0  0  0  0  0  0  0  0  0  0  0
    3.1330    7.0620   12.9700 C   0  0  0  0  0  0  0  0  0  0  0  0
    2.2350    7.3580   13.7610 O   0  0  0  0  0  0  0  0  0  0  0  0
    3.3200    7.6330   11.7960 N   0  0  0  0  0  0  0  0  0  0  0  0
    7.2840    6.1920   16.6390 N   0  0  0  0  0  0  0  0  0  0  0  0
    7.8160    6.5690   17.9460 C   0  0  2  0  0  0  0  0  0  0  0  0
    6.7500    7.3680   18.6940 C   0  0  0  0  0  0  0  0  0  0  0  0
    6.2420    8.3360   18.1040 O   0  0  0  0  0  0  0  0  0  0  0  0
    9.1180    7.3890   17.8160 C   0  0  0  0  0  0  0  0  0  0  0  0
    9.6100    7.8340   19.1770 C   0  0  0  0  0  0  0  0  0  0  0  0
   10.2000    6.5950   17.0890 C   0  0  0  0  0  0  0  0  0  0  0  0
    6.4010    7.0070   19.9260 N   0  0  0  0  0  0  0  0  0  0  0  0
    5.2470    7.6120   20.6010 C   0  0  2  0  0  0  0  0  0  0  0  0
    5.6110    8.6690   21.6360 C   0  0  0  0  0  0  0  0  0  0  0  0
    4.6690    9.2550   22.2030 O   0  0  0  0  0  0  0  0  0  0  0  0
    4.4220    6.5310   21.3130 C   0  0  0  0  0  0  0  0  0  0  0  0
    3.8390    5.4390   20.4170 C   0  0  0  0  0  0  0  0  0  0  0  0
    2.6560    5.9390   19.6100 C   0  0  0  0  0  0  0  0  0  0  0  0
    1.9160    6.7770   20.1280 O   0  0  0  0  0  0  0  0  0  0  0  0
    2.4660    5.4620   18.3860 N   0  0  0  0  0  0  0  0  0  0  0  0
    6.8820    8.9160   21.9000 N   0  0  0  0  0  0  0  0  0  0  0  0
    7.4060    9.8930   22.8380 C   0  0  2  0  0  0  0  0  0  0  0  0
    8.6760   10.5710   22.3230 C   0  0  0  0  0  0  0  0  0  0  0  0
    9.2380   10.1170   21.3090 O   0  5  0  0  0  0  0  0  0  0  0  0
    7.7600    9.2940   24.2050 C   0  0  0  0  0  0  0  0  0  0  0  0
    6.7140    8.3730   24.8030 C   0  0  0  0  0  0  0  0  0  0  0  0
    6.9220    8.1540   26.3050 C   0  0  0  0  0  0  0  0  0  0  0  0
    5.6550    7.5460   26.8920 C   0  0  0  0  0  0  0  0  0  0  0  0
    5.8940    6.7120   28.1010 N   0  3  0  0  0  0  0  0  0  0  0  0
    9.1030   11.5600   22.9640 O   0  0  0  0  0  0  0  0  0  0  0  0
   -0.4812  -11.1294    7.4203 H   0  0  0  0  0  0  0  0  0  0  0  0
   -0.7898  -10.6330    8.9591 H   0  0  0  0  0  0  0  0  0  0  0  0
    0.1298  -11.9725    8.6951 H   0  0  0  0  0  0  0  0  0  0  0  0
    1.8474  -10.7095    7.6799 H   0  0  0  0  0  0  0  0  0  0  0  0
   -0.2016   -8.8707    7.2733 H   0  0  0  0  0  0  0  0  0  0  0  0
    1.5498   -8.6041    6.9767 H   0  0  0  0  0  0  0  0  0  0  0  0
    0.1502   -8.0134    9.3822 H   0  0  0  0  0  0  0  0  0  0  0  0
    3.4518  -10.7927    9.0556 H   0  0  0  0  0  0  0  0  0  0  0  0
    2.9443  -10.4948   11.9345 H   0  0  0  0  0  0  0  0  0  0  0  0
    5.2684  -11.3846   12.1816 H   0  0  0  0  0  0  0  0  0  0  0  0
    5.3804  -11.4856   10.3917 H   0  0  0  0  0  0  0  0  0  0  0  0
    3.6973  -13.1690   10.2864 H   0  0  0  0  0  0  0  0  0  0  0  0
    4.6263  -14.9767   11.6869 H   0  0  0  0  0  0  0  0  0  0  0  0
    5.5165  -13.7578   12.6609 H   0  0  0  0  0  0  0  0  0  0  0  0
    5.9153  -13.9850   10.9242 H   0  0  0  0  0  0  0  0  0  0  0  0
    2.1677  -12.2063   11.9726 H   0  0  0  0  0  0  0  0  0  0  0  0
    3.2623  -12.7745   13.2785 H   0  0  0  0  0  0  0  0  0  0  0  0
    2.4304  -13.9656   12.2222 H   0  0  0  0  0  0  0  0  0  0  0  0
    4.3267   -8.6154    9.3446 H   0  0  0  0  0  0  0  0  0  0  0  0
    5.8910   -6.9545   11.2020 H   0  0  0  0  0  0  0  0  0  0  0  0
    5.2804   -6.8901    8.2169 H   0  0  0  0  0  0  0  0  0  0  0  0
    7.0467   -8.1696    9.0767 H   0  0  0  0  0  0  0  0  0  0  0  0
    6.6981   -4.8593    8.0250 H   0  0  0  0  0  0  0  0  0  0  0  0
    6.8068   -4.7569    9.8150 H   0  0  0  0  0  0  0  0  0  0  0  0
    5.2265   -4.5152    8.9959 H   0  0  0  0  0  0  0  0  0  0  0  0
    5.1649   -5.2857   12.3190 H   0  0  0  0  0  0  0  0  0  0  0  0
    2.7095   -3.8869   11.3312 H   0  0  0  0  0  0  0  0  0  0  0  0
    3.5922   -4.4857   14.1541 H   0  0  0  0  0  0  0  0  0  0  0  0
    2.0189   -6.0403   12.8325 H   0  0  0  0  0  0  0  0  0  0  0  0
    0.8028   -4.7232   12.9469 H   0  0  0  0  0  0  0  0  0  0  0  0
    3.0461   -2.0674   14.0448 H   0  0  0  0  0  0  0  0  0  0  0  0
    1.8702   -3.0039   15.0281 H   0  0  0  0  0  0  0  0  0  0  0  0
    1.4354   -2.4808   13.3656 H   0  0  0  0  0  0  0  0  0  0  0  0
    0.4944   -6.3879   14.7334 H   0  0  0  0  0  0  0  0  0  0  0  0
    0.9619   -4.7899   15.4076 H   0  0  0  0  0  0  0  0  0  0  0  0
    2.1779   -6.1071   15.2933 H   0  0  0  0  0  0  0  0  0  0  0  0
    3.2252   -1.9268   10.5398 H   0  0  0  0  0  0  0  0  0  0  0  0
    5.7261   -0.6214   11.2280 H   0  0  0  0  0  0  0  0  0  0  0  0
    4.6388    1.2188    9.7119 H   0  0  0  0  0  0  0  0  0  0  0  0
    3.4598   -0.0778    9.3176 H   0  0  0  0  0  0  0  0  0  0  0  0
    4.0766   -1.9093    7.9714 H   0  0  0  0  0  0  0  0  0  0  0  0
    7.0951    0.8740    9.1845 H   0  0  0  0  0  0  0  0  0  0  0  0
    5.6730   -3.0690    6.4833 H   0  0  0  0  0  0  0  0  0  0  0  0
    8.7030   -0.2888    7.6981 H   0  0  0  0  0  0  0  0  0  0  0  0
    5.9575    0.3124   13.1355 H   0  0  0  0  0  0  0  0  0  0  0  0
    3.5647    1.7155   14.2938 H   0  0  0  0  0  0  0  0  0  0  0  0
    4.6601    1.3592   16.4694 H   0  0  0  0  0  0  0  0  0  0  0  0
    6.0385    0.5553   15.6445 H   0  0  0  0  0  0  0  0  0  0  0  0
    4.4044   -0.1889   15.5951 H   0  0  0  0  0  0  0  0  0  0  0  0
    4.5002    3.5483   15.8504 H   0  0  0  0  0  0  0  0  0  0  0  0
    6.5306    5.1939   14.4410 H   0  0  0  0  0  0  0  0  0  0  0  0
    5.0456    7.1564   14.8383 H   0  0  0  0  0  0  0  0  0  0  0  0
    3.7698    6.0475   15.4462 H   0  0  0  0  0  0  0  0  0  0  0  0
    3.6002    4.9792   13.2551 H   0  0  0  0  0  0  0  0  0  0  0  0
    4.9605    5.9737   12.6327 H   0  0  0  0  0  0  0  0  0  0  0  0
    2.7142    8.3701   11.4963 H   0  0  0  0  0  0  0  0  0  0  0  0
    4.0676    7.3289   11.2055 H   0  0  0  0  0  0  0  0  0  0  0  0
    7.7306    6.5160   15.8050 H   0  0  0  0  0  0  0  0  0  0  0  0
    8.0393    5.6536   18.5135 H   0  0  0  0  0  0  0  0  0  0  0  0
    8.8964    8.2873   17.2211 H   0  0  0  0  0  0  0  0  0  0  0  0
   10.5366    8.4152   19.0599 H   0  0  0  0  0  0  0  0  0  0  0  0
    9.8077    6.9508   19.8022 H   0  0  0  0  0  0  0  0  0  0  0  0
    8.8433    8.4593   19.6577 H   0  0  0  0  0  0  0  0  0  0  0  0
    9.8247    6.2808   16.1039 H   0  0  0  0  0  0  0  0  0  0  0  0
   10.4633    5.7064   17.6815 H   0  0  0  0  0  0  0  0  0  0  0  0
   11.0917    7.2255   16.9576 H   0  0  0  0  0  0  0  0  0  0  0  0
    6.9361    6.3090   20.4019 H   0  0  0  0  0  0  0  0  0  0  0  0
    4.6226    8.0881   19.8306 H   0  0  0  0  0  0  0  0  0  0  0  0
    3.5856    7.0284   21.8260 H   0  0  0  0  0  0  0  0  0  0  0  0
    5.0717    6.0459   22.0563 H   0  0  0  0  0  0  0  0  0  0  0  0
    3.5097    4.6001   21.0477 H   0  0  0  0  0  0  0  0  0  0  0  0
    4.6204    5.0926   19.7246 H   0  0  0  0  0  0  0  0  0  0  0  0
    1.6912    5.7805   17.8399 H   0  0  0  0  0  0  0  0  0  0  0  0
    3.0977    4.7841   18.0099 H   0  0  0  0  0  0  0  0  0  0  0  0
    7.5555    8.3715   21.4001 H   0  0  0  0  0  0  0  0  0  0  0  0
    6.6299   10.6591   22.9822 H   0  0  0  0  0  0  0  0  0  0  0  0
    7.9221   10.1246   24.9077 H   0  0  0  0  0  0  0  0  0  0  0  0
    8.6923    8.7210   24.0932 H   0  0  0  0  0  0  0  0  0  0  0  0
    6.7666    7.3998   24.2931 H   0  0  0  0  0  0  0  0  0  0  0  0
    5.7200    8.8167   24.6446 H   0  0  0  0  0  0  0  0  0  0  0  0
    7.1307    9.1171   26.7937 H   0  0  0  0  0  0  0  0  0  0  0  0
    7.7687    7.4704   26.4653 H   0  0  0  0  0  0  0  0  0  0  0  0
    5.1843    6.9156   26.1232 H   0  0  0  0  0  0  0  0  0  0  0  0
    4.9717    8.3639   27.1643 H   0  0  0  0  0  0  0  0  0  0  0  0
    5.0167    6.3438   28.4340 H   0  0  0  0  0  0  0  0  0  0  0  0
    6.3161    7.2772   28.8210 H   0  0  0  0  0  0  0  0  0  0  0  0
    6.5110    5.9500   27.8670 H   0  0  0  0  0  0  0  0  0  0  0  0
  1  2  1  0  0  0  0
  1 86  1  0  0  0  0
  1 87  1  0  0  0  0
  1 88  1  0  0  0  0
  2  3  1  0  0  0  0
  2  5  1  0  0  0  0
  2 89  1  6  0  0  0
  3  4  2  0  0  0  0
  3  7  1  0  0  0  0
  5  6  1  0  0  0  0
  5 90  1  0  0  0  0
  5 91  1  0  0  0  0
  6 92  1  0  0  0  0
  7  8  1  0  0  0  0
  7 93  1  0  0  0  0
  8  9  1  0  0  0  0
  8 11  1  0  0  0  0
  8 94  1  1  0  0  0
  9 10  2  0  0  0  0
  9 15  1  0  0  0  0
 11 12  1  0  0  0  0
 11 95  1  0  0  0  0
 11 96  1  0  0  0  0
 12 13  1  0  0  0  0
 12 14  1  0  0  0  0
 12 97  1  0  0  0  0
 13 98  1  0  0  0  0
 13 99  1  0  0  0  0
 13100  1  0  0  0  0
 14101  1  0  0  0  0
 14102  1  0  0  0  0
 14103  1  0  0  0  0
 15 16  1  0  0  0  0
 15104  1  0  0  0  0
 16 17  1  0  0  0  0
 16 19  1  0  0  0  0
 16105  1  1  0  0  0
 17 18  2  0  0  0  0
 17 22  1  0  0  0  0
 19 20  1  0  0  0  0
 19 21  1  0  0  0  0
 19106  1  6  0  0  0
 20107  1  0  0  0  0
 21108  1  0  0  0  0
 21109  1  0  0  0  0
 21110  1  0  0  0  0
 22 23  1  0  0  0  0
 22111  1  0  0  0  0
 23 24  1  0  0  0  0
 23 26  1  0  0  0  0
 23112  1  6  0  0  0
 24 25  2  0  0  0  0
 24 30  1  0  0  0  0
 26 27  1  0  0  0  0
 26 28  1  0  0  0  0
 26113  1  1  0  0  0
 27 29  1  0  0  0  0
 27114  1  0  0  0  0
 27115  1  0  0  0  0
 28116  1  0  0  0  0
 28117  1  0  0  0  0
 28118  1  0  0  0  0
 29119  1  0  0  0  0
 29120  1  0  0  0  0
 29121  1  0  0  0  0
 30 31  1  0  0  0  0
 30122  1  0  0  0  0
 31 32  1  0  0  0  0
 31 34  1  0  0  0  0
 31123  1  1  0  0  0
 32 33  2  0  0  0  0
 32 46  1  0  0  0  0
 34 35  1  0  0  0  0
 34124  1  0  0  0  0
 34125  1  0  0  0  0
 35 36  2  0  0  0  0
 35 37  1  0  0  0  0
 36 38  1  0  0  0  0
 36126  1  0  0  0  0
 37 39  2  0  0  0  0
 37127  1  0  0  0  0
 38 40  2  0  0  0  0
 38128  1  0  0  0  0
 39 40  1  0  0  0  0
 39129  1  0  0  0  0
 40 41  1  0  0  0  0
 41 42  1  0  0  0  0
 42 43  1  0  0  0  0
 42 44  1  0  0  0  0
 42 45  2  0  0  0  0
 46 47  1  0  0  0  0
 46130  1  0  0  0  0
 47 48  1  0  0  0  0
 47 50  1  0  0  0  0
 47131  1  6  0  0  0
 48 49  2  0  0  0  0
 48 51  1  0  0  0  0
 50132  1  0  0  0  0
 50133  1  0  0  0  0
 50134  1  0  0  0  0
 51 52  1  0  0  0  0
 51135  1  0  0  0  0
 52 53  1  0  0  0  0
 52 55  1  0  0  0  0
 52136  1  6  0  0  0
 53 54  2  0  0  0  0
 53 60  1  0  0  0  0
 55 56  1  0  0  0  0
 55137  1  0  0  0  0
 55138  1  0  0  0  0
 56 57  1  0  0  0  0
 56139  1  0  0  0  0
 56140  1  0  0  0  0
 57 58  2  0  0  0  0
 57 59  1  0  0  0  0
 59141  1  0  0  0  0
 59142  1  0  0  0  0
 60 61  1  0  0  0  0
 60143  1  0  0  0  0
 61 62  1  0  0  0  0
 61 64  1  0  0  0  0
 61144  1  1  0  0  0
 62 63  2  0  0  0  0
 62 67  1  0  0  0  0
 64 65  1  0  0  0  0
 64 66  1  0  0  0  0
 64145  1  0  0  0  0
 65146  1  0  0  0  0
 65147  1  0  0  0  0
 65148  1  0  0  0  0
 66149  1  0  0  0  0
 66150  1  0  0  0  0
 66151  1  0  0  0  0
 67 68  1  0  0  0  0
 67152  1  0  0  0  0
 68 69  1  0  0  0  0
 68 71  1  0  0  0  0
 68153  1  6  0  0  0
 69 70  2  0  0  0  0
 69 76  1  0  0  0  0
 71 72  1  0  0  0  0
 71154  1  0  0  0  0
 71155  1  0  0  0  0
 72 73  1  0  0  0  0
 72156  1  0  0  0  0
 72157  1  0  0  0  0
 73 74  2  0  0  0  0
 73 75  1  0  0  0  0
 75158  1  0  0  0  0
 75159  1  0  0  0  0
 76 77  1  0  0  0  0
 76160  1  0  0  0  0
 77 78  1  0  0  0  0
 77 80  1  0  0  0  0
 77161  1  1  0  0  0
 78 79  1  0  0  0  0
 78 85  2  0  0  0  0
 80 81  1  0  0  0  0
 80162  1  0  0  0  0
 80163  1  0  0  0  0
 81 82  1  0  0  0  0
 81164  1  0  0  0  0
 81165  1  0  0  0  0
 82 83  1  0  0  0  0
 82166  1  0  0  0  0
 82167  1  0  0  0  0
 83 84  1  0  0  0  0
 83168  1  0  0  0  0
 83169  1  0  0  0  0
 84170  1  0  0  0  0
 84171  1  0  0  0  0
 84172  1  0  0  0  0
M  CHG  3   1   1  79  -1  84   1
M  END
