1d6s_ligand
 OpenBabel08222323343D

 40 40  0  0  1  0  0  0  0  0999 V2000
   40.4640   25.0370   17.6250 N   0  0  0  0  0  0  0  0  0  0  0  0
   41.6220   24.2900   18.2040 C   0  0  2  0  0  0  0  0  0  0  0  0
   42.9050   24.4680   17.3360 C   0  0  0  0  0  0  0  0  0  0  0  0
   43.8440   23.6440   17.4600 O   0  5  0  0  0  0  0  0  0  0  0  0
   41.2680   22.7990   18.3530 C   0  0  0  0  0  0  0  0  0  0  0  0
   41.1220   22.0630   17.0250 C   0  0  0  0  0  0  0  0  0  0  0  0
   40.4850   20.3820   17.1820 S   0  0  0  0  0  0  0  0  0  0  0  0
   40.1290   20.0040   15.4460 C   0  0  0  0  0  0  0  0  0  0  0  0
   42.9990   25.4450   16.5540 O   0  0  0  0  0  0  0  0  0  0  0  0
   35.8800   26.2890   15.9320 N   0  0  0  0  0  0  0  0  0  0  0  0
   37.1410   26.6340   15.5110 C   0  0  0  0  0  0  0  0  0  0  0  0
   37.3360   27.3530   14.1880 C   0  0  0  0  0  0  0  0  0  0  0  0
   38.2330   26.2780   16.2510 C   0  0  0  0  0  0  0  0  0  0  0  0
   39.4740   26.6940   15.8500 O   0  0  0  0  0  0  0  0  0  0  0  0
   38.0720   25.5390   17.4200 C   0  0  0  0  0  0  0  0  0  0  0  0
   39.3040   25.0280   18.1910 C   0  0  0  0  0  0  0  0  0  0  0  0
   36.8060   25.1890   17.8340 C   0  0  0  0  0  0  0  0  0  0  0  0
   35.7160   25.5730   17.0960 C   0  0  0  0  0  0  0  0  0  0  0  0
   36.6150   24.2650   19.0140 C   0  0  0  0  0  0  0  0  0  0  0  0
   36.6570   24.9630   20.2560 O   0  0  0  0  0  0  0  0  0  0  0  0
   37.0930   24.1340   21.5490 P   0  0  0  0  0  0  0  0  0  0  0  0
   36.8510   24.9160   22.7760 O   0  0  0  0  0  1  0  0  0  0  0  0
   36.0340   22.9220   21.5210 O   0  0  0  0  0  1  0  0  0  0  0  0
   38.4330   23.5630   21.2790 O   0  0  0  0  0  0  0  0  0  0  0  0
   41.8280   24.6980   19.2045 H   0  0  0  0  0  0  0  0  0  0  0  0
   40.3158   22.7218   18.8982 H   0  0  0  0  0  0  0  0  0  0  0  0
   42.0639   22.3104   18.9341 H   0  0  0  0  0  0  0  0  0  0  0  0
   42.1111   22.0145   16.5461 H   0  0  0  0  0  0  0  0  0  0  0  0
   40.4331   22.6354   16.3865 H   0  0  0  0  0  0  0  0  0  0  0  0
   39.7221   18.9850   15.3686 H   0  0  0  0  0  0  0  0  0  0  0  0
   41.0559   20.0743   14.8579 H   0  0  0  0  0  0  0  0  0  0  0  0
   39.3928   20.7232   15.0576 H   0  0  0  0  0  0  0  0  0  0  0  0
   38.4078   27.5417   14.0277 H   0  0  0  0  0  0  0  0  0  0  0  0
   36.7941   28.3101   14.2074 H   0  0  0  0  0  0  0  0  0  0  0  0
   36.9475   26.7282   13.3703 H   0  0  0  0  0  0  0  0  0  0  0  0
   40.1273   26.3709   16.4593 H   0  0  0  0  0  0  0  0  0  0  0  0
   39.1965   24.6603   19.2104 H   0  0  0  0  0  0  0  0  0  0  0  0
   34.7190   25.3111   17.4314 H   0  0  0  0  0  0  0  0  0  0  0  0
   37.4141   23.5091   19.0052 H   0  0  0  0  0  0  0  0  0  0  0  0
   35.6385   23.7674   18.9201 H   0  0  0  0  0  0  0  0  0  0  0  0
  1  2  1  0  0  0  0
  2  3  1  0  0  0  0
  2  5  1  0  0  0  0
  2 25  1  1  0  0  0
  3  4  1  0  0  0  0
  3  9  2  0  0  0  0
  5  6  1  0  0  0  0
  5 26  1  0  0  0  0
  5 27  1  0  0  0  0
  6  7  1  0  0  0  0
  6 28  1  0  0  0  0
  6 29  1  0  0  0  0
  7  8  1  0  0  0  0
  8 30  1  0  0  0  0
  8 31  1  0  0  0  0
  8 32  1  0  0  0  0
 10 18  1  0  0  0  0
 11 10  2  0  0  0  0
 11 12  1  0  0  0  0
 12 33  1  0  0  0  0
 12 34  1  0  0  0  0
 12 35  1  0  0  0  0
 13 11  1  0  0  0  0
 13 14  1  0  0  0  0
 14 36  1  0  0  0  0
 15 13  2  0  0  0  0
 15 16  1  0  0  0  0
 15 17  1  0  0  0  0
 16  1  2  0  0  0  0
 16 37  1  0  0  0  0
 17 18  2  0  0  0  0
 17 19  1  0  0  0  0
 18 38  1  0  0  0  0
 19 20  1  0  0  0  0
 19 39  1  0  0  0  0
 19 40  1  0  0  0  0
 20 21  1  0  0  0  0
 21 22  1  0  0  0  0
 21 23  1  0  0  0  0
 21 24  2  0  0  0  0
M  CHG  1   4  -1
M  END
