1d8m_ligand
 OpenBabel08222323343D

 50 52  0  0  1  0  0  0  0  0999 V2000
    3.2160   48.2730   54.6770 C   0  0  0  0  0  0  0  0  0  0  0  0
    3.8020   48.9350   55.8260 C   0  0  0  0  0  0  0  0  0  0  0  0
    3.2410   48.5530   57.1030 C   0  0  0  0  0  0  0  0  0  0  0  0
    2.1790   47.5530   57.1260 C   0  0  0  0  0  0  0  0  0  0  0  0
    1.6140   46.9100   55.9430 C   0  0  0  0  0  0  0  0  0  0  0  0
    2.1520   47.2870   54.6540 C   0  0  0  0  0  0  0  0  0  0  0  0
    1.7030   47.1160   58.2940 O   0  0  0  0  0  0  0  0  0  0  0  0
    2.2230   47.2360   59.5190 C   0  0  0  0  0  0  0  0  0  0  0  0
    3.8440   48.7300   53.0640 S   0  0  0  0  0  0  0  0  0  0  0  0
    3.2570   47.5680   51.9330 O   0  0  0  0  0  0  0  0  0  0  0  0
    5.5730   48.7610   53.0480 O   0  0  0  0  0  0  0  0  0  0  0  0
    3.1650   50.3130   52.7230 N   0  0  0  0  0  0  0  0  0  0  0  0
    1.9910   50.3550   51.8270 C   0  0  2  0  0  0  0  0  0  0  0  0
    1.9270   51.7440   51.1950 C   0  0  0  0  0  0  0  0  0  0  0  0
    3.2540   52.1600   50.6080 C   0  0  0  0  0  0  0  0  0  0  0  0
    4.3370   51.9690   51.3490 N   0  0  0  0  0  0  0  0  0  0  0  0
    4.1730   51.3860   52.6990 C   0  0  0  0  0  0  0  0  0  0  0  0
    3.3470   52.6750   49.4940 O   0  0  0  0  0  0  0  0  0  0  0  0
    0.7200   50.0800   52.6110 C   0  0  0  0  0  0  0  0  0  0  0  0
    0.1090   48.9130   52.4380 N   0  0  0  0  0  0  0  0  0  0  0  0
   -1.1370   48.6980   53.1590 O   0  0  0  0  0  0  0  0  0  0  0  0
    0.2600   50.8890   53.4320 O   0  0  0  0  0  0  0  0  0  0  0  0
    5.6340   52.3860   50.7750 C   0  0  0  0  0  0  0  0  0  0  0  0
    8.0180   53.9100   53.4110 C   0  0  0  0  0  0  0  0  0  0  0  0
    6.9070   53.7550   52.4850 C   0  0  0  0  0  0  0  0  0  0  0  0
    6.7400   52.4860   51.7880 C   0  0  0  0  0  0  0  0  0  0  0  0
    7.6300   51.3500   51.9710 C   0  0  0  0  0  0  0  0  0  0  0  0
    8.7400   51.5070   52.9010 C   0  0  0  0  0  0  0  0  0  0  0  0
    8.9140   52.7740   53.5970 C   0  0  0  0  0  0  0  0  0  0  0  0
    4.6009   49.6620   55.7347 H   0  0  0  0  0  0  0  0  0  0  0  0
    3.6015   48.9997   58.0225 H   0  0  0  0  0  0  0  0  0  0  0  0
    0.8202   46.1767   56.0275 H   0  0  0  0  0  0  0  0  0  0  0  0
    1.7831   46.8594   53.7287 H   0  0  0  0  0  0  0  0  0  0  0  0
    1.5565   46.7535   60.2491 H   0  0  0  0  0  0  0  0  0  0  0  0
    2.3304   48.3018   59.7690 H   0  0  0  0  0  0  0  0  0  0  0  0
    3.2101   46.7514   59.5474 H   0  0  0  0  0  0  0  0  0  0  0  0
    2.1012   49.5954   51.0391 H   0  0  0  0  0  0  0  0  0  0  0  0
    1.6361   52.4721   51.9665 H   0  0  0  0  0  0  0  0  0  0  0  0
    1.1719   51.7358   50.3952 H   0  0  0  0  0  0  0  0  0  0  0  0
    5.1385   50.9724   53.0258 H   0  0  0  0  0  0  0  0  0  0  0  0
    3.8609   52.1808   53.3925 H   0  0  0  0  0  0  0  0  0  0  0  0
    0.4898   48.2106   51.8366 H   0  0  0  0  0  0  0  0  0  0  0  0
   -1.4747   47.8339   52.9547 H   0  0  0  0  0  0  0  0  0  0  0  0
    5.5044   53.3717   50.3042 H   0  0  0  0  0  0  0  0  0  0  0  0
    5.9281   51.6508   50.0115 H   0  0  0  0  0  0  0  0  0  0  0  0
    8.1751   54.8398   53.9457 H   0  0  0  0  0  0  0  0  0  0  0  0
    6.2137   54.5710   52.3159 H   0  0  0  0  0  0  0  0  0  0  0  0
    7.4729   50.4209   51.4350 H   0  0  0  0  0  0  0  0  0  0  0  0
    9.4297   50.6886   53.0732 H   0  0  0  0  0  0  0  0  0  0  0  0
    9.7462   52.8777   54.2838 H   0  0  0  0  0  0  0  0  0  0  0  0
  1  9  1  0  0  0  0
  1  6  2  0  0  0  0
  1  2  1  0  0  0  0
  2  3  2  0  0  0  0
  2 30  1  0  0  0  0
  3  4  1  0  0  0  0
  3 31  1  0  0  0  0
  4  7  1  0  0  0  0
  4  5  2  0  0  0  0
  5  6  1  0  0  0  0
  5 32  1  0  0  0  0
  6 33  1  0  0  0  0
  7  8  1  0  0  0  0
  8 34  1  0  0  0  0
  8 35  1  0  0  0  0
  8 36  1  0  0  0  0
  9 12  1  0  0  0  0
  9 11  2  0  0  0  0
  9 10  2  0  0  0  0
 12 17  1  0  0  0  0
 12 13  1  0  0  0  0
 13 19  1  0  0  0  0
 13 14  1  0  0  0  0
 13 37  1  6  0  0  0
 14 15  1  0  0  0  0
 14 38  1  0  0  0  0
 14 39  1  0  0  0  0
 15 18  2  0  0  0  0
 15 16  1  0  0  0  0
 16 23  1  0  0  0  0
 16 17  1  0  0  0  0
 17 40  1  0  0  0  0
 17 41  1  0  0  0  0
 19 22  2  0  0  0  0
 19 20  1  0  0  0  0
 20 21  1  0  0  0  0
 20 42  1  0  0  0  0
 21 43  1  0  0  0  0
 23 26  1  0  0  0  0
 23 44  1  0  0  0  0
 23 45  1  0  0  0  0
 24 29  1  0  0  0  0
 24 46  1  0  0  0  0
 25 24  2  0  0  0  0
 25 47  1  0  0  0  0
 26 27  2  0  0  0  0
 26 25  1  0  0  0  0
 27 48  1  0  0  0  0
 28 27  1  0  0  0  0
 28 49  1  0  0  0  0
 29 28  2  0  0  0  0
 29 50  1  0  0  0  0
M  END
