1di8_ligand
 OpenBabel08222323343D

 37 39  0  0  0  0  0  0  0  0999 V2000
   -9.2640   52.3090   13.3720 N   0  0  0  0  0  0  0  0  0  0  0  0
  -10.2040   52.9720   12.5990 C   0  0  0  0  0  0  0  0  0  0  0  0
  -10.8280   52.3530   11.5200 N   0  0  0  0  0  0  0  0  0  0  0  0
  -10.5050   51.0150   11.1310 C   0  0  0  0  0  0  0  0  0  0  0  0
   -9.4320   50.2410   11.9370 C   0  0  0  0  0  0  0  0  0  0  0  0
   -8.8630   50.9420   13.1320 C   0  0  0  0  0  0  0  0  0  0  0  0
  -11.1780   50.3770    9.9930 C   0  0  0  0  0  0  0  0  0  0  0  0
  -10.8540   48.9910    9.5930 C   0  0  0  0  0  0  0  0  0  0  0  0
   -9.7510   48.2530   10.3090 C   0  0  0  0  0  0  0  0  0  0  0  0
   -9.0520   48.8980   11.4690 C   0  0  0  0  0  0  0  0  0  0  0  0
   -7.9420   50.3180   14.0110 N   0  0  0  0  0  0  0  0  0  0  0  0
   -7.2290   50.6820   15.1650 C   0  0  0  0  0  0  0  0  0  0  0  0
   -6.3650   49.6150   15.7210 C   0  0  0  0  0  0  0  0  0  0  0  0
   -5.5720   49.8430   16.9480 C   0  0  0  0  0  0  0  0  0  0  0  0
   -5.5700   51.1620   17.5920 C   0  0  0  0  0  0  0  0  0  0  0  0
   -6.4190   52.2450   17.0620 C   0  0  0  0  0  0  0  0  0  0  0  0
   -7.2620   52.0030   15.8780 C   0  0  0  0  0  0  0  0  0  0  0  0
   -4.8340   48.8240   17.5090 O   0  0  0  0  0  0  0  0  0  0  0  0
  -11.5470   48.2780    8.5820 O   0  0  0  0  0  0  0  0  0  0  0  0
  -12.3960   48.8920    7.6050 C   0  0  0  0  0  0  0  0  0  0  0  0
   -9.4630   46.9300    9.8550 O   0  0  0  0  0  0  0  0  0  0  0  0
   -8.4820   46.1170   10.5080 C   0  0  0  0  0  0  0  0  0  0  0  0
  -10.4593   53.9974   12.8407 H   0  0  0  0  0  0  0  0  0  0  0  0
  -11.9251   50.9314    9.4366 H   0  0  0  0  0  0  0  0  0  0  0  0
   -8.2527   48.3656   11.9717 H   0  0  0  0  0  0  0  0  0  0  0  0
   -7.7449   49.3466   13.7308 H   0  0  0  0  0  0  0  0  0  0  0  0
   -6.3134   48.6542   15.2217 H   0  0  0  0  0  0  0  0  0  0  0  0
   -4.9435   51.3403   18.4585 H   0  0  0  0  0  0  0  0  0  0  0  0
   -6.4229   53.2168   17.5423 H   0  0  0  0  0  0  0  0  0  0  0  0
   -7.9149   52.7893   15.5168 H   0  0  0  0  0  0  0  0  0  0  0  0
   -4.3913   49.1456   18.2856 H   0  0  0  0  0  0  0  0  0  0  0  0
  -12.8094   48.1188    6.9407 H   0  0  0  0  0  0  0  0  0  0  0  0
  -11.8120   49.6110    7.0117 H   0  0  0  0  0  0  0  0  0  0  0  0
  -13.2185   49.4175    8.1123 H   0  0  0  0  0  0  0  0  0  0  0  0
   -8.4178   45.1424   10.0020 H   0  0  0  0  0  0  0  0  0  0  0  0
   -8.7710   45.9663   11.5586 H   0  0  0  0  0  0  0  0  0  0  0  0
   -7.5034   46.6175   10.4650 H   0  0  0  0  0  0  0  0  0  0  0  0
  1  6  2  0  0  0  0
  1  2  1  0  0  0  0
  2  3  2  0  0  0  0
  2 23  1  0  0  0  0
  3  4  1  0  0  0  0
  4  7  2  0  0  0  0
  4  5  1  0  0  0  0
  5 10  2  0  0  0  0
  5  6  1  0  0  0  0
  6 11  1  0  0  0  0
  7 24  1  0  0  0  0
  8 19  1  0  0  0  0
  8  7  1  0  0  0  0
  9 21  1  0  0  0  0
  9  8  2  0  0  0  0
 10  9  1  0  0  0  0
 10 25  1  0  0  0  0
 11 12  1  0  0  0  0
 11 26  1  0  0  0  0
 12 17  2  0  0  0  0
 12 13  1  0  0  0  0
 13 14  2  0  0  0  0
 13 27  1  0  0  0  0
 14 18  1  0  0  0  0
 14 15  1  0  0  0  0
 15 16  2  0  0  0  0
 15 28  1  0  0  0  0
 16 17  1  0  0  0  0
 16 29  1  0  0  0  0
 17 30  1  0  0  0  0
 18 31  1  0  0  0  0
 19 20  1  0  0  0  0
 20 32  1  0  0  0  0
 20 33  1  0  0  0  0
 20 34  1  0  0  0  0
 21 22  1  0  0  0  0
 22 35  1  0  0  0  0
 22 36  1  0  0  0  0
 22 37  1  0  0  0  0
M  END
