1dkd_ligand
 OpenBabel08222323343D

187194  0  0  1  0  0  0  0  0999 V2000
   28.7250   56.6320   27.7230 N   0  3  0  0  0  0  0  0  0  0  0  0
   29.8600   57.3380   27.0590 C   0  0  2  0  0  0  0  0  0  0  0  0
   29.5060   57.7810   25.6460 C   0  0  0  0  0  0  0  0  0  0  0  0
   28.9340   57.0170   24.8700 O   0  0  0  0  0  0  0  0  0  0  0  0
   31.0940   56.4290   27.0120 C   0  0  0  0  0  0  0  0  0  0  0  0
   31.6700   56.1320   28.3620 C   0  0  0  0  0  0  0  0  0  0  0  0
   30.9940   55.6780   29.4590 C   0  0  0  0  0  0  0  0  0  0  0  0
   33.0390   56.2670   28.7610 C   0  0  0  0  0  0  0  0  0  0  0  0
   31.8590   55.5250   30.5180 N   0  0  0  0  0  0  0  0  0  0  0  0
   33.1200   55.8800   30.1170 C   0  0  0  0  0  0  0  0  0  0  0  0
   34.2070   56.6780   28.1050 C   0  0  0  0  0  0  0  0  0  0  0  0
   34.3220   55.8910   30.8310 C   0  0  0  0  0  0  0  0  0  0  0  0
   35.4060   56.6880   28.8160 C   0  0  0  0  0  0  0  0  0  0  0  0
   35.4510   56.2960   30.1670 C   0  0  0  0  0  0  0  0  0  0  0  0
   29.8570   59.0230   25.3230 N   0  0  0  0  0  0  0  0  0  0  0  0
   29.5960   59.5990   24.0060 C   0  0  2  0  0  0  0  0  0  0  0  0
   30.8850   59.6140   23.1970 C   0  0  0  0  0  0  0  0  0  0  0  0
   31.9570   59.3250   23.7230 O   0  0  0  0  0  0  0  0  0  0  0  0
   29.0980   61.0360   24.1450 C   0  0  0  0  0  0  0  0  0  0  0  0
   27.9020   61.2090   25.0490 C   0  0  0  0  0  0  0  0  0  0  0  0
   27.5440   62.9560   25.3030 S   0  0  0  0  0  0  0  0  0  0  0  0
   28.4710   63.2640   26.7930 C   0  0  0  0  0  0  0  0  0  0  0  0
   30.7720   59.9730   21.9240 N   0  0  0  0  0  0  0  0  0  0  0  0
   31.9230   60.0390   21.0360 C   0  0  2  0  0  0  0  0  0  0  0  0
   31.9050   61.3330   20.2300 C   0  0  0  0  0  0  0  0  0  0  0  0
   31.0760   61.4990   19.3410 O   0  0  0  0  0  0  0  0  0  0  0  0
   31.9260   58.8660   20.0450 C   0  0  2  0  0  0  0  0  0  0  0  0
   31.9170   57.6290   20.7670 O   0  0  0  0  0  0  0  0  0  0  0  0
   33.1670   58.9220   19.1620 C   0  0  0  0  0  0  0  0  0  0  0  0
   32.8190   62.2480   20.5330 N   0  0  0  0  0  0  0  0  0  0  0  0
   32.8840   63.5100   19.8070 C   0  0  2  0  0  0  0  0  0  0  0  0
   32.9310   63.2180   18.3060 C   0  0  0  0  0  0  0  0  0  0  0  0
   33.2450   62.1010   17.8940 O   0  0  0  0  0  0  0  0  0  0  0  0
   34.1490   64.3080   20.1710 C   0  0  2  0  0  0  0  0  0  0  0  0
   35.3110   63.5810   19.7440 O   0  0  0  0  0  0  0  0  0  0  0  0
   34.2200   64.5530   21.6720 C   0  0  0  0  0  0  0  0  0  0  0  0
   32.6110   64.2180   17.4670 N   0  0  0  0  0  0  0  0  0  0  0  0
   32.6450   63.9980   16.0190 C   0  0  2  0  0  0  0  0  0  0  0  0
   34.0300   63.5240   15.5840 C   0  0  0  0  0  0  0  0  0  0  0  0
   34.1700   62.8630   14.5560 O   0  0  0  0  0  0  0  0  0  0  0  0
   32.3060   65.3730   15.4530 C   0  0  0  0  0  0  0  0  0  0  0  0
   31.3800   65.9240   16.4790 C   0  0  0  0  0  0  0  0  0  0  0  0
   32.0690   65.5520   17.7770 C   0  0  0  0  0  0  0  0  0  0  0  0
   35.0540   63.8620   16.3640 N   0  0  0  0  0  0  0  0  0  0  0  0
   36.3990   63.4340   16.0140 C   0  0  2  0  0  0  0  0  0  0  0  0
   36.7960   62.1140   16.6720 C   0  0  0  0  0  0  0  0  0  0  0  0
   37.9670   61.7380   16.6620 O   0  0  0  0  0  0  0  0  0  0  0  0
   37.4300   64.5290   16.3140 C   0  0  0  0  0  0  0  0  0  0  0  0
   37.3820   65.1090   17.6920 C   0  0  0  0  0  0  0  0  0  0  0  0
   36.4480   65.9740   18.1880 C   0  0  0  0  0  0  0  0  0  0  0  0
   38.3310   64.8980   18.7440 C   0  0  0  0  0  0  0  0  0  0  0  0
   36.7580   66.3190   19.4840 N   0  0  0  0  0  0  0  0  0  0  0  0
   37.9090   65.6720   19.8500 C   0  0  0  0  0  0  0  0  0  0  0  0
   39.4990   64.1300   18.8610 C   0  0  0  0  0  0  0  0  0  0  0  0
   38.6130   65.7020   21.0540 C   0  0  0  0  0  0  0  0  0  0  0  0
   40.1970   64.1600   20.0560 C   0  0  0  0  0  0  0  0  0  0  0  0
   39.7530   64.9410   21.1380 C   0  0  0  0  0  0  0  0  0  0  0  0
   35.8120   61.4150   17.2400 N   0  0  0  0  0  0  0  0  0  0  0  0
   36.0640   60.1080   17.8300 C   0  0  0  0  0  0  0  0  0  0  0  0
   36.5290   59.9410   19.2640 C   0  0  0  0  0  0  0  0  0  0  0  0
   36.9240   58.8370   19.6490 O   0  0  0  0  0  0  0  0  0  0  0  0
   36.4800   61.0000   20.0640 N   0  0  0  0  0  0  0  0  0  0  0  0
   36.9150   60.9050   21.4520 C   0  0  2  0  0  0  0  0  0  0  0  0
   35.7530   60.3610   22.2850 C   0  0  0  0  0  0  0  0  0  0  0  0
   34.6840   60.9670   22.3510 O   0  0  0  0  0  0  0  0  0  0  0  0
   37.3490   62.2870   21.9630 C   0  0  0  0  0  0  0  0  0  0  0  0
   38.1380   62.2490   23.2500 C   0  0  0  0  0  0  0  0  0  0  0  0
   39.5310   62.2520   23.2300 C   0  0  0  0  0  0  0  0  0  0  0  0
   37.4900   62.2160   24.4760 C   0  0  0  0  0  0  0  0  0  0  0  0
   40.2700   62.2250   24.4130 C   0  0  0  0  0  0  0  0  0  0  0  0
   38.2080   62.1860   25.6670 C   0  0  0  0  0  0  0  0  0  0  0  0
   39.6090   62.1900   25.6380 C   0  0  0  0  0  0  0  0  0  0  0  0
   35.9770   59.2110   22.9120 N   0  0  0  0  0  0  0  0  0  0  0  0
   34.9720   58.5440   23.7360 C   0  0  2  0  0  0  0  0  0  0  0  0
   35.0430   59.0430   25.1760 C   0  0  0  0  0  0  0  0  0  0  0  0
   36.0790   58.9210   25.8190 O   0  0  0  0  0  0  0  0  0  0  0  0
   35.2190   57.0350   23.6910 C   0  0  0  0  0  0  0  0  0  0  0  0
   34.2480   56.0620   24.3570 C   0  0  0  0  0  0  0  0  0  0  0  0
   32.8730   56.1600   23.7050 C   0  0  0  0  0  0  0  0  0  0  0  0
   34.7990   54.6450   24.2150 C   0  0  0  0  0  0  0  0  0  0  0  0
   33.9440   59.5900   25.6900 N   0  0  0  0  0  0  0  0  0  0  0  0
   33.9360   60.1140   27.0550 C   0  0  2  0  0  0  0  0  0  0  0  0
   32.5560   60.0720   27.7130 C   0  0  0  0  0  0  0  0  0  0  0  0
   31.5350   59.9740   27.0360 O   0  0  0  0  0  0  0  0  0  0  0  0
   34.4360   61.5530   27.0460 C   0  0  0  0  0  0  0  0  0  0  0  0
   33.5020   62.5050   26.3690 C   0  0  0  0  0  0  0  0  0  0  0  0
   32.4510   63.1090   27.0250 N   0  0  0  0  0  0  0  0  0  0  0  0
   33.4420   62.9360   25.0870 C   0  0  0  0  0  0  0  0  0  0  0  0
   31.7860   63.8740   26.1780 C   0  0  0  0  0  0  0  0  0  0  0  0
   32.3670   63.7850   24.9950 N   0  0  0  0  0  0  0  0  0  0  0  0
   32.5160   60.1610   29.0510 N   0  0  0  0  0  0  0  0  0  0  0  0
   31.2660   60.1340   29.8200 C   0  0  2  0  0  0  0  0  0  0  0  0
   30.4320   61.4010   29.6130 C   0  0  0  0  0  0  0  0  0  0  0  0
   30.9720   62.3870   29.0670 O   0  5  0  0  0  0  0  0  0  0  0  0
   31.7480   60.0110   31.2690 C   0  0  0  0  0  0  0  0  0  0  0  0
   33.1300   59.4290   31.1480 C   0  0  0  0  0  0  0  0  0  0  0  0
   33.6770   60.1620   29.9570 C   0  0  0  0  0  0  0  0  0  0  0  0
   29.2500   61.3970   30.0190 O   0  0  0  0  0  0  0  0  0  0  0  0
   28.9989   56.3561   28.6530 H   0  0  0  0  0  0  0  0  0  0  0  0
   28.4795   55.8135   27.1883 H   0  0  0  0  0  0  0  0  0  0  0  0
   27.9301   57.2496   27.7762 H   0  0  0  0  0  0  0  0  0  0  0  0
   30.1026   58.2321   27.6521 H   0  0  0  0  0  0  0  0  0  0  0  0
   31.8670   56.9227   26.4048 H   0  0  0  0  0  0  0  0  0  0  0  0
   30.8079   55.4781   26.5389 H   0  0  0  0  0  0  0  0  0  0  0  0
   29.9259   55.4678   29.4906 H   0  0  0  0  0  0  0  0  0  0  0  0
   31.6005   55.1968   31.4595 H   0  0  0  0  0  0  0  0  0  0  0  0
   34.1787   56.9822   27.0649 H   0  0  0  0  0  0  0  0  0  0  0  0
   34.3599   55.5902   31.8718 H   0  0  0  0  0  0  0  0  0  0  0  0
   36.3176   57.0025   28.3208 H   0  0  0  0  0  0  0  0  0  0  0  0
   36.3983   56.3147   30.6936 H   0  0  0  0  0  0  0  0  0  0  0  0
   30.3182   59.5851   26.0096 H   0  0  0  0  0  0  0  0  0  0  0  0
   28.8377   58.9946   23.4868 H   0  0  0  0  0  0  0  0  0  0  0  0
   28.8255   61.4016   23.1440 H   0  0  0  0  0  0  0  0  0  0  0  0
   29.9209   61.6456   24.5466 H   0  0  0  0  0  0  0  0  0  0  0  0
   28.1127   60.7385   26.0207 H   0  0  0  0  0  0  0  0  0  0  0  0
   27.0283   60.7245   24.5887 H   0  0  0  0  0  0  0  0  0  0  0  0
   28.3522   64.3171   27.0876 H   0  0  0  0  0  0  0  0  0  0  0  0
   29.5352   63.0514   26.6133 H   0  0  0  0  0  0  0  0  0  0  0  0
   28.0980   62.6137   27.5980 H   0  0  0  0  0  0  0  0  0  0  0  0
   29.8683   60.2052   21.5642 H   0  0  0  0  0  0  0  0  0  0  0  0
   32.8392   60.0016   21.6436 H   0  0  0  0  0  0  0  0  0  0  0  0
   31.0283   58.9258   19.4121 H   0  0  0  0  0  0  0  0  0  0  0  0
   31.9189   56.9048   20.1522 H   0  0  0  0  0  0  0  0  0  0  0  0
   33.1548   58.0765   18.4584 H   0  0  0  0  0  0  0  0  0  0  0  0
   34.0675   58.8627   19.7909 H   0  0  0  0  0  0  0  0  0  0  0  0
   33.1743   59.8671   18.5993 H   0  0  0  0  0  0  0  0  0  0  0  0
   33.4714   62.0685   21.2693 H   0  0  0  0  0  0  0  0  0  0  0  0
   31.9930   64.1096   20.0445 H   0  0  0  0  0  0  0  0  0  0  0  0
   34.1201   65.2781   19.6533 H   0  0  0  0  0  0  0  0  0  0  0  0
   36.0916   64.0736   19.9687 H   0  0  0  0  0  0  0  0  0  0  0  0
   35.1303   65.1237   21.9077 H   0  0  0  0  0  0  0  0  0  0  0  0
   34.2450   63.5885   22.2002 H   0  0  0  0  0  0  0  0  0  0  0  0
   33.3361   65.1239   21.9926 H   0  0  0  0  0  0  0  0  0  0  0  0
   31.8937   63.2548   15.7137 H   0  0  0  0  0  0  0  0  0  0  0  0
   31.8106   65.2890   14.4745 H   0  0  0  0  0  0  0  0  0  0  0  0
   33.2073   65.9960   15.3554 H   0  0  0  0  0  0  0  0  0  0  0  0
   30.3862   65.4578   16.4088 H   0  0  0  0  0  0  0  0  0  0  0  0
   31.2810   67.0151   16.3801 H   0  0  0  0  0  0  0  0  0  0  0  0
   32.8724   66.2628   18.0205 H   0  0  0  0  0  0  0  0  0  0  0  0
   31.3529   65.5082   18.6108 H   0  0  0  0  0  0  0  0  0  0  0  0
   34.8992   64.4080   17.1873 H   0  0  0  0  0  0  0  0  0  0  0  0
   36.4079   63.2660   14.9270 H   0  0  0  0  0  0  0  0  0  0  0  0
   37.2704   65.3482   15.5974 H   0  0  0  0  0  0  0  0  0  0  0  0
   38.4316   64.0999   16.1633 H   0  0  0  0  0  0  0  0  0  0  0  0
   35.5823   66.3384   17.6369 H   0  0  0  0  0  0  0  0  0  0  0  0
   36.2140   66.9585   20.0807 H   0  0  0  0  0  0  0  0  0  0  0  0
   39.8481   63.5250   18.0320 H   0  0  0  0  0  0  0  0  0  0  0  0
   38.2735   66.3024   21.8903 H   0  0  0  0  0  0  0  0  0  0  0  0
   41.1014   63.5714   20.1596 H   0  0  0  0  0  0  0  0  0  0  0  0
   40.3238   64.9423   22.0595 H   0  0  0  0  0  0  0  0  0  0  0  0
   34.8870   61.7945   17.2609 H   0  0  0  0  0  0  0  0  0  0  0  0
   36.8309   59.6312   17.2020 H   0  0  0  0  0  0  0  0  0  0  0  0
   35.1213   59.5474   17.7466 H   0  0  0  0  0  0  0  0  0  0  0  0
   36.1411   61.8718   19.7104 H   0  0  0  0  0  0  0  0  0  0  0  0
   37.7678   60.2137   21.5221 H   0  0  0  0  0  0  0  0  0  0  0  0
   36.4461   62.8930   22.1292 H   0  0  0  0  0  0  0  0  0  0  0  0
   37.9717   62.7611   21.1901 H   0  0  0  0  0  0  0  0  0  0  0  0
   40.0498   62.2757   22.2785 H   0  0  0  0  0  0  0  0  0  0  0  0
   36.4064   62.2136   24.5065 H   0  0  0  0  0  0  0  0  0  0  0  0
   41.3534   62.2312   24.3787 H   0  0  0  0  0  0  0  0  0  0  0  0
   37.6847   62.1596   26.6159 H   0  0  0  0  0  0  0  0  0  0  0  0
   40.1742   62.1660   26.5627 H   0  0  0  0  0  0  0  0  0  0  0  0
   36.8753   58.7823   22.8153 H   0  0  0  0  0  0  0  0  0  0  0  0
   33.9720   58.7604   23.3321 H   0  0  0  0  0  0  0  0  0  0  0  0
   36.2015   56.8642   24.1552 H   0  0  0  0  0  0  0  0  0  0  0  0
   35.2623   56.7560   22.6279 H   0  0  0  0  0  0  0  0  0  0  0  0
   34.1573   56.3119   25.4244 H   0  0  0  0  0  0  0  0  0  0  0  0
   32.1844   55.4549   24.1936 H   0  0  0  0  0  0  0  0  0  0  0  0
   32.9552   55.9113   22.6366 H   0  0  0  0  0  0  0  0  0  0  0  0
   32.4874   57.1844   23.8145 H   0  0  0  0  0  0  0  0  0  0  0  0
   35.7900   54.5878   24.6889 H   0  0  0  0  0  0  0  0  0  0  0  0
   34.8874   54.3911   23.1484 H   0  0  0  0  0  0  0  0  0  0  0  0
   34.1166   53.9353   24.7055 H   0  0  0  0  0  0  0  0  0  0  0  0
   33.1133   59.6433   25.1358 H   0  0  0  0  0  0  0  0  0  0  0  0
   34.6218   59.5018   27.6590 H   0  0  0  0  0  0  0  0  0  0  0  0
   35.4029   61.5824   26.5224 H   0  0  0  0  0  0  0  0  0  0  0  0
   34.5727   61.8806   28.0871 H   0  0  0  0  0  0  0  0  0  0  0  0
   32.2200   62.9834   28.0209 H   0  0  0  0  0  0  0  0  0  0  0  0
   34.1195   62.6608   24.2800 H   0  0  0  0  0  0  0  0  0  0  0  0
   30.9092   64.4750   26.4144 H   0  0  0  0  0  0  0  0  0  0  0  0
   30.6603   59.2601   29.5382 H   0  0  0  0  0  0  0  0  0  0  0  0
   31.0912   59.3412   31.8435 H   0  0  0  0  0  0  0  0  0  0  0  0
   31.7809   60.9974   31.7546 H   0  0  0  0  0  0  0  0  0  0  0  0
   33.0921   58.3447   30.9666 H   0  0  0  0  0  0  0  0  0  0  0  0
   33.7279   59.6294   32.0493 H   0  0  0  0  0  0  0  0  0  0  0  0
   33.9801   61.1861   30.2203 H   0  0  0  0  0  0  0  0  0  0  0  0
   34.5317   59.6288   29.5151 H   0  0  0  0  0  0  0  0  0  0  0  0
  1  2  1  0  0  0  0
  1 99  1  0  0  0  0
  1100  1  0  0  0  0
  1101  1  0  0  0  0
  2  3  1  0  0  0  0
  2  5  1  0  0  0  0
  2102  1  1  0  0  0
  3  4  2  0  0  0  0
  3 15  1  0  0  0  0
  5  6  1  0  0  0  0
  5103  1  0  0  0  0
  5104  1  0  0  0  0
  6  7  2  0  0  0  0
  6  8  1  0  0  0  0
  7  9  1  0  0  0  0
  7105  1  0  0  0  0
  8 10  2  0  0  0  0
  8 11  1  0  0  0  0
  9 10  1  0  0  0  0
  9106  1  0  0  0  0
 10 12  1  0  0  0  0
 11 13  2  0  0  0  0
 11107  1  0  0  0  0
 12 14  2  0  0  0  0
 12108  1  0  0  0  0
 13 14  1  0  0  0  0
 13109  1  0  0  0  0
 14110  1  0  0  0  0
 15 16  1  0  0  0  0
 15111  1  0  0  0  0
 16 17  1  0  0  0  0
 16 19  1  0  0  0  0
 16112  1  6  0  0  0
 17 18  2  0  0  0  0
 17 23  1  0  0  0  0
 19 20  1  0  0  0  0
 19113  1  0  0  0  0
 19114  1  0  0  0  0
 20 21  1  0  0  0  0
 20115  1  0  0  0  0
 20116  1  0  0  0  0
 21 22  1  0  0  0  0
 22117  1  0  0  0  0
 22118  1  0  0  0  0
 22119  1  0  0  0  0
 23 24  1  0  0  0  0
 23120  1  0  0  0  0
 24 25  1  0  0  0  0
 24 27  1  0  0  0  0
 24121  1  1  0  0  0
 25 26  2  0  0  0  0
 25 30  1  0  0  0  0
 27 28  1  0  0  0  0
 27 29  1  0  0  0  0
 27122  1  6  0  0  0
 28123  1  0  0  0  0
 29124  1  0  0  0  0
 29125  1  0  0  0  0
 29126  1  0  0  0  0
 30 31  1  0  0  0  0
 30127  1  0  0  0  0
 31 32  1  0  0  0  0
 31 34  1  0  0  0  0
 31128  1  1  0  0  0
 32 33  2  0  0  0  0
 32 37  1  0  0  0  0
 34 35  1  0  0  0  0
 34 36  1  0  0  0  0
 34129  1  6  0  0  0
 35130  1  0  0  0  0
 36131  1  0  0  0  0
 36132  1  0  0  0  0
 36133  1  0  0  0  0
 37 38  1  0  0  0  0
 37 43  1  0  0  0  0
 38 39  1  0  0  0  0
 38 41  1  0  0  0  0
 38134  1  6  0  0  0
 39 40  2  0  0  0  0
 39 44  1  0  0  0  0
 41 42  1  0  0  0  0
 41135  1  0  0  0  0
 41136  1  0  0  0  0
 42 43  1  0  0  0  0
 42137  1  0  0  0  0
 42138  1  0  0  0  0
 43139  1  0  0  0  0
 43140  1  0  0  0  0
 44 45  1  0  0  0  0
 44141  1  0  0  0  0
 45 46  1  0  0  0  0
 45 48  1  0  0  0  0
 45142  1  6  0  0  0
 46 47  2  0  0  0  0
 46 58  1  0  0  0  0
 48 49  1  0  0  0  0
 48143  1  0  0  0  0
 48144  1  0  0  0  0
 49 50  2  0  0  0  0
 49 51  1  0  0  0  0
 50 52  1  0  0  0  0
 50145  1  0  0  0  0
 51 53  2  0  0  0  0
 51 54  1  0  0  0  0
 52 53  1  0  0  0  0
 52146  1  0  0  0  0
 53 55  1  0  0  0  0
 54 56  2  0  0  0  0
 54147  1  0  0  0  0
 55 57  2  0  0  0  0
 55148  1  0  0  0  0
 56 57  1  0  0  0  0
 56149  1  0  0  0  0
 57150  1  0  0  0  0
 58 59  1  0  0  0  0
 58151  1  0  0  0  0
 59 60  1  0  0  0  0
 59152  1  0  0  0  0
 59153  1  0  0  0  0
 60 61  2  0  0  0  0
 60 62  1  0  0  0  0
 62 63  1  0  0  0  0
 62154  1  0  0  0  0
 63 64  1  0  0  0  0
 63 66  1  0  0  0  0
 63155  1  1  0  0  0
 64 65  2  0  0  0  0
 64 73  1  0  0  0  0
 66 67  1  0  0  0  0
 66156  1  0  0  0  0
 66157  1  0  0  0  0
 67 68  2  0  0  0  0
 67 69  1  0  0  0  0
 68 70  1  0  0  0  0
 68158  1  0  0  0  0
 69 71  2  0  0  0  0
 69159  1  0  0  0  0
 70 72  2  0  0  0  0
 70160  1  0  0  0  0
 71 72  1  0  0  0  0
 71161  1  0  0  0  0
 72162  1  0  0  0  0
 73 74  1  0  0  0  0
 73163  1  0  0  0  0
 74 75  1  0  0  0  0
 74 77  1  0  0  0  0
 74164  1  6  0  0  0
 75 76  2  0  0  0  0
 75 81  1  0  0  0  0
 77 78  1  0  0  0  0
 77165  1  0  0  0  0
 77166  1  0  0  0  0
 78 79  1  0  0  0  0
 78 80  1  0  0  0  0
 78167  1  0  0  0  0
 79168  1  0  0  0  0
 79169  1  0  0  0  0
 79170  1  0  0  0  0
 80171  1  0  0  0  0
 80172  1  0  0  0  0
 80173  1  0  0  0  0
 81 82  1  0  0  0  0
 81174  1  0  0  0  0
 82 83  1  0  0  0  0
 82 85  1  0  0  0  0
 82175  1  1  0  0  0
 83 84  2  0  0  0  0
 83 91  1  0  0  0  0
 85 86  1  0  0  0  0
 85176  1  0  0  0  0
 85177  1  0  0  0  0
 86 87  1  0  0  0  0
 86 88  2  0  0  0  0
 87 89  1  0  0  0  0
 87178  1  0  0  0  0
 88 90  1  0  0  0  0
 88179  1  0  0  0  0
 89 90  2  0  0  0  0
 89180  1  0  0  0  0
 91 92  1  0  0  0  0
 91 97  1  0  0  0  0
 92 93  1  0  0  0  0
 92 95  1  0  0  0  0
 92181  1  6  0  0  0
 93 94  1  0  0  0  0
 93 98  2  0  0  0  0
 95 96  1  0  0  0  0
 95182  1  0  0  0  0
 95183  1  0  0  0  0
 96 97  1  0  0  0  0
 96184  1  0  0  0  0
 96185  1  0  0  0  0
 97186  1  0  0  0  0
 97187  1  0  0  0  0
M  CHG  2   1   1  94  -1
M  END
