1dm2_ligand
 OpenBabel08222323343D

 29 31  0  0  1  0  0  0  0  0999 V2000
   23.1200   26.8710   28.1360 Br  0  0  0  0  0  0  0  0  0  0  0  0
   25.1840   31.3200   30.2860 O   0  0  0  0  0  0  0  0  0  0  0  0
   30.5370   29.9590   25.4670 O   0  0  0  0  0  0  0  0  0  0  0  0
   24.5420   29.1570   28.7920 N   0  0  0  0  0  0  0  0  0  0  0  0
   26.7440   32.0690   28.7860 N   0  0  0  0  0  0  0  0  0  0  0  0
   29.8580   28.1070   24.2840 N   0  0  0  0  0  0  0  0  0  0  0  0
   27.9500   27.6500   25.3760 N   0  0  0  0  0  0  0  0  0  0  0  0
   28.5480   26.2710   23.6020 N   0  0  0  0  0  0  0  0  0  0  0  0
   24.5650   28.0270   28.0820 C   0  0  0  0  0  0  0  0  0  0  0  0
   25.7290   27.9080   27.3810 C   0  0  0  0  0  0  0  0  0  0  0  0
   26.4900   29.0720   27.6720 C   0  0  0  0  0  0  0  0  0  0  0  0
   25.6920   29.8330   28.5810 C   0  0  0  0  0  0  0  0  0  0  0  0
   25.8600   31.1210   29.2680 C   0  0  0  0  0  0  0  0  0  0  0  0
   27.6150   31.9880   27.6010 C   0  0  0  0  0  0  0  0  0  0  0  0
   28.5210   30.7700   27.6000 C   0  0  0  0  0  0  0  0  0  0  0  0
   27.8380   29.5180   27.0570 C   0  0  2  0  0  0  0  0  0  0  0  0
   28.4320   28.8050   26.0100 C   0  0  0  0  0  0  0  0  0  0  0  0
   29.7250   29.0460   25.2510 C   0  0  0  0  0  0  0  0  0  0  0  0
   28.7890   27.3080   24.3810 C   0  0  0  0  0  0  0  0  0  0  0  0
   23.7713   29.4640   29.4025 H   0  0  0  0  0  0  0  0  0  0  0  0
   26.7990   32.9192   29.3096 H   0  0  0  0  0  0  0  0  0  0  0  0
   29.2060   26.0300   22.8471 H   0  0  0  0  0  0  0  0  0  0  0  0
   27.7018   25.7024   23.7486 H   0  0  0  0  0  0  0  0  0  0  0  0
   26.0174   27.0852   26.7286 H   0  0  0  0  0  0  0  0  0  0  0  0
   28.2437   32.8900   27.5682 H   0  0  0  0  0  0  0  0  0  0  0  0
   26.9800   31.9507   26.7036 H   0  0  0  0  0  0  0  0  0  0  0  0
   28.8440   30.5728   28.6328 H   0  0  0  0  0  0  0  0  0  0  0  0
   29.4003   30.9879   26.9760 H   0  0  0  0  0  0  0  0  0  0  0  0
   28.3784   28.8964   27.7861 H   0  0  0  0  0  0  0  0  0  0  0  0
  1  9  1  0  0  0  0
  4 20  1  0  0  0  0
  5 14  1  0  0  0  0
  5 21  1  0  0  0  0
  6 19  2  0  0  0  0
  8 22  1  0  0  0  0
  8 23  1  0  0  0  0
  9  4  1  0  0  0  0
  9 10  2  0  0  0  0
 10 11  1  0  0  0  0
 10 24  1  0  0  0  0
 11 16  1  0  0  0  0
 11 12  2  0  0  0  0
 12  4  1  0  0  0  0
 12 13  1  0  0  0  0
 13  2  2  0  0  0  0
 13  5  1  0  0  0  0
 14 15  1  0  0  0  0
 14 25  1  0  0  0  0
 14 26  1  0  0  0  0
 15 16  1  0  0  0  0
 15 27  1  0  0  0  0
 15 28  1  0  0  0  0
 16 17  1  0  0  0  0
 16 29  1  1  0  0  0
 17  7  2  0  0  0  0
 17 18  1  0  0  0  0
 18  3  2  0  0  0  0
 18  6  1  0  0  0  0
 19  7  1  0  0  0  0
 19  8  1  0  0  0  0
M  END
