1dmt_ligand
 OpenBabel08222323343D

 69 71  0  0  1  0  0  0  0  0999 V2000
   27.2160   41.1930   31.6090 C   0  0  1  0  0  0  0  0  0  0  0  0
   27.6230   42.2720   30.8190 O   0  0  0  0  0  0  0  0  0  0  0  0
   25.6860   41.0020   31.4970 C   0  0  2  0  0  0  0  0  0  0  0  0
   25.2390   40.0860   32.4720 O   0  0  0  0  0  0  0  0  0  0  0  0
   25.2940   40.5440   30.0730 C   0  0  2  0  0  0  0  0  0  0  0  0
   23.8550   40.4130   29.9470 O   0  0  0  0  0  0  0  0  0  0  0  0
   26.0640   39.2580   29.7010 C   0  0  1  0  0  0  0  0  0  0  0  0
   25.8560   39.0050   28.2870 O   0  0  0  0  0  0  0  0  0  0  0  0
   27.5530   39.5560   29.9040 C   0  0  1  0  0  0  0  0  0  0  0  0
   27.8650   39.9810   31.2330 O   0  0  0  0  0  0  0  0  0  0  0  0
   28.4170   38.3850   29.5120 C   0  0  0  0  0  0  0  0  0  0  0  0
   28.9340   43.1570   30.9510 P   0  0  1  0  0  0  0  0  0  0  0  0
   30.1380   42.2750   31.0820 O   0  0  0  0  0  1  0  0  0  0  0  0
   28.9360   44.1080   29.8520 O   0  0  0  0  0  0  0  0  0  0  0  0
   28.8020   44.0060   32.4090 N   0  0  0  0  0  0  0  0  0  0  0  0
   29.9980   44.4090   33.2370 C   0  0  2  0  0  0  0  0  0  0  0  0
   30.3850   43.2660   34.1440 C   0  0  0  0  0  0  0  0  0  0  0  0
   31.5050   42.8940   34.4160 O   0  0  0  0  0  0  0  0  0  0  0  0
   29.5690   45.5800   34.1480 C   0  0  0  0  0  0  0  0  0  0  0  0
   30.6210   46.0240   35.1710 C   0  0  0  0  0  0  0  0  0  0  0  0
   29.9540   47.1450   35.9840 C   0  0  0  0  0  0  0  0  0  0  0  0
   31.9080   46.5460   34.4720 C   0  0  0  0  0  0  0  0  0  0  0  0
   29.2680   42.5490   34.7520 N   0  0  0  0  0  0  0  0  0  0  0  0
   29.6610   41.4190   35.6340 C   0  0  2  0  0  0  0  0  0  0  0  0
   28.5050   40.3730   35.6370 C   0  0  0  0  0  0  0  0  0  0  0  0
   27.4540   40.5900   34.9740 O   0  5  0  0  0  0  0  0  0  0  0  0
   29.9190   41.9820   37.0740 C   0  0  0  0  0  0  0  0  0  0  0  0
   28.5810   42.2780   37.7480 C   0  0  0  0  0  0  0  0  0  0  0  0
   27.6540   43.1960   37.3360 C   0  0  0  0  0  0  0  0  0  0  0  0
   28.0300   41.6250   38.9100 C   0  0  0  0  0  0  0  0  0  0  0  0
   26.5520   43.1560   38.1730 N   0  0  0  0  0  0  0  0  0  0  0  0
   26.7560   42.1880   39.1630 C   0  0  0  0  0  0  0  0  0  0  0  0
   28.5160   40.5890   39.7790 C   0  0  0  0  0  0  0  0  0  0  0  0
   25.9040   41.7870   40.2420 C   0  0  0  0  0  0  0  0  0  0  0  0
   27.7090   40.1730   40.8470 C   0  0  0  0  0  0  0  0  0  0  0  0
   26.3990   40.7710   41.0780 C   0  0  0  0  0  0  0  0  0  0  0  0
   28.6820   39.3600   36.3090 O   0  0  0  0  0  0  0  0  0  0  0  0
   27.4715   41.4154   32.6556 H   0  0  0  0  0  0  0  0  0  0  0  0
   25.2020   41.9710   31.6888 H   0  0  0  0  0  0  0  0  0  0  0  0
   24.2986   39.9762   32.3942 H   0  0  0  0  0  0  0  0  0  0  0  0
   25.6097   41.3284   29.3694 H   0  0  0  0  0  0  0  0  0  0  0  0
   23.6397   40.1313   29.0656 H   0  0  0  0  0  0  0  0  0  0  0  0
   25.7373   38.4034   30.3116 H   0  0  0  0  0  0  0  0  0  0  0  0
   26.1826   39.7412   27.7833 H   0  0  0  0  0  0  0  0  0  0  0  0
   27.8049   40.3889   29.2311 H   0  0  0  0  0  0  0  0  0  0  0  0
   29.4749   38.6399   29.6726 H   0  0  0  0  0  0  0  0  0  0  0  0
   28.2540   38.1483   28.4502 H   0  0  0  0  0  0  0  0  0  0  0  0
   28.1527   37.5122   30.1271 H   0  0  0  0  0  0  0  0  0  0  0  0
   27.8899   44.2519   32.7370 H   0  0  0  0  0  0  0  0  0  0  0  0
   30.8392   44.6973   32.5896 H   0  0  0  0  0  0  0  0  0  0  0  0
   28.6673   45.2722   34.6976 H   0  0  0  0  0  0  0  0  0  0  0  0
   29.3314   46.4418   33.5070 H   0  0  0  0  0  0  0  0  0  0  0  0
   30.8859   45.1832   35.8289 H   0  0  0  0  0  0  0  0  0  0  0  0
   30.6576   47.5150   36.7443 H   0  0  0  0  0  0  0  0  0  0  0  0
   29.0528   46.7531   36.4783 H   0  0  0  0  0  0  0  0  0  0  0  0
   29.6743   47.9692   35.3114 H   0  0  0  0  0  0  0  0  0  0  0  0
   32.3693   45.7299   33.8965 H   0  0  0  0  0  0  0  0  0  0  0  0
   32.6177   46.9057   35.2316 H   0  0  0  0  0  0  0  0  0  0  0  0
   31.6476   47.3716   33.7933 H   0  0  0  0  0  0  0  0  0  0  0  0
   28.3136   42.7985   34.5880 H   0  0  0  0  0  0  0  0  0  0  0  0
   30.5800   40.9480   35.2551 H   0  0  0  0  0  0  0  0  0  0  0  0
   30.5089   42.9080   37.0062 H   0  0  0  0  0  0  0  0  0  0  0  0
   30.4717   41.2376   37.6659 H   0  0  0  0  0  0  0  0  0  0  0  0
   27.7661   43.8583   36.4789 H   0  0  0  0  0  0  0  0  0  0  0  0
   25.7130   43.7464   38.0814 H   0  0  0  0  0  0  0  0  0  0  0  0
   29.4875   40.1380   39.6120 H   0  0  0  0  0  0  0  0  0  0  0  0
   24.9331   42.2409   40.4047 H   0  0  0  0  0  0  0  0  0  0  0  0
   28.0644   39.3942   41.5120 H   0  0  0  0  0  0  0  0  0  0  0  0
   25.7958   40.4256   41.9098 H   0  0  0  0  0  0  0  0  0  0  0  0
  1  2  1  0  0  0  0
  1  3  1  0  0  0  0
  1 10  1  0  0  0  0
  1 38  1  1  0  0  0
  2 12  1  0  0  0  0
  3  4  1  0  0  0  0
  3  5  1  0  0  0  0
  3 39  1  1  0  0  0
  4 40  1  0  0  0  0
  5  6  1  0  0  0  0
  5  7  1  0  0  0  0
  5 41  1  6  0  0  0
  6 42  1  0  0  0  0
  7  8  1  0  0  0  0
  7  9  1  0  0  0  0
  7 43  1  1  0  0  0
  8 44  1  0  0  0  0
  9 10  1  0  0  0  0
  9 11  1  0  0  0  0
  9 45  1  6  0  0  0
 11 46  1  0  0  0  0
 11 47  1  0  0  0  0
 11 48  1  0  0  0  0
 12 13  1  6  0  0  0
 12 14  2  0  0  0  0
 12 15  1  0  0  0  0
 15 16  1  0  0  0  0
 15 49  1  0  0  0  0
 16 17  1  0  0  0  0
 16 19  1  0  0  0  0
 16 50  1  6  0  0  0
 17 18  2  0  0  0  0
 17 23  1  0  0  0  0
 19 20  1  0  0  0  0
 19 51  1  0  0  0  0
 19 52  1  0  0  0  0
 20 21  1  0  0  0  0
 20 22  1  0  0  0  0
 20 53  1  0  0  0  0
 21 54  1  0  0  0  0
 21 55  1  0  0  0  0
 21 56  1  0  0  0  0
 22 57  1  0  0  0  0
 22 58  1  0  0  0  0
 22 59  1  0  0  0  0
 23 24  1  0  0  0  0
 23 60  1  0  0  0  0
 24 25  1  0  0  0  0
 24 27  1  0  0  0  0
 24 61  1  6  0  0  0
 25 26  1  0  0  0  0
 25 37  2  0  0  0  0
 27 28  1  0  0  0  0
 27 62  1  0  0  0  0
 27 63  1  0  0  0  0
 28 29  2  0  0  0  0
 28 30  1  0  0  0  0
 29 31  1  0  0  0  0
 29 64  1  0  0  0  0
 30 32  2  0  0  0  0
 30 33  1  0  0  0  0
 31 32  1  0  0  0  0
 31 65  1  0  0  0  0
 32 34  1  0  0  0  0
 33 35  2  0  0  0  0
 33 66  1  0  0  0  0
 34 36  2  0  0  0  0
 34 67  1  0  0  0  0
 35 36  1  0  0  0  0
 35 68  1  0  0  0  0
 36 69  1  0  0  0  0
M  CHG  1  26  -1
M  END
