1doj_ligand
 OpenBabel08222323343D

 80 83  0  0  1  0  0  0  0  0999 V2000
    9.2080   25.9000   -9.8540 C   0  0  0  0  0  0  0  0  0  0  0  0
    9.8060   25.3970   -8.5820 N   0  3  0  0  0  0  0  0  0  0  0  0
   10.9020   26.3160   -8.1460 C   0  0  1  0  0  0  0  0  0  0  0  0
   11.4970   25.8040   -6.8370 C   0  0  0  0  0  0  0  0  0  0  0  0
   11.8400   24.6260   -6.7230 O   0  0  0  0  0  0  0  0  0  0  0  0
   11.9810   26.3700   -9.2310 C   0  0  0  0  0  0  0  0  0  0  0  0
   12.9500   27.5190   -9.0370 C   0  0  0  0  0  0  0  0  0  0  0  0
   12.4810   28.8260   -9.0200 C   0  0  0  0  0  0  0  0  0  0  0  0
   14.3040   27.2650   -8.8800 C   0  0  0  0  0  0  0  0  0  0  0  0
   13.3790   29.8780   -8.8450 C   0  0  0  0  0  0  0  0  0  0  0  0
   15.1900   28.3250   -8.7050 C   0  0  0  0  0  0  0  0  0  0  0  0
   14.7260   29.6280   -8.6880 C   0  0  0  0  0  0  0  0  0  0  0  0
   11.6410   26.6880   -5.8340 N   0  0  0  0  0  0  0  0  0  0  0  0
   12.1980   26.2640   -4.5430 C   0  0  2  0  0  0  0  0  0  0  0  0
   11.3190   25.1920   -3.9100 C   0  0  0  0  0  0  0  0  0  0  0  0
   10.0970   25.2250   -4.0440 O   0  0  0  0  0  0  0  0  0  0  0  0
   12.2130   27.5460   -3.7080 C   0  0  0  0  0  0  0  0  0  0  0  0
   12.1150   28.6570   -4.6980 C   0  0  0  0  0  0  0  0  0  0  0  0
   11.3150   28.1250   -5.8470 C   0  0  0  0  0  0  0  0  0  0  0  0
   11.9440   24.2430   -3.2240 N   0  0  0  0  0  0  0  0  0  0  0  0
   11.2070   23.1720   -2.5740 C   0  0  1  0  0  0  0  0  0  0  0  0
   11.7770   21.8170   -2.9930 C   0  0  0  0  0  0  0  0  0  0  0  0
   11.3090   21.4110   -4.3760 C   0  0  0  0  0  0  0  0  0  0  0  0
   12.1300   20.2820   -4.9720 C   0  0  0  0  0  0  0  0  0  0  0  0
   11.4600   19.7380   -6.1480 N   0  0  0  0  0  0  0  0  0  0  0  0
   11.7870   18.5980   -6.7450 C   0  0  0  0  0  3  0  0  0  0  0  0
   12.7890   17.8600   -6.2820 N   0  0  0  0  0  0  0  0  0  0  0  0
   11.1010   18.1940   -7.8010 N   0  0  0  0  0  0  0  0  0  0  0  0
   11.0870   25.6900   -0.1830 N   0  0  0  0  0  0  0  0  0  0  0  0
    8.7900   24.6430   -0.6100 S   0  0  0  0  0  0  0  0  0  0  0  0
   10.4860   24.5400   -0.6150 C   0  0  0  0  0  0  0  0  0  0  0  0
   10.2150   26.6720    0.1570 C   0  0  0  0  0  0  0  0  0  0  0  0
    8.8440   26.2860   -0.0110 C   0  0  0  0  0  0  0  0  0  0  0  0
    7.8240   27.1730    0.2940 C   0  0  0  0  0  0  0  0  0  0  0  0
    8.1250   28.4420    0.7640 C   0  0  0  0  0  0  0  0  0  0  0  0
    9.4520   28.8430    0.9360 C   0  0  0  0  0  0  0  0  0  0  0  0
   10.4900   27.9550    0.6300 C   0  0  0  0  0  0  0  0  0  0  0  0
    7.0990   29.2950    1.1230 C   0  0  0  0  0  0  0  0  0  0  0  0
    7.3430   30.2350    1.9090 O   0  5  0  0  0  0  0  0  0  0  0  0
    5.9420   29.0480    0.7230 O   0  0  0  0  0  0  0  0  0  0  0  0
   10.5460   22.2290   -0.4730 O   0  0  0  0  0  0  0  0  0  0  0  0
   11.2510   23.3080   -1.0710 C   0  0  1  0  0  0  0  0  0  0  0  0
    8.4021   25.2228  -10.1732 H   0  0  0  0  0  0  0  0  0  0  0  0
    9.9834   25.9399  -10.6331 H   0  0  0  0  0  0  0  0  0  0  0  0
    8.7978   26.9079   -9.6930 H   0  0  0  0  0  0  0  0  0  0  0  0
   10.1815   24.4734   -8.7299 H   0  0  0  0  0  0  0  0  0  0  0  0
    9.0951   25.3604   -7.8684 H   0  0  0  0  0  0  0  0  0  0  0  0
   10.4936   27.3253   -7.9895 H   0  0  0  0  0  0  0  0  0  0  0  0
   11.4909   26.4846  -10.2091 H   0  0  0  0  0  0  0  0  0  0  0  0
   12.5461   25.4264   -9.2124 H   0  0  0  0  0  0  0  0  0  0  0  0
   11.4228   29.0271   -9.1421 H   0  0  0  0  0  0  0  0  0  0  0  0
   14.6715   26.2453   -8.8934 H   0  0  0  0  0  0  0  0  0  0  0  0
   13.0159   30.8993   -8.8323 H   0  0  0  0  0  0  0  0  0  0  0  0
   16.2488   28.1280   -8.5815 H   0  0  0  0  0  0  0  0  0  0  0  0
   15.4192   30.4502   -8.5517 H   0  0  0  0  0  0  0  0  0  0  0  0
   13.2180   25.8714   -4.6671 H   0  0  0  0  0  0  0  0  0  0  0  0
   13.1483   27.6219   -3.1341 H   0  0  0  0  0  0  0  0  0  0  0  0
   11.3566   27.5673   -3.0180 H   0  0  0  0  0  0  0  0  0  0  0  0
   13.1181   28.9546   -5.0375 H   0  0  0  0  0  0  0  0  0  0  0  0
   11.6076   29.5237   -4.2493 H   0  0  0  0  0  0  0  0  0  0  0  0
   10.2387   28.2886   -5.6898 H   0  0  0  0  0  0  0  0  0  0  0  0
   11.6225   28.5925   -6.7940 H   0  0  0  0  0  0  0  0  0  0  0  0
   12.9412   24.2653   -3.1530 H   0  0  0  0  0  0  0  0  0  0  0  0
   10.1569   23.2274   -2.8969 H   0  0  0  0  0  0  0  0  0  0  0  0
   11.4516   21.0550   -2.2695 H   0  0  0  0  0  0  0  0  0  0  0  0
   12.8753   21.8776   -2.9927 H   0  0  0  0  0  0  0  0  0  0  0  0
   11.3799   22.2846   -5.0406 H   0  0  0  0  0  0  0  0  0  0  0  0
   10.2606   21.0848   -4.3096 H   0  0  0  0  0  0  0  0  0  0  0  0
   12.2514   19.4861   -4.2224 H   0  0  0  0  0  0  0  0  0  0  0  0
   13.1190   20.6661   -5.2625 H   0  0  0  0  0  0  0  0  0  0  0  0
   10.6767   20.2771   -6.5438 H   0  0  0  0  0  0  0  0  0  0  0  0
   13.0372   16.9767   -6.7501 H   0  0  0  0  0  0  0  0  0  0  0  0
   13.3181   18.1708   -5.4547 H   0  0  0  0  0  0  0  0  0  0  0  0
   10.3237   18.7666   -8.1601 H   0  0  0  0  0  0  0  0  0  0  0  0
   11.3440   17.3068   -8.2644 H   0  0  0  0  0  0  0  0  0  0  0  0
    6.7900   26.8744    0.1650 H   0  0  0  0  0  0  0  0  0  0  0  0
    9.6769   29.8372    1.3047 H   0  0  0  0  0  0  0  0  0  0  0  0
   11.5194   28.2681    0.7622 H   0  0  0  0  0  0  0  0  0  0  0  0
   10.9635   21.4092   -0.7101 H   0  0  0  0  0  0  0  0  0  0  0  0
   12.2957   23.3421   -0.7282 H   0  0  0  0  0  0  0  0  0  0  0  0
  1 43  1  0  0  0  0
  1 44  1  0  0  0  0
  1 45  1  0  0  0  0
  2  1  1  0  0  0  0
  2 46  1  0  0  0  0
  2 47  1  0  0  0  0
  3  2  1  0  0  0  0
  3  6  1  0  0  0  0
  3 48  1  1  0  0  0
  4  3  1  0  0  0  0
  4  5  2  0  0  0  0
  6  7  1  0  0  0  0
  6 49  1  0  0  0  0
  6 50  1  0  0  0  0
  7  8  2  0  0  0  0
  7  9  1  0  0  0  0
  8 10  1  0  0  0  0
  8 51  1  0  0  0  0
  9 11  2  0  0  0  0
  9 52  1  0  0  0  0
 10 12  2  0  0  0  0
 10 53  1  0  0  0  0
 11 12  1  0  0  0  0
 11 54  1  0  0  0  0
 12 55  1  0  0  0  0
 13  4  1  0  0  0  0
 13 19  1  0  0  0  0
 14 13  1  0  0  0  0
 14 17  1  0  0  0  0
 14 56  1  6  0  0  0
 15 14  1  0  0  0  0
 15 16  2  0  0  0  0
 17 18  1  0  0  0  0
 17 57  1  0  0  0  0
 17 58  1  0  0  0  0
 18 19  1  0  0  0  0
 18 59  1  0  0  0  0
 18 60  1  0  0  0  0
 19 61  1  0  0  0  0
 19 62  1  0  0  0  0
 20 15  1  0  0  0  0
 20 63  1  0  0  0  0
 21 20  1  0  0  0  0
 21 22  1  0  0  0  0
 21 64  1  6  0  0  0
 22 23  1  0  0  0  0
 22 65  1  0  0  0  0
 22 66  1  0  0  0  0
 23 24  1  0  0  0  0
 23 67  1  0  0  0  0
 23 68  1  0  0  0  0
 24 25  1  0  0  0  0
 24 69  1  0  0  0  0
 24 70  1  0  0  0  0
 25 26  1  0  0  0  0
 25 71  1  0  0  0  0
 26 27  1  0  0  0  0
 26 28  1  0  0  0  0
 27 72  1  0  0  0  0
 27 73  1  0  0  0  0
 28 74  1  0  0  0  0
 28 75  1  0  0  0  0
 29 32  1  0  0  0  0
 30 33  1  0  0  0  0
 31 29  2  0  0  0  0
 31 30  1  0  0  0  0
 31 42  1  0  0  0  0
 32 33  2  0  0  0  0
 32 37  1  0  0  0  0
 33 34  1  0  0  0  0
 34 35  2  0  0  0  0
 34 76  1  0  0  0  0
 35 36  1  0  0  0  0
 35 38  1  0  0  0  0
 36 37  2  0  0  0  0
 36 77  1  0  0  0  0
 37 78  1  0  0  0  0
 38 39  1  0  0  0  0
 38 40  2  0  0  0  0
 41 79  1  0  0  0  0
 42 21  1  0  0  0  0
 42 41  1  0  0  0  0
 42 80  1  1  0  0  0
M  CHG  2   2   1  39  -1
M  END
