1dtt_ligand
 OpenBabel08222323343D

 39 40  0  0  0  0  0  0  0  0999 V2000
   -1.9070  -34.6890   21.8880 C   0  0  0  0  0  0  0  0  0  0  0  0
   -1.8840  -34.8920   23.2680 N   0  0  0  0  0  0  0  0  0  0  0  0
   -2.8370  -34.3510   24.1270 C   0  0  0  0  0  0  0  0  0  0  0  0
   -3.8600  -33.5890   23.5590 C   0  0  0  0  0  0  0  0  0  0  0  0
   -3.8880  -33.3710   22.1780 C   0  0  0  0  0  0  0  0  0  0  0  0
   -2.9350  -33.9140   21.3300 C   0  0  0  0  0  0  0  0  0  0  0  0
   -5.0920  -32.9420   24.5360 Cl  0  0  0  0  0  0  0  0  0  0  0  0
   -1.0530  -35.2640   21.0040 N   0  0  0  0  0  0  0  0  0  0  0  0
    0.0140  -36.0400   21.2010 C   0  0  0  0  0  0  0  0  0  0  0  0
    1.0970  -36.3310   19.8700 S   0  0  0  0  0  0  0  0  0  0  0  0
    0.1530  -36.5920   22.4310 N   0  0  0  0  0  0  0  0  0  0  0  0
    1.4790  -36.8940   23.0050 C   0  0  0  0  0  0  0  0  0  0  0  0
    1.3560  -37.1530   24.5380 C   0  0  0  0  0  0  0  0  0  0  0  0
    1.5140  -35.8510   25.3280 C   0  0  0  0  0  0  0  0  0  0  0  0
    2.6560  -35.0920   25.1450 N   0  0  0  0  0  0  0  0  0  0  0  0
    2.8500  -33.8640   25.7430 C   0  0  0  0  0  0  0  0  0  0  0  0
    1.8560  -33.3500   26.5780 C   0  0  0  0  0  0  0  0  0  0  0  0
    0.6830  -34.0880   26.7940 C   0  0  0  0  0  0  0  0  0  0  0  0
    0.4940  -35.3450   26.1650 C   0  0  0  0  0  0  0  0  0  0  0  0
   -0.2550  -33.5690   27.6670 O   0  0  0  0  0  0  0  0  0  0  0  0
   -1.0880  -32.5880   27.0670 C   0  0  0  0  0  0  0  0  0  0  0  0
   -2.1390  -32.1440   28.0580 C   0  0  0  0  0  0  0  0  0  0  0  0
   -0.6420  -36.0320   26.3630 F   0  0  0  0  0  0  0  0  0  0  0  0
   -2.7866  -34.5153   25.1973 H   0  0  0  0  0  0  0  0  0  0  0  0
   -4.6783  -32.7593   21.7580 H   0  0  0  0  0  0  0  0  0  0  0  0
   -2.9830  -33.7437   20.2605 H   0  0  0  0  0  0  0  0  0  0  0  0
   -1.2579  -35.0742   20.0438 H   0  0  0  0  0  0  0  0  0  0  0  0
   -0.6663  -36.8007   22.9650 H   0  0  0  0  0  0  0  0  0  0  0  0
    2.1520  -36.0410   22.8335 H   0  0  0  0  0  0  0  0  0  0  0  0
    1.8907  -37.7898   22.5171 H   0  0  0  0  0  0  0  0  0  0  0  0
    2.1404  -37.8593   24.8477 H   0  0  0  0  0  0  0  0  0  0  0  0
    0.3676  -37.5859   24.7517 H   0  0  0  0  0  0  0  0  0  0  0  0
    3.7622  -33.3055   25.5669 H   0  0  0  0  0  0  0  0  0  0  0  0
    1.9900  -32.3865   27.0564 H   0  0  0  0  0  0  0  0  0  0  0  0
   -1.5781  -33.0161   26.1801 H   0  0  0  0  0  0  0  0  0  0  0  0
   -0.4782  -31.7230   26.7673 H   0  0  0  0  0  0  0  0  0  0  0  0
   -2.7840  -31.3841   27.5926 H   0  0  0  0  0  0  0  0  0  0  0  0
   -1.6491  -31.7158   28.9449 H   0  0  0  0  0  0  0  0  0  0  0  0
   -2.7490  -33.0089   28.3577 H   0  0  0  0  0  0  0  0  0  0  0  0
  1  2  2  0  0  0  0
  1  6  1  0  0  0  0
  1  8  1  0  0  0  0
  2  3  1  0  0  0  0
  3  4  2  0  0  0  0
  3 24  1  0  0  0  0
  4  5  1  0  0  0  0
  4  7  1  0  0  0  0
  5  6  2  0  0  0  0
  5 25  1  0  0  0  0
  6 26  1  0  0  0  0
  8  9  1  0  0  0  0
  8 27  1  0  0  0  0
  9 10  2  0  0  0  0
  9 11  1  0  0  0  0
 11 12  1  0  0  0  0
 11 28  1  0  0  0  0
 12 13  1  0  0  0  0
 12 29  1  0  0  0  0
 12 30  1  0  0  0  0
 13 14  1  0  0  0  0
 13 31  1  0  0  0  0
 13 32  1  0  0  0  0
 14 15  2  0  0  0  0
 14 19  1  0  0  0  0
 15 16  1  0  0  0  0
 16 17  2  0  0  0  0
 16 33  1  0  0  0  0
 17 18  1  0  0  0  0
 17 34  1  0  0  0  0
 18 19  2  0  0  0  0
 18 20  1  0  0  0  0
 19 23  1  0  0  0  0
 20 21  1  0  0  0  0
 21 22  1  0  0  0  0
 21 35  1  0  0  0  0
 21 36  1  0  0  0  0
 22 37  1  0  0  0  0
 22 38  1  0  0  0  0
 22 39  1  0  0  0  0
M  END
