1dub_ligand
 OpenBabel08222323343D

 90 92  0  0  1  0  0  0  0  0999 V2000
   57.4910  105.7980  182.3710 N   0  0  0  0  0  0  0  0  0  0  0  0
   56.7250  105.8160  183.4260 C   0  0  0  0  0  0  0  0  0  0  0  0
   56.0510  106.8060  183.9620 N   0  0  0  0  0  0  0  0  0  0  0  0
   56.2300  107.9470  183.2460 C   0  0  0  0  0  0  0  0  0  0  0  0
   56.9900  108.0800  182.1280 C   0  0  0  0  0  0  0  0  0  0  0  0
   57.6650  106.9200  181.6700 C   0  0  0  0  0  0  0  0  0  0  0  0
   58.4440  106.8910  180.6030 N   0  0  0  0  0  0  0  0  0  0  0  0
   56.9480  109.3670  181.6640 N   0  0  0  0  0  0  0  0  0  0  0  0
   56.1610  109.9940  182.5080 C   0  0  0  0  0  0  0  0  0  0  0  0
   55.6800  109.1750  183.5050 N   0  0  0  0  0  0  0  0  0  0  0  0
   54.7890  109.4960  184.6410 C   0  0  1  0  0  0  0  0  0  0  0  0
   55.5150  110.5250  185.5470 C   0  0  2  0  0  0  0  0  0  0  0  0
   56.4540  109.8890  186.4700 O   0  0  0  0  0  0  0  0  0  0  0  0
   54.3430  111.1570  186.2880 C   0  0  2  0  0  0  0  0  0  0  0  0
   53.7580  110.1900  187.1500 O   0  0  0  0  0  0  0  0  0  0  0  0
   53.7980  110.4310  188.6590 P   0  0  0  0  0  0  0  0  0  0  0  0
   55.0160  109.7280  189.2650 O   0  0  0  0  0  1  0  0  0  0  0  0
   53.8980  111.9330  188.9680 O   0  0  0  0  0  1  0  0  0  0  0  0
   52.5190  109.8420  189.2500 O   0  0  0  0  0  0  0  0  0  0  0  0
   53.4020  111.3340  185.1060 C   0  0  2  0  0  0  0  0  0  0  0  0
   53.6190  110.2170  184.2260 O   0  0  0  0  0  0  0  0  0  0  0  0
   53.7080  112.6160  184.4030 C   0  0  0  0  0  0  0  0  0  0  0  0
   55.0730  112.7900  184.2300 O   0  0  0  0  0  0  0  0  0  0  0  0
   55.7000  114.1300  184.5250 P   0  0  1  0  0  0  0  0  0  0  0  0
   55.2040  114.5910  185.9110 O   0  0  0  0  0  1  0  0  0  0  0  0
   57.2430  113.9700  184.5450 O   0  0  0  0  0  0  0  0  0  0  0  0
   55.2600  115.1450  183.4480 O   0  0  0  0  0  0  0  0  0  0  0  0
   55.9900  116.4060  182.9150 P   0  0  1  0  0  0  0  0  0  0  0  0
   54.9760  117.2640  182.1220 O   0  0  0  0  0  1  0  0  0  0  0  0
   56.5600  117.2390  184.0850 O   0  0  0  0  0  0  0  0  0  0  0  0
   57.1560  116.0090  181.9760 O   0  0  0  0  0  0  0  0  0  0  0  0
   58.0160  114.4120  180.2830 C   0  0  0  0  0  0  0  0  0  0  0  0
   56.8890  115.3340  180.7350 C   0  0  0  0  0  0  0  0  0  0  0  0
   59.1580  115.2540  179.7160 C   0  0  0  0  0  0  0  0  0  0  0  0
   57.4840  113.4780  179.1730 C   0  0  0  0  0  0  0  0  0  0  0  0
   58.4860  113.6180  181.5350 C   0  0  1  0  0  0  0  0  0  0  0  0
   57.4920  112.6410  181.9620 O   0  0  0  0  0  0  0  0  0  0  0  0
   59.7190  112.7580  181.3550 C   0  0  0  0  0  0  0  0  0  0  0  0
   60.8320  113.2380  181.2030 O   0  0  0  0  0  0  0  0  0  0  0  0
   59.4860  111.3670  181.3470 N   0  0  0  0  0  0  0  0  0  0  0  0
   60.5020  110.4350  181.1190 C   0  0  0  0  0  0  0  0  0  0  0  0
   60.3060  109.7240  179.7950 C   0  0  0  0  0  0  0  0  0  0  0  0
   61.5300  108.9570  179.3120 C   0  0  0  0  0  0  0  0  0  0  0  0
   62.6640  109.1700  179.6930 O   0  0  0  0  0  0  0  0  0  0  0  0
   61.1540  107.9720  178.4140 N   0  0  0  0  0  0  0  0  0  0  0  0
   62.0320  107.0630  177.8190 C   0  0  0  0  0  0  0  0  0  0  0  0
   62.6750  106.1990  178.8450 C   0  0  0  0  0  0  0  0  0  0  0  0
   62.8650  104.3850  178.5860 S   0  0  0  0  0  0  0  0  0  0  0  0
   62.2910  103.7670  177.0400 C   0  0  0  0  0  0  0  0  0  0  0  0
   61.8690  104.5480  176.1990 O   0  0  0  0  0  0  0  0  0  0  0  0
   62.7220  102.3900  176.6700 C   0  0  0  0  0  0  0  0  0  0  0  0
   62.7730  101.8920  175.2780 C   0  0  0  0  0  0  0  0  0  0  0  0
   62.5320  102.5930  174.3500 O   0  0  0  0  0  0  0  0  0  0  0  0
   63.1150  100.4880  174.8800 C   0  0  0  0  0  0  0  0  0  0  0  0
   56.6304  104.8662  183.9397 H   0  0  0  0  0  0  0  0  0  0  0  0
   58.5906  107.7468  180.0490 H   0  0  0  0  0  0  0  0  0  0  0  0
   58.9046  106.0125  180.3253 H   0  0  0  0  0  0  0  0  0  0  0  0
   55.9144  111.0517  182.4277 H   0  0  0  0  0  0  0  0  0  0  0  0
   54.5213  108.5787  185.1858 H   0  0  0  0  0  0  0  0  0  0  0  0
   56.0534  111.2711  184.9442 H   0  0  0  0  0  0  0  0  0  0  0  0
   55.9838  109.2834  187.0309 H   0  0  0  0  0  0  0  0  0  0  0  0
   54.5948  112.0891  186.8150 H   0  0  0  0  0  0  0  0  0  0  0  0
   52.3576  111.3450  185.4511 H   0  0  0  0  0  0  0  0  0  0  0  0
   53.3142  113.4527  184.9987 H   0  0  0  0  0  0  0  0  0  0  0  0
   53.2214  112.6072  183.4165 H   0  0  0  0  0  0  0  0  0  0  0  0
   56.7273  116.0926  179.9550 H   0  0  0  0  0  0  0  0  0  0  0  0
   55.9761  114.7325  180.8564 H   0  0  0  0  0  0  0  0  0  0  0  0
   59.9736  114.5926  179.3885 H   0  0  0  0  0  0  0  0  0  0  0  0
   59.5302  115.9379  180.4930 H   0  0  0  0  0  0  0  0  0  0  0  0
   58.7924  115.8376  178.8582 H   0  0  0  0  0  0  0  0  0  0  0  0
   56.6607  112.8669  179.5714 H   0  0  0  0  0  0  0  0  0  0  0  0
   58.2950  112.8201  178.8275 H   0  0  0  0  0  0  0  0  0  0  0  0
   57.1175  114.0821  178.3299 H   0  0  0  0  0  0  0  0  0  0  0  0
   58.6679  114.3481  182.3374 H   0  0  0  0  0  0  0  0  0  0  0  0
   56.6825  113.0885  182.1788 H   0  0  0  0  0  0  0  0  0  0  0  0
   58.5572  111.0346  181.5109 H   0  0  0  0  0  0  0  0  0  0  0  0
   60.4957  109.6917  181.9298 H   0  0  0  0  0  0  0  0  0  0  0  0
   61.4707  110.9559  181.1066 H   0  0  0  0  0  0  0  0  0  0  0  0
   60.0475  110.4756  179.0346 H   0  0  0  0  0  0  0  0  0  0  0  0
   59.4743  109.0126  179.9051 H   0  0  0  0  0  0  0  0  0  0  0  0
   60.1853  107.9069  178.1746 H   0  0  0  0  0  0  0  0  0  0  0  0
   62.8110  107.6175  177.2753 H   0  0  0  0  0  0  0  0  0  0  0  0
   61.4727  106.4302  177.1142 H   0  0  0  0  0  0  0  0  0  0  0  0
   62.0885  106.3219  179.7674 H   0  0  0  0  0  0  0  0  0  0  0  0
   63.6880  106.5993  178.9985 H   0  0  0  0  0  0  0  0  0  0  0  0
   62.0447  101.7096  177.2069 H   0  0  0  0  0  0  0  0  0  0  0  0
   63.7424  102.2790  177.0654 H   0  0  0  0  0  0  0  0  0  0  0  0
   63.0768  100.3979  173.7844 H   0  0  0  0  0  0  0  0  0  0  0  0
   62.3915   99.7926  175.3305 H   0  0  0  0  0  0  0  0  0  0  0  0
   64.1277  100.2432  175.2329 H   0  0  0  0  0  0  0  0  0  0  0  0
  1  2  2  0  0  0  0
  1  6  1  0  0  0  0
  2  3  1  0  0  0  0
  2 55  1  0  0  0  0
  3  4  2  0  0  0  0
  4  5  1  0  0  0  0
  4 10  1  0  0  0  0
  5  6  2  0  0  0  0
  5  8  1  0  0  0  0
  6  7  1  0  0  0  0
  7 56  1  0  0  0  0
  7 57  1  0  0  0  0
  8  9  2  0  0  0  0
  9 10  1  0  0  0  0
  9 58  1  0  0  0  0
 10 11  1  0  0  0  0
 11 12  1  0  0  0  0
 11 21  1  0  0  0  0
 11 59  1  1  0  0  0
 12 13  1  0  0  0  0
 12 14  1  0  0  0  0
 12 60  1  6  0  0  0
 13 61  1  0  0  0  0
 14 15  1  0  0  0  0
 14 20  1  0  0  0  0
 14 62  1  1  0  0  0
 15 16  1  0  0  0  0
 16 17  1  0  0  0  0
 16 18  1  0  0  0  0
 16 19  2  0  0  0  0
 20 21  1  0  0  0  0
 20 22  1  0  0  0  0
 20 63  1  1  0  0  0
 22 23  1  0  0  0  0
 22 64  1  0  0  0  0
 22 65  1  0  0  0  0
 23 24  1  0  0  0  0
 24 25  1  1  0  0  0
 24 26  2  0  0  0  0
 24 27  1  0  0  0  0
 27 28  1  0  0  0  0
 28 29  1  6  0  0  0
 28 30  2  0  0  0  0
 28 31  1  0  0  0  0
 31 33  1  0  0  0  0
 32 34  1  0  0  0  0
 32 35  1  0  0  0  0
 32 36  1  0  0  0  0
 33 32  1  0  0  0  0
 33 66  1  0  0  0  0
 33 67  1  0  0  0  0
 34 68  1  0  0  0  0
 34 69  1  0  0  0  0
 34 70  1  0  0  0  0
 35 71  1  0  0  0  0
 35 72  1  0  0  0  0
 35 73  1  0  0  0  0
 36 37  1  0  0  0  0
 36 38  1  0  0  0  0
 36 74  1  1  0  0  0
 37 75  1  0  0  0  0
 38 39  2  0  0  0  0
 38 40  1  0  0  0  0
 40 41  1  0  0  0  0
 40 76  1  0  0  0  0
 41 42  1  0  0  0  0
 41 77  1  0  0  0  0
 41 78  1  0  0  0  0
 42 43  1  0  0  0  0
 42 79  1  0  0  0  0
 42 80  1  0  0  0  0
 43 44  2  0  0  0  0
 43 45  1  0  0  0  0
 45 46  1  0  0  0  0
 45 81  1  0  0  0  0
 46 47  1  0  0  0  0
 46 82  1  0  0  0  0
 46 83  1  0  0  0  0
 47 48  1  0  0  0  0
 47 84  1  0  0  0  0
 47 85  1  0  0  0  0
 48 49  1  0  0  0  0
 49 50  2  0  0  0  0
 49 51  1  0  0  0  0
 51 52  1  0  0  0  0
 51 86  1  0  0  0  0
 51 87  1  0  0  0  0
 52 53  2  0  0  0  0
 52 54  1  0  0  0  0
 54 88  1  0  0  0  0
 54 89  1  0  0  0  0
 54 90  1  0  0  0  0
M  END
