1dwc_ligand
 OpenBabel08222323343D

 71 73  0  0  1  0  0  0  0  0999 V2000
   29.5620   11.9600   25.3330 C   0  0  0  0  0  0  0  0  0  0  0  0
   29.3790   11.3580   24.1210 C   0  0  0  0  0  0  0  0  0  0  0  0
   30.1090   10.2040   23.8000 C   0  0  0  0  0  0  0  0  0  0  0  0
   31.0580    9.6760   24.6800 C   0  0  0  0  0  0  0  0  0  0  0  0
   31.3110   10.3570   25.8650 C   0  0  0  0  0  0  0  0  0  0  0  0
   32.2630    9.8270   26.8440 C   0  0  0  0  0  0  0  0  0  0  0  0
   32.8640   10.9560   27.6000 C   0  0  1  0  0  0  0  0  0  0  0  0
   31.7960   11.7570   28.2400 C   0  0  0  0  0  0  0  0  0  0  0  0
   30.8260   12.2470   27.3000 N   0  0  0  0  0  0  0  0  0  0  0  0
   30.5960   11.5460   26.2180 C   0  0  0  0  0  0  0  0  0  0  0  0
   28.7520   13.5130   25.6380 S   0  0  0  0  0  0  0  0  0  0  0  0
   29.7320   14.8200   25.1830 N   0  0  0  0  0  0  0  0  0  0  0  0
   30.4930   14.8340   23.9360 C   0  0  2  0  0  0  0  0  0  0  0  0
   31.8340   14.1520   24.1210 C   0  0  0  0  0  0  0  0  0  0  0  0
   32.5200   14.2960   25.1110 O   0  0  0  0  0  0  0  0  0  0  0  0
   30.7090   16.2410   23.4460 C   0  0  0  0  0  0  0  0  0  0  0  0
   30.9130   17.1700   24.5960 C   0  0  0  0  0  0  0  0  0  0  0  0
   31.3610   18.5140   24.0090 C   0  0  0  0  0  0  0  0  0  0  0  0
   31.5800   19.5010   25.0670 N   0  0  0  0  0  0  0  0  0  0  0  0
   32.8380   19.8780   25.3590 C   0  0  0  0  0  3  0  0  0  0  0  0
   33.8690   19.3020   24.6870 N   0  0  0  0  0  0  0  0  0  0  0  0
   33.0480   20.7010   26.4060 N   0  0  0  0  0  0  0  0  0  0  0  0
   33.7940   10.4240   28.6730 C   0  0  0  0  0  0  0  0  0  0  0  0
   28.5540   13.6490   27.0570 O   0  0  0  0  0  0  0  0  0  0  0  0
   27.6690   13.3990   24.6800 O   0  0  0  0  0  0  0  0  0  0  0  0
   32.3370   13.5310   23.0090 N   0  0  0  0  0  0  0  0  0  0  0  0
   31.6320   13.5940   21.7350 C   0  0  2  0  0  0  0  0  0  0  0  0
   31.5630   12.2080   21.0910 C   0  0  0  0  0  0  0  0  0  0  0  0
   32.9310   11.6240   21.0310 C   0  0  1  0  0  0  0  0  0  0  0  0
   33.5710   11.5970   22.4090 C   0  0  0  0  0  0  0  0  0  0  0  0
   33.6280   12.9300   23.0790 C   0  0  0  0  0  0  0  0  0  0  0  0
   32.2420   14.6520   20.8170 C   0  0  0  0  0  0  0  0  0  0  0  0
   31.8780   14.5770   19.6490 O   0  5  0  0  0  0  0  0  0  0  0  0
   32.5180   15.7230   21.3050 O   0  0  0  0  0  0  0  0  0  0  0  0
   32.8000   10.2190   20.4830 C   0  0  0  0  0  0  0  0  0  0  0  0
   28.6724   11.7703   23.4098 H   0  0  0  0  0  0  0  0  0  0  0  0
   29.9336    9.7117   22.8503 H   0  0  0  0  0  0  0  0  0  0  0  0
   31.5838    8.7579   24.4441 H   0  0  0  0  0  0  0  0  0  0  0  0
   33.0554    9.2699   26.3227 H   0  0  0  0  0  0  0  0  0  0  0  0
   31.7395    9.1551   27.5401 H   0  0  0  0  0  0  0  0  0  0  0  0
   33.4332   11.5933   26.9072 H   0  0  0  0  0  0  0  0  0  0  0  0
   32.2581   12.6164   28.7478 H   0  0  0  0  0  0  0  0  0  0  0  0
   31.2806   11.1274   28.9802 H   0  0  0  0  0  0  0  0  0  0  0  0
   30.3232   13.1291   27.4732 H   0  0  0  0  0  0  0  0  0  0  0  0
   29.7913   15.6114   25.7915 H   0  0  0  0  0  0  0  0  0  0  0  0
   29.9202   14.2831   23.1755 H   0  0  0  0  0  0  0  0  0  0  0  0
   29.8278   16.5637   22.8721 H   0  0  0  0  0  0  0  0  0  0  0  0
   31.5978   16.2663   22.7984 H   0  0  0  0  0  0  0  0  0  0  0  0
   31.6877   16.7742   25.2692 H   0  0  0  0  0  0  0  0  0  0  0  0
   29.9725   17.2951   25.1527 H   0  0  0  0  0  0  0  0  0  0  0  0
   30.5830   18.8855   23.3259 H   0  0  0  0  0  0  0  0  0  0  0  0
   32.2988   18.3690   23.4526 H   0  0  0  0  0  0  0  0  0  0  0  0
   30.7822   19.9014   25.5809 H   0  0  0  0  0  0  0  0  0  0  0  0
   34.8388   19.5780   24.8970 H   0  0  0  0  0  0  0  0  0  0  0  0
   33.6807   18.5894   23.9676 H   0  0  0  0  0  0  0  0  0  0  0  0
   32.2476   21.1240   26.8972 H   0  0  0  0  0  0  0  0  0  0  0  0
   34.0089   20.9068   26.7147 H   0  0  0  0  0  0  0  0  0  0  0  0
   34.5907    9.8274   28.2048 H   0  0  0  0  0  0  0  0  0  0  0  0
   33.2251    9.7923   29.3711 H   0  0  0  0  0  0  0  0  0  0  0  0
   34.2409   11.2663   29.2215 H   0  0  0  0  0  0  0  0  0  0  0  0
   30.5982   13.9065   21.9437 H   0  0  0  0  0  0  0  0  0  0  0  0
   31.1562   12.2959   20.0728 H   0  0  0  0  0  0  0  0  0  0  0  0
   30.9113   11.5561   21.6912 H   0  0  0  0  0  0  0  0  0  0  0  0
   33.5586   12.2263   20.3577 H   0  0  0  0  0  0  0  0  0  0  0  0
   34.5984   11.2178   22.3057 H   0  0  0  0  0  0  0  0  0  0  0  0
   32.9904   10.9141   23.0466 H   0  0  0  0  0  0  0  0  0  0  0  0
   33.9209   12.8032   24.1316 H   0  0  0  0  0  0  0  0  0  0  0  0
   34.3627   13.5700   22.5685 H   0  0  0  0  0  0  0  0  0  0  0  0
   32.3357   10.2560   19.4865 H   0  0  0  0  0  0  0  0  0  0  0  0
   32.1720    9.6192   21.1581 H   0  0  0  0  0  0  0  0  0  0  0  0
   33.7971    9.7609   20.4061 H   0  0  0  0  0  0  0  0  0  0  0  0
  1  2  2  0  0  0  0
  1 10  1  0  0  0  0
  1 11  1  0  0  0  0
  2  3  1  0  0  0  0
  2 36  1  0  0  0  0
  3  4  2  0  0  0  0
  3 37  1  0  0  0  0
  4  5  1  0  0  0  0
  4 38  1  0  0  0  0
  5  6  1  0  0  0  0
  5 10  2  0  0  0  0
  6  7  1  0  0  0  0
  6 39  1  0  0  0  0
  6 40  1  0  0  0  0
  7  8  1  0  0  0  0
  7 23  1  0  0  0  0
  7 41  1  6  0  0  0
  8  9  1  0  0  0  0
  8 42  1  0  0  0  0
  8 43  1  0  0  0  0
  9 10  1  0  0  0  0
  9 44  1  0  0  0  0
 11 12  1  0  0  0  0
 11 24  2  0  0  0  0
 11 25  2  0  0  0  0
 12 13  1  0  0  0  0
 12 45  1  0  0  0  0
 13 14  1  0  0  0  0
 13 16  1  0  0  0  0
 13 46  1  6  0  0  0
 14 15  2  0  0  0  0
 14 26  1  0  0  0  0
 16 17  1  0  0  0  0
 16 47  1  0  0  0  0
 16 48  1  0  0  0  0
 17 18  1  0  0  0  0
 17 49  1  0  0  0  0
 17 50  1  0  0  0  0
 18 19  1  0  0  0  0
 18 51  1  0  0  0  0
 18 52  1  0  0  0  0
 19 20  1  0  0  0  0
 19 53  1  0  0  0  0
 20 21  1  0  0  0  0
 20 22  1  0  0  0  0
 21 54  1  0  0  0  0
 21 55  1  0  0  0  0
 22 56  1  0  0  0  0
 22 57  1  0  0  0  0
 23 58  1  0  0  0  0
 23 59  1  0  0  0  0
 23 60  1  0  0  0  0
 26 27  1  0  0  0  0
 26 31  1  0  0  0  0
 27 28  1  0  0  0  0
 27 32  1  0  0  0  0
 27 61  1  1  0  0  0
 28 29  1  0  0  0  0
 28 62  1  0  0  0  0
 28 63  1  0  0  0  0
 29 30  1  0  0  0  0
 29 35  1  0  0  0  0
 29 64  1  6  0  0  0
 30 31  1  0  0  0  0
 30 65  1  0  0  0  0
 30 66  1  0  0  0  0
 31 67  1  0  0  0  0
 31 68  1  0  0  0  0
 32 33  1  0  0  0  0
 32 34  2  0  0  0  0
 35 69  1  0  0  0  0
 35 70  1  0  0  0  0
 35 71  1  0  0  0  0
M  CHG  1  33  -1
M  END
