1dwd_ligand
 OpenBabel08222323343D

 69 72  0  0  1  0  0  0  0  0999 V2000
   33.4730   12.2860   22.0110 N   0  0  0  0  0  0  0  0  0  0  0  0
   33.6900   11.1160   21.1670 C   0  0  0  0  0  0  0  0  0  0  0  0
   32.9400    9.9200   21.7710 C   0  0  0  0  0  0  0  0  0  0  0  0
   33.3310    9.7150   23.2650 C   0  0  0  0  0  0  0  0  0  0  0  0
   33.0510   10.9910   24.0860 C   0  0  0  0  0  0  0  0  0  0  0  0
   33.7560   12.1980   23.4560 C   0  0  0  0  0  0  0  0  0  0  0  0
   31.5060   14.2480   23.1380 N   0  0  0  0  0  0  0  0  0  0  0  0
   32.7930   14.5390   22.4860 C   0  0  1  0  0  0  0  0  0  0  0  0
   32.9780   13.4720   21.4620 C   0  0  0  0  0  0  0  0  0  0  0  0
   32.7440   13.5950   20.2550 O   0  0  0  0  0  0  0  0  0  0  0  0
   32.7220   15.8910   21.7900 C   0  0  0  0  0  0  0  0  0  0  0  0
   32.6760   16.9470   22.8070 C   0  0  0  0  0  0  0  0  0  0  0  0
   33.8380   17.4680   23.3090 C   0  0  0  0  0  0  0  0  0  0  0  0
   31.4630   17.3550   23.2950 C   0  0  0  0  0  0  0  0  0  0  0  0
   33.7800   18.4850   24.2800 C   0  0  0  0  0  0  0  0  0  0  0  0
   31.3820   18.3620   24.2600 C   0  0  0  0  0  0  0  0  0  0  0  0
   32.5450   18.9280   24.7480 C   0  0  0  0  0  0  0  0  0  0  0  0
   29.9850   13.7390   26.3060 N   0  0  0  0  0  0  0  0  0  0  0  0
   30.0460   13.7400   24.8830 C   0  0  0  0  0  0  0  0  0  0  0  0
   31.4080   14.0330   24.4730 C   0  0  0  0  0  0  0  0  0  0  0  0
   32.3780   14.1170   25.2350 O   0  0  0  0  0  0  0  0  0  0  0  0
   29.3410   12.4380   27.0580 S   0  0  0  0  0  0  0  0  0  0  0  0
   28.3630   11.8390   26.1820 O   0  0  0  0  0  0  0  0  0  0  0  0
   29.0620   12.8090   28.4350 O   0  0  0  0  0  0  0  0  0  0  0  0
   30.5070   10.1480   26.3150 C   0  0  0  0  0  0  0  0  0  0  0  0
   30.6400   11.2630   27.1350 C   0  0  0  0  0  0  0  0  0  0  0  0
   31.7270   11.4390   27.9370 C   0  0  0  0  0  0  0  0  0  0  0  0
   32.7410   10.4530   27.9200 C   0  0  0  0  0  0  0  0  0  0  0  0
   32.5820    9.2850   27.1330 C   0  0  0  0  0  0  0  0  0  0  0  0
   31.4640    9.1710   26.3000 C   0  0  0  0  0  0  0  0  0  0  0  0
   33.8930   10.5930   28.7020 C   0  0  0  0  0  0  0  0  0  0  0  0
   34.8520    9.5850   28.6810 C   0  0  0  0  0  0  0  0  0  0  0  0
   34.6900    8.4150   27.8780 C   0  0  0  0  0  0  0  0  0  0  0  0
   33.5680    8.2670   27.1180 C   0  0  0  0  0  0  0  0  0  0  0  0
   32.4750   19.9650   25.7860 C   0  0  0  0  0  3  0  0  0  0  0  0
   31.2960   20.4290   26.2370 N   0  0  0  0  0  0  0  0  0  0  0  0
   33.5310   20.7490   26.0440 N   0  0  0  0  0  0  0  0  0  0  0  0
   34.7655   10.8906   21.1180 H   0  0  0  0  0  0  0  0  0  0  0  0
   33.3107   11.3161   20.1540 H   0  0  0  0  0  0  0  0  0  0  0  0
   33.1944    9.0121   21.2045 H   0  0  0  0  0  0  0  0  0  0  0  0
   31.8574   10.1028   21.7040 H   0  0  0  0  0  0  0  0  0  0  0  0
   34.4025    9.4743   23.3274 H   0  0  0  0  0  0  0  0  0  0  0  0
   32.7435    8.8830   23.6804 H   0  0  0  0  0  0  0  0  0  0  0  0
   33.4212   10.8502   25.1122 H   0  0  0  0  0  0  0  0  0  0  0  0
   31.9670   11.1762   24.1095 H   0  0  0  0  0  0  0  0  0  0  0  0
   33.4030   13.1166   23.9475 H   0  0  0  0  0  0  0  0  0  0  0  0
   34.8413   12.0970   23.6037 H   0  0  0  0  0  0  0  0  0  0  0  0
   30.6779   14.2076   22.5788 H   0  0  0  0  0  0  0  0  0  0  0  0
   33.6144   14.5306   23.2176 H   0  0  0  0  0  0  0  0  0  0  0  0
   31.8166   15.9386   21.1671 H   0  0  0  0  0  0  0  0  0  0  0  0
   33.6107   16.0272   21.1562 H   0  0  0  0  0  0  0  0  0  0  0  0
   34.7963   17.0998   22.9610 H   0  0  0  0  0  0  0  0  0  0  0  0
   30.5547   16.8909   22.9280 H   0  0  0  0  0  0  0  0  0  0  0  0
   34.6947   18.9228   24.6630 H   0  0  0  0  0  0  0  0  0  0  0  0
   30.4166   18.6962   24.6225 H   0  0  0  0  0  0  0  0  0  0  0  0
   30.3283   14.5164   26.8331 H   0  0  0  0  0  0  0  0  0  0  0  0
   29.3667   14.5079   24.4844 H   0  0  0  0  0  0  0  0  0  0  0  0
   29.7488   12.7528   24.4995 H   0  0  0  0  0  0  0  0  0  0  0  0
   29.6339   10.0519   25.6797 H   0  0  0  0  0  0  0  0  0  0  0  0
   31.8127   12.3130   28.5725 H   0  0  0  0  0  0  0  0  0  0  0  0
   31.3567    8.3130   25.6462 H   0  0  0  0  0  0  0  0  0  0  0  0
   34.0364   11.4749   29.3159 H   0  0  0  0  0  0  0  0  0  0  0  0
   35.7435    9.6902   29.2887 H   0  0  0  0  0  0  0  0  0  0  0  0
   35.4560    7.6480   27.8729 H   0  0  0  0  0  0  0  0  0  0  0  0
   33.4315    7.3807   26.5090 H   0  0  0  0  0  0  0  0  0  0  0  0
   31.2736   21.1566   26.9657 H   0  0  0  0  0  0  0  0  0  0  0  0
   30.4154   20.0567   25.8537 H   0  0  0  0  0  0  0  0  0  0  0  0
   34.4710   20.4659   25.7323 H   0  0  0  0  0  0  0  0  0  0  0  0
   33.4025   21.6346   26.5539 H   0  0  0  0  0  0  0  0  0  0  0  0
  1  2  1  0  0  0  0
  1  6  1  0  0  0  0
  2  3  1  0  0  0  0
  2 38  1  0  0  0  0
  2 39  1  0  0  0  0
  3  4  1  0  0  0  0
  3 40  1  0  0  0  0
  3 41  1  0  0  0  0
  4 42  1  0  0  0  0
  4 43  1  0  0  0  0
  5  4  1  0  0  0  0
  5 44  1  0  0  0  0
  5 45  1  0  0  0  0
  6  5  1  0  0  0  0
  6 46  1  0  0  0  0
  6 47  1  0  0  0  0
  7  8  1  0  0  0  0
  7 48  1  0  0  0  0
  8  9  1  0  0  0  0
  8 11  1  0  0  0  0
  8 49  1  1  0  0  0
  9  1  1  0  0  0  0
  9 10  2  0  0  0  0
 11 12  1  0  0  0  0
 11 50  1  0  0  0  0
 11 51  1  0  0  0  0
 12 13  2  0  0  0  0
 12 14  1  0  0  0  0
 13 15  1  0  0  0  0
 13 52  1  0  0  0  0
 14 16  2  0  0  0  0
 14 53  1  0  0  0  0
 15 17  2  0  0  0  0
 15 54  1  0  0  0  0
 16 17  1  0  0  0  0
 16 55  1  0  0  0  0
 17 35  1  0  0  0  0
 18 22  1  0  0  0  0
 18 56  1  0  0  0  0
 19 18  1  0  0  0  0
 19 20  1  0  0  0  0
 19 57  1  0  0  0  0
 19 58  1  0  0  0  0
 20  7  1  0  0  0  0
 20 21  2  0  0  0  0
 22 23  2  0  0  0  0
 22 24  2  0  0  0  0
 22 26  1  0  0  0  0
 25 30  1  0  0  0  0
 25 59  1  0  0  0  0
 26 25  2  0  0  0  0
 26 27  1  0  0  0  0
 27 28  2  0  0  0  0
 27 60  1  0  0  0  0
 28 29  1  0  0  0  0
 28 31  1  0  0  0  0
 29 30  2  0  0  0  0
 29 34  1  0  0  0  0
 30 61  1  0  0  0  0
 31 32  2  0  0  0  0
 31 62  1  0  0  0  0
 32 33  1  0  0  0  0
 32 63  1  0  0  0  0
 33 34  2  0  0  0  0
 33 64  1  0  0  0  0
 34 65  1  0  0  0  0
 35 36  1  0  0  0  0
 35 37  1  0  0  0  0
 36 66  1  0  0  0  0
 36 67  1  0  0  0  0
 37 68  1  0  0  0  0
 37 69  1  0  0  0  0
M  END
