1dxp_ligand
 OpenBabel08222323343D

188187  0  0  1  0  0  0  0  0999 V2000
   -8.8030   14.6150   11.1730 N   0  3  0  0  0  0  0  0  0  0  0  0
   -7.6930   14.7600   10.1630 C   0  0  0  0  0  0  0  0  0  0  0  0
   -6.7720   15.9210   10.5540 C   0  0  0  0  0  0  0  0  0  0  0  0
   -7.2060   17.0700   10.6690 O   0  0  0  0  0  0  0  0  0  0  0  0
   -5.5350   15.6400   10.8980 N   0  0  0  0  0  0  0  0  0  0  0  0
   -4.6070   16.5720   11.5240 C   0  0  2  0  0  0  0  0  0  0  0  0
   -3.6860   17.2890   10.5150 C   0  0  0  0  0  0  0  0  0  0  0  0
   -3.3690   16.6710    9.4700 O   0  0  0  0  0  0  0  0  0  0  0  0
   -3.6700   15.7560   12.4040 C   0  0  0  0  0  0  0  0  0  0  0  0
   -3.9300   15.7970   13.7820 O   0  0  0  0  0  0  0  0  0  0  0  0
   -3.3740   18.5690   10.7370 N   0  0  0  0  0  0  0  0  0  0  0  0
   -2.5120   19.2870    9.7870 C   0  0  2  0  0  0  0  0  0  0  0  0
   -1.0940   18.7280    9.9730 C   0  0  0  0  0  0  0  0  0  0  0  0
   -0.7400   18.3450   11.0830 O   0  0  0  0  0  0  0  0  0  0  0  0
   -2.4550   20.8060    9.9410 C   0  0  0  0  0  0  0  0  0  0  0  0
   -1.5140   21.4390    8.9140 C   0  0  0  0  0  0  0  0  0  0  0  0
   -3.8320   21.4600    9.8030 C   0  0  0  0  0  0  0  0  0  0  0  0
   -0.2730   18.6510    8.9300 N   0  0  0  0  0  0  0  0  0  0  0  0
    1.0440   18.0040    9.0850 C   0  0  2  0  0  0  0  0  0  0  0  0
    2.2040   18.8800    8.6360 C   0  0  0  0  0  0  0  0  0  0  0  0
    2.2290   19.5060    7.5730 O   0  0  0  0  0  0  0  0  0  0  0  0
    1.1240   16.6950    8.2730 C   0  0  0  0  0  0  0  0  0  0  0  0
    2.3670   15.9130    8.6750 C   0  0  0  0  0  0  0  0  0  0  0  0
   -0.1510   15.8590    8.4410 C   0  0  0  0  0  0  0  0  0  0  0  0
    3.1950   19.0080    9.5070 N   0  0  0  0  0  0  0  0  0  0  0  0
    4.4530   19.6540    9.1480 C   0  0  2  0  0  0  0  0  0  0  0  0
    5.1960   18.8210    8.1240 C   0  0  0  0  0  0  0  0  0  0  0  0
    5.8400   17.8570    8.5280 O   0  0  0  0  0  0  0  0  0  0  0  0
    5.3210   19.8700   10.4100 C   0  0  2  0  0  0  0  0  0  0  0  0
    4.5920   20.8970   11.3140 C   0  0  0  0  0  0  0  0  0  0  0  0
    6.6940   20.3560   10.0630 C   0  0  0  0  0  0  0  0  0  0  0  0
    5.4280   21.2250   12.5580 C   0  0  0  0  0  0  0  0  0  0  0  0
    5.1500   19.1500    6.8410 N   0  0  0  0  0  0  0  0  0  0  0  0
    5.8810   18.4200    5.8150 C   0  0  2  0  0  0  0  0  0  0  0  0
    7.2460   19.0070    5.4980 C   0  0  0  0  0  0  0  0  0  0  0  0
    7.9300   18.4900    4.6230 O   0  0  0  0  0  0  0  0  0  0  0  0
    5.1450   18.3410    4.4500 C   0  0  0  0  0  0  0  0  0  0  0  0
    3.7340   17.8230    4.7090 C   0  0  0  0  0  0  0  0  0  0  0  0
    5.0740   19.6490    3.7190 C   0  0  0  0  0  0  0  0  0  0  0  0
    7.6700   20.0720    6.1620 N   0  0  0  0  0  0  0  0  0  0  0  0
    8.9980   20.6240    5.9280 C   0  0  0  0  0  0  0  0  0  0  0  0
    9.1230   21.9680    6.6320 C   0  0  0  0  0  0  0  0  0  0  0  0
    8.1360   22.3630    7.2070 O   0  0  0  0  0  0  0  0  0  0  0  0
   10.2280   22.6830    6.5060 N   0  0  0  0  0  0  0  0  0  0  0  0
   10.4670   23.9090    7.2330 C   0  0  2  0  0  0  0  0  0  0  0  0
   11.3990   24.8720    6.4840 C   0  0  0  0  0  0  0  0  0  0  0  0
   12.1500   24.5460    5.5690 O   0  0  0  0  0  0  0  0  0  0  0  0
   11.0250   23.6490    8.6190 C   0  0  0  0  0  0  0  0  0  0  0  0
   12.5370   23.4060    8.7000 C   0  0  0  0  0  0  0  0  0  0  0  0
   12.8200   21.9630    8.3080 C   0  0  0  0  0  0  0  0  0  0  0  0
   13.9970   21.4490    8.9750 N   0  0  0  0  0  0  0  0  0  0  0  0
   14.1820   20.8030   10.1110 C   0  0  0  0  0  3  0  0  0  0  0  0
   13.2160   20.4520   10.9630 N   0  0  0  0  0  0  0  0  0  0  0  0
   15.4650   20.5140   10.3460 N   0  0  0  0  0  0  0  0  0  0  0  0
   11.3110   26.1340    6.8920 N   0  0  0  0  0  0  0  0  0  0  0  0
   12.0610   27.2280    6.2990 C   0  0  2  0  0  0  0  0  0  0  0  0
   12.8880   27.9260    7.3770 C   0  0  0  0  0  0  0  0  0  0  0  0
   12.3900   28.3740    8.3990 O   0  0  0  0  0  0  0  0  0  0  0  0
   11.2270   28.2810    5.5470 C   0  0  2  0  0  0  0  0  0  0  0  0
   10.6260   27.6560    4.2770 C   0  0  0  0  0  0  0  0  0  0  0  0
   12.1350   29.4470    5.1680 C   0  0  0  0  0  0  0  0  0  0  0  0
    9.3390   28.3370    3.8640 C   0  0  0  0  0  0  0  0  0  0  0  0
   14.1960   27.8670    7.1620 N   0  0  0  0  0  0  0  0  0  0  0  0
   15.1670   28.4420    8.0840 C   0  0  2  0  0  0  0  0  0  0  0  0
   15.5590   29.8720    7.7070 C   0  0  0  0  0  0  0  0  0  0  0  0
   15.9540   30.2390    6.5920 O   0  0  0  0  0  0  0  0  0  0  0  0
   16.4430   27.5790    8.1070 C   0  0  2  0  0  0  0  0  0  0  0  0
   16.0600   26.1400    8.4760 C   0  0  0  0  0  0  0  0  0  0  0  0
   17.4870   28.1890    9.0330 C   0  0  0  0  0  0  0  0  0  0  0  0
   15.3140   26.0480    9.7820 C   0  0  0  0  0  0  0  0  0  0  0  0
   15.4340   30.7540    8.6940 N   0  0  0  0  0  0  0  0  0  0  0  0
   15.6010   32.1840    8.4780 C   0  0  2  0  0  0  0  0  0  0  0  0
   16.9390   32.7720    8.9120 C   0  0  0  0  0  0  0  0  0  0  0  0
   17.6020   32.4520    9.8920 O   0  0  0  0  0  0  0  0  0  0  0  0
   14.4890   32.9870    9.1530 C   0  0  0  0  0  0  0  0  0  0  0  0
   13.6170   33.8500    8.2430 C   0  0  0  0  0  0  0  0  0  0  0  0
   13.2600   33.1720    6.9330 C   0  0  0  0  0  0  0  0  0  0  0  0
   12.3520   34.2390    8.9980 C   0  0  0  0  0  0  0  0  0  0  0  0
   17.3380   33.7510    8.1040 N   0  0  0  0  0  0  0  0  0  0  0  0
   18.7140   34.2360    8.1000 C   0  0  2  0  0  0  0  0  0  0  0  0
   18.8090   35.7610    8.1090 C   0  0  0  0  0  0  0  0  0  0  0  0
   18.4150   36.3390    7.0700 O   0  0  0  0  0  0  0  0  0  0  0  0
   19.4510   33.7340    6.8570 C   0  0  0  0  0  0  0  0  0  0  0  0
   20.8430   33.9260    6.9830 O   0  0  0  0  0  0  0  0  0  0  0  0
   19.2808   36.4330    9.1553 O   0  0  0  0  0  0  0  0  0  0  0  0
   -9.4020   13.8494   10.9063 H   0  0  0  0  0  0  0  0  0  0  0  0
   -9.3409   15.4668   11.2057 H   0  0  0  0  0  0  0  0  0  0  0  0
   -8.4082   14.4317   12.0822 H   0  0  0  0  0  0  0  0  0  0  0  0
   -8.1269   14.9580    9.1718 H   0  0  0  0  0  0  0  0  0  0  0  0
   -7.1090   13.8285   10.1282 H   0  0  0  0  0  0  0  0  0  0  0  0
   -5.2051   14.7138   10.7157 H   0  0  0  0  0  0  0  0  0  0  0  0
   -5.1678   17.3113   12.1146 H   0  0  0  0  0  0  0  0  0  0  0  0
   -2.6475   16.1284   12.2431 H   0  0  0  0  0  0  0  0  0  0  0  0
   -3.7332   14.7065   12.0806 H   0  0  0  0  0  0  0  0  0  0  0  0
   -3.8667   16.6939   14.0885 H   0  0  0  0  0  0  0  0  0  0  0  0
   -3.7260   19.0375   11.5474 H   0  0  0  0  0  0  0  0  0  0  0  0
   -2.8670   19.0662    8.7695 H   0  0  0  0  0  0  0  0  0  0  0  0
   -2.0692   21.0248   10.9476 H   0  0  0  0  0  0  0  0  0  0  0  0
   -1.4983   22.5299    9.0546 H   0  0  0  0  0  0  0  0  0  0  0  0
   -1.8681   21.2052    7.8991 H   0  0  0  0  0  0  0  0  0  0  0  0
   -0.4991   21.0372    9.0499 H   0  0  0  0  0  0  0  0  0  0  0  0
   -4.5234   21.0168   10.5348 H   0  0  0  0  0  0  0  0  0  0  0  0
   -4.2173   21.2924    8.7864 H   0  0  0  0  0  0  0  0  0  0  0  0
   -3.7449   22.5407    9.9886 H   0  0  0  0  0  0  0  0  0  0  0  0
   -0.5465   19.0294    8.0457 H   0  0  0  0  0  0  0  0  0  0  0  0
    1.1769   17.7700   10.1516 H   0  0  0  0  0  0  0  0  0  0  0  0
    1.2158   16.9572    7.2087 H   0  0  0  0  0  0  0  0  0  0  0  0
    2.4182   14.9812    8.0927 H   0  0  0  0  0  0  0  0  0  0  0  0
    2.3183   15.6730    9.7474 H   0  0  0  0  0  0  0  0  0  0  0  0
    3.2625   16.5198    8.4753 H   0  0  0  0  0  0  0  0  0  0  0  0
   -1.0239   16.4574    8.1412 H   0  0  0  0  0  0  0  0  0  0  0  0
   -0.2565   15.5587    9.4939 H   0  0  0  0  0  0  0  0  0  0  0  0
   -0.0870   14.9615    7.8083 H   0  0  0  0  0  0  0  0  0  0  0  0
    3.0773   18.6526   10.4343 H   0  0  0  0  0  0  0  0  0  0  0  0
    4.2300   20.6357    8.7046 H   0  0  0  0  0  0  0  0  0  0  0  0
    5.4151   18.9153   10.9482 H   0  0  0  0  0  0  0  0  0  0  0  0
    3.6262   20.4761   11.6304 H   0  0  0  0  0  0  0  0  0  0  0  0
    4.4198   21.8209   10.7425 H   0  0  0  0  0  0  0  0  0  0  0  0
    7.1942   19.6149    9.4223 H   0  0  0  0  0  0  0  0  0  0  0  0
    7.2771   20.4966   10.9850 H   0  0  0  0  0  0  0  0  0  0  0  0
    6.6194   21.3135    9.5267 H   0  0  0  0  0  0  0  0  0  0  0  0
    4.8886   21.9542   13.1804 H   0  0  0  0  0  0  0  0  0  0  0  0
    6.3941   21.6505   12.2488 H   0  0  0  0  0  0  0  0  0  0  0  0
    5.6006   20.3056   13.1367 H   0  0  0  0  0  0  0  0  0  0  0  0
    4.5902   19.9318    6.5663 H   0  0  0  0  0  0  0  0  0  0  0  0
    6.0216   17.3968    6.1936 H   0  0  0  0  0  0  0  0  0  0  0  0
    5.6808   17.6242    3.8104 H   0  0  0  0  0  0  0  0  0  0  0  0
    3.1873   17.7565    3.7568 H   0  0  0  0  0  0  0  0  0  0  0  0
    3.2087   18.5127    5.3859 H   0  0  0  0  0  0  0  0  0  0  0  0
    3.7884   16.8262    5.1710 H   0  0  0  0  0  0  0  0  0  0  0  0
    6.0924   20.0209    3.5332 H   0  0  0  0  0  0  0  0  0  0  0  0
    4.5222   20.3800    4.3282 H   0  0  0  0  0  0  0  0  0  0  0  0
    4.5554   19.5052    2.7596 H   0  0  0  0  0  0  0  0  0  0  0  0
    7.0691   20.5040    6.8345 H   0  0  0  0  0  0  0  0  0  0  0  0
    9.1526   20.7608    4.8476 H   0  0  0  0  0  0  0  0  0  0  0  0
    9.7569   19.9322    6.3223 H   0  0  0  0  0  0  0  0  0  0  0  0
   10.9339   22.3592    5.8760 H   0  0  0  0  0  0  0  0  0  0  0  0
    9.4949   24.4101    7.3507 H   0  0  0  0  0  0  0  0  0  0  0  0
   10.5191   22.7603    9.0243 H   0  0  0  0  0  0  0  0  0  0  0  0
   10.7904   24.5221    9.2456 H   0  0  0  0  0  0  0  0  0  0  0  0
   12.8865   23.5860    9.7273 H   0  0  0  0  0  0  0  0  0  0  0  0
   13.0588   24.0861    8.0107 H   0  0  0  0  0  0  0  0  0  0  0  0
   12.9761   21.9129    7.2203 H   0  0  0  0  0  0  0  0  0  0  0  0
   11.9545   21.3423    8.5832 H   0  0  0  0  0  0  0  0  0  0  0  0
   14.8698   21.6231    8.4566 H   0  0  0  0  0  0  0  0  0  0  0  0
   13.4518   19.9477   11.8296 H   0  0  0  0  0  0  0  0  0  0  0  0
   12.2349   20.6854   10.7537 H   0  0  0  0  0  0  0  0  0  0  0  0
   16.1889   20.7976    9.6704 H   0  0  0  0  0  0  0  0  0  0  0  0
   15.7303   20.0076   11.2028 H   0  0  0  0  0  0  0  0  0  0  0  0
   10.6934   26.3423    7.6504 H   0  0  0  0  0  0  0  0  0  0  0  0
   12.7524   26.7829    5.5684 H   0  0  0  0  0  0  0  0  0  0  0  0
   10.4154   28.6414    6.1962 H   0  0  0  0  0  0  0  0  0  0  0  0
   10.4195   26.5926    4.4681 H   0  0  0  0  0  0  0  0  0  0  0  0
   11.3544   27.7467    3.4577 H   0  0  0  0  0  0  0  0  0  0  0  0
   12.5622   29.8904    6.0796 H   0  0  0  0  0  0  0  0  0  0  0  0
   11.5501   30.2074    4.6299 H   0  0  0  0  0  0  0  0  0  0  0  0
   12.9475   29.0839    4.5214 H   0  0  0  0  0  0  0  0  0  0  0  0
    8.9466   27.8586    2.9545 H   0  0  0  0  0  0  0  0  0  0  0  0
    9.5349   29.4007    3.6634 H   0  0  0  0  0  0  0  0  0  0  0  0
    8.6001   28.2466    4.6738 H   0  0  0  0  0  0  0  0  0  0  0  0
   14.5279   27.4108    6.3363 H   0  0  0  0  0  0  0  0  0  0  0  0
   14.7223   28.4543    9.0900 H   0  0  0  0  0  0  0  0  0  0  0  0
   16.8700   27.5638    7.0934 H   0  0  0  0  0  0  0  0  0  0  0  0
   16.9794   25.5412    8.5541 H   0  0  0  0  0  0  0  0  0  0  0  0
   15.4226   25.7309    7.6783 H   0  0  0  0  0  0  0  0  0  0  0  0
   17.7101   29.2159    8.7080 H   0  0  0  0  0  0  0  0  0  0  0  0
   18.4060   27.5855    8.9976 H   0  0  0  0  0  0  0  0  0  0  0  0
   17.0990   28.2063   10.0621 H   0  0  0  0  0  0  0  0  0  0  0  0
   15.0684   24.9963    9.9907 H   0  0  0  0  0  0  0  0  0  0  0  0
   14.3861   26.6351    9.7164 H   0  0  0  0  0  0  0  0  0  0  0  0
   15.9429   26.4454   10.5923 H   0  0  0  0  0  0  0  0  0  0  0  0
   15.2186   30.4249    9.6134 H   0  0  0  0  0  0  0  0  0  0  0  0
   15.5189   32.3428    7.3926 H   0  0  0  0  0  0  0  0  0  0  0  0
   14.9596   33.6520    9.8922 H   0  0  0  0  0  0  0  0  0  0  0  0
   13.8290   32.2741    9.6688 H   0  0  0  0  0  0  0  0  0  0  0  0
   14.1780   34.7654    8.0037 H   0  0  0  0  0  0  0  0  0  0  0  0
   12.6342   33.8462    6.3298 H   0  0  0  0  0  0  0  0  0  0  0  0
   12.7061   32.2443    7.1393 H   0  0  0  0  0  0  0  0  0  0  0  0
   14.1808   32.9341    6.3803 H   0  0  0  0  0  0  0  0  0  0  0  0
   12.6257   34.7287    9.9442 H   0  0  0  0  0  0  0  0  0  0  0  0
   11.7595   33.3368    9.2101 H   0  0  0  0  0  0  0  0  0  0  0  0
   11.7576   34.9323    8.3849 H   0  0  0  0  0  0  0  0  0  0  0  0
   16.6752   34.1666    7.4811 H   0  0  0  0  0  0  0  0  0  0  0  0
   19.2157   33.8476    8.9986 H   0  0  0  0  0  0  0  0  0  0  0  0
   19.0899   34.2864    5.9770 H   0  0  0  0  0  0  0  0  0  0  0  0
   19.2462   32.6612    6.7260 H   0  0  0  0  0  0  0  0  0  0  0  0
   21.1603   33.4477    7.7400 H   0  0  0  0  0  0  0  0  0  0  0  0
   18.6098   37.0211    9.4813 H   0  0  0  0  0  0  0  0  0  0  0  0
  1 86  1  0  0  0  0
  1 87  1  0  0  0  0
  1 88  1  0  0  0  0
  2  1  1  0  0  0  0
  2 89  1  0  0  0  0
  2 90  1  0  0  0  0
  3  2  1  0  0  0  0
  3  4  2  0  0  0  0
  5  3  1  0  0  0  0
  5 91  1  0  0  0  0
  6  5  1  0  0  0  0
  6  9  1  0  0  0  0
  6 92  1  1  0  0  0
  7  6  1  0  0  0  0
  7  8  2  0  0  0  0
  9 10  1  0  0  0  0
  9 93  1  0  0  0  0
  9 94  1  0  0  0  0
 10 95  1  0  0  0  0
 11  7  1  0  0  0  0
 11 96  1  0  0  0  0
 12 11  1  0  0  0  0
 12 15  1  0  0  0  0
 12 97  1  6  0  0  0
 13 12  1  0  0  0  0
 13 14  2  0  0  0  0
 15 17  1  0  0  0  0
 15 16  1  0  0  0  0
 15 98  1  0  0  0  0
 16 99  1  0  0  0  0
 16100  1  0  0  0  0
 16101  1  0  0  0  0
 17102  1  0  0  0  0
 17103  1  0  0  0  0
 17104  1  0  0  0  0
 18 13  1  0  0  0  0
 18105  1  0  0  0  0
 19 18  1  0  0  0  0
 19 22  1  0  0  0  0
 19106  1  1  0  0  0
 20 19  1  0  0  0  0
 20 21  2  0  0  0  0
 22 24  1  0  0  0  0
 22 23  1  0  0  0  0
 22107  1  0  0  0  0
 23108  1  0  0  0  0
 23109  1  0  0  0  0
 23110  1  0  0  0  0
 24111  1  0  0  0  0
 24112  1  0  0  0  0
 24113  1  0  0  0  0
 25 20  1  0  0  0  0
 25114  1  0  0  0  0
 26 25  1  0  0  0  0
 26 29  1  0  0  0  0
 26115  1  6  0  0  0
 27 26  1  0  0  0  0
 27 28  2  0  0  0  0
 29 31  1  0  0  0  0
 29 30  1  0  0  0  0
 29116  1  1  0  0  0
 30 32  1  0  0  0  0
 30117  1  0  0  0  0
 30118  1  0  0  0  0
 31119  1  0  0  0  0
 31120  1  0  0  0  0
 31121  1  0  0  0  0
 32122  1  0  0  0  0
 32123  1  0  0  0  0
 32124  1  0  0  0  0
 33 27  1  0  0  0  0
 33125  1  0  0  0  0
 34 33  1  0  0  0  0
 34 37  1  0  0  0  0
 34126  1  1  0  0  0
 35 34  1  0  0  0  0
 35 36  2  0  0  0  0
 37 39  1  0  0  0  0
 37 38  1  0  0  0  0
 37127  1  0  0  0  0
 38128  1  0  0  0  0
 38129  1  0  0  0  0
 38130  1  0  0  0  0
 39131  1  0  0  0  0
 39132  1  0  0  0  0
 39133  1  0  0  0  0
 40 35  1  0  0  0  0
 40134  1  0  0  0  0
 41 40  1  0  0  0  0
 41135  1  0  0  0  0
 41136  1  0  0  0  0
 42 41  1  0  0  0  0
 42 43  2  0  0  0  0
 44 42  1  0  0  0  0
 44137  1  0  0  0  0
 45 44  1  0  0  0  0
 45 48  1  0  0  0  0
 45138  1  1  0  0  0
 46 45  1  0  0  0  0
 46 47  2  0  0  0  0
 48 49  1  0  0  0  0
 48139  1  0  0  0  0
 48140  1  0  0  0  0
 49 50  1  0  0  0  0
 49141  1  0  0  0  0
 49142  1  0  0  0  0
 50 51  1  0  0  0  0
 50143  1  0  0  0  0
 50144  1  0  0  0  0
 51 52  1  0  0  0  0
 51145  1  0  0  0  0
 52 54  1  0  0  0  0
 52 53  1  0  0  0  0
 53146  1  0  0  0  0
 53147  1  0  0  0  0
 54148  1  0  0  0  0
 54149  1  0  0  0  0
 55 46  1  0  0  0  0
 55150  1  0  0  0  0
 56 55  1  0  0  0  0
 56 59  1  0  0  0  0
 56151  1  6  0  0  0
 57 56  1  0  0  0  0
 57 58  2  0  0  0  0
 59 61  1  0  0  0  0
 59 60  1  0  0  0  0
 59152  1  1  0  0  0
 60 62  1  0  0  0  0
 60153  1  0  0  0  0
 60154  1  0  0  0  0
 61155  1  0  0  0  0
 61156  1  0  0  0  0
 61157  1  0  0  0  0
 62158  1  0  0  0  0
 62159  1  0  0  0  0
 62160  1  0  0  0  0
 63 57  1  0  0  0  0
 63161  1  0  0  0  0
 64 63  1  0  0  0  0
 64 67  1  0  0  0  0
 64162  1  1  0  0  0
 65 64  1  0  0  0  0
 65 66  2  0  0  0  0
 67 69  1  0  0  0  0
 67 68  1  0  0  0  0
 67163  1  6  0  0  0
 68 70  1  0  0  0  0
 68164  1  0  0  0  0
 68165  1  0  0  0  0
 69166  1  0  0  0  0
 69167  1  0  0  0  0
 69168  1  0  0  0  0
 70169  1  0  0  0  0
 70170  1  0  0  0  0
 70171  1  0  0  0  0
 71 65  1  0  0  0  0
 71172  1  0  0  0  0
 72 71  1  0  0  0  0
 72 75  1  0  0  0  0
 72173  1  6  0  0  0
 73 72  1  0  0  0  0
 73 74  2  0  0  0  0
 73 79  1  0  0  0  0
 75 76  1  0  0  0  0
 75174  1  0  0  0  0
 75175  1  0  0  0  0
 76 77  1  0  0  0  0
 76 78  1  0  0  0  0
 76176  1  0  0  0  0
 77177  1  0  0  0  0
 77178  1  0  0  0  0
 77179  1  0  0  0  0
 78180  1  0  0  0  0
 78181  1  0  0  0  0
 78182  1  0  0  0  0
 79 80  1  0  0  0  0
 79183  1  0  0  0  0
 80 83  1  0  0  0  0
 80 81  1  0  0  0  0
 80184  1  1  0  0  0
 81 82  2  0  0  0  0
 81 85  1  0  0  0  0
 83 84  1  0  0  0  0
 83185  1  0  0  0  0
 83186  1  0  0  0  0
 84187  1  0  0  0  0
 85188  1  0  0  0  0
M  CHG  1   1   1
M  END
