1dzj_ligand
 OpenBabel08222323343D

 31 31  0  0  0  0  0  0  0  0999 V2000
    2.9710   26.0680   12.4140 C   0  0  0  0  0  0  0  0  0  0  0  0
    2.5240   26.4140   10.9970 C   0  0  0  0  0  0  0  0  0  0  0  0
    1.1060   26.9660   11.0290 C   0  0  0  0  0  0  0  0  0  0  0  0
    0.1530   25.9620   11.6730 C   0  0  0  0  0  0  0  0  0  0  0  0
    0.1960   27.1630   15.5320 C   0  0  0  0  0  0  0  0  0  0  0  0
   -0.0080   25.7390   15.0230 C   0  0  0  0  0  0  0  0  0  0  0  0
   -1.4800   25.4930   14.6900 C   0  0  0  0  0  0  0  0  0  0  0  0
   -1.6270   27.6650   11.6020 N   0  0  0  0  0  0  0  0  0  0  0  0
   -2.7270   28.1160   12.2280 C   0  0  0  0  0  0  0  0  0  0  0  0
   -3.3410   29.1710   11.7080 N   0  0  0  0  0  0  0  0  0  0  0  0
   -3.4050   27.2700   13.8150 S   0  0  0  0  0  0  0  0  0  0  0  0
   -1.9090   26.1760   13.4140 C   0  0  0  0  0  0  0  0  0  0  0  0
   -1.0960   26.6040   12.2330 C   0  0  0  0  0  0  0  0  0  0  0  0
    3.9959   25.6694   12.3881 H   0  0  0  0  0  0  0  0  0  0  0  0
    2.2940   25.3116   12.8377 H   0  0  0  0  0  0  0  0  0  0  0  0
    2.9455   26.9735   13.0380 H   0  0  0  0  0  0  0  0  0  0  0  0
    2.5501   25.5082   10.3735 H   0  0  0  0  0  0  0  0  0  0  0  0
    3.2016   27.1701   10.5738 H   0  0  0  0  0  0  0  0  0  0  0  0
    0.7744   27.1706   10.0003 H   0  0  0  0  0  0  0  0  0  0  0  0
    1.0945   27.8996   11.6106 H   0  0  0  0  0  0  0  0  0  0  0  0
    0.6821   25.4529   12.4920 H   0  0  0  0  0  0  0  0  0  0  0  0
   -0.1435   25.2239   10.9132 H   0  0  0  0  0  0  0  0  0  0  0  0
    1.2594   27.3200   15.7657 H   0  0  0  0  0  0  0  0  0  0  0  0
   -0.4056   27.3176   16.4398 H   0  0  0  0  0  0  0  0  0  0  0  0
   -0.1186   27.8779   14.7574 H   0  0  0  0  0  0  0  0  0  0  0  0
    0.3107   25.0282   15.7996 H   0  0  0  0  0  0  0  0  0  0  0  0
    0.5977   25.5884   14.1172 H   0  0  0  0  0  0  0  0  0  0  0  0
   -2.0967   25.8735   15.5176 H   0  0  0  0  0  0  0  0  0  0  0  0
   -1.6403   24.4102   14.5809 H   0  0  0  0  0  0  0  0  0  0  0  0
   -2.9684   29.6161   10.8572 H   0  0  0  0  0  0  0  0  0  0  0  0
   -4.1902   29.5449   12.1552 H   0  0  0  0  0  0  0  0  0  0  0  0
  1 14  1  0  0  0  0
  1 15  1  0  0  0  0
  1 16  1  0  0  0  0
  2  1  1  0  0  0  0
  2 17  1  0  0  0  0
  2 18  1  0  0  0  0
  3  2  1  0  0  0  0
  3 19  1  0  0  0  0
  3 20  1  0  0  0  0
  4  3  1  0  0  0  0
  4 21  1  0  0  0  0
  4 22  1  0  0  0  0
  5 23  1  0  0  0  0
  5 24  1  0  0  0  0
  5 25  1  0  0  0  0
  6  5  1  0  0  0  0
  6 26  1  0  0  0  0
  6 27  1  0  0  0  0
  7  6  1  0  0  0  0
  7 28  1  0  0  0  0
  7 29  1  0  0  0  0
  8 13  1  0  0  0  0
  9  8  2  0  0  0  0
  9 10  1  0  0  0  0
 10 30  1  0  0  0  0
 10 31  1  0  0  0  0
 11  9  1  0  0  0  0
 11 12  1  0  0  0  0
 12  7  1  0  0  0  0
 12 13  2  0  0  0  0
 13  4  1  0  0  0  0
M  END
