1dzm_ligand
 OpenBabel08222323343D

 28 29  0  0  0  0  0  0  0  0999 V2000
    0.5310   26.5430   13.7460 C   0  0  0  0  0  0  0  0  0  0  0  0
    1.3670   27.4410   13.0120 O   0  0  0  0  0  0  0  0  0  0  0  0
    1.9880   26.8410   11.9100 C   0  0  0  0  0  0  0  0  0  0  0  0
    2.9730   27.3650   11.4550 O   0  0  0  0  0  0  0  0  0  0  0  0
    1.4600   25.5900   11.3090 C   0  0  0  0  0  0  0  0  0  0  0  0
    2.1290   25.0460   10.2240 C   0  0  0  0  0  0  0  0  0  0  0  0
    0.3250   25.0120   11.8560 C   0  0  0  0  0  0  0  0  0  0  0  0
    1.6400   23.8820    9.6670 C   0  0  0  0  0  0  0  0  0  0  0  0
   -0.1430   23.8500   11.2800 C   0  0  0  0  0  0  0  0  0  0  0  0
    0.5220   23.2930   10.2070 C   0  0  0  0  0  0  0  0  0  0  0  0
   -0.9560   26.7620   13.7280 C   0  0  0  0  0  0  0  0  0  0  0  0
   -1.8470   25.7220   13.9230 C   0  0  0  0  0  0  0  0  0  0  0  0
   -1.4350   28.0440   13.5080 C   0  0  0  0  0  0  0  0  0  0  0  0
   -3.2050   25.9830   13.9010 C   0  0  0  0  0  0  0  0  0  0  0  0
   -2.7960   28.3050   13.4860 C   0  0  0  0  0  0  0  0  0  0  0  0
   -3.6880   27.2660   13.6850 C   0  0  0  0  0  0  0  0  0  0  0  0
    0.7142   25.5334   13.3497 H   0  0  0  0  0  0  0  0  0  0  0  0
    0.8521   26.5882   14.7971 H   0  0  0  0  0  0  0  0  0  0  0  0
    3.0154   25.5236    9.8224 H   0  0  0  0  0  0  0  0  0  0  0  0
   -0.1771   25.4580   12.7069 H   0  0  0  0  0  0  0  0  0  0  0  0
    2.1335   23.4361    8.8110 H   0  0  0  0  0  0  0  0  0  0  0  0
   -1.0347   23.3733   11.6707 H   0  0  0  0  0  0  0  0  0  0  0  0
    0.1533   22.3677    9.7793 H   0  0  0  0  0  0  0  0  0  0  0  0
   -1.4850   24.7141   14.0911 H   0  0  0  0  0  0  0  0  0  0  0  0
   -0.7338   28.8555   13.3506 H   0  0  0  0  0  0  0  0  0  0  0  0
   -3.9053   25.1701   14.0554 H   0  0  0  0  0  0  0  0  0  0  0  0
   -3.1579   29.3124   13.3147 H   0  0  0  0  0  0  0  0  0  0  0  0
   -4.7557   27.4528   13.6723 H   0  0  0  0  0  0  0  0  0  0  0  0
  1 11  1  0  0  0  0
  1  2  1  0  0  0  0
  1 17  1  0  0  0  0
  1 18  1  0  0  0  0
  2  3  1  0  0  0  0
  3  5  1  0  0  0  0
  3  4  2  0  0  0  0
  5  7  2  0  0  0  0
  5  6  1  0  0  0  0
  6  8  2  0  0  0  0
  6 19  1  0  0  0  0
  7 20  1  0  0  0  0
  8 10  1  0  0  0  0
  8 21  1  0  0  0  0
  9  7  1  0  0  0  0
  9 22  1  0  0  0  0
 10  9  2  0  0  0  0
 10 23  1  0  0  0  0
 11 13  2  0  0  0  0
 11 12  1  0  0  0  0
 12 14  2  0  0  0  0
 12 24  1  0  0  0  0
 13 25  1  0  0  0  0
 14 16  1  0  0  0  0
 14 26  1  0  0  0  0
 15 13  1  0  0  0  0
 15 27  1  0  0  0  0
 16 15  2  0  0  0  0
 16 28  1  0  0  0  0
M  END
