1e00_ligand
 OpenBabel08222323343D

 33 32  0  0  1  0  0  0  0  0999 V2000
    1.3800   23.8270    9.5580 C   0  0  0  0  0  0  0  0  0  0  0  0
    1.7000   24.4500   10.8050 C   0  0  0  0  0  0  0  0  0  0  0  0
    1.4410   25.9270   10.9740 C   0  0  1  0  0  0  0  0  0  0  0  0
    0.5910   26.2120   12.2120 C   0  0  0  0  0  0  0  0  0  0  0  0
   -0.8610   26.3940   11.8790 C   0  0  0  0  0  0  0  0  0  0  0  0
   -1.5420   27.4100   12.8070 C   0  0  0  0  0  0  0  0  0  0  0  0
   -2.3440   26.7260   13.8750 C   0  0  0  0  0  0  0  0  0  0  0  0
   -1.6250   26.9260   15.1760 C   0  0  0  0  0  0  0  0  0  0  0  0
   -2.3040   25.2650   13.5640 C   0  0  0  0  0  0  0  0  0  0  0  0
    2.7700   26.5980   11.0990 C   0  0  0  0  0  0  0  0  0  0  0  0
   -3.7730   27.1630   14.0030 O   0  0  0  0  0  0  0  0  0  0  0  0
    1.6305   22.7571    9.6078 H   0  0  0  0  0  0  0  0  0  0  0  0
    1.9584   24.3018    8.7518 H   0  0  0  0  0  0  0  0  0  0  0  0
    0.3051   23.9428    9.3554 H   0  0  0  0  0  0  0  0  0  0  0  0
    2.7742   24.2894   10.9790 H   0  0  0  0  0  0  0  0  0  0  0  0
    1.1209   23.9305   11.5826 H   0  0  0  0  0  0  0  0  0  0  0  0
    0.9149   26.3091   10.0868 H   0  0  0  0  0  0  0  0  0  0  0  0
    0.9614   27.1303   12.6912 H   0  0  0  0  0  0  0  0  0  0  0  0
    0.6902   25.3682   12.9106 H   0  0  0  0  0  0  0  0  0  0  0  0
   -1.3720   25.4249   11.9778 H   0  0  0  0  0  0  0  0  0  0  0  0
   -0.9454   26.7490   10.8413 H   0  0  0  0  0  0  0  0  0  0  0  0
   -2.2111   28.0472   12.2101 H   0  0  0  0  0  0  0  0  0  0  0  0
   -0.7704   28.0330   13.2829 H   0  0  0  0  0  0  0  0  0  0  0  0
   -2.1869   26.4357   15.9846 H   0  0  0  0  0  0  0  0  0  0  0  0
   -1.5421   28.0023   15.3875 H   0  0  0  0  0  0  0  0  0  0  0  0
   -0.6187   26.4866   15.1102 H   0  0  0  0  0  0  0  0  0  0  0  0
   -2.8237   25.0783   12.6127 H   0  0  0  0  0  0  0  0  0  0  0  0
   -2.8013   24.7049   14.3695 H   0  0  0  0  0  0  0  0  0  0  0  0
   -1.2576   24.9363   13.4808 H   0  0  0  0  0  0  0  0  0  0  0  0
    3.3731   26.3866   10.2037 H   0  0  0  0  0  0  0  0  0  0  0  0
    3.2906   26.2173   11.9900 H   0  0  0  0  0  0  0  0  0  0  0  0
    2.6248   27.6841   11.1952 H   0  0  0  0  0  0  0  0  0  0  0  0
   -4.2185   27.0321   13.1742 H   0  0  0  0  0  0  0  0  0  0  0  0
  1  2  1  0  0  0  0
  1 12  1  0  0  0  0
  1 13  1  0  0  0  0
  1 14  1  0  0  0  0
  2  3  1  0  0  0  0
  2 15  1  0  0  0  0
  2 16  1  0  0  0  0
  3  4  1  0  0  0  0
  3 10  1  0  0  0  0
  3 17  1  6  0  0  0
  4  5  1  0  0  0  0
  4 18  1  0  0  0  0
  4 19  1  0  0  0  0
  5  6  1  0  0  0  0
  5 20  1  0  0  0  0
  5 21  1  0  0  0  0
  6  7  1  0  0  0  0
  6 22  1  0  0  0  0
  6 23  1  0  0  0  0
  7  8  1  0  0  0  0
  7  9  1  0  0  0  0
  7 11  1  0  0  0  0
  8 24  1  0  0  0  0
  8 25  1  0  0  0  0
  8 26  1  0  0  0  0
  9 27  1  0  0  0  0
  9 28  1  0  0  0  0
  9 29  1  0  0  0  0
 10 30  1  0  0  0  0
 10 31  1  0  0  0  0
 10 32  1  0  0  0  0
 11 33  1  0  0  0  0
M  END
