1e02_ligand
 OpenBabel08222323343D

 34 33  0  0  0  0  0  0  0  0999 V2000
   -0.3830   26.7480   10.7750 C   0  0  0  0  0  0  0  0  0  0  0  0
    0.6160   25.5470   10.8870 C   0  0  0  0  0  0  0  0  0  0  0  0
    1.9160   25.9320   11.4160 C   0  0  0  0  0  0  0  0  0  0  0  0
    2.0120   27.3970   11.6870 C   0  0  0  0  0  0  0  0  0  0  0  0
    3.1190   27.8660   12.8070 C   0  0  0  0  0  0  0  0  0  0  0  0
    2.6120   28.1040   14.2600 C   0  0  0  0  0  0  0  0  0  0  0  0
    1.1560   27.7040   14.4190 C   0  0  0  0  0  0  0  0  0  0  0  0
    0.3270   28.9690   14.8550 C   0  0  0  0  0  0  0  0  0  0  0  0
   -1.0620   28.9080   14.1810 C   0  0  0  0  0  0  0  0  0  0  0  0
   -1.6010   27.3960   14.2820 C   0  0  0  0  0  0  0  0  0  0  0  0
   -2.9520   27.2540   13.7050 C   0  0  0  0  0  0  0  0  0  0  0  0
   -2.9100   26.2050   13.2270 O   0  0  0  0  0  0  0  0  0  0  0  0
   -1.3416   26.3910   10.3705 H   0  0  0  0  0  0  0  0  0  0  0  0
    0.0362   27.5123   10.1041 H   0  0  0  0  0  0  0  0  0  0  0  0
   -0.5453   27.1842   11.7717 H   0  0  0  0  0  0  0  0  0  0  0  0
    0.7596   25.1166    9.8849 H   0  0  0  0  0  0  0  0  0  0  0  0
    0.1781   24.7885   11.5526 H   0  0  0  0  0  0  0  0  0  0  0  0
    2.6900   25.6572   10.6843 H   0  0  0  0  0  0  0  0  0  0  0  0
    2.0898   25.3874   12.3557 H   0  0  0  0  0  0  0  0  0  0  0  0
    1.0244   27.7385   12.0304 H   0  0  0  0  0  0  0  0  0  0  0  0
    2.2636   27.8961   10.7396 H   0  0  0  0  0  0  0  0  0  0  0  0
    3.5658   28.8076   12.4552 H   0  0  0  0  0  0  0  0  0  0  0  0
    3.8939   27.0865   12.8515 H   0  0  0  0  0  0  0  0  0  0  0  0
    2.7171   29.1714   14.5040 H   0  0  0  0  0  0  0  0  0  0  0  0
    3.2233   27.5075   14.9531 H   0  0  0  0  0  0  0  0  0  0  0  0
    1.0692   26.9222   15.1879 H   0  0  0  0  0  0  0  0  0  0  0  0
    0.7710   27.3216   13.4622 H   0  0  0  0  0  0  0  0  0  0  0  0
    0.8519   29.8825   14.5388 H   0  0  0  0  0  0  0  0  0  0  0  0
    0.2078   28.9745   15.9485 H   0  0  0  0  0  0  0  0  0  0  0  0
   -0.9772   29.2037   13.1249 H   0  0  0  0  0  0  0  0  0  0  0  0
   -1.7569   29.5867   14.6972 H   0  0  0  0  0  0  0  0  0  0  0  0
   -1.6336   27.1000   15.3409 H   0  0  0  0  0  0  0  0  0  0  0  0
   -0.9105   26.7351   13.7376 H   0  0  0  0  0  0  0  0  0  0  0  0
   -3.7798   27.9613   13.7254 H   0  0  0  0  0  0  0  0  0  0  0  0
  1  2  1  0  0  0  0
  1 13  1  0  0  0  0
  1 14  1  0  0  0  0
  1 15  1  0  0  0  0
  2  3  1  0  0  0  0
  2 16  1  0  0  0  0
  2 17  1  0  0  0  0
  3  4  1  0  0  0  0
  3 18  1  0  0  0  0
  3 19  1  0  0  0  0
  4  5  1  0  0  0  0
  4 20  1  0  0  0  0
  4 21  1  0  0  0  0
  5  6  1  0  0  0  0
  5 22  1  0  0  0  0
  5 23  1  0  0  0  0
  6  7  1  0  0  0  0
  6 24  1  0  0  0  0
  6 25  1  0  0  0  0
  7  8  1  0  0  0  0
  7 26  1  0  0  0  0
  7 27  1  0  0  0  0
  8  9  1  0  0  0  0
  8 28  1  0  0  0  0
  8 29  1  0  0  0  0
  9 10  1  0  0  0  0
  9 30  1  0  0  0  0
  9 31  1  0  0  0  0
 10 11  1  0  0  0  0
 10 32  1  0  0  0  0
 10 33  1  0  0  0  0
 11 12  2  0  0  0  0
 11 34  1  0  0  0  0
M  END
