1e06_ligand
 OpenBabel08222323343D

 25 25  0  0  0  0  0  0  0  0999 V2000
   -0.3210   26.5360   12.3200 C   0  0  0  0  0  0  0  0  0  0  0  0
   -0.8400   25.3960   12.6760 C   0  0  0  0  0  0  0  0  0  0  0  0
   -2.1600   25.3250   13.3620 C   0  0  0  0  0  0  0  0  0  0  0  0
   -2.8440   26.4530   13.6290 C   0  0  0  0  0  0  0  0  0  0  0  0
   -2.2690   27.6790   13.2360 C   0  0  0  0  0  0  0  0  0  0  0  0
   -1.0940   27.7760   12.6170 C   0  0  0  0  0  0  0  0  0  0  0  0
    1.0310   26.6190   11.6050 C   0  0  0  0  0  0  0  0  0  0  0  0
   -4.1540   26.4090   14.2980 C   0  0  0  0  0  0  0  0  0  0  0  0
   -0.6470   29.0110   12.3010 O   0  0  0  0  0  0  0  0  0  0  0  0
    2.1090   25.7470   12.2720 C   0  0  0  0  0  0  0  0  0  0  0  0
    0.9270   26.2790   10.1480 C   0  0  0  0  0  0  0  0  0  0  0  0
   -0.2999   24.4793   12.4687 H   0  0  0  0  0  0  0  0  0  0  0  0
   -2.5706   24.3631   13.6468 H   0  0  0  0  0  0  0  0  0  0  0  0
   -2.8129   28.5921   13.4493 H   0  0  0  0  0  0  0  0  0  0  0  0
    1.3656   27.6645   11.6756 H   0  0  0  0  0  0  0  0  0  0  0  0
   -4.4183   25.3642   14.5183 H   0  0  0  0  0  0  0  0  0  0  0  0
   -4.9171   26.8491   13.6393 H   0  0  0  0  0  0  0  0  0  0  0  0
   -4.1058   26.9807   15.2365 H   0  0  0  0  0  0  0  0  0  0  0  0
    0.1951   28.9403   11.8668 H   0  0  0  0  0  0  0  0  0  0  0  0
    3.0545   25.8456   11.7185 H   0  0  0  0  0  0  0  0  0  0  0  0
    1.7870   24.6952   12.2633 H   0  0  0  0  0  0  0  0  0  0  0  0
    2.2563   26.0768   13.3110 H   0  0  0  0  0  0  0  0  0  0  0  0
    0.1547   26.9065    9.6793 H   0  0  0  0  0  0  0  0  0  0  0  0
    0.6550   25.2189   10.0373 H   0  0  0  0  0  0  0  0  0  0  0  0
    1.8950   26.4622    9.6587 H   0  0  0  0  0  0  0  0  0  0  0  0
  1  7  1  0  0  0  0
  1  6  2  0  0  0  0
  1  2  1  0  0  0  0
  2  3  2  0  0  0  0
  2 12  1  0  0  0  0
  3  4  1  0  0  0  0
  3 13  1  0  0  0  0
  4  8  1  0  0  0  0
  4  5  2  0  0  0  0
  5  6  1  0  0  0  0
  5 14  1  0  0  0  0
  6  9  1  0  0  0  0
  7 11  1  0  0  0  0
  7 10  1  0  0  0  0
  7 15  1  0  0  0  0
  8 16  1  0  0  0  0
  8 17  1  0  0  0  0
  8 18  1  0  0  0  0
  9 19  1  0  0  0  0
 10 20  1  0  0  0  0
 10 21  1  0  0  0  0
 10 22  1  0  0  0  0
 11 23  1  0  0  0  0
 11 24  1  0  0  0  0
 11 25  1  0  0  0  0
M  END
