1e1y_ligand
 OpenBabel08222323343D

 49 52  0  0  1  0  0  0  0  0999 V2000
   43.5000   39.9190   27.6330 C   0  0  0  0  0  0  0  0  0  0  0  0
   42.4820   39.5270   28.6180 N   0  3  1  0  0  0  0  0  0  0  0  0
   41.0990   39.6420   28.1280 C   0  0  0  0  0  0  0  0  0  0  0  0
   39.9930   39.2520   29.1770 C   0  0  0  0  0  0  0  0  0  0  0  0
   40.3490   37.8830   29.8290 C   0  0  1  0  0  0  0  0  0  0  0  0
   41.8300   37.8440   30.3560 C   0  0  1  0  0  0  0  0  0  0  0  0
   42.7910   38.1840   29.1840 C   0  0  0  0  0  0  0  0  0  0  0  0
   39.1980   37.5070   30.8610 C   0  0  0  0  0  0  0  0  0  0  0  0
   38.3190   36.4010   30.5370 C   0  0  0  0  0  0  0  0  0  0  0  0
   38.4850   35.7040   29.3290 O   0  0  0  0  0  0  0  0  0  0  0  0
   37.7050   34.6330   28.9300 C   0  0  0  0  0  0  0  0  0  0  0  0
   36.6890   34.1770   29.7070 C   0  0  0  0  0  0  0  0  0  0  0  0
   36.3940   34.8160   31.0020 C   0  0  0  0  0  0  0  0  0  0  0  0
   35.4830   34.3940   31.6860 O   0  0  0  0  0  0  0  0  0  0  0  0
   37.2780   36.0050   31.4560 C   0  0  0  0  0  0  0  0  0  0  0  0
   37.0970   36.6930   32.7000 C   0  0  0  0  0  0  0  0  0  0  0  0
   36.0770   36.3310   33.5940 O   0  0  0  0  0  0  0  0  0  0  0  0
   37.9470   37.7820   33.0200 C   0  0  0  0  0  0  0  0  0  0  0  0
   38.9830   38.1950   32.1250 C   0  0  0  0  0  0  0  0  0  0  0  0
   39.7960   39.2810   32.5160 O   0  0  0  0  0  0  0  0  0  0  0  0
   37.9930   33.9370   27.5750 C   0  0  0  0  0  0  0  0  0  0  0  0
   38.3630   34.6620   26.3900 C   0  0  0  0  0  0  0  0  0  0  0  0
   38.5130   36.3980   26.3540 Cl  0  0  0  0  0  0  0  0  0  0  0  0
   38.6270   33.9870   25.1780 C   0  0  0  0  0  0  0  0  0  0  0  0
   38.5250   32.5670   25.0970 C   0  0  0  0  0  0  0  0  0  0  0  0
   38.1580   31.8200   26.2640 C   0  0  0  0  0  0  0  0  0  0  0  0
   37.8930   32.4990   27.4850 C   0  0  0  0  0  0  0  0  0  0  0  0
   42.1540   38.8030   31.3640 O   0  0  0  0  0  0  0  0  0  0  0  0
   43.2546   40.9116   27.2273 H   0  0  0  0  0  0  0  0  0  0  0  0
   43.5213   39.1837   26.8152 H   0  0  0  0  0  0  0  0  0  0  0  0
   44.4860   39.9552   28.1193 H   0  0  0  0  0  0  0  0  0  0  0  0
   42.5586   40.1826   29.3798 H   0  0  0  0  0  0  0  0  0  0  0  0
   40.9895   38.9828   27.2542 H   0  0  0  0  0  0  0  0  0  0  0  0
   40.9293   40.6854   27.8237 H   0  0  0  0  0  0  0  0  0  0  0  0
   39.0197   39.1739   28.6705 H   0  0  0  0  0  0  0  0  0  0  0  0
   39.9394   40.0258   29.9570 H   0  0  0  0  0  0  0  0  0  0  0  0
   40.3036   37.1248   29.0334 H   0  0  0  0  0  0  0  0  0  0  0  0
   42.0323   36.8336   30.7408 H   0  0  0  0  0  0  0  0  0  0  0  0
   43.8269   38.1784   29.5541 H   0  0  0  0  0  0  0  0  0  0  0  0
   42.6794   37.4258   28.3949 H   0  0  0  0  0  0  0  0  0  0  0  0
   36.0880   33.3333   29.3710 H   0  0  0  0  0  0  0  0  0  0  0  0
   36.1968   35.4269   33.8602 H   0  0  0  0  0  0  0  0  0  0  0  0
   37.8094   38.3093   33.9571 H   0  0  0  0  0  0  0  0  0  0  0  0
   40.4396   39.4532   31.8388 H   0  0  0  0  0  0  0  0  0  0  0  0
   38.9104   34.5548   24.2992 H   0  0  0  0  0  0  0  0  0  0  0  0
   38.7232   32.0570   24.1612 H   0  0  0  0  0  0  0  0  0  0  0  0
   38.0826   30.7397   26.2159 H   0  0  0  0  0  0  0  0  0  0  0  0
   37.6114   31.9281   28.3624 H   0  0  0  0  0  0  0  0  0  0  0  0
   41.6024   38.6604   32.1241 H   0  0  0  0  0  0  0  0  0  0  0  0
  1  2  1  0  0  0  0
  1 29  1  0  0  0  0
  1 30  1  0  0  0  0
  1 31  1  0  0  0  0
  2  3  1  0  0  0  0
  2  7  1  0  0  0  0
  2 32  1  1  0  0  0
  3  4  1  0  0  0  0
  3 33  1  0  0  0  0
  3 34  1  0  0  0  0
  4  5  1  0  0  0  0
  4 35  1  0  0  0  0
  4 36  1  0  0  0  0
  5  6  1  0  0  0  0
  5  8  1  0  0  0  0
  5 37  1  6  0  0  0
  6  7  1  0  0  0  0
  6 28  1  0  0  0  0
  6 38  1  1  0  0  0
  7 39  1  0  0  0  0
  7 40  1  0  0  0  0
  8  9  2  0  0  0  0
  8 19  1  0  0  0  0
  9 10  1  0  0  0  0
  9 15  1  0  0  0  0
 10 11  1  0  0  0  0
 11 12  2  0  0  0  0
 11 21  1  0  0  0  0
 12 13  1  0  0  0  0
 12 41  1  0  0  0  0
 13 14  2  0  0  0  0
 13 15  1  0  0  0  0
 15 16  2  0  0  0  0
 16 17  1  0  0  0  0
 16 18  1  0  0  0  0
 17 42  1  0  0  0  0
 18 19  2  0  0  0  0
 18 43  1  0  0  0  0
 19 20  1  0  0  0  0
 20 44  1  0  0  0  0
 21 22  2  0  0  0  0
 21 27  1  0  0  0  0
 22 23  1  0  0  0  0
 22 24  1  0  0  0  0
 24 25  2  0  0  0  0
 24 45  1  0  0  0  0
 25 26  1  0  0  0  0
 25 46  1  0  0  0  0
 26 27  2  0  0  0  0
 26 47  1  0  0  0  0
 27 48  1  0  0  0  0
 28 49  1  0  0  0  0
M  CHG  1   2   1
M  END
