1e34_ligand
 OpenBabel08222323343D

 39 39  0  0  1  0  0  0  0  0999 V2000
   -9.0360   23.7870   37.6540 C   0  0  0  0  0  0  0  0  0  0  0  0
  -10.4560   23.2700   37.7690 C   0  0  2  0  0  0  0  0  0  0  0  0
  -10.6410   22.1640   36.8160 C   0  0  2  0  0  0  0  0  0  0  0  0
  -12.0150   21.5610   36.8870 C   0  0  0  0  0  0  0  0  0  0  0  0
  -11.4020   24.4160   37.5870 C   0  0  0  0  0  0  0  0  0  0  0  0
  -11.0880   25.5130   38.5910 C   0  0  0  0  0  0  0  0  0  0  0  0
   -8.5430   24.4530   36.7620 O   0  0  0  0  0  0  0  0  0  0  0  0
  -12.5260   21.1910   35.7980 O   0  5  0  0  0  0  0  0  0  0  0  0
  -12.5550   21.4450   38.0030 O   0  0  0  0  0  0  0  0  0  0  0  0
   -9.6190   21.0950   36.8170 C   0  0  0  0  0  0  0  0  0  0  0  0
   -8.2370   21.4900   36.6760 N   0  0  0  0  0  0  0  0  0  0  0  0
   -8.5790   22.2170   34.2940 O   0  0  0  0  0  0  0  0  0  0  0  0
   -6.3140   22.0310   35.2180 O   0  0  0  0  0  0  0  0  0  0  0  0
   -7.6510   21.5780   35.1370 S   0  0  0  0  0  0  0  0  0  0  0  0
   -7.5250   19.8540   34.7370 C   0  0  0  0  0  0  0  0  0  0  0  0
   -6.0850   19.6590   34.0230 C   0  0  0  0  0  0  0  0  0  0  0  0
   -8.3460   18.9860   34.4160 C   0  0  0  0  0  0  0  0  0  0  0  0
   -5.7890   18.3930   33.5580 C   0  0  0  0  0  0  0  0  0  0  0  0
   -8.0500   17.7210   33.9500 C   0  0  0  0  0  0  0  0  0  0  0  0
   -6.7720   17.4220   33.5210 C   0  0  0  0  0  0  0  0  0  0  0  0
   -6.4510   16.0460   33.0140 C   0  0  0  0  0  0  0  0  0  0  0  0
   -8.3700   23.5292   38.4762 H   0  0  0  0  0  0  0  0  0  0  0  0
  -10.6076   22.8679   38.7816 H   0  0  0  0  0  0  0  0  0  0  0  0
  -10.5654   22.6344   35.8246 H   0  0  0  0  0  0  0  0  0  0  0  0
  -12.4331   24.0653   37.7411 H   0  0  0  0  0  0  0  0  0  0  0  0
  -11.2990   24.8151   36.5672 H   0  0  0  0  0  0  0  0  0  0  0  0
  -11.7874   26.3502   38.4500 H   0  0  0  0  0  0  0  0  0  0  0  0
  -10.0576   25.8663   38.4378 H   0  0  0  0  0  0  0  0  0  0  0  0
  -11.1918   25.1165   39.6118 H   0  0  0  0  0  0  0  0  0  0  0  0
   -9.8533   20.4151   35.9846 H   0  0  0  0  0  0  0  0  0  0  0  0
   -9.7106   20.5532   37.7699 H   0  0  0  0  0  0  0  0  0  0  0  0
   -7.6656   21.6991   37.4696 H   0  0  0  0  0  0  0  0  0  0  0  0
   -5.3876   20.4818   33.9153 H   0  0  0  0  0  0  0  0  0  0  0  0
   -9.3950   19.2427   34.5094 H   0  0  0  0  0  0  0  0  0  0  0  0
   -4.7850   18.1605   33.2217 H   0  0  0  0  0  0  0  0  0  0  0  0
   -8.8222   16.9608   33.9207 H   0  0  0  0  0  0  0  0  0  0  0  0
   -5.3918   16.0012   32.7207 H   0  0  0  0  0  0  0  0  0  0  0  0
   -7.0826   15.8198   32.1423 H   0  0  0  0  0  0  0  0  0  0  0  0
   -6.6433   15.3088   33.8074 H   0  0  0  0  0  0  0  0  0  0  0  0
  1  2  1  0  0  0  0
  1  7  2  0  0  0  0
  1 22  1  0  0  0  0
  2  3  1  0  0  0  0
  2  5  1  0  0  0  0
  2 23  1  1  0  0  0
  3  4  1  0  0  0  0
  3 10  1  0  0  0  0
  3 24  1  6  0  0  0
  4  8  1  0  0  0  0
  4  9  2  0  0  0  0
  5  6  1  0  0  0  0
  5 25  1  0  0  0  0
  5 26  1  0  0  0  0
  6 27  1  0  0  0  0
  6 28  1  0  0  0  0
  6 29  1  0  0  0  0
 10 11  1  0  0  0  0
 10 30  1  0  0  0  0
 10 31  1  0  0  0  0
 11 14  1  0  0  0  0
 11 32  1  0  0  0  0
 14 12  2  0  0  0  0
 14 13  2  0  0  0  0
 14 15  1  0  0  0  0
 15 16  2  0  0  0  0
 15 17  1  0  0  0  0
 16 18  1  0  0  0  0
 16 33  1  0  0  0  0
 17 19  2  0  0  0  0
 17 34  1  0  0  0  0
 18 20  2  0  0  0  0
 18 35  1  0  0  0  0
 19 20  1  0  0  0  0
 19 36  1  0  0  0  0
 20 21  1  0  0  0  0
 21 37  1  0  0  0  0
 21 38  1  0  0  0  0
 21 39  1  0  0  0  0
M  CHG  1   8  -1
M  END
