1eas_ligand
 OpenBabel08222323343D

 58 59  0  0  1  0  0  0  0  0999 V2000
   -8.3400   22.4230   36.7220 C   0  0  0  0  0  0  0  0  0  0  0  0
   -8.8880   23.5270   37.6530 C   0  0  2  0  0  0  0  0  0  0  0  0
  -10.4230   23.4460   37.8420 C   0  0  2  0  0  0  0  0  0  0  0  0
  -11.1980   24.6910   38.3120 C   0  0  0  0  0  0  0  0  0  0  0  0
  -12.6810   24.6170   38.0350 C   0  0  0  0  0  0  0  0  0  0  0  0
  -10.9280   25.0600   39.7590 C   0  0  0  0  0  0  0  0  0  0  0  0
  -11.3620   21.2110   38.3310 C   0  0  0  0  0  0  0  0  0  0  0  0
  -11.3880   20.0850   39.3690 C   0  0  0  0  0  0  0  0  0  0  0  0
  -13.8070   19.5320   39.3490 C   0  0  0  0  0  0  0  0  0  0  0  0
  -14.8280   18.4950   39.3560 C   0  0  0  0  0  0  0  0  0  0  0  0
  -14.5020   17.2190   39.0310 C   0  0  0  0  0  0  0  0  0  0  0  0
  -13.1670   16.9040   38.6660 C   0  0  0  0  0  0  0  0  0  0  0  0
  -12.1500   17.8120   38.6680 C   0  0  0  0  0  0  0  0  0  0  0  0
  -10.7510   17.4390   38.2980 C   0  0  0  0  0  0  0  0  0  0  0  0
  -10.0880   18.1000   37.2530 C   0  0  0  0  0  0  0  0  0  0  0  0
   -8.8160   17.7100   36.8920 C   0  0  0  0  0  0  0  0  0  0  0  0
   -8.2390   16.6210   37.4780 C   0  0  0  0  0  0  0  0  0  0  0  0
   -8.9130   15.9020   38.4540 C   0  0  0  0  0  0  0  0  0  0  0  0
  -10.1490   16.3270   38.8940 C   0  0  0  0  0  0  0  0  0  0  0  0
  -17.4200   17.8550   42.8080 C   0  0  0  0  0  0  0  0  0  0  0  0
  -10.6950   22.2880   38.7240 N   0  0  0  0  0  0  0  0  0  0  0  0
  -12.4850   19.1310   39.1000 N   0  0  0  0  0  0  0  0  0  0  0  0
  -16.1160   18.9320   39.7660 N   0  0  0  0  0  0  0  0  0  0  0  0
  -16.9550   17.3180   41.5230 N   0  0  0  0  0  0  0  0  0  0  0  0
   -8.5290   24.7280   37.0890 O   0  0  0  0  0  0  0  0  0  0  0  0
  -11.9670   21.1210   37.2790 O   0  0  0  0  0  0  0  0  0  0  0  0
  -14.0950   20.7020   39.6150 O   0  0  0  0  0  0  0  0  0  0  0  0
  -18.4840   18.8030   40.3310 O   0  0  0  0  0  0  0  0  0  0  0  0
  -17.4370   16.9860   39.0870 O   0  0  0  0  0  0  0  0  0  0  0  0
   -8.6140   21.2120   37.1680 F   0  0  0  0  0  0  0  0  0  0  0  0
   -7.0230   22.4560   36.5790 F   0  0  0  0  0  0  0  0  0  0  0  0
   -8.8530   22.5120   35.4990 F   0  0  0  0  0  0  0  0  0  0  0  0
  -17.3840   17.9740   40.0930 S   0  0  0  0  0  0  0  0  0  0  0  0
   -8.4146   23.4305   38.6412 H   0  0  0  0  0  0  0  0  0  0  0  0
  -10.8347   23.2104   36.8495 H   0  0  0  0  0  0  0  0  0  0  0  0
  -10.8152   25.5260   37.7069 H   0  0  0  0  0  0  0  0  0  0  0  0
  -13.1676   25.5353   38.3955 H   0  0  0  0  0  0  0  0  0  0  0  0
  -13.1083   23.7471   38.5553 H   0  0  0  0  0  0  0  0  0  0  0  0
  -12.8472   24.5148   36.9525 H   0  0  0  0  0  0  0  0  0  0  0  0
   -9.8422   25.1059   39.9292 H   0  0  0  0  0  0  0  0  0  0  0  0
  -11.3709   24.3004   40.4199 H   0  0  0  0  0  0  0  0  0  0  0  0
  -11.3750   26.0412   39.9768 H   0  0  0  0  0  0  0  0  0  0  0  0
  -11.5305   20.5222   40.3683 H   0  0  0  0  0  0  0  0  0  0  0  0
  -10.4293   19.5466   39.3376 H   0  0  0  0  0  0  0  0  0  0  0  0
  -15.2618   16.4391   39.0501 H   0  0  0  0  0  0  0  0  0  0  0  0
  -12.9428   15.8808   38.3680 H   0  0  0  0  0  0  0  0  0  0  0  0
  -10.5749   18.9156   36.7306 H   0  0  0  0  0  0  0  0  0  0  0  0
   -8.2722   18.2703   36.1400 H   0  0  0  0  0  0  0  0  0  0  0  0
   -7.2435   16.3147   37.1776 H   0  0  0  0  0  0  0  0  0  0  0  0
   -8.4681   15.0058   38.8710 H   0  0  0  0  0  0  0  0  0  0  0  0
  -10.6512   15.8013   39.6981 H   0  0  0  0  0  0  0  0  0  0  0  0
  -17.0036   17.2531   43.6292 H   0  0  0  0  0  0  0  0  0  0  0  0
  -18.5187   17.8163   42.8456 H   0  0  0  0  0  0  0  0  0  0  0  0
  -17.0861   18.8979   42.9120 H   0  0  0  0  0  0  0  0  0  0  0  0
  -10.3582   22.3197   39.6651 H   0  0  0  0  0  0  0  0  0  0  0  0
  -16.2534   19.9179   39.8616 H   0  0  0  0  0  0  0  0  0  0  0  0
  -16.3525   16.5199   41.5248 H   0  0  0  0  0  0  0  0  0  0  0  0
   -7.5855   24.7569   36.9820 H   0  0  0  0  0  0  0  0  0  0  0  0
  1 30  1  0  0  0  0
  1 31  1  0  0  0  0
  1 32  1  0  0  0  0
  2  1  1  0  0  0  0
  2 25  1  0  0  0  0
  2 34  1  1  0  0  0
  3  2  1  0  0  0  0
  3  4  1  0  0  0  0
  3 35  1  6  0  0  0
  4  5  1  0  0  0  0
  4  6  1  0  0  0  0
  4 36  1  0  0  0  0
  5 37  1  0  0  0  0
  5 38  1  0  0  0  0
  5 39  1  0  0  0  0
  6 40  1  0  0  0  0
  6 41  1  0  0  0  0
  6 42  1  0  0  0  0
  7 21  1  0  0  0  0
  7 26  2  0  0  0  0
  8  7  1  0  0  0  0
  8 43  1  0  0  0  0
  8 44  1  0  0  0  0
  9 22  1  0  0  0  0
  9 27  2  0  0  0  0
 10  9  1  0  0  0  0
 10 11  2  0  0  0  0
 11 12  1  0  0  0  0
 11 45  1  0  0  0  0
 12 13  2  0  0  0  0
 12 46  1  0  0  0  0
 13 14  1  0  0  0  0
 14 15  2  0  0  0  0
 14 19  1  0  0  0  0
 15 16  1  0  0  0  0
 15 47  1  0  0  0  0
 16 17  2  0  0  0  0
 16 48  1  0  0  0  0
 17 49  1  0  0  0  0
 18 17  1  0  0  0  0
 18 50  1  0  0  0  0
 19 18  2  0  0  0  0
 19 51  1  0  0  0  0
 20 52  1  0  0  0  0
 20 53  1  0  0  0  0
 20 54  1  0  0  0  0
 21  3  1  0  0  0  0
 21 55  1  0  0  0  0
 22  8  1  0  0  0  0
 22 13  1  0  0  0  0
 23 10  1  0  0  0  0
 23 56  1  0  0  0  0
 24 20  1  0  0  0  0
 24 33  1  0  0  0  0
 24 57  1  0  0  0  0
 25 58  1  0  0  0  0
 33 23  1  0  0  0  0
 33 28  2  0  0  0  0
 33 29  2  0  0  0  0
M  END
