1eed_ligand
 OpenBabel08222323343D

 99100  0  0  1  0  0  0  0  0999 V2000
    2.1180   27.1890   20.3310 O   0  0  0  0  0  0  0  0  0  0  0  0
    2.6590   26.4090   19.4870 C   0  0  0  0  0  0  0  0  0  0  0  0
    2.2040   25.0180   19.3660 O   0  0  0  0  0  0  0  0  0  0  0  0
    1.3620   24.3570   20.3580 C   0  0  0  0  0  0  0  0  0  0  0  0
    0.1070   25.1870   20.6420 C   0  0  0  0  0  0  0  0  0  0  0  0
    2.1620   24.1560   21.6470 C   0  0  0  0  0  0  0  0  0  0  0  0
    0.9730   22.9710   19.8170 C   0  0  0  0  0  0  0  0  0  0  0  0
    3.4060   32.1580   15.8780 C   0  0  0  0  0  0  0  0  0  0  0  0
    3.0450   33.1230   16.5620 O   0  0  0  0  0  0  0  0  0  0  0  0
    2.7790   30.7700   16.1010 C   0  0  0  0  0  0  0  0  0  0  0  0
    3.2570   30.1720   17.4450 C   0  0  0  0  0  0  0  0  0  0  0  0
    3.8500   28.7740   17.2040 C   0  0  2  0  0  0  0  0  0  0  0  0
    2.8660   27.9860   16.5620 O   0  0  0  0  0  0  0  0  0  0  0  0
    4.2950   28.0940   18.5170 C   0  0  1  0  0  0  0  0  0  0  0  0
    3.6650   26.7350   18.6380 N   0  0  0  0  0  0  0  0  0  0  0  0
    5.8330   27.9980   18.4050 C   0  0  0  0  0  0  0  0  0  0  0  0
    6.5580   27.5970   19.6950 C   0  0  0  0  0  0  0  0  0  0  0  0
    5.8880   26.8690   20.6830 C   0  0  0  0  0  0  0  0  0  0  0  0
    7.9030   27.9550   19.8770 C   0  0  0  0  0  0  0  0  0  0  0  0
    6.5620   26.4920   21.8510 C   0  0  0  0  0  0  0  0  0  0  0  0
    8.5770   27.5760   21.0440 C   0  0  0  0  0  0  0  0  0  0  0  0
    7.9060   26.8450   22.0310 C   0  0  0  0  0  0  0  0  0  0  0  0
    4.3240   32.2220   14.9150 N   0  0  0  0  0  0  0  0  0  0  0  0
    5.0780   33.4630   14.6120 C   0  0  1  0  0  0  0  0  0  0  0  0
    6.5750   33.2520   14.9320 C   0  0  0  0  0  0  0  0  0  0  0  0
    6.8280   32.5940   16.3040 C   0  0  0  0  0  0  0  0  0  0  0  0
    6.3260   33.5220   17.4150 C   0  0  0  0  0  0  0  0  0  0  0  0
    8.2110   32.3510   16.4950 C   0  0  0  0  0  0  0  0  0  0  0  0
    6.5210   32.8820   18.7930 C   0  0  0  0  0  0  0  0  0  0  0  0
    8.4670   31.6490   17.8380 C   0  0  0  0  0  0  0  0  0  0  0  0
    7.9890   32.5210   18.9980 C   0  0  0  0  0  0  0  0  0  0  0  0
    4.9610   33.8490   13.1280 C   0  0  1  0  0  0  0  0  0  0  0  0
    5.3820   32.7690   12.3130 O   0  0  0  0  0  0  0  0  0  0  0  0
    3.5150   34.2070   12.7690 C   0  0  0  0  0  0  0  0  0  0  0  0
    3.2000   35.6310   13.2290 C   0  0  0  0  0  0  0  0  0  0  0  0
    2.9290   35.8620   14.4140 O   0  0  0  0  0  0  0  0  0  0  0  0
    3.4250   36.6090   12.3300 N   0  0  0  0  0  0  0  0  0  0  0  0
    3.2460   38.0170   12.6820 C   0  0  2  0  0  0  0  0  0  0  0  0
    1.7700   38.2940   12.9820 C   0  0  0  0  0  0  0  0  0  0  0  0
    0.8940   38.0090   12.1660 O   0  5  0  0  0  0  0  0  0  0  0  0
    3.7010   38.8890   11.5240 C   0  0  0  0  0  0  0  0  0  0  0  0
    3.5780   40.3810   11.8720 C   0  0  0  0  0  0  0  0  0  0  0  0
    4.1390   40.7330   13.1560 C   0  0  0  0  0  0  0  0  0  0  0  0
    3.9130   41.3670   10.7810 C   0  0  0  0  0  0  0  0  0  0  0  0
    1.3890   38.8490   14.1050 O   0  0  0  0  0  0  0  0  0  0  0  0
   -0.5120   24.6712   21.3909 H   0  0  0  0  0  0  0  0  0  0  0  0
   -0.4687   25.3108   19.7129 H   0  0  0  0  0  0  0  0  0  0  0  0
    0.4001   26.1751   21.0263 H   0  0  0  0  0  0  0  0  0  0  0  0
    1.5299   23.6579   22.3969 H   0  0  0  0  0  0  0  0  0  0  0  0
    2.4874   25.1334   22.0328 H   0  0  0  0  0  0  0  0  0  0  0  0
    3.0436   23.5322   21.4379 H   0  0  0  0  0  0  0  0  0  0  0  0
    0.3369   22.4559   20.5519 H   0  0  0  0  0  0  0  0  0  0  0  0
    1.8824   22.3781   19.6398 H   0  0  0  0  0  0  0  0  0  0  0  0
    0.4214   23.0876   18.8725 H   0  0  0  0  0  0  0  0  0  0  0  0
    3.0776   30.1013   15.2802 H   0  0  0  0  0  0  0  0  0  0  0  0
    1.6833   30.8654   16.1161 H   0  0  0  0  0  0  0  0  0  0  0  0
    2.4041   30.0941   18.1353 H   0  0  0  0  0  0  0  0  0  0  0  0
    4.0255   30.8252   17.8839 H   0  0  0  0  0  0  0  0  0  0  0  0
    4.7265   28.8684   16.5461 H   0  0  0  0  0  0  0  0  0  0  0  0
    2.0979   27.9256   17.1179 H   0  0  0  0  0  0  0  0  0  0  0  0
    4.0112   28.7051   19.3865 H   0  0  0  0  0  0  0  0  0  0  0  0
    4.0165   26.0117   18.0436 H   0  0  0  0  0  0  0  0  0  0  0  0
    6.2135   28.9817   18.0926 H   0  0  0  0  0  0  0  0  0  0  0  0
    6.0720   27.2507   17.6341 H   0  0  0  0  0  0  0  0  0  0  0  0
    4.8479   26.5967   20.5449 H   0  0  0  0  0  0  0  0  0  0  0  0
    8.4200   28.5251   19.1136 H   0  0  0  0  0  0  0  0  0  0  0  0
    6.0435   25.9265   22.6168 H   0  0  0  0  0  0  0  0  0  0  0  0
    9.6170   27.8483   21.1830 H   0  0  0  0  0  0  0  0  0  0  0  0
    8.4265   26.5517   22.9355 H   0  0  0  0  0  0  0  0  0  0  0  0
    4.5122   31.4015   14.3753 H   0  0  0  0  0  0  0  0  0  0  0  0
    4.6802   34.2808   15.2308 H   0  0  0  0  0  0  0  0  0  0  0  0
    7.0745   34.2319   14.9193 H   0  0  0  0  0  0  0  0  0  0  0  0
    7.0096   32.6087   14.1527 H   0  0  0  0  0  0  0  0  0  0  0  0
    6.2836   31.6393   16.3510 H   0  0  0  0  0  0  0  0  0  0  0  0
    5.2558   33.7232   17.2598 H   0  0  0  0  0  0  0  0  0  0  0  0
    6.8865   34.4676   17.3748 H   0  0  0  0  0  0  0  0  0  0  0  0
    8.7498   33.3099   16.4820 H   0  0  0  0  0  0  0  0  0  0  0  0
    8.5799   31.7120   15.6792 H   0  0  0  0  0  0  0  0  0  0  0  0
    5.9089   31.9706   18.8612 H   0  0  0  0  0  0  0  0  0  0  0  0
    6.2085   33.5928   19.5722 H   0  0  0  0  0  0  0  0  0  0  0  0
    9.5450   31.4599   17.9478 H   0  0  0  0  0  0  0  0  0  0  0  0
    7.9233   30.6930   17.8561 H   0  0  0  0  0  0  0  0  0  0  0  0
    8.1021   31.9686   19.9425 H   0  0  0  0  0  0  0  0  0  0  0  0
    8.5907   33.4410   19.0369 H   0  0  0  0  0  0  0  0  0  0  0  0
    5.6046   34.7201   12.9359 H   0  0  0  0  0  0  0  0  0  0  0  0
    6.2866   32.5578   12.5116 H   0  0  0  0  0  0  0  0  0  0  0  0
    2.8311   33.5037   13.2666 H   0  0  0  0  0  0  0  0  0  0  0  0
    3.3824   34.1384   11.6792 H   0  0  0  0  0  0  0  0  0  0  0  0
    3.7197   36.3677   11.4054 H   0  0  0  0  0  0  0  0  0  0  0  0
    3.8481   38.2492   13.5728 H   0  0  0  0  0  0  0  0  0  0  0  0
    3.0765   38.6728   10.6446 H   0  0  0  0  0  0  0  0  0  0  0  0
    4.7517   38.6596   11.2930 H   0  0  0  0  0  0  0  0  0  0  0  0
    2.4954   40.5172   12.0115 H   0  0  0  0  0  0  0  0  0  0  0  0
    4.0113   41.8118   13.3286 H   0  0  0  0  0  0  0  0  0  0  0  0
    5.2104   40.4840   13.1688 H   0  0  0  0  0  0  0  0  0  0  0  0
    3.6225   40.1713   13.9483 H   0  0  0  0  0  0  0  0  0  0  0  0
    3.4558   41.0378    9.8362 H   0  0  0  0  0  0  0  0  0  0  0  0
    5.0049   41.4230   10.6600 H   0  0  0  0  0  0  0  0  0  0  0  0
    3.5226   42.3593   11.0510 H   0  0  0  0  0  0  0  0  0  0  0  0
  2  1  2  0  0  0  0
  2  3  1  0  0  0  0
  3  4  1  0  0  0  0
  4  5  1  0  0  0  0
  4  6  1  0  0  0  0
  4  7  1  0  0  0  0
  5 46  1  0  0  0  0
  5 47  1  0  0  0  0
  5 48  1  0  0  0  0
  6 49  1  0  0  0  0
  6 50  1  0  0  0  0
  6 51  1  0  0  0  0
  7 52  1  0  0  0  0
  7 53  1  0  0  0  0
  7 54  1  0  0  0  0
  8  9  2  0  0  0  0
  8 10  1  0  0  0  0
 10 11  1  0  0  0  0
 10 55  1  0  0  0  0
 10 56  1  0  0  0  0
 11 12  1  0  0  0  0
 11 57  1  0  0  0  0
 11 58  1  0  0  0  0
 12 13  1  0  0  0  0
 12 14  1  0  0  0  0
 12 59  1  6  0  0  0
 13 60  1  0  0  0  0
 14 15  1  0  0  0  0
 14 16  1  0  0  0  0
 14 61  1  1  0  0  0
 15  2  1  0  0  0  0
 15 62  1  0  0  0  0
 16 17  1  0  0  0  0
 16 63  1  0  0  0  0
 16 64  1  0  0  0  0
 17 18  2  0  0  0  0
 17 19  1  0  0  0  0
 18 20  1  0  0  0  0
 18 65  1  0  0  0  0
 19 21  2  0  0  0  0
 19 66  1  0  0  0  0
 20 22  2  0  0  0  0
 20 67  1  0  0  0  0
 21 22  1  0  0  0  0
 21 68  1  0  0  0  0
 22 69  1  0  0  0  0
 23  8  1  0  0  0  0
 23 70  1  0  0  0  0
 24 23  1  0  0  0  0
 24 25  1  0  0  0  0
 24 71  1  1  0  0  0
 25 26  1  0  0  0  0
 25 72  1  0  0  0  0
 25 73  1  0  0  0  0
 26 27  1  0  0  0  0
 26 28  1  0  0  0  0
 26 74  1  0  0  0  0
 27 29  1  0  0  0  0
 27 75  1  0  0  0  0
 27 76  1  0  0  0  0
 28 30  1  0  0  0  0
 28 77  1  0  0  0  0
 28 78  1  0  0  0  0
 29 31  1  0  0  0  0
 29 79  1  0  0  0  0
 29 80  1  0  0  0  0
 30 31  1  0  0  0  0
 30 81  1  0  0  0  0
 30 82  1  0  0  0  0
 31 83  1  0  0  0  0
 31 84  1  0  0  0  0
 32 24  1  0  0  0  0
 32 33  1  0  0  0  0
 32 85  1  6  0  0  0
 33 86  1  0  0  0  0
 34 32  1  0  0  0  0
 34 87  1  0  0  0  0
 34 88  1  0  0  0  0
 35 34  1  0  0  0  0
 35 36  2  0  0  0  0
 35 37  1  0  0  0  0
 37 38  1  0  0  0  0
 37 89  1  0  0  0  0
 38 41  1  0  0  0  0
 38 39  1  0  0  0  0
 38 90  1  1  0  0  0
 39 40  1  0  0  0  0
 39 45  2  0  0  0  0
 41 42  1  0  0  0  0
 41 91  1  0  0  0  0
 41 92  1  0  0  0  0
 42 43  1  0  0  0  0
 42 44  1  0  0  0  0
 42 93  1  0  0  0  0
 43 94  1  0  0  0  0
 43 95  1  0  0  0  0
 43 96  1  0  0  0  0
 44 97  1  0  0  0  0
 44 98  1  0  0  0  0
 44 99  1  0  0  0  0
M  CHG  1  40  -1
M  END
