1efi_ligand
 OpenBabel08222323343D

 36 37  0  0  1  0  0  0  0  0999 V2000
  -20.1020   19.8870   14.9850 C   0  0  1  0  0  0  0  0  0  0  0  0
  -19.3160   21.0390   15.6030 C   0  0  1  0  0  0  0  0  0  0  0  0
  -17.8880   21.1030   15.1370 C   0  0  2  0  0  0  0  0  0  0  0  0
  -17.2380   19.7730   15.3920 C   0  0  2  0  0  0  0  0  0  0  0  0
  -18.0800   18.6550   14.7060 C   0  0  1  0  0  0  0  0  0  0  0  0
  -17.4690   17.2460   14.9760 C   0  0  0  0  0  0  0  0  0  0  0  0
  -21.1930   19.3240   12.8270 C   0  0  0  0  0  0  0  0  0  0  0  0
  -20.8270   18.2720   11.9820 C   0  0  0  0  0  0  0  0  0  0  0  0
  -21.7940   17.5520   11.2680 C   0  0  0  0  0  0  0  0  0  0  0  0
  -23.1490   17.8910   11.4030 C   0  0  0  0  0  0  0  0  0  0  0  0
  -23.5220   18.9330   12.2260 C   0  0  0  0  0  0  0  0  0  0  0  0
  -22.5430   19.6430   12.9380 C   0  0  0  0  0  0  0  0  0  0  0  0
  -24.1230   17.1540   10.7630 N   0  0  0  0  0  0  0  0  0  0  0  0
  -20.2140   20.0540   13.5620 O   0  0  0  0  0  0  0  0  0  0  0  0
  -19.9630   22.1910   15.0880 O   0  0  0  0  0  0  0  0  0  0  0  0
  -17.1120   22.1190   15.7530 O   0  0  0  0  0  0  0  0  0  0  0  0
  -17.1430   19.6060   16.7950 O   0  0  0  0  0  0  0  0  0  0  0  0
  -19.4400   18.6730   15.2300 O   0  0  0  0  0  0  0  0  0  0  0  0
  -18.3910   16.2450   14.5310 O   0  0  0  0  0  0  0  0  0  0  0  0
  -21.1071   19.8566   15.4308 H   0  0  0  0  0  0  0  0  0  0  0  0
  -19.3557   20.9951   16.7014 H   0  0  0  0  0  0  0  0  0  0  0  0
  -17.8953   21.2956   14.0540 H   0  0  0  0  0  0  0  0  0  0  0  0
  -16.2257   19.7658   14.9617 H   0  0  0  0  0  0  0  0  0  0  0  0
  -18.1017   18.8386   13.6217 H   0  0  0  0  0  0  0  0  0  0  0  0
  -17.2844   17.1244   16.0535 H   0  0  0  0  0  0  0  0  0  0  0  0
  -16.5209   17.1439   14.4277 H   0  0  0  0  0  0  0  0  0  0  0  0
  -19.7804   18.0097   11.8778 H   0  0  0  0  0  0  0  0  0  0  0  0
  -21.4974   16.7386   10.6157 H   0  0  0  0  0  0  0  0  0  0  0  0
  -24.5675   19.2026   12.3225 H   0  0  0  0  0  0  0  0  0  0  0  0
  -22.8446   20.4566   13.5878 H   0  0  0  0  0  0  0  0  0  0  0  0
  -23.8562   16.3736   10.1460 H   0  0  0  0  0  0  0  0  0  0  0  0
  -25.1174   17.3839   10.9019 H   0  0  0  0  0  0  0  0  0  0  0  0
  -19.9153   22.1821   14.1392 H   0  0  0  0  0  0  0  0  0  0  0  0
  -17.5168   22.9640   15.5962 H   0  0  0  0  0  0  0  0  0  0  0  0
  -16.6220   20.3105   17.1621 H   0  0  0  0  0  0  0  0  0  0  0  0
  -19.2090   16.3363   15.0053 H   0  0  0  0  0  0  0  0  0  0  0  0
  1  2  1  0  0  0  0
  1 18  1  0  0  0  0
  1 20  1  1  0  0  0
  2  3  1  0  0  0  0
  2 15  1  0  0  0  0
  2 21  1  1  0  0  0
  3  4  1  0  0  0  0
  3 16  1  0  0  0  0
  3 22  1  6  0  0  0
  4 17  1  0  0  0  0
  4 23  1  6  0  0  0
  5  4  1  0  0  0  0
  5  6  1  0  0  0  0
  5 24  1  6  0  0  0
  6 19  1  0  0  0  0
  6 25  1  0  0  0  0
  6 26  1  0  0  0  0
  7  8  2  0  0  0  0
  7 12  1  0  0  0  0
  8  9  1  0  0  0  0
  8 27  1  0  0  0  0
  9 10  2  0  0  0  0
  9 28  1  0  0  0  0
 10 11  1  0  0  0  0
 10 13  1  0  0  0  0
 11 12  2  0  0  0  0
 11 29  1  0  0  0  0
 12 30  1  0  0  0  0
 13 31  1  0  0  0  0
 13 32  1  0  0  0  0
 14  1  1  0  0  0  0
 14  7  1  0  0  0  0
 15 33  1  0  0  0  0
 16 34  1  0  0  0  0
 17 35  1  0  0  0  0
 18  5  1  0  0  0  0
 19 36  1  0  0  0  0
M  END
