1els_ligand
 OpenBabel08222323343D

 13 12  0  0  0  0  0  0  0  0999 V2000
   96.7260   47.1220   24.8770 C   0  0  0  0  0  0  0  0  0  0  0  0
   96.8630   47.9920   26.0560 C   0  0  0  0  0  0  0  0  0  0  0  0
   95.9830   49.1620   26.3950 N   0  0  0  0  0  0  0  0  0  0  0  0
   95.5950   50.3900   25.8510 O   0  0  0  0  0  0  0  0  0  0  0  0
   97.3790   47.3690   27.0420 O   0  0  0  0  0  0  0  0  0  0  0  0
   94.1910   47.2500   24.2970 O   0  0  0  0  0  1  0  0  0  0  0  0
   95.7390   46.2080   22.5240 O   0  0  0  0  0  1  0  0  0  0  0  0
   94.9280   45.0580   24.6830 O   0  0  0  0  0  0  0  0  0  0  0  0
   95.3300   46.2510   24.0130 P   0  0  0  0  0  0  0  0  0  0  0  0
   97.1538   47.7404   24.0741 H   0  0  0  0  0  0  0  0  0  0  0  0
   97.4140   46.2959   25.1098 H   0  0  0  0  0  0  0  0  0  0  0  0
   95.5396   49.0184   27.2797 H   0  0  0  0  0  0  0  0  0  0  0  0
   96.3622   50.9360   25.7254 H   0  0  0  0  0  0  0  0  0  0  0  0
  1  9  1  0  0  0  0
  1  2  1  0  0  0  0
  1 10  1  0  0  0  0
  1 11  1  0  0  0  0
  2  5  2  0  0  0  0
  2  3  1  0  0  0  0
  3  4  1  0  0  0  0
  3 12  1  0  0  0  0
  4 13  1  0  0  0  0
  9  6  1  0  0  0  0
  9  8  2  0  0  0  0
  9  7  1  0  0  0  0
M  END
