1eoj_ligand
 OpenBabel08222323343D

233237  0  0  1  0  0  0  0  0999 V2000
   15.3350   14.1640   22.4430 N   0  3  0  0  0  0  0  0  0  0  0  0
   15.5110   15.2400   21.2940 C   0  0  2  0  0  0  0  0  0  0  0  0
   16.5170   16.3800   21.5520 C   0  0  0  0  0  0  0  0  0  0  0  0
   16.6420   16.8230   22.7140 O   0  0  0  0  0  0  0  0  0  0  0  0
   14.1570   15.8090   20.9420 C   0  0  0  0  0  0  0  0  0  0  0  0
   13.6010   16.6040   22.1150 C   0  0  0  0  0  0  0  0  0  0  0  0
   12.2250   17.1540   21.7620 C   0  0  0  0  0  0  0  0  0  0  0  0
   11.4820   17.7290   22.9060 N   0  0  0  0  0  0  0  0  0  0  0  0
   11.7140   18.9240   23.4350 C   0  0  0  0  0  3  0  0  0  0  0  0
   12.6660   19.6990   22.9300 N   0  0  0  0  0  0  0  0  0  0  0  0
   11.0170   19.3240   24.4720 N   0  0  0  0  0  0  0  0  0  0  0  0
   17.3210   16.8250   20.5690 N   0  0  0  0  0  0  0  0  0  0  0  0
   18.0850   18.0750   20.7670 C   0  0  0  0  0  0  0  0  0  0  0  0
   19.5010   17.6610   20.7560 C   0  0  0  0  0  0  0  0  0  0  0  0
   19.6740   17.3120   19.4030 C   0  0  0  0  0  0  0  0  0  0  0  0
   18.8930   16.1650   18.9230 C   0  0  0  0  0  0  0  0  0  0  0  0
   17.3770   16.3170   19.1930 C   0  0  2  0  0  0  0  0  0  0  0  0
   16.6800   17.3050   18.2450 C   0  0  0  0  0  0  0  0  0  0  0  0
   15.8700   18.0690   18.7110 O   0  0  0  0  0  0  0  0  0  0  0  0
   17.0010   17.3000   16.9430 N   0  0  0  0  0  0  0  0  0  0  0  0
   16.2970   18.1940   16.0220 C   0  0  2  0  0  0  0  0  0  0  0  0
   15.6580   17.4070   14.8700 C   0  0  0  0  0  0  0  0  0  0  0  0
   15.8500   16.1880   14.7750 O   0  0  0  0  0  0  0  0  0  0  0  0
   17.1850   19.3420   15.5220 C   0  0  0  0  0  0  0  0  0  0  0  0
   18.4200   18.9060   14.7620 C   0  0  0  0  0  0  0  0  0  0  0  0
   18.7150   19.2650   13.4540 C   0  0  0  0  0  0  0  0  0  0  0  0
   20.0300   18.8360   13.0200 C   0  0  0  0  0  0  0  0  0  0  0  0
   20.7420   18.1300   14.0190 C   0  0  0  0  0  0  0  0  0  0  0  0
   19.7110   18.0740   15.3800 S   0  0  0  0  0  0  0  0  0  0  0  0
   14.8790   18.0830   14.0270 N   0  0  0  0  0  0  0  0  0  0  0  0
   14.1810   17.4840   12.8910 C   0  0  0  0  0  0  0  0  0  0  0  0
   14.4840   18.1530   11.5700 C   0  0  0  0  0  0  0  0  0  0  0  0
   13.2690   18.1360   10.6350 C   0  0  0  0  0  0  0  0  0  0  0  0
   13.1540   16.8750    9.7610 C   0  0  0  0  0  0  0  0  0  0  0  0
   12.0580   17.0340    8.6720 C   0  0  0  0  0  0  0  0  0  0  0  0
   11.7840   15.7170    7.9300 C   0  0  0  0  0  0  0  0  0  0  0  0
   10.6010   15.7900    6.9350 C   0  0  0  0  0  0  0  0  0  0  0  0
   10.9710   16.4690    5.6060 C   0  0  0  0  0  0  0  0  0  0  0  0
    9.9470   16.2000    4.4770 C   0  0  0  0  0  0  0  0  0  0  0  0
   10.3160   16.9830    3.2000 C   0  0  0  0  0  0  0  0  0  0  0  0
    9.6540   16.4440    1.9160 C   0  0  0  0  0  0  0  0  0  0  0  0
    8.3130   17.0920    1.5830 C   0  0  0  0  0  0  0  0  0  0  0  0
    8.0640   17.4730    0.4360 O   0  0  0  0  0  0  0  0  0  0  0  0
    7.4550   17.2130    2.5890 N   0  0  0  0  0  0  0  0  0  0  0  0
    6.1220   17.7970    2.4590 C   0  0  2  0  0  0  0  0  0  0  0  0
    6.1300   19.2300    1.8990 C   0  0  0  0  0  0  0  0  0  0  0  0
    5.1350   19.7060    1.3630 O   0  0  0  0  0  0  0  0  0  0  0  0
    5.4860   17.8030    3.8550 C   0  0  0  0  0  0  0  0  0  0  0  0
    3.9760   17.9080    3.8240 C   0  0  0  0  0  0  0  0  0  0  0  0
    3.3640   17.6440    4.8790 O   0  5  0  0  0  0  0  0  0  0  0  0
    3.3940   18.2460    2.7700 O   0  0  0  0  0  0  0  0  0  0  0  0
    7.2770   19.8850    1.9940 N   0  0  0  0  0  0  0  0  0  0  0  0
    7.4420   21.2730    1.5770 C   0  0  2  0  0  0  0  0  0  0  0  0
    7.3160   21.6180    0.1020 C   0  0  0  0  0  0  0  0  0  0  0  0
    7.7780   20.8670   -0.7630 O   0  0  0  0  0  0  0  0  0  0  0  0
    8.7610   21.8050    2.1540 C   0  0  0  0  0  0  0  0  0  0  0  0
    8.7860   21.6430    3.6550 C   0  0  0  0  0  0  0  0  0  0  0  0
    9.2100   20.4470    4.2380 C   0  0  0  0  0  0  0  0  0  0  0  0
    8.2400   22.6200    4.4850 C   0  0  0  0  0  0  0  0  0  0  0  0
    9.0680   20.2220    5.5970 C   0  0  0  0  0  0  0  0  0  0  0  0
    8.0970   22.4050    5.8500 C   0  0  0  0  0  0  0  0  0  0  0  0
    8.5060   21.2020    6.3970 C   0  0  0  0  0  0  0  0  0  0  0  0
    8.3040   20.9560    7.7340 O   0  0  0  0  0  0  0  0  0  0  0  0
    6.6460   22.7400   -0.1670 N   0  0  0  0  0  0  0  0  0  0  0  0
    6.4590   23.2500   -1.5260 C   0  0  2  0  0  0  0  0  0  0  0  0
    7.7460   23.9080   -1.9980 C   0  0  0  0  0  0  0  0  0  0  0  0
    8.3290   24.7370   -1.2970 O   0  0  0  0  0  0  0  0  0  0  0  0
    5.3390   24.2980   -1.5790 C   0  0  0  0  0  0  0  0  0  0  0  0
    5.3650   25.1750   -2.8380 C   0  0  0  0  0  0  0  0  0  0  0  0
    4.3970   26.3390   -2.8170 C   0  0  0  0  0  0  0  0  0  0  0  0
    4.7090   27.3980   -3.3940 O   0  5  0  0  0  0  0  0  0  0  0  0
    3.3140   26.2010   -2.2330 O   0  0  0  0  0  0  0  0  0  0  0  0
    8.2100   23.5500   -3.2010 N   0  0  0  0  0  0  0  0  0  0  0  0
    9.4420   24.1540   -3.7050 C   0  0  2  0  0  0  0  0  0  0  0  0
    9.3900   25.6800   -3.6420 C   0  0  0  0  0  0  0  0  0  0  0  0
    8.3530   26.2890   -3.8760 O   0  0  0  0  0  0  0  0  0  0  0  0
    9.4930   23.6480   -5.1400 C   0  0  0  0  0  0  0  0  0  0  0  0
    8.8800   22.2760   -5.0150 C   0  0  0  0  0  0  0  0  0  0  0  0
    7.6850   22.5470   -4.1480 C   0  0  0  0  0  0  0  0  0  0  0  0
   10.5080   26.2780   -3.2630 N   0  0  0  0  0  0  0  0  0  0  0  0
   10.6220   27.7160   -3.1640 C   0  0  2  0  0  0  0  0  0  0  0  0
   10.9990   28.2280   -4.5450 C   0  0  0  0  0  0  0  0  0  0  0  0
   11.9500   27.7340   -5.1550 O   0  0  0  0  0  0  0  0  0  0  0  0
   11.7350   28.1040   -2.1680 C   0  0  2  0  0  0  0  0  0  0  0  0
   11.3430   27.6970   -0.7470 C   0  0  0  0  0  0  0  0  0  0  0  0
   12.0280   29.5940   -2.2560 C   0  0  0  0  0  0  0  0  0  0  0  0
   12.4580   27.8490    0.2550 C   0  0  0  0  0  0  0  0  0  0  0  0
   10.2200   29.1790   -5.0860 N   0  0  0  0  0  0  0  0  0  0  0  0
   10.4910   29.7540   -6.4070 C   0  0  2  0  0  0  0  0  0  0  0  0
   11.8010   30.5320   -6.3540 C   0  0  0  0  0  0  0  0  0  0  0  0
   12.2820   30.8590   -5.2720 O   0  0  0  0  0  0  0  0  0  0  0  0
    9.3170   30.7100   -6.6070 C   0  0  0  0  0  0  0  0  0  0  0  0
    8.2240   30.0930   -5.7960 C   0  0  0  0  0  0  0  0  0  0  0  0
    8.9490   29.6890   -4.5480 C   0  0  0  0  0  0  0  0  0  0  0  0
   12.3610   30.8490   -7.5150 N   0  0  0  0  0  0  0  0  0  0  0  0
   13.6030   31.6120   -7.5850 C   0  0  2  0  0  0  0  0  0  0  0  0
   13.2840   33.0690   -7.2390 C   0  0  0  0  0  0  0  0  0  0  0  0
   13.3490   33.9570   -8.0880 O   0  0  0  0  0  0  0  0  0  0  0  0
   14.1930   31.5030   -8.9910 C   0  0  0  0  0  0  0  0  0  0  0  0
   14.4410   30.0600   -9.4420 C   0  0  0  0  0  0  0  0  0  0  0  0
   14.4910   29.9090  -10.9610 C   0  0  0  0  0  0  0  0  0  0  0  0
   15.6060   29.9030  -11.5320 O   0  5  0  0  0  0  0  0  0  0  0  0
   13.4100   29.7880  -11.5820 O   0  0  0  0  0  0  0  0  0  0  0  0
   12.8890   33.2840   -5.9900 N   0  0  0  0  0  0  0  0  0  0  0  0
   12.5290   34.5960   -5.4700 C   0  0  2  0  0  0  0  0  0  0  0  0
   13.3060   34.7510   -4.1680 C   0  0  0  0  0  0  0  0  0  0  0  0
   12.7120   34.8830   -3.0970 O   0  0  0  0  0  0  0  0  0  0  0  0
   11.0210   34.6560   -5.1890 C   0  0  0  0  0  0  0  0  0  0  0  0
   10.3040   35.8680   -5.7890 C   0  0  0  0  0  0  0  0  0  0  0  0
    9.6500   35.5880   -7.1460 C   0  0  0  0  0  0  0  0  0  0  0  0
    8.5700   36.1680   -7.4060 O   0  5  0  0  0  0  0  0  0  0  0  0
   10.2060   34.8010   -7.9520 O   0  0  0  0  0  0  0  0  0  0  0  0
   14.6310   34.6810   -4.3130 N   0  0  0  0  0  0  0  0  0  0  0  0
   15.6580   34.7780   -3.2670 C   0  0  2  0  0  0  0  0  0  0  0  0
   16.5500   33.5420   -3.3710 C   0  0  0  0  0  0  0  0  0  0  0  0
   17.7730   33.6810   -3.1730 O   0  5  0  0  0  0  0  0  0  0  0  0
   15.0600   34.8810   -1.8670 C   0  0  0  0  0  0  0  0  0  0  0  0
   16.0190   32.4510   -3.6760 O   0  0  0  0  0  0  0  0  0  0  0  0
   14.6559   13.4759   22.1578 H   0  0  0  0  0  0  0  0  0  0  0  0
   15.0185   14.6197   23.2845 H   0  0  0  0  0  0  0  0  0  0  0  0
   16.2186   13.7115   22.6179 H   0  0  0  0  0  0  0  0  0  0  0  0
   15.8846   14.6958   20.4141 H   0  0  0  0  0  0  0  0  0  0  0  0
   13.4681   14.9859   20.7016 H   0  0  0  0  0  0  0  0  0  0  0  0
   14.2565   16.4707   20.0690 H   0  0  0  0  0  0  0  0  0  0  0  0
   14.2796   17.4387   22.3444 H   0  0  0  0  0  0  0  0  0  0  0  0
   13.5171   15.9475   22.9936 H   0  0  0  0  0  0  0  0  0  0  0  0
   11.6252   16.3342   21.3399 H   0  0  0  0  0  0  0  0  0  0  0  0
   12.3536   17.9417   21.0051 H   0  0  0  0  0  0  0  0  0  0  0  0
   10.7304   17.1604   23.3217 H   0  0  0  0  0  0  0  0  0  0  0  0
   12.8466   20.6265   23.3400 H   0  0  0  0  0  0  0  0  0  0  0  0
   13.2242   19.3729   22.1281 H   0  0  0  0  0  0  0  0  0  0  0  0
   10.2792   18.7195   24.8608 H   0  0  0  0  0  0  0  0  0  0  0  0
   11.2076   20.2425   24.8974 H   0  0  0  0  0  0  0  0  0  0  0  0
   17.8251   18.5389   21.7299 H   0  0  0  0  0  0  0  0  0  0  0  0
   17.8832   18.7851   19.9515 H   0  0  0  0  0  0  0  0  0  0  0  0
   19.6746   16.8009   21.4194 H   0  0  0  0  0  0  0  0  0  0  0  0
   20.1650   18.4883   21.0468 H   0  0  0  0  0  0  0  0  0  0  0  0
   20.7384   17.0805   19.2498 H   0  0  0  0  0  0  0  0  0  0  0  0
   19.3971   18.1848   18.7935 H   0  0  0  0  0  0  0  0  0  0  0  0
   19.2514   15.2580   19.4318 H   0  0  0  0  0  0  0  0  0  0  0  0
   19.0484   16.0629   17.8388 H   0  0  0  0  0  0  0  0  0  0  0  0
   16.8797   15.3389   19.1158 H   0  0  0  0  0  0  0  0  0  0  0  0
   17.7166   16.6896   16.6034 H   0  0  0  0  0  0  0  0  0  0  0  0
   15.4754   18.6553   16.5896 H   0  0  0  0  0  0  0  0  0  0  0  0
   17.5095   19.9283   16.3943 H   0  0  0  0  0  0  0  0  0  0  0  0
   16.5810   19.9771   14.8574 H   0  0  0  0  0  0  0  0  0  0  0  0
   18.0255   19.8155   12.8157 H   0  0  0  0  0  0  0  0  0  0  0  0
   20.4292   19.0364   12.0268 H   0  0  0  0  0  0  0  0  0  0  0  0
   21.7428   17.7085   13.9368 H   0  0  0  0  0  0  0  0  0  0  0  0
   14.7642   19.0643   14.1814 H   0  0  0  0  0  0  0  0  0  0  0  0
   13.0984   17.5512   13.0739 H   0  0  0  0  0  0  0  0  0  0  0  0
   14.4760   16.4267   12.8204 H   0  0  0  0  0  0  0  0  0  0  0  0
   15.3156   17.6220   11.0837 H   0  0  0  0  0  0  0  0  0  0  0  0
   14.7752   19.1971   11.7574 H   0  0  0  0  0  0  0  0  0  0  0  0
   13.3348   19.0099    9.9702 H   0  0  0  0  0  0  0  0  0  0  0  0
   12.3606   18.2112   11.2507 H   0  0  0  0  0  0  0  0  0  0  0  0
   12.8991   16.0181   10.4019 H   0  0  0  0  0  0  0  0  0  0  0  0
   14.1211   16.6910    9.2703 H   0  0  0  0  0  0  0  0  0  0  0  0
   12.3888   17.7890    7.9437 H   0  0  0  0  0  0  0  0  0  0  0  0
   11.1273   17.3706    9.1521 H   0  0  0  0  0  0  0  0  0  0  0  0
   11.5614   14.9396    8.6757 H   0  0  0  0  0  0  0  0  0  0  0  0
   12.6898   15.4400    7.3707 H   0  0  0  0  0  0  0  0  0  0  0  0
    9.7844   16.3591    7.4033 H   0  0  0  0  0  0  0  0  0  0  0  0
   10.2593   14.7664    6.7218 H   0  0  0  0  0  0  0  0  0  0  0  0
   11.9534   16.0936    5.2834 H   0  0  0  0  0  0  0  0  0  0  0  0
   11.0300   17.5547    5.7728 H   0  0  0  0  0  0  0  0  0  0  0  0
    8.9480   16.5128    4.8150 H   0  0  0  0  0  0  0  0  0  0  0  0
    9.9368   15.1239    4.2491 H   0  0  0  0  0  0  0  0  0  0  0  0
   11.4074   16.9379    3.0707 H   0  0  0  0  0  0  0  0  0  0  0  0
   10.0057   18.0296    3.3351 H   0  0  0  0  0  0  0  0  0  0  0  0
    9.4934   15.3627    2.0386 H   0  0  0  0  0  0  0  0  0  0  0  0
   10.3402   16.6197    1.0744 H   0  0  0  0  0  0  0  0  0  0  0  0
    7.7382   16.8846    3.4901 H   0  0  0  0  0  0  0  0  0  0  0  0
    5.5247   17.1656    1.7848 H   0  0  0  0  0  0  0  0  0  0  0  0
    5.8842   18.6609    4.4166 H   0  0  0  0  0  0  0  0  0  0  0  0
    5.7607   16.8695    4.3680 H   0  0  0  0  0  0  0  0  0  0  0  0
    8.0691   19.4043    2.3702 H   0  0  0  0  0  0  0  0  0  0  0  0
    6.6283   21.8256    2.0694 H   0  0  0  0  0  0  0  0  0  0  0  0
    8.8616   22.8713    1.9035 H   0  0  0  0  0  0  0  0  0  0  0  0
    9.5999   21.2446    1.7156 H   0  0  0  0  0  0  0  0  0  0  0  0
    9.6583   19.6810    3.6156 H   0  0  0  0  0  0  0  0  0  0  0  0
    7.9213   23.5641    4.0582 H   0  0  0  0  0  0  0  0  0  0  0  0
    9.3949   19.2843    6.0316 H   0  0  0  0  0  0  0  0  0  0  0  0
    7.6681   23.1743    6.4819 H   0  0  0  0  0  0  0  0  0  0  0  0
    8.6383   20.0935    7.9502 H   0  0  0  0  0  0  0  0  0  0  0  0
    6.2538   23.2559    0.5946 H   0  0  0  0  0  0  0  0  0  0  0  0
    6.2049   22.4125   -2.1923 H   0  0  0  0  0  0  0  0  0  0  0  0
    5.4351   24.9520   -0.6998 H   0  0  0  0  0  0  0  0  0  0  0  0
    4.3726   23.7739   -1.5423 H   0  0  0  0  0  0  0  0  0  0  0  0
    5.1198   24.5408   -3.7027 H   0  0  0  0  0  0  0  0  0  0  0  0
    6.3822   25.5771   -2.9548 H   0  0  0  0  0  0  0  0  0  0  0  0
   10.3135   23.8009   -3.1343 H   0  0  0  0  0  0  0  0  0  0  0  0
   10.5286   23.5904   -5.5062 H   0  0  0  0  0  0  0  0  0  0  0  0
    8.9021   24.2894   -5.8105 H   0  0  0  0  0  0  0  0  0  0  0  0
    8.5803   21.8811   -5.9969 H   0  0  0  0  0  0  0  0  0  0  0  0
    9.5727   21.5711   -4.5321 H   0  0  0  0  0  0  0  0  0  0  0  0
    6.8489   22.9528   -4.7364 H   0  0  0  0  0  0  0  0  0  0  0  0
    7.3572   21.6369   -3.6244 H   0  0  0  0  0  0  0  0  0  0  0  0
   11.3029   25.7149   -3.0369 H   0  0  0  0  0  0  0  0  0  0  0  0
    9.6647   28.1505   -2.8403 H   0  0  0  0  0  0  0  0  0  0  0  0
   12.6500   27.5579   -2.4409 H   0  0  0  0  0  0  0  0  0  0  0  0
   11.0302   26.6425   -0.7614 H   0  0  0  0  0  0  0  0  0  0  0  0
   10.4993   28.3254   -0.4258 H   0  0  0  0  0  0  0  0  0  0  0  0
   12.3060   29.8526   -3.2884 H   0  0  0  0  0  0  0  0  0  0  0  0
   12.8578   29.8452   -1.5790 H   0  0  0  0  0  0  0  0  0  0  0  0
   11.1321   30.1617   -1.9644 H   0  0  0  0  0  0  0  0  0  0  0  0
   12.1027   27.5388    1.2487 H   0  0  0  0  0  0  0  0  0  0  0  0
   12.7771   28.9010    0.2917 H   0  0  0  0  0  0  0  0  0  0  0  0
   13.3081   27.2181   -0.0438 H   0  0  0  0  0  0  0  0  0  0  0  0
   10.5301   28.9846   -7.1921 H   0  0  0  0  0  0  0  0  0  0  0  0
    9.0340   30.7688   -7.6683 H   0  0  0  0  0  0  0  0  0  0  0  0
    9.5616   31.7164   -6.2364 H   0  0  0  0  0  0  0  0  0  0  0  0
    7.4289   30.8212   -5.5779 H   0  0  0  0  0  0  0  0  0  0  0  0
    7.7917   29.2201   -6.3070 H   0  0  0  0  0  0  0  0  0  0  0  0
    9.1127   30.5505   -3.8840 H   0  0  0  0  0  0  0  0  0  0  0  0
    8.4019   28.9052   -4.0036 H   0  0  0  0  0  0  0  0  0  0  0  0
   11.9202   30.5573   -8.3639 H   0  0  0  0  0  0  0  0  0  0  0  0
   14.3257   31.2124   -6.8583 H   0  0  0  0  0  0  0  0  0  0  0  0
   15.1515   32.0424   -9.0087 H   0  0  0  0  0  0  0  0  0  0  0  0
   13.4944   31.9733   -9.6987 H   0  0  0  0  0  0  0  0  0  0  0  0
   13.6295   29.4271   -9.0535 H   0  0  0  0  0  0  0  0  0  0  0  0
   15.4011   29.7225   -9.0246 H   0  0  0  0  0  0  0  0  0  0  0  0
   12.8356   32.5005   -5.3709 H   0  0  0  0  0  0  0  0  0  0  0  0
   12.8066   35.3854   -6.1840 H   0  0  0  0  0  0  0  0  0  0  0  0
   10.8767   34.6782   -4.0987 H   0  0  0  0  0  0  0  0  0  0  0  0
   10.5596   33.7467   -5.6015 H   0  0  0  0  0  0  0  0  0  0  0  0
   11.0381   36.6770   -5.9178 H   0  0  0  0  0  0  0  0  0  0  0  0
    9.5215   36.1913   -5.0867 H   0  0  0  0  0  0  0  0  0  0  0  0
   14.9648   34.5463   -5.2460 H   0  0  0  0  0  0  0  0  0  0  0  0
   16.2641   35.6776   -3.4497 H   0  0  0  0  0  0  0  0  0  0  0  0
   15.8703   34.9508   -1.1264 H   0  0  0  0  0  0  0  0  0  0  0  0
   14.4515   33.9880   -1.6616 H   0  0  0  0  0  0  0  0  0  0  0  0
   14.4271   35.7785   -1.8037 H   0  0  0  0  0  0  0  0  0  0  0  0
  1119  1  0  0  0  0
  1120  1  0  0  0  0
  1121  1  0  0  0  0
  2  1  1  0  0  0  0
  2  5  1  0  0  0  0
  2122  1  6  0  0  0
  3  2  1  0  0  0  0
  3  4  2  0  0  0  0
  5  6  1  0  0  0  0
  5123  1  0  0  0  0
  5124  1  0  0  0  0
  6  7  1  0  0  0  0
  6125  1  0  0  0  0
  6126  1  0  0  0  0
  7  8  1  0  0  0  0
  7127  1  0  0  0  0
  7128  1  0  0  0  0
  8  9  1  0  0  0  0
  8129  1  0  0  0  0
  9 11  1  0  0  0  0
  9 10  1  0  0  0  0
 10130  1  0  0  0  0
 10131  1  0  0  0  0
 11132  1  0  0  0  0
 11133  1  0  0  0  0
 12 13  1  0  0  0  0
 12  3  1  0  0  0  0
 13 14  1  0  0  0  0
 13134  1  0  0  0  0
 13135  1  0  0  0  0
 14136  1  0  0  0  0
 14137  1  0  0  0  0
 15 14  1  0  0  0  0
 15138  1  0  0  0  0
 15139  1  0  0  0  0
 16 15  1  0  0  0  0
 16140  1  0  0  0  0
 16141  1  0  0  0  0
 17 12  1  0  0  0  0
 17 16  1  0  0  0  0
 17142  1  6  0  0  0
 18 17  1  0  0  0  0
 18 19  2  0  0  0  0
 20 18  1  0  0  0  0
 20143  1  0  0  0  0
 21 20  1  0  0  0  0
 21 24  1  0  0  0  0
 21144  1  1  0  0  0
 22 21  1  0  0  0  0
 22 23  2  0  0  0  0
 24 25  1  0  0  0  0
 24145  1  0  0  0  0
 24146  1  0  0  0  0
 25 26  2  0  0  0  0
 25 29  1  0  0  0  0
 26 27  1  0  0  0  0
 26147  1  0  0  0  0
 27148  1  0  0  0  0
 28 27  2  0  0  0  0
 28149  1  0  0  0  0
 29 28  1  0  0  0  0
 30 22  1  0  0  0  0
 30150  1  0  0  0  0
 31 30  1  0  0  0  0
 31151  1  0  0  0  0
 31152  1  0  0  0  0
 32 31  1  0  0  0  0
 32153  1  0  0  0  0
 32154  1  0  0  0  0
 33 32  1  0  0  0  0
 33155  1  0  0  0  0
 33156  1  0  0  0  0
 34 33  1  0  0  0  0
 34157  1  0  0  0  0
 34158  1  0  0  0  0
 35 34  1  0  0  0  0
 35159  1  0  0  0  0
 35160  1  0  0  0  0
 36 35  1  0  0  0  0
 36161  1  0  0  0  0
 36162  1  0  0  0  0
 37 36  1  0  0  0  0
 37163  1  0  0  0  0
 37164  1  0  0  0  0
 38 37  1  0  0  0  0
 38165  1  0  0  0  0
 38166  1  0  0  0  0
 39 38  1  0  0  0  0
 39167  1  0  0  0  0
 39168  1  0  0  0  0
 40 39  1  0  0  0  0
 40169  1  0  0  0  0
 40170  1  0  0  0  0
 41 40  1  0  0  0  0
 41171  1  0  0  0  0
 41172  1  0  0  0  0
 42 41  1  0  0  0  0
 42 43  2  0  0  0  0
 44 45  1  0  0  0  0
 44 42  1  0  0  0  0
 44173  1  0  0  0  0
 45 48  1  0  0  0  0
 45 46  1  0  0  0  0
 45174  1  6  0  0  0
 46 47  2  0  0  0  0
 46 52  1  0  0  0  0
 48 49  1  0  0  0  0
 48175  1  0  0  0  0
 48176  1  0  0  0  0
 49 50  1  0  0  0  0
 49 51  2  0  0  0  0
 52 53  1  0  0  0  0
 52177  1  0  0  0  0
 53 56  1  0  0  0  0
 53 54  1  0  0  0  0
 53178  1  1  0  0  0
 54 55  2  0  0  0  0
 54 64  1  0  0  0  0
 56 57  1  0  0  0  0
 56179  1  0  0  0  0
 56180  1  0  0  0  0
 57 58  2  0  0  0  0
 57 59  1  0  0  0  0
 58 60  1  0  0  0  0
 58181  1  0  0  0  0
 59 61  2  0  0  0  0
 59182  1  0  0  0  0
 60 62  2  0  0  0  0
 60183  1  0  0  0  0
 61 62  1  0  0  0  0
 61184  1  0  0  0  0
 62 63  1  0  0  0  0
 63185  1  0  0  0  0
 64 65  1  0  0  0  0
 64186  1  0  0  0  0
 65 68  1  0  0  0  0
 65 66  1  0  0  0  0
 65187  1  6  0  0  0
 66 67  2  0  0  0  0
 66 73  1  0  0  0  0
 68 69  1  0  0  0  0
 68188  1  0  0  0  0
 68189  1  0  0  0  0
 69 70  1  0  0  0  0
 69190  1  0  0  0  0
 69191  1  0  0  0  0
 70 72  2  0  0  0  0
 70 71  1  0  0  0  0
 73 74  1  0  0  0  0
 73 79  1  0  0  0  0
 74 75  1  0  0  0  0
 74 77  1  0  0  0  0
 74192  1  1  0  0  0
 75 76  2  0  0  0  0
 75 80  1  0  0  0  0
 77193  1  0  0  0  0
 77194  1  0  0  0  0
 78 77  1  0  0  0  0
 78195  1  0  0  0  0
 78196  1  0  0  0  0
 79 78  1  0  0  0  0
 79197  1  0  0  0  0
 79198  1  0  0  0  0
 80 81  1  0  0  0  0
 80199  1  0  0  0  0
 81 84  1  0  0  0  0
 81 82  1  0  0  0  0
 81200  1  1  0  0  0
 82 83  2  0  0  0  0
 82 88  1  0  0  0  0
 84 86  1  0  0  0  0
 84 85  1  0  0  0  0
 84201  1  6  0  0  0
 85 87  1  0  0  0  0
 85202  1  0  0  0  0
 85203  1  0  0  0  0
 86204  1  0  0  0  0
 86205  1  0  0  0  0
 86206  1  0  0  0  0
 87207  1  0  0  0  0
 87208  1  0  0  0  0
 87209  1  0  0  0  0
 88 89  1  0  0  0  0
 88 94  1  0  0  0  0
 89 90  1  0  0  0  0
 89 92  1  0  0  0  0
 89210  1  6  0  0  0
 90 91  2  0  0  0  0
 90 95  1  0  0  0  0
 92211  1  0  0  0  0
 92212  1  0  0  0  0
 93 92  1  0  0  0  0
 93213  1  0  0  0  0
 93214  1  0  0  0  0
 94 93  1  0  0  0  0
 94215  1  0  0  0  0
 94216  1  0  0  0  0
 95 96  1  0  0  0  0
 95217  1  0  0  0  0
 96 99  1  0  0  0  0
 96 97  1  0  0  0  0
 96218  1  1  0  0  0
 97 98  2  0  0  0  0
 97104  1  0  0  0  0
 99100  1  0  0  0  0
 99219  1  0  0  0  0
 99220  1  0  0  0  0
100101  1  0  0  0  0
100221  1  0  0  0  0
100222  1  0  0  0  0
101103  2  0  0  0  0
101102  1  0  0  0  0
104105  1  0  0  0  0
104223  1  0  0  0  0
105108  1  0  0  0  0
105106  1  0  0  0  0
105224  1  6  0  0  0
106107  2  0  0  0  0
106113  1  0  0  0  0
108109  1  0  0  0  0
108225  1  0  0  0  0
108226  1  0  0  0  0
109110  1  0  0  0  0
109227  1  0  0  0  0
109228  1  0  0  0  0
110112  2  0  0  0  0
110111  1  0  0  0  0
113114  1  0  0  0  0
113229  1  0  0  0  0
114117  1  0  0  0  0
114115  1  0  0  0  0
114230  1  6  0  0  0
115116  1  0  0  0  0
115118  2  0  0  0  0
117231  1  0  0  0  0
117232  1  0  0  0  0
117233  1  0  0  0  0
M  CHG  6   1   1  50  -1  71  -1 102  -1 111  -1 116  -1
M  END
