1eol_ligand
 OpenBabel08222323343D

245248  0  0  1  0  0  0  0  0999 V2000
   15.3190   14.3180   22.4770 N   0  3  0  0  0  0  0  0  0  0  0  0
   15.3720   15.1970   21.3030 C   0  0  2  0  0  0  0  0  0  0  0  0
   16.3940   16.2490   21.6590 C   0  0  0  0  0  0  0  0  0  0  0  0
   16.4620   16.6790   22.8100 O   0  0  0  0  0  0  0  0  0  0  0  0
   14.0060   15.8120   21.0110 C   0  0  0  0  0  0  0  0  0  0  0  0
   13.4140   16.5670   22.1780 C   0  0  0  0  0  0  0  0  0  0  0  0
   12.0640   17.1760   21.7990 C   0  0  0  0  0  0  0  0  0  0  0  0
   11.4090   17.7400   22.9760 N   0  0  0  0  0  0  0  0  0  0  0  0
   11.6850   18.9330   23.4920 C   0  0  0  0  0  3  0  0  0  0  0  0
   12.6290   19.6950   22.9520 N   0  0  0  0  0  0  0  0  0  0  0  0
   11.0220   19.3560   24.5570 N   0  0  0  0  0  0  0  0  0  0  0  0
   17.2240   16.6890   20.6970 N   0  0  0  0  0  0  0  0  0  0  0  0
   17.9700   17.9700   20.8720 C   0  0  0  0  0  0  0  0  0  0  0  0
   19.4210   17.5680   20.8270 C   0  0  0  0  0  0  0  0  0  0  0  0
   19.6010   17.1040   19.4550 C   0  0  0  0  0  0  0  0  0  0  0  0
   18.7060   15.9810   19.0010 C   0  0  0  0  0  0  0  0  0  0  0  0
   17.2290   16.2020   19.3240 C   0  0  2  0  0  0  0  0  0  0  0  0
   16.5490   17.1520   18.3490 C   0  0  0  0  0  0  0  0  0  0  0  0
   15.7640   18.0350   18.7740 O   0  0  0  0  0  0  0  0  0  0  0  0
   16.8430   17.0170   17.0620 N   0  0  0  0  0  0  0  0  0  0  0  0
   16.2680   17.8550   16.0470 C   0  0  2  0  0  0  0  0  0  0  0  0
   15.3670   17.2280   14.9780 C   0  0  0  0  0  0  0  0  0  0  0  0
   15.2670   16.0010   14.9130 O   0  0  0  0  0  0  0  0  0  0  0  0
   17.2180   18.9140   15.4500 C   0  0  0  0  0  0  0  0  0  0  0  0
   18.4510   18.3180   14.8220 C   0  0  0  0  0  0  0  0  0  0  0  0
   19.3230   19.3980   14.2170 C   0  0  0  0  0  0  0  0  0  0  0  0
   20.5980   19.0180   13.5200 C   0  0  0  0  0  0  0  0  0  0  0  0
   14.7210   18.0280   14.1400 N   0  0  0  0  0  0  0  0  0  0  0  0
   13.8340   17.6200   13.0730 C   0  0  0  0  0  0  0  0  0  0  0  0
   14.5150   17.6210   11.7020 C   0  0  0  0  0  0  0  0  0  0  0  0
   13.5230   17.9240   10.5670 C   0  0  0  0  0  0  0  0  0  0  0  0
   12.9770   16.6740    9.8620 C   0  0  0  0  0  0  0  0  0  0  0  0
   12.0270   17.0220    8.6840 C   0  0  0  0  0  0  0  0  0  0  0  0
   11.5500   15.7480    7.9660 C   0  0  0  0  0  0  0  0  0  0  0  0
   10.3660   15.9710    7.0130 C   0  0  0  0  0  0  0  0  0  0  0  0
   10.7940   16.4350    5.6190 C   0  0  0  0  0  0  0  0  0  0  0  0
    9.6800   16.2210    4.5780 C   0  0  0  0  0  0  0  0  0  0  0  0
   10.0730   16.8130    3.2180 C   0  0  0  0  0  0  0  0  0  0  0  0
    9.2750   16.2300    2.0430 C   0  0  0  0  0  0  0  0  0  0  0  0
    8.0030   16.9960    1.7030 C   0  0  0  0  0  0  0  0  0  0  0  0
    7.8190   17.4160    0.5590 O   0  0  0  0  0  0  0  0  0  0  0  0
    7.1370   17.1880    2.6960 N   0  0  0  0  0  0  0  0  0  0  0  0
    5.8600   17.8810    2.5390 C   0  0  2  0  0  0  0  0  0  0  0  0
    5.9510   19.3110    1.9980 C   0  0  0  0  0  0  0  0  0  0  0  0
    4.9580   19.8770    1.5590 O   0  0  0  0  0  0  0  0  0  0  0  0
    5.1670   17.9050    3.9010 C   0  0  0  0  0  0  0  0  0  0  0  0
    3.6780   17.6660    3.8060 C   0  0  0  0  0  0  0  0  0  0  0  0
    3.0420   17.5420    4.8710 O   0  5  0  0  0  0  0  0  0  0  0  0
    3.1410   17.5960    2.6780 O   0  0  0  0  0  0  0  0  0  0  0  0
    7.1600   19.8580    1.9800 N   0  0  0  0  0  0  0  0  0  0  0  0
    7.4040   21.2360    1.5590 C   0  0  2  0  0  0  0  0  0  0  0  0
    7.3330   21.6260    0.0890 C   0  0  0  0  0  0  0  0  0  0  0  0
    7.9570   20.9970   -0.7690 O   0  0  0  0  0  0  0  0  0  0  0  0
    8.7220   21.7180    2.1630 C   0  0  0  0  0  0  0  0  0  0  0  0
    8.6870   21.6540    3.6630 C   0  0  0  0  0  0  0  0  0  0  0  0
    8.9960   20.4690    4.3320 C   0  0  0  0  0  0  0  0  0  0  0  0
    8.2400   22.7410    4.4110 C   0  0  0  0  0  0  0  0  0  0  0  0
    8.8450   20.3620    5.7050 C   0  0  0  0  0  0  0  0  0  0  0  0
    8.0880   22.6460    5.7830 C   0  0  0  0  0  0  0  0  0  0  0  0
    8.3860   21.4580    6.4170 C   0  0  0  0  0  0  0  0  0  0  0  0
    8.1840   21.3770    7.7650 O   0  0  0  0  0  0  0  0  0  0  0  0
    6.5620   22.6780   -0.1760 N   0  0  0  0  0  0  0  0  0  0  0  0
    6.3970   23.2280   -1.5140 C   0  0  2  0  0  0  0  0  0  0  0  0
    7.6920   23.9550   -1.8900 C   0  0  0  0  0  0  0  0  0  0  0  0
    8.2010   24.7820   -1.1330 O   0  0  0  0  0  0  0  0  0  0  0  0
    5.2320   24.2150   -1.5280 C   0  0  0  0  0  0  0  0  0  0  0  0
    5.1100   25.0200   -2.8080 C   0  0  0  0  0  0  0  0  0  0  0  0
    4.1300   26.1700   -2.6900 C   0  0  0  0  0  0  0  0  0  0  0  0
    4.3470   27.1990   -3.3650 O   0  5  0  0  0  0  0  0  0  0  0  0
    3.1490   26.0520   -1.9260 O   0  0  0  0  0  0  0  0  0  0  0  0
    8.2480   23.6470   -3.0710 N   0  0  0  0  0  0  0  0  0  0  0  0
    9.4890   24.2820   -3.5230 C   0  0  2  0  0  0  0  0  0  0  0  0
    9.4530   25.8020   -3.4590 C   0  0  0  0  0  0  0  0  0  0  0  0
    8.3960   26.4230   -3.5690 O   0  0  0  0  0  0  0  0  0  0  0  0
    9.6150   23.7920   -4.9540 C   0  0  0  0  0  0  0  0  0  0  0  0
    9.0070   22.4190   -4.8840 C   0  0  0  0  0  0  0  0  0  0  0  0
    7.7650   22.6790   -4.0720 C   0  0  0  0  0  0  0  0  0  0  0  0
   10.6270   26.3880   -3.2840 N   0  0  0  0  0  0  0  0  0  0  0  0
   10.7520   27.8270   -3.2160 C   0  0  2  0  0  0  0  0  0  0  0  0
   11.1570   28.3540   -4.5900 C   0  0  0  0  0  0  0  0  0  0  0  0
   12.1640   27.9190   -5.1530 O   0  0  0  0  0  0  0  0  0  0  0  0
   11.8150   28.2350   -2.1800 C   0  0  2  0  0  0  0  0  0  0  0  0
   11.3680   27.7970   -0.7830 C   0  0  0  0  0  0  0  0  0  0  0  0
   12.0580   29.7390   -2.2370 C   0  0  0  0  0  0  0  0  0  0  0  0
   12.4110   28.0130    0.2840 C   0  0  0  0  0  0  0  0  0  0  0  0
   10.3390   29.2460   -5.1790 N   0  0  0  0  0  0  0  0  0  0  0  0
   10.6320   29.8250   -6.4970 C   0  0  2  0  0  0  0  0  0  0  0  0
   11.9080   30.6520   -6.3860 C   0  0  0  0  0  0  0  0  0  0  0  0
   12.3000   31.0250   -5.2810 O   0  0  0  0  0  0  0  0  0  0  0  0
    9.4250   30.7290   -6.7490 C   0  0  0  0  0  0  0  0  0  0  0  0
    8.3250   30.0510   -5.9760 C   0  0  0  0  0  0  0  0  0  0  0  0
    9.0230   29.6950   -4.6930 C   0  0  0  0  0  0  0  0  0  0  0  0
   12.5360   30.9620   -7.5150 N   0  0  0  0  0  0  0  0  0  0  0  0
   13.7680   31.7490   -7.5060 C   0  0  2  0  0  0  0  0  0  0  0  0
   13.5310   33.2140   -7.1470 C   0  0  0  0  0  0  0  0  0  0  0  0
   13.8420   34.1100   -7.9160 O   0  0  0  0  0  0  0  0  0  0  0  0
   14.4650   31.6620   -8.8610 C   0  0  0  0  0  0  0  0  0  0  0  0
   14.7180   30.2480   -9.3530 C   0  0  0  0  0  0  0  0  0  0  0  0
   14.4510   30.1100  -10.8470 C   0  0  0  0  0  0  0  0  0  0  0  0
   15.4100   29.8650  -11.6170 O   0  5  0  0  0  0  0  0  0  0  0  0
   13.2760   30.2570  -11.2510 O   0  0  0  0  0  0  0  0  0  0  0  0
   12.9200   33.4380   -5.9940 N   0  0  0  0  0  0  0  0  0  0  0  0
   12.6600   34.7740   -5.4850 C   0  0  2  0  0  0  0  0  0  0  0  0
   13.3650   34.7550   -4.1360 C   0  0  0  0  0  0  0  0  0  0  0  0
   12.7320   34.7660   -3.0750 O   0  0  0  0  0  0  0  0  0  0  0  0
   11.1570   35.0170   -5.3400 C   0  0  0  0  0  0  0  0  0  0  0  0
   10.6590   36.2080   -6.1650 C   0  0  0  0  0  0  0  0  0  0  0  0
    9.5290   35.8550   -7.1300 C   0  0  0  0  0  0  0  0  0  0  0  0
    8.7150   36.7560   -7.4420 O   0  5  0  0  0  0  0  0  0  0  0  0
    9.4590   34.6880   -7.5860 O   0  0  0  0  0  0  0  0  0  0  0  0
   14.6890   34.6120   -4.2390 N   0  0  0  0  0  0  0  0  0  0  0  0
   15.6800   34.5300   -3.1570 C   0  0  2  0  0  0  0  0  0  0  0  0
   16.5640   33.3520   -3.5600 C   0  0  0  0  0  0  0  0  0  0  0  0
   17.6180   33.5500   -4.1590 O   0  0  0  0  0  0  0  0  0  0  0  0
   15.0380   34.2690   -1.8060 C   0  0  0  0  0  0  0  0  0  0  0  0
   16.0880   32.1340   -3.2880 N   0  0  0  0  0  0  0  0  0  0  0  0
   16.7870   30.8860   -3.6270 C   0  0  2  0  0  0  0  0  0  0  0  0
   16.1450   29.6840   -2.9360 C   0  0  0  0  0  0  0  0  0  0  0  0
   15.3990   29.8980   -1.9570 O   0  5  0  0  0  0  0  0  0  0  0  0
   18.2670   30.9680   -3.2600 C   0  0  0  0  0  0  0  0  0  0  0  0
   16.4060   28.5420   -3.3700 O   0  0  0  0  0  0  0  0  0  0  0  0
   14.6506   13.5810   22.3150 H   0  0  0  0  0  0  0  0  0  0  0  0
   15.0404   14.8527   23.2848 H   0  0  0  0  0  0  0  0  0  0  0  0
   16.2295   13.9165   22.6375 H   0  0  0  0  0  0  0  0  0  0  0  0
   15.7030   14.6317   20.4194 H   0  0  0  0  0  0  0  0  0  0  0  0
   13.3137   15.0032   20.7344 H   0  0  0  0  0  0  0  0  0  0  0  0
   14.1128   16.5082   20.1661 H   0  0  0  0  0  0  0  0  0  0  0  0
   14.1028   17.3719   22.4741 H   0  0  0  0  0  0  0  0  0  0  0  0
   13.2739   15.8754   23.0218 H   0  0  0  0  0  0  0  0  0  0  0  0
   11.4222   16.3937   21.3676 H   0  0  0  0  0  0  0  0  0  0  0  0
   12.2216   17.9719   21.0562 H   0  0  0  0  0  0  0  0  0  0  0  0
   10.6830   17.1740   23.4381 H   0  0  0  0  0  0  0  0  0  0  0  0
   12.8388   20.6189   23.3561 H   0  0  0  0  0  0  0  0  0  0  0  0
   13.1514   19.3621   22.1291 H   0  0  0  0  0  0  0  0  0  0  0  0
   10.2897   18.7651   24.9760 H   0  0  0  0  0  0  0  0  0  0  0  0
   11.2384   20.2760   24.9665 H   0  0  0  0  0  0  0  0  0  0  0  0
   17.7246   18.4344   21.8385 H   0  0  0  0  0  0  0  0  0  0  0  0
   17.7351   18.6715   20.0580 H   0  0  0  0  0  0  0  0  0  0  0  0
   19.6285   16.7615   21.5456 H   0  0  0  0  0  0  0  0  0  0  0  0
   20.0742   18.4268   21.0409 H   0  0  0  0  0  0  0  0  0  0  0  0
   20.6420   16.7640   19.3513 H   0  0  0  0  0  0  0  0  0  0  0  0
   19.4268   17.9606   18.7872 H   0  0  0  0  0  0  0  0  0  0  0  0
   19.0342   15.0544   19.4946 H   0  0  0  0  0  0  0  0  0  0  0  0
   18.8105   15.8728   17.9113 H   0  0  0  0  0  0  0  0  0  0  0  0
   16.6978   15.2399   19.2781 H   0  0  0  0  0  0  0  0  0  0  0  0
   17.4894   16.3048   16.7884 H   0  0  0  0  0  0  0  0  0  0  0  0
   15.5566   18.4574   16.6309 H   0  0  0  0  0  0  0  0  0  0  0  0
   17.5303   19.5966   16.2540 H   0  0  0  0  0  0  0  0  0  0  0  0
   16.6721   19.4793   14.6804 H   0  0  0  0  0  0  0  0  0  0  0  0
   18.1491   17.6141   14.0324 H   0  0  0  0  0  0  0  0  0  0  0  0
   19.0243   17.7812   15.5922 H   0  0  0  0  0  0  0  0  0  0  0  0
   19.5970   20.0822   15.0336 H   0  0  0  0  0  0  0  0  0  0  0  0
   18.7044   19.9336   13.4818 H   0  0  0  0  0  0  0  0  0  0  0  0
   21.0961   19.9249   13.1466 H   0  0  0  0  0  0  0  0  0  0  0  0
   20.3696   18.3511   12.6755 H   0  0  0  0  0  0  0  0  0  0  0  0
   21.2622   18.4997   14.2273 H   0  0  0  0  0  0  0  0  0  0  0  0
   14.8613   19.0111   14.2577 H   0  0  0  0  0  0  0  0  0  0  0  0
   12.9801   18.3127   13.0417 H   0  0  0  0  0  0  0  0  0  0  0  0
   13.4734   16.6027   13.2854 H   0  0  0  0  0  0  0  0  0  0  0  0
   14.9633   16.6318   11.5273 H   0  0  0  0  0  0  0  0  0  0  0  0
   15.3042   18.3872   11.6979 H   0  0  0  0  0  0  0  0  0  0  0  0
   14.0341   18.5473    9.8185 H   0  0  0  0  0  0  0  0  0  0  0  0
   12.6738   18.4809   10.9897 H   0  0  0  0  0  0  0  0  0  0  0  0
   12.4228   16.0694   10.5951 H   0  0  0  0  0  0  0  0  0  0  0  0
   13.8241   16.0911    9.4714 H   0  0  0  0  0  0  0  0  0  0  0  0
   12.5629   17.6603    7.9661 H   0  0  0  0  0  0  0  0  0  0  0  0
   11.1528   17.5634    9.0747 H   0  0  0  0  0  0  0  0  0  0  0  0
   11.2467   15.0150    8.7280 H   0  0  0  0  0  0  0  0  0  0  0  0
   12.3911   15.3444    7.3833 H   0  0  0  0  0  0  0  0  0  0  0  0
    9.7057   16.7354    7.4485 H   0  0  0  0  0  0  0  0  0  0  0  0
    9.8148   15.0244    6.9125 H   0  0  0  0  0  0  0  0  0  0  0  0
   11.6830   15.8649    5.3113 H   0  0  0  0  0  0  0  0  0  0  0  0
   11.0414   17.5060    5.6606 H   0  0  0  0  0  0  0  0  0  0  0  0
    8.7602   16.7105    4.9305 H   0  0  0  0  0  0  0  0  0  0  0  0
    9.4997   15.1422    4.4615 H   0  0  0  0  0  0  0  0  0  0  0  0
   11.1410   16.6132    3.0467 H   0  0  0  0  0  0  0  0  0  0  0  0
    9.9035   17.8994    3.2490 H   0  0  0  0  0  0  0  0  0  0  0  0
    8.9966   15.1963    2.2957 H   0  0  0  0  0  0  0  0  0  0  0  0
    9.9232   16.2284    1.1543 H   0  0  0  0  0  0  0  0  0  0  0  0
    7.3743   16.8376    3.6020 H   0  0  0  0  0  0  0  0  0  0  0  0
    5.2470   17.2990    1.8351 H   0  0  0  0  0  0  0  0  0  0  0  0
    5.3360   18.8885    4.3638 H   0  0  0  0  0  0  0  0  0  0  0  0
    5.6088   17.1212    4.5338 H   0  0  0  0  0  0  0  0  0  0  0  0
    7.9397   19.3018    2.2677 H   0  0  0  0  0  0  0  0  0  0  0  0
    6.6030   21.8188    2.0372 H   0  0  0  0  0  0  0  0  0  0  0  0
    8.9001   22.7580    1.8523 H   0  0  0  0  0  0  0  0  0  0  0  0
    9.5396   21.0804    1.7956 H   0  0  0  0  0  0  0  0  0  0  0  0
    9.3603   19.6180    3.7680 H   0  0  0  0  0  0  0  0  0  0  0  0
    8.0080   23.6744    3.9111 H   0  0  0  0  0  0  0  0  0  0  0  0
    9.0824   19.4350    6.2142 H   0  0  0  0  0  0  0  0  0  0  0  0
    7.7378   23.4979    6.3546 H   0  0  0  0  0  0  0  0  0  0  0  0
    8.4282   20.5108    8.0692 H   0  0  0  0  0  0  0  0  0  0  0  0
    6.0723   23.1117    0.5804 H   0  0  0  0  0  0  0  0  0  0  0  0
    6.2010   22.4167   -2.2305 H   0  0  0  0  0  0  0  0  0  0  0  0
    5.3651   24.9167   -0.6914 H   0  0  0  0  0  0  0  0  0  0  0  0
    4.2994   23.6490   -1.3871 H   0  0  0  0  0  0  0  0  0  0  0  0
    4.7708   24.3509   -3.6125 H   0  0  0  0  0  0  0  0  0  0  0  0
    6.0997   25.4270   -3.0624 H   0  0  0  0  0  0  0  0  0  0  0  0
   10.3366   23.9284   -2.9176 H   0  0  0  0  0  0  0  0  0  0  0  0
   10.6686   23.7444   -5.2663 H   0  0  0  0  0  0  0  0  0  0  0  0
    9.0562   24.4390   -5.6462 H   0  0  0  0  0  0  0  0  0  0  0  0
    8.7593   22.0382   -5.8858 H   0  0  0  0  0  0  0  0  0  0  0  0
    9.6767   21.7088   -4.3770 H   0  0  0  0  0  0  0  0  0  0  0  0
    6.9657   23.1110   -4.6921 H   0  0  0  0  0  0  0  0  0  0  0  0
    7.4007   21.7580   -3.5935 H   0  0  0  0  0  0  0  0  0  0  0  0
   11.4469   25.8221   -3.1968 H   0  0  0  0  0  0  0  0  0  0  0  0
    9.7832   28.2608   -2.9277 H   0  0  0  0  0  0  0  0  0  0  0  0
   12.7577   27.7221   -2.4214 H   0  0  0  0  0  0  0  0  0  0  0  0
   11.1233   26.7251   -0.8171 H   0  0  0  0  0  0  0  0  0  0  0  0
   10.4693   28.3698   -0.5107 H   0  0  0  0  0  0  0  0  0  0  0  0
   12.3771   30.0207   -3.2513 H   0  0  0  0  0  0  0  0  0  0  0  0
   12.8436   30.0111   -1.5167 H   0  0  0  0  0  0  0  0  0  0  0  0
   11.1287   30.2704   -1.9842 H   0  0  0  0  0  0  0  0  0  0  0  0
   12.0179   27.6759    1.2545 H   0  0  0  0  0  0  0  0  0  0  0  0
   12.6610   29.0827    0.3412 H   0  0  0  0  0  0  0  0  0  0  0  0
   13.3150   27.4380    0.0349 H   0  0  0  0  0  0  0  0  0  0  0  0
   10.7346   29.0552   -7.2760 H   0  0  0  0  0  0  0  0  0  0  0  0
    9.1835   30.7759   -7.8211 H   0  0  0  0  0  0  0  0  0  0  0  0
    9.6063   31.7453   -6.3691 H   0  0  0  0  0  0  0  0  0  0  0  0
    7.4819   30.7344   -5.7967 H   0  0  0  0  0  0  0  0  0  0  0  0
    7.9641   29.1525   -6.4980 H   0  0  0  0  0  0  0  0  0  0  0  0
    9.1172   30.5696   -4.0326 H   0  0  0  0  0  0  0  0  0  0  0  0
    8.4963   28.8889   -4.1611 H   0  0  0  0  0  0  0  0  0  0  0  0
   12.1588   30.6511   -8.3874 H   0  0  0  0  0  0  0  0  0  0  0  0
   14.4350   31.3182   -6.7448 H   0  0  0  0  0  0  0  0  0  0  0  0
   15.4343   32.1760   -8.7817 H   0  0  0  0  0  0  0  0  0  0  0  0
   13.8369   32.1761   -9.6034 H   0  0  0  0  0  0  0  0  0  0  0  0
   14.0565   29.5582   -8.8084 H   0  0  0  0  0  0  0  0  0  0  0  0
   15.7671   29.9843   -9.1534 H   0  0  0  0  0  0  0  0  0  0  0  0
   12.6244   32.6531   -5.4494 H   0  0  0  0  0  0  0  0  0  0  0  0
   13.0914   35.5419   -6.1439 H   0  0  0  0  0  0  0  0  0  0  0  0
   10.9337   35.2076   -4.2799 H   0  0  0  0  0  0  0  0  0  0  0  0
   10.6228   34.1141   -5.6707 H   0  0  0  0  0  0  0  0  0  0  0  0
   11.5033   36.6039   -6.7485 H   0  0  0  0  0  0  0  0  0  0  0  0
   10.2960   36.9825   -5.4733 H   0  0  0  0  0  0  0  0  0  0  0  0
   15.0514   34.5534   -5.1692 H   0  0  0  0  0  0  0  0  0  0  0  0
   16.2670   35.4587   -3.1037 H   0  0  0  0  0  0  0  0  0  0  0  0
   15.8189   34.2166   -1.0330 H   0  0  0  0  0  0  0  0  0  0  0  0
   14.4897   33.3159   -1.8385 H   0  0  0  0  0  0  0  0  0  0  0  0
   14.3404   35.0854   -1.5677 H   0  0  0  0  0  0  0  0  0  0  0  0
   15.2035   32.0671   -2.8263 H   0  0  0  0  0  0  0  0  0  0  0  0
   16.7097   30.7386   -4.7143 H   0  0  0  0  0  0  0  0  0  0  0  0
   18.7632   30.0225   -3.5243 H   0  0  0  0  0  0  0  0  0  0  0  0
   18.3675   31.1450   -2.1790 H   0  0  0  0  0  0  0  0  0  0  0  0
   18.7365   31.7954   -3.8123 H   0  0  0  0  0  0  0  0  0  0  0  0
  1122  1  0  0  0  0
  1123  1  0  0  0  0
  1124  1  0  0  0  0
  2  1  1  0  0  0  0
  2  5  1  0  0  0  0
  2125  1  6  0  0  0
  3  2  1  0  0  0  0
  3  4  2  0  0  0  0
  5  6  1  0  0  0  0
  5126  1  0  0  0  0
  5127  1  0  0  0  0
  6  7  1  0  0  0  0
  6128  1  0  0  0  0
  6129  1  0  0  0  0
  7  8  1  0  0  0  0
  7130  1  0  0  0  0
  7131  1  0  0  0  0
  8  9  1  0  0  0  0
  8132  1  0  0  0  0
  9 11  1  0  0  0  0
  9 10  1  0  0  0  0
 10133  1  0  0  0  0
 10134  1  0  0  0  0
 11135  1  0  0  0  0
 11136  1  0  0  0  0
 12 13  1  0  0  0  0
 12  3  1  0  0  0  0
 13 14  1  0  0  0  0
 13137  1  0  0  0  0
 13138  1  0  0  0  0
 14139  1  0  0  0  0
 14140  1  0  0  0  0
 15 14  1  0  0  0  0
 15141  1  0  0  0  0
 15142  1  0  0  0  0
 16 15  1  0  0  0  0
 16143  1  0  0  0  0
 16144  1  0  0  0  0
 17 12  1  0  0  0  0
 17 16  1  0  0  0  0
 17145  1  6  0  0  0
 18 17  1  0  0  0  0
 18 19  2  0  0  0  0
 20 18  1  0  0  0  0
 20146  1  0  0  0  0
 21 20  1  0  0  0  0
 21 24  1  0  0  0  0
 21147  1  1  0  0  0
 22 21  1  0  0  0  0
 22 23  2  0  0  0  0
 24 25  1  0  0  0  0
 24148  1  0  0  0  0
 24149  1  0  0  0  0
 25 26  1  0  0  0  0
 25150  1  0  0  0  0
 25151  1  0  0  0  0
 26 27  1  0  0  0  0
 26152  1  0  0  0  0
 26153  1  0  0  0  0
 27154  1  0  0  0  0
 27155  1  0  0  0  0
 27156  1  0  0  0  0
 28 22  1  0  0  0  0
 28157  1  0  0  0  0
 29 28  1  0  0  0  0
 29158  1  0  0  0  0
 29159  1  0  0  0  0
 30 29  1  0  0  0  0
 30160  1  0  0  0  0
 30161  1  0  0  0  0
 31 30  1  0  0  0  0
 31162  1  0  0  0  0
 31163  1  0  0  0  0
 32 31  1  0  0  0  0
 32164  1  0  0  0  0
 32165  1  0  0  0  0
 33 32  1  0  0  0  0
 33166  1  0  0  0  0
 33167  1  0  0  0  0
 34 33  1  0  0  0  0
 34168  1  0  0  0  0
 34169  1  0  0  0  0
 35 34  1  0  0  0  0
 35170  1  0  0  0  0
 35171  1  0  0  0  0
 36 35  1  0  0  0  0
 36172  1  0  0  0  0
 36173  1  0  0  0  0
 37 36  1  0  0  0  0
 37174  1  0  0  0  0
 37175  1  0  0  0  0
 38 37  1  0  0  0  0
 38176  1  0  0  0  0
 38177  1  0  0  0  0
 39 38  1  0  0  0  0
 39178  1  0  0  0  0
 39179  1  0  0  0  0
 40 39  1  0  0  0  0
 40 41  2  0  0  0  0
 40 42  1  0  0  0  0
 42 43  1  0  0  0  0
 42180  1  0  0  0  0
 43 46  1  0  0  0  0
 43 44  1  0  0  0  0
 43181  1  6  0  0  0
 44 45  2  0  0  0  0
 44 50  1  0  0  0  0
 46 47  1  0  0  0  0
 46182  1  0  0  0  0
 46183  1  0  0  0  0
 47 48  1  0  0  0  0
 47 49  2  0  0  0  0
 50 51  1  0  0  0  0
 50184  1  0  0  0  0
 51 54  1  0  0  0  0
 51 52  1  0  0  0  0
 51185  1  1  0  0  0
 52 53  2  0  0  0  0
 52 62  1  0  0  0  0
 54 55  1  0  0  0  0
 54186  1  0  0  0  0
 54187  1  0  0  0  0
 55 56  2  0  0  0  0
 55 57  1  0  0  0  0
 56 58  1  0  0  0  0
 56188  1  0  0  0  0
 57 59  2  0  0  0  0
 57189  1  0  0  0  0
 58 60  2  0  0  0  0
 58190  1  0  0  0  0
 59 60  1  0  0  0  0
 59191  1  0  0  0  0
 60 61  1  0  0  0  0
 61192  1  0  0  0  0
 62 63  1  0  0  0  0
 62193  1  0  0  0  0
 63 66  1  0  0  0  0
 63 64  1  0  0  0  0
 63194  1  6  0  0  0
 64 65  2  0  0  0  0
 64 71  1  0  0  0  0
 66 67  1  0  0  0  0
 66195  1  0  0  0  0
 66196  1  0  0  0  0
 67 68  1  0  0  0  0
 67197  1  0  0  0  0
 67198  1  0  0  0  0
 68 70  2  0  0  0  0
 68 69  1  0  0  0  0
 71 72  1  0  0  0  0
 71 77  1  0  0  0  0
 72 73  1  0  0  0  0
 72 75  1  0  0  0  0
 72199  1  1  0  0  0
 73 74  2  0  0  0  0
 73 78  1  0  0  0  0
 75200  1  0  0  0  0
 75201  1  0  0  0  0
 76 75  1  0  0  0  0
 76202  1  0  0  0  0
 76203  1  0  0  0  0
 77 76  1  0  0  0  0
 77204  1  0  0  0  0
 77205  1  0  0  0  0
 78 79  1  0  0  0  0
 78206  1  0  0  0  0
 79 82  1  0  0  0  0
 79 80  1  0  0  0  0
 79207  1  1  0  0  0
 80 81  2  0  0  0  0
 80 86  1  0  0  0  0
 82 84  1  0  0  0  0
 82 83  1  0  0  0  0
 82208  1  6  0  0  0
 83 85  1  0  0  0  0
 83209  1  0  0  0  0
 83210  1  0  0  0  0
 84211  1  0  0  0  0
 84212  1  0  0  0  0
 84213  1  0  0  0  0
 85214  1  0  0  0  0
 85215  1  0  0  0  0
 85216  1  0  0  0  0
 86 87  1  0  0  0  0
 86 92  1  0  0  0  0
 87 88  1  0  0  0  0
 87 90  1  0  0  0  0
 87217  1  6  0  0  0
 88 89  2  0  0  0  0
 88 93  1  0  0  0  0
 90218  1  0  0  0  0
 90219  1  0  0  0  0
 91 90  1  0  0  0  0
 91220  1  0  0  0  0
 91221  1  0  0  0  0
 92 91  1  0  0  0  0
 92222  1  0  0  0  0
 92223  1  0  0  0  0
 93 94  1  0  0  0  0
 93224  1  0  0  0  0
 94 97  1  0  0  0  0
 94 95  1  0  0  0  0
 94225  1  1  0  0  0
 95 96  2  0  0  0  0
 95102  1  0  0  0  0
 97 98  1  0  0  0  0
 97226  1  0  0  0  0
 97227  1  0  0  0  0
 98 99  1  0  0  0  0
 98228  1  0  0  0  0
 98229  1  0  0  0  0
 99101  2  0  0  0  0
 99100  1  0  0  0  0
102103  1  0  0  0  0
102230  1  0  0  0  0
103106  1  0  0  0  0
103104  1  0  0  0  0
103231  1  6  0  0  0
104105  2  0  0  0  0
104111  1  0  0  0  0
106107  1  0  0  0  0
106232  1  0  0  0  0
106233  1  0  0  0  0
107108  1  0  0  0  0
107234  1  0  0  0  0
107235  1  0  0  0  0
108110  2  0  0  0  0
108109  1  0  0  0  0
111112  1  0  0  0  0
111236  1  0  0  0  0
112115  1  0  0  0  0
112113  1  0  0  0  0
112237  1  1  0  0  0
113114  2  0  0  0  0
113116  1  0  0  0  0
115238  1  0  0  0  0
115239  1  0  0  0  0
115240  1  0  0  0  0
116117  1  0  0  0  0
116241  1  0  0  0  0
117120  1  0  0  0  0
117118  1  0  0  0  0
117242  1  6  0  0  0
118119  1  0  0  0  0
118121  2  0  0  0  0
120243  1  0  0  0  0
120244  1  0  0  0  0
120245  1  0  0  0  0
M  CHG  6   1   1  48  -1  69  -1 100  -1 109  -1 119  -1
M  END
