1eou_ligand
 OpenBabel08222323343D

 37 39  0  0  1  0  0  0  0  0999 V2000
   -5.7490    1.3350   16.8390 S   0  0  0  0  0  0  0  0  0  0  0  0
   -5.3260   -0.1620   16.6210 N   0  0  0  0  0  0  0  0  0  0  0  0
   -7.1400    1.4650   16.9140 O   0  0  0  0  0  0  0  0  0  0  0  0
   -5.0090    1.7710   17.9370 O   0  0  0  0  0  0  0  0  0  0  0  0
   -5.2570    1.9910   15.4980 O   0  0  0  0  0  0  0  0  0  0  0  0
   -5.5000    3.4020   15.2600 C   0  0  0  0  0  0  0  0  0  0  0  0
   -4.9520    3.6840   13.8510 C   0  0  2  0  0  0  0  0  0  0  0  0
   -3.4460    3.3820   13.5500 C   0  0  2  0  0  0  0  0  0  0  0  0
   -2.6050    4.6660   13.4420 C   0  0  1  0  0  0  0  0  0  0  0  0
   -3.2590    5.8030   12.5610 C   0  0  1  0  0  0  0  0  0  0  0  0
   -4.7560    5.6560   12.4450 C   0  0  0  0  0  0  0  0  0  0  0  0
   -5.2940    5.0590   13.6650 O   0  0  0  0  0  0  0  0  0  0  0  0
   -3.0060    7.0210   13.2680 O   0  0  0  0  0  0  0  0  0  0  0  0
   -2.3690    6.8260   14.6350 S   0  0  0  0  0  0  0  0  0  0  0  0
   -1.0630    7.2750   14.5700 O   0  0  0  0  0  0  0  0  0  0  0  0
   -3.1790    7.4270   15.6280 O   0  0  0  0  0  0  0  0  0  0  0  0
   -2.4520    5.2600   14.7260 O   0  0  0  0  0  0  0  0  0  0  0  0
   -3.4600    2.8030   12.2580 O   0  0  0  0  0  0  0  0  0  0  0  0
   -4.6780    2.0790   12.1180 C   0  0  0  0  0  0  0  0  0  0  0  0
   -4.5610    0.6390   12.6070 C   0  0  0  0  0  0  0  0  0  0  0  0
   -5.0850    2.1360   10.6670 C   0  0  0  0  0  0  0  0  0  0  0  0
   -5.6190    2.8570   12.9280 O   0  0  0  0  0  0  0  0  0  0  0  0
   -5.5141   -0.8429   17.3288 H   0  0  0  0  0  0  0  0  0  0  0  0
   -4.8686   -0.4341   15.7744 H   0  0  0  0  0  0  0  0  0  0  0  0
   -4.9726    4.0138   16.0066 H   0  0  0  0  0  0  0  0  0  0  0  0
   -6.5775    3.6188   15.3034 H   0  0  0  0  0  0  0  0  0  0  0  0
   -3.0212    2.7042   14.3050 H   0  0  0  0  0  0  0  0  0  0  0  0
   -1.6223    4.4007   13.0250 H   0  0  0  0  0  0  0  0  0  0  0  0
   -2.8050    5.8185   11.5592 H   0  0  0  0  0  0  0  0  0  0  0  0
   -4.9935    5.0094   11.5874 H   0  0  0  0  0  0  0  0  0  0  0  0
   -5.2090    6.6469   12.2937 H   0  0  0  0  0  0  0  0  0  0  0  0
   -3.8469    0.0933   11.9727 H   0  0  0  0  0  0  0  0  0  0  0  0
   -5.5459    0.1522   12.5528 H   0  0  0  0  0  0  0  0  0  0  0  0
   -4.2057    0.6330   13.6480 H   0  0  0  0  0  0  0  0  0  0  0  0
   -4.3754    1.5505   10.0639 H   0  0  0  0  0  0  0  0  0  0  0  0
   -5.0806    3.1817   10.3257 H   0  0  0  0  0  0  0  0  0  0  0  0
   -6.0958    1.7173   10.5529 H   0  0  0  0  0  0  0  0  0  0  0  0
  1  5  1  0  0  0  0
  1  4  2  0  0  0  0
  1  3  2  0  0  0  0
  1  2  1  0  0  0  0
  2 23  1  0  0  0  0
  2 24  1  0  0  0  0
  5  6  1  0  0  0  0
  6 25  1  0  0  0  0
  6 26  1  0  0  0  0
  7  6  1  1  0  0  0
  7 22  1  0  0  0  0
  7 12  1  0  0  0  0
  7  8  1  0  0  0  0
  8 18  1  0  0  0  0
  8  9  1  0  0  0  0
  8 27  1  1  0  0  0
  9 17  1  0  0  0  0
  9 10  1  0  0  0  0
  9 28  1  6  0  0  0
 10 13  1  0  0  0  0
 10 11  1  0  0  0  0
 10 29  1  6  0  0  0
 11 12  1  0  0  0  0
 11 30  1  0  0  0  0
 11 31  1  0  0  0  0
 13 14  1  0  0  0  0
 14 17  1  0  0  0  0
 14 16  2  0  0  0  0
 14 15  2  0  0  0  0
 18 19  1  0  0  0  0
 19 22  1  0  0  0  0
 19 21  1  0  0  0  0
 19 20  1  0  0  0  0
 20 32  1  0  0  0  0
 20 33  1  0  0  0  0
 20 34  1  0  0  0  0
 21 35  1  0  0  0  0
 21 36  1  0  0  0  0
 21 37  1  0  0  0  0
M  END
