1evh_ligand
 OpenBabel08222323343D

 83 87  0  0  1  0  0  0  0  0999 V2000
   14.4800   17.8570   21.6620 C   0  0  0  0  0  0  0  0  0  0  0  0
   15.0350   16.8000   21.9850 O   0  0  0  0  0  0  0  0  0  0  0  0
   12.9570   17.9870   21.7120 C   0  0  0  0  0  0  0  0  0  0  0  0
   15.0680   18.7870   20.9120 N   0  0  0  0  0  0  0  0  0  0  0  0
   16.4510   18.6560   20.4610 C   0  0  2  0  0  0  0  0  0  0  0  0
   17.2200   19.9500   20.6710 C   0  0  0  0  0  0  0  0  0  0  0  0
   16.6310   21.0330   20.7280 O   0  0  0  0  0  0  0  0  0  0  0  0
   16.5190   18.3180   18.9670 C   0  0  0  0  0  0  0  0  0  0  0  0
   15.8980   17.0060   18.6060 C   0  0  0  0  0  0  0  0  0  0  0  0
   14.5300   16.9060   18.3940 C   0  0  0  0  0  0  0  0  0  0  0  0
   16.6850   15.8670   18.4730 C   0  0  0  0  0  0  0  0  0  0  0  0
   13.9530   15.6910   18.0520 C   0  0  0  0  0  0  0  0  0  0  0  0
   16.1140   14.6460   18.1320 C   0  0  0  0  0  0  0  0  0  0  0  0
   14.7480   14.5580   17.9200 C   0  0  0  0  0  0  0  0  0  0  0  0
   18.5520   19.8570   20.7940 N   0  0  0  0  0  0  0  0  0  0  0  0
   19.3470   21.0680   20.9880 C   0  0  2  0  0  0  0  0  0  0  0  0
   19.5160   21.7620   19.6420 C   0  0  0  0  0  0  0  0  0  0  0  0
   19.3160   21.1520   18.5870 O   0  0  0  0  0  0  0  0  0  0  0  0
   20.6660   20.5270   21.5330 C   0  0  0  0  0  0  0  0  0  0  0  0
   20.8020   19.2330   20.7980 C   0  0  0  0  0  0  0  0  0  0  0  0
   19.3980   18.6540   20.9000 C   0  0  0  0  0  0  0  0  0  0  0  0
   19.8820   23.0500   19.6560 N   0  0  0  0  0  0  0  0  0  0  0  0
   20.0650   23.7770   18.3990 C   0  0  2  0  0  0  0  0  0  0  0  0
   21.2580   23.2400   17.6090 C   0  0  0  0  0  0  0  0  0  0  0  0
   22.2090   22.7130   18.1870 O   0  0  0  0  0  0  0  0  0  0  0  0
   20.2740   25.2140   18.8670 C   0  0  0  0  0  0  0  0  0  0  0  0
   20.9720   25.0340   20.1750 C   0  0  0  0  0  0  0  0  0  0  0  0
   20.1780   23.9140   20.8120 C   0  0  0  0  0  0  0  0  0  0  0  0
   21.2110   23.3490   16.2730 N   0  0  0  0  0  0  0  0  0  0  0  0
   22.3160   22.8650   15.4440 C   0  0  2  0  0  0  0  0  0  0  0  0
   23.5600   23.7370   15.6310 C   0  0  0  0  0  0  0  0  0  0  0  0
   23.4890   24.8100   16.2320 O   0  0  0  0  0  0  0  0  0  0  0  0
   21.7400   22.9390   14.0300 C   0  0  0  0  0  0  0  0  0  0  0  0
   20.7890   24.0890   14.1150 C   0  0  0  0  0  0  0  0  0  0  0  0
   20.1040   23.8460   15.4360 C   0  0  0  0  0  0  0  0  0  0  0  0
   24.7170   23.2800   15.1310 N   0  0  0  0  0  0  0  0  0  0  0  0
   25.9890   24.0050   15.2370 C   0  0  2  0  0  0  0  0  0  0  0  0
   25.9110   25.4350   14.7050 C   0  0  0  0  0  0  0  0  0  0  0  0
   26.3250   26.3560   15.4410 O   0  5  0  0  0  0  0  0  0  0  0  0
   26.9460   23.1390   14.4240 C   0  0  0  0  0  0  0  0  0  0  0  0
   26.4040   21.7700   14.6300 C   0  0  0  0  0  0  0  0  0  0  0  0
   24.9200   21.9820   14.4650 C   0  0  0  0  0  0  0  0  0  0  0  0
   25.4440   25.6780   13.5603 O   0  0  0  0  0  0  0  0  0  0  0  0
   12.6644   18.9969   21.3887 H   0  0  0  0  0  0  0  0  0  0  0  0
   12.6080   17.8159   22.7410 H   0  0  0  0  0  0  0  0  0  0  0  0
   12.5032   17.2418   21.0422 H   0  0  0  0  0  0  0  0  0  0  0  0
   14.5471   19.5994   20.6497 H   0  0  0  0  0  0  0  0  0  0  0  0
   16.9312   17.8510   21.0367 H   0  0  0  0  0  0  0  0  0  0  0  0
   17.5769   18.2930   18.6668 H   0  0  0  0  0  0  0  0  0  0  0  0
   15.9984   19.1109   18.4099 H   0  0  0  0  0  0  0  0  0  0  0  0
   13.9057   17.7862   18.4966 H   0  0  0  0  0  0  0  0  0  0  0  0
   17.7546   15.9319   18.6369 H   0  0  0  0  0  0  0  0  0  0  0  0
   12.8835   15.6254   17.8879 H   0  0  0  0  0  0  0  0  0  0  0  0
   16.7368   13.7644   18.0322 H   0  0  0  0  0  0  0  0  0  0  0  0
   14.2999   13.6081   17.6518 H   0  0  0  0  0  0  0  0  0  0  0  0
   18.8758   21.7549   21.7063 H   0  0  0  0  0  0  0  0  0  0  0  0
   20.6125   20.3650   22.6197 H   0  0  0  0  0  0  0  0  0  0  0  0
   21.5008   21.2057   21.3041 H   0  0  0  0  0  0  0  0  0  0  0  0
   21.5401   18.5759   21.2811 H   0  0  0  0  0  0  0  0  0  0  0  0
   21.0895   19.3987   19.7492 H   0  0  0  0  0  0  0  0  0  0  0  0
   19.2465   18.1444   21.8630 H   0  0  0  0  0  0  0  0  0  0  0  0
   19.1962   17.9518   20.0777 H   0  0  0  0  0  0  0  0  0  0  0  0
   19.1637   23.7034   17.7728 H   0  0  0  0  0  0  0  0  0  0  0  0
   19.3127   25.7324   18.9983 H   0  0  0  0  0  0  0  0  0  0  0  0
   20.8995   25.7754   18.1574 H   0  0  0  0  0  0  0  0  0  0  0  0
   20.9249   25.9506   20.7813 H   0  0  0  0  0  0  0  0  0  0  0  0
   22.0231   24.7443   20.0292 H   0  0  0  0  0  0  0  0  0  0  0  0
   19.2545   24.2922   21.2747 H   0  0  0  0  0  0  0  0  0  0  0  0
   20.7745   23.3807   21.5668 H   0  0  0  0  0  0  0  0  0  0  0  0
   22.5701   21.8257   15.6995 H   0  0  0  0  0  0  0  0  0  0  0  0
   21.2138   22.0092   13.7681 H   0  0  0  0  0  0  0  0  0  0  0  0
   22.5307   23.1336   13.2905 H   0  0  0  0  0  0  0  0  0  0  0  0
   20.0684   24.0717   13.2841 H   0  0  0  0  0  0  0  0  0  0  0  0
   21.3251   25.0495   14.1156 H   0  0  0  0  0  0  0  0  0  0  0  0
   19.3075   23.0934   15.3400 H   0  0  0  0  0  0  0  0  0  0  0  0
   19.6821   24.7764   15.8438 H   0  0  0  0  0  0  0  0  0  0  0  0
   26.3127   24.0460   16.2875 H   0  0  0  0  0  0  0  0  0  0  0  0
   27.9747   23.2196   14.8050 H   0  0  0  0  0  0  0  0  0  0  0  0
   26.9261   23.4174   13.3600 H   0  0  0  0  0  0  0  0  0  0  0  0
   26.6430   21.3944   15.6359 H   0  0  0  0  0  0  0  0  0  0  0  0
   26.7925   21.0703   13.8754 H   0  0  0  0  0  0  0  0  0  0  0  0
   24.3455   21.1852   14.9601 H   0  0  0  0  0  0  0  0  0  0  0  0
   24.6394   22.0304   13.4025 H   0  0  0  0  0  0  0  0  0  0  0  0
  1  2  2  0  0  0  0
  1  3  1  0  0  0  0
  3 44  1  0  0  0  0
  3 45  1  0  0  0  0
  3 46  1  0  0  0  0
  4  1  1  0  0  0  0
  4 47  1  0  0  0  0
  5  8  1  0  0  0  0
  5  4  1  0  0  0  0
  5 48  1  1  0  0  0
  6  5  1  0  0  0  0
  6  7  2  0  0  0  0
  8  9  1  0  0  0  0
  8 49  1  0  0  0  0
  8 50  1  0  0  0  0
  9 11  2  0  0  0  0
  9 10  1  0  0  0  0
 10 12  2  0  0  0  0
 10 51  1  0  0  0  0
 11 13  1  0  0  0  0
 11 52  1  0  0  0  0
 12 14  1  0  0  0  0
 12 53  1  0  0  0  0
 13 14  2  0  0  0  0
 13 54  1  0  0  0  0
 14 55  1  0  0  0  0
 15 21  1  0  0  0  0
 15  6  1  0  0  0  0
 16 15  1  0  0  0  0
 16 19  1  0  0  0  0
 16 56  1  1  0  0  0
 17 16  1  0  0  0  0
 17 18  2  0  0  0  0
 19 20  1  0  0  0  0
 19 57  1  0  0  0  0
 19 58  1  0  0  0  0
 20 21  1  0  0  0  0
 20 59  1  0  0  0  0
 20 60  1  0  0  0  0
 21 61  1  0  0  0  0
 21 62  1  0  0  0  0
 22 28  1  0  0  0  0
 22 17  1  0  0  0  0
 23 22  1  0  0  0  0
 23 26  1  0  0  0  0
 23 63  1  6  0  0  0
 24 23  1  0  0  0  0
 24 25  2  0  0  0  0
 26 27  1  0  0  0  0
 26 64  1  0  0  0  0
 26 65  1  0  0  0  0
 27 28  1  0  0  0  0
 27 66  1  0  0  0  0
 27 67  1  0  0  0  0
 28 68  1  0  0  0  0
 28 69  1  0  0  0  0
 29 35  1  0  0  0  0
 29 24  1  0  0  0  0
 30 29  1  0  0  0  0
 30 33  1  0  0  0  0
 30 70  1  1  0  0  0
 31 30  1  0  0  0  0
 31 32  2  0  0  0  0
 31 36  1  0  0  0  0
 33 34  1  0  0  0  0
 33 71  1  0  0  0  0
 33 72  1  0  0  0  0
 34 35  1  0  0  0  0
 34 73  1  0  0  0  0
 34 74  1  0  0  0  0
 35 75  1  0  0  0  0
 35 76  1  0  0  0  0
 36 37  1  0  0  0  0
 36 42  1  0  0  0  0
 37 40  1  0  0  0  0
 37 38  1  0  0  0  0
 37 77  1  1  0  0  0
 38 39  1  0  0  0  0
 38 43  2  0  0  0  0
 40 78  1  0  0  0  0
 40 79  1  0  0  0  0
 41 40  1  0  0  0  0
 41 80  1  0  0  0  0
 41 81  1  0  0  0  0
 42 41  1  0  0  0  0
 42 82  1  0  0  0  0
 42 83  1  0  0  0  0
M  CHG  1  39  -1
M  END
