1f2o_ligand
 OpenBabel08222323343D

 22 21  0  0  1  0  0  0  0  0999 V2000
   16.2930   15.9070   52.1230 N   0  3  0  0  0  0  0  0  0  0  0  0
   15.1210   16.7720   51.8040 C   0  0  2  0  0  0  0  0  0  0  0  0
   13.8650   15.9750   51.5170 C   0  0  0  0  0  0  0  0  0  0  0  0
   12.8080   16.5760   51.6430 O   0  5  0  0  0  0  0  0  0  0  0  0
   15.3950   17.6570   50.5750 C   0  0  0  0  0  0  0  0  0  0  0  0
   16.4070   18.7980   50.6320 C   0  0  0  0  0  0  0  0  0  0  0  0
   16.3980   19.3950   52.0650 C   0  0  0  0  0  0  0  0  0  0  0  0
   17.7920   18.2470   50.2100 C   0  0  0  0  0  0  0  0  0  0  0  0
   13.8770   14.7860   51.2110 O   0  0  0  0  0  0  0  0  0  0  0  0
   17.0981   16.4857   52.3048 H   0  0  0  0  0  0  0  0  0  0  0  0
   16.4852   15.2999   51.3416 H   0  0  0  0  0  0  0  0  0  0  0  0
   16.0881   15.3507   52.9382 H   0  0  0  0  0  0  0  0  0  0  0  0
   14.9343   17.4192   52.6736 H   0  0  0  0  0  0  0  0  0  0  0  0
   14.4318   18.1084   50.2949 H   0  0  0  0  0  0  0  0  0  0  0  0
   15.7307   16.9824   49.7736 H   0  0  0  0  0  0  0  0  0  0  0  0
   16.1125   19.5857   49.9229 H   0  0  0  0  0  0  0  0  0  0  0  0
   17.1233   20.2200   52.1230 H   0  0  0  0  0  0  0  0  0  0  0  0
   16.6724   18.6140   52.7894 H   0  0  0  0  0  0  0  0  0  0  0  0
   15.3920   19.7741   52.2980 H   0  0  0  0  0  0  0  0  0  0  0  0
   17.7296   17.8406   49.1897 H   0  0  0  0  0  0  0  0  0  0  0  0
   18.0965   17.4499   50.9041 H   0  0  0  0  0  0  0  0  0  0  0  0
   18.5333   19.0592   50.2364 H   0  0  0  0  0  0  0  0  0  0  0  0
  1 10  1  0  0  0  0
  1 11  1  0  0  0  0
  1 12  1  0  0  0  0
  2  3  1  0  0  0  0
  2  5  1  0  0  0  0
  2  1  1  0  0  0  0
  2 13  1  1  0  0  0
  3  9  2  0  0  0  0
  3  4  1  0  0  0  0
  5  6  1  0  0  0  0
  5 14  1  0  0  0  0
  5 15  1  0  0  0  0
  6  8  1  0  0  0  0
  6  7  1  0  0  0  0
  6 16  1  0  0  0  0
  7 17  1  0  0  0  0
  7 18  1  0  0  0  0
  7 19  1  0  0  0  0
  8 20  1  0  0  0  0
  8 21  1  0  0  0  0
  8 22  1  0  0  0  0
M  CHG  2   1   1   4  -1
M  END
