1f2p_ligand
 OpenBabel08222323343D

 23 23  0  0  1  0  0  0  0  0999 V2000
   16.1820   15.9410   52.1520 N   0  3  0  0  0  0  0  0  0  0  0  0
   15.0890   16.9300   51.8910 C   0  0  2  0  0  0  0  0  0  0  0  0
   13.7800   16.2360   51.6750 C   0  0  0  0  0  0  0  0  0  0  0  0
   13.7260   14.9820   51.6430 O   0  5  0  0  0  0  0  0  0  0  0  0
   15.3790   17.7650   50.6390 C   0  0  0  0  0  0  0  0  0  0  0  0
   16.7610   18.2720   50.5890 C   0  0  0  0  0  0  0  0  0  0  0  0
   17.1930   19.2250   51.5010 C   0  0  0  0  0  0  0  0  0  0  0  0
   17.6780   17.7290   49.6830 C   0  0  0  0  0  0  0  0  0  0  0  0
   18.5420   19.6340   51.5150 C   0  0  0  0  0  0  0  0  0  0  0  0
   19.0110   18.1270   49.6930 C   0  0  0  0  0  0  0  0  0  0  0  0
   19.4480   19.0670   50.5950 C   0  0  0  0  0  0  0  0  0  0  0  0
   12.8170   17.0050   51.5210 O   0  0  0  0  0  0  0  0  0  0  0  0
   17.0515   16.4308   52.2940 H   0  0  0  0  0  0  0  0  0  0  0  0
   16.2705   15.3216   51.3617 H   0  0  0  0  0  0  0  0  0  0  0  0
   15.9601   15.4046   52.9761 H   0  0  0  0  0  0  0  0  0  0  0  0
   15.0071   17.5982   52.7609 H   0  0  0  0  0  0  0  0  0  0  0  0
   14.6908   18.6230   50.6234 H   0  0  0  0  0  0  0  0  0  0  0  0
   15.2039   17.1383   49.7521 H   0  0  0  0  0  0  0  0  0  0  0  0
   16.4906   19.6563   52.2050 H   0  0  0  0  0  0  0  0  0  0  0  0
   17.3458   16.9888   48.9641 H   0  0  0  0  0  0  0  0  0  0  0  0
   18.8801   20.3782   52.2270 H   0  0  0  0  0  0  0  0  0  0  0  0
   19.7085   17.6933   48.9856 H   0  0  0  0  0  0  0  0  0  0  0  0
   20.4881   19.3724   50.5994 H   0  0  0  0  0  0  0  0  0  0  0  0
  1 13  1  0  0  0  0
  1 14  1  0  0  0  0
  1 15  1  0  0  0  0
  2  3  1  0  0  0  0
  2  5  1  0  0  0  0
  2  1  1  0  0  0  0
  2 16  1  1  0  0  0
  3 12  2  0  0  0  0
  3  4  1  0  0  0  0
  5  6  1  0  0  0  0
  5 17  1  0  0  0  0
  5 18  1  0  0  0  0
  6  8  2  0  0  0  0
  6  7  1  0  0  0  0
  7  9  2  0  0  0  0
  7 19  1  0  0  0  0
  8 20  1  0  0  0  0
  9 11  1  0  0  0  0
  9 21  1  0  0  0  0
 10  8  1  0  0  0  0
 10 22  1  0  0  0  0
 11 10  2  0  0  0  0
 11 23  1  0  0  0  0
M  CHG  2   1   1   4  -1
M  END
