1f40_ligand
 OpenBabel08222323343D

 54 55  0  0  1  0  0  0  0  0999 V2000
   -3.8610    1.6840   -0.8040 C   0  0  1  0  0  0  0  0  0  0  0  0
   -4.1450    3.1480   -0.4470 N   0  0  0  0  0  0  0  0  0  0  0  0
   -2.7720    3.8430   -0.5040 C   0  0  0  0  0  0  0  0  0  0  0  0
   -2.4470    1.4110   -0.3280 C   0  0  0  0  0  0  0  0  0  0  0  0
   -1.7110    2.7370   -0.4470 C   0  0  0  0  0  0  0  0  0  0  0  0
   -4.8330    0.7670   -0.0420 C   0  0  0  0  0  0  0  0  0  0  0  0
   -4.4610    0.2050    0.9910 O   0  0  0  0  0  0  0  0  0  0  0  0
   -6.1000    0.5710   -0.5160 O   0  0  0  0  0  0  0  0  0  0  0  0
   -7.0380    0.5410    0.5660 C   0  0  0  0  0  0  0  0  0  0  0  0
   -8.4530    0.8080    0.0230 C   0  0  0  0  0  0  0  0  0  0  0  0
   -9.3760   -0.3610    0.4020 C   0  0  0  0  0  0  0  0  0  0  0  0
  -11.3570    1.2290    3.2950 N   0  0  0  0  0  0  0  0  0  0  0  0
  -11.0830    0.3410    4.3590 C   0  0  0  0  0  0  0  0  0  0  0  0
  -10.2540   -0.7750    4.1390 C   0  0  0  0  0  0  0  0  0  0  0  0
   -9.7040   -0.9980    2.8570 C   0  0  0  0  0  0  0  0  0  0  0  0
   -9.9790   -0.1100    1.7950 C   0  0  0  0  0  0  0  0  0  0  0  0
  -10.8070    1.0070    2.0140 C   0  0  0  0  0  0  0  0  0  0  0  0
   -5.3050    3.6950   -0.1600 C   0  0  0  0  0  0  0  0  0  0  0  0
   -6.3260    3.0110   -0.1540 O   0  0  0  0  0  0  0  0  0  0  0  0
   -5.3820    5.1970    0.1730 C   0  0  0  0  0  0  0  0  0  0  0  0
   -5.0690    6.0280   -0.6770 O   0  0  0  0  0  0  0  0  0  0  0  0
   -5.8500    5.6650    1.5650 C   0  0  0  0  0  0  0  0  0  0  0  0
   -5.0260    6.8920    1.9930 C   0  0  0  0  0  0  0  0  0  0  0  0
   -5.6530    4.5360    2.5930 C   0  0  0  0  0  0  0  0  0  0  0  0
   -7.3390    6.0470    1.5040 C   0  0  0  0  0  0  0  0  0  0  0  0
   -7.5410    7.1600    0.4610 C   0  0  0  0  0  0  0  0  0  0  0  0
   -3.9520    1.5191   -1.8877 H   0  0  0  0  0  0  0  0  0  0  0  0
   -2.6562    4.5229    0.3529 H   0  0  0  0  0  0  0  0  0  0  0  0
   -2.6748    4.4127   -1.4399 H   0  0  0  0  0  0  0  0  0  0  0  0
   -1.9693    0.6488   -0.9611 H   0  0  0  0  0  0  0  0  0  0  0  0
   -2.4533    1.0681    0.7171 H   0  0  0  0  0  0  0  0  0  0  0  0
   -1.0589    2.8854    0.4263 H   0  0  0  0  0  0  0  0  0  0  0  0
   -1.1040    2.7498   -1.3643 H   0  0  0  0  0  0  0  0  0  0  0  0
   -6.7749    1.3155    1.3014 H   0  0  0  0  0  0  0  0  0  0  0  0
   -7.0104   -0.4472    1.0484 H   0  0  0  0  0  0  0  0  0  0  0  0
   -8.4135    0.9038   -1.0721 H   0  0  0  0  0  0  0  0  0  0  0  0
   -8.8433    1.7395    0.4588 H   0  0  0  0  0  0  0  0  0  0  0  0
   -8.7962   -1.2956    0.4169 H   0  0  0  0  0  0  0  0  0  0  0  0
  -10.1856   -0.4434   -0.3381 H   0  0  0  0  0  0  0  0  0  0  0  0
  -11.5090    0.5182    5.3399 H   0  0  0  0  0  0  0  0  0  0  0  0
  -10.0384   -1.4609    4.9503 H   0  0  0  0  0  0  0  0  0  0  0  0
   -9.0659   -1.8577    2.6877 H   0  0  0  0  0  0  0  0  0  0  0  0
  -11.0213    1.6935    1.2029 H   0  0  0  0  0  0  0  0  0  0  0  0
   -5.3580    7.2282    2.9864 H   0  0  0  0  0  0  0  0  0  0  0  0
   -5.1705    7.7031    1.2642 H   0  0  0  0  0  0  0  0  0  0  0  0
   -3.9605    6.6218    2.0345 H   0  0  0  0  0  0  0  0  0  0  0  0
   -6.2410    3.6572    2.2897 H   0  0  0  0  0  0  0  0  0  0  0  0
   -5.9895    4.8784    3.5827 H   0  0  0  0  0  0  0  0  0  0  0  0
   -4.5878    4.2656    2.6411 H   0  0  0  0  0  0  0  0  0  0  0  0
   -7.6662    6.4058    2.4910 H   0  0  0  0  0  0  0  0  0  0  0  0
   -7.9322    5.1656    1.2191 H   0  0  0  0  0  0  0  0  0  0  0  0
   -8.6057    7.4329    0.4176 H   0  0  0  0  0  0  0  0  0  0  0  0
   -7.2139    6.8013   -0.5261 H   0  0  0  0  0  0  0  0  0  0  0  0
   -6.9479    8.0415    0.7458 H   0  0  0  0  0  0  0  0  0  0  0  0
  1  2  1  0  0  0  0
  1  4  1  0  0  0  0
  1 27  1  6  0  0  0
  2  3  1  0  0  0  0
  2 18  1  0  0  0  0
  3 28  1  0  0  0  0
  3 29  1  0  0  0  0
  4  5  1  0  0  0  0
  4 30  1  0  0  0  0
  4 31  1  0  0  0  0
  5  3  1  0  0  0  0
  5 32  1  0  0  0  0
  5 33  1  0  0  0  0
  6  1  1  0  0  0  0
  6  7  2  0  0  0  0
  8  6  1  0  0  0  0
  9  8  1  0  0  0  0
  9 34  1  0  0  0  0
  9 35  1  0  0  0  0
 10  9  1  0  0  0  0
 10 36  1  0  0  0  0
 10 37  1  0  0  0  0
 11 10  1  0  0  0  0
 11 38  1  0  0  0  0
 11 39  1  0  0  0  0
 12 17  1  0  0  0  0
 13 12  2  0  0  0  0
 13 40  1  0  0  0  0
 14 13  1  0  0  0  0
 14 41  1  0  0  0  0
 15 14  2  0  0  0  0
 15 16  1  0  0  0  0
 15 42  1  0  0  0  0
 16 11  1  0  0  0  0
 16 17  2  0  0  0  0
 17 43  1  0  0  0  0
 18 19  2  0  0  0  0
 18 20  1  0  0  0  0
 20 21  2  0  0  0  0
 20 22  1  0  0  0  0
 22 23  1  0  0  0  0
 22 24  1  0  0  0  0
 22 25  1  0  0  0  0
 23 44  1  0  0  0  0
 23 45  1  0  0  0  0
 23 46  1  0  0  0  0
 24 47  1  0  0  0  0
 24 48  1  0  0  0  0
 24 49  1  0  0  0  0
 25 26  1  0  0  0  0
 25 50  1  0  0  0  0
 25 51  1  0  0  0  0
 26 52  1  0  0  0  0
 26 53  1  0  0  0  0
 26 54  1  0  0  0  0
M  END
