1f4y_ligand
 OpenBabel08222323343D

 77 78  0  0  1  0  0  0  0  0999 V2000
   39.3180   34.9420   -6.4200 C   0  0  2  0  0  0  0  0  0  0  0  0
   38.7270   33.5480   -6.6370 C   0  0  1  0  0  0  0  0  0  0  0  0
   37.5110   33.3580   -5.9690 O   0  0  0  0  0  0  0  0  0  0  0  0
   36.4450   32.7640   -6.6590 C   0  0  0  0  0  0  0  0  0  0  0  0
   38.7160   33.3610   -8.1610 C   0  0  1  0  0  0  0  0  0  0  0  0
   38.4540   31.9860   -8.5400 O   0  0  0  0  0  0  0  0  0  0  0  0
   37.7670   34.3810   -8.7660 C   0  0  2  0  0  0  0  0  0  0  0  0
   37.6350   34.2850  -10.2700 N   0  0  0  0  0  0  0  0  0  0  0  0
   36.3310   34.4370  -10.6040 C   0  0  0  0  0  0  0  0  0  0  0  0
   35.7300   34.5970   -9.5450 O   0  0  0  0  0  0  0  0  0  0  0  0
   38.1820   35.8250   -8.4210 C   0  0  2  0  0  0  0  0  0  0  0  0
   38.7900   36.0420   -7.1270 O   0  0  0  0  0  0  0  0  0  0  0  0
   36.9910   36.8020   -8.5370 C   0  0  0  0  0  0  0  0  0  0  0  0
   36.0800   35.4420  -14.1210 C   0  0  0  0  0  0  0  0  0  0  0  0
   37.4410   35.8630  -14.2980 O   0  0  0  0  0  0  0  0  0  0  0  0
   35.7620   35.6930  -12.7050 C   0  0  0  0  0  0  0  0  0  0  0  0
   35.4340   34.4700  -11.8440 C   0  0  1  0  0  0  0  0  0  0  0  0
   35.2150   33.2860  -12.5640 O   0  0  0  0  0  0  0  0  0  0  0  0
   41.8150   36.6270   -7.7930 C   0  0  1  0  0  0  0  0  0  0  0  0
   40.6950   34.7540   -6.7710 O   0  0  0  0  0  0  0  0  0  0  0  0
   43.9480   36.9350   -6.9700 C   0  0  0  0  0  0  0  0  0  0  0  0
   41.6340   35.7800   -6.5380 C   0  0  1  0  0  0  0  0  0  0  0  0
   42.7460   37.6040   -7.3840 O   0  0  0  0  0  0  0  0  0  0  0  0
   42.9590   35.1650   -6.0840 C   0  0  1  0  0  0  0  0  0  0  0  0
   42.9170   34.0200   -5.2110 O   0  0  0  0  0  0  0  0  0  0  0  0
   43.6390   34.5750   -7.3000 C   0  0  2  0  0  0  0  0  0  0  0  0
   45.0090   34.0580   -6.9980 N   0  0  0  0  0  0  0  0  0  0  0  0
   45.1350   32.7780   -7.4070 C   0  0  0  0  0  0  0  0  0  0  0  0
   44.2870   32.3790   -8.2050 O   0  0  0  0  0  0  0  0  0  0  0  0
   43.7620   35.5740   -8.4530 C   0  0  2  0  0  0  0  0  0  0  0  0
   42.4200   35.9330   -8.9150 O   0  0  0  0  0  0  0  0  0  0  0  0
   44.7110   34.9710   -9.4950 C   0  0  0  0  0  0  0  0  0  0  0  0
   48.4520   31.6250   -5.9460 C   0  0  0  0  0  0  0  0  0  0  0  0
   48.1920   30.2260   -6.1160 O   0  0  0  0  0  0  0  0  0  0  0  0
   47.6360   32.4130   -6.9320 C   0  0  0  0  0  0  0  0  0  0  0  0
   46.2190   31.8340   -6.8830 C   0  0  1  0  0  0  0  0  0  0  0  0
   45.9550   31.3740   -5.5880 O   0  0  0  0  0  0  0  0  0  0  0  0
   39.2315   35.1846   -5.3506 H   0  0  0  0  0  0  0  0  0  0  0  0
   39.4231   32.8073   -6.2164 H   0  0  0  0  0  0  0  0  0  0  0  0
   35.5727   32.6903   -5.9929 H   0  0  0  0  0  0  0  0  0  0  0  0
   36.7387   31.7573   -6.9911 H   0  0  0  0  0  0  0  0  0  0  0  0
   36.1871   33.3782   -7.5343 H   0  0  0  0  0  0  0  0  0  0  0  0
   39.7238   33.5982   -8.5324 H   0  0  0  0  0  0  0  0  0  0  0  0
   37.6060   31.7218   -8.2028 H   0  0  0  0  0  0  0  0  0  0  0  0
   36.7746   34.1949   -8.3295 H   0  0  0  0  0  0  0  0  0  0  0  0
   38.3867   34.1341  -10.9120 H   0  0  0  0  0  0  0  0  0  0  0  0
   38.9293   36.1130   -9.1751 H   0  0  0  0  0  0  0  0  0  0  0  0
   37.3251   37.8190   -8.2841 H   0  0  0  0  0  0  0  0  0  0  0  0
   36.1953   36.4942   -7.8427 H   0  0  0  0  0  0  0  0  0  0  0  0
   36.6046   36.7885   -9.5668 H   0  0  0  0  0  0  0  0  0  0  0  0
   35.9772   34.3716  -14.3525 H   0  0  0  0  0  0  0  0  0  0  0  0
   35.4114   36.0239  -14.7724 H   0  0  0  0  0  0  0  0  0  0  0  0
   37.7000   35.7221  -15.2011 H   0  0  0  0  0  0  0  0  0  0  0  0
   34.8919   36.3652  -12.6734 H   0  0  0  0  0  0  0  0  0  0  0  0
   36.6300   36.1951  -12.2529 H   0  0  0  0  0  0  0  0  0  0  0  0
   34.4375   34.6872  -11.4321 H   0  0  0  0  0  0  0  0  0  0  0  0
   35.0189   32.5804  -11.9589 H   0  0  0  0  0  0  0  0  0  0  0  0
   40.8556   37.0685   -8.1007 H   0  0  0  0  0  0  0  0  0  0  0  0
   44.6895   37.6803   -6.6462 H   0  0  0  0  0  0  0  0  0  0  0  0
   44.3541   36.3559   -7.8124 H   0  0  0  0  0  0  0  0  0  0  0  0
   43.7209   36.2567   -6.1343 H   0  0  0  0  0  0  0  0  0  0  0  0
   41.2563   36.4286   -5.7339 H   0  0  0  0  0  0  0  0  0  0  0  0
   43.5660   35.9576   -5.6221 H   0  0  0  0  0  0  0  0  0  0  0  0
   42.4532   33.3116   -5.6417 H   0  0  0  0  0  0  0  0  0  0  0  0
   43.0210   33.7316   -7.6415 H   0  0  0  0  0  0  0  0  0  0  0  0
   45.7321   34.5874   -6.5543 H   0  0  0  0  0  0  0  0  0  0  0  0
   44.2315   36.4951   -8.0773 H   0  0  0  0  0  0  0  0  0  0  0  0
   44.8198   35.6683  -10.3388 H   0  0  0  0  0  0  0  0  0  0  0  0
   44.2992   34.0177   -9.8579 H   0  0  0  0  0  0  0  0  0  0  0  0
   45.6950   34.7944   -9.0361 H   0  0  0  0  0  0  0  0  0  0  0  0
   49.5209   31.8219   -6.1153 H   0  0  0  0  0  0  0  0  0  0  0  0
   48.1811   31.9261   -4.9233 H   0  0  0  0  0  0  0  0  0  0  0  0
   47.2688   30.0565   -5.9694 H   0  0  0  0  0  0  0  0  0  0  0  0
   48.0553   32.3069   -7.9434 H   0  0  0  0  0  0  0  0  0  0  0  0
   47.6222   33.4763   -6.6504 H   0  0  0  0  0  0  0  0  0  0  0  0
   46.2093   30.9574   -7.5474 H   0  0  0  0  0  0  0  0  0  0  0  0
   46.5838   30.6999   -5.3583 H   0  0  0  0  0  0  0  0  0  0  0  0
  1  2  1  0  0  0  0
  1 12  1  0  0  0  0
  1 38  1  1  0  0  0
  2  3  1  0  0  0  0
  2  5  1  0  0  0  0
  2 39  1  1  0  0  0
  3  4  1  0  0  0  0
  4 40  1  0  0  0  0
  4 41  1  0  0  0  0
  4 42  1  0  0  0  0
  5  6  1  0  0  0  0
  5  7  1  0  0  0  0
  5 43  1  6  0  0  0
  6 44  1  0  0  0  0
  7  8  1  0  0  0  0
  7 45  1  1  0  0  0
  8  9  1  0  0  0  0
  8 46  1  0  0  0  0
  9 10  2  0  0  0  0
  9 17  1  0  0  0  0
 11  7  1  0  0  0  0
 11 13  1  0  0  0  0
 11 47  1  6  0  0  0
 12 11  1  0  0  0  0
 13 48  1  0  0  0  0
 13 49  1  0  0  0  0
 13 50  1  0  0  0  0
 14 15  1  0  0  0  0
 14 51  1  0  0  0  0
 14 52  1  0  0  0  0
 15 53  1  0  0  0  0
 16 14  1  0  0  0  0
 16 54  1  0  0  0  0
 16 55  1  0  0  0  0
 17 16  1  0  0  0  0
 17 18  1  0  0  0  0
 17 56  1  1  0  0  0
 18 57  1  0  0  0  0
 19 23  1  0  0  0  0
 19 58  1  6  0  0  0
 20  1  1  0  0  0  0
 21 59  1  0  0  0  0
 21 60  1  0  0  0  0
 21 61  1  0  0  0  0
 22 19  1  0  0  0  0
 22 20  1  0  0  0  0
 22 62  1  1  0  0  0
 23 21  1  0  0  0  0
 24 22  1  0  0  0  0
 24 25  1  0  0  0  0
 24 63  1  1  0  0  0
 25 64  1  0  0  0  0
 26 24  1  0  0  0  0
 26 30  1  0  0  0  0
 26 65  1  6  0  0  0
 27 26  1  0  0  0  0
 27 66  1  0  0  0  0
 28 27  1  0  0  0  0
 28 29  2  0  0  0  0
 30 31  1  0  0  0  0
 30 32  1  0  0  0  0
 30 67  1  1  0  0  0
 31 19  1  0  0  0  0
 32 68  1  0  0  0  0
 32 69  1  0  0  0  0
 32 70  1  0  0  0  0
 33 34  1  0  0  0  0
 33 71  1  0  0  0  0
 33 72  1  0  0  0  0
 34 73  1  0  0  0  0
 35 33  1  0  0  0  0
 35 36  1  0  0  0  0
 35 74  1  0  0  0  0
 35 75  1  0  0  0  0
 36 28  1  0  0  0  0
 36 37  1  0  0  0  0
 36 76  1  6  0  0  0
 37 77  1  0  0  0  0
M  END
