1fe3_ligand
 OpenBabel08222323343D

 55 54  0  0  0  0  0  0  0  0999 V2000
   94.3250   71.7690  -40.2280 C   0  0  0  0  0  0  0  0  0  0  0  0
   94.7080   70.6330  -40.5840 O   0  5  0  0  0  0  0  0  0  0  0  0
   93.1710   72.1910  -40.4460 O   0  0  0  0  0  0  0  0  0  0  0  0
   95.2990   72.6770  -39.4950 C   0  0  0  0  0  0  0  0  0  0  0  0
   96.7040   72.6320  -40.0770 C   0  0  0  0  0  0  0  0  0  0  0  0
   97.6550   73.5410  -39.3140 C   0  0  0  0  0  0  0  0  0  0  0  0
   99.0660   73.4470  -39.8780 C   0  0  0  0  0  0  0  0  0  0  0  0
  100.0440   74.3620  -39.1450 C   0  0  0  0  0  0  0  0  0  0  0  0
   99.7260   75.8380  -39.3600 C   0  0  0  0  0  0  0  0  0  0  0  0
   99.7580   76.2030  -40.8360 C   0  0  0  0  0  0  0  0  0  0  0  0
   99.5260   77.5540  -41.5150 C   0  0  0  0  0  0  0  0  0  0  0  0
   99.3520   77.6130  -42.8400 C   0  0  0  0  0  0  0  0  0  0  0  0
   98.0020   77.3300  -43.5010 C   0  0  0  0  0  0  0  0  0  0  0  0
   96.6510   77.3740  -42.8010 C   0  0  0  0  0  0  0  0  0  0  0  0
   95.6040   76.5650  -43.5480 C   0  0  0  0  0  0  0  0  0  0  0  0
   95.8170   75.0710  -43.3430 C   0  0  0  0  0  0  0  0  0  0  0  0
   94.7930   74.2430  -44.1080 C   0  0  0  0  0  0  0  0  0  0  0  0
   95.0230   74.3040  -45.6130 C   0  0  0  0  0  0  0  0  0  0  0  0
   96.3440   73.6530  -46.0110 C   0  0  0  0  0  0  0  0  0  0  0  0
   96.3630   72.1670  -45.6790 C   0  0  0  0  0  0  0  0  0  0  0  0
   95.3455   72.3640  -38.4415 H   0  0  0  0  0  0  0  0  0  0  0  0
   94.9276   73.7107  -39.5544 H   0  0  0  0  0  0  0  0  0  0  0  0
   96.6659   72.9563  -41.1274 H   0  0  0  0  0  0  0  0  0  0  0  0
   97.0789   71.5992  -40.0254 H   0  0  0  0  0  0  0  0  0  0  0  0
   97.6693   73.2405  -38.2560 H   0  0  0  0  0  0  0  0  0  0  0  0
   97.3031   74.5800  -39.3954 H   0  0  0  0  0  0  0  0  0  0  0  0
   99.0424   73.7325  -40.9400 H   0  0  0  0  0  0  0  0  0  0  0  0
   99.4158   72.4083  -39.7852 H   0  0  0  0  0  0  0  0  0  0  0  0
  101.0607   74.1616  -39.5140 H   0  0  0  0  0  0  0  0  0  0  0  0
   99.9949   74.1426  -38.0682 H   0  0  0  0  0  0  0  0  0  0  0  0
  100.4701   76.4461  -38.8247 H   0  0  0  0  0  0  0  0  0  0  0  0
   98.7233   76.0500  -38.9606 H   0  0  0  0  0  0  0  0  0  0  0  0
   99.0102   75.5391  -41.2942 H   0  0  0  0  0  0  0  0  0  0  0  0
  100.7642   75.9048  -41.1657 H   0  0  0  0  0  0  0  0  0  0  0  0
  100.3983   78.1818  -41.2805 H   0  0  0  0  0  0  0  0  0  0  0  0
   98.6263   77.9902  -41.0564 H   0  0  0  0  0  0  0  0  0  0  0  0
  100.0624   76.8944  -43.2746 H   0  0  0  0  0  0  0  0  0  0  0  0
   99.6323   78.6333  -43.1407 H   0  0  0  0  0  0  0  0  0  0  0  0
   98.0853   76.3121  -43.9095 H   0  0  0  0  0  0  0  0  0  0  0  0
   97.9254   78.0517  -44.3276 H   0  0  0  0  0  0  0  0  0  0  0  0
   96.3157   78.4198  -42.7388 H   0  0  0  0  0  0  0  0  0  0  0  0
   96.7617   76.9634  -41.7865 H   0  0  0  0  0  0  0  0  0  0  0  0
   95.6720   76.7936  -44.6218 H   0  0  0  0  0  0  0  0  0  0  0  0
   94.6056   76.8398  -43.1771 H   0  0  0  0  0  0  0  0  0  0  0  0
   95.7296   74.8428  -42.2705 H   0  0  0  0  0  0  0  0  0  0  0  0
   96.8247   74.8036  -43.6939 H   0  0  0  0  0  0  0  0  0  0  0  0
   93.7868   74.6282  -43.8862 H   0  0  0  0  0  0  0  0  0  0  0  0
   94.8654   73.1957  -43.7794 H   0  0  0  0  0  0  0  0  0  0  0  0
   95.0359   75.3576  -45.9288 H   0  0  0  0  0  0  0  0  0  0  0  0
   94.2003   73.7791  -46.1205 H   0  0  0  0  0  0  0  0  0  0  0  0
   97.1631   74.1494  -45.4701 H   0  0  0  0  0  0  0  0  0  0  0  0
   96.4909   73.7780  -47.0939 H   0  0  0  0  0  0  0  0  0  0  0  0
   97.3292   71.7363  -45.9805 H   0  0  0  0  0  0  0  0  0  0  0  0
   95.5507   71.6599  -46.2203 H   0  0  0  0  0  0  0  0  0  0  0  0
   96.2229   72.0313  -44.5964 H   0  0  0  0  0  0  0  0  0  0  0  0
  1  2  1  0  0  0  0
  1  3  2  0  0  0  0
  1  4  1  0  0  0  0
  4  5  1  0  0  0  0
  4 21  1  0  0  0  0
  4 22  1  0  0  0  0
  5  6  1  0  0  0  0
  5 23  1  0  0  0  0
  5 24  1  0  0  0  0
  6  7  1  0  0  0  0
  6 25  1  0  0  0  0
  6 26  1  0  0  0  0
  7  8  1  0  0  0  0
  7 27  1  0  0  0  0
  7 28  1  0  0  0  0
  8  9  1  0  0  0  0
  8 29  1  0  0  0  0
  8 30  1  0  0  0  0
  9 10  1  0  0  0  0
  9 31  1  0  0  0  0
  9 32  1  0  0  0  0
 10 11  1  0  0  0  0
 10 33  1  0  0  0  0
 10 34  1  0  0  0  0
 11 12  1  0  0  0  0
 11 35  1  0  0  0  0
 11 36  1  0  0  0  0
 12 13  1  0  0  0  0
 12 37  1  0  0  0  0
 12 38  1  0  0  0  0
 13 14  1  0  0  0  0
 13 39  1  0  0  0  0
 13 40  1  0  0  0  0
 14 15  1  0  0  0  0
 14 41  1  0  0  0  0
 14 42  1  0  0  0  0
 15 16  1  0  0  0  0
 15 43  1  0  0  0  0
 15 44  1  0  0  0  0
 16 17  1  0  0  0  0
 16 45  1  0  0  0  0
 16 46  1  0  0  0  0
 17 18  1  0  0  0  0
 17 47  1  0  0  0  0
 17 48  1  0  0  0  0
 18 19  1  0  0  0  0
 18 49  1  0  0  0  0
 18 50  1  0  0  0  0
 19 20  1  0  0  0  0
 19 51  1  0  0  0  0
 19 52  1  0  0  0  0
 20 53  1  0  0  0  0
 20 54  1  0  0  0  0
 20 55  1  0  0  0  0
M  CHG  1   2  -1
M  END
