1fgi_ligand
 OpenBabel08222323343D

 37 39  0  0  0  0  0  0  0  0999 V2000
    5.0559    1.3738   20.4035 H   0  0  0  0  0  0  0  0  0  0  0  0
    8.7574    5.1403   21.7403 H   0  0  0  0  0  0  0  0  0  0  0  0
    8.1985    5.6366   19.3479 H   0  0  0  0  0  0  0  0  0  0  0  0
    7.2376    5.7906   17.0588 H   0  0  0  0  0  0  0  0  0  0  0  0
    5.5116    4.1864   16.2971 H   0  0  0  0  0  0  0  0  0  0  0  0
    4.6913    2.4030   17.7866 H   0  0  0  0  0  0  0  0  0  0  0  0
    7.6370    2.0880   23.8601 H   0  0  0  0  0  0  0  0  0  0  0  0
    9.0744    1.7964   25.9651 H   0  0  0  0  0  0  0  0  0  0  0  0
   11.9269    4.5649   25.9315 H   0  0  0  0  0  0  0  0  0  0  0  0
   11.9020    2.8121   26.3234 H   0  0  0  0  0  0  0  0  0  0  0  0
   10.8193    3.9444   27.2023 H   0  0  0  0  0  0  0  0  0  0  0  0
   11.4203    5.8269   24.3582 H   0  0  0  0  0  0  0  0  0  0  0  0
   10.1356    6.2070   23.1616 H   0  0  0  0  0  0  0  0  0  0  0  0
   11.1001    4.4631   21.6810 H   0  0  0  0  0  0  0  0  0  0  0  0
    5.7320    2.1500   20.4400 N   0  0  0  0  0  0  0  0  0  0  0  0
    6.5130    2.4730   21.5170 C   0  0  0  0  0  0  0  0  0  0  0  0
    6.4480    1.8200   22.5560 O   0  0  0  0  0  0  0  0  0  0  0  0
    7.3090    3.5360   21.2270 C   0  0  0  0  0  0  0  0  0  0  0  0
    7.4410    4.9330   19.0220 C   0  0  0  0  0  0  0  0  0  0  0  0
    6.8970    5.0140   17.7340 C   0  0  0  0  0  0  0  0  0  0  0  0
    5.9110    4.0990   17.3010 C   0  0  0  0  0  0  0  0  0  0  0  0
    5.4480    3.1030   18.1220 C   0  0  0  0  0  0  0  0  0  0  0  0
    5.9940    3.0250   19.4180 C   0  0  0  0  0  0  0  0  0  0  0  0
    6.9850    3.9220   19.8820 C   0  0  0  0  0  0  0  0  0  0  0  0
    8.3610    4.1930   22.1030 C   0  0  0  0  0  0  0  0  0  0  0  0
    8.4470    2.6740   24.1080 N   0  0  0  0  0  0  0  0  0  0  0  0
    8.9240    3.7030   23.4050 C   0  0  0  0  0  0  0  0  0  0  0  0
    9.9880    4.2570   24.0490 C   0  0  0  0  0  0  0  0  0  0  0  0
   10.1990    3.5000   25.1750 C   0  0  0  0  0  0  0  0  0  0  0  0
    9.2110    2.5460   25.1870 C   0  0  0  0  0  0  0  0  0  0  0  0
   11.2890    3.7210   26.2330 C   0  0  0  0  0  0  0  0  0  0  0  0
   10.8120    5.4240   23.5350 C   0  0  0  0  0  0  0  0  0  0  0  0
   11.7120    4.9870   22.4300 C   0  0  0  0  0  0  0  0  0  0  0  0
   12.4730    6.1130   21.7160 C   0  0  0  0  0  0  0  0  0  0  0  0
   11.9370    7.2490   21.5710 O   0  5  0  0  0  0  0  0  0  0  0  0
   13.6100    5.8150   21.2600 O   0  0  0  0  0  0  0  0  0  0  0  0
   12.4524    4.2907   22.8506 H   0  0  0  0  0  0  0  0  0  0  0  0
 15  1  1  0  0  0  0
 16 15  1  0  0  0  0
 16 17  2  0  0  0  0
 18 16  1  0  0  0  0
 18 24  1  0  0  0  0
 19  3  1  0  0  0  0
 19 20  1  0  0  0  0
 20  4  1  0  0  0  0
 20 21  2  0  0  0  0
 21  5  1  0  0  0  0
 22  6  1  0  0  0  0
 22 21  1  0  0  0  0
 23 15  1  0  0  0  0
 23 22  2  0  0  0  0
 24 23  1  0  0  0  0
 24 19  2  0  0  0  0
 25  2  1  0  0  0  0
 25 18  2  0  0  0  0
 26  7  1  0  0  0  0
 27 25  1  0  0  0  0
 27 26  1  0  0  0  0
 28 27  2  0  0  0  0
 28 29  1  0  0  0  0
 29 31  1  0  0  0  0
 29 30  2  0  0  0  0
 30  8  1  0  0  0  0
 30 26  1  0  0  0  0
 31  9  1  0  0  0  0
 31 10  1  0  0  0  0
 31 11  1  0  0  0  0
 32 12  1  0  0  0  0
 32 13  1  0  0  0  0
 32 28  1  0  0  0  0
 32 33  1  0  0  0  0
 33 14  1  0  0  0  0
 33 34  1  0  0  0  0
 33 37  1  0  0  0  0
 34 36  2  0  0  0  0
 34 35  1  0  0  0  0
M  CHG  1  35  -1
M  END
