1fhr_ligand
 OpenBabel08222323343D

125126  0  0  1  0  0  0  0  0999 V2000
    2.7950  -17.6990   -8.4190 N   0  3  0  0  0  0  0  0  0  0  0  0
    3.6110  -18.4780   -9.3860 C   0  0  2  0  0  0  0  0  0  0  0  0
    4.6060  -17.5810  -10.1150 C   0  0  0  0  0  0  0  0  0  0  0  0
    4.5050  -17.3780  -11.3250 O   0  0  0  0  0  0  0  0  0  0  0  0
    2.6680  -19.1490  -10.3880 C   0  0  0  0  0  0  0  0  0  0  0  0
    1.9850  -20.3920   -9.8430 C   0  0  0  0  0  0  0  0  0  0  0  0
    0.7910  -20.0650   -8.9660 C   0  0  0  0  0  0  0  0  0  0  0  0
    0.3120  -18.9130   -9.0220 O   0  5  0  0  0  0  0  0  0  0  0  0
    0.3340  -20.9600   -8.2260 O   0  0  0  0  0  0  0  0  0  0  0  0
    2.1477  -18.3151   -7.9527 H   0  0  0  0  0  0  0  0  0  0  0  0
    2.2829  -16.9837   -8.9111 H   0  0  0  0  0  0  0  0  0  0  0  0
    3.4008  -17.2698   -7.7372 H   0  0  0  0  0  0  0  0  0  0  0  0
    4.1697  -19.2529   -8.8408 H   0  0  0  0  0  0  0  0  0  0  0  0
    3.2504  -19.4338  -11.2766 H   0  0  0  0  0  0  0  0  0  0  0  0
    1.8924  -18.4237  -10.6749 H   0  0  0  0  0  0  0  0  0  0  0  0
    2.7136  -20.9619   -9.2478 H   0  0  0  0  0  0  0  0  0  0  0  0
    1.6428  -21.0056  -10.6894 H   0  0  0  0  0  0  0  0  0  0  0  0
    5.5690  -17.0480   -9.3710 N   0  0  0  0  0  0  0  0  0  0  0  0
    6.5840  -16.1730   -9.9460 C   0  0  2  0  0  0  0  0  0  0  0  0
    7.8740  -16.9430  -10.2140 C   0  0  0  0  0  0  0  0  0  0  0  0
    8.9710  -16.4450   -9.9600 O   0  0  0  0  0  0  0  0  0  0  0  0
    6.8570  -14.9910   -9.0110 C   0  0  0  0  0  0  0  0  0  0  0  0
    6.7790  -13.6580   -9.7280 C   0  0  0  0  0  0  0  0  0  0  0  0
    7.6140  -12.7770   -9.4350 O   0  5  0  0  0  0  0  0  0  0  0  0
    5.8840  -13.4960  -10.5840 O   0  0  0  0  0  0  0  0  0  0  0  0
    5.5985  -17.2519   -8.3924 H   0  0  0  0  0  0  0  0  0  0  0  0
    6.2061  -15.7828  -10.9025 H   0  0  0  0  0  0  0  0  0  0  0  0
    7.8642  -15.1039   -8.5835 H   0  0  0  0  0  0  0  0  0  0  0  0
    6.1120  -15.0011   -8.2018 H   0  0  0  0  0  0  0  0  0  0  0  0
    7.7340  -18.1590  -10.7290 N   0  0  0  0  0  0  0  0  0  0  0  0
    8.8880  -19.0010  -11.0350 C   0  0  2  0  0  0  0  0  0  0  0  0
    9.0020  -19.2380  -12.5380 C   0  0  0  0  0  0  0  0  0  0  0  0
    9.4400  -20.3000  -12.9790 O   0  0  0  0  0  0  0  0  0  0  0  0
    8.8190  -20.3680  -10.3090 C   0  0  2  0  0  0  0  0  0  0  0  0
    7.5860  -20.4530   -9.4020 C   0  0  0  0  0  0  0  0  0  0  0  0
   10.0870  -20.6030   -9.5000 C   0  0  0  0  0  0  0  0  0  0  0  0
    7.6240  -19.4910   -8.2320 C   0  0  0  0  0  0  0  0  0  0  0  0
    6.8147  -18.5074  -10.9121 H   0  0  0  0  0  0  0  0  0  0  0  0
    9.7918  -18.4746  -10.6944 H   0  0  0  0  0  0  0  0  0  0  0  0
    8.7414  -21.1582  -11.0703 H   0  0  0  0  0  0  0  0  0  0  0  0
    7.5149  -21.4773   -9.0073 H   0  0  0  0  0  0  0  0  0  0  0  0
    6.6942  -20.2301  -10.0062 H   0  0  0  0  0  0  0  0  0  0  0  0
   10.9622  -20.5391  -10.1633 H   0  0  0  0  0  0  0  0  0  0  0  0
   10.0483  -21.6011   -9.0392 H   0  0  0  0  0  0  0  0  0  0  0  0
   10.1668  -19.8386   -8.7130 H   0  0  0  0  0  0  0  0  0  0  0  0
    6.7110  -19.6097   -7.6300 H   0  0  0  0  0  0  0  0  0  0  0  0
    7.6839  -18.4589   -8.6077 H   0  0  0  0  0  0  0  0  0  0  0  0
    8.5046  -19.7061   -7.6089 H   0  0  0  0  0  0  0  0  0  0  0  0
    8.6030  -18.2400  -13.3180 N   0  0  0  0  0  0  0  0  0  0  0  0
    8.6540  -18.3360  -14.7730 C   0  0  2  0  0  0  0  0  0  0  0  0
   10.0500  -18.0160  -15.2960 C   0  0  0  0  0  0  0  0  0  0  0  0
   10.8570  -17.3950  -14.6040 O   0  0  0  0  0  0  0  0  0  0  0  0
    7.6310  -17.3880  -15.3990 C   0  0  0  0  0  0  0  0  0  0  0  0
    6.2210  -17.6120  -14.9010 C   0  0  0  0  0  0  0  0  0  0  0  0
    5.6930  -18.8950  -14.8080 C   0  0  0  0  0  0  0  0  0  0  0  0
    5.4190  -16.5440  -14.5210 C   0  0  0  0  0  0  0  0  0  0  0  0
    4.4070  -19.1050  -14.3500 C   0  0  0  0  0  0  0  0  0  0  0  0
    4.1310  -16.7460  -14.0630 C   0  0  0  0  0  0  0  0  0  0  0  0
    3.6310  -18.0290  -13.9790 C   0  0  0  0  0  0  0  0  0  0  0  0
    2.3270  -18.2380  -13.5140 O   0  0  0  0  0  0  0  0  0  0  0  0
    1.1670  -18.2350  -14.5570 P   0  0  0  0  0  0  0  0  0  0  0  0
    1.6960  -19.0960  -15.7340 O   0  0  0  0  0  1  0  0  0  0  0  0
    0.0070  -18.9890  -13.8580 O   0  0  0  0  0  1  0  0  0  0  0  0
    0.7810  -16.8490  -14.9840 O   0  0  0  0  0  0  0  0  0  0  0  0
    8.2586  -17.4008  -12.8971 H   0  0  0  0  0  0  0  0  0  0  0  0
    8.4015  -19.3667  -15.0625 H   0  0  0  0  0  0  0  0  0  0  0  0
    7.6428  -17.5330  -16.4893 H   0  0  0  0  0  0  0  0  0  0  0  0
    7.9238  -16.3542  -15.1634 H   0  0  0  0  0  0  0  0  0  0  0  0
    6.3005  -19.7441  -15.0997 H   0  0  0  0  0  0  0  0  0  0  0  0
    5.8099  -15.5349  -14.5847 H   0  0  0  0  0  0  0  0  0  0  0  0
    4.0103  -20.1116  -14.2828 H   0  0  0  0  0  0  0  0  0  0  0  0
    3.5172  -15.9014  -13.7715 H   0  0  0  0  0  0  0  0  0  0  0  0
   10.3270  -18.4440  -16.5240 N   0  0  0  0  0  0  0  0  0  0  0  0
   11.6240  -18.2040  -17.1450 C   0  0  2  0  0  0  0  0  0  0  0  0
   11.5440  -18.3890  -18.6580 C   0  0  0  0  0  0  0  0  0  0  0  0
   10.9850  -19.3730  -19.1430 O   0  0  0  0  0  0  0  0  0  0  0  0
   12.6760  -19.1480  -16.5580 C   0  0  0  0  0  0  0  0  0  0  0  0
   12.4280  -20.6060  -16.8720 C   0  0  0  0  0  0  0  0  0  0  0  0
   11.6480  -21.3940  -16.0350 C   0  0  0  0  0  0  0  0  0  0  0  0
   12.9730  -21.1940  -18.0070 C   0  0  0  0  0  0  0  0  0  0  0  0
   11.4190  -22.7270  -16.3200 C   0  0  0  0  0  0  0  0  0  0  0  0
   12.7480  -22.5260  -18.2980 C   0  0  0  0  0  0  0  0  0  0  0  0
   11.9710  -23.2870  -17.4510 C   0  0  0  0  0  0  0  0  0  0  0  0
   11.7440  -24.6140  -17.7390 O   0  0  0  0  0  0  0  0  0  0  0  0
    9.6274  -18.9436  -17.0349 H   0  0  0  0  0  0  0  0  0  0  0  0
   11.9250  -17.1671  -16.9346 H   0  0  0  0  0  0  0  0  0  0  0  0
   12.6820  -19.0245  -15.4650 H   0  0  0  0  0  0  0  0  0  0  0  0
   13.6591  -18.8678  -16.9641 H   0  0  0  0  0  0  0  0  0  0  0  0
   11.2120  -20.9565  -15.1442 H   0  0  0  0  0  0  0  0  0  0  0  0
   13.5845  -20.5982  -18.6749 H   0  0  0  0  0  0  0  0  0  0  0  0
   10.8081  -23.3287  -15.6568 H   0  0  0  0  0  0  0  0  0  0  0  0
   13.1801  -22.9700  -19.1875 H   0  0  0  0  0  0  0  0  0  0  0  0
   11.1947  -24.9940  -17.0636 H   0  0  0  0  0  0  0  0  0  0  0  0
   12.1070  -17.4390  -19.3970 N   0  0  0  0  0  0  0  0  0  0  0  0
   12.0990  -17.4990  -20.8550 C   0  0  2  0  0  0  0  0  0  0  0  0
   13.5180  -17.4410  -21.4110 C   0  0  0  0  0  0  0  0  0  0  0  0
   14.4120  -16.8580  -20.7980 O   0  0  0  0  0  0  0  0  0  0  0  0
   11.2660  -16.3510  -21.4300 C   0  0  0  0  0  0  0  0  0  0  0  0
    9.7920  -16.3540  -21.0220 C   0  0  0  0  0  0  0  0  0  0  0  0
    9.1360  -15.0310  -21.3840 C   0  0  0  0  0  0  0  0  0  0  0  0
    9.0590  -17.5120  -21.6820 C   0  0  0  0  0  0  0  0  0  0  0  0
   12.5469  -16.6641  -18.9430 H   0  0  0  0  0  0  0  0  0  0  0  0
   11.6427  -18.4519  -21.1613 H   0  0  0  0  0  0  0  0  0  0  0  0
   11.3163  -16.4092  -22.5273 H   0  0  0  0  0  0  0  0  0  0  0  0
   11.7115  -15.4037  -21.0922 H   0  0  0  0  0  0  0  0  0  0  0  0
    9.7339  -16.4831  -19.9312 H   0  0  0  0  0  0  0  0  0  0  0  0
    8.0781  -15.0520  -21.0834 H   0  0  0  0  0  0  0  0  0  0  0  0
    9.2054  -14.8724  -22.4703 H   0  0  0  0  0  0  0  0  0  0  0  0
    9.6498  -14.2115  -20.8602 H   0  0  0  0  0  0  0  0  0  0  0  0
    9.5477  -18.4588  -21.4086 H   0  0  0  0  0  0  0  0  0  0  0  0
    9.0857  -17.3878  -22.7746 H   0  0  0  0  0  0  0  0  0  0  0  0
    8.0136  -17.5269  -21.3400 H   0  0  0  0  0  0  0  0  0  0  0  0
   13.7170  -18.0520  -22.5750 N   0  0  0  0  0  0  0  0  0  0  0  0
   15.0280  -18.0710  -23.2140 C   0  0  2  0  0  0  0  0  0  0  0  0
   15.3700  -16.7020  -23.7930 C   0  0  0  0  0  0  0  0  0  0  0  0
   16.3630  -16.0980  -23.3340 O   0  5  0  0  0  0  0  0  0  0  0  0
   15.0640  -19.1270  -24.3190 C   0  0  0  0  0  0  0  0  0  0  0  0
   14.8530  -20.5300  -23.7850 C   0  0  0  0  0  0  0  0  0  0  0  0
   15.6160  -20.9460  -22.8890 O   0  5  0  0  0  0  0  0  0  0  0  0
   13.9230  -21.2130  -24.2630 O   0  0  0  0  0  0  0  0  0  0  0  0
   14.6450  -16.2450  -24.7000 O   0  0  0  0  0  0  0  0  0  0  0  0
   12.9491  -18.5097  -23.0233 H   0  0  0  0  0  0  0  0  0  0  0  0
   15.7820  -18.3288  -22.4557 H   0  0  0  0  0  0  0  0  0  0  0  0
   16.0432  -19.0827  -24.8182 H   0  0  0  0  0  0  0  0  0  0  0  0
   14.2706  -18.9033  -25.0473 H   0  0  0  0  0  0  0  0  0  0  0  0
  1  2  1  0  0  0  0
  1 10  1  0  0  0  0
  1 11  1  0  0  0  0
  1 12  1  0  0  0  0
  2  3  1  0  0  0  0
  2  5  1  0  0  0  0
  2 13  1  1  0  0  0
  3  4  2  0  0  0  0
  3 18  1  0  0  0  0
  5  6  1  0  0  0  0
  5 14  1  0  0  0  0
  5 15  1  0  0  0  0
  6  7  1  0  0  0  0
  6 16  1  0  0  0  0
  6 17  1  0  0  0  0
  7  8  1  0  0  0  0
  7  9  2  0  0  0  0
 18 19  1  0  0  0  0
 18 26  1  0  0  0  0
 19 20  1  0  0  0  0
 19 22  1  0  0  0  0
 19 27  1  6  0  0  0
 20 21  2  0  0  0  0
 20 30  1  0  0  0  0
 22 23  1  0  0  0  0
 22 28  1  0  0  0  0
 22 29  1  0  0  0  0
 23 24  1  0  0  0  0
 23 25  2  0  0  0  0
 30 31  1  0  0  0  0
 30 38  1  0  0  0  0
 31 32  1  0  0  0  0
 31 34  1  0  0  0  0
 31 39  1  1  0  0  0
 32 33  2  0  0  0  0
 32 49  1  0  0  0  0
 34 35  1  0  0  0  0
 34 36  1  0  0  0  0
 34 40  1  6  0  0  0
 35 37  1  0  0  0  0
 35 41  1  0  0  0  0
 35 42  1  0  0  0  0
 36 43  1  0  0  0  0
 36 44  1  0  0  0  0
 36 45  1  0  0  0  0
 37 46  1  0  0  0  0
 37 47  1  0  0  0  0
 37 48  1  0  0  0  0
 49 50  1  0  0  0  0
 49 65  1  0  0  0  0
 50 51  1  0  0  0  0
 50 53  1  0  0  0  0
 50 66  1  6  0  0  0
 51 52  2  0  0  0  0
 51 73  1  0  0  0  0
 53 54  1  0  0  0  0
 53 67  1  0  0  0  0
 53 68  1  0  0  0  0
 54 55  2  0  0  0  0
 54 56  1  0  0  0  0
 55 57  1  0  0  0  0
 55 69  1  0  0  0  0
 56 58  2  0  0  0  0
 56 70  1  0  0  0  0
 57 59  2  0  0  0  0
 57 71  1  0  0  0  0
 58 59  1  0  0  0  0
 58 72  1  0  0  0  0
 59 60  1  0  0  0  0
 60 61  1  0  0  0  0
 61 62  1  0  0  0  0
 61 63  1  0  0  0  0
 61 64  2  0  0  0  0
 73 74  1  0  0  0  0
 73 85  1  0  0  0  0
 74 75  1  0  0  0  0
 74 77  1  0  0  0  0
 74 86  1  1  0  0  0
 75 76  2  0  0  0  0
 75 94  1  0  0  0  0
 77 78  1  0  0  0  0
 77 87  1  0  0  0  0
 77 88  1  0  0  0  0
 78 79  2  0  0  0  0
 78 80  1  0  0  0  0
 79 81  1  0  0  0  0
 79 89  1  0  0  0  0
 80 82  2  0  0  0  0
 80 90  1  0  0  0  0
 81 83  2  0  0  0  0
 81 91  1  0  0  0  0
 82 83  1  0  0  0  0
 82 92  1  0  0  0  0
 83 84  1  0  0  0  0
 84 93  1  0  0  0  0
 94 95  1  0  0  0  0
 94102  1  0  0  0  0
 95 96  1  0  0  0  0
 95 98  1  0  0  0  0
 95103  1  6  0  0  0
 96 97  2  0  0  0  0
 96113  1  0  0  0  0
 98 99  1  0  0  0  0
 98104  1  0  0  0  0
 98105  1  0  0  0  0
 99100  1  0  0  0  0
 99101  1  0  0  0  0
 99106  1  0  0  0  0
100107  1  0  0  0  0
100108  1  0  0  0  0
100109  1  0  0  0  0
101110  1  0  0  0  0
101111  1  0  0  0  0
101112  1  0  0  0  0
113114  1  0  0  0  0
113122  1  0  0  0  0
114115  1  0  0  0  0
114117  1  0  0  0  0
114123  1  1  0  0  0
115116  1  0  0  0  0
115121  2  0  0  0  0
117118  1  0  0  0  0
117124  1  0  0  0  0
117125  1  0  0  0  0
118119  1  0  0  0  0
118120  2  0  0  0  0
M  CHG  5   1   1   8  -1  24  -1 116  -1 119  -1
M  END
