1fig_ligand
 OpenBabel08222323343D

 26 27  0  0  1  0  0  0  0  0999 V2000
   14.4280   47.5500    9.3180 C   0  0  2  0  0  0  0  0  0  0  0  0
   14.4650   49.0020    9.8230 C   0  0  0  0  0  0  0  0  0  0  0  0
   13.7930   49.9960    9.2200 C   0  0  0  0  0  0  0  0  0  0  0  0
   12.8690   49.7480    8.1380 C   0  0  1  0  0  0  0  0  0  0  0  0
   13.4740   50.2480    6.9200 O   0  0  0  0  0  0  0  0  0  0  0  0
   12.5490   48.2730    7.9050 C   0  0  1  0  0  0  0  0  0  0  0  0
   13.8150   47.4930    7.9810 C   0  0  0  0  0  0  0  0  0  0  0  0
   11.5280   47.7600    8.8750 O   0  0  0  0  0  0  0  0  0  0  0  0
   11.9130   47.1500   10.2250 C   0  0  1  0  0  0  0  0  0  0  0  0
   13.5060   46.6700   10.2510 C   0  0  0  0  0  0  0  0  0  0  0  0
   15.8850   47.0170    9.1670 C   0  0  0  0  0  0  0  0  0  0  0  0
   16.4160   46.3840   10.0720 O   0  5  0  0  0  0  0  0  0  0  0  0
   16.5540   47.2070    8.1490 O   0  0  0  0  0  0  0  0  0  0  0  0
   11.4160   47.7780   11.5670 C   0  0  0  0  0  0  0  0  0  0  0  0
   10.6750   47.1150   12.3230 O   0  5  0  0  0  0  0  0  0  0  0  0
   11.6990   48.9450   11.8560 O   0  0  0  0  0  0  0  0  0  0  0  0
   15.0601   49.2335   10.7051 H   0  0  0  0  0  0  0  0  0  0  0  0
   13.9494   51.0197    9.5569 H   0  0  0  0  0  0  0  0  0  0  0  0
   11.9319   50.2856    8.3448 H   0  0  0  0  0  0  0  0  0  0  0  0
   12.8850   50.0970    6.1900 H   0  0  0  0  0  0  0  0  0  0  0  0
   12.1340   48.1647    6.8921 H   0  0  0  0  0  0  0  0  0  0  0  0
   13.5984   46.4428    7.7358 H   0  0  0  0  0  0  0  0  0  0  0  0
   14.5264   47.9015    7.2482 H   0  0  0  0  0  0  0  0  0  0  0  0
   11.3613   46.1985   10.2105 H   0  0  0  0  0  0  0  0  0  0  0  0
   13.8782   46.7444   11.2834 H   0  0  0  0  0  0  0  0  0  0  0  0
   13.5630   45.6241    9.9152 H   0  0  0  0  0  0  0  0  0  0  0  0
  1  2  1  0  0  0  0
  1  7  1  0  0  0  0
  1 10  1  0  0  0  0
  1 11  1  6  0  0  0
  2  3  2  0  0  0  0
  2 17  1  0  0  0  0
  3  4  1  0  0  0  0
  3 18  1  0  0  0  0
  4  5  1  0  0  0  0
  4  6  1  0  0  0  0
  4 19  1  1  0  0  0
  5 20  1  0  0  0  0
  6  7  1  0  0  0  0
  6  8  1  0  0  0  0
  6 21  1  6  0  0  0
  7 22  1  0  0  0  0
  7 23  1  0  0  0  0
  8  9  1  0  0  0  0
  9 10  1  0  0  0  0
  9 14  1  0  0  0  0
  9 24  1  6  0  0  0
 10 25  1  0  0  0  0
 10 26  1  0  0  0  0
 11 12  1  0  0  0  0
 11 13  2  0  0  0  0
 14 15  1  0  0  0  0
 14 16  2  0  0  0  0
M  CHG  2  12  -1  15  -1
M  END
