1fl6_ligand
 OpenBabel08222323343D

 40 40  0  0  1  0  0  0  0  0999 V2000
   62.1250   47.5180   15.1330 C   0  0  0  0  0  0  0  0  0  0  0  0
   61.6420   46.3060   15.7070 C   0  0  0  0  0  0  0  0  0  0  0  0
   62.1630   45.0280   15.2370 C   0  0  0  0  0  0  0  0  0  0  0  0
   63.1330   45.0160   14.2200 C   0  0  0  0  0  0  0  0  0  0  0  0
   63.6180   46.2360   13.6430 C   0  0  0  0  0  0  0  0  0  0  0  0
   63.1180   47.4840   14.0970 C   0  0  0  0  0  0  0  0  0  0  0  0
   63.6290   48.7780   13.4910 N   0  0  0  0  0  0  0  0  0  0  0  0
   63.2180   49.8210   13.8600 O   0  0  0  0  0  0  0  0  0  0  0  0
   64.4690   48.7810   12.6380 O   0  0  0  0  0  0  0  0  0  0  0  0
   61.6410   43.7050   15.8550 C   0  0  0  0  0  0  0  0  0  0  0  0
   62.0660   43.3290   17.2510 N   0  3  2  0  0  0  0  0  0  0  0  0
   61.2030   43.9370   18.3460 C   0  0  0  0  0  0  0  0  0  0  0  0
   60.0800   42.8610   19.3580 P   0  0  0  0  0  0  0  0  0  0  0  0
   59.0170   42.1310   18.4900 O   0  0  0  0  0  1  0  0  0  0  0  0
   60.8800   41.6990   20.1600 O   0  0  0  0  0  1  0  0  0  0  0  0
   59.4190   43.7510   20.3010 O   0  0  0  0  0  0  0  0  0  0  0  0
   63.5690   43.6050   17.5810 C   0  0  0  0  0  0  0  0  0  0  0  0
   64.3640   42.3190   17.8340 C   0  0  0  0  0  0  0  0  0  0  0  0
   65.1310   41.9160   16.5680 C   0  0  0  0  0  0  0  0  0  0  0  0
   64.5970   40.5720   16.0600 C   0  0  0  0  0  0  0  0  0  0  0  0
   65.6590   39.5020   16.2510 C   0  0  0  0  0  0  0  0  0  0  0  0
   65.7570   38.8050   17.4400 O   0  5  0  0  0  0  0  0  0  0  0  0
   66.4360   39.2680   15.3320 O   0  0  0  0  0  0  0  0  0  0  0  0
   61.7405   48.4701   15.4805 H   0  0  0  0  0  0  0  0  0  0  0  0
   60.8915   46.3343   16.4886 H   0  0  0  0  0  0  0  0  0  0  0  0
   63.5213   44.0680   13.8656 H   0  0  0  0  0  0  0  0  0  0  0  0
   64.3668   46.2048   12.8598 H   0  0  0  0  0  0  0  0  0  0  0  0
   61.9636   42.8902   15.1902 H   0  0  0  0  0  0  0  0  0  0  0  0
   60.5425   43.7628   15.8579 H   0  0  0  0  0  0  0  0  0  0  0  0
   61.9415   42.3304   17.3083 H   0  0  0  0  0  0  0  0  0  0  0  0
   60.5662   44.6931   17.8635 H   0  0  0  0  0  0  0  0  0  0  0  0
   61.8880   44.4305   19.0511 H   0  0  0  0  0  0  0  0  0  0  0  0
   63.6219   44.2345   18.4815 H   0  0  0  0  0  0  0  0  0  0  0  0
   64.0234   44.1387   16.7333 H   0  0  0  0  0  0  0  0  0  0  0  0
   63.6708   41.5114   18.1120 H   0  0  0  0  0  0  0  0  0  0  0  0
   65.0779   42.4878   18.6536 H   0  0  0  0  0  0  0  0  0  0  0  0
   66.2018   41.8217   16.8012 H   0  0  0  0  0  0  0  0  0  0  0  0
   64.9908   42.6839   15.7930 H   0  0  0  0  0  0  0  0  0  0  0  0
   64.3487   40.6559   14.9917 H   0  0  0  0  0  0  0  0  0  0  0  0
   63.6944   40.2982   16.6259 H   0  0  0  0  0  0  0  0  0  0  0  0
  1  2  2  0  0  0  0
  1  6  1  0  0  0  0
  1 24  1  0  0  0  0
  2  3  1  0  0  0  0
  2 25  1  0  0  0  0
  3  4  2  0  0  0  0
  3 10  1  0  0  0  0
  4  5  1  0  0  0  0
  4 26  1  0  0  0  0
  5  6  2  0  0  0  0
  5 27  1  0  0  0  0
  6  7  1  0  0  0  0
  7  8  2  0  0  0  0
  7  9  2  0  0  0  0
 10 11  1  0  0  0  0
 10 28  1  0  0  0  0
 10 29  1  0  0  0  0
 11 12  1  0  0  0  0
 11 17  1  0  0  0  0
 11 30  1  1  0  0  0
 12 13  1  0  0  0  0
 12 31  1  0  0  0  0
 12 32  1  0  0  0  0
 13 14  1  0  0  0  0
 13 15  1  0  0  0  0
 13 16  2  0  0  0  0
 17 18  1  0  0  0  0
 17 33  1  0  0  0  0
 17 34  1  0  0  0  0
 18 19  1  0  0  0  0
 18 35  1  0  0  0  0
 18 36  1  0  0  0  0
 19 20  1  0  0  0  0
 19 37  1  0  0  0  0
 19 38  1  0  0  0  0
 20 21  1  0  0  0  0
 20 39  1  0  0  0  0
 20 40  1  0  0  0  0
 21 22  1  0  0  0  0
 21 23  2  0  0  0  0
M  CHG  2  11   1  22  -1
M  END
