1fmb_ligand
 OpenBabel08222323343D

 82 84  0  0  1  0  0  0  0  0999 V2000
    6.4880   21.1190    6.5200 S   0  0  0  0  0  0  0  0  0  0  0  0
    6.9640   22.3740    6.0080 O   0  0  0  0  0  0  0  0  0  0  0  0
    5.1110   21.0070    6.8760 O   0  0  0  0  0  0  0  0  0  0  0  0
    9.6950   22.1480    0.9520 C   0  0  0  0  0  0  0  0  0  0  0  0
    8.7560   22.6570    1.7970 C   0  0  0  0  0  0  0  0  0  0  0  0
    7.7930   21.7770    2.4330 C   0  0  0  0  0  0  0  0  0  0  0  0
    7.8250   20.4490    2.1930 C   0  0  0  0  0  0  0  0  0  0  0  0
    8.8370   19.8570    1.2590 C   0  0  0  0  0  0  0  0  0  0  0  0
    9.7530   20.7400    0.6730 C   0  0  0  0  0  0  0  0  0  0  0  0
   10.7630   20.2350   -0.2150 C   0  0  0  0  0  0  0  0  0  0  0  0
   10.8110   18.8940   -0.4930 C   0  0  0  0  0  0  0  0  0  0  0  0
    9.8750   17.9990    0.0950 C   0  0  0  0  0  0  0  0  0  0  0  0
    8.9000   18.4890    0.9680 C   0  0  0  0  0  0  0  0  0  0  0  0
    2.1590   16.6320   -0.4430 O   0  0  0  0  0  0  0  0  0  0  0  0
    1.1910   17.7140   -0.7010 C   0  0  0  0  0  0  0  0  0  0  0  0
    2.2440   18.8780    1.1540 N   0  0  0  0  0  0  0  0  0  0  0  0
    1.9270   19.0160   -0.2780 C   0  0  1  0  0  0  0  0  0  0  0  0
    3.2600   19.1980   -1.0430 C   0  0  0  0  0  0  0  0  0  0  0  0
    3.9850   20.5270   -0.9940 C   0  0  0  0  0  0  0  0  0  0  0  0
    5.0320   20.8010   -0.1070 C   0  0  0  0  0  0  0  0  0  0  0  0
    5.7340   22.0130   -0.1100 C   0  0  0  0  0  0  0  0  0  0  0  0
    5.3690   22.9990   -1.0340 C   0  0  0  0  0  0  0  0  0  0  0  0
    4.3470   22.7430   -1.9450 C   0  0  0  0  0  0  0  0  0  0  0  0
    3.6590   21.5260   -1.9270 C   0  0  0  0  0  0  0  0  0  0  0  0
    3.6960   19.9570    3.6110 N   0  0  0  0  0  0  0  0  0  0  0  0
    2.3190   19.4000    3.5590 C   0  0  2  0  0  0  0  0  0  0  0  0
    1.8300   19.7870    2.1110 C   0  0  0  0  0  0  0  0  0  0  0  0
    1.1100   20.7340    1.8380 O   0  0  0  0  0  0  0  0  0  0  0  0
    1.3810   19.9220    4.6750 C   0  0  0  0  0  0  0  0  0  0  0  0
   -0.0900   19.5970    4.3670 C   0  0  0  0  0  0  0  0  0  0  0  0
    1.8700   19.2880    5.9980 C   0  0  0  0  0  0  0  0  0  0  0  0
    4.7730   19.2870    4.1060 C   0  0  0  0  0  0  0  0  0  0  0  0
    4.7100   18.1280    4.5340 O   0  0  0  0  0  0  0  0  0  0  0  0
    6.1180   20.0380    4.0130 C   0  0  2  0  0  0  0  0  0  0  0  0
    6.8410   19.4250    2.7860 C   0  0  0  0  0  0  0  0  0  0  0  0
    6.9770   19.9000    5.3110 C   0  0  0  0  0  0  0  0  0  0  0  0
    6.9310   19.4080    8.6970 C   0  0  0  0  0  0  0  0  0  0  0  0
    7.4420   20.7170    8.0430 C   0  0  0  0  0  0  0  0  0  0  0  0
    7.1320   21.8660    9.0330 C   0  0  0  0  0  0  0  0  0  0  0  0
    8.9560   20.6600    7.7230 C   0  0  0  0  0  0  0  0  0  0  0  0
   10.4092   22.8152    0.4830 H   0  0  0  0  0  0  0  0  0  0  0  0
    8.7278   23.7224    1.9951 H   0  0  0  0  0  0  0  0  0  0  0  0
    7.0459   22.1873    3.1027 H   0  0  0  0  0  0  0  0  0  0  0  0
   11.4829   20.9107   -0.6625 H   0  0  0  0  0  0  0  0  0  0  0  0
   11.5691   18.5119   -1.1671 H   0  0  0  0  0  0  0  0  0  0  0  0
    9.9178   16.9402   -0.1333 H   0  0  0  0  0  0  0  0  0  0  0  0
    8.1897   17.8072    1.4216 H   0  0  0  0  0  0  0  0  0  0  0  0
    1.7713   15.7982   -0.6816 H   0  0  0  0  0  0  0  0  0  0  0  0
    0.2809   17.5709   -0.1000 H   0  0  0  0  0  0  0  0  0  0  0  0
    0.9244   17.7490   -1.7676 H   0  0  0  0  0  0  0  0  0  0  0  0
    2.7842   18.0896    1.4483 H   0  0  0  0  0  0  0  0  0  0  0  0
    1.2778   19.8869   -0.4512 H   0  0  0  0  0  0  0  0  0  0  0  0
    3.0493   18.9899   -2.1024 H   0  0  0  0  0  0  0  0  0  0  0  0
    3.9565   18.4416   -0.6522 H   0  0  0  0  0  0  0  0  0  0  0  0
    5.3121   20.0418    0.6142 H   0  0  0  0  0  0  0  0  0  0  0  0
    6.5442   22.1841    0.5896 H   0  0  0  0  0  0  0  0  0  0  0  0
    5.8785   23.9558   -1.0405 H   0  0  0  0  0  0  0  0  0  0  0  0
    4.0816   23.4969   -2.6773 H   0  0  0  0  0  0  0  0  0  0  0  0
    2.8635   21.3507   -2.6422 H   0  0  0  0  0  0  0  0  0  0  0  0
    3.8406   20.8823    3.2603 H   0  0  0  0  0  0  0  0  0  0  0  0
    2.3650   18.3050    3.6524 H   0  0  0  0  0  0  0  0  0  0  0  0
    1.4789   21.0153    4.7470 H   0  0  0  0  0  0  0  0  0  0  0  0
   -0.7276   19.9805    5.1772 H   0  0  0  0  0  0  0  0  0  0  0  0
   -0.2156   18.5072    4.2862 H   0  0  0  0  0  0  0  0  0  0  0  0
   -0.3792   20.0709    3.4174 H   0  0  0  0  0  0  0  0  0  0  0  0
    2.9243   19.5540    6.1643 H   0  0  0  0  0  0  0  0  0  0  0  0
    1.7730   18.1939    5.9382 H   0  0  0  0  0  0  0  0  0  0  0  0
    1.2607   19.6651    6.8326 H   0  0  0  0  0  0  0  0  0  0  0  0
    5.9295   21.1073    3.8369 H   0  0  0  0  0  0  0  0  0  0  0  0
    7.3937   18.5270    3.0993 H   0  0  0  0  0  0  0  0  0  0  0  0
    6.0969   19.1503    2.0238 H   0  0  0  0  0  0  0  0  0  0  0  0
    6.8347   18.8944    5.7335 H   0  0  0  0  0  0  0  0  0  0  0  0
    8.0379   20.0454    5.0596 H   0  0  0  0  0  0  0  0  0  0  0  0
    7.5196   19.1962    9.6018 H   0  0  0  0  0  0  0  0  0  0  0  0
    7.0397   18.5760    7.9857 H   0  0  0  0  0  0  0  0  0  0  0  0
    5.8710   19.5228    8.9677 H   0  0  0  0  0  0  0  0  0  0  0  0
    7.6721   21.6935    9.9756 H   0  0  0  0  0  0  0  0  0  0  0  0
    6.0504   21.8978    9.2307 H   0  0  0  0  0  0  0  0  0  0  0  0
    7.4533   22.8231    8.5962 H   0  0  0  0  0  0  0  0  0  0  0  0
    9.5155   20.4194    8.6390 H   0  0  0  0  0  0  0  0  0  0  0  0
    9.2863   21.6358    7.3373 H   0  0  0  0  0  0  0  0  0  0  0  0
    9.1417   19.8843    6.9655 H   0  0  0  0  0  0  0  0  0  0  0  0
  1  2  2  0  0  0  0
  1  3  2  0  0  0  0
  1 38  1  0  0  0  0
  4 41  1  0  0  0  0
  5  4  2  0  0  0  0
  5 42  1  0  0  0  0
  6  5  1  0  0  0  0
  6 43  1  0  0  0  0
  7  6  2  0  0  0  0
  7  8  1  0  0  0  0
  8  9  2  0  0  0  0
  8 13  1  0  0  0  0
  9  4  1  0  0  0  0
  9 10  1  0  0  0  0
 10 11  2  0  0  0  0
 10 44  1  0  0  0  0
 11 45  1  0  0  0  0
 12 11  1  0  0  0  0
 12 46  1  0  0  0  0
 13 12  2  0  0  0  0
 13 47  1  0  0  0  0
 14 48  1  0  0  0  0
 15 14  1  0  0  0  0
 15 49  1  0  0  0  0
 15 50  1  0  0  0  0
 16 27  1  0  0  0  0
 16 17  1  0  0  0  0
 16 51  1  0  0  0  0
 17 15  1  0  0  0  0
 17 18  1  0  0  0  0
 17 52  1  6  0  0  0
 18 19  1  0  0  0  0
 18 53  1  0  0  0  0
 18 54  1  0  0  0  0
 19 20  2  0  0  0  0
 19 24  1  0  0  0  0
 20 21  1  0  0  0  0
 20 55  1  0  0  0  0
 21 22  2  0  0  0  0
 21 56  1  0  0  0  0
 22 57  1  0  0  0  0
 23 22  1  0  0  0  0
 23 58  1  0  0  0  0
 24 23  2  0  0  0  0
 24 59  1  0  0  0  0
 25 32  1  0  0  0  0
 25 60  1  0  0  0  0
 26 25  1  0  0  0  0
 26 29  1  0  0  0  0
 26 61  1  1  0  0  0
 27 26  1  0  0  0  0
 27 28  2  0  0  0  0
 29 30  1  0  0  0  0
 29 31  1  0  0  0  0
 29 62  1  0  0  0  0
 30 63  1  0  0  0  0
 30 64  1  0  0  0  0
 30 65  1  0  0  0  0
 31 66  1  0  0  0  0
 31 67  1  0  0  0  0
 31 68  1  0  0  0  0
 32 33  2  0  0  0  0
 32 34  1  0  0  0  0
 34 35  1  0  0  0  0
 34 36  1  0  0  0  0
 34 69  1  6  0  0  0
 35  7  1  0  0  0  0
 35 70  1  0  0  0  0
 35 71  1  0  0  0  0
 36  1  1  0  0  0  0
 36 72  1  0  0  0  0
 36 73  1  0  0  0  0
 37 74  1  0  0  0  0
 37 75  1  0  0  0  0
 37 76  1  0  0  0  0
 38 39  1  0  0  0  0
 38 40  1  0  0  0  0
 38 37  1  0  0  0  0
 39 77  1  0  0  0  0
 39 78  1  0  0  0  0
 39 79  1  0  0  0  0
 40 80  1  0  0  0  0
 40 81  1  0  0  0  0
 40 82  1  0  0  0  0
M  END
