1fpi_ligand
 OpenBabel08222323343D

 35 37  0  0  1  0  0  0  0  0999 V2000
   35.8620   90.9570  -13.2880 P   0  0  0  0  0  0  0  0  0  0  0  0
   37.2300   91.4580  -12.9470 O   0  0  0  0  0  1  0  0  0  0  0  0
   35.4040   90.0870  -12.1570 O   0  0  0  0  0  1  0  0  0  0  0  0
   35.7590   90.1360  -14.5640 O   0  0  0  0  0  0  0  0  0  0  0  0
   34.8360   92.0820  -13.3630 O   0  0  0  0  0  0  0  0  0  0  0  0
   35.1210   93.1190  -14.3520 C   0  0  0  0  0  0  0  0  0  0  0  0
   34.1070   94.2450  -14.1290 C   0  0  1  0  0  0  0  0  0  0  0  0
   32.7750   93.7380  -13.9490 O   0  0  0  0  0  0  0  0  0  0  0  0
   34.3330   94.9390  -12.7520 C   0  0  1  0  0  0  0  0  0  0  0  0
   35.3700   95.7070  -12.6890 O   0  0  0  0  0  0  0  0  0  0  0  0
   32.9970   95.6370  -12.4890 C   0  0  1  0  0  0  0  0  0  0  0  0
   32.7110   96.4410  -13.5020 O   0  0  0  0  0  0  0  0  0  0  0  0
   32.3050   94.2790  -12.6900 C   0  0  2  0  0  0  0  0  0  0  0  0
   32.0870   93.3330  -11.5740 N   0  0  0  0  0  0  0  0  0  0  0  0
   32.8110   92.1950  -11.3600 C   0  0  0  0  0  0  0  0  0  0  0  0
   32.3230   91.6590  -10.2120 N   0  0  0  0  0  0  0  0  0  0  0  0
   31.3060   92.4090   -9.6820 C   0  0  0  0  0  0  0  0  0  0  0  0
   30.4990   92.3560   -8.5820 C   0  0  0  0  0  0  0  0  0  0  0  0
   30.6100   91.4200   -7.6070 N   0  0  0  0  0  0  0  0  0  0  0  0
   29.6160   93.3260   -8.4080 N   0  0  0  0  0  0  0  0  0  0  0  0
   29.4600   94.3560   -9.2230 C   0  0  0  0  0  0  0  0  0  0  0  0
   30.2330   94.4750  -10.3220 N   0  0  0  0  0  0  0  0  0  0  0  0
   31.1440   93.4870  -10.5370 C   0  0  0  0  0  0  0  0  0  0  0  0
   35.0143   92.7110  -15.3679 H   0  0  0  0  0  0  0  0  0  0  0  0
   36.1438   93.4999  -14.2153 H   0  0  0  0  0  0  0  0  0  0  0  0
   34.1608   94.9608  -14.9625 H   0  0  0  0  0  0  0  0  0  0  0  0
   34.4783   94.1611  -11.9880 H   0  0  0  0  0  0  0  0  0  0  0  0
   36.1515   95.1973  -12.8681 H   0  0  0  0  0  0  0  0  0  0  0  0
   32.8696   96.1226  -11.5103 H   0  0  0  0  0  0  0  0  0  0  0  0
   32.6505   95.9318  -14.3017 H   0  0  0  0  0  0  0  0  0  0  0  0
   31.2679   94.5717  -12.9106 H   0  0  0  0  0  0  0  0  0  0  0  0
   33.6133   91.7995  -11.9812 H   0  0  0  0  0  0  0  0  0  0  0  0
   29.9679   91.4365   -6.8018 H   0  0  0  0  0  0  0  0  0  0  0  0
   31.3364   90.6926   -7.6717 H   0  0  0  0  0  0  0  0  0  0  0  0
   28.7086   95.1069   -9.0071 H   0  0  0  0  0  0  0  0  0  0  0  0
  1  2  1  0  0  0  0
  1  3  1  0  0  0  0
  1  4  2  0  0  0  0
  1  5  1  0  0  0  0
  5  6  1  0  0  0  0
  6  7  1  0  0  0  0
  6 24  1  0  0  0  0
  6 25  1  0  0  0  0
  7  8  1  0  0  0  0
  7  9  1  0  0  0  0
  7 26  1  6  0  0  0
  8 13  1  0  0  0  0
  9 10  1  0  0  0  0
  9 11  1  0  0  0  0
  9 27  1  1  0  0  0
 10 28  1  0  0  0  0
 11 12  1  0  0  0  0
 11 13  1  0  0  0  0
 11 29  1  1  0  0  0
 12 30  1  0  0  0  0
 13 14  1  0  0  0  0
 13 31  1  6  0  0  0
 14 15  1  0  0  0  0
 14 23  1  0  0  0  0
 15 16  2  0  0  0  0
 15 32  1  0  0  0  0
 16 17  1  0  0  0  0
 17 18  2  0  0  0  0
 17 23  1  0  0  0  0
 18 19  1  0  0  0  0
 18 20  1  0  0  0  0
 19 33  1  0  0  0  0
 19 34  1  0  0  0  0
 20 21  2  0  0  0  0
 21 22  1  0  0  0  0
 21 35  1  0  0  0  0
 22 23  2  0  0  0  0
M  END
