1fpp_ligand
 OpenBabel08222323343D

 49 48  0  0  0  0  0  0  0  0999 V2000
  -32.5640   98.1220   23.1650 C   0  0  0  0  0  0  0  0  0  0  0  0
  -33.3690   97.4570   24.1550 O   0  0  0  0  0  0  0  0  0  0  0  0
  -32.9460   99.5490   22.8280 C   0  0  0  0  0  0  0  0  0  0  0  0
  -32.0630  100.5720   22.7390 C   0  0  0  0  0  0  0  0  0  0  0  0
  -32.5030  102.0030   22.3830 C   0  0  0  0  0  0  0  0  0  0  0  0
  -30.6130  100.2660   22.9990 C   0  0  0  0  0  0  0  0  0  0  0  0
  -29.7910  101.5270   23.3600 C   0  0  0  0  0  0  0  0  0  0  0  0
  -28.2570  101.3710   23.2860 C   0  0  0  0  0  0  0  0  0  0  0  0
  -27.4210  101.5050   22.2130 C   0  0  0  0  0  0  0  0  0  0  0  0
  -27.9560  101.8670   20.8040 C   0  0  0  0  0  0  0  0  0  0  0  0
  -25.9140  101.2860   22.4210 C   0  0  0  0  0  0  0  0  0  0  0  0
  -25.4860   99.8310   22.7340 C   0  0  0  0  0  0  0  0  0  0  0  0
  -25.4440   98.8730   21.5410 C   0  0  0  0  0  0  0  0  0  0  0  0
  -24.6830   97.7450   21.3570 C   0  0  0  0  0  0  0  0  0  0  0  0
  -24.7200   96.8610   20.1280 C   0  0  0  0  0  0  0  0  0  0  0  0
  -23.6910   97.2170   22.3710 C   0  0  0  0  0  0  0  0  0  0  0  0
  -34.1510   96.0610   23.8010 P   0  0  1  0  0  0  0  0  0  0  0  0
  -33.0910   94.8960   23.8410 O   0  0  0  0  0  1  0  0  0  0  0  0
  -35.2970   96.1520   24.8150 O   0  0  0  0  0  0  0  0  0  0  0  0
  -34.7800   95.7330   22.4430 O   0  0  0  0  0  0  0  0  0  0  0  0
  -35.1320   96.8830   21.4830 P   0  0  0  0  0  0  0  0  0  0  0  0
  -35.8160   98.1230   22.0000 O   0  0  0  0  0  1  0  0  0  0  0  0
  -35.9110   96.2950   20.3450 O   0  0  0  0  0  1  0  0  0  0  0  0
  -33.8900   97.5800   20.8440 O   0  0  0  0  0  0  0  0  0  0  0  0
  -32.6213   97.5332   22.2376 H   0  0  0  0  0  0  0  0  0  0  0  0
  -31.5263   98.1315   23.5298 H   0  0  0  0  0  0  0  0  0  0  0  0
  -33.9975   99.7658   22.6458 H   0  0  0  0  0  0  0  0  0  0  0  0
  -31.6238  102.6639   22.3682 H   0  0  0  0  0  0  0  0  0  0  0  0
  -33.2203  102.3638   23.1349 H   0  0  0  0  0  0  0  0  0  0  0  0
  -32.9793  102.0042   21.3915 H   0  0  0  0  0  0  0  0  0  0  0  0
  -30.1816   99.8119   22.0947 H   0  0  0  0  0  0  0  0  0  0  0  0
  -30.5482   99.5529   23.8340 H   0  0  0  0  0  0  0  0  0  0  0  0
  -30.0517  101.8172   24.3885 H   0  0  0  0  0  0  0  0  0  0  0  0
  -30.0826  102.3301   22.6672 H   0  0  0  0  0  0  0  0  0  0  0  0
  -27.7696  101.1171   24.2262 H   0  0  0  0  0  0  0  0  0  0  0  0
  -27.1160  101.9226   20.0960 H   0  0  0  0  0  0  0  0  0  0  0  0
  -28.4663  102.8406   20.8445 H   0  0  0  0  0  0  0  0  0  0  0  0
  -28.6653  101.0947   20.4715 H   0  0  0  0  0  0  0  0  0  0  0  0
  -25.5923  101.9211   23.2595 H   0  0  0  0  0  0  0  0  0  0  0  0
  -25.3964  101.6009   21.5029 H   0  0  0  0  0  0  0  0  0  0  0  0
  -26.1949   99.4223   23.4691 H   0  0  0  0  0  0  0  0  0  0  0  0
  -24.4788   99.8638   23.1749 H   0  0  0  0  0  0  0  0  0  0  0  0
  -26.1144   99.1219   20.7197 H   0  0  0  0  0  0  0  0  0  0  0  0
  -24.0088   96.0311   20.2518 H   0  0  0  0  0  0  0  0  0  0  0  0
  -24.4431   97.4521   19.2426 H   0  0  0  0  0  0  0  0  0  0  0  0
  -25.7349   96.4576   19.9969 H   0  0  0  0  0  0  0  0  0  0  0  0
  -23.6826   97.8748   23.2526 H   0  0  0  0  0  0  0  0  0  0  0  0
  -22.6868   97.1918   21.9228 H   0  0  0  0  0  0  0  0  0  0  0  0
  -23.9827   96.2008   22.6746 H   0  0  0  0  0  0  0  0  0  0  0  0
  1  2  1  0  0  0  0
  1  3  1  0  0  0  0
  1 25  1  0  0  0  0
  1 26  1  0  0  0  0
  2 17  1  0  0  0  0
  3  4  2  0  0  0  0
  3 27  1  0  0  0  0
  4  5  1  0  0  0  0
  4  6  1  0  0  0  0
  5 28  1  0  0  0  0
  5 29  1  0  0  0  0
  5 30  1  0  0  0  0
  6  7  1  0  0  0  0
  6 31  1  0  0  0  0
  6 32  1  0  0  0  0
  7  8  1  0  0  0  0
  7 33  1  0  0  0  0
  7 34  1  0  0  0  0
  8  9  2  0  0  0  0
  8 35  1  0  0  0  0
  9 10  1  0  0  0  0
  9 11  1  0  0  0  0
 10 36  1  0  0  0  0
 10 37  1  0  0  0  0
 10 38  1  0  0  0  0
 11 12  1  0  0  0  0
 11 39  1  0  0  0  0
 11 40  1  0  0  0  0
 12 13  1  0  0  0  0
 12 41  1  0  0  0  0
 12 42  1  0  0  0  0
 13 14  2  0  0  0  0
 13 43  1  0  0  0  0
 14 15  1  0  0  0  0
 14 16  1  0  0  0  0
 15 44  1  0  0  0  0
 15 45  1  0  0  0  0
 15 46  1  0  0  0  0
 16 47  1  0  0  0  0
 16 48  1  0  0  0  0
 16 49  1  0  0  0  0
 17 18  1  1  0  0  0
 17 19  2  0  0  0  0
 17 20  1  0  0  0  0
 20 21  1  0  0  0  0
 21 22  1  0  0  0  0
 21 23  1  0  0  0  0
 21 24  2  0  0  0  0
M  END
