1fsy_ligand
 OpenBabel08222323343D

 32 33  0  0  0  0  0  0  0  0999 V2000
   26.4040    4.8710   16.2880 B   0  0  0  0  0  0  0  0  0  0  0  0
   25.2700    3.8740   16.5010 O   0  0  0  0  0  0  0  0  0  0  0  0
   26.5500    5.7400   17.4770 O   0  0  0  0  0  0  0  0  0  0  0  0
   26.1510    5.7310   15.0080 C   0  0  0  0  0  0  0  0  0  0  0  0
   24.7490    5.6030   14.5640 N   0  0  0  0  0  0  0  0  0  0  0  0
   24.3710    5.8520   13.2880 C   0  0  0  0  0  0  0  0  0  0  0  0
   25.1470    6.2190   12.4020 O   0  0  0  0  0  0  0  0  0  0  0  0
   22.9710    5.7210   12.9990 C   0  0  0  0  0  0  0  0  0  0  0  0
   20.7340    6.0800   13.3510 N   0  0  0  0  0  0  0  0  0  0  0  0
   20.9280    5.3460   12.1180 O   0  0  0  0  0  0  0  0  0  0  0  0
   22.2390    5.2140   12.0390 C   0  0  0  0  0  0  0  0  0  0  0  0
   21.9430    6.2880   13.8370 C   0  0  0  0  0  0  0  0  0  0  0  0
   22.8790    4.4890   10.8840 C   0  0  0  0  0  0  0  0  0  0  0  0
   21.9710    7.0550   15.1670 C   0  0  0  0  0  0  0  0  0  0  0  0
   22.7020    8.3110   15.2630 C   0  0  0  0  0  0  0  0  0  0  0  0
   23.4190    9.0830   13.8170 Cl  0  0  0  0  0  0  0  0  0  0  0  0
   22.8860    8.9420   16.5190 C   0  0  0  0  0  0  0  0  0  0  0  0
   22.3420    8.3460   17.6870 C   0  0  0  0  0  0  0  0  0  0  0  0
   21.6060    7.1260   17.5970 C   0  0  0  0  0  0  0  0  0  0  0  0
   21.4190    6.4810   16.3390 C   0  0  0  0  0  0  0  0  0  0  0  0
   25.1861    3.3225   15.7320 H   0  0  0  0  0  0  0  0  0  0  0  0
   27.2586    6.3560   17.3325 H   0  0  0  0  0  0  0  0  0  0  0  0
   26.8176    5.3866   14.2036 H   0  0  0  0  0  0  0  0  0  0  0  0
   26.3636    6.7864   15.2338 H   0  0  0  0  0  0  0  0  0  0  0  0
   24.0554    5.3231   15.2277 H   0  0  0  0  0  0  0  0  0  0  0  0
   22.0983    4.1421   10.1910 H   0  0  0  0  0  0  0  0  0  0  0  0
   23.4445    3.6244   11.2618 H   0  0  0  0  0  0  0  0  0  0  0  0
   23.5614    5.1711   10.3558 H   0  0  0  0  0  0  0  0  0  0  0  0
   23.4379    9.8725   16.5871 H   0  0  0  0  0  0  0  0  0  0  0  0
   22.4861    8.8194   18.6515 H   0  0  0  0  0  0  0  0  0  0  0  0
   21.1852    6.6857   18.4937 H   0  0  0  0  0  0  0  0  0  0  0  0
   20.8572    5.5559   16.2796 H   0  0  0  0  0  0  0  0  0  0  0  0
  1  2  1  0  0  0  0
  1  3  1  0  0  0  0
  2 21  1  0  0  0  0
  3 22  1  0  0  0  0
  4  1  1  0  0  0  0
  4 23  1  0  0  0  0
  4 24  1  0  0  0  0
  5  4  1  0  0  0  0
  5 25  1  0  0  0  0
  6  5  1  0  0  0  0
  6  7  2  0  0  0  0
  8  6  1  0  0  0  0
  8 11  2  0  0  0  0
  9 10  1  0  0  0  0
  9 12  2  0  0  0  0
 10 11  1  0  0  0  0
 11 13  1  0  0  0  0
 12  8  1  0  0  0  0
 12 14  1  0  0  0  0
 13 26  1  0  0  0  0
 13 27  1  0  0  0  0
 13 28  1  0  0  0  0
 14 15  2  0  0  0  0
 14 20  1  0  0  0  0
 15 16  1  0  0  0  0
 15 17  1  0  0  0  0
 17 18  2  0  0  0  0
 17 29  1  0  0  0  0
 18 19  1  0  0  0  0
 18 30  1  0  0  0  0
 19 20  2  0  0  0  0
 19 31  1  0  0  0  0
 20 32  1  0  0  0  0
M  END
