1fv9_ligand
 OpenBabel08222323343D

 18 19  0  0  0  0  0  0  0  0999 V2000
   21.0210   16.0610   33.5870 C   0  0  0  0  0  0  0  0  0  0  0  0
   21.0130   17.3660   34.0060 C   0  0  0  0  0  0  0  0  0  0  0  0
   19.8440   18.0310   33.9110 C   0  0  0  0  0  0  0  0  0  0  0  0
   18.7770   17.5240   33.4730 C   0  0  0  0  0  0  0  0  0  0  0  0
   18.6710   16.2560   33.0310 C   0  0  0  0  0  0  0  0  0  0  0  0
   19.8380   15.4740   33.0780 C   0  0  0  0  0  0  0  0  0  0  0  0
   19.7560   19.3420   34.2640 N   0  0  0  0  0  0  0  0  0  0  0  0
   18.4010   19.5750   33.9580 C   0  0  0  0  0  0  0  0  0  0  0  0
   17.7440   18.4180   33.4490 N   0  0  0  0  0  0  0  0  0  0  0  0
   17.7880   20.7780   34.1480 N   0  0  0  0  0  0  0  0  0  0  0  0
   22.1710   15.3420   33.6520 O   0  0  0  0  0  0  0  0  0  0  0  0
   21.9056   17.8416   34.3959 H   0  0  0  0  0  0  0  0  0  0  0  0
   17.7337   15.8590   32.6582 H   0  0  0  0  0  0  0  0  0  0  0  0
   19.8321   14.4464   32.7328 H   0  0  0  0  0  0  0  0  0  0  0  0
   20.4713   19.9783   34.6440 H   0  0  0  0  0  0  0  0  0  0  0  0
   16.7933   20.8930   33.9066 H   0  0  0  0  0  0  0  0  0  0  0  0
   18.3196   21.5718   34.5329 H   0  0  0  0  0  0  0  0  0  0  0  0
   22.8617   15.8836   34.0155 H   0  0  0  0  0  0  0  0  0  0  0  0
  1  2  2  0  0  0  0
  1  6  1  0  0  0  0
  1 11  1  0  0  0  0
  2  3  1  0  0  0  0
  2 12  1  0  0  0  0
  3  4  2  0  0  0  0
  3  7  1  0  0  0  0
  4  5  1  0  0  0  0
  4  9  1  0  0  0  0
  5  6  2  0  0  0  0
  5 13  1  0  0  0  0
  6 14  1  0  0  0  0
  7  8  1  0  0  0  0
  7 15  1  0  0  0  0
  8  9  2  0  0  0  0
  8 10  1  0  0  0  0
 10 16  1  0  0  0  0
 10 17  1  0  0  0  0
 11 18  1  0  0  0  0
M  END
