1g27_ligand
 OpenBabel08222323343D

 54 53  0  0  1  0  0  0  0  0999 V2000
   42.9860    4.0800   14.1010 C   0  0  0  0  0  0  0  0  0  0  0  0
   44.0920    5.1250   14.0770 C   0  0  2  0  0  0  0  0  0  0  0  0
   44.0940    5.8880   12.7890 C   0  0  0  0  0  0  0  0  0  0  0  0
   44.0530    5.2760   11.7210 O   0  0  0  0  0  0  0  0  0  0  0  0
   44.2840    7.2150   12.8890 N   0  0  0  0  0  0  0  0  0  0  0  0
   44.4560    8.0710   11.7520 C   0  0  2  0  0  0  0  0  0  0  0  0
   45.5030    4.5930   14.4520 C   0  0  0  0  0  0  0  0  0  0  0  0
   46.5220    5.7790   14.6060 C   0  0  0  0  0  0  0  0  0  0  0  0
   47.9740    5.2550   14.5220 C   0  0  0  0  0  0  0  0  0  0  0  0
   48.9550    6.2160   15.1830 C   0  0  0  0  0  0  0  0  0  0  0  0
   42.7730    3.5910   15.4500 N   0  0  0  0  0  0  0  0  0  0  0  0
   43.4050    2.5010   15.8730 C   0  0  0  0  0  0  0  0  0  0  0  0
   43.3330    2.1390   17.0500 O   0  0  0  0  0  0  0  0  0  0  0  0
   42.1440    4.2460   16.4290 O   0  0  0  0  0  0  0  0  0  0  0  0
   45.6780    8.9080   12.0840 C   0  0  0  0  0  0  0  0  0  0  0  0
   46.7860    9.0540   11.3330 N   0  0  0  0  0  0  0  0  0  0  0  0
   47.8470    9.9050   11.8650 C   0  0  0  0  0  0  0  0  0  0  0  0
   46.9300    8.4250   10.0290 C   0  0  0  0  0  0  0  0  0  0  0  0
   45.6300    9.4560   13.1870 O   0  0  0  0  0  0  0  0  0  0  0  0
   43.2340    8.8990   11.3480 C   0  0  0  0  0  0  0  0  0  0  0  0
   43.5900    9.7580   10.1250 C   0  0  0  0  0  0  0  0  0  0  0  0
   42.7770    9.8300   12.4930 C   0  0  0  0  0  0  0  0  0  0  0  0
   42.0820    7.9600   10.9920 C   0  0  0  0  0  0  0  0  0  0  0  0
   42.0544    4.5314   13.7290 H   0  0  0  0  0  0  0  0  0  0  0  0
   43.2702    3.2383   13.4523 H   0  0  0  0  0  0  0  0  0  0  0  0
   43.8331    5.8502   14.8625 H   0  0  0  0  0  0  0  0  0  0  0  0
   44.3065    7.6250   13.8008 H   0  0  0  0  0  0  0  0  0  0  0  0
   44.6960    7.4373   10.8855 H   0  0  0  0  0  0  0  0  0  0  0  0
   45.8552    3.9151   13.6606 H   0  0  0  0  0  0  0  0  0  0  0  0
   45.4409    4.0448   15.4036 H   0  0  0  0  0  0  0  0  0  0  0  0
   46.3679    6.2653   15.5805 H   0  0  0  0  0  0  0  0  0  0  0  0
   46.3529    6.5092   13.8009 H   0  0  0  0  0  0  0  0  0  0  0  0
   48.2498    5.1348   13.4639 H   0  0  0  0  0  0  0  0  0  0  0  0
   48.0320    4.2806   15.0290 H   0  0  0  0  0  0  0  0  0  0  0  0
   49.9747    5.8110   15.1038 H   0  0  0  0  0  0  0  0  0  0  0  0
   48.6904    6.3381   16.2437 H   0  0  0  0  0  0  0  0  0  0  0  0
   48.9081    7.1924   14.6786 H   0  0  0  0  0  0  0  0  0  0  0  0
   43.9963    1.9177   15.1687 H   0  0  0  0  0  0  0  0  0  0  0  0
   42.1380    3.7106   17.2138 H   0  0  0  0  0  0  0  0  0  0  0  0
   48.6853    9.9339   11.1534 H   0  0  0  0  0  0  0  0  0  0  0  0
   48.1957    9.4988   12.8259 H   0  0  0  0  0  0  0  0  0  0  0  0
   47.4592   10.9232   12.0163 H   0  0  0  0  0  0  0  0  0  0  0  0
   46.0322    7.8290    9.8083 H   0  0  0  0  0  0  0  0  0  0  0  0
   47.8132    7.7694   10.0336 H   0  0  0  0  0  0  0  0  0  0  0  0
   47.0533    9.2010    9.2592 H   0  0  0  0  0  0  0  0  0  0  0  0
   42.7151   10.3558    9.8297 H   0  0  0  0  0  0  0  0  0  0  0  0
   43.8857    9.1042    9.2913 H   0  0  0  0  0  0  0  0  0  0  0  0
   44.4239   10.4290   10.3784 H   0  0  0  0  0  0  0  0  0  0  0  0
   42.5189    9.2263   13.3756 H   0  0  0  0  0  0  0  0  0  0  0  0
   41.8952   10.4028   12.1701 H   0  0  0  0  0  0  0  0  0  0  0  0
   43.5914   10.5237   12.7487 H   0  0  0  0  0  0  0  0  0  0  0  0
   41.8267    7.3447   11.8673 H   0  0  0  0  0  0  0  0  0  0  0  0
   42.3850    7.3068   10.1605 H   0  0  0  0  0  0  0  0  0  0  0  0
   41.2052    8.5526   10.6921 H   0  0  0  0  0  0  0  0  0  0  0  0
  1 11  1  0  0  0  0
  1  2  1  0  0  0  0
  1 24  1  0  0  0  0
  1 25  1  0  0  0  0
  2  7  1  0  0  0  0
  2  3  1  0  0  0  0
  2 26  1  1  0  0  0
  3  5  1  0  0  0  0
  3  4  2  0  0  0  0
  5  6  1  0  0  0  0
  5 27  1  0  0  0  0
  6 20  1  0  0  0  0
  6 15  1  0  0  0  0
  6 28  1  6  0  0  0
  7  8  1  0  0  0  0
  7 29  1  0  0  0  0
  7 30  1  0  0  0  0
  8  9  1  0  0  0  0
  8 31  1  0  0  0  0
  8 32  1  0  0  0  0
  9 10  1  0  0  0  0
  9 33  1  0  0  0  0
  9 34  1  0  0  0  0
 10 35  1  0  0  0  0
 10 36  1  0  0  0  0
 10 37  1  0  0  0  0
 11 14  1  0  0  0  0
 11 12  1  0  0  0  0
 12 13  2  0  0  0  0
 12 38  1  0  0  0  0
 14 39  1  0  0  0  0
 15 19  2  0  0  0  0
 15 16  1  0  0  0  0
 16 18  1  0  0  0  0
 16 17  1  0  0  0  0
 17 40  1  0  0  0  0
 17 41  1  0  0  0  0
 17 42  1  0  0  0  0
 18 43  1  0  0  0  0
 18 44  1  0  0  0  0
 18 45  1  0  0  0  0
 20 23  1  0  0  0  0
 20 22  1  0  0  0  0
 20 21  1  0  0  0  0
 21 46  1  0  0  0  0
 21 47  1  0  0  0  0
 21 48  1  0  0  0  0
 22 49  1  0  0  0  0
 22 50  1  0  0  0  0
 22 51  1  0  0  0  0
 23 52  1  0  0  0  0
 23 53  1  0  0  0  0
 23 54  1  0  0  0  0
M  END
