1g37_ligand
 OpenBabel08222323343D

 83 86  0  0  1  0  0  0  0  0999 V2000
   16.0210   18.4310   20.0150 N   0  0  0  0  0  0  0  0  0  0  0  0
   14.7580   18.3600   19.2090 C   0  0  1  0  0  0  0  0  0  0  0  0
   15.1760   18.4440   16.0870 O   0  0  0  0  0  0  0  0  0  0  0  0
   14.4860   19.0730   14.9610 C   0  0  0  0  0  0  0  0  0  0  0  0
   14.1900   18.1930   13.7360 C   0  0  0  0  0  0  0  0  0  0  0  0
   15.5880   19.2470   17.1070 C   0  0  0  0  0  0  0  0  0  0  0  0
   16.7200   19.6940   17.2110 O   0  0  0  0  0  0  0  0  0  0  0  0
   16.8810   17.3630   20.1200 C   0  0  0  0  0  0  0  0  0  0  0  0
   16.7540   16.3050   19.5070 O   0  0  0  0  0  0  0  0  0  0  0  0
   20.2980   16.5300   21.0110 C   0  0  0  0  0  0  0  0  0  0  0  0
   19.3970   15.4820   21.6280 C   0  0  2  0  0  0  0  0  0  0  0  0
   18.1720   16.2910   21.8980 N   0  0  0  0  0  0  0  0  0  0  0  0
   18.0410   17.5100   21.0870 C   0  0  1  0  0  0  0  0  0  0  0  0
   19.3980   17.5540   20.3790 C   0  0  0  0  0  0  0  0  0  0  0  0
   17.3820   14.7160   23.6320 C   0  0  0  0  0  0  0  0  0  0  0  0
   17.2250   15.9600   22.7880 C   0  0  0  0  0  0  0  0  0  0  0  0
   19.0400   12.6850   24.2360 S   0  0  0  0  0  0  0  0  0  0  0  0
   17.8020   11.9510   24.3410 O   0  0  0  0  0  0  0  0  0  0  0  0
   20.1800   12.1080   23.5450 O   0  0  0  0  0  0  0  0  0  0  0  0
   21.8750   13.8860   25.6030 C   0  0  0  0  0  0  0  0  0  0  0  0
   20.5830   14.1980   26.0280 C   0  0  0  0  0  0  0  0  0  0  0  0
   19.4980   13.1740   25.9540 C   0  0  0  0  0  0  0  0  0  0  0  0
   20.2990   15.4910   26.4360 C   0  0  0  0  0  0  0  0  0  0  0  0
   21.2850   16.4620   26.4110 C   0  0  0  0  0  0  0  0  0  0  0  0
   22.5640   16.1410   25.9790 C   0  0  0  0  0  0  0  0  0  0  0  0
   22.8570   14.8490   25.5780 C   0  0  0  0  0  0  0  0  0  0  0  0
   16.2280   16.6520   22.9480 O   0  0  0  0  0  0  0  0  0  0  0  0
   19.8110   14.9910   22.9910 C   0  0  0  0  0  0  0  0  0  0  0  0
   18.7180   14.1570   23.4830 N   0  0  0  0  0  0  0  0  0  0  0  0
   13.5250   18.9730   12.5980 C   0  0  0  0  0  0  0  0  0  0  0  0
   12.3370   18.2540   11.9660 C   0  0  0  0  0  0  0  0  0  0  0  0
   13.4960   18.2500   20.0950 C   0  0  1  0  0  0  0  0  0  0  0  0
   13.3300   16.7980   20.6550 C   0  0  0  0  0  0  0  0  0  0  0  0
   11.9690   16.6810   21.3770 C   0  0  0  0  0  0  0  0  0  0  0  0
   11.9170   17.7220   22.5360 C   0  0  2  0  0  0  0  0  0  0  0  0
   10.6560   17.5970   23.2900 N   0  3  0  0  0  0  0  0  0  0  0  0
   12.1120   19.1710   21.9750 C   0  0  0  0  0  0  0  0  0  0  0  0
   13.4740   19.2800   21.2530 C   0  0  0  0  0  0  0  0  0  0  0  0
   14.6250   19.5520   18.2000 C   0  0  1  0  0  0  0  0  0  0  0  0
   13.3100   19.6690   17.5310 O   0  0  0  0  0  0  0  0  0  0  0  0
   16.2447   19.2816   20.4909 H   0  0  0  0  0  0  0  0  0  0  0  0
   14.8147   17.4374   18.6128 H   0  0  0  0  0  0  0  0  0  0  0  0
   15.1073   19.9146   14.6210 H   0  0  0  0  0  0  0  0  0  0  0  0
   13.5241   19.4545   15.3341 H   0  0  0  0  0  0  0  0  0  0  0  0
   13.5196   17.3765   14.0423 H   0  0  0  0  0  0  0  0  0  0  0  0
   15.1369   17.7714   13.3679 H   0  0  0  0  0  0  0  0  0  0  0  0
   20.9456   16.0722   20.2487 H   0  0  0  0  0  0  0  0  0  0  0  0
   20.9204   16.9995   21.7870 H   0  0  0  0  0  0  0  0  0  0  0  0
   19.2326   14.6386   20.9413 H   0  0  0  0  0  0  0  0  0  0  0  0
   17.8893   18.4024   21.7120 H   0  0  0  0  0  0  0  0  0  0  0  0
   19.2671   17.3247   19.3112 H   0  0  0  0  0  0  0  0  0  0  0  0
   19.8409   18.5550   20.4875 H   0  0  0  0  0  0  0  0  0  0  0  0
   16.6405   13.9683   23.3142 H   0  0  0  0  0  0  0  0  0  0  0  0
   17.2141   14.9730   24.6883 H   0  0  0  0  0  0  0  0  0  0  0  0
   22.1071   12.8746   25.2894 H   0  0  0  0  0  0  0  0  0  0  0  0
   19.8345   12.2749   26.4910 H   0  0  0  0  0  0  0  0  0  0  0  0
   18.6035   13.5824   26.4470 H   0  0  0  0  0  0  0  0  0  0  0  0
   19.3011   15.7432   26.7760 H   0  0  0  0  0  0  0  0  0  0  0  0
   21.0581   17.4732   26.7289 H   0  0  0  0  0  0  0  0  0  0  0  0
   23.3346   16.9030   25.9555 H   0  0  0  0  0  0  0  0  0  0  0  0
   23.8574   14.5968   25.2452 H   0  0  0  0  0  0  0  0  0  0  0  0
   19.9732   15.8425   23.6682 H   0  0  0  0  0  0  0  0  0  0  0  0
   20.7358   14.4000   22.9169 H   0  0  0  0  0  0  0  0  0  0  0  0
   14.2771   19.1524   11.8156 H   0  0  0  0  0  0  0  0  0  0  0  0
   13.1742   19.9361   12.9972 H   0  0  0  0  0  0  0  0  0  0  0  0
   11.9174   18.8762   11.1617 H   0  0  0  0  0  0  0  0  0  0  0  0
   11.5671   18.0756   12.7311 H   0  0  0  0  0  0  0  0  0  0  0  0
   12.6699   17.2919   11.5494 H   0  0  0  0  0  0  0  0  0  0  0  0
   12.6287   18.4621   19.4525 H   0  0  0  0  0  0  0  0  0  0  0  0
   14.1421   16.5830   21.3651 H   0  0  0  0  0  0  0  0  0  0  0  0
   13.3685   16.0774   19.8248 H   0  0  0  0  0  0  0  0  0  0  0  0
   11.8553   15.6667   21.7872 H   0  0  0  0  0  0  0  0  0  0  0  0
   11.1553   16.8817   20.6645 H   0  0  0  0  0  0  0  0  0  0  0  0
   12.7471   17.5099   23.2259 H   0  0  0  0  0  0  0  0  0  0  0  0
   10.6406   18.2770   24.0340 H   0  0  0  0  0  0  0  0  0  0  0  0
   10.5884   16.6702   23.6805 H   0  0  0  0  0  0  0  0  0  0  0  0
    9.8770   17.7585   22.6711 H   0  0  0  0  0  0  0  0  0  0  0  0
   12.0820   19.8905   22.8065 H   0  0  0  0  0  0  0  0  0  0  0  0
   11.3039   19.3981   21.2642 H   0  0  0  0  0  0  0  0  0  0  0  0
   13.6007   20.2955   20.8497 H   0  0  0  0  0  0  0  0  0  0  0  0
   14.2880   19.0620   21.9600 H   0  0  0  0  0  0  0  0  0  0  0  0
   14.8687   20.4968   18.7078 H   0  0  0  0  0  0  0  0  0  0  0  0
   13.1019   18.8492   17.0986 H   0  0  0  0  0  0  0  0  0  0  0  0
  1  2  1  0  0  0  0
  1 41  1  0  0  0  0
  2 32  1  0  0  0  0
  2 39  1  0  0  0  0
  2 42  1  6  0  0  0
  3  4  1  0  0  0  0
  4  5  1  0  0  0  0
  4 43  1  0  0  0  0
  4 44  1  0  0  0  0
  5 30  1  0  0  0  0
  5 45  1  0  0  0  0
  5 46  1  0  0  0  0
  6  3  1  0  0  0  0
  6  7  2  0  0  0  0
  8  1  1  0  0  0  0
  8  9  2  0  0  0  0
 10 47  1  0  0  0  0
 10 48  1  0  0  0  0
 11 10  1  0  0  0  0
 11 28  1  0  0  0  0
 11 49  1  6  0  0  0
 12 11  1  0  0  0  0
 12 13  1  0  0  0  0
 13  8  1  0  0  0  0
 13 14  1  0  0  0  0
 13 50  1  1  0  0  0
 14 10  1  0  0  0  0
 14 51  1  0  0  0  0
 14 52  1  0  0  0  0
 15 16  1  0  0  0  0
 15 53  1  0  0  0  0
 15 54  1  0  0  0  0
 16 12  1  0  0  0  0
 16 27  2  0  0  0  0
 17 18  2  0  0  0  0
 17 19  2  0  0  0  0
 17 29  1  0  0  0  0
 20 26  1  0  0  0  0
 20 55  1  0  0  0  0
 21 20  2  0  0  0  0
 21 22  1  0  0  0  0
 21 23  1  0  0  0  0
 22 17  1  0  0  0  0
 22 56  1  0  0  0  0
 22 57  1  0  0  0  0
 23 24  2  0  0  0  0
 23 58  1  0  0  0  0
 24 25  1  0  0  0  0
 24 59  1  0  0  0  0
 25 26  2  0  0  0  0
 25 60  1  0  0  0  0
 26 61  1  0  0  0  0
 28 29  1  0  0  0  0
 28 62  1  0  0  0  0
 28 63  1  0  0  0  0
 29 15  1  0  0  0  0
 30 31  1  0  0  0  0
 30 64  1  0  0  0  0
 30 65  1  0  0  0  0
 31 66  1  0  0  0  0
 31 67  1  0  0  0  0
 31 68  1  0  0  0  0
 32 33  1  0  0  0  0
 32 38  1  0  0  0  0
 32 69  1  6  0  0  0
 33 34  1  0  0  0  0
 33 70  1  0  0  0  0
 33 71  1  0  0  0  0
 34 35  1  0  0  0  0
 34 72  1  0  0  0  0
 34 73  1  0  0  0  0
 35 36  1  0  0  0  0
 35 37  1  0  0  0  0
 35 74  1  1  0  0  0
 36 75  1  0  0  0  0
 36 76  1  0  0  0  0
 36 77  1  0  0  0  0
 37 38  1  0  0  0  0
 37 78  1  0  0  0  0
 37 79  1  0  0  0  0
 38 80  1  0  0  0  0
 38 81  1  0  0  0  0
 39  6  1  0  0  0  0
 39 40  1  0  0  0  0
 39 82  1  1  0  0  0
 40 83  1  0  0  0  0
M  CHG  1  36   1
M  END
