1g3b_ligand
 OpenBabel08222323343D

 30 30  0  0  1  0  0  0  0  0999 V2000
   44.1090   -2.9930   26.0760 C   0  0  0  0  0  0  0  0  0  0  0  0
   43.2660   -3.5420   27.0310 C   0  0  0  0  0  0  0  0  0  0  0  0
   43.0600   -2.9090   28.2600 C   0  0  0  0  0  0  0  0  0  0  0  0
   43.7190   -1.7020   28.5170 C   0  0  0  0  0  0  0  0  0  0  0  0
   44.5590   -1.1660   27.5490 C   0  0  0  0  0  0  0  0  0  0  0  0
   44.7500   -1.8000   26.3490 C   0  0  0  0  0  0  0  0  0  0  0  0
   42.1620   -3.5280   29.2170 C   0  0  0  0  0  0  0  0  0  0  0  0
   44.3430   -3.6710   24.8260 C   0  0  0  0  0  3  0  0  0  0  0  0
   43.6110   -0.9890   29.6540 O   0  0  0  0  0  0  0  0  0  0  0  0
   44.8000   -2.9900   23.7840 N   0  0  0  0  0  0  0  0  0  0  0  0
   44.1020   -4.9700   24.7200 N   0  0  0  0  0  0  0  0  0  0  0  0
   41.8780   -3.0520   30.3930 N   0  0  0  0  0  0  0  0  0  0  0  0
   40.9480   -3.8090   31.2190 C   0  0  1  0  0  0  0  0  0  0  0  0
   41.6450   -5.0310   31.8120 C   0  0  0  0  0  0  0  0  0  0  0  0
   40.3980   -2.9300   32.3310 C   0  0  0  0  0  0  0  0  0  0  0  0
   39.3270   -3.2390   32.8580 O   0  5  0  0  0  0  0  0  0  0  0  0
   41.1050   -1.9020   32.6520 O   0  0  0  0  0  0  0  0  0  0  0  0
   42.7589   -4.4768   26.8208 H   0  0  0  0  0  0  0  0  0  0  0  0
   45.0716   -0.2314   27.7459 H   0  0  0  0  0  0  0  0  0  0  0  0
   45.4092   -1.3619   25.6083 H   0  0  0  0  0  0  0  0  0  0  0  0
   41.6887   -4.4650   28.9274 H   0  0  0  0  0  0  0  0  0  0  0  0
   42.7043   -0.7366   29.7833 H   0  0  0  0  0  0  0  0  0  0  0  0
   44.9687   -3.4704   22.8886 H   0  0  0  0  0  0  0  0  0  0  0  0
   44.9863   -1.9806   23.8700 H   0  0  0  0  0  0  0  0  0  0  0  0
   43.7471   -5.4958   25.5314 H   0  0  0  0  0  0  0  0  0  0  0  0
   44.2697   -5.4536   23.8262 H   0  0  0  0  0  0  0  0  0  0  0  0
   40.1120   -4.1487   30.5900 H   0  0  0  0  0  0  0  0  0  0  0  0
   40.9327   -5.5939   32.4332 H   0  0  0  0  0  0  0  0  0  0  0  0
   42.4934   -4.7046   32.4314 H   0  0  0  0  0  0  0  0  0  0  0  0
   42.0109   -5.6750   30.9988 H   0  0  0  0  0  0  0  0  0  0  0  0
  1  8  1  0  0  0  0
  1  6  2  0  0  0  0
  1  2  1  0  0  0  0
  2  3  2  0  0  0  0
  2 18  1  0  0  0  0
  3  7  1  0  0  0  0
  3  4  1  0  0  0  0
  4  9  1  0  0  0  0
  4  5  2  0  0  0  0
  5  6  1  0  0  0  0
  5 19  1  0  0  0  0
  6 20  1  0  0  0  0
  7 12  2  0  0  0  0
  7 21  1  0  0  0  0
  8 11  1  0  0  0  0
  8 10  1  0  0  0  0
  9 22  1  0  0  0  0
 10 23  1  0  0  0  0
 10 24  1  0  0  0  0
 11 25  1  0  0  0  0
 11 26  1  0  0  0  0
 12 13  1  0  0  0  0
 13 15  1  0  0  0  0
 13 14  1  0  0  0  0
 13 27  1  6  0  0  0
 14 28  1  0  0  0  0
 14 29  1  0  0  0  0
 14 30  1  0  0  0  0
 15 17  2  0  0  0  0
 15 16  1  0  0  0  0
M  CHG  1  16  -1
M  END
