1g3f_ligand
 OpenBabel08222323343D

137137  0  0  1  0  0  0  0  0999 V2000
   -7.2600   -9.8710    2.0050 N   0  3  0  0  0  0  0  0  0  0  0  0
   -5.9270  -10.2820    2.5150 C   0  0  2  0  0  0  0  0  0  0  0  0
   -5.9630  -10.5090    4.0220 C   0  0  0  0  0  0  0  0  0  0  0  0
   -6.5500   -9.7210    4.7650 O   0  0  0  0  0  0  0  0  0  0  0  0
   -4.8820   -9.2340    2.1660 C   0  0  0  0  0  0  0  0  0  0  0  0
   -7.2089   -9.7277    1.0085 H   0  0  0  0  0  0  0  0  0  0  0  0
   -7.5417   -9.0135    2.4537 H   0  0  0  0  0  0  0  0  0  0  0  0
   -7.9341  -10.5929    2.2065 H   0  0  0  0  0  0  0  0  0  0  0  0
   -5.6476  -11.2284    2.0290 H   0  0  0  0  0  0  0  0  0  0  0  0
   -3.9014   -9.5520    2.5498 H   0  0  0  0  0  0  0  0  0  0  0  0
   -5.1601   -8.2726    2.6225 H   0  0  0  0  0  0  0  0  0  0  0  0
   -4.8284   -9.1192    1.0733 H   0  0  0  0  0  0  0  0  0  0  0  0
   -5.3320  -11.5900    4.4670 N   0  0  0  0  0  0  0  0  0  0  0  0
   -5.2920  -11.9200    5.8850 C   0  0  2  0  0  0  0  0  0  0  0  0
   -4.0830  -11.2820    6.5640 C   0  0  0  0  0  0  0  0  0  0  0  0
   -3.0380  -11.0920    5.9400 O   0  0  0  0  0  0  0  0  0  0  0  0
   -5.2600  -13.4470    6.1080 C   0  0  0  0  0  0  0  0  0  0  0  0
   -6.4770  -14.1010    5.4720 C   0  0  0  0  0  0  0  0  0  0  0  0
   -3.9790  -14.0580    5.5550 C   0  0  0  0  0  0  0  0  0  0  0  0
   -4.8735  -12.1915    3.8128 H   0  0  0  0  0  0  0  0  0  0  0  0
   -6.2040  -11.5209    6.3530 H   0  0  0  0  0  0  0  0  0  0  0  0
   -5.2912  -13.6367    7.1911 H   0  0  0  0  0  0  0  0  0  0  0  0
   -6.4390  -15.1875    5.6397 H   0  0  0  0  0  0  0  0  0  0  0  0
   -6.4802  -13.8968    4.3911 H   0  0  0  0  0  0  0  0  0  0  0  0
   -7.3920  -13.6919    5.9252 H   0  0  0  0  0  0  0  0  0  0  0  0
   -3.1097  -13.5745    6.0247 H   0  0  0  0  0  0  0  0  0  0  0  0
   -3.9399  -13.9050    4.4664 H   0  0  0  0  0  0  0  0  0  0  0  0
   -3.9622  -15.1357    5.7746 H   0  0  0  0  0  0  0  0  0  0  0  0
   -4.2110  -10.9400    7.8550 N   0  0  0  0  0  0  0  0  0  0  0  0
   -3.1250  -10.3180    8.6200 C   0  0  2  0  0  0  0  0  0  0  0  0
   -2.0130  -11.3040    8.9590 C   0  0  0  0  0  0  0  0  0  0  0  0
   -2.2410  -12.2980    9.6490 O   0  0  0  0  0  0  0  0  0  0  0  0
   -3.8230   -9.8400    9.8940 C   0  0  0  0  0  0  0  0  0  0  0  0
   -4.9800  -10.7640   10.0590 C   0  0  0  0  0  0  0  0  0  0  0  0
   -5.4250  -11.1310    8.6690 C   0  0  0  0  0  0  0  0  0  0  0  0
   -2.6978   -9.4704    8.0641 H   0  0  0  0  0  0  0  0  0  0  0  0
   -4.1685   -8.8018    9.7812 H   0  0  0  0  0  0  0  0  0  0  0  0
   -3.1449   -9.9091   10.7574 H   0  0  0  0  0  0  0  0  0  0  0  0
   -5.7952  -10.2616   10.6002 H   0  0  0  0  0  0  0  0  0  0  0  0
   -4.6733  -11.6644   10.6115 H   0  0  0  0  0  0  0  0  0  0  0  0
   -5.7646  -12.1765    8.6285 H   0  0  0  0  0  0  0  0  0  0  0  0
   -6.2346  -10.4690    8.3282 H   0  0  0  0  0  0  0  0  0  0  0  0
   -0.8080  -11.0220    8.4710 N   0  0  0  0  0  0  0  0  0  0  0  0
    0.3410  -11.8850    8.7240 C   0  0  2  0  0  0  0  0  0  0  0  0
    0.4420  -12.2430   10.2040 C   0  0  0  0  0  0  0  0  0  0  0  0
    0.0280  -13.3250   10.6160 O   0  0  0  0  0  0  0  0  0  0  0  0
    1.6550  -11.2190    8.2710 C   0  0  2  0  0  0  0  0  0  0  0  0
    1.7630  -11.2380    6.7450 C   0  0  0  0  0  0  0  0  0  0  0  0
    2.8490  -11.9200    8.9020 C   0  0  0  0  0  0  0  0  0  0  0  0
    3.0030  -10.5480    6.2180 C   0  0  0  0  0  0  0  0  0  0  0  0
   -0.6867  -10.1983    7.9171 H   0  0  0  0  0  0  0  0  0  0  0  0
    0.2048  -12.8126    8.1488 H   0  0  0  0  0  0  0  0  0  0  0  0
    1.6492  -10.1715    8.6065 H   0  0  0  0  0  0  0  0  0  0  0  0
    0.8796  -10.7329    6.3272 H   0  0  0  0  0  0  0  0  0  0  0  0
    1.7789  -12.2857    6.4102 H   0  0  0  0  0  0  0  0  0  0  0  0
    2.7519  -11.8952    9.9974 H   0  0  0  0  0  0  0  0  0  0  0  0
    3.7751  -11.4065    8.6043 H   0  0  0  0  0  0  0  0  0  0  0  0
    2.8832  -12.9651    8.5606 H   0  0  0  0  0  0  0  0  0  0  0  0
    3.0131  -10.6009    5.1193 H   0  0  0  0  0  0  0  0  0  0  0  0
    3.8982  -11.0472    6.6173 H   0  0  0  0  0  0  0  0  0  0  0  0
    2.9989   -9.4945    6.5343 H   0  0  0  0  0  0  0  0  0  0  0  0
    0.9900  -11.3250   10.9990 N   0  0  0  0  0  0  0  0  0  0  0  0
    1.1420  -11.5410   12.4350 C   0  0  2  0  0  0  0  0  0  0  0  0
    2.0140  -12.7610   12.7270 C   0  0  0  0  0  0  0  0  0  0  0  0
    3.2120  -12.6290   12.9760 O   0  0  0  0  0  0  0  0  0  0  0  0
   -0.2220  -11.6850   13.0950 C   0  0  0  0  0  0  0  0  0  0  0  0
    1.3061  -10.4638   10.6010 H   0  0  0  0  0  0  0  0  0  0  0  0
    1.6392  -10.6577   12.8622 H   0  0  0  0  0  0  0  0  0  0  0  0
   -0.0914  -11.8470   14.1751 H   0  0  0  0  0  0  0  0  0  0  0  0
   -0.7525  -12.5434   12.6571 H   0  0  0  0  0  0  0  0  0  0  0  0
   -0.8078  -10.7688   12.9299 H   0  0  0  0  0  0  0  0  0  0  0  0
    1.4070  -13.9460   12.6940 N   0  0  0  0  0  0  0  0  0  0  0  0
    2.1280  -15.1870   12.9550 C   0  0  2  0  0  0  0  0  0  0  0  0
    2.6910  -15.2040   14.3760 C   0  0  0  0  0  0  0  0  0  0  0  0
    2.0780  -15.7720   15.2770 O   0  0  0  0  0  0  0  0  0  0  0  0
    3.2500  -15.3810   11.9310 C   0  0  0  0  0  0  0  0  0  0  0  0
    4.1770  -16.5400   12.2570 C   0  0  0  0  0  0  0  0  0  0  0  0
    5.5910  -16.0880   12.5650 C   0  0  0  0  0  0  0  0  0  0  0  0
    6.1990  -15.3450   11.7940 O   0  0  0  0  0  0  0  0  0  0  0  0
    6.1210  -16.5350   13.6970 N   0  0  0  0  0  0  0  0  0  0  0  0
    0.4300  -13.9862   12.4845 H   0  0  0  0  0  0  0  0  0  0  0  0
    1.4206  -16.0234   12.8552 H   0  0  0  0  0  0  0  0  0  0  0  0
    3.8476  -14.4584   11.8908 H   0  0  0  0  0  0  0  0  0  0  0  0
    2.7946  -15.5661   10.9469 H   0  0  0  0  0  0  0  0  0  0  0  0
    4.2054  -17.2217   11.3942 H   0  0  0  0  0  0  0  0  0  0  0  0
    3.7792  -17.0735   13.1329 H   0  0  0  0  0  0  0  0  0  0  0  0
    7.0507  -16.2700   13.9527 H   0  0  0  0  0  0  0  0  0  0  0  0
    5.5905  -17.1367   14.2941 H   0  0  0  0  0  0  0  0  0  0  0  0
    3.8540  -14.5700   14.5620 N   0  0  0  0  0  0  0  0  0  0  0  0
    4.5170  -14.4940   15.8680 C   0  0  2  0  0  0  0  0  0  0  0  0
    4.4320  -15.8190   16.6360 C   0  0  0  0  0  0  0  0  0  0  0  0
    5.3030  -16.6760   16.4920 O   0  0  0  0  0  0  0  0  0  0  0  0
    3.9370  -13.3440   16.7020 C   0  0  0  0  0  0  0  0  0  0  0  0
    2.5650  -12.8810   16.2390 C   0  0  0  0  0  0  0  0  0  0  0  0
    2.0350  -11.7510   17.1060 C   0  0  0  0  0  0  0  0  0  0  0  0
    0.5800  -11.9770   17.4840 C   0  0  0  0  0  0  0  0  0  0  0  0
    0.4480  -12.7280   18.7620 N   0  3  0  0  0  0  0  0  0  0  0  0
    4.2899  -14.1292   13.7773 H   0  0  0  0  0  0  0  0  0  0  0  0
    5.5811  -14.2798   15.6900 H   0  0  0  0  0  0  0  0  0  0  0  0
    4.6286  -12.4906   16.6442 H   0  0  0  0  0  0  0  0  0  0  0  0
    3.8554  -13.6798   17.7463 H   0  0  0  0  0  0  0  0  0  0  0  0
    1.8658  -13.7286   16.2904 H   0  0  0  0  0  0  0  0  0  0  0  0
    2.6388  -12.5290   15.1995 H   0  0  0  0  0  0  0  0  0  0  0  0
    2.1176  -10.8050   16.5508 H   0  0  0  0  0  0  0  0  0  0  0  0
    2.6380  -11.6913   18.0240 H   0  0  0  0  0  0  0  0  0  0  0  0
    0.0894  -12.5495   16.6830 H   0  0  0  0  0  0  0  0  0  0  0  0
    0.0852  -11.0006   17.5928 H   0  0  0  0  0  0  0  0  0  0  0  0
   -0.5284  -12.8568   18.9767 H   0  0  0  0  0  0  0  0  0  0  0  0
    0.8895  -12.2083   19.5043 H   0  0  0  0  0  0  0  0  0  0  0  0
    0.8934  -13.6276   18.6706 H   0  0  0  0  0  0  0  0  0  0  0  0
    3.3870  -15.9890   17.4490 N   0  0  0  0  0  0  0  0  0  0  0  0
    3.2160  -17.2140   18.2220 C   0  0  2  0  0  0  0  0  0  0  0  0
    1.7570  -17.4030   18.6260 C   0  0  0  0  0  0  0  0  0  0  0  0
    1.3000  -16.8350   19.6180 O   0  0  0  0  0  0  0  0  0  0  0  0
    4.1030  -17.1810   19.4680 C   0  0  0  0  0  0  0  0  0  0  0  0
    5.3130  -16.4890   19.2160 O   0  0  0  0  0  0  0  0  0  0  0  0
    2.7066  -15.2606   17.5298 H   0  0  0  0  0  0  0  0  0  0  0  0
    3.5190  -18.0665   17.5964 H   0  0  0  0  0  0  0  0  0  0  0  0
    4.3358  -18.2127   19.7704 H   0  0  0  0  0  0  0  0  0  0  0  0
    3.5620  -16.6739   20.2805 H   0  0  0  0  0  0  0  0  0  0  0  0
    5.7864  -16.9253   18.5174 H   0  0  0  0  0  0  0  0  0  0  0  0
    1.0320  -18.2040   17.8520 N   0  0  0  0  0  0  0  0  0  0  0  0
   -0.3760  -18.4670   18.1320 C   0  0  2  0  0  0  0  0  0  0  0  0
   -0.7310  -19.9180   17.8200 C   0  0  0  0  0  0  0  0  0  0  0  0
   -1.4130  -20.5510   18.6530 O   0  5  0  0  0  0  0  0  0  0  0  0
   -1.2650  -17.5260   17.3170 C   0  0  0  0  0  0  0  0  0  0  0  0
   -2.0100  -16.5080   18.1640 C   0  0  0  0  0  0  0  0  0  0  0  0
   -2.6410  -15.4080   17.3320 C   0  0  0  0  0  0  0  0  0  0  0  0
   -3.3690  -15.7340   16.3710 O   0  5  0  0  0  0  0  0  0  0  0  0
   -2.4080  -14.2210   17.6430 O   0  0  0  0  0  0  0  0  0  0  0  0
   -0.3240  -20.4080   16.7460 O   0  0  0  0  0  0  0  0  0  0  0  0
    1.4613  -18.6366   17.0592 H   0  0  0  0  0  0  0  0  0  0  0  0
   -0.5583  -18.2846   19.2013 H   0  0  0  0  0  0  0  0  0  0  0  0
   -2.0036  -18.1312   16.7709 H   0  0  0  0  0  0  0  0  0  0  0  0
   -0.6318  -16.9843   16.5989 H   0  0  0  0  0  0  0  0  0  0  0  0
   -1.3017  -16.0524   18.8716 H   0  0  0  0  0  0  0  0  0  0  0  0
   -2.8033  -17.0268   18.7221 H   0  0  0  0  0  0  0  0  0  0  0  0
  1  2  1  0  0  0  0
  1  6  1  0  0  0  0
  1  7  1  0  0  0  0
  1  8  1  0  0  0  0
  2  3  1  0  0  0  0
  2  5  1  0  0  0  0
  2  9  1  6  0  0  0
  3  4  2  0  0  0  0
  3 13  1  0  0  0  0
  5 10  1  0  0  0  0
  5 11  1  0  0  0  0
  5 12  1  0  0  0  0
 13 14  1  0  0  0  0
 13 20  1  0  0  0  0
 14 15  1  0  0  0  0
 14 17  1  0  0  0  0
 14 21  1  1  0  0  0
 15 16  2  0  0  0  0
 15 29  1  0  0  0  0
 17 18  1  0  0  0  0
 17 19  1  0  0  0  0
 17 22  1  0  0  0  0
 18 23  1  0  0  0  0
 18 24  1  0  0  0  0
 18 25  1  0  0  0  0
 19 26  1  0  0  0  0
 19 27  1  0  0  0  0
 19 28  1  0  0  0  0
 29 30  1  0  0  0  0
 29 35  1  0  0  0  0
 30 31  1  0  0  0  0
 30 33  1  0  0  0  0
 30 36  1  6  0  0  0
 31 32  2  0  0  0  0
 31 43  1  0  0  0  0
 33 34  1  0  0  0  0
 33 37  1  0  0  0  0
 33 38  1  0  0  0  0
 34 35  1  0  0  0  0
 34 39  1  0  0  0  0
 34 40  1  0  0  0  0
 35 41  1  0  0  0  0
 35 42  1  0  0  0  0
 43 44  1  0  0  0  0
 43 51  1  0  0  0  0
 44 45  1  0  0  0  0
 44 47  1  0  0  0  0
 44 52  1  6  0  0  0
 45 46  2  0  0  0  0
 45 62  1  0  0  0  0
 47 48  1  0  0  0  0
 47 49  1  0  0  0  0
 47 53  1  1  0  0  0
 48 50  1  0  0  0  0
 48 54  1  0  0  0  0
 48 55  1  0  0  0  0
 49 56  1  0  0  0  0
 49 57  1  0  0  0  0
 49 58  1  0  0  0  0
 50 59  1  0  0  0  0
 50 60  1  0  0  0  0
 50 61  1  0  0  0  0
 62 63  1  0  0  0  0
 62 67  1  0  0  0  0
 63 64  1  0  0  0  0
 63 66  1  0  0  0  0
 63 68  1  1  0  0  0
 64 65  2  0  0  0  0
 64 72  1  0  0  0  0
 66 69  1  0  0  0  0
 66 70  1  0  0  0  0
 66 71  1  0  0  0  0
 72 73  1  0  0  0  0
 72 81  1  0  0  0  0
 73 74  1  0  0  0  0
 73 76  1  0  0  0  0
 73 82  1  6  0  0  0
 74 75  2  0  0  0  0
 74 89  1  0  0  0  0
 76 77  1  0  0  0  0
 76 83  1  0  0  0  0
 76 84  1  0  0  0  0
 77 78  1  0  0  0  0
 77 85  1  0  0  0  0
 77 86  1  0  0  0  0
 78 79  2  0  0  0  0
 78 80  1  0  0  0  0
 80 87  1  0  0  0  0
 80 88  1  0  0  0  0
 89 90  1  0  0  0  0
 89 98  1  0  0  0  0
 90 91  1  0  0  0  0
 90 93  1  0  0  0  0
 90 99  1  6  0  0  0
 91 92  2  0  0  0  0
 91111  1  0  0  0  0
 93 94  1  0  0  0  0
 93100  1  0  0  0  0
 93101  1  0  0  0  0
 94 95  1  0  0  0  0
 94102  1  0  0  0  0
 94103  1  0  0  0  0
 95 96  1  0  0  0  0
 95104  1  0  0  0  0
 95105  1  0  0  0  0
 96 97  1  0  0  0  0
 96106  1  0  0  0  0
 96107  1  0  0  0  0
 97108  1  0  0  0  0
 97109  1  0  0  0  0
 97110  1  0  0  0  0
111112  1  0  0  0  0
111117  1  0  0  0  0
112113  1  0  0  0  0
112115  1  0  0  0  0
112118  1  6  0  0  0
113114  2  0  0  0  0
113122  1  0  0  0  0
115116  1  0  0  0  0
115119  1  0  0  0  0
115120  1  0  0  0  0
116121  1  0  0  0  0
122123  1  0  0  0  0
122132  1  0  0  0  0
123124  1  0  0  0  0
123126  1  0  0  0  0
123133  1  1  0  0  0
124125  1  0  0  0  0
124131  2  0  0  0  0
126127  1  0  0  0  0
126134  1  0  0  0  0
126135  1  0  0  0  0
127128  1  0  0  0  0
127136  1  0  0  0  0
127137  1  0  0  0  0
128129  1  0  0  0  0
128130  2  0  0  0  0
M  CHG  4   1   1  97   1 125  -1 129  -1
M  END
