1g50_ligand
 OpenBabel08222323343D

 44 47  0  0  1  0  0  0  0  0999 V2000
  104.0100   17.3780   24.9290 C   0  0  0  0  0  0  0  0  0  0  0  0
  102.8460   17.9870   25.5110 C   0  0  0  0  0  0  0  0  0  0  0  0
  101.5290   17.4880   25.1790 C   0  0  0  0  0  0  0  0  0  0  0  0
  100.3780   18.0690   25.7290 O   0  0  0  0  0  0  0  0  0  0  0  0
  101.3860   16.3980   24.2750 C   0  0  0  0  0  0  0  0  0  0  0  0
  102.5170   15.7810   23.6850 C   0  0  0  0  0  0  0  0  0  0  0  0
  102.2810   14.6270   22.7180 C   0  0  0  0  0  0  0  0  0  0  0  0
  103.5620   13.9870   22.0720 C   0  0  0  0  0  0  0  0  0  0  0  0
  104.8120   14.0540   22.9540 C   0  0  2  0  0  0  0  0  0  0  0  0
  105.1190   15.5650   23.3380 C   0  0  1  0  0  0  0  0  0  0  0  0
  103.8780   16.2620   24.0080 C   0  0  0  0  0  0  0  0  0  0  0  0
  106.4090   15.5880   24.2050 C   0  0  0  0  0  0  0  0  0  0  0  0
  107.6470   14.9140   23.5370 C   0  0  0  0  0  0  0  0  0  0  0  0
  107.3650   13.4590   23.1300 C   0  0  1  0  0  0  0  0  0  0  0  0
  106.0610   13.4280   22.2360 C   0  0  1  0  0  0  0  0  0  0  0  0
  106.0620   11.9820   21.7250 C   0  0  0  0  0  0  0  0  0  0  0  0
  107.5710   11.7490   21.3410 C   0  0  0  0  0  0  0  0  0  0  0  0
  108.3520   12.8450   22.1120 C   0  0  2  0  0  0  0  0  0  0  0  0
  109.5470   12.2750   22.6740 O   0  0  0  0  0  0  0  0  0  0  0  0
  107.3140   12.5550   24.4260 C   0  0  0  0  0  0  0  0  0  0  0  0
  104.9953   17.7544   25.1792 H   0  0  0  0  0  0  0  0  0  0  0  0
  102.9543   18.8188   26.1976 H   0  0  0  0  0  0  0  0  0  0  0  0
  100.4101   17.9977   26.6757 H   0  0  0  0  0  0  0  0  0  0  0  0
  100.3942   16.0333   24.0335 H   0  0  0  0  0  0  0  0  0  0  0  0
  101.6441   14.9986   21.9017 H   0  0  0  0  0  0  0  0  0  0  0  0
  101.7501   13.8343   23.2654 H   0  0  0  0  0  0  0  0  0  0  0  0
  103.7750   14.5164   21.1316 H   0  0  0  0  0  0  0  0  0  0  0  0
  103.3481   12.9296   21.8572 H   0  0  0  0  0  0  0  0  0  0  0  0
  104.6185   13.4855   23.8756 H   0  0  0  0  0  0  0  0  0  0  0  0
  105.3321   16.1164   22.4104 H   0  0  0  0  0  0  0  0  0  0  0  0
  106.1988   15.0628   25.1484 H   0  0  0  0  0  0  0  0  0  0  0  0
  106.6617   16.6372   24.4178 H   0  0  0  0  0  0  0  0  0  0  0  0
  108.4850   14.9267   24.2494 H   0  0  0  0  0  0  0  0  0  0  0  0
  107.9207   15.4867   22.6386 H   0  0  0  0  0  0  0  0  0  0  0  0
  106.2256   14.0705   21.3584 H   0  0  0  0  0  0  0  0  0  0  0  0
  105.4082   11.8714   20.8473 H   0  0  0  0  0  0  0  0  0  0  0  0
  105.7410   11.2835   22.5117 H   0  0  0  0  0  0  0  0  0  0  0  0
  107.7162   11.8607   20.2564 H   0  0  0  0  0  0  0  0  0  0  0  0
  107.8998   10.7470   21.6537 H   0  0  0  0  0  0  0  0  0  0  0  0
  108.6582   13.6361   21.4117 H   0  0  0  0  0  0  0  0  0  0  0  0
  110.0905   11.9296   21.9755 H   0  0  0  0  0  0  0  0  0  0  0  0
  106.6113   12.9923   25.1506 H   0  0  0  0  0  0  0  0  0  0  0  0
  108.3168   12.5005   24.8748 H   0  0  0  0  0  0  0  0  0  0  0  0
  106.9783   11.5433   24.1544 H   0  0  0  0  0  0  0  0  0  0  0  0
  1  2  2  0  0  0  0
  1 11  1  0  0  0  0
  1 21  1  0  0  0  0
  2  3  1  0  0  0  0
  2 22  1  0  0  0  0
  3  4  1  0  0  0  0
  3  5  2  0  0  0  0
  4 23  1  0  0  0  0
  5  6  1  0  0  0  0
  5 24  1  0  0  0  0
  6  7  1  0  0  0  0
  6 11  2  0  0  0  0
  7  8  1  0  0  0  0
  7 25  1  0  0  0  0
  7 26  1  0  0  0  0
  8  9  1  0  0  0  0
  8 27  1  0  0  0  0
  8 28  1  0  0  0  0
  9 10  1  0  0  0  0
  9 15  1  0  0  0  0
  9 29  1  1  0  0  0
 10 11  1  0  0  0  0
 10 12  1  0  0  0  0
 10 30  1  6  0  0  0
 12 13  1  0  0  0  0
 12 31  1  0  0  0  0
 12 32  1  0  0  0  0
 13 14  1  0  0  0  0
 13 33  1  0  0  0  0
 13 34  1  0  0  0  0
 14 15  1  0  0  0  0
 14 18  1  0  0  0  0
 14 20  1  1  0  0  0
 15 16  1  0  0  0  0
 15 35  1  6  0  0  0
 16 17  1  0  0  0  0
 16 36  1  0  0  0  0
 16 37  1  0  0  0  0
 17 18  1  0  0  0  0
 17 38  1  0  0  0  0
 17 39  1  0  0  0  0
 18 19  1  0  0  0  0
 18 40  1  6  0  0  0
 19 41  1  0  0  0  0
 20 42  1  0  0  0  0
 20 43  1  0  0  0  0
 20 44  1  0  0  0  0
M  END
