1g6s_ligand
 OpenBabel08222323343D

 24 24  0  0  1  0  0  0  0  0999 V2000
   55.9200   12.3110   28.0800 C   0  0  0  0  0  0  0  0  0  0  0  0
   54.8520   11.4170   28.1900 C   0  0  0  0  0  0  0  0  0  0  0  0
   54.9570   10.1530   29.0090 C   0  0  2  0  0  0  0  0  0  0  0  0
   56.1720   10.1590   29.9640 C   0  0  2  0  0  0  0  0  0  0  0  0
   57.4210   10.6520   29.2270 C   0  0  1  0  0  0  0  0  0  0  0  0
   57.1640   12.1000   28.7920 C   0  0  0  0  0  0  0  0  0  0  0  0
   55.7340   13.5390   27.2470 C   0  0  0  0  0  0  0  0  0  0  0  0
   54.9510    8.9680   28.1100 O   0  0  0  0  0  0  0  0  0  0  0  0
   56.3380    8.8390   30.4950 O   0  0  0  0  0  0  0  0  0  0  0  0
   58.5520   10.6080   30.1070 O   0  0  0  0  0  0  0  0  0  0  0  0
   54.8180   13.5330   26.3810 O   0  5  0  0  0  0  0  0  0  0  0  0
   56.4720   14.4900   27.4930 O   0  0  0  0  0  0  0  0  0  0  0  0
   53.5890    8.0280   27.8830 P   0  0  0  0  0  0  0  0  0  0  0  0
   52.5400    8.8970   27.3000 O   0  0  0  0  0  1  0  0  0  0  0  0
   53.2750    7.5200   29.2850 O   0  0  0  0  0  1  0  0  0  0  0  0
   54.0720    6.9740   26.9310 O   0  0  0  0  0  0  0  0  0  0  0  0
   53.9200   11.6375   27.6717 H   0  0  0  0  0  0  0  0  0  0  0  0
   54.0567   10.0940   29.6383 H   0  0  0  0  0  0  0  0  0  0  0  0
   55.9695   10.8484   30.7968 H   0  0  0  0  0  0  0  0  0  0  0  0
   57.6126   10.0214   28.3463 H   0  0  0  0  0  0  0  0  0  0  0  0
   57.1533   12.7307   29.6931 H   0  0  0  0  0  0  0  0  0  0  0  0
   57.9903   12.4115   28.1361 H   0  0  0  0  0  0  0  0  0  0  0  0
   57.0629    8.8347   31.1090 H   0  0  0  0  0  0  0  0  0  0  0  0
   58.3768   11.1421   30.8730 H   0  0  0  0  0  0  0  0  0  0  0  0
  1  2  2  0  0  0  0
  1  6  1  0  0  0  0
  1  7  1  0  0  0  0
  2  3  1  0  0  0  0
  2 17  1  0  0  0  0
  3  4  1  0  0  0  0
  3  8  1  0  0  0  0
  3 18  1  1  0  0  0
  4  5  1  0  0  0  0
  4  9  1  0  0  0  0
  4 19  1  1  0  0  0
  5  6  1  0  0  0  0
  5 10  1  0  0  0  0
  5 20  1  6  0  0  0
  6 21  1  0  0  0  0
  6 22  1  0  0  0  0
  7 11  1  0  0  0  0
  7 12  2  0  0  0  0
  8 13  1  0  0  0  0
  9 23  1  0  0  0  0
 10 24  1  0  0  0  0
 13 14  1  0  0  0  0
 13 15  1  0  0  0  0
 13 16  2  0  0  0  0
M  CHG  1  11  -1
M  END
