1g7p_ligand
 OpenBabel08222323343D

147148  0  0  1  0  0  0  0  0999 V2000
   49.7200   56.9760    4.6870 N   0  3  0  0  0  0  0  0  0  0  0  0
   48.6050   57.9230    4.4000 C   0  0  2  0  0  0  0  0  0  0  0  0
   48.1220   57.7360    2.9690 C   0  0  0  0  0  0  0  0  0  0  0  0
   48.9240   57.6130    2.0450 O   0  0  0  0  0  0  0  0  0  0  0  0
   49.0770   59.3660    4.6050 C   0  0  0  0  0  0  0  0  0  0  0  0
   48.0310   60.2860    4.3560 O   0  0  0  0  0  0  0  0  0  0  0  0
   46.8030   57.7290    2.8010 N   0  0  0  0  0  0  0  0  0  0  0  0
   46.1700   57.5430    1.5010 C   0  0  2  0  0  0  0  0  0  0  0  0
   46.2080   58.7420    0.5620 C   0  0  0  0  0  0  0  0  0  0  0  0
   46.2950   59.8900    0.9920 O   0  0  0  0  0  0  0  0  0  0  0  0
   44.7120   57.1250    1.7060 C   0  0  0  0  0  0  0  0  0  0  0  0
   44.5370   55.6510    1.9850 C   0  0  0  0  0  0  0  0  0  0  0  0
   44.6570   54.8580    0.6970 C   0  0  0  0  0  0  0  0  0  0  0  0
   43.4640   54.9950   -0.1350 N   0  0  0  0  0  0  0  0  0  0  0  0
   43.4790   55.1250   -1.4570 C   0  0  0  0  0  3  0  0  0  0  0  0
   44.6320   55.1450   -2.1130 N   0  0  0  0  0  0  0  0  0  0  0  0
   42.3390   55.2230   -2.1260 N   0  0  0  0  0  0  0  0  0  0  0  0
   46.1310   58.4520   -0.7320 N   0  0  0  0  0  0  0  0  0  0  0  0
   46.1120   59.4810   -1.7640 C   0  0  2  0  0  0  0  0  0  0  0  0
   44.6730   60.0040   -1.8200 C   0  0  0  0  0  0  0  0  0  0  0  0
   43.7720   59.3930   -1.2430 O   0  0  0  0  0  0  0  0  0  0  0  0
   46.4910   58.8650   -3.1110 C   0  0  0  0  0  0  0  0  0  0  0  0
   46.5680   59.8900   -4.2250 C   0  0  0  0  0  0  0  0  0  0  0  0
   46.4680   59.4840   -5.4020 O   0  5  0  0  0  0  0  0  0  0  0  0
   46.7380   61.0940   -3.9310 O   0  0  0  0  0  0  0  0  0  0  0  0
   44.4550   61.1280   -2.4980 N   0  0  0  0  0  0  0  0  0  0  0  0
   43.1110   61.6950   -2.6160 C   0  0  2  0  0  0  0  0  0  0  0  0
   43.0260   62.7070   -3.7560 C   0  0  0  0  0  0  0  0  0  0  0  0
   44.0470   63.1250   -4.3020 O   0  0  0  0  0  0  0  0  0  0  0  0
   42.6920   62.3710   -1.3040 C   0  0  0  0  0  0  0  0  0  0  0  0
   43.4820   63.6000   -0.9750 C   0  0  0  0  0  0  0  0  0  0  0  0
   44.8050   63.5570   -0.5930 N   0  0  0  0  0  0  0  0  0  0  0  0
   43.1380   64.9100   -0.9880 C   0  0  0  0  0  0  0  0  0  0  0  0
   45.2430   64.7860   -0.3840 C   0  0  0  0  0  0  0  0  0  0  0  0
   44.2500   65.6260   -0.6170 N   0  0  0  0  0  0  0  0  0  0  0  0
   41.8020   63.1020   -4.1030 N   0  0  0  0  0  0  0  0  0  0  0  0
   41.5630   64.0630   -5.1800 C   0  0  2  0  0  0  0  0  0  0  0  0
   42.1030   63.5400   -6.5080 C   0  0  0  0  0  0  0  0  0  0  0  0
   42.7230   64.2740   -7.2760 O   0  0  0  0  0  0  0  0  0  0  0  0
   42.2100   65.4130   -4.8480 C   0  0  0  0  0  0  0  0  0  0  0  0
   41.6180   65.9970   -3.6970 O   0  0  0  0  0  0  0  0  0  0  0  0
   41.8520   62.2630   -6.7710 N   0  0  0  0  0  0  0  0  0  0  0  0
   42.3040   61.6140   -7.9960 C   0  0  2  0  0  0  0  0  0  0  0  0
   41.4080   61.9930   -9.1790 C   0  0  0  0  0  0  0  0  0  0  0  0
   40.2640   62.4120   -8.9950 O   0  0  0  0  0  0  0  0  0  0  0  0
   42.3040   60.0940   -7.7830 C   0  0  0  0  0  0  0  0  0  0  0  0
   42.8780   59.2670   -8.9220 C   0  0  0  0  0  0  0  0  0  0  0  0
   41.7860   58.5470   -9.6990 C   0  0  0  0  0  0  0  0  0  0  0  0
   40.9190   57.7480   -8.8350 N   0  0  0  0  0  0  0  0  0  0  0  0
   39.9320   56.9750   -9.2800 C   0  0  0  0  0  3  0  0  0  0  0  0
   39.1900   56.2830   -8.4250 N   0  0  0  0  0  0  0  0  0  0  0  0
   39.6880   56.8930  -10.5810 N   0  0  0  0  0  0  0  0  0  0  0  0
   41.9390   61.8650  -10.3910 N   0  0  0  0  0  0  0  0  0  0  0  0
   41.1750   62.1830  -11.5930 C   0  0  2  0  0  0  0  0  0  0  0  0
   40.2350   61.0100  -11.8690 C   0  0  0  0  0  0  0  0  0  0  0  0
   40.6520   59.8580  -11.8360 O   0  0  0  0  0  0  0  0  0  0  0  0
   42.1120   62.3820  -12.8110 C   0  0  2  0  0  0  0  0  0  0  0  0
   43.1060   63.3680  -12.4970 O   0  0  0  0  0  0  0  0  0  0  0  0
   41.3200   62.8480  -14.0270 C   0  0  0  0  0  0  0  0  0  0  0  0
   38.9500   61.2870  -12.1420 N   0  0  0  0  0  0  0  0  0  0  0  0
   38.0100   60.1940  -12.4100 C   0  0  2  0  0  0  0  0  0  0  0  0
   38.3540   59.4080  -13.6740 C   0  0  0  0  0  0  0  0  0  0  0  0
   39.0460   59.9120  -14.5560 O   0  0  0  0  0  0  0  0  0  0  0  0
   36.6710   60.9180  -12.5300 C   0  0  0  0  0  0  0  0  0  0  0  0
   37.0710   62.2290  -13.1390 C   0  0  0  0  0  0  0  0  0  0  0  0
   38.3030   62.5980  -12.3350 C   0  0  0  0  0  0  0  0  0  0  0  0
   37.8630   58.1770  -13.7550 N   0  0  0  0  0  0  0  0  0  0  0  0
   38.1050   57.3270  -14.9180 C   0  0  2  0  0  0  0  0  0  0  0  0
   37.2990   57.7760  -16.1350 C   0  0  0  0  0  0  0  0  0  0  0  0
   37.6840   57.3990  -17.2650 O   0  5  0  0  0  0  0  0  0  0  0  0
   37.7700   55.8700  -14.5950 C   0  0  0  0  0  0  0  0  0  0  0  0
   38.7910   55.1780  -13.7170 C   0  0  0  0  0  0  0  0  0  0  0  0
   38.3290   53.4670  -13.4050 S   0  0  0  0  0  0  0  0  0  0  0  0
   38.5160   53.3840  -11.6410 C   0  0  0  0  0  0  0  0  0  0  0  0
   36.2810   58.4790  -15.9510 O   0  0  0  0  0  0  0  0  0  0  0  0
   50.0348   57.1053    5.6358 H   0  0  0  0  0  0  0  0  0  0  0  0
   50.4831   57.1533    4.0528 H   0  0  0  0  0  0  0  0  0  0  0  0
   49.3961   56.0291    4.5666 H   0  0  0  0  0  0  0  0  0  0  0  0
   47.7731   57.7166    5.0895 H   0  0  0  0  0  0  0  0  0  0  0  0
   49.9087   59.5730    3.9156 H   0  0  0  0  0  0  0  0  0  0  0  0
   49.4219   59.4869    5.6425 H   0  0  0  0  0  0  0  0  0  0  0  0
   47.3112   60.1142    4.9517 H   0  0  0  0  0  0  0  0  0  0  0  0
   46.2189   57.8571    3.6025 H   0  0  0  0  0  0  0  0  0  0  0  0
   46.7011   56.7211    0.9986 H   0  0  0  0  0  0  0  0  0  0  0  0
   44.1475   57.3756    0.7958 H   0  0  0  0  0  0  0  0  0  0  0  0
   44.3049   57.6903    2.5573 H   0  0  0  0  0  0  0  0  0  0  0  0
   43.5441   55.4797    2.4263 H   0  0  0  0  0  0  0  0  0  0  0  0
   45.3137   55.3195    2.6898 H   0  0  0  0  0  0  0  0  0  0  0  0
   44.7990   53.7956    0.9443 H   0  0  0  0  0  0  0  0  0  0  0  0
   45.5284   55.2229    0.1335 H   0  0  0  0  0  0  0  0  0  0  0  0
   42.5480   54.9905    0.3359 H   0  0  0  0  0  0  0  0  0  0  0  0
   44.6397   55.2459   -3.1380 H   0  0  0  0  0  0  0  0  0  0  0  0
   45.5195   55.0596   -1.5973 H   0  0  0  0  0  0  0  0  0  0  0  0
   41.4420   55.2078   -1.6200 H   0  0  0  0  0  0  0  0  0  0  0  0
   42.3501   55.3143   -3.1519 H   0  0  0  0  0  0  0  0  0  0  0  0
   46.0843   57.4921   -1.0083 H   0  0  0  0  0  0  0  0  0  0  0  0
   46.8098   60.2937   -1.5139 H   0  0  0  0  0  0  0  0  0  0  0  0
   45.7351   58.1118   -3.3781 H   0  0  0  0  0  0  0  0  0  0  0  0
   47.4731   58.3797   -3.0116 H   0  0  0  0  0  0  0  0  0  0  0  0
   45.2241   61.5941   -2.9352 H   0  0  0  0  0  0  0  0  0  0  0  0
   42.4100   60.8741   -2.8272 H   0  0  0  0  0  0  0  0  0  0  0  0
   42.8202   61.6476   -0.4854 H   0  0  0  0  0  0  0  0  0  0  0  0
   41.6314   62.6519   -1.3825 H   0  0  0  0  0  0  0  0  0  0  0  0
   45.3658   62.6996   -0.4868 H   0  0  0  0  0  0  0  0  0  0  0  0
   42.1620   65.3192   -1.2447 H   0  0  0  0  0  0  0  0  0  0  0  0
   46.2501   65.0598   -0.0729 H   0  0  0  0  0  0  0  0  0  0  0  0
   41.0173   62.7277   -3.6089 H   0  0  0  0  0  0  0  0  0  0  0  0
   40.4773   64.2099   -5.2788 H   0  0  0  0  0  0  0  0  0  0  0  0
   42.0798   66.0931   -5.7026 H   0  0  0  0  0  0  0  0  0  0  0  0
   43.2832   65.2603   -4.6611 H   0  0  0  0  0  0  0  0  0  0  0  0
   40.6914   66.1350   -3.8543 H   0  0  0  0  0  0  0  0  0  0  0  0
   41.3340   61.7267   -6.1046 H   0  0  0  0  0  0  0  0  0  0  0  0
   43.3303   61.9435   -8.2152 H   0  0  0  0  0  0  0  0  0  0  0  0
   41.2631   59.7751   -7.6255 H   0  0  0  0  0  0  0  0  0  0  0  0
   42.8938   59.8797   -6.8796 H   0  0  0  0  0  0  0  0  0  0  0  0
   43.5714   58.5208   -8.5068 H   0  0  0  0  0  0  0  0  0  0  0  0
   43.4231   59.9331   -9.6070 H   0  0  0  0  0  0  0  0  0  0  0  0
   42.2581   57.8820  -10.4372 H   0  0  0  0  0  0  0  0  0  0  0  0
   41.1714   59.2958  -10.2201 H   0  0  0  0  0  0  0  0  0  0  0  0
   41.0824   57.7858   -7.8187 H   0  0  0  0  0  0  0  0  0  0  0  0
   38.4264   55.6853   -8.7722 H   0  0  0  0  0  0  0  0  0  0  0  0
   39.3776   56.3435   -7.4140 H   0  0  0  0  0  0  0  0  0  0  0  0
   40.2621   57.4289  -11.2474 H   0  0  0  0  0  0  0  0  0  0  0  0
   38.9244   56.2934  -10.9250 H   0  0  0  0  0  0  0  0  0  0  0  0
   42.8818   61.5440  -10.4809 H   0  0  0  0  0  0  0  0  0  0  0  0
   40.5923   63.1013  -11.4282 H   0  0  0  0  0  0  0  0  0  0  0  0
   42.6054   61.4271  -13.0449 H   0  0  0  0  0  0  0  0  0  0  0  0
   43.6789   63.4880  -13.2453 H   0  0  0  0  0  0  0  0  0  0  0  0
   42.0023   62.9831  -14.8792 H   0  0  0  0  0  0  0  0  0  0  0  0
   40.8254   63.8035  -13.7983 H   0  0  0  0  0  0  0  0  0  0  0  0
   40.5608   62.0937  -14.2812 H   0  0  0  0  0  0  0  0  0  0  0  0
   37.9911   59.4941  -11.5616 H   0  0  0  0  0  0  0  0  0  0  0  0
   36.2061   61.0622  -11.5436 H   0  0  0  0  0  0  0  0  0  0  0  0
   35.9785   60.3691  -13.1851 H   0  0  0  0  0  0  0  0  0  0  0  0
   36.2778   62.9818  -13.0200 H   0  0  0  0  0  0  0  0  0  0  0  0
   37.3115   62.1153  -14.2063 H   0  0  0  0  0  0  0  0  0  0  0  0
   38.9537   63.2859  -12.8947 H   0  0  0  0  0  0  0  0  0  0  0  0
   38.0295   63.0539  -11.3720 H   0  0  0  0  0  0  0  0  0  0  0  0
   37.3126   57.8222  -12.9993 H   0  0  0  0  0  0  0  0  0  0  0  0
   39.1737   57.3922  -15.1703 H   0  0  0  0  0  0  0  0  0  0  0  0
   37.6966   55.3149  -15.5418 H   0  0  0  0  0  0  0  0  0  0  0  0
   36.7987   55.8456  -14.0794 H   0  0  0  0  0  0  0  0  0  0  0  0
   38.8596   55.7116  -12.7576 H   0  0  0  0  0  0  0  0  0  0  0  0
   39.7694   55.1994  -14.2193 H   0  0  0  0  0  0  0  0  0  0  0  0
   38.2623   52.3719  -11.2926 H   0  0  0  0  0  0  0  0  0  0  0  0
   37.8442   54.1143  -11.1663 H   0  0  0  0  0  0  0  0  0  0  0  0
   39.5573   53.6143  -11.3714 H   0  0  0  0  0  0  0  0  0  0  0  0
  1  2  1  0  0  0  0
  1 76  1  0  0  0  0
  1 77  1  0  0  0  0
  1 78  1  0  0  0  0
  2  3  1  0  0  0  0
  2  5  1  0  0  0  0
  2 79  1  1  0  0  0
  3  4  2  0  0  0  0
  3  7  1  0  0  0  0
  5  6  1  0  0  0  0
  5 80  1  0  0  0  0
  5 81  1  0  0  0  0
  6 82  1  0  0  0  0
  7  8  1  0  0  0  0
  7 83  1  0  0  0  0
  8  9  1  0  0  0  0
  8 11  1  0  0  0  0
  8 84  1  6  0  0  0
  9 10  2  0  0  0  0
  9 18  1  0  0  0  0
 11 12  1  0  0  0  0
 11 85  1  0  0  0  0
 11 86  1  0  0  0  0
 12 13  1  0  0  0  0
 12 87  1  0  0  0  0
 12 88  1  0  0  0  0
 13 14  1  0  0  0  0
 13 89  1  0  0  0  0
 13 90  1  0  0  0  0
 14 15  1  0  0  0  0
 14 91  1  0  0  0  0
 15 16  1  0  0  0  0
 15 17  1  0  0  0  0
 16 92  1  0  0  0  0
 16 93  1  0  0  0  0
 17 94  1  0  0  0  0
 17 95  1  0  0  0  0
 18 19  1  0  0  0  0
 18 96  1  0  0  0  0
 19 20  1  0  0  0  0
 19 22  1  0  0  0  0
 19 97  1  1  0  0  0
 20 21  2  0  0  0  0
 20 26  1  0  0  0  0
 22 23  1  0  0  0  0
 22 98  1  0  0  0  0
 22 99  1  0  0  0  0
 23 24  1  0  0  0  0
 23 25  2  0  0  0  0
 26 27  1  0  0  0  0
 26100  1  0  0  0  0
 27 28  1  0  0  0  0
 27 30  1  0  0  0  0
 27101  1  6  0  0  0
 28 29  2  0  0  0  0
 28 36  1  0  0  0  0
 30 31  1  0  0  0  0
 30102  1  0  0  0  0
 30103  1  0  0  0  0
 31 32  1  0  0  0  0
 31 33  2  0  0  0  0
 32 34  1  0  0  0  0
 32104  1  0  0  0  0
 33 35  1  0  0  0  0
 33105  1  0  0  0  0
 34 35  2  0  0  0  0
 34106  1  0  0  0  0
 36 37  1  0  0  0  0
 36107  1  0  0  0  0
 37 38  1  0  0  0  0
 37 40  1  0  0  0  0
 37108  1  6  0  0  0
 38 39  2  0  0  0  0
 38 42  1  0  0  0  0
 40 41  1  0  0  0  0
 40109  1  0  0  0  0
 40110  1  0  0  0  0
 41111  1  0  0  0  0
 42 43  1  0  0  0  0
 42112  1  0  0  0  0
 43 44  1  0  0  0  0
 43 46  1  0  0  0  0
 43113  1  6  0  0  0
 44 45  2  0  0  0  0
 44 53  1  0  0  0  0
 46 47  1  0  0  0  0
 46114  1  0  0  0  0
 46115  1  0  0  0  0
 47 48  1  0  0  0  0
 47116  1  0  0  0  0
 47117  1  0  0  0  0
 48 49  1  0  0  0  0
 48118  1  0  0  0  0
 48119  1  0  0  0  0
 49 50  1  0  0  0  0
 49120  1  0  0  0  0
 50 51  1  0  0  0  0
 50 52  1  0  0  0  0
 51121  1  0  0  0  0
 51122  1  0  0  0  0
 52123  1  0  0  0  0
 52124  1  0  0  0  0
 53 54  1  0  0  0  0
 53125  1  0  0  0  0
 54 55  1  0  0  0  0
 54 57  1  0  0  0  0
 54126  1  1  0  0  0
 55 56  2  0  0  0  0
 55 60  1  0  0  0  0
 57 58  1  0  0  0  0
 57 59  1  0  0  0  0
 57127  1  6  0  0  0
 58128  1  0  0  0  0
 59129  1  0  0  0  0
 59130  1  0  0  0  0
 59131  1  0  0  0  0
 60 61  1  0  0  0  0
 60 66  1  0  0  0  0
 61 62  1  0  0  0  0
 61 64  1  0  0  0  0
 61132  1  1  0  0  0
 62 63  2  0  0  0  0
 62 67  1  0  0  0  0
 64 65  1  0  0  0  0
 64133  1  0  0  0  0
 64134  1  0  0  0  0
 65 66  1  0  0  0  0
 65135  1  0  0  0  0
 65136  1  0  0  0  0
 66137  1  0  0  0  0
 66138  1  0  0  0  0
 67 68  1  0  0  0  0
 67139  1  0  0  0  0
 68 69  1  0  0  0  0
 68 71  1  0  0  0  0
 68140  1  6  0  0  0
 69 70  1  0  0  0  0
 69 75  2  0  0  0  0
 71 72  1  0  0  0  0
 71141  1  0  0  0  0
 71142  1  0  0  0  0
 72 73  1  0  0  0  0
 72143  1  0  0  0  0
 72144  1  0  0  0  0
 73 74  1  0  0  0  0
 74145  1  0  0  0  0
 74146  1  0  0  0  0
 74147  1  0  0  0  0
M  CHG  3   1   1  24  -1  70  -1
M  END
