1g9b_ligand
 OpenBabel08222323343D

 43 46  0  0  0  0  0  0  0  0999 V2000
   12.8410    1.3410   29.5740 C   0  0  0  0  0  0  0  0  0  0  0  0
   12.2500    2.4840   28.9790 C   0  0  0  0  0  0  0  0  0  0  0  0
   11.3140    2.3410   27.9310 C   0  0  0  0  0  0  0  0  0  0  0  0
   11.0030    1.0590   27.5180 C   0  0  0  0  0  0  0  0  0  0  0  0
   11.5710   -0.0410   28.0940 C   0  0  0  0  0  0  0  0  0  0  0  0
   12.4880    0.0580   29.1200 C   0  0  0  0  0  0  0  0  0  0  0  0
   13.8560    1.4900   30.6950 C   0  0  0  0  0  3  0  0  0  0  0  0
   10.1100   -0.8360   26.4150 C   0  0  0  0  0  0  0  0  0  0  0  0
    9.3320   -1.7390   25.4770 C   0  0  0  0  0  0  0  0  0  0  0  0
   13.6800    0.7300   31.9790 N   0  0  0  0  0  0  0  0  0  0  0  0
   15.0560    2.3680   30.5070 N   0  0  0  0  0  0  0  0  0  0  0  0
   10.0650    0.6450   26.4440 N   0  0  0  0  0  0  0  0  0  0  0  0
   11.0590   -1.2770   27.4570 N   0  0  0  0  0  0  0  0  0  0  0  0
    9.1900    0.3380   19.6430 C   0  0  0  0  0  0  0  0  0  0  0  0
   10.5760    0.5930   19.8470 C   0  0  0  0  0  0  0  0  0  0  0  0
   11.1740    0.2750   21.0890 C   0  0  0  0  0  0  0  0  0  0  0  0
   10.3660   -0.2770   22.0660 C   0  0  0  0  0  0  0  0  0  0  0  0
    9.0420   -0.5170   21.8530 C   0  0  0  0  0  0  0  0  0  0  0  0
    8.4280   -0.2260   20.6680 C   0  0  0  0  0  0  0  0  0  0  0  0
    8.5060    0.6840   18.3450 C   0  0  0  0  0  3  0  0  0  0  0  0
    9.4920   -1.2060   24.0610 C   0  0  0  0  0  0  0  0  0  0  0  0
    7.5130   -0.2280   17.7270 N   0  0  0  0  0  0  0  0  0  0  0  0
    8.7150    2.0060   17.7170 N   0  0  0  0  0  0  0  0  0  0  0  0
   10.7350   -0.6860   23.4410 N   0  0  0  0  0  0  0  0  0  0  0  0
    8.4230   -1.1020   23.0540 N   0  0  0  0  0  0  0  0  0  0  0  0
   12.5181    3.4738   29.3305 H   0  0  0  0  0  0  0  0  0  0  0  0
   10.8554    3.2065   27.4667 H   0  0  0  0  0  0  0  0  0  0  0  0
   12.9245   -0.8293   29.5641 H   0  0  0  0  0  0  0  0  0  0  0  0
    8.2682   -1.7384   25.7569 H   0  0  0  0  0  0  0  0  0  0  0  0
    9.7260   -2.7643   25.5354 H   0  0  0  0  0  0  0  0  0  0  0  0
   14.3696    0.8330   32.7371 H   0  0  0  0  0  0  0  0  0  0  0  0
   12.8697    0.1060   32.1012 H   0  0  0  0  0  0  0  0  0  0  0  0
   15.1794    2.8902   29.6278 H   0  0  0  0  0  0  0  0  0  0  0  0
   15.7573    2.4492   31.2570 H   0  0  0  0  0  0  0  0  0  0  0  0
    9.4992    1.2607   25.8426 H   0  0  0  0  0  0  0  0  0  0  0  0
   11.1711    1.0295   19.0530 H   0  0  0  0  0  0  0  0  0  0  0  0
   12.2274    0.4574   21.2683 H   0  0  0  0  0  0  0  0  0  0  0  0
    7.3725   -0.4285   20.5266 H   0  0  0  0  0  0  0  0  0  0  0  0
    7.0588    0.0305   16.8394 H   0  0  0  0  0  0  0  0  0  0  0  0
    7.2776   -1.1198   18.1854 H   0  0  0  0  0  0  0  0  0  0  0  0
    9.3967    2.6652   18.1191 H   0  0  0  0  0  0  0  0  0  0  0  0
    8.1789    2.2679   16.8774 H   0  0  0  0  0  0  0  0  0  0  0  0
    7.4384   -1.3826   23.1671 H   0  0  0  0  0  0  0  0  0  0  0  0
  1  2  2  0  0  0  0
  1  7  1  0  0  0  0
  2 26  1  0  0  0  0
  3  2  1  0  0  0  0
  3 27  1  0  0  0  0
  4  3  2  0  0  0  0
  5  4  1  0  0  0  0
  5  6  2  0  0  0  0
  6  1  1  0  0  0  0
  6 28  1  0  0  0  0
  7 10  1  0  0  0  0
  7 11  1  0  0  0  0
  8 12  1  0  0  0  0
  8 13  2  0  0  0  0
  9  8  1  0  0  0  0
  9 29  1  0  0  0  0
  9 30  1  0  0  0  0
 10 31  1  0  0  0  0
 10 32  1  0  0  0  0
 11 33  1  0  0  0  0
 11 34  1  0  0  0  0
 12  4  1  0  0  0  0
 12 35  1  0  0  0  0
 13  5  1  0  0  0  0
 14 20  1  0  0  0  0
 15 14  2  0  0  0  0
 15 36  1  0  0  0  0
 16 15  1  0  0  0  0
 16 37  1  0  0  0  0
 17 16  2  0  0  0  0
 17 18  1  0  0  0  0
 18 19  2  0  0  0  0
 18 25  1  0  0  0  0
 19 14  1  0  0  0  0
 19 38  1  0  0  0  0
 20 22  1  0  0  0  0
 20 23  1  0  0  0  0
 21  9  1  0  0  0  0
 21 24  2  0  0  0  0
 21 25  1  0  0  0  0
 22 39  1  0  0  0  0
 22 40  1  0  0  0  0
 23 41  1  0  0  0  0
 23 42  1  0  0  0  0
 24 17  1  0  0  0  0
 25 43  1  0  0  0  0
M  END
