1g9d_ligand
 OpenBabel08222323343D

 43 46  0  0  0  0  0  0  0  0999 V2000
   10.7300   -9.4620   23.6580 C   0  0  0  0  0  0  0  0  0  0  0  0
    9.8430   -8.8330   24.5780 C   0  0  0  0  0  0  0  0  0  0  0  0
    8.7250   -8.1070   24.1030 C   0  0  0  0  0  0  0  0  0  0  0  0
    8.5430   -8.0410   22.7360 C   0  0  0  0  0  0  0  0  0  0  0  0
    9.3990   -8.6510   21.8570 C   0  0  0  0  0  0  0  0  0  0  0  0
   10.4960   -9.3630   22.2770 C   0  0  0  0  0  0  0  0  0  0  0  0
   11.9330  -10.2410   24.1410 C   0  0  0  0  0  3  0  0  0  0  0  0
    7.7300   -7.6130   20.5580 C   0  0  0  0  0  0  0  0  0  0  0  0
    6.8770   -7.1460   19.4090 C   0  0  0  0  0  0  0  0  0  0  0  0
   11.7500  -11.5360   24.8800 N   0  0  0  0  0  0  0  0  0  0  0  0
   13.3110   -9.7160   23.8620 N   0  0  0  0  0  0  0  0  0  0  0  0
    7.4620   -7.3610   21.9900 N   0  0  0  0  0  0  0  0  0  0  0  0
    8.9520   -8.4250   20.4650 N   0  0  0  0  0  0  0  0  0  0  0  0
    1.6580  -10.3520   20.7200 C   0  0  0  0  0  0  0  0  0  0  0  0
    1.0620   -9.2840   20.0330 C   0  0  0  0  0  0  0  0  0  0  0  0
    1.8470   -8.2510   19.5110 C   0  0  0  0  0  0  0  0  0  0  0  0
    3.1990   -8.2940   19.6790 C   0  0  0  0  0  0  0  0  0  0  0  0
    3.8070   -9.3240   20.3450 C   0  0  0  0  0  0  0  0  0  0  0  0
    3.0750  -10.3840   20.8910 C   0  0  0  0  0  0  0  0  0  0  0  0
    0.7540  -11.4460   21.2600 C   0  0  0  0  0  3  0  0  0  0  0  0
    5.5190   -7.8070   19.6370 C   0  0  0  0  0  0  0  0  0  0  0  0
    0.9390  -12.8650   20.7990 N   0  0  0  0  0  0  0  0  0  0  0  0
   -0.3590  -11.0920   22.2190 N   0  0  0  0  0  0  0  0  0  0  0  0
    4.2040   -7.2950   19.1980 N   0  0  0  0  0  0  0  0  0  0  0  0
    5.2760   -9.0980   20.3670 N   0  0  0  0  0  0  0  0  0  0  0  0
   10.0247   -8.9106   25.6439 H   0  0  0  0  0  0  0  0  0  0  0  0
    8.0378   -7.6213   24.7863 H   0  0  0  0  0  0  0  0  0  0  0  0
   11.1616   -9.8347   21.5632 H   0  0  0  0  0  0  0  0  0  0  0  0
    7.3086   -7.4683   18.4499 H   0  0  0  0  0  0  0  0  0  0  0  0
    6.7809   -6.0503   19.4181 H   0  0  0  0  0  0  0  0  0  0  0  0
   12.5723  -12.0630   25.2070 H   0  0  0  0  0  0  0  0  0  0  0  0
   10.8022  -11.8969   25.0597 H   0  0  0  0  0  0  0  0  0  0  0  0
   13.4307   -8.8275   23.3549 H   0  0  0  0  0  0  0  0  0  0  0  0
   14.1370  -10.2442   24.1776 H   0  0  0  0  0  0  0  0  0  0  0  0
    6.6803   -6.8209   22.3878 H   0  0  0  0  0  0  0  0  0  0  0  0
   -0.0142   -9.2592   19.9059 H   0  0  0  0  0  0  0  0  0  0  0  0
    1.3860   -7.4264   18.9794 H   0  0  0  0  0  0  0  0  0  0  0  0
    3.5626  -11.1943   21.4208 H   0  0  0  0  0  0  0  0  0  0  0  0
    0.3271  -13.6089   21.1638 H   0  0  0  0  0  0  0  0  0  0  0  0
    1.6776  -13.0932   20.1184 H   0  0  0  0  0  0  0  0  0  0  0  0
   -0.4799  -10.1177   22.5306 H   0  0  0  0  0  0  0  0  0  0  0  0
   -0.9967  -11.8250   22.5610 H   0  0  0  0  0  0  0  0  0  0  0  0
    5.9871   -9.7062   20.7976 H   0  0  0  0  0  0  0  0  0  0  0  0
  1  2  2  0  0  0  0
  1  7  1  0  0  0  0
  2 26  1  0  0  0  0
  3  2  1  0  0  0  0
  3 27  1  0  0  0  0
  4  3  2  0  0  0  0
  5  4  1  0  0  0  0
  5  6  2  0  0  0  0
  6  1  1  0  0  0  0
  6 28  1  0  0  0  0
  7 10  1  0  0  0  0
  7 11  1  0  0  0  0
  8 12  1  0  0  0  0
  8 13  2  0  0  0  0
  9  8  1  0  0  0  0
  9 29  1  0  0  0  0
  9 30  1  0  0  0  0
 10 31  1  0  0  0  0
 10 32  1  0  0  0  0
 11 33  1  0  0  0  0
 11 34  1  0  0  0  0
 12  4  1  0  0  0  0
 12 35  1  0  0  0  0
 13  5  1  0  0  0  0
 14 20  1  0  0  0  0
 15 14  2  0  0  0  0
 15 36  1  0  0  0  0
 16 15  1  0  0  0  0
 16 37  1  0  0  0  0
 17 16  2  0  0  0  0
 17 18  1  0  0  0  0
 18 19  2  0  0  0  0
 18 25  1  0  0  0  0
 19 14  1  0  0  0  0
 19 38  1  0  0  0  0
 20 22  1  0  0  0  0
 20 23  1  0  0  0  0
 21  9  1  0  0  0  0
 21 24  2  0  0  0  0
 21 25  1  0  0  0  0
 22 39  1  0  0  0  0
 22 40  1  0  0  0  0
 23 41  1  0  0  0  0
 23 42  1  0  0  0  0
 24 17  1  0  0  0  0
 25 43  1  0  0  0  0
M  END
