1gca_ligand
 OpenBabel08222323343D

 24 24  0  0  1  0  0  0  0  0999 V2000
   82.5060   28.9040   85.2000 C   0  0  2  0  0  0  0  0  0  0  0  0
   81.6930   27.9420   86.0690 C   0  0  1  0  0  0  0  0  0  0  0  0
   81.9450   28.2770   87.5230 C   0  0  2  0  0  0  0  0  0  0  0  0
   83.4670   28.2860   87.8830 C   0  0  2  0  0  0  0  0  0  0  0  0
   84.2570   29.1710   86.8750 C   0  0  1  0  0  0  0  0  0  0  0  0
   85.7920   29.0160   87.0290 C   0  0  0  0  0  0  0  0  0  0  0  0
   82.3000   28.6130   83.8690 O   0  0  0  0  0  0  0  0  0  0  0  0
   80.3100   28.0700   85.7670 O   0  0  0  0  0  0  0  0  0  0  0  0
   81.2830   27.3400   88.2950 O   0  0  0  0  0  0  0  0  0  0  0  0
   83.9180   26.9610   87.8120 O   0  0  0  0  0  0  0  0  0  0  0  0
   83.8940   28.7880   85.5160 O   0  0  0  0  0  0  0  0  0  0  0  0
   86.4570   29.9630   86.2050 O   0  0  0  0  0  0  0  0  0  0  0  0
   82.1772   29.9348   85.3984 H   0  0  0  0  0  0  0  0  0  0  0  0
   82.0121   26.9082   85.8707 H   0  0  0  0  0  0  0  0  0  0  0  0
   81.5340   29.2757   87.7321 H   0  0  0  0  0  0  0  0  0  0  0  0
   83.6088   28.6774   88.9012 H   0  0  0  0  0  0  0  0  0  0  0  0
   83.9874   30.2239   87.0443 H   0  0  0  0  0  0  0  0  0  0  0  0
   86.0882   27.9999   86.7295 H   0  0  0  0  0  0  0  0  0  0  0  0
   86.0725   29.1852   88.0791 H   0  0  0  0  0  0  0  0  0  0  0  0
   82.7952   29.2211   83.3327 H   0  0  0  0  0  0  0  0  0  0  0  0
   79.8111   27.4750   86.3143 H   0  0  0  0  0  0  0  0  0  0  0  0
   80.3600   27.3411   88.0701 H   0  0  0  0  0  0  0  0  0  0  0  0
   83.4310   26.4284   88.4298 H   0  0  0  0  0  0  0  0  0  0  0  0
   86.2156   29.8166   85.2979 H   0  0  0  0  0  0  0  0  0  0  0  0
  1  2  1  0  0  0  0
  1  7  1  0  0  0  0
  1 11  1  0  0  0  0
  1 13  1  1  0  0  0
  2  3  1  0  0  0  0
  2  8  1  0  0  0  0
  2 14  1  6  0  0  0
  3  4  1  0  0  0  0
  3  9  1  0  0  0  0
  3 15  1  1  0  0  0
  4  5  1  0  0  0  0
  4 10  1  0  0  0  0
  4 16  1  1  0  0  0
  5  6  1  0  0  0  0
  5 11  1  0  0  0  0
  5 17  1  1  0  0  0
  6 12  1  0  0  0  0
  6 18  1  0  0  0  0
  6 19  1  0  0  0  0
  7 20  1  0  0  0  0
  8 21  1  0  0  0  0
  9 22  1  0  0  0  0
 10 23  1  0  0  0  0
 12 24  1  0  0  0  0
M  END
