1gni_ligand
 OpenBabel08222323343D

 53 52  0  0  0  0  0  0  0  0999 V2000
   29.8480   12.4910   35.5290 C   0  0  0  0  0  0  0  0  0  0  0  0
   29.0440   13.4120   35.8070 O   0  5  0  0  0  0  0  0  0  0  0  0
   29.4660   11.3690   35.1310 O   0  0  0  0  0  0  0  0  0  0  0  0
   31.3590   12.7330   35.6690 C   0  0  0  0  0  0  0  0  0  0  0  0
   31.6740   13.6900   36.8330 C   0  0  0  0  0  0  0  0  0  0  0  0
   33.1970   13.8230   36.8300 C   0  0  0  0  0  0  0  0  0  0  0  0
   33.6470   15.2850   36.8820 C   0  0  0  0  0  0  0  0  0  0  0  0
   35.1420   15.4200   36.5820 C   0  0  0  0  0  0  0  0  0  0  0  0
   35.4050   15.8770   35.1430 C   0  0  0  0  0  0  0  0  0  0  0  0
   36.6180   15.1890   34.5120 C   0  0  0  0  0  0  0  0  0  0  0  0
   37.1540   15.9590   33.2960 C   0  0  0  0  0  0  0  0  0  0  0  0
   37.1270   15.5550   31.9990 C   0  0  0  0  0  0  0  0  0  0  0  0
   36.5580   14.2480   31.4630 C   0  0  0  0  0  0  0  0  0  0  0  0
   35.6750   14.4660   30.2420 C   0  0  0  0  0  0  0  0  0  0  0  0
   34.4940   13.4960   30.2550 C   0  0  0  0  0  0  0  0  0  0  0  0
   33.6810   13.5500   28.9680 C   0  0  0  0  0  0  0  0  0  0  0  0
   32.5900   12.4970   28.9760 C   0  0  0  0  0  0  0  0  0  0  0  0
   32.5080   11.8090   27.6250 C   0  0  0  0  0  0  0  0  0  0  0  0
   33.1240   10.4130   27.6620 C   0  0  0  0  0  0  0  0  0  0  0  0
   32.0470    9.3460   27.6640 C   0  0  0  0  0  0  0  0  0  0  0  0
   31.7386   13.1710   34.7341 H   0  0  0  0  0  0  0  0  0  0  0  0
   31.8592   11.7707   35.8527 H   0  0  0  0  0  0  0  0  0  0  0  0
   31.3241   13.2681   37.7867 H   0  0  0  0  0  0  0  0  0  0  0  0
   31.1995   14.6687   36.6689 H   0  0  0  0  0  0  0  0  0  0  0  0
   33.5915   13.3629   35.9121 H   0  0  0  0  0  0  0  0  0  0  0  0
   33.6009   13.2961   37.7071 H   0  0  0  0  0  0  0  0  0  0  0  0
   33.4459   15.6859   37.8864 H   0  0  0  0  0  0  0  0  0  0  0  0
   33.0790   15.8611   36.1367 H   0  0  0  0  0  0  0  0  0  0  0  0
   35.6240   14.4435   36.7371 H   0  0  0  0  0  0  0  0  0  0  0  0
   35.5767   16.1574   37.2728 H   0  0  0  0  0  0  0  0  0  0  0  0
   35.5797   16.9630   35.1460 H   0  0  0  0  0  0  0  0  0  0  0  0
   34.5170   15.6501   34.5348 H   0  0  0  0  0  0  0  0  0  0  0  0
   36.3248   14.1787   34.1905 H   0  0  0  0  0  0  0  0  0  0  0  0
   37.4161   15.1168   35.2655 H   0  0  0  0  0  0  0  0  0  0  0  0
   37.6030   16.9311   33.4942 H   0  0  0  0  0  0  0  0  0  0  0  0
   37.5569   16.2367   31.2666 H   0  0  0  0  0  0  0  0  0  0  0  0
   35.9593   13.7713   32.2531 H   0  0  0  0  0  0  0  0  0  0  0  0
   37.3913   13.5861   31.1845 H   0  0  0  0  0  0  0  0  0  0  0  0
   36.2693   14.3004   29.3313 H   0  0  0  0  0  0  0  0  0  0  0  0
   35.2954   15.4984   30.2495 H   0  0  0  0  0  0  0  0  0  0  0  0
   33.8363   13.7521   31.0987 H   0  0  0  0  0  0  0  0  0  0  0  0
   34.8784   12.4738   30.3868 H   0  0  0  0  0  0  0  0  0  0  0  0
   34.3484   13.3713   28.1120 H   0  0  0  0  0  0  0  0  0  0  0  0
   33.2213   14.5448   28.8732 H   0  0  0  0  0  0  0  0  0  0  0  0
   31.6251   12.9765   29.1976 H   0  0  0  0  0  0  0  0  0  0  0  0
   32.8141   11.7488   29.7506 H   0  0  0  0  0  0  0  0  0  0  0  0
   33.0467   12.4163   26.8827 H   0  0  0  0  0  0  0  0  0  0  0  0
   31.4511   11.7242   27.3321 H   0  0  0  0  0  0  0  0  0  0  0  0
   33.7326   10.3120   28.5727 H   0  0  0  0  0  0  0  0  0  0  0  0
   33.7631   10.2778   26.7770 H   0  0  0  0  0  0  0  0  0  0  0  0
   32.5162    8.3515   27.6909 H   0  0  0  0  0  0  0  0  0  0  0  0
   31.4369    9.4391   26.7534 H   0  0  0  0  0  0  0  0  0  0  0  0
   31.4064    9.4732   28.5491 H   0  0  0  0  0  0  0  0  0  0  0  0
  1  2  1  0  0  0  0
  1  3  2  0  0  0  0
  1  4  1  0  0  0  0
  4  5  1  0  0  0  0
  4 21  1  0  0  0  0
  4 22  1  0  0  0  0
  5  6  1  0  0  0  0
  5 23  1  0  0  0  0
  5 24  1  0  0  0  0
  6  7  1  0  0  0  0
  6 25  1  0  0  0  0
  6 26  1  0  0  0  0
  7  8  1  0  0  0  0
  7 27  1  0  0  0  0
  7 28  1  0  0  0  0
  8  9  1  0  0  0  0
  8 29  1  0  0  0  0
  8 30  1  0  0  0  0
  9 10  1  0  0  0  0
  9 31  1  0  0  0  0
  9 32  1  0  0  0  0
 10 11  1  0  0  0  0
 10 33  1  0  0  0  0
 10 34  1  0  0  0  0
 11 12  2  0  0  0  0
 11 35  1  0  0  0  0
 12 13  1  0  0  0  0
 12 36  1  0  0  0  0
 13 14  1  0  0  0  0
 13 37  1  0  0  0  0
 13 38  1  0  0  0  0
 14 15  1  0  0  0  0
 14 39  1  0  0  0  0
 14 40  1  0  0  0  0
 15 16  1  0  0  0  0
 15 41  1  0  0  0  0
 15 42  1  0  0  0  0
 16 17  1  0  0  0  0
 16 43  1  0  0  0  0
 16 44  1  0  0  0  0
 17 18  1  0  0  0  0
 17 45  1  0  0  0  0
 17 46  1  0  0  0  0
 18 19  1  0  0  0  0
 18 47  1  0  0  0  0
 18 48  1  0  0  0  0
 19 20  1  0  0  0  0
 19 49  1  0  0  0  0
 19 50  1  0  0  0  0
 20 51  1  0  0  0  0
 20 52  1  0  0  0  0
 20 53  1  0  0  0  0
M  CHG  1   2  -1
M  END
