1gnj_ligand
 OpenBabel08222323343D

 53 52  0  0  0  0  0  0  0  0999 V2000
   29.3850   13.4330   35.8230 C   0  0  0  0  0  0  0  0  0  0  0  0
   30.7830   12.9360   35.6010 C   0  0  0  0  0  0  0  0  0  0  0  0
   31.7120   13.2650   36.7510 C   0  0  0  0  0  0  0  0  0  0  0  0
   32.8490   14.1460   36.2710 C   0  0  0  0  0  0  0  0  0  0  0  0
   33.2250   15.1840   37.2250 C   0  0  0  0  0  0  0  0  0  0  0  0
   34.1980   16.1520   36.9210 C   0  0  0  0  0  0  0  0  0  0  0  0
   34.8990   16.1940   35.6370 C   0  0  0  0  0  0  0  0  0  0  0  0
   36.3390   16.3840   35.7660 C   0  0  0  0  0  0  0  0  0  0  0  0
   37.2150   16.3730   34.6630 C   0  0  0  0  0  0  0  0  0  0  0  0
   36.7660   16.1710   33.2860 C   0  0  0  0  0  0  0  0  0  0  0  0
   37.4660   15.0930   32.6080 C   0  0  0  0  0  0  0  0  0  0  0  0
   36.8890   14.3170   31.5850 C   0  0  0  0  0  0  0  0  0  0  0  0
   35.5300   14.4960   31.0840 C   0  0  0  0  0  0  0  0  0  0  0  0
   35.4450   14.2630   29.6390 C   0  0  0  0  0  0  0  0  0  0  0  0
   34.3720   13.5950   29.0040 C   0  0  0  0  0  0  0  0  0  0  0  0
   33.2210   13.0630   29.7210 C   0  0  0  0  0  0  0  0  0  0  0  0
   32.1920   12.4210   28.8000 C   0  0  0  0  0  0  0  0  0  0  0  0
   31.7380   11.0670   29.3220 C   0  0  0  0  0  0  0  0  0  0  0  0
   30.5460   11.1960   30.2630 C   0  0  0  0  0  0  0  0  0  0  0  0
   30.5450   10.0790   31.2750 C   0  0  0  0  0  0  0  0  0  0  0  0
   28.5270   12.6670   36.3370 O   0  5  0  0  0  0  0  0  0  0  0  0
   29.1260   14.6170   35.4840 O   0  0  0  0  0  0  0  0  0  0  0  0
   31.1795   13.3990   34.6854 H   0  0  0  0  0  0  0  0  0  0  0  0
   30.7520   11.8436   35.4757 H   0  0  0  0  0  0  0  0  0  0  0  0
   32.1244   12.3322   37.1631 H   0  0  0  0  0  0  0  0  0  0  0  0
   31.1482   13.7939   37.5335 H   0  0  0  0  0  0  0  0  0  0  0  0
   32.5414   14.6307   35.3327 H   0  0  0  0  0  0  0  0  0  0  0  0
   33.7271   13.5102   36.0846 H   0  0  0  0  0  0  0  0  0  0  0  0
   32.7386   15.2095   38.1990 H   0  0  0  0  0  0  0  0  0  0  0  0
   34.4403   16.9021   37.6724 H   0  0  0  0  0  0  0  0  0  0  0  0
   34.4900   17.0253   35.0441 H   0  0  0  0  0  0  0  0  0  0  0  0
   34.7189   15.2449   35.1108 H   0  0  0  0  0  0  0  0  0  0  0  0
   36.7559   16.5415   36.7597 H   0  0  0  0  0  0  0  0  0  0  0  0
   38.2784   16.5222   34.8445 H   0  0  0  0  0  0  0  0  0  0  0  0
   36.9306   17.1024   32.7244 H   0  0  0  0  0  0  0  0  0  0  0  0
   35.6915   15.9360   33.2995 H   0  0  0  0  0  0  0  0  0  0  0  0
   38.4901   14.8741   32.9068 H   0  0  0  0  0  0  0  0  0  0  0  0
   37.4966   13.5315   31.1381 H   0  0  0  0  0  0  0  0  0  0  0  0
   35.2046   15.5247   31.2980 H   0  0  0  0  0  0  0  0  0  0  0  0
   34.8650   13.7866   31.5983 H   0  0  0  0  0  0  0  0  0  0  0  0
   36.2597   14.6274   29.0149 H   0  0  0  0  0  0  0  0  0  0  0  0
   34.4083   13.4720   27.9226 H   0  0  0  0  0  0  0  0  0  0  0  0
   32.7373   13.8859   30.2676 H   0  0  0  0  0  0  0  0  0  0  0  0
   33.5730   12.3048   30.4360 H   0  0  0  0  0  0  0  0  0  0  0  0
   32.6391   12.2874   27.8039 H   0  0  0  0  0  0  0  0  0  0  0  0
   31.3183   13.0849   28.7237 H   0  0  0  0  0  0  0  0  0  0  0  0
   32.5712   10.5966   29.8647 H   0  0  0  0  0  0  0  0  0  0  0  0
   31.4519   10.4339   28.4692 H   0  0  0  0  0  0  0  0  0  0  0  0
   29.6163   11.1532   29.6766 H   0  0  0  0  0  0  0  0  0  0  0  0
   30.6036   12.1603   30.7892 H   0  0  0  0  0  0  0  0  0  0  0  0
   29.6783   10.1904   31.9432 H   0  0  0  0  0  0  0  0  0  0  0  0
   31.4715   10.1192   31.8665 H   0  0  0  0  0  0  0  0  0  0  0  0
   30.4843    9.1122   30.7539 H   0  0  0  0  0  0  0  0  0  0  0  0
  1  2  1  0  0  0  0
  1 21  1  0  0  0  0
  1 22  2  0  0  0  0
  2  3  1  0  0  0  0
  2 23  1  0  0  0  0
  2 24  1  0  0  0  0
  3  4  1  0  0  0  0
  3 25  1  0  0  0  0
  3 26  1  0  0  0  0
  4  5  1  0  0  0  0
  4 27  1  0  0  0  0
  4 28  1  0  0  0  0
  5  6  2  0  0  0  0
  5 29  1  0  0  0  0
  6  7  1  0  0  0  0
  6 30  1  0  0  0  0
  7  8  1  0  0  0  0
  7 31  1  0  0  0  0
  7 32  1  0  0  0  0
  8  9  2  0  0  0  0
  8 33  1  0  0  0  0
  9 10  1  0  0  0  0
  9 34  1  0  0  0  0
 10 11  1  0  0  0  0
 10 35  1  0  0  0  0
 10 36  1  0  0  0  0
 11 12  2  0  0  0  0
 11 37  1  0  0  0  0
 12 13  1  0  0  0  0
 12 38  1  0  0  0  0
 13 14  1  0  0  0  0
 13 39  1  0  0  0  0
 13 40  1  0  0  0  0
 14 15  2  0  0  0  0
 14 41  1  0  0  0  0
 15 16  1  0  0  0  0
 15 42  1  0  0  0  0
 16 17  1  0  0  0  0
 16 43  1  0  0  0  0
 16 44  1  0  0  0  0
 17 18  1  0  0  0  0
 17 45  1  0  0  0  0
 17 46  1  0  0  0  0
 18 19  1  0  0  0  0
 18 47  1  0  0  0  0
 18 48  1  0  0  0  0
 19 20  1  0  0  0  0
 19 49  1  0  0  0  0
 19 50  1  0  0  0  0
 20 51  1  0  0  0  0
 20 52  1  0  0  0  0
 20 53  1  0  0  0  0
M  CHG  1  21  -1
M  END
