1gqs_ligand
 OpenBabel08222323343D

 28 28  0  0  1  0  0  0  0  0999 V2000
    4.4531   67.1407   66.2052 H   0  0  0  0  0  0  0  0  0  0  0  0
    4.1719   66.1134   62.0109 H   0  0  0  0  0  0  0  0  0  0  0  0
    5.7638   69.9852   63.1429 H   0  0  0  0  0  0  0  0  0  0  0  0
    5.4085   69.3763   65.5634 H   0  0  0  0  0  0  0  0  0  0  0  0
    5.9821   68.4146   60.9062 H   0  0  0  0  0  0  0  0  0  0  0  0
    5.3895   63.9929   64.0948 H   0  0  0  0  0  0  0  0  0  0  0  0
    4.5981   61.7794   64.3955 H   0  0  0  0  0  0  0  0  0  0  0  0
    2.9500   62.4683   64.5842 H   0  0  0  0  0  0  0  0  0  0  0  0
    4.2228   62.8394   65.7962 H   0  0  0  0  0  0  0  0  0  0  0  0
    4.4249   64.0747   61.9083 H   0  0  0  0  0  0  0  0  0  0  0  0
    3.1047   63.0281   62.5315 H   0  0  0  0  0  0  0  0  0  0  0  0
    4.7870   62.4028   62.4561 H   0  0  0  0  0  0  0  0  0  0  0  0
    2.6953   65.0176   63.8189 H   0  0  0  0  0  0  0  0  0  0  0  0
    2.4664   65.6979   66.0940 H   0  0  0  0  0  0  0  0  0  0  0  0
    3.8553   64.6326   66.4973 H   0  0  0  0  0  0  0  0  0  0  0  0
    4.5940   67.3870   65.1590 C   0  0  0  0  0  0  0  0  0  0  0  0
    4.4330   66.8070   62.8020 C   0  0  0  0  0  0  0  0  0  0  0  0
    4.9620   68.0540   62.4570 C   0  0  0  0  0  0  0  0  0  0  0  0
    5.3440   69.0270   63.4270 C   0  0  0  0  0  0  0  0  0  0  0  0
    5.1430   68.6690   64.7860 C   0  0  0  0  0  0  0  0  0  0  0  0
    5.0720   68.2550   61.1270 O   0  0  0  0  0  0  0  0  0  0  0  0
    4.4100   63.7850   63.9790 N   0  3  0  0  0  0  0  0  0  0  0  0
    4.0240   62.6560   64.7300 C   0  0  0  0  0  0  0  0  0  0  0  0
    4.1670   63.2930   62.6380 C   0  0  0  0  0  0  0  0  0  0  0  0
    3.5870   65.0270   64.4630 C   0  0  1  0  0  0  0  0  0  0  0  0
    3.0370   64.8100   65.7840 C   0  0  0  0  0  0  0  0  0  0  0  0
    4.2290   66.4230   64.1260 C   0  0  0  0  0  0  0  0  0  0  0  0
    2.3712   63.9346   65.7647 H   0  0  0  0  0  0  0  0  0  0  0  0
 16  1  1  0  0  0  0
 16 20  2  0  0  0  0
 17  2  1  0  0  0  0
 17 18  1  0  0  0  0
 18 19  2  0  0  0  0
 18 21  1  0  0  0  0
 19  3  1  0  0  0  0
 20  4  1  0  0  0  0
 20 19  1  0  0  0  0
 21  5  1  0  0  0  0
 22  6  1  0  0  0  0
 22 23  1  0  0  0  0
 22 24  1  0  0  0  0
 23  7  1  0  0  0  0
 23  8  1  0  0  0  0
 23  9  1  0  0  0  0
 24 10  1  0  0  0  0
 24 11  1  0  0  0  0
 24 12  1  0  0  0  0
 25 13  1  6  0  0  0
 25 22  1  0  0  0  0
 25 26  1  0  0  0  0
 26 14  1  0  0  0  0
 26 15  1  0  0  0  0
 26 28  1  0  0  0  0
 27 16  1  0  0  0  0
 27 17  2  0  0  0  0
 27 25  1  0  0  0  0
M  CHG  1  22   1
M  END
