1gsz_ligand
 OpenBabel08222323343D

 56 57  0  0  1  0  0  0  0  0999 V2000
   68.8470   72.7280   71.6980 C   0  0  0  0  0  0  0  0  0  0  0  0
   68.2980   71.3300   71.3830 C   0  0  0  0  0  0  0  0  0  0  0  0
   68.8730   70.3020   72.0110 O   0  0  0  0  0  0  0  0  0  0  0  0
   67.1500   71.0160   70.4170 C   0  0  0  0  0  0  0  0  0  0  0  0
   66.2770   69.8740   70.5730 C   0  0  0  0  0  0  0  0  0  0  0  0
   66.4160   69.0130   71.5790 F   0  0  0  0  0  0  0  0  0  0  0  0
   65.2380   69.6410   69.6400 C   0  0  0  0  0  0  0  0  0  0  0  0
   65.0400   70.5240   68.5470 C   0  0  0  0  0  0  0  0  0  0  0  0
   64.0150   70.2850   67.6440 O   0  0  0  0  0  0  0  0  0  0  0  0
   64.3350   69.4070   66.5670 C   0  0  0  0  0  0  0  0  0  0  0  0
   63.1820   69.4280   65.5630 C   0  0  0  0  0  0  0  0  0  0  0  0
   63.2180   70.7640   64.8040 C   0  0  0  0  0  0  0  0  0  0  0  0
   63.9320   70.5690   63.4590 C   0  0  0  0  0  0  0  0  0  0  0  0
   62.9600   69.9330   62.4620 C   0  0  0  0  0  0  0  0  0  0  0  0
   62.1340   71.0350   61.7900 C   0  0  0  0  0  0  0  0  0  0  0  0
   62.6720   71.3680   60.4710 N   0  3  2  0  0  0  0  0  0  0  0  0
   62.9220   72.8100   60.3860 C   0  0  0  0  0  0  0  0  0  0  0  0
   61.7140   70.9600   59.4190 C   0  0  0  0  0  0  0  0  0  0  0  0
   61.8200   69.5030   59.0230 C   0  0  0  0  0  0  0  0  0  0  0  0
   62.9840   68.9610   58.6510 C   0  0  0  0  0  0  0  0  0  0  0  0
   65.8920   71.6460   68.3920 C   0  0  0  0  0  0  0  0  0  0  0  0
   66.9320   71.8870   69.3160 C   0  0  0  0  0  0  0  0  0  0  0  0
   70.2580   72.9100   71.6960 C   0  0  0  0  0  0  0  0  0  0  0  0
   70.8300   74.1720   71.9960 C   0  0  0  0  0  0  0  0  0  0  0  0
   70.0010   75.2760   72.3040 C   0  0  0  0  0  0  0  0  0  0  0  0
   70.7820   76.9130   72.7140 Br  0  0  0  0  0  0  0  0  0  0  0  0
   68.5790   75.1180   72.3090 C   0  0  0  0  0  0  0  0  0  0  0  0
   68.0040   73.8470   72.0070 C   0  0  0  0  0  0  0  0  0  0  0  0
   64.5888   68.7815   69.7615 H   0  0  0  0  0  0  0  0  0  0  0  0
   64.4743   68.3854   66.9503 H   0  0  0  0  0  0  0  0  0  0  0  0
   65.2601   69.7439   66.0763 H   0  0  0  0  0  0  0  0  0  0  0  0
   62.2246   69.3301   66.0958 H   0  0  0  0  0  0  0  0  0  0  0  0
   63.2934   68.5952   64.8530 H   0  0  0  0  0  0  0  0  0  0  0  0
   63.7603   71.5111   65.4021 H   0  0  0  0  0  0  0  0  0  0  0  0
   62.1900   71.1126   64.6262 H   0  0  0  0  0  0  0  0  0  0  0  0
   64.8020   69.9101   63.5962 H   0  0  0  0  0  0  0  0  0  0  0  0
   64.2672   71.5439   63.0754 H   0  0  0  0  0  0  0  0  0  0  0  0
   62.2886   69.2419   62.9926 H   0  0  0  0  0  0  0  0  0  0  0  0
   63.5261   69.3800   61.6980 H   0  0  0  0  0  0  0  0  0  0  0  0
   62.1530   71.9344   62.4229 H   0  0  0  0  0  0  0  0  0  0  0  0
   61.0964   70.6878   61.6772 H   0  0  0  0  0  0  0  0  0  0  0  0
   63.5403   70.8744   60.3350 H   0  0  0  0  0  0  0  0  0  0  0  0
   63.3262   73.0541   59.3925 H   0  0  0  0  0  0  0  0  0  0  0  0
   63.6478   73.1025   61.1591 H   0  0  0  0  0  0  0  0  0  0  0  0
   61.9797   73.3554   60.5425 H   0  0  0  0  0  0  0  0  0  0  0  0
   61.8976   71.5756   58.5261 H   0  0  0  0  0  0  0  0  0  0  0  0
   60.6946   71.1449   59.7886 H   0  0  0  0  0  0  0  0  0  0  0  0
   60.9263   68.8811   59.0416 H   0  0  0  0  0  0  0  0  0  0  0  0
   63.0303   67.9096   58.3713 H   0  0  0  0  0  0  0  0  0  0  0  0
   63.8859   69.5709   58.6277 H   0  0  0  0  0  0  0  0  0  0  0  0
   65.7442   72.3234   67.5587 H   0  0  0  0  0  0  0  0  0  0  0  0
   67.5742   72.7501   69.1833 H   0  0  0  0  0  0  0  0  0  0  0  0
   70.9047   72.0721   71.4618 H   0  0  0  0  0  0  0  0  0  0  0  0
   71.9074   74.2915   71.9893 H   0  0  0  0  0  0  0  0  0  0  0  0
   67.9396   75.9619   72.5417 H   0  0  0  0  0  0  0  0  0  0  0  0
   66.9267   73.7268   72.0111 H   0  0  0  0  0  0  0  0  0  0  0  0
  1  2  1  0  0  0  0
  1 23  2  0  0  0  0
  1 28  1  0  0  0  0
  2  3  2  0  0  0  0
  2  4  1  0  0  0  0
  4  5  2  0  0  0  0
  4 22  1  0  0  0  0
  5  6  1  0  0  0  0
  5  7  1  0  0  0  0
  7  8  2  0  0  0  0
  7 29  1  0  0  0  0
  8  9  1  0  0  0  0
  8 21  1  0  0  0  0
  9 10  1  0  0  0  0
 10 11  1  0  0  0  0
 10 30  1  0  0  0  0
 10 31  1  0  0  0  0
 11 12  1  0  0  0  0
 11 32  1  0  0  0  0
 11 33  1  0  0  0  0
 12 13  1  0  0  0  0
 12 34  1  0  0  0  0
 12 35  1  0  0  0  0
 13 14  1  0  0  0  0
 13 36  1  0  0  0  0
 13 37  1  0  0  0  0
 14 15  1  0  0  0  0
 14 38  1  0  0  0  0
 14 39  1  0  0  0  0
 15 16  1  0  0  0  0
 15 40  1  0  0  0  0
 15 41  1  0  0  0  0
 16 17  1  0  0  0  0
 16 18  1  0  0  0  0
 16 42  1  6  0  0  0
 17 43  1  0  0  0  0
 17 44  1  0  0  0  0
 17 45  1  0  0  0  0
 18 19  1  0  0  0  0
 18 46  1  0  0  0  0
 18 47  1  0  0  0  0
 19 20  2  0  0  0  0
 19 48  1  0  0  0  0
 20 49  1  0  0  0  0
 20 50  1  0  0  0  0
 21 22  2  0  0  0  0
 21 51  1  0  0  0  0
 22 52  1  0  0  0  0
 23 24  1  0  0  0  0
 23 53  1  0  0  0  0
 24 25  2  0  0  0  0
 24 54  1  0  0  0  0
 25 26  1  0  0  0  0
 25 27  1  0  0  0  0
 27 28  2  0  0  0  0
 27 55  1  0  0  0  0
 28 56  1  0  0  0  0
M  CHG  1  16   1
M  END
