1gu3_ligand
 OpenBabel08222323343D

108112  0  0  1  0  0  0  0  0999 V2000
  -10.9960   33.3410   27.0270 C   0  0  2  0  0  0  0  0  0  0  0  0
  -12.0380   32.5920   26.1870 C   0  0  2  0  0  0  0  0  0  0  0  0
  -11.4940   31.2460   25.6530 C   0  0  1  0  0  0  0  0  0  0  0  0
  -10.7080   30.4530   26.7180 C   0  0  1  0  0  0  0  0  0  0  0  0
   -9.9570   29.2910   26.0640 C   0  0  0  0  0  0  0  0  0  0  0  0
  -10.4670   32.3720   28.0840 C   0  0  2  0  0  0  0  0  0  0  0  0
   -9.5620   33.0310   28.9450 O   0  0  0  0  0  0  0  0  0  0  0  0
  -11.6040   34.4340   27.6620 O   0  0  0  0  0  0  0  0  0  0  0  0
  -12.5950   33.3870   25.1410 O   0  0  0  0  0  0  0  0  0  0  0  0
  -12.5660   30.4710   25.1490 O   0  0  0  0  0  0  0  0  0  0  0  0
   -9.8080   31.2900   27.4520 O   0  0  0  0  0  0  0  0  0  0  0  0
   -9.9680   28.1570   26.8950 O   0  0  0  0  0  0  0  0  0  0  0  0
  -13.3270   29.1170   23.2060 C   0  0  2  0  0  0  0  0  0  0  0  0
  -13.5360   29.0460   21.6800 C   0  0  2  0  0  0  0  0  0  0  0  0
  -13.9470   30.3870   21.0950 C   0  0  1  0  0  0  0  0  0  0  0  0
  -12.9580   31.4230   21.6270 C   0  0  1  0  0  0  0  0  0  0  0  0
  -13.2620   32.8240   21.0840 C   0  0  0  0  0  0  0  0  0  0  0  0
  -12.4910   30.3070   23.6880 C   0  0  1  0  0  0  0  0  0  0  0  0
  -12.7300   27.9100   23.6160 O   0  0  0  0  0  0  0  0  0  0  0  0
  -14.6080   28.1790   21.4200 O   0  0  0  0  0  0  0  0  0  0  0  0
  -13.8420   30.3240   19.6900 O   0  0  0  0  0  0  0  0  0  0  0  0
  -13.0000   31.4330   23.0500 O   0  0  0  0  0  0  0  0  0  0  0  0
  -14.4770   33.3490   21.6200 O   0  0  0  0  0  0  0  0  0  0  0  0
  -15.0420   30.5070   17.6190 C   0  0  2  0  0  0  0  0  0  0  0  0
  -16.3110   30.0590   16.9010 C   0  0  2  0  0  0  0  0  0  0  0  0
  -16.5480   28.5510   17.0020 C   0  0  1  0  0  0  0  0  0  0  0  0
  -16.3860   28.0520   18.4250 C   0  0  1  0  0  0  0  0  0  0  0  0
  -16.5820   26.5340   18.4690 C   0  0  0  0  0  0  0  0  0  0  0  0
  -15.0030   29.8550   18.9980 C   0  0  1  0  0  0  0  0  0  0  0  0
  -14.9790   31.9060   17.7410 O   0  0  0  0  0  0  0  0  0  0  0  0
  -16.1750   30.3290   15.5310 O   0  0  0  0  0  0  0  0  0  0  0  0
  -17.8490   28.2170   16.6030 O   0  0  0  0  0  0  0  0  0  0  0  0
  -15.0750   28.4420   18.8540 O   0  0  0  0  0  0  0  0  0  0  0  0
  -15.7150   25.9250   17.5310 O   0  0  0  0  0  0  0  0  0  0  0  0
  -19.5640   27.3320   15.1450 C   0  0  2  0  0  0  0  0  0  0  0  0
  -19.8570   26.7400   13.7590 C   0  0  2  0  0  0  0  0  0  0  0  0
  -19.1330   27.5110   12.6330 C   0  0  1  0  0  0  0  0  0  0  0  0
  -17.6540   27.6530   13.0130 C   0  0  1  0  0  0  0  0  0  0  0  0
  -16.8880   28.4880   11.9980 C   0  0  0  0  0  0  0  0  0  0  0  0
  -18.0590   27.5650   15.3340 C   0  0  1  0  0  0  0  0  0  0  0  0
  -20.0690   26.4240   16.0940 O   0  0  0  0  0  0  0  0  0  0  0  0
  -21.2630   26.6550   13.5890 O   0  0  0  0  0  0  0  0  0  0  0  0
  -19.2400   26.7780   11.4220 O   0  0  0  0  0  0  0  0  0  0  0  0
  -17.5660   28.3120   14.2560 O   0  0  0  0  0  0  0  0  0  0  0  0
  -17.5820   29.7320   11.8350 O   0  0  0  0  0  0  0  0  0  0  0  0
  -19.3360   26.6400    9.1150 C   0  0  2  0  0  0  0  0  0  0  0  0
  -19.7200   27.3990    7.8430 C   0  0  2  0  0  0  0  0  0  0  0  0
  -21.1550   27.9760    7.9630 C   0  0  1  0  0  0  0  0  0  0  0  0
  -21.4030   28.7540    9.2680 C   0  0  1  0  0  0  0  0  0  0  0  0
  -22.8760   28.9970    9.5430 C   0  0  0  0  0  0  0  0  0  0  0  0
  -19.6090   27.5500   10.2910 C   0  0  1  0  0  0  0  0  0  0  0  0
  -17.9830   26.2070    9.1510 O   0  0  0  0  0  0  0  0  0  0  0  0
  -19.5360   26.5260    6.7280 O   0  0  0  0  0  0  0  0  0  0  0  0
  -21.4030   28.6920    6.7960 O   0  0  0  0  0  0  0  0  0  0  0  0
  -20.9680   27.9110   10.3330 O   0  0  0  0  0  0  0  0  0  0  0  0
  -23.6220   27.7990    9.4610 O   0  0  0  0  0  0  0  0  0  0  0  0
  -10.1731   33.6914   26.3867 H   0  0  0  0  0  0  0  0  0  0  0  0
  -12.8673   32.3489   26.8676 H   0  0  0  0  0  0  0  0  0  0  0  0
  -10.8053   31.4651   24.8238 H   0  0  0  0  0  0  0  0  0  0  0  0
  -11.4334   30.0337   27.4307 H   0  0  0  0  0  0  0  0  0  0  0  0
   -8.9154   29.5930   25.8803 H   0  0  0  0  0  0  0  0  0  0  0  0
  -10.4406   29.0418   25.1080 H   0  0  0  0  0  0  0  0  0  0  0  0
  -11.3119   31.9877   28.6743 H   0  0  0  0  0  0  0  0  0  0  0  0
   -9.2501   32.4201   29.6023 H   0  0  0  0  0  0  0  0  0  0  0  0
  -10.9654   34.8767   28.2085 H   0  0  0  0  0  0  0  0  0  0  0  0
  -13.3111   32.9147   24.7329 H   0  0  0  0  0  0  0  0  0  0  0  0
   -9.4973   27.4498   26.4700 H   0  0  0  0  0  0  0  0  0  0  0  0
  -14.3175   29.1996   23.6772 H   0  0  0  0  0  0  0  0  0  0  0  0
  -12.6147   28.6879   21.1974 H   0  0  0  0  0  0  0  0  0  0  0  0
  -14.9753   30.6430   21.3899 H   0  0  0  0  0  0  0  0  0  0  0  0
  -11.9460   31.1375   21.3040 H   0  0  0  0  0  0  0  0  0  0  0  0
  -13.3502   32.7699   19.9889 H   0  0  0  0  0  0  0  0  0  0  0  0
  -12.4345   33.4971   21.3524 H   0  0  0  0  0  0  0  0  0  0  0  0
  -11.4395   30.1584   23.4011 H   0  0  0  0  0  0  0  0  0  0  0  0
  -13.2554   27.1790   23.3125 H   0  0  0  0  0  0  0  0  0  0  0  0
  -14.7466   28.1210   20.4820 H   0  0  0  0  0  0  0  0  0  0  0  0
  -14.6316   34.2152   21.2619 H   0  0  0  0  0  0  0  0  0  0  0  0
  -14.1707   30.1696   17.0386 H   0  0  0  0  0  0  0  0  0  0  0  0
  -17.1727   30.6003   17.3187 H   0  0  0  0  0  0  0  0  0  0  0  0
  -15.8228   28.0397   16.3519 H   0  0  0  0  0  0  0  0  0  0  0  0
  -17.1377   28.5247   19.0743 H   0  0  0  0  0  0  0  0  0  0  0  0
  -17.6249   26.2903   18.2180 H   0  0  0  0  0  0  0  0  0  0  0  0
  -16.3513   26.1624   19.4783 H   0  0  0  0  0  0  0  0  0  0  0  0
  -15.8869   30.1770   19.5681 H   0  0  0  0  0  0  0  0  0  0  0  0
  -14.1708   32.1486   18.1773 H   0  0  0  0  0  0  0  0  0  0  0  0
  -16.9697   30.0720   15.0783 H   0  0  0  0  0  0  0  0  0  0  0  0
  -14.8151   26.1371   17.7491 H   0  0  0  0  0  0  0  0  0  0  0  0
  -20.0838   28.2957   15.2498 H   0  0  0  0  0  0  0  0  0  0  0  0
  -19.4623   25.7134   13.7430 H   0  0  0  0  0  0  0  0  0  0  0  0
  -19.5853   28.5058   12.5077 H   0  0  0  0  0  0  0  0  0  0  0  0
  -17.2004   26.6533   13.0826 H   0  0  0  0  0  0  0  0  0  0  0  0
  -16.8424   27.9570   11.0358 H   0  0  0  0  0  0  0  0  0  0  0  0
  -15.8671   28.6749   12.3624 H   0  0  0  0  0  0  0  0  0  0  0  0
  -17.5417   26.5944   15.3495 H   0  0  0  0  0  0  0  0  0  0  0  0
  -21.0001   26.3022   15.9499 H   0  0  0  0  0  0  0  0  0  0  0  0
  -21.4558   26.2076   12.7735 H   0  0  0  0  0  0  0  0  0  0  0  0
  -17.1198   30.2708   11.2037 H   0  0  0  0  0  0  0  0  0  0  0  0
  -19.9770   25.7493    9.1910 H   0  0  0  0  0  0  0  0  0  0  0  0
  -19.0327   28.2493    7.7223 H   0  0  0  0  0  0  0  0  0  0  0  0
  -21.8535   27.1264    7.9797 H   0  0  0  0  0  0  0  0  0  0  0  0
  -20.8530   29.7065    9.2507 H   0  0  0  0  0  0  0  0  0  0  0  0
  -23.2648   29.7117    8.8028 H   0  0  0  0  0  0  0  0  0  0  0  0
  -22.9865   29.4186   10.5530 H   0  0  0  0  0  0  0  0  0  0  0  0
  -18.9943   28.4601   10.2289 H   0  0  0  0  0  0  0  0  0  0  0  0
  -17.8243   25.7346    9.9598 H   0  0  0  0  0  0  0  0  0  0  0  0
  -19.7168   26.9986    5.9240 H   0  0  0  0  0  0  0  0  0  0  0  0
  -20.8398   29.4566    6.7692 H   0  0  0  0  0  0  0  0  0  0  0  0
  -23.2941   27.1786   10.1013 H   0  0  0  0  0  0  0  0  0  0  0  0
  1  6  1  0  0  0  0
  1  8  1  0  0  0  0
  1 57  1  6  0  0  0
  2  1  1  0  0  0  0
  2  9  1  0  0  0  0
  2 58  1  1  0  0  0
  3  2  1  0  0  0  0
  3  4  1  0  0  0  0
  3 59  1  6  0  0  0
  4  5  1  0  0  0  0
  4 11  1  0  0  0  0
  4 60  1  1  0  0  0
  5 12  1  0  0  0  0
  5 61  1  0  0  0  0
  5 62  1  0  0  0  0
  6  7  1  0  0  0  0
  6 63  1  1  0  0  0
  7 64  1  0  0  0  0
  8 65  1  0  0  0  0
  9 66  1  0  0  0  0
 10  3  1  0  0  0  0
 11  6  1  0  0  0  0
 12 67  1  0  0  0  0
 13 18  1  0  0  0  0
 13 19  1  0  0  0  0
 13 68  1  1  0  0  0
 14 13  1  0  0  0  0
 14 20  1  0  0  0  0
 14 69  1  6  0  0  0
 15 14  1  0  0  0  0
 15 16  1  0  0  0  0
 15 70  1  1  0  0  0
 16 17  1  0  0  0  0
 16 22  1  0  0  0  0
 16 71  1  6  0  0  0
 17 23  1  0  0  0  0
 17 72  1  0  0  0  0
 17 73  1  0  0  0  0
 18 10  1  0  0  0  0
 18 74  1  6  0  0  0
 19 75  1  0  0  0  0
 20 76  1  0  0  0  0
 21 15  1  0  0  0  0
 22 18  1  0  0  0  0
 23 77  1  0  0  0  0
 24 29  1  0  0  0  0
 24 30  1  0  0  0  0
 24 78  1  6  0  0  0
 25 24  1  0  0  0  0
 25 31  1  0  0  0  0
 25 79  1  1  0  0  0
 26 25  1  0  0  0  0
 26 27  1  0  0  0  0
 26 80  1  6  0  0  0
 27 28  1  0  0  0  0
 27 33  1  0  0  0  0
 27 81  1  1  0  0  0
 28 34  1  0  0  0  0
 28 82  1  0  0  0  0
 28 83  1  0  0  0  0
 29 21  1  0  0  0  0
 29 84  1  1  0  0  0
 30 85  1  0  0  0  0
 31 86  1  0  0  0  0
 32 26  1  0  0  0  0
 33 29  1  0  0  0  0
 34 87  1  0  0  0  0
 35 40  1  0  0  0  0
 35 41  1  0  0  0  0
 35 88  1  1  0  0  0
 36 35  1  0  0  0  0
 36 42  1  0  0  0  0
 36 89  1  6  0  0  0
 37 36  1  0  0  0  0
 37 38  1  0  0  0  0
 37 90  1  6  0  0  0
 38 39  1  0  0  0  0
 38 44  1  0  0  0  0
 38 91  1  1  0  0  0
 39 45  1  0  0  0  0
 39 92  1  0  0  0  0
 39 93  1  0  0  0  0
 40 32  1  0  0  0  0
 40 94  1  1  0  0  0
 41 95  1  0  0  0  0
 42 96  1  0  0  0  0
 43 37  1  0  0  0  0
 44 40  1  0  0  0  0
 45 97  1  0  0  0  0
 46 47  1  0  0  0  0
 46 51  1  0  0  0  0
 46 52  1  0  0  0  0
 46 98  1  1  0  0  0
 47 48  1  0  0  0  0
 47 53  1  0  0  0  0
 47 99  1  6  0  0  0
 48 49  1  0  0  0  0
 48 54  1  0  0  0  0
 48100  1  1  0  0  0
 49 50  1  0  0  0  0
 49 55  1  0  0  0  0
 49101  1  1  0  0  0
 50 56  1  0  0  0  0
 50102  1  0  0  0  0
 50103  1  0  0  0  0
 51 43  1  0  0  0  0
 51 55  1  0  0  0  0
 51104  1  6  0  0  0
 52105  1  0  0  0  0
 53106  1  0  0  0  0
 54107  1  0  0  0  0
 56108  1  0  0  0  0
M  END
