1gwq_ligand
 OpenBabel08222323343D

157157  0  0  1  0  0  0  0  0999 V2000
    4.4240   22.9290   18.1040 N   0  3  0  0  0  0  0  0  0  0  0  0
    4.7420   24.3570   18.4090 C   0  0  2  0  0  0  0  0  0  0  0  0
    5.2610   24.5480   19.8250 C   0  0  0  0  0  0  0  0  0  0  0  0
    6.2130   25.3130   20.0210 O   0  0  0  0  0  0  0  0  0  0  0  0
    3.5530   25.2650   18.1140 C   0  0  0  0  0  0  0  0  0  0  0  0
    4.7180   23.8730   20.8440 N   0  0  0  0  0  0  0  0  0  0  0  0
    5.2350   24.0350   22.2070 C   0  0  2  0  0  0  0  0  0  0  0  0
    6.7340   23.7690   22.2820 C   0  0  0  0  0  0  0  0  0  0  0  0
    7.5030   24.5370   22.8720 O   0  0  0  0  0  0  0  0  0  0  0  0
    4.5280   23.1440   23.2290 C   0  0  2  0  0  0  0  0  0  0  0  0
    3.0480   23.5520   23.2470 C   0  0  0  0  0  0  0  0  0  0  0  0
    5.1550   23.2900   24.6140 C   0  0  0  0  0  0  0  0  0  0  0  0
    2.1150   22.4690   23.7440 C   0  0  0  0  0  0  0  0  0  0  0  0
    7.1530   22.6780   21.6590 N   0  0  0  0  0  0  0  0  0  0  0  0
    8.5420   22.2670   21.5930 C   0  0  2  0  0  0  0  0  0  0  0  0
    9.4220   23.4060   21.1000 C   0  0  0  0  0  0  0  0  0  0  0  0
   10.4640   23.7220   21.6570 O   0  0  0  0  0  0  0  0  0  0  0  0
    8.6910   21.0790   20.6410 C   0  0  0  0  0  0  0  0  0  0  0  0
    9.6040   19.9440   21.0890 C   0  0  0  0  0  0  0  0  0  0  0  0
    9.6360   18.8790   19.9920 C   0  0  0  0  0  0  0  0  0  0  0  0
   10.9940   20.4230   21.4520 C   0  0  0  0  0  0  0  0  0  0  0  0
    8.9510   24.0160   20.0310 N   0  0  0  0  0  0  0  0  0  0  0  0
    9.5360   25.1610   19.3570 C   0  0  2  0  0  0  0  0  0  0  0  0
    9.6680   26.3640   20.2820 C   0  0  0  0  0  0  0  0  0  0  0  0
   10.6890   27.0420   20.3010 O   0  0  0  0  0  0  0  0  0  0  0  0
    8.6020   25.5400   18.1930 C   0  0  0  0  0  0  0  0  0  0  0  0
    9.4160   26.0850   17.0640 C   0  0  0  0  0  0  0  0  0  0  0  0
    9.9720   25.2160   16.1520 N   0  0  0  0  0  0  0  0  0  0  0  0
    9.7720   27.3380   16.7050 C   0  0  0  0  0  0  0  0  0  0  0  0
   10.6470   25.9230   15.2590 C   0  0  0  0  0  0  0  0  0  0  0  0
   10.5400   27.2150   15.5670 N   0  0  0  0  0  0  0  0  0  0  0  0
    8.6350   26.6210   21.0700 N   0  0  0  0  0  0  0  0  0  0  0  0
    8.6610   27.7110   22.0240 C   0  0  2  0  0  0  0  0  0  0  0  0
    9.7790   27.4330   23.0280 C   0  0  0  0  0  0  0  0  0  0  0  0
   10.6640   28.2410   23.2620 O   0  0  0  0  0  0  0  0  0  0  0  0
    7.3500   27.8820   22.8220 C   0  0  0  0  0  0  0  0  0  0  0  0
    7.1480   29.2320   23.4840 C   0  0  0  0  0  0  0  0  0  0  0  0
    6.4680   29.2000   24.8450 C   0  0  0  0  0  0  0  0  0  0  0  0
    5.3110   28.3260   24.9340 N   0  0  0  0  0  0  0  0  0  0  0  0
    4.8930   27.5460   25.9180 C   0  0  0  0  0  3  0  0  0  0  0  0
    5.4970   27.4190   27.0990 N   0  0  0  0  0  0  0  0  0  0  0  0
    3.7910   26.8190   25.7480 N   0  0  0  0  0  0  0  0  0  0  0  0
    9.6930   26.2490   23.6390 N   0  0  0  0  0  0  0  0  0  0  0  0
   10.6640   25.8840   24.6840 C   0  0  2  0  0  0  0  0  0  0  0  0
   12.0880   25.8610   24.2060 C   0  0  0  0  0  0  0  0  0  0  0  0
   12.9610   26.2190   24.9960 O   0  0  0  0  0  0  0  0  0  0  0  0
   10.2270   24.5790   25.3470 C   0  0  0  0  0  0  0  0  0  0  0  0
    8.7980   24.6990   25.9050 C   0  0  0  0  0  0  0  0  0  0  0  0
    8.2260   23.3680   26.3290 C   0  0  0  0  0  0  0  0  0  0  0  0
    8.7440   25.7050   27.0540 C   0  0  0  0  0  0  0  0  0  0  0  0
   12.3370   25.4890   22.9580 N   0  0  0  0  0  0  0  0  0  0  0  0
   13.6940   25.4700   22.4390 C   0  0  2  0  0  0  0  0  0  0  0  0
   14.2610   26.8580   22.1880 C   0  0  0  0  0  0  0  0  0  0  0  0
   15.4870   27.0120   22.2550 O   0  0  0  0  0  0  0  0  0  0  0  0
   13.7550   24.6090   21.1770 C   0  0  0  0  0  0  0  0  0  0  0  0
   13.7050   23.1000   21.4170 C   0  0  0  0  0  0  0  0  0  0  0  0
   13.4430   22.3220   20.1390 C   0  0  0  0  0  0  0  0  0  0  0  0
   15.0060   22.6390   22.0520 C   0  0  0  0  0  0  0  0  0  0  0  0
   13.4240   27.8580   21.9310 N   0  0  0  0  0  0  0  0  0  0  0  0
   13.8830   29.2210   21.6960 C   0  0  2  0  0  0  0  0  0  0  0  0
   13.9560   30.0590   22.9740 C   0  0  0  0  0  0  0  0  0  0  0  0
   14.5810   31.1230   22.9550 O   0  0  0  0  0  0  0  0  0  0  0  0
   12.9830   29.9970   20.7390 C   0  0  0  0  0  0  0  0  0  0  0  0
   13.2100   29.7470   19.2600 C   0  0  0  0  0  0  0  0  0  0  0  0
   12.0990   30.4250   18.4770 C   0  0  0  0  0  0  0  0  0  0  0  0
   11.1940   29.7540   17.9850 O   0  0  0  0  0  0  0  0  0  0  0  0
   12.2170   31.7490   18.4140 N   0  0  0  0  0  0  0  0  0  0  0  0
   13.3190   29.5610   24.0280 N   0  0  0  0  0  0  0  0  0  0  0  0
   13.2950   30.2960   25.2900 C   0  0  2  0  0  0  0  0  0  0  0  0
   13.8130   29.4920   26.4840 C   0  0  0  0  0  0  0  0  0  0  0  0
   14.9890   29.7180   26.8760 O   0  5  0  0  0  0  0  0  0  0  0  0
   11.8510   30.7560   25.5500 C   0  0  0  0  0  0  0  0  0  0  0  0
   12.9190   29.0080   27.2400 O   0  0  0  0  0  0  0  0  0  0  0  0
    4.0851   22.8550   17.1576 H   0  0  0  0  0  0  0  0  0  0  0  0
    3.7161   22.5989   18.7411 H   0  0  0  0  0  0  0  0  0  0  0  0
    5.2563   22.3699   18.2075 H   0  0  0  0  0  0  0  0  0  0  0  0
    5.5533   24.6567   17.7293 H   0  0  0  0  0  0  0  0  0  0  0  0
    3.8196   26.3061   18.3486 H   0  0  0  0  0  0  0  0  0  0  0  0
    2.6954   24.9583   18.7308 H   0  0  0  0  0  0  0  0  0  0  0  0
    3.2862   25.1858   17.0498 H   0  0  0  0  0  0  0  0  0  0  0  0
    3.9525   23.2522   20.6751 H   0  0  0  0  0  0  0  0  0  0  0  0
    5.0605   25.0816   22.4972 H   0  0  0  0  0  0  0  0  0  0  0  0
    4.6121   22.0931   22.9153 H   0  0  0  0  0  0  0  0  0  0  0  0
    2.7511   23.8204   22.2224 H   0  0  0  0  0  0  0  0  0  0  0  0
    2.9393   24.4290   23.9020 H   0  0  0  0  0  0  0  0  0  0  0  0
    6.2128   22.9915   24.5709 H   0  0  0  0  0  0  0  0  0  0  0  0
    4.6210   22.6458   25.3280 H   0  0  0  0  0  0  0  0  0  0  0  0
    5.0828   24.3379   24.9406 H   0  0  0  0  0  0  0  0  0  0  0  0
    1.0797   22.8401   23.7255 H   0  0  0  0  0  0  0  0  0  0  0  0
    2.3876   22.1942   24.7736 H   0  0  0  0  0  0  0  0  0  0  0  0
    2.1994   21.5856   23.0941 H   0  0  0  0  0  0  0  0  0  0  0  0
    6.4707   22.1033   21.2071 H   0  0  0  0  0  0  0  0  0  0  0  0
    8.8718   21.9684   22.5990 H   0  0  0  0  0  0  0  0  0  0  0  0
    9.0835   21.4643   19.6884 H   0  0  0  0  0  0  0  0  0  0  0  0
    7.6889   20.6549   20.4801 H   0  0  0  0  0  0  0  0  0  0  0  0
    9.1666   19.4925   21.9916 H   0  0  0  0  0  0  0  0  0  0  0  0
   10.2922   18.0525   20.3024 H   0  0  0  0  0  0  0  0  0  0  0  0
   10.0201   19.3224   19.0615 H   0  0  0  0  0  0  0  0  0  0  0  0
    8.6188   18.4959   19.8231 H   0  0  0  0  0  0  0  0  0  0  0  0
   10.9244   21.1855   22.2418 H   0  0  0  0  0  0  0  0  0  0  0  0
   11.4756   20.8580   20.5638 H   0  0  0  0  0  0  0  0  0  0  0  0
   11.5917   19.5735   21.8142 H   0  0  0  0  0  0  0  0  0  0  0  0
    8.1033   23.6528   19.6443 H   0  0  0  0  0  0  0  0  0  0  0  0
   10.5300   24.8898   18.9718 H   0  0  0  0  0  0  0  0  0  0  0  0
    7.8849   26.3027   18.5306 H   0  0  0  0  0  0  0  0  0  0  0  0
    8.0556   24.6473   17.8546 H   0  0  0  0  0  0  0  0  0  0  0  0
    9.8786   24.1903   16.1627 H   0  0  0  0  0  0  0  0  0  0  0  0
    9.5048   28.2627   17.2143 H   0  0  0  0  0  0  0  0  0  0  0  0
   11.1984   25.5160   14.4127 H   0  0  0  0  0  0  0  0  0  0  0  0
    7.8174   26.0489   21.0049 H   0  0  0  0  0  0  0  0  0  0  0  0
    8.8679   28.6459   21.4825 H   0  0  0  0  0  0  0  0  0  0  0  0
    7.3325   27.1145   23.6098 H   0  0  0  0  0  0  0  0  0  0  0  0
    6.5106   27.7169   22.1305 H   0  0  0  0  0  0  0  0  0  0  0  0
    6.5334   29.8499   22.8128 H   0  0  0  0  0  0  0  0  0  0  0  0
    8.1361   29.6988   23.6100 H   0  0  0  0  0  0  0  0  0  0  0  0
    6.1425   30.2223   25.0878 H   0  0  0  0  0  0  0  0  0  0  0  0
    7.2068   28.8643   25.5876 H   0  0  0  0  0  0  0  0  0  0  0  0
    4.7179   28.3109   24.0920 H   0  0  0  0  0  0  0  0  0  0  0  0
    5.1050   26.7883   27.8127 H   0  0  0  0  0  0  0  0  0  0  0  0
    6.3558   27.9516   27.2981 H   0  0  0  0  0  0  0  0  0  0  0  0
    3.2734   26.8685   24.8588 H   0  0  0  0  0  0  0  0  0  0  0  0
    3.4558   26.2070   26.5056 H   0  0  0  0  0  0  0  0  0  0  0  0
    8.9676   25.6087   23.3864 H   0  0  0  0  0  0  0  0  0  0  0  0
   10.6136   26.6676   25.4543 H   0  0  0  0  0  0  0  0  0  0  0  0
   10.9170   24.3449   26.1711 H   0  0  0  0  0  0  0  0  0  0  0  0
   10.2563   23.7694   24.6029 H   0  0  0  0  0  0  0  0  0  0  0  0
    8.1622   25.0847   25.0945 H   0  0  0  0  0  0  0  0  0  0  0  0
    7.2074   23.5138   26.7180 H   0  0  0  0  0  0  0  0  0  0  0  0
    8.8593   22.9303   27.1147 H   0  0  0  0  0  0  0  0  0  0  0  0
    8.1943   22.6900   25.4634 H   0  0  0  0  0  0  0  0  0  0  0  0
    9.1655   26.6649   26.7210 H   0  0  0  0  0  0  0  0  0  0  0  0
    9.3287   25.3229   27.9037 H   0  0  0  0  0  0  0  0  0  0  0  0
    7.6989   25.8515   27.3643 H   0  0  0  0  0  0  0  0  0  0  0  0
   11.5792   25.2173   22.3648 H   0  0  0  0  0  0  0  0  0  0  0  0
   14.3297   24.9944   23.2003 H   0  0  0  0  0  0  0  0  0  0  0  0
   14.6941   24.8394   20.6526 H   0  0  0  0  0  0  0  0  0  0  0  0
   12.9019   24.8806   20.5379 H   0  0  0  0  0  0  0  0  0  0  0  0
   12.8819   22.8923   22.1165 H   0  0  0  0  0  0  0  0  0  0  0  0
   13.4164   21.2456   20.3640 H   0  0  0  0  0  0  0  0  0  0  0  0
   14.2456   22.5255   19.4148 H   0  0  0  0  0  0  0  0  0  0  0  0
   12.4773   22.6314   19.7128 H   0  0  0  0  0  0  0  0  0  0  0  0
   15.1852   23.2087   22.9757 H   0  0  0  0  0  0  0  0  0  0  0  0
   15.8363   22.8075   21.3505 H   0  0  0  0  0  0  0  0  0  0  0  0
   14.9384   21.5671   22.2896 H   0  0  0  0  0  0  0  0  0  0  0  0
   12.4428   27.6680   21.8977 H   0  0  0  0  0  0  0  0  0  0  0  0
   14.8903   29.1562   21.2588 H   0  0  0  0  0  0  0  0  0  0  0  0
   13.1386   31.0697   20.9264 H   0  0  0  0  0  0  0  0  0  0  0  0
   11.9404   29.7321   20.9686 H   0  0  0  0  0  0  0  0  0  0  0  0
   13.1966   28.6653   19.0608 H   0  0  0  0  0  0  0  0  0  0  0  0
   14.1826   30.1633   18.9589 H   0  0  0  0  0  0  0  0  0  0  0  0
   11.5351   32.2888   17.9205 H   0  0  0  0  0  0  0  0  0  0  0  0
   12.9876   32.2041   18.8602 H   0  0  0  0  0  0  0  0  0  0  0  0
   12.8537   28.6787   23.9571 H   0  0  0  0  0  0  0  0  0  0  0  0
   13.9360   31.1832   25.1805 H   0  0  0  0  0  0  0  0  0  0  0  0
   11.8087   31.3131   26.4976 H   0  0  0  0  0  0  0  0  0  0  0  0
   11.1917   29.8776   25.6114 H   0  0  0  0  0  0  0  0  0  0  0  0
   11.5196   31.4065   24.7272 H   0  0  0  0  0  0  0  0  0  0  0  0
  1  2  1  0  0  0  0
  1 74  1  0  0  0  0
  1 75  1  0  0  0  0
  1 76  1  0  0  0  0
  2  3  1  0  0  0  0
  2  5  1  0  0  0  0
  2 77  1  6  0  0  0
  3  4  2  0  0  0  0
  3  6  1  0  0  0  0
  5 78  1  0  0  0  0
  5 79  1  0  0  0  0
  5 80  1  0  0  0  0
  6  7  1  0  0  0  0
  6 81  1  0  0  0  0
  7  8  1  0  0  0  0
  7 10  1  0  0  0  0
  7 82  1  1  0  0  0
  8  9  2  0  0  0  0
  8 14  1  0  0  0  0
 10 11  1  0  0  0  0
 10 12  1  0  0  0  0
 10 83  1  6  0  0  0
 11 13  1  0  0  0  0
 11 84  1  0  0  0  0
 11 85  1  0  0  0  0
 12 86  1  0  0  0  0
 12 87  1  0  0  0  0
 12 88  1  0  0  0  0
 13 89  1  0  0  0  0
 13 90  1  0  0  0  0
 13 91  1  0  0  0  0
 14 15  1  0  0  0  0
 14 92  1  0  0  0  0
 15 16  1  0  0  0  0
 15 18  1  0  0  0  0
 15 93  1  1  0  0  0
 16 17  2  0  0  0  0
 16 22  1  0  0  0  0
 18 19  1  0  0  0  0
 18 94  1  0  0  0  0
 18 95  1  0  0  0  0
 19 20  1  0  0  0  0
 19 21  1  0  0  0  0
 19 96  1  0  0  0  0
 20 97  1  0  0  0  0
 20 98  1  0  0  0  0
 20 99  1  0  0  0  0
 21100  1  0  0  0  0
 21101  1  0  0  0  0
 21102  1  0  0  0  0
 22 23  1  0  0  0  0
 22103  1  0  0  0  0
 23 24  1  0  0  0  0
 23 26  1  0  0  0  0
 23104  1  6  0  0  0
 24 25  2  0  0  0  0
 24 32  1  0  0  0  0
 26 27  1  0  0  0  0
 26105  1  0  0  0  0
 26106  1  0  0  0  0
 27 28  1  0  0  0  0
 27 29  2  0  0  0  0
 28 30  1  0  0  0  0
 28107  1  0  0  0  0
 29 31  1  0  0  0  0
 29108  1  0  0  0  0
 30 31  2  0  0  0  0
 30109  1  0  0  0  0
 32 33  1  0  0  0  0
 32110  1  0  0  0  0
 33 34  1  0  0  0  0
 33 36  1  0  0  0  0
 33111  1  6  0  0  0
 34 35  2  0  0  0  0
 34 43  1  0  0  0  0
 36 37  1  0  0  0  0
 36112  1  0  0  0  0
 36113  1  0  0  0  0
 37 38  1  0  0  0  0
 37114  1  0  0  0  0
 37115  1  0  0  0  0
 38 39  1  0  0  0  0
 38116  1  0  0  0  0
 38117  1  0  0  0  0
 39 40  1  0  0  0  0
 39118  1  0  0  0  0
 40 41  1  0  0  0  0
 40 42  1  0  0  0  0
 41119  1  0  0  0  0
 41120  1  0  0  0  0
 42121  1  0  0  0  0
 42122  1  0  0  0  0
 43 44  1  0  0  0  0
 43123  1  0  0  0  0
 44 45  1  0  0  0  0
 44 47  1  0  0  0  0
 44124  1  1  0  0  0
 45 46  2  0  0  0  0
 45 51  1  0  0  0  0
 47 48  1  0  0  0  0
 47125  1  0  0  0  0
 47126  1  0  0  0  0
 48 49  1  0  0  0  0
 48 50  1  0  0  0  0
 48127  1  0  0  0  0
 49128  1  0  0  0  0
 49129  1  0  0  0  0
 49130  1  0  0  0  0
 50131  1  0  0  0  0
 50132  1  0  0  0  0
 50133  1  0  0  0  0
 51 52  1  0  0  0  0
 51134  1  0  0  0  0
 52 53  1  0  0  0  0
 52 55  1  0  0  0  0
 52135  1  1  0  0  0
 53 54  2  0  0  0  0
 53 59  1  0  0  0  0
 55 56  1  0  0  0  0
 55136  1  0  0  0  0
 55137  1  0  0  0  0
 56 57  1  0  0  0  0
 56 58  1  0  0  0  0
 56138  1  0  0  0  0
 57139  1  0  0  0  0
 57140  1  0  0  0  0
 57141  1  0  0  0  0
 58142  1  0  0  0  0
 58143  1  0  0  0  0
 58144  1  0  0  0  0
 59 60  1  0  0  0  0
 59145  1  0  0  0  0
 60 61  1  0  0  0  0
 60 63  1  0  0  0  0
 60146  1  6  0  0  0
 61 62  2  0  0  0  0
 61 68  1  0  0  0  0
 63 64  1  0  0  0  0
 63147  1  0  0  0  0
 63148  1  0  0  0  0
 64 65  1  0  0  0  0
 64149  1  0  0  0  0
 64150  1  0  0  0  0
 65 66  2  0  0  0  0
 65 67  1  0  0  0  0
 67151  1  0  0  0  0
 67152  1  0  0  0  0
 68 69  1  0  0  0  0
 68153  1  0  0  0  0
 69 70  1  0  0  0  0
 69 72  1  0  0  0  0
 69154  1  6  0  0  0
 70 71  1  0  0  0  0
 70 73  2  0  0  0  0
 72155  1  0  0  0  0
 72156  1  0  0  0  0
 72157  1  0  0  0  0
M  CHG  2   1   1  71  -1
M  END
