1h01_ligand
 OpenBabel08222323343D

 54 56  0  0  1  0  0  0  0  0999 V2000
    3.1463   22.1543    7.1147 H   0  0  0  0  0  0  0  0  0  0  0  0
    3.3330   22.7088    8.8130 H   0  0  0  0  0  0  0  0  0  0  0  0
    0.2817   32.3671    6.8346 H   0  0  0  0  0  0  0  0  0  0  0  0
   -1.3753   31.1997    8.3755 H   0  0  0  0  0  0  0  0  0  0  0  0
   -0.7613   23.4620   10.8298 H   0  0  0  0  0  0  0  0  0  0  0  0
   -1.3833   25.2717   12.4428 H   0  0  0  0  0  0  0  0  0  0  0  0
    3.1126   24.8393    9.0132 H   0  0  0  0  0  0  0  0  0  0  0  0
    2.3244   27.1482    8.5705 H   0  0  0  0  0  0  0  0  0  0  0  0
   -0.4410   26.3793    7.6737 H   0  0  0  0  0  0  0  0  0  0  0  0
    5.4447   24.9300    5.3544 H   0  0  0  0  0  0  0  0  0  0  0  0
    4.6498   27.2594    4.9051 H   0  0  0  0  0  0  0  0  0  0  0  0
   -1.8955   29.0879    9.5072 H   0  0  0  0  0  0  0  0  0  0  0  0
    3.4693   29.3145    5.9100 H   0  0  0  0  0  0  0  0  0  0  0  0
    3.8779   20.3720    8.7249 H   0  0  0  0  0  0  0  0  0  0  0  0
    6.4499   22.0015    8.9364 H   0  0  0  0  0  0  0  0  0  0  0  0
    6.4335   20.2127    9.0996 H   0  0  0  0  0  0  0  0  0  0  0  0
    5.3857   22.2473   10.9016 H   0  0  0  0  0  0  0  0  0  0  0  0
    6.4677   21.0358   12.6549 H   0  0  0  0  0  0  0  0  0  0  0  0
    7.5931   21.5621   11.3577 H   0  0  0  0  0  0  0  0  0  0  0  0
    7.0195   19.8608   11.4134 H   0  0  0  0  0  0  0  0  0  0  0  0
    3.5184   20.7585   10.5559 H   0  0  0  0  0  0  0  0  0  0  0  0
    4.1568   20.7405   12.2348 H   0  0  0  0  0  0  0  0  0  0  0  0
    4.5863   19.4191   11.0963 H   0  0  0  0  0  0  0  0  0  0  0  0
    3.8690   22.3600    7.9180 C   0  0  0  0  0  0  0  0  0  0  0  0
    1.5450   30.6830    6.6430 N   0  0  0  0  0  0  0  0  0  0  0  0
    0.4460   31.3340    7.1190 C   0  0  0  0  0  0  0  0  0  0  0  0
    1.7120   29.4100    7.0100 C   0  0  0  0  0  0  0  0  0  0  0  0
   -0.2050   29.3310    8.2990 C   0  0  0  0  0  0  0  0  0  0  0  0
   -0.5010   30.6900    7.9870 C   0  0  0  0  0  0  0  0  0  0  0  0
    0.8880   28.7420    7.8090 N   0  0  0  0  0  0  0  0  0  0  0  0
   -0.8260   24.4910   10.4950 C   0  0  0  0  0  0  0  0  0  0  0  0
   -1.1770   25.5160   11.4070 C   0  0  0  0  0  0  0  0  0  0  0  0
   -1.2590   26.8640   10.9660 C   0  0  0  0  0  0  0  0  0  0  0  0
   -0.9960   27.1890    9.6070 C   0  0  0  0  0  0  0  0  0  0  0  0
   -0.5610   24.8170    9.1480 C   0  0  0  0  0  0  0  0  0  0  0  0
    3.4460   25.3620    8.1240 C   0  0  0  0  0  0  0  0  0  0  0  0
    2.9970   26.6680    7.8690 C   0  0  0  0  0  0  0  0  0  0  0  0
   -0.6460   26.1450    8.7120 C   0  0  0  0  0  0  0  0  0  0  0  0
    3.4140   27.3730    6.6980 C   0  0  0  0  0  0  0  0  0  0  0  0
    4.3400   24.7220    7.2150 C   0  0  0  0  0  0  0  0  0  0  0  0
    4.7680   25.4130    6.0500 C   0  0  0  0  0  0  0  0  0  0  0  0
    4.3130   26.7350    5.7920 C   0  0  0  0  0  0  0  0  0  0  0  0
    4.7750   23.4180    7.4730 O   0  0  0  0  0  0  0  0  0  0  0  0
   -1.0780   28.5690    9.1560 N   0  0  0  0  0  0  0  0  0  0  0  0
    2.8820   28.7260    6.5180 N   0  0  0  0  0  0  0  0  0  0  0  0
   -1.6820   28.1000   12.1320 Cl  0  0  0  0  0  0  0  0  0  0  0  0
   -0.1100   23.5850    7.9980 Cl  0  0  0  0  0  0  0  0  0  0  0  0
    4.6060   21.0550    8.2630 C   0  0  2  0  0  0  0  0  0  0  0  0
    5.8480   21.1330    9.2420 C   0  0  0  0  0  0  0  0  0  0  0  0
    5.5810   21.2720   10.7380 N   0  3  0  0  0  0  0  0  0  0  0  0
    6.7410   20.9090   11.5970 C   0  0  0  0  0  0  0  0  0  0  0  0
    4.3810   20.4960   11.1860 C   0  0  0  0  0  0  0  0  0  0  0  0
    5.0220   20.5300    7.0180 O   0  0  0  0  0  0  0  0  0  0  0  0
    4.2769   20.4831    6.4305 H   0  0  0  0  0  0  0  0  0  0  0  0
 24  1  1  0  0  0  0
 24  2  1  0  0  0  0
 24 48  1  0  0  0  0
 25 26  2  0  0  0  0
 26  3  1  0  0  0  0
 26 29  1  0  0  0  0
 27 25  1  0  0  0  0
 27 45  1  0  0  0  0
 28 44  1  0  0  0  0
 29  4  1  0  0  0  0
 29 28  2  0  0  0  0
 30 27  2  0  0  0  0
 30 28  1  0  0  0  0
 31  5  1  0  0  0  0
 32  6  1  0  0  0  0
 32 31  2  0  0  0  0
 33 32  1  0  0  0  0
 33 46  1  0  0  0  0
 34 33  2  0  0  0  0
 34 38  1  0  0  0  0
 35 31  1  0  0  0  0
 35 47  1  0  0  0  0
 36  7  1  0  0  0  0
 36 40  1  0  0  0  0
 37  8  1  0  0  0  0
 37 36  2  0  0  0  0
 38  9  1  0  0  0  0
 38 35  2  0  0  0  0
 39 42  2  0  0  0  0
 39 37  1  0  0  0  0
 40 43  1  0  0  0  0
 41 10  1  0  0  0  0
 41 40  2  0  0  0  0
 42 11  1  0  0  0  0
 42 41  1  0  0  0  0
 43 24  1  0  0  0  0
 44 12  1  0  0  0  0
 44 34  1  0  0  0  0
 45 13  1  0  0  0  0
 45 39  1  0  0  0  0
 48 14  1  1  0  0  0
 48 49  1  0  0  0  0
 48 53  1  0  0  0  0
 49 15  1  0  0  0  0
 49 16  1  0  0  0  0
 49 50  1  0  0  0  0
 50 17  1  0  0  0  0
 50 51  1  0  0  0  0
 50 52  1  0  0  0  0
 51 18  1  0  0  0  0
 51 19  1  0  0  0  0
 51 20  1  0  0  0  0
 52 21  1  0  0  0  0
 52 22  1  0  0  0  0
 52 23  1  0  0  0  0
 53 54  1  0  0  0  0
M  CHG  1  50   1
M  END
