1h08_ligand
 OpenBabel08222323343D

 54 56  0  0  1  0  0  0  0  0999 V2000
    8.6630   -9.9020    5.9770 C   0  0  0  0  0  0  0  0  0  0  0  0
   11.4800  -10.7260   14.2040 N   0  0  0  0  0  0  0  0  0  0  0  0
   12.5810  -10.2190   14.8120 C   0  0  0  0  0  0  0  0  0  0  0  0
   11.2560  -10.3670   12.9290 C   0  0  0  0  0  0  0  0  0  0  0  0
   13.1270   -9.0150   12.7770 C   0  0  0  0  0  0  0  0  0  0  0  0
   13.4660   -9.3270   14.1210 C   0  0  0  0  0  0  0  0  0  0  0  0
   12.0310   -9.5390   12.2250 N   0  0  0  0  0  0  0  0  0  0  0  0
   13.9900   -6.3230    8.1010 C   0  0  0  0  0  0  0  0  0  0  0  0
   14.4830   -5.6150    9.2260 C   0  0  0  0  0  0  0  0  0  0  0  0
   14.4700   -6.2250   10.5100 C   0  0  0  0  0  0  0  0  0  0  0  0
   13.9660   -7.5490   10.6790 C   0  0  0  0  0  0  0  0  0  0  0  0
   13.4830   -7.6400    8.2510 C   0  0  0  0  0  0  0  0  0  0  0  0
    7.9800  -11.6300    9.2030 C   0  0  0  0  0  0  0  0  0  0  0  0
    8.5330  -11.7500   10.5060 C   0  0  0  0  0  0  0  0  0  0  0  0
   13.4690   -8.2530    9.5340 C   0  0  0  0  0  0  0  0  0  0  0  0
    9.4910  -10.8060   10.9570 C   0  0  0  0  0  0  0  0  0  0  0  0
    8.3860  -10.5570    8.3360 C   0  0  0  0  0  0  0  0  0  0  0  0
    9.3490   -9.6100    8.7970 C   0  0  0  0  0  0  0  0  0  0  0  0
    9.8960   -9.7320   10.0930 C   0  0  0  0  0  0  0  0  0  0  0  0
    7.8090  -10.4640    7.0410 O   0  0  0  0  0  0  0  0  0  0  0  0
   13.9800   -8.1050   12.0260 N   0  0  0  0  0  0  0  0  0  0  0  0
   10.0780  -10.9250   12.2940 N   0  0  0  0  0  0  0  0  0  0  0  0
   15.0190   -8.6080   14.9720 Br  0  0  0  0  0  0  0  0  0  0  0  0
    7.7590   -9.4630    4.7860 C   0  0  1  0  0  0  0  0  0  0  0  0
    6.5950  -10.4980    4.5810 C   0  0  0  0  0  0  0  0  0  0  0  0
    5.9320  -10.5250    3.2220 N   0  3  0  0  0  0  0  0  0  0  0  0
    5.0380   -9.3710    2.9190 C   0  0  0  0  0  0  0  0  0  0  0  0
    6.7980  -10.9330    2.0780 C   0  0  0  0  0  0  0  0  0  0  0  0
    7.2130   -8.1780    5.0690 O   0  0  0  0  0  0  0  0  0  0  0  0
    9.3788  -10.6645    5.6362 H   0  0  0  0  0  0  0  0  0  0  0  0
    9.2119   -9.0312    6.3649 H   0  0  0  0  0  0  0  0  0  0  0  0
   12.7959  -10.4929   15.8386 H   0  0  0  0  0  0  0  0  0  0  0  0
   14.0003   -5.8566    7.1225 H   0  0  0  0  0  0  0  0  0  0  0  0
   14.8696   -4.6093    9.1072 H   0  0  0  0  0  0  0  0  0  0  0  0
   14.8462   -5.6796   11.3679 H   0  0  0  0  0  0  0  0  0  0  0  0
   13.1068   -8.1781    7.3884 H   0  0  0  0  0  0  0  0  0  0  0  0
    7.2475  -12.3517    8.8602 H   0  0  0  0  0  0  0  0  0  0  0  0
    8.2234  -12.5616   11.1545 H   0  0  0  0  0  0  0  0  0  0  0  0
   13.0802   -9.2586    9.6466 H   0  0  0  0  0  0  0  0  0  0  0  0
    9.6607   -8.7966    8.1518 H   0  0  0  0  0  0  0  0  0  0  0  0
   10.6269   -9.0100   10.4386 H   0  0  0  0  0  0  0  0  0  0  0  0
   14.7848   -7.7759   12.5781 H   0  0  0  0  0  0  0  0  0  0  0  0
    9.5359  -11.5386   12.9189 H   0  0  0  0  0  0  0  0  0  0  0  0
    8.3636   -9.4107    3.8685 H   0  0  0  0  0  0  0  0  0  0  0  0
    5.8168  -10.2741    5.3255 H   0  0  0  0  0  0  0  0  0  0  0  0
    7.0055  -11.5009    4.7699 H   0  0  0  0  0  0  0  0  0  0  0  0
    5.2886  -11.2964    3.3055 H   0  0  0  0  0  0  0  0  0  0  0  0
    4.6117   -9.4919    1.9122 H   0  0  0  0  0  0  0  0  0  0  0  0
    5.6175   -8.4370    2.9620 H   0  0  0  0  0  0  0  0  0  0  0  0
    4.2251   -9.3326    3.6591 H   0  0  0  0  0  0  0  0  0  0  0  0
    7.4248  -11.7856    2.3785 H   0  0  0  0  0  0  0  0  0  0  0  0
    7.4413  -10.0898    1.7862 H   0  0  0  0  0  0  0  0  0  0  0  0
    6.1665  -11.2246    1.2258 H   0  0  0  0  0  0  0  0  0  0  0  0
    6.6892   -8.2250    5.8601 H   0  0  0  0  0  0  0  0  0  0  0  0
  1 24  1  0  0  0  0
  1 30  1  0  0  0  0
  1 31  1  0  0  0  0
  2  3  2  0  0  0  0
  3  6  1  0  0  0  0
  3 32  1  0  0  0  0
  4  2  1  0  0  0  0
  4 22  1  0  0  0  0
  5 21  1  0  0  0  0
  6 23  1  0  0  0  0
  6  5  2  0  0  0  0
  7  4  2  0  0  0  0
  7  5  1  0  0  0  0
  8 33  1  0  0  0  0
  9  8  2  0  0  0  0
  9 34  1  0  0  0  0
 10  9  1  0  0  0  0
 10 35  1  0  0  0  0
 11 10  2  0  0  0  0
 11 15  1  0  0  0  0
 12  8  1  0  0  0  0
 12 36  1  0  0  0  0
 13 17  1  0  0  0  0
 13 37  1  0  0  0  0
 14 13  2  0  0  0  0
 14 38  1  0  0  0  0
 15 12  2  0  0  0  0
 15 39  1  0  0  0  0
 16 19  2  0  0  0  0
 16 14  1  0  0  0  0
 17 20  1  0  0  0  0
 18 17  2  0  0  0  0
 18 40  1  0  0  0  0
 19 18  1  0  0  0  0
 19 41  1  0  0  0  0
 20  1  1  0  0  0  0
 21 11  1  0  0  0  0
 21 42  1  0  0  0  0
 22 16  1  0  0  0  0
 22 43  1  0  0  0  0
 24 25  1  0  0  0  0
 24 29  1  0  0  0  0
 24 44  1  6  0  0  0
 25 26  1  0  0  0  0
 25 45  1  0  0  0  0
 25 46  1  0  0  0  0
 26 27  1  0  0  0  0
 26 28  1  0  0  0  0
 26 47  1  0  0  0  0
 27 48  1  0  0  0  0
 27 49  1  0  0  0  0
 27 50  1  0  0  0  0
 28 51  1  0  0  0  0
 28 52  1  0  0  0  0
 28 53  1  0  0  0  0
 29 54  1  0  0  0  0
M  CHG  1  26   1
M  END
