1h24_ligand
 OpenBabel08222323343D

168168  0  0  1  0  0  0  0  0999 V2000
    8.1310   84.8080   79.6780 N   0  3  0  0  0  0  0  0  0  0  0  0
    7.1570   83.8060   79.1660 C   0  0  2  0  0  0  0  0  0  0  0  0
    7.7400   83.0280   78.0110 C   0  0  0  0  0  0  0  0  0  0  0  0
    8.5930   83.5450   77.2620 O   0  0  0  0  0  0  0  0  0  0  0  0
    5.9990   84.6660   78.6320 C   0  0  0  0  0  0  0  0  0  0  0  0
    6.5350   86.0490   78.5140 C   0  0  0  0  0  0  0  0  0  0  0  0
    8.0220   86.0590   78.9180 C   0  0  0  0  0  0  0  0  0  0  0  0
    7.2900   81.7830   77.8870 N   0  0  0  0  0  0  0  0  0  0  0  0
    7.7260   80.9260   76.7900 C   0  0  2  0  0  0  0  0  0  0  0  0
    7.2780   81.6050   75.5010 C   0  0  0  0  0  0  0  0  0  0  0  0
    8.0960   81.9950   74.6810 O   0  0  0  0  0  0  0  0  0  0  0  0
    7.1480   79.5020   76.8910 C   0  0  0  0  0  0  0  0  0  0  0  0
    8.2300   78.4900   76.9280 C   0  0  0  0  0  0  0  0  0  0  0  0
    6.2270   79.3580   78.1070 C   0  0  0  0  0  0  0  0  0  0  0  0
    5.9680   81.7740   75.3350 N   0  0  0  0  0  0  0  0  0  0  0  0
    5.4510   82.4780   74.1670 C   0  0  2  0  0  0  0  0  0  0  0  0
    6.3030   83.7480   73.9870 C   0  0  0  0  0  0  0  0  0  0  0  0
    6.0680   84.7580   74.6390 O   0  0  0  0  0  0  0  0  0  0  0  0
    3.9750   82.8260   74.3860 C   0  0  0  0  0  0  0  0  0  0  0  0
    3.1370   83.0990   73.1240 C   0  0  0  0  0  0  0  0  0  0  0  0
    1.6600   83.3290   73.4650 C   0  0  0  0  0  0  0  0  0  0  0  0
    1.1580   84.7130   73.0140 C   0  0  0  0  0  0  0  0  0  0  0  0
    1.9220   85.8580   73.6040 N   0  3  0  0  0  0  0  0  0  0  0  0
    7.3200   83.6800   73.1440 N   0  0  0  0  0  0  0  0  0  0  0  0
    8.1570   84.8500   72.8940 C   0  0  2  0  0  0  0  0  0  0  0  0
    9.1420   84.5990   71.7930 C   0  0  0  0  0  0  0  0  0  0  0  0
    9.6850   83.5320   71.6920 O   0  0  0  0  0  0  0  0  0  0  0  0
    8.9380   85.2790   74.1510 C   0  0  0  0  0  0  0  0  0  0  0  0
   10.2870   84.6480   74.3250 C   0  0  0  0  0  0  0  0  0  0  0  0
   10.7420   84.7040   75.7580 C   0  0  0  0  0  0  0  0  0  0  0  0
   12.1230   84.2640   75.9230 N   0  0  0  0  0  0  0  0  0  0  0  0
   12.4800   83.2120   76.6400 C   0  0  0  0  0  3  0  0  0  0  0  0
   11.5430   82.4830   77.2530 N   0  0  0  0  0  0  0  0  0  0  0  0
   13.7600   82.8860   76.7360 N   0  0  0  0  0  0  0  0  0  0  0  0
    9.3660   85.5870   70.9570 N   0  0  0  0  0  0  0  0  0  0  0  0
   10.4160   85.4440   69.9880 C   0  0  2  0  0  0  0  0  0  0  0  0
   11.6990   85.8370   70.7290 C   0  0  0  0  0  0  0  0  0  0  0  0
   11.7390   86.8660   71.4110 O   0  0  0  0  0  0  0  0  0  0  0  0
   10.1470   86.2950   68.7370 C   0  0  0  0  0  0  0  0  0  0  0  0
   10.7520   87.6330   68.7600 C   0  0  0  0  0  0  0  0  0  0  0  0
   11.3730   88.0380   67.4560 C   0  0  0  0  0  0  0  0  0  0  0  0
   12.6440   88.7020   67.7450 N   0  0  0  0  0  0  0  0  0  0  0  0
   13.1870   89.6640   67.0120 C   0  0  0  0  0  3  0  0  0  0  0  0
   12.5800   90.0850   65.9100 N   0  0  0  0  0  0  0  0  0  0  0  0
   14.3440   90.1910   67.3780 N   0  0  0  0  0  0  0  0  0  0  0  0
   12.7260   85.0020   70.6320 N   0  0  0  0  0  0  0  0  0  0  0  0
   13.9680   85.2720   71.3340 C   0  0  2  0  0  0  0  0  0  0  0  0
   14.7020   86.4520   70.7260 C   0  0  0  0  0  0  0  0  0  0  0  0
   14.8290   86.5200   69.5130 O   0  0  0  0  0  0  0  0  0  0  0  0
   14.8800   84.0470   71.2970 C   0  0  0  0  0  0  0  0  0  0  0  0
   14.3240   82.7110   71.7740 C   0  0  0  0  0  0  0  0  0  0  0  0
   15.2290   81.5960   71.3390 C   0  0  0  0  0  0  0  0  0  0  0  0
   14.1660   82.7330   73.2730 C   0  0  0  0  0  0  0  0  0  0  0  0
   15.1870   87.3620   71.5700 N   0  0  0  0  0  0  0  0  0  0  0  0
   15.9010   88.5620   71.1240 C   0  0  2  0  0  0  0  0  0  0  0  0
   17.3950   88.3590   71.2860 C   0  0  0  0  0  0  0  0  0  0  0  0
   17.8740   88.0350   72.3780 O   0  0  0  0  0  0  0  0  0  0  0  0
   15.4650   89.7920   71.9460 C   0  0  0  0  0  0  0  0  0  0  0  0
   15.7990   91.1320   71.2570 C   0  0  0  0  0  0  0  0  0  0  0  0
   16.8730   91.2630   70.6180 O   0  5  0  0  0  0  0  0  0  0  0  0
   15.0280   92.1160   71.3080 O   0  0  0  0  0  0  0  0  0  0  0  0
   18.1470   88.5720   70.2120 N   0  0  0  0  0  0  0  0  0  0  0  0
   19.5770   88.3250   70.2880 C   0  0  2  0  0  0  0  0  0  0  0  0
   20.5110   89.4820   69.8830 C   0  0  0  0  0  0  0  0  0  0  0  0
   21.5710   89.6430   70.4910 O   0  0  0  0  0  0  0  0  0  0  0  0
   19.9110   87.0620   69.4910 C   0  0  0  0  0  0  0  0  0  0  0  0
   18.7850   86.0610   69.2080 C   0  0  0  0  0  0  0  0  0  0  0  0
   19.3020   84.9850   68.2970 C   0  0  0  0  0  0  0  0  0  0  0  0
   18.2430   85.4240   70.4600 C   0  0  0  0  0  0  0  0  0  0  0  0
   20.1200   90.2800   68.8830 N   0  0  0  0  0  0  0  0  0  0  0  0
   20.9800   91.3470   68.3180 C   0  0  2  0  0  0  0  0  0  0  0  0
   22.2760   91.5980   69.1120 C   0  0  0  0  0  0  0  0  0  0  0  0
   22.3040   92.3270   70.1050 O   0  0  0  0  0  0  0  0  0  0  0  0
   20.2140   92.6730   68.0480 C   0  0  0  0  0  0  0  0  0  0  0  0
   20.7370   93.4580   66.8240 C   0  0  0  0  0  0  0  0  0  0  0  0
   20.6060   94.9970   66.8940 C   0  0  0  0  0  0  0  0  0  0  0  0
   20.6170   95.5890   68.0050 O   0  5  0  0  0  0  0  0  0  0  0  0
   20.5200   95.6320   65.8120 O   0  0  0  0  0  0  0  0  0  0  0  0
    9.0654   84.4419   79.5835 H   0  0  0  0  0  0  0  0  0  0  0  0
    7.9389   84.9918   80.6503 H   0  0  0  0  0  0  0  0  0  0  0  0
    6.8281   83.1229   79.9629 H   0  0  0  0  0  0  0  0  0  0  0  0
    5.1514   84.6432   79.3328 H   0  0  0  0  0  0  0  0  0  0  0  0
    5.6716   84.2979   77.6485 H   0  0  0  0  0  0  0  0  0  0  0  0
    5.9699   86.7193   79.1784 H   0  0  0  0  0  0  0  0  0  0  0  0
    6.4351   86.3936   77.4742 H   0  0  0  0  0  0  0  0  0  0  0  0
    8.6777   86.0503   78.0348 H   0  0  0  0  0  0  0  0  0  0  0  0
    8.2617   86.9310   79.5442 H   0  0  0  0  0  0  0  0  0  0  0  0
    6.6402   81.4273   78.5587 H   0  0  0  0  0  0  0  0  0  0  0  0
    8.8236   80.8544   76.8033 H   0  0  0  0  0  0  0  0  0  0  0  0
    6.5455   79.3195   75.9890 H   0  0  0  0  0  0  0  0  0  0  0  0
    7.7894   77.4847   77.0001 H   0  0  0  0  0  0  0  0  0  0  0  0
    8.8727   78.6721   77.8019 H   0  0  0  0  0  0  0  0  0  0  0  0
    8.8309   78.5619   76.0095 H   0  0  0  0  0  0  0  0  0  0  0  0
    5.4333   80.1181   78.0579 H   0  0  0  0  0  0  0  0  0  0  0  0
    6.8116   79.4974   79.0283 H   0  0  0  0  0  0  0  0  0  0  0  0
    5.7748   78.3553   78.1078 H   0  0  0  0  0  0  0  0  0  0  0  0
    5.3321   81.4146   76.0180 H   0  0  0  0  0  0  0  0  0  0  0  0
    5.5428   81.8419   73.2743 H   0  0  0  0  0  0  0  0  0  0  0  0
    3.9344   83.7274   75.0151 H   0  0  0  0  0  0  0  0  0  0  0  0
    3.5094   81.9847   74.9202 H   0  0  0  0  0  0  0  0  0  0  0  0
    3.2168   82.2343   72.4487 H   0  0  0  0  0  0  0  0  0  0  0  0
    3.5307   83.9946   72.6211 H   0  0  0  0  0  0  0  0  0  0  0  0
    1.5326   83.2456   74.5544 H   0  0  0  0  0  0  0  0  0  0  0  0
    1.0582   82.5557   72.9652 H   0  0  0  0  0  0  0  0  0  0  0  0
    0.1030   84.8119   73.3094 H   0  0  0  0  0  0  0  0  0  0  0  0
    1.2390   84.7706   71.9185 H   0  0  0  0  0  0  0  0  0  0  0  0
    1.5394   86.7270   73.2657 H   0  0  0  0  0  0  0  0  0  0  0  0
    2.8909   85.7900   73.3344 H   0  0  0  0  0  0  0  0  0  0  0  0
    1.8499   85.8278   74.6090 H   0  0  0  0  0  0  0  0  0  0  0  0
    7.5174   82.8198   72.6738 H   0  0  0  0  0  0  0  0  0  0  0  0
    7.4981   85.6777   72.5929 H   0  0  0  0  0  0  0  0  0  0  0  0
    8.3293   85.0233   75.0308 H   0  0  0  0  0  0  0  0  0  0  0  0
    9.0781   86.3691   74.1063 H   0  0  0  0  0  0  0  0  0  0  0  0
   11.0153   85.1829   73.6978 H   0  0  0  0  0  0  0  0  0  0  0  0
   10.2330   83.5960   74.0082 H   0  0  0  0  0  0  0  0  0  0  0  0
   10.0904   84.0543   76.3607 H   0  0  0  0  0  0  0  0  0  0  0  0
   10.6572   85.7410   76.1149 H   0  0  0  0  0  0  0  0  0  0  0  0
   12.8634   84.8045   75.4534 H   0  0  0  0  0  0  0  0  0  0  0  0
   11.8138   81.6622   77.8132 H   0  0  0  0  0  0  0  0  0  0  0  0
   10.5499   82.7418   77.1654 H   0  0  0  0  0  0  0  0  0  0  0  0
   14.4736   83.4554   76.2591 H   0  0  0  0  0  0  0  0  0  0  0  0
   14.0419   82.0630   77.2876 H   0  0  0  0  0  0  0  0  0  0  0  0
    8.8166   86.4217   70.9946 H   0  0  0  0  0  0  0  0  0  0  0  0
   10.4875   84.3923   69.6737 H   0  0  0  0  0  0  0  0  0  0  0  0
    9.0585   86.4135   68.6314 H   0  0  0  0  0  0  0  0  0  0  0  0
   10.5434   85.7553   67.8643 H   0  0  0  0  0  0  0  0  0  0  0  0
   11.5322   87.6478   69.5353 H   0  0  0  0  0  0  0  0  0  0  0  0
    9.9695   88.3634   69.0133 H   0  0  0  0  0  0  0  0  0  0  0  0
   10.7038   88.7295   66.9231 H   0  0  0  0  0  0  0  0  0  0  0  0
   11.5503   87.1476   66.8349 H   0  0  0  0  0  0  0  0  0  0  0  0
   13.1577   88.3981   68.5844 H   0  0  0  0  0  0  0  0  0  0  0  0
   13.0038   90.8325   65.3421 H   0  0  0  0  0  0  0  0  0  0  0  0
   11.6849   89.6643   65.6223 H   0  0  0  0  0  0  0  0  0  0  0  0
   14.8121   89.8615   68.2342 H   0  0  0  0  0  0  0  0  0  0  0  0
   14.7766   90.9308   66.8067 H   0  0  0  0  0  0  0  0  0  0  0  0
   12.6437   84.1790   70.0700 H   0  0  0  0  0  0  0  0  0  0  0  0
   13.7303   85.5069   72.3820 H   0  0  0  0  0  0  0  0  0  0  0  0
   15.7560   84.2756   71.9217 H   0  0  0  0  0  0  0  0  0  0  0  0
   15.1993   83.9115   70.2531 H   0  0  0  0  0  0  0  0  0  0  0  0
   13.3344   82.5555   71.3196 H   0  0  0  0  0  0  0  0  0  0  0  0
   14.8209   80.6356   71.6870 H   0  0  0  0  0  0  0  0  0  0  0  0
   16.2298   81.7468   71.7698 H   0  0  0  0  0  0  0  0  0  0  0  0
   15.2997   81.5881   70.2413 H   0  0  0  0  0  0  0  0  0  0  0  0
   13.4987   83.5593   73.5592 H   0  0  0  0  0  0  0  0  0  0  0  0
   15.1499   82.8766   73.7434 H   0  0  0  0  0  0  0  0  0  0  0  0
   13.7340   81.7793   73.6102 H   0  0  0  0  0  0  0  0  0  0  0  0
   15.0581   87.2199   72.5514 H   0  0  0  0  0  0  0  0  0  0  0  0
   15.6723   88.7399   70.0629 H   0  0  0  0  0  0  0  0  0  0  0  0
   15.9771   89.7619   72.9190 H   0  0  0  0  0  0  0  0  0  0  0  0
   14.3774   89.7407   72.1023 H   0  0  0  0  0  0  0  0  0  0  0  0
   17.7342   88.8983   69.3616 H   0  0  0  0  0  0  0  0  0  0  0  0
   19.7963   88.1162   71.3455 H   0  0  0  0  0  0  0  0  0  0  0  0
   20.6929   86.5237   70.0467 H   0  0  0  0  0  0  0  0  0  0  0  0
   20.3098   87.3867   68.5186 H   0  0  0  0  0  0  0  0  0  0  0  0
   17.9642   86.5947   68.7066 H   0  0  0  0  0  0  0  0  0  0  0  0
   18.4986   84.2628   68.0897 H   0  0  0  0  0  0  0  0  0  0  0  0
   20.1438   84.4680   68.7809 H   0  0  0  0  0  0  0  0  0  0  0  0
   19.6422   85.4359   67.3531 H   0  0  0  0  0  0  0  0  0  0  0  0
   17.8618   86.2057   71.1336 H   0  0  0  0  0  0  0  0  0  0  0  0
   19.0453   84.8650   70.9639 H   0  0  0  0  0  0  0  0  0  0  0  0
   17.4259   84.7360   70.1972 H   0  0  0  0  0  0  0  0  0  0  0  0
   19.2057   90.1508   68.4991 H   0  0  0  0  0  0  0  0  0  0  0  0
   21.2992   90.9755   67.3331 H   0  0  0  0  0  0  0  0  0  0  0  0
   23.1963   91.1160   68.7854 H   0  0  0  0  0  0  0  0  0  0  0  0
   20.3072   93.3144   68.9368 H   0  0  0  0  0  0  0  0  0  0  0  0
   19.1540   92.4328   67.8786 H   0  0  0  0  0  0  0  0  0  0  0  0
   20.1791   93.1135   65.9408 H   0  0  0  0  0  0  0  0  0  0  0  0
   21.8032   93.2171   66.7012 H   0  0  0  0  0  0  0  0  0  0  0  0
  1  2  1  0  0  0  0
  1  7  1  0  0  0  0
  1 79  1  0  0  0  0
  1 80  1  0  0  0  0
  2  3  1  0  0  0  0
  2  5  1  0  0  0  0
  2 81  1  1  0  0  0
  3  4  2  0  0  0  0
  3  8  1  0  0  0  0
  5  6  1  0  0  0  0
  5 82  1  0  0  0  0
  5 83  1  0  0  0  0
  6  7  1  0  0  0  0
  6 84  1  0  0  0  0
  6 85  1  0  0  0  0
  7 86  1  0  0  0  0
  7 87  1  0  0  0  0
  8  9  1  0  0  0  0
  8 88  1  0  0  0  0
  9 10  1  0  0  0  0
  9 12  1  0  0  0  0
  9 89  1  1  0  0  0
 10 11  2  0  0  0  0
 10 15  1  0  0  0  0
 12 13  1  0  0  0  0
 12 14  1  0  0  0  0
 12 90  1  0  0  0  0
 13 91  1  0  0  0  0
 13 92  1  0  0  0  0
 13 93  1  0  0  0  0
 14 94  1  0  0  0  0
 14 95  1  0  0  0  0
 14 96  1  0  0  0  0
 15 16  1  0  0  0  0
 15 97  1  0  0  0  0
 16 17  1  0  0  0  0
 16 19  1  0  0  0  0
 16 98  1  6  0  0  0
 17 18  2  0  0  0  0
 17 24  1  0  0  0  0
 19 20  1  0  0  0  0
 19 99  1  0  0  0  0
 19100  1  0  0  0  0
 20 21  1  0  0  0  0
 20101  1  0  0  0  0
 20102  1  0  0  0  0
 21 22  1  0  0  0  0
 21103  1  0  0  0  0
 21104  1  0  0  0  0
 22 23  1  0  0  0  0
 22105  1  0  0  0  0
 22106  1  0  0  0  0
 23107  1  0  0  0  0
 23108  1  0  0  0  0
 23109  1  0  0  0  0
 24 25  1  0  0  0  0
 24110  1  0  0  0  0
 25 26  1  0  0  0  0
 25 28  1  0  0  0  0
 25111  1  6  0  0  0
 26 27  2  0  0  0  0
 26 35  1  0  0  0  0
 28 29  1  0  0  0  0
 28112  1  0  0  0  0
 28113  1  0  0  0  0
 29 30  1  0  0  0  0
 29114  1  0  0  0  0
 29115  1  0  0  0  0
 30 31  1  0  0  0  0
 30116  1  0  0  0  0
 30117  1  0  0  0  0
 31 32  1  0  0  0  0
 31118  1  0  0  0  0
 32 33  1  0  0  0  0
 32 34  1  0  0  0  0
 33119  1  0  0  0  0
 33120  1  0  0  0  0
 34121  1  0  0  0  0
 34122  1  0  0  0  0
 35 36  1  0  0  0  0
 35123  1  0  0  0  0
 36 37  1  0  0  0  0
 36 39  1  0  0  0  0
 36124  1  6  0  0  0
 37 38  2  0  0  0  0
 37 46  1  0  0  0  0
 39 40  1  0  0  0  0
 39125  1  0  0  0  0
 39126  1  0  0  0  0
 40 41  1  0  0  0  0
 40127  1  0  0  0  0
 40128  1  0  0  0  0
 41 42  1  0  0  0  0
 41129  1  0  0  0  0
 41130  1  0  0  0  0
 42 43  1  0  0  0  0
 42131  1  0  0  0  0
 43 44  1  0  0  0  0
 43 45  1  0  0  0  0
 44132  1  0  0  0  0
 44133  1  0  0  0  0
 45134  1  0  0  0  0
 45135  1  0  0  0  0
 46 47  1  0  0  0  0
 46136  1  0  0  0  0
 47 48  1  0  0  0  0
 47 50  1  0  0  0  0
 47137  1  1  0  0  0
 48 49  2  0  0  0  0
 48 54  1  0  0  0  0
 50 51  1  0  0  0  0
 50138  1  0  0  0  0
 50139  1  0  0  0  0
 51 52  1  0  0  0  0
 51 53  1  0  0  0  0
 51140  1  0  0  0  0
 52141  1  0  0  0  0
 52142  1  0  0  0  0
 52143  1  0  0  0  0
 53144  1  0  0  0  0
 53145  1  0  0  0  0
 53146  1  0  0  0  0
 54 55  1  0  0  0  0
 54147  1  0  0  0  0
 55 56  1  0  0  0  0
 55 58  1  0  0  0  0
 55148  1  6  0  0  0
 56 57  2  0  0  0  0
 56 62  1  0  0  0  0
 58 59  1  0  0  0  0
 58149  1  0  0  0  0
 58150  1  0  0  0  0
 59 60  1  0  0  0  0
 59 61  2  0  0  0  0
 62 63  1  0  0  0  0
 62151  1  0  0  0  0
 63 64  1  0  0  0  0
 63 66  1  0  0  0  0
 63152  1  1  0  0  0
 64 65  2  0  0  0  0
 64 70  1  0  0  0  0
 66 67  1  0  0  0  0
 66153  1  0  0  0  0
 66154  1  0  0  0  0
 67 68  1  0  0  0  0
 67 69  1  0  0  0  0
 67155  1  0  0  0  0
 68156  1  0  0  0  0
 68157  1  0  0  0  0
 68158  1  0  0  0  0
 69159  1  0  0  0  0
 69160  1  0  0  0  0
 69161  1  0  0  0  0
 70 71  1  0  0  0  0
 70162  1  0  0  0  0
 71 72  1  0  0  0  0
 71 74  1  0  0  0  0
 71163  1  6  0  0  0
 72 73  2  0  0  0  0
 72164  1  0  0  0  0
 74 75  1  0  0  0  0
 74165  1  0  0  0  0
 74166  1  0  0  0  0
 75 76  1  0  0  0  0
 75167  1  0  0  0  0
 75168  1  0  0  0  0
 76 77  1  0  0  0  0
 76 78  2  0  0  0  0
M  CHG  4   1   1  23   1  60  -1  77  -1
M  END
