1h36_ligand
 OpenBabel08222323343D

 48 50  0  0  1  0  0  0  0  0999 V2000
   67.2630   70.5720   71.4220 C   0  0  0  0  0  0  0  0  0  0  0  0
   66.1310   69.8080   70.7610 C   0  0  0  0  0  0  0  0  0  0  0  0
   65.4110   69.1320   71.4890 O   0  0  0  0  0  0  0  0  0  0  0  0
   65.8410   69.8230   69.2550 C   0  0  0  0  0  0  0  0  0  0  0  0
   64.6280   69.2380   68.7750 C   0  0  0  0  0  0  0  0  0  0  0  0
   64.3280   69.2280   67.3910 C   0  0  0  0  0  0  0  0  0  0  0  0
   65.2400   69.8080   66.4560 C   0  0  0  0  0  0  0  0  0  0  0  0
   63.7110   70.3820   64.6920 C   0  0  0  0  0  0  0  0  0  0  0  0
   63.7110   70.4470   63.1970 C   0  0  0  0  0  0  0  0  0  0  0  0
   63.9390   71.5740   62.5280 C   0  0  0  0  0  0  0  0  0  0  0  0
   63.9510   71.6640   61.0140 C   0  0  0  0  0  0  0  0  0  0  0  0
   62.6080   71.9170   60.3700 N   0  3  2  0  0  0  0  0  0  0  0  0
   61.8180   72.9720   61.0740 C   0  0  0  0  0  0  0  0  0  0  0  0
   61.8950   70.6160   60.1200 C   0  0  0  0  0  0  0  0  0  0  0  0
   62.5720   69.3970   59.4290 C   0  0  0  0  0  0  0  0  0  0  0  0
   66.4490   70.3940   66.9220 C   0  0  0  0  0  0  0  0  0  0  0  0
   66.7490   70.4020   68.3110 C   0  0  0  0  0  0  0  0  0  0  0  0
   67.3440   71.9970   71.3580 C   0  0  0  0  0  0  0  0  0  0  0  0
   68.4120   72.6780   71.9980 C   0  0  0  0  0  0  0  0  0  0  0  0
   69.4010   71.9400   72.7060 C   0  0  0  0  0  0  0  0  0  0  0  0
   64.9670   69.8030   65.0830 O   0  0  0  0  0  0  0  0  0  0  0  0
   61.5770   70.2770   58.6450 C   0  0  0  0  0  0  0  0  0  0  0  0
   70.7830   72.8210   73.5480 Br  0  0  0  0  0  0  0  0  0  0  0  0
   69.3250   70.5240   72.7720 C   0  0  0  0  0  0  0  0  0  0  0  0
   68.2590   69.8430   72.1320 C   0  0  0  0  0  0  0  0  0  0  0  0
   63.9304   68.7973   69.4780 H   0  0  0  0  0  0  0  0  0  0  0  0
   63.4054   68.7798   67.0404 H   0  0  0  0  0  0  0  0  0  0  0  0
   62.8790   69.7543   65.0437 H   0  0  0  0  0  0  0  0  0  0  0  0
   63.6121   71.3926   65.1149 H   0  0  0  0  0  0  0  0  0  0  0  0
   63.5166   69.5352   62.6342 H   0  0  0  0  0  0  0  0  0  0  0  0
   64.1274   72.4820   63.0989 H   0  0  0  0  0  0  0  0  0  0  0  0
   64.3427   70.7144   60.6205 H   0  0  0  0  0  0  0  0  0  0  0  0
   64.6247   72.4852   60.7280 H   0  0  0  0  0  0  0  0  0  0  0  0
   62.8013   72.2990   59.4575 H   0  0  0  0  0  0  0  0  0  0  0  0
   60.8545   73.1116   60.5619 H   0  0  0  0  0  0  0  0  0  0  0  0
   62.3790   73.9181   61.0639 H   0  0  0  0  0  0  0  0  0  0  0  0
   61.6388   72.6630   62.1144 H   0  0  0  0  0  0  0  0  0  0  0  0
   61.1586   70.4391   60.9178 H   0  0  0  0  0  0  0  0  0  0  0  0
   62.2913   68.3739   59.7195 H   0  0  0  0  0  0  0  0  0  0  0  0
   63.6443   69.4279   59.1855 H   0  0  0  0  0  0  0  0  0  0  0  0
   67.1432   70.8355   66.2162 H   0  0  0  0  0  0  0  0  0  0  0  0
   67.6727   70.8501   68.6589 H   0  0  0  0  0  0  0  0  0  0  0  0
   66.5889   72.5586   70.8200 H   0  0  0  0  0  0  0  0  0  0  0  0
   68.4741   73.7590   71.9475 H   0  0  0  0  0  0  0  0  0  0  0  0
   61.9408   70.9331   57.8406 H   0  0  0  0  0  0  0  0  0  0  0  0
   60.5878   69.8791   58.3745 H   0  0  0  0  0  0  0  0  0  0  0  0
   70.0809   69.9643   73.3109 H   0  0  0  0  0  0  0  0  0  0  0  0
   68.2018   68.7617   72.1834 H   0  0  0  0  0  0  0  0  0  0  0  0
  1 18  2  0  0  0  0
  1 25  1  0  0  0  0
  2  1  1  0  0  0  0
  2  3  2  0  0  0  0
  4  2  1  0  0  0  0
  4 17  1  0  0  0  0
  5  4  2  0  0  0  0
  5 26  1  0  0  0  0
  6  5  1  0  0  0  0
  6 27  1  0  0  0  0
  7  6  2  0  0  0  0
  7 16  1  0  0  0  0
  8  9  1  0  0  0  0
  8 21  1  0  0  0  0
  8 28  1  0  0  0  0
  8 29  1  0  0  0  0
  9 10  2  0  0  0  0
  9 30  1  0  0  0  0
 10 11  1  0  0  0  0
 10 31  1  0  0  0  0
 11 12  1  0  0  0  0
 11 32  1  0  0  0  0
 11 33  1  0  0  0  0
 12 13  1  0  0  0  0
 12 14  1  0  0  0  0
 12 34  1  6  0  0  0
 13 35  1  0  0  0  0
 13 36  1  0  0  0  0
 13 37  1  0  0  0  0
 14 15  1  0  0  0  0
 14 22  1  0  0  0  0
 14 38  1  0  0  0  0
 15 22  1  0  0  0  0
 15 39  1  0  0  0  0
 15 40  1  0  0  0  0
 16 17  2  0  0  0  0
 16 41  1  0  0  0  0
 17 42  1  0  0  0  0
 18 19  1  0  0  0  0
 18 43  1  0  0  0  0
 19 20  2  0  0  0  0
 19 44  1  0  0  0  0
 20 23  1  0  0  0  0
 20 24  1  0  0  0  0
 21  7  1  0  0  0  0
 22 45  1  0  0  0  0
 22 46  1  0  0  0  0
 24 25  2  0  0  0  0
 24 47  1  0  0  0  0
 25 48  1  0  0  0  0
M  CHG  1  12   1
M  END
