1h39_ligand
 OpenBabel08222323343D

 60 62  0  0  1  0  0  0  0  0999 V2000
   62.8900   69.3740   58.5870 C   0  0  0  0  0  0  0  0  0  0  0  0
   61.9930   69.4620   59.5790 C   0  0  0  0  0  0  0  0  0  0  0  0
   61.5190   70.7790   60.1670 C   0  0  0  0  0  0  0  0  0  0  0  0
   62.5280   71.4070   61.0700 N   0  3  2  0  0  0  0  0  0  0  0  0
   62.3000   71.0920   62.5110 C   0  0  0  0  0  0  0  0  0  0  0  0
   63.1560   69.9230   63.0730 C   0  0  0  0  0  0  0  0  0  0  0  0
   63.9750   70.3640   64.3160 C   0  0  0  0  0  0  0  0  0  0  0  0
   63.2170   70.0490   65.6410 C   0  0  0  0  0  0  0  0  0  0  0  0
   63.9320   68.9460   66.4700 C   0  0  0  0  0  0  0  0  0  0  0  0
   65.1380   69.5080   67.2640 C   0  0  0  0  0  0  0  0  0  0  0  0
   64.6590   70.0380   68.5190 O   0  0  0  0  0  0  0  0  0  0  0  0
   65.6330   70.6750   69.3060 C   0  0  0  0  0  0  0  0  0  0  0  0
   66.4590   69.9060   70.1890 C   0  0  0  0  0  0  0  0  0  0  0  0
   67.4360   70.5990   70.9720 C   0  0  0  0  0  0  0  0  0  0  0  0
   68.3120   70.1010   71.8580 N   0  0  0  0  0  0  0  0  0  0  0  0
   68.9630   71.0580   72.2970 N   0  0  0  0  0  0  0  0  0  0  0  0
   68.6080   72.2360   71.7760 C   0  0  0  0  0  0  0  0  0  0  0  0
   67.5760   71.9970   70.8720 C   0  0  0  0  0  0  0  0  0  0  0  0
   66.7640   72.7810   70.0020 C   0  0  0  0  0  0  0  0  0  0  0  0
   65.7880   72.0950   69.2190 C   0  0  0  0  0  0  0  0  0  0  0  0
   69.2490   73.5680   72.1390 C   0  0  0  0  0  0  0  0  0  0  0  0
   70.5660   73.8800   71.6870 C   0  0  0  0  0  0  0  0  0  0  0  0
   71.1800   75.1220   72.0260 C   0  0  0  0  0  0  0  0  0  0  0  0
   70.4800   76.0690   72.8270 C   0  0  0  0  0  0  0  0  0  0  0  0
   69.1580   75.7640   73.2820 C   0  0  0  0  0  0  0  0  0  0  0  0
   68.5450   74.5180   72.9390 C   0  0  0  0  0  0  0  0  0  0  0  0
   71.2900   77.6870   73.2790 Br  0  0  0  0  0  0  0  0  0  0  0  0
   68.4780   68.6970   72.2410 C   0  0  0  0  0  0  0  0  0  0  0  0
   62.5310   72.8870   60.8850 C   0  0  0  0  0  0  0  0  0  0  0  0
   63.1892   68.3977   58.2085 H   0  0  0  0  0  0  0  0  0  0  0  0
   63.3196   70.2788   58.1595 H   0  0  0  0  0  0  0  0  0  0  0  0
   61.5820   68.5389   59.9852 H   0  0  0  0  0  0  0  0  0  0  0  0
   60.5990   70.5963   60.7416 H   0  0  0  0  0  0  0  0  0  0  0  0
   61.3043   71.4748   59.3425 H   0  0  0  0  0  0  0  0  0  0  0  0
   63.4351   71.0500   60.8136 H   0  0  0  0  0  0  0  0  0  0  0  0
   61.2394   70.8300   62.6390 H   0  0  0  0  0  0  0  0  0  0  0  0
   62.5283   71.9942   63.0974 H   0  0  0  0  0  0  0  0  0  0  0  0
   63.8497   69.5799   62.2913 H   0  0  0  0  0  0  0  0  0  0  0  0
   62.4887   69.0968   63.3594 H   0  0  0  0  0  0  0  0  0  0  0  0
   64.1578   71.4471   64.2577 H   0  0  0  0  0  0  0  0  0  0  0  0
   64.9364   69.8295   64.3186 H   0  0  0  0  0  0  0  0  0  0  0  0
   62.2005   69.7071   65.3965 H   0  0  0  0  0  0  0  0  0  0  0  0
   63.1599   70.9667   66.2448 H   0  0  0  0  0  0  0  0  0  0  0  0
   64.2910   68.1635   65.7853 H   0  0  0  0  0  0  0  0  0  0  0  0
   63.2118   68.5111   67.1786 H   0  0  0  0  0  0  0  0  0  0  0  0
   65.6221   70.3082   66.6849 H   0  0  0  0  0  0  0  0  0  0  0  0
   65.8632   68.7032   67.4547 H   0  0  0  0  0  0  0  0  0  0  0  0
   66.3470   68.8303   70.2618 H   0  0  0  0  0  0  0  0  0  0  0  0
   66.8831   73.8565   69.9376 H   0  0  0  0  0  0  0  0  0  0  0  0
   65.1526   72.6596   68.5463 H   0  0  0  0  0  0  0  0  0  0  0  0
   71.1066   73.1642   71.0784 H   0  0  0  0  0  0  0  0  0  0  0  0
   72.1805   75.3454   71.6736 H   0  0  0  0  0  0  0  0  0  0  0  0
   68.6182   76.4811   73.8899 H   0  0  0  0  0  0  0  0  0  0  0  0
   67.5432   74.2944   73.2874 H   0  0  0  0  0  0  0  0  0  0  0  0
   69.2791   68.6136   72.9902 H   0  0  0  0  0  0  0  0  0  0  0  0
   68.7428   68.1036   71.3534 H   0  0  0  0  0  0  0  0  0  0  0  0
   67.5368   68.3194   72.6671 H   0  0  0  0  0  0  0  0  0  0  0  0
   62.6988   73.1235   59.8239 H   0  0  0  0  0  0  0  0  0  0  0  0
   63.3346   73.3307   61.4911 H   0  0  0  0  0  0  0  0  0  0  0  0
   61.5618   73.2983   61.2035 H   0  0  0  0  0  0  0  0  0  0  0  0
  1  2  2  0  0  0  0
  1 30  1  0  0  0  0
  1 31  1  0  0  0  0
  2  3  1  0  0  0  0
  2 32  1  0  0  0  0
  3  4  1  0  0  0  0
  3 33  1  0  0  0  0
  3 34  1  0  0  0  0
  4  5  1  0  0  0  0
  4 29  1  0  0  0  0
  4 35  1  6  0  0  0
  5  6  1  0  0  0  0
  5 36  1  0  0  0  0
  5 37  1  0  0  0  0
  6  7  1  0  0  0  0
  6 38  1  0  0  0  0
  6 39  1  0  0  0  0
  7  8  1  0  0  0  0
  7 40  1  0  0  0  0
  7 41  1  0  0  0  0
  8  9  1  0  0  0  0
  8 42  1  0  0  0  0
  8 43  1  0  0  0  0
  9 10  1  0  0  0  0
  9 44  1  0  0  0  0
  9 45  1  0  0  0  0
 10 11  1  0  0  0  0
 10 46  1  0  0  0  0
 10 47  1  0  0  0  0
 11 12  1  0  0  0  0
 12 13  2  0  0  0  0
 12 20  1  0  0  0  0
 13 14  1  0  0  0  0
 13 48  1  0  0  0  0
 14 15  1  0  0  0  0
 14 18  2  0  0  0  0
 15 16  1  0  0  0  0
 15 28  1  0  0  0  0
 16 17  2  0  0  0  0
 17 18  1  0  0  0  0
 17 21  1  0  0  0  0
 18 19  1  0  0  0  0
 19 20  2  0  0  0  0
 19 49  1  0  0  0  0
 20 50  1  0  0  0  0
 21 22  2  0  0  0  0
 21 26  1  0  0  0  0
 22 23  1  0  0  0  0
 22 51  1  0  0  0  0
 23 24  2  0  0  0  0
 23 52  1  0  0  0  0
 24 25  1  0  0  0  0
 24 27  1  0  0  0  0
 25 26  2  0  0  0  0
 25 53  1  0  0  0  0
 26 54  1  0  0  0  0
 28 55  1  0  0  0  0
 28 56  1  0  0  0  0
 28 57  1  0  0  0  0
 29 58  1  0  0  0  0
 29 59  1  0  0  0  0
 29 60  1  0  0  0  0
M  CHG  1   4   1
M  END
