1h3c_ligand
 OpenBabel08222323343D

 56 58  0  0  1  0  0  0  0  0999 V2000
   63.1060   69.2390   59.0870 C   0  0  0  0  0  0  0  0  0  0  0  0
   62.0440   69.9890   58.7510 C   0  0  0  0  0  0  0  0  0  0  0  0
   61.3890   71.0240   59.6580 C   0  0  0  0  0  0  0  0  0  0  0  0
   62.2950   71.5670   60.7140 N   0  3  2  0  0  0  0  0  0  0  0  0
   61.9190   71.1130   62.0840 C   0  0  0  0  0  0  0  0  0  0  0  0
   62.8840   70.0620   62.7100 C   0  0  0  0  0  0  0  0  0  0  0  0
   63.7150   70.6710   63.8690 C   0  0  0  0  0  0  0  0  0  0  0  0
   63.1200   70.2760   65.2450 C   0  0  0  0  0  0  0  0  0  0  0  0
   63.9080   69.1070   65.8830 C   0  0  0  0  0  0  0  0  0  0  0  0
   65.0700   69.6280   66.7630 C   0  0  0  0  0  0  0  0  0  0  0  0
   64.5380   70.1560   67.9960 O   0  0  0  0  0  0  0  0  0  0  0  0
   65.4980   70.6120   68.8960 C   0  0  0  0  0  0  0  0  0  0  0  0
   66.2660   69.6930   69.7000 C   0  0  0  0  0  0  0  0  0  0  0  0
   67.2230   70.2420   70.5810 C   0  0  0  0  0  0  0  0  0  0  0  0
   68.3130   69.3950   71.6850 S   0  0  0  0  0  0  0  0  0  0  0  0
   68.8950   70.8010   72.1360 N   0  0  0  0  0  0  0  0  0  0  0  0
   68.4070   71.9460   71.5910 C   0  0  0  0  0  0  0  0  0  0  0  0
   67.4130   71.6710   70.6650 C   0  0  0  0  0  0  0  0  0  0  0  0
   66.6430   72.5380   69.8700 C   0  0  0  0  0  0  0  0  0  0  0  0
   65.6960   71.9940   68.9960 C   0  0  0  0  0  0  0  0  0  0  0  0
   68.9810   73.2910   72.0370 C   0  0  0  0  0  0  0  0  0  0  0  0
   70.3450   73.5470   71.7720 C   0  0  0  0  0  0  0  0  0  0  0  0
   70.9500   74.7870   72.1750 C   0  0  0  0  0  0  0  0  0  0  0  0
   70.1960   75.7880   72.8500 C   0  0  0  0  0  0  0  0  0  0  0  0
   68.8170   75.5480   73.1260 C   0  0  0  0  0  0  0  0  0  0  0  0
   68.1990   74.2990   72.7230 C   0  0  0  0  0  0  0  0  0  0  0  0
   71.0330   77.3680   73.3660 Br  0  0  0  0  0  0  0  0  0  0  0  0
   62.3040   73.0610   60.6840 C   0  0  0  0  0  0  0  0  0  0  0  0
   63.5122   68.5209   58.3762 H   0  0  0  0  0  0  0  0  0  0  0  0
   63.5610   69.3489   60.0703 H   0  0  0  0  0  0  0  0  0  0  0  0
   61.6198   69.8474   57.7580 H   0  0  0  0  0  0  0  0  0  0  0  0
   60.5253   70.5543   60.1514 H   0  0  0  0  0  0  0  0  0  0  0  0
   61.0441   71.8617   59.0341 H   0  0  0  0  0  0  0  0  0  0  0  0
   63.2273   71.2371   60.5192 H   0  0  0  0  0  0  0  0  0  0  0  0
   60.9142   70.6682   62.0337 H   0  0  0  0  0  0  0  0  0  0  0  0
   61.8977   71.9936   62.7429 H   0  0  0  0  0  0  0  0  0  0  0  0
   63.5703   69.6986   61.9310 H   0  0  0  0  0  0  0  0  0  0  0  0
   62.2920   69.2204   63.0988 H   0  0  0  0  0  0  0  0  0  0  0  0
   63.7119   71.7671   63.7769 H   0  0  0  0  0  0  0  0  0  0  0  0
   64.7487   70.3005   63.8042 H   0  0  0  0  0  0  0  0  0  0  0  0
   62.0725   69.9695   65.1079 H   0  0  0  0  0  0  0  0  0  0  0  0
   63.1626   71.1458   65.9170 H   0  0  0  0  0  0  0  0  0  0  0  0
   64.3198   68.4736   65.0835 H   0  0  0  0  0  0  0  0  0  0  0  0
   63.2247   68.5121   66.5068 H   0  0  0  0  0  0  0  0  0  0  0  0
   65.6093   70.4223   66.2262 H   0  0  0  0  0  0  0  0  0  0  0  0
   65.7609   68.8015   66.9856 H   0  0  0  0  0  0  0  0  0  0  0  0
   66.1142   68.6219   69.6304 H   0  0  0  0  0  0  0  0  0  0  0  0
   66.7810   73.6113   69.9334 H   0  0  0  0  0  0  0  0  0  0  0  0
   65.1008   72.6592   68.3809 H   0  0  0  0  0  0  0  0  0  0  0  0
   70.9413   72.8007   71.2596 H   0  0  0  0  0  0  0  0  0  0  0  0
   71.9981   74.9628   71.9613 H   0  0  0  0  0  0  0  0  0  0  0  0
   68.2293   76.3011   73.6383 H   0  0  0  0  0  0  0  0  0  0  0  0
   67.1512   74.1199   72.9354 H   0  0  0  0  0  0  0  0  0  0  0  0
   62.5805   73.4058   59.6767 H   0  0  0  0  0  0  0  0  0  0  0  0
   63.0353   73.4380   61.4141 H   0  0  0  0  0  0  0  0  0  0  0  0
   61.3029   73.4389   60.9390 H   0  0  0  0  0  0  0  0  0  0  0  0
  1  2  2  0  0  0  0
  1 29  1  0  0  0  0
  1 30  1  0  0  0  0
  2  3  1  0  0  0  0
  2 31  1  0  0  0  0
  3  4  1  0  0  0  0
  3 32  1  0  0  0  0
  3 33  1  0  0  0  0
  4  5  1  0  0  0  0
  4 28  1  0  0  0  0
  4 34  1  6  0  0  0
  5  6  1  0  0  0  0
  5 35  1  0  0  0  0
  5 36  1  0  0  0  0
  6  7  1  0  0  0  0
  6 37  1  0  0  0  0
  6 38  1  0  0  0  0
  7  8  1  0  0  0  0
  7 39  1  0  0  0  0
  7 40  1  0  0  0  0
  8  9  1  0  0  0  0
  8 41  1  0  0  0  0
  8 42  1  0  0  0  0
  9 10  1  0  0  0  0
  9 43  1  0  0  0  0
  9 44  1  0  0  0  0
 10 11  1  0  0  0  0
 10 45  1  0  0  0  0
 10 46  1  0  0  0  0
 11 12  1  0  0  0  0
 12 13  2  0  0  0  0
 12 20  1  0  0  0  0
 13 14  1  0  0  0  0
 13 47  1  0  0  0  0
 14 15  1  0  0  0  0
 14 18  2  0  0  0  0
 15 16  1  0  0  0  0
 16 17  2  0  0  0  0
 17 18  1  0  0  0  0
 17 21  1  0  0  0  0
 18 19  1  0  0  0  0
 19 20  2  0  0  0  0
 19 48  1  0  0  0  0
 20 49  1  0  0  0  0
 21 22  2  0  0  0  0
 21 26  1  0  0  0  0
 22 23  1  0  0  0  0
 22 50  1  0  0  0  0
 23 24  2  0  0  0  0
 23 51  1  0  0  0  0
 24 25  1  0  0  0  0
 24 27  1  0  0  0  0
 25 26  2  0  0  0  0
 25 52  1  0  0  0  0
 26 53  1  0  0  0  0
 28 54  1  0  0  0  0
 28 55  1  0  0  0  0
 28 56  1  0  0  0  0
M  CHG  1   4   1
M  END
