1h60_ligand
 OpenBabel08222323343D

 53 56  0  0  1  0  0  0  0  0999 V2000
   20.4150   11.8220   20.9750 C   0  0  0  0  0  0  0  0  0  0  0  0
   20.2220   10.6980   22.2400 C   0  0  0  0  0  0  0  0  0  0  0  0
   20.1480    9.2870   21.6000 C   0  0  0  0  0  0  0  0  0  0  0  0
   19.4000    8.4530   22.3120 O   0  0  0  0  0  0  0  0  0  0  0  0
   20.8070    8.9330   20.3650 C   0  0  0  0  0  0  0  0  0  0  0  0
   21.5780    9.8770   19.8040 C   0  0  0  0  0  0  0  0  0  0  0  0
   22.4610    9.4270   18.6640 C   0  0  0  0  0  0  0  0  0  0  0  0
   22.2950   10.4040   17.5000 C   0  0  0  0  0  0  0  0  0  0  0  0
   22.6560   11.8440   17.7920 C   0  0  2  0  0  0  0  0  0  0  0  0
   21.5260   12.2770   18.8680 C   0  0  1  0  0  0  0  0  0  0  0  0
   21.6450   11.4490   20.1680 C   0  0  1  0  0  0  0  0  0  0  0  0
   21.5130   13.7670   19.1630 C   0  0  0  0  0  0  0  0  0  0  0  0
   21.4830   14.6370   17.7300 C   0  0  0  0  0  0  0  0  0  0  0  0
   22.6430   14.3040   16.8740 C   0  0  1  0  0  0  0  0  0  0  0  0
   22.3290   12.6130   16.6370 C   0  0  1  0  0  0  0  0  0  0  0  0
   23.1400   12.4240   15.3370 C   0  0  0  0  0  0  0  0  0  0  0  0
   22.9200   13.6880   14.5250 C   0  0  0  0  0  0  0  0  0  0  0  0
   22.4080   14.7380   15.4550 C   0  0  2  0  0  0  0  0  0  0  0  0
   24.1040   14.4890   17.2930 C   0  0  0  0  0  0  0  0  0  0  0  0
   22.9920   11.6700   20.9330 C   0  0  0  0  0  0  0  0  0  0  0  0
   23.0780   16.1940   15.0590 C   0  0  0  0  0  0  0  0  0  0  0  0
   24.0880   16.2660   14.6060 O   0  0  0  0  0  0  0  0  0  0  0  0
   22.1630   17.4860   15.8310 C   0  0  0  0  0  0  0  0  0  0  0  0
   20.5407   12.8313   21.3940 H   0  0  0  0  0  0  0  0  0  0  0  0
   19.5276   11.8025   20.3254 H   0  0  0  0  0  0  0  0  0  0  0  0
   19.2945   10.9093   22.7924 H   0  0  0  0  0  0  0  0  0  0  0  0
   21.0791   10.7546   22.9272 H   0  0  0  0  0  0  0  0  0  0  0  0
   20.6845    7.9502   19.9121 H   0  0  0  0  0  0  0  0  0  0  0  0
   22.1662    8.4167   18.3440 H   0  0  0  0  0  0  0  0  0  0  0  0
   23.5111    9.4162   18.9912 H   0  0  0  0  0  0  0  0  0  0  0  0
   21.2415   10.3775   17.1848 H   0  0  0  0  0  0  0  0  0  0  0  0
   22.9336   10.0568   16.6744 H   0  0  0  0  0  0  0  0  0  0  0  0
   23.6924   11.9816   18.1338 H   0  0  0  0  0  0  0  0  0  0  0  0
   20.5518   12.0355   18.4180 H   0  0  0  0  0  0  0  0  0  0  0  0
   22.4162   14.0334   19.7316 H   0  0  0  0  0  0  0  0  0  0  0  0
   20.6202   14.0127   19.7567 H   0  0  0  0  0  0  0  0  0  0  0  0
   21.5065   15.7118   17.9629 H   0  0  0  0  0  0  0  0  0  0  0  0
   20.5567   14.3998   17.1862 H   0  0  0  0  0  0  0  0  0  0  0  0
   21.2634   12.4354   16.4297 H   0  0  0  0  0  0  0  0  0  0  0  0
   22.7774   11.5452   14.7836 H   0  0  0  0  0  0  0  0  0  0  0  0
   24.2082   12.2975   15.5668 H   0  0  0  0  0  0  0  0  0  0  0  0
   22.1836   13.4997   13.7298 H   0  0  0  0  0  0  0  0  0  0  0  0
   23.8692   14.0153   14.0757 H   0  0  0  0  0  0  0  0  0  0  0  0
   21.3207   14.8275   15.3144 H   0  0  0  0  0  0  0  0  0  0  0  0
   24.2311   14.1601   18.3350 H   0  0  0  0  0  0  0  0  0  0  0  0
   24.3783   15.5508   17.2077 H   0  0  0  0  0  0  0  0  0  0  0  0
   24.7523   13.8890   16.6375 H   0  0  0  0  0  0  0  0  0  0  0  0
   23.0031   11.0509   21.8422 H   0  0  0  0  0  0  0  0  0  0  0  0
   23.0866   12.7303   21.2102 H   0  0  0  0  0  0  0  0  0  0  0  0
   23.8332   11.3841   20.2845 H   0  0  0  0  0  0  0  0  0  0  0  0
   22.6075   18.4574   15.5687 H   0  0  0  0  0  0  0  0  0  0  0  0
   22.1904   17.3531   16.9226 H   0  0  0  0  0  0  0  0  0  0  0  0
   21.1197   17.4545   15.4838 H   0  0  0  0  0  0  0  0  0  0  0  0
  1  2  1  0  0  0  0
  1 11  1  0  0  0  0
  1 24  1  0  0  0  0
  1 25  1  0  0  0  0
  2  3  1  0  0  0  0
  2 26  1  0  0  0  0
  2 27  1  0  0  0  0
  3  4  2  0  0  0  0
  3  5  1  0  0  0  0
  5  6  2  0  0  0  0
  5 28  1  0  0  0  0
  6  7  1  0  0  0  0
  6 11  1  0  0  0  0
  7  8  1  0  0  0  0
  7 29  1  0  0  0  0
  7 30  1  0  0  0  0
  8  9  1  0  0  0  0
  8 31  1  0  0  0  0
  8 32  1  0  0  0  0
  9 10  1  0  0  0  0
  9 15  1  0  0  0  0
  9 33  1  1  0  0  0
 10 11  1  0  0  0  0
 10 12  1  0  0  0  0
 10 34  1  6  0  0  0
 11 20  1  1  0  0  0
 12 13  1  0  0  0  0
 12 35  1  0  0  0  0
 12 36  1  0  0  0  0
 13 14  1  0  0  0  0
 13 37  1  0  0  0  0
 13 38  1  0  0  0  0
 14 15  1  0  0  0  0
 14 18  1  0  0  0  0
 14 19  1  1  0  0  0
 15 16  1  0  0  0  0
 15 39  1  6  0  0  0
 16 17  1  0  0  0  0
 16 40  1  0  0  0  0
 16 41  1  0  0  0  0
 17 18  1  0  0  0  0
 17 42  1  0  0  0  0
 17 43  1  0  0  0  0
 18 21  1  0  0  0  0
 18 44  1  6  0  0  0
 19 45  1  0  0  0  0
 19 46  1  0  0  0  0
 19 47  1  0  0  0  0
 20 48  1  0  0  0  0
 20 49  1  0  0  0  0
 20 50  1  0  0  0  0
 21 22  2  0  0  0  0
 21 23  1  0  0  0  0
 23 51  1  0  0  0  0
 23 52  1  0  0  0  0
 23 53  1  0  0  0  0
M  END
