1h7a_ligand
 OpenBabel08222323343D

 42 44  0  0  1  0  0  0  0  0999 V2000
   44.0960   39.5060   62.3610 P   0  0  0  0  0  0  0  0  0  0  0  0
   42.8480   39.0640   63.0020 O   0  0  0  0  0  1  0  0  0  0  0  0
   45.2740   39.4090   63.2330 O   0  0  0  0  0  1  0  0  0  0  0  0
   44.2540   38.9760   60.9710 O   0  0  0  0  0  0  0  0  0  0  0  0
   43.0210   42.1250   61.4110 P   0  0  1  0  0  0  0  0  0  0  0  0
   43.9250   43.1950   60.8060 O   0  0  0  0  0  1  0  0  0  0  0  0
   42.1760   41.2940   60.5320 O   0  0  0  0  0  0  0  0  0  0  0  0
   44.0050   41.1170   62.2600 O   0  0  0  0  0  0  0  0  0  0  0  0
   42.1320   42.6180   64.1780 P   0  0  1  0  0  0  0  0  0  0  0  0
   41.8160   41.1970   64.4040 O   0  0  0  0  0  1  0  0  0  0  0  0
   43.3500   43.2100   64.8100 O   0  0  0  0  0  0  0  0  0  0  0  0
   42.1930   42.8100   62.5950 O   0  0  0  0  0  0  0  0  0  0  0  0
   40.8830   43.3720   64.6240 O   0  0  0  0  0  0  0  0  0  0  0  0
   39.7120   43.1210   63.9290 C   0  0  0  0  0  0  0  0  0  0  0  0
   38.5000   43.7840   64.4870 C   0  0  1  0  0  0  0  0  0  0  0  0
   38.7020   45.2140   64.4180 O   0  0  0  0  0  0  0  0  0  0  0  0
   37.3280   43.4950   63.6230 C   0  0  1  0  0  0  0  0  0  0  0  0
   36.1240   43.7560   64.3870 O   0  0  0  0  0  0  0  0  0  0  0  0
   37.6510   44.4330   62.4650 C   0  0  0  0  0  0  0  0  0  0  0  0
   38.2050   45.7160   63.1570 C   0  0  2  0  0  0  0  0  0  0  0  0
   39.3700   46.4140   62.5080 N   0  0  0  0  0  0  0  0  0  0  0  0
   40.4790   45.9000   61.9030 C   0  0  0  0  0  0  0  0  0  0  0  0
   41.3250   46.7780   61.4560 N   0  0  0  0  0  0  0  0  0  0  0  0
   40.7280   47.9810   61.7860 C   0  0  0  0  0  0  0  0  0  0  0  0
   41.1120   49.3610   61.5930 C   0  0  0  0  0  0  0  0  0  0  0  0
   42.2460   49.6900   61.0070 N   0  0  0  0  0  0  0  0  0  0  0  0
   40.2990   50.3380   62.0350 N   0  0  0  0  0  0  0  0  0  0  0  0
   39.1530   50.0060   62.6350 C   0  0  0  0  0  0  0  0  0  0  0  0
   38.6700   48.7600   62.8820 N   0  0  0  0  0  0  0  0  0  0  0  0
   39.5300   47.7760   62.4170 C   0  0  0  0  0  0  0  0  0  0  0  0
   39.5392   42.0347   63.9307 H   0  0  0  0  0  0  0  0  0  0  0  0
   39.8468   43.4692   62.8943 H   0  0  0  0  0  0  0  0  0  0  0  0
   38.3191   43.4539   65.5206 H   0  0  0  0  0  0  0  0  0  0  0  0
   37.3070   42.4509   63.2775 H   0  0  0  0  0  0  0  0  0  0  0  0
   35.3629   43.5757   63.8479 H   0  0  0  0  0  0  0  0  0  0  0  0
   36.7454   44.6628   61.8844 H   0  0  0  0  0  0  0  0  0  0  0  0
   38.4085   43.9889   61.8025 H   0  0  0  0  0  0  0  0  0  0  0  0
   37.3879   46.4394   63.2953 H   0  0  0  0  0  0  0  0  0  0  0  0
   40.6436   44.8283   61.8018 H   0  0  0  0  0  0  0  0  0  0  0  0
   42.4929   50.6823   60.8834 H   0  0  0  0  0  0  0  0  0  0  0  0
   42.8852   48.9548   60.6727 H   0  0  0  0  0  0  0  0  0  0  0  0
   38.5323   50.8311   62.9653 H   0  0  0  0  0  0  0  0  0  0  0  0
  1  2  1  0  0  0  0
  1  3  1  0  0  0  0
  1  4  2  0  0  0  0
  5  6  1  6  0  0  0
  5  7  2  0  0  0  0
  5  8  1  0  0  0  0
  8  1  1  0  0  0  0
  9 10  1  1  0  0  0
  9 11  2  0  0  0  0
  9 12  1  0  0  0  0
  9 13  1  0  0  0  0
 12  5  1  0  0  0  0
 13 14  1  0  0  0  0
 14 15  1  0  0  0  0
 14 31  1  0  0  0  0
 14 32  1  0  0  0  0
 15 16  1  0  0  0  0
 15 17  1  0  0  0  0
 15 33  1  1  0  0  0
 16 20  1  0  0  0  0
 17 18  1  0  0  0  0
 17 19  1  0  0  0  0
 17 34  1  6  0  0  0
 18 35  1  0  0  0  0
 19 20  1  0  0  0  0
 19 36  1  0  0  0  0
 19 37  1  0  0  0  0
 20 21  1  0  0  0  0
 20 38  1  1  0  0  0
 21 22  1  0  0  0  0
 21 30  1  0  0  0  0
 22 23  2  0  0  0  0
 22 39  1  0  0  0  0
 23 24  1  0  0  0  0
 24 25  2  0  0  0  0
 24 30  1  0  0  0  0
 25 26  1  0  0  0  0
 25 27  1  0  0  0  0
 26 40  1  0  0  0  0
 26 41  1  0  0  0  0
 27 28  2  0  0  0  0
 28 29  1  0  0  0  0
 28 42  1  0  0  0  0
 29 30  2  0  0  0  0
M  END
