1h8l_ligand
 OpenBabel08222323343D

 27 26  0  0  1  0  0  0  0  0999 V2000
    7.0100   32.2560   20.7660 C   0  0  2  0  0  0  0  0  0  0  0  0
    7.5360   33.2220   19.3330 S   0  0  0  0  0  0  0  0  0  0  0  0
    9.3180   33.2250   19.5500 C   0  0  0  0  0  0  0  0  0  0  0  0
    9.9740   32.2230   18.6110 C   0  0  0  0  0  0  0  0  0  0  0  0
   10.1420   30.9160   19.2300 N   0  0  0  0  0  0  0  0  0  0  0  0
   10.2990   29.7810   18.5560 C   0  0  0  0  0  3  0  0  0  0  0  0
   10.2990   29.7750   17.2320 N   0  0  0  0  0  0  0  0  0  0  0  0
   10.4840   28.6500   19.2140 N   0  0  0  0  0  0  0  0  0  0  0  0
    5.5250   31.9020   20.6560 C   0  0  0  0  0  0  0  0  0  0  0  0
    4.9870   31.7710   19.5460 O   0  5  0  0  0  0  0  0  0  0  0  0
    4.8890   31.7880   21.7140 O   0  0  0  0  0  0  0  0  0  0  0  0
    7.2940   32.9380   22.1230 C   0  0  0  0  0  0  0  0  0  0  0  0
    6.3480   34.0760   22.4230 C   0  0  0  0  0  0  0  0  0  0  0  0
    6.8520   35.1110   22.8660 O   0  5  0  0  0  0  0  0  0  0  0  0
    5.1100   33.9240   22.3490 O   0  0  0  0  0  0  0  0  0  0  0  0
    7.5823   31.3168   20.7496 H   0  0  0  0  0  0  0  0  0  0  0  0
    9.5560   32.9555   20.5896 H   0  0  0  0  0  0  0  0  0  0  0  0
    9.7068   34.2310   19.3338 H   0  0  0  0  0  0  0  0  0  0  0  0
   10.9629   32.6062   18.3191 H   0  0  0  0  0  0  0  0  0  0  0  0
    9.3447   32.1124   17.7156 H   0  0  0  0  0  0  0  0  0  0  0  0
   10.1390   30.8675   20.2589 H   0  0  0  0  0  0  0  0  0  0  0  0
   10.4215   28.8891   16.7210 H   0  0  0  0  0  0  0  0  0  0  0  0
   10.1765   30.6562   16.7130 H   0  0  0  0  0  0  0  0  0  0  0  0
   10.4851   28.6477   20.2440 H   0  0  0  0  0  0  0  0  0  0  0  0
   10.6271   27.7708   18.6969 H   0  0  0  0  0  0  0  0  0  0  0  0
    8.3213   33.3311   22.1092 H   0  0  0  0  0  0  0  0  0  0  0  0
    7.2000   32.1853   22.9196 H   0  0  0  0  0  0  0  0  0  0  0  0
  1  2  1  0  0  0  0
  1  9  1  0  0  0  0
  1 12  1  0  0  0  0
  1 16  1  6  0  0  0
  2  3  1  0  0  0  0
  3  4  1  0  0  0  0
  3 17  1  0  0  0  0
  3 18  1  0  0  0  0
  4  5  1  0  0  0  0
  4 19  1  0  0  0  0
  4 20  1  0  0  0  0
  5  6  1  0  0  0  0
  5 21  1  0  0  0  0
  6  7  1  0  0  0  0
  6  8  1  0  0  0  0
  7 22  1  0  0  0  0
  7 23  1  0  0  0  0
  8 24  1  0  0  0  0
  8 25  1  0  0  0  0
  9 10  1  0  0  0  0
  9 11  2  0  0  0  0
 12 13  1  0  0  0  0
 12 26  1  0  0  0  0
 12 27  1  0  0  0  0
 13 14  1  0  0  0  0
 13 15  2  0  0  0  0
M  CHG  2  10  -1  14  -1
M  END
