1h9l_ligand
 OpenBabel08222323343D

 67 67  0  0  1  0  0  0  0  0999 V2000
  -18.1450   17.2080   39.9100 N   0  3  0  0  0  0  0  0  0  0  0  0
  -16.8940   17.9720   40.2010 C   0  0  2  0  0  0  0  0  0  0  0  0
  -15.9740   18.0850   38.9800 C   0  0  0  0  0  0  0  0  0  0  0  0
  -15.5660   17.0770   38.3840 O   0  0  0  0  0  0  0  0  0  0  0  0
  -16.1710   17.3430   41.4090 C   0  0  0  0  0  0  0  0  0  0  0  0
  -16.5310   15.8550   41.5420 C   0  0  0  0  0  0  0  0  0  0  0  0
  -14.6750   17.5680   41.3400 C   0  0  0  0  0  0  0  0  0  0  0  0
  -15.5870   19.3140   38.6350 N   0  0  0  0  0  0  0  0  0  0  0  0
  -14.6860   19.5360   37.4760 C   0  0  2  0  0  0  0  0  0  0  0  0
  -13.2570   20.1560   37.7230 C   0  0  0  0  0  0  0  0  0  0  0  0
  -13.1150   21.3740   37.9040 O   0  0  0  0  0  0  0  0  0  0  0  0
  -15.3990   20.3200   36.3740 C   0  0  0  0  0  0  0  0  0  0  0  0
  -14.4990   20.7110   35.2090 C   0  0  0  0  0  0  0  0  0  0  0  0
  -14.7440   19.9170   33.9140 C   0  0  0  0  0  0  0  0  0  0  0  0
  -15.5440   18.9750   33.9040 O   0  5  0  0  0  0  0  0  0  0  0  0
  -14.1300   20.2580   32.8760 O   0  0  0  0  0  0  0  0  0  0  0  0
  -12.1940   19.3450   37.7020 N   0  0  0  0  0  0  0  0  0  0  0  0
  -10.8220   19.8720   37.8990 C   0  0  2  0  0  0  0  0  0  0  0  0
  -10.5120   21.0310   36.9790 C   0  0  0  0  0  0  0  0  0  0  0  0
  -10.5100   20.8810   35.7480 O   0  0  0  0  0  0  0  0  0  0  0  0
   -9.9220   18.6880   37.5430 C   0  0  0  0  0  0  0  0  0  0  0  0
  -10.7660   17.5060   37.8500 C   0  0  0  0  0  0  0  0  0  0  0  0
  -12.1840   17.8880   37.4880 C   0  0  0  0  0  0  0  0  0  0  0  0
  -10.2280   22.1890   37.5620 N   0  0  0  0  0  0  0  0  0  0  0  0
   -9.9110   23.3100   36.7180 C   0  0  2  0  0  0  0  0  0  0  0  0
   -8.5890   23.9230   36.9780 C   0  0  0  0  0  0  0  0  0  0  0  0
   -8.5840   25.0770   36.6040 O   0  0  0  0  0  0  0  0  0  0  0  0
  -10.8380   24.4810   36.8810 C   0  0  2  0  0  0  0  0  0  0  0  0
  -10.9380   24.9450   38.3340 C   0  0  0  0  0  0  0  0  0  0  0  0
  -12.2030   24.2120   36.2790 C   0  0  0  0  0  0  0  0  0  0  0  0
  -10.5470   26.4140   38.4910 C   0  0  0  0  0  0  0  0  0  0  0  0
  -18.6152   17.6215   39.1201 H   0  0  0  0  0  0  0  0  0  0  0  0
  -18.7513   17.2370   40.7147 H   0  0  0  0  0  0  0  0  0  0  0  0
  -17.9124   16.2502   39.6988 H   0  0  0  0  0  0  0  0  0  0  0  0
  -17.1871   18.9944   40.4816 H   0  0  0  0  0  0  0  0  0  0  0  0
  -16.5349   17.8511   42.3142 H   0  0  0  0  0  0  0  0  0  0  0  0
  -16.0055   15.4267   42.4082 H   0  0  0  0  0  0  0  0  0  0  0  0
  -16.2283   15.3214   40.6290 H   0  0  0  0  0  0  0  0  0  0  0  0
  -17.6169   15.7517   41.6841 H   0  0  0  0  0  0  0  0  0  0  0  0
  -14.4701   18.6446   41.2457 H   0  0  0  0  0  0  0  0  0  0  0  0
  -14.2645   17.0388   40.4674 H   0  0  0  0  0  0  0  0  0  0  0  0
  -14.2038   17.1841   42.2568 H   0  0  0  0  0  0  0  0  0  0  0  0
  -15.9088   20.0983   39.1654 H   0  0  0  0  0  0  0  0  0  0  0  0
  -14.4944   18.5303   37.0736 H   0  0  0  0  0  0  0  0  0  0  0  0
  -15.8119   21.2390   36.8154 H   0  0  0  0  0  0  0  0  0  0  0  0
  -16.2195   19.6998   35.9839 H   0  0  0  0  0  0  0  0  0  0  0  0
  -13.4542   20.5537   35.5151 H   0  0  0  0  0  0  0  0  0  0  0  0
  -14.6613   21.7773   34.9932 H   0  0  0  0  0  0  0  0  0  0  0  0
  -10.6744   20.1836   38.9436 H   0  0  0  0  0  0  0  0  0  0  0  0
   -9.0093   18.6894   38.1570 H   0  0  0  0  0  0  0  0  0  0  0  0
   -9.6476   18.7091   36.4780 H   0  0  0  0  0  0  0  0  0  0  0  0
  -10.7000   17.2589   38.9198 H   0  0  0  0  0  0  0  0  0  0  0  0
  -10.4409   16.6411   37.2532 H   0  0  0  0  0  0  0  0  0  0  0  0
  -12.4058   17.6400   36.4395 H   0  0  0  0  0  0  0  0  0  0  0  0
  -12.9095   17.3860   38.1449 H   0  0  0  0  0  0  0  0  0  0  0  0
  -10.2342   22.2795   38.5579 H   0  0  0  0  0  0  0  0  0  0  0  0
   -9.9498   22.9529   35.6783 H   0  0  0  0  0  0  0  0  0  0  0  0
   -7.7441   23.4125   37.4379 H   0  0  0  0  0  0  0  0  0  0  0  0
  -10.3984   25.3137   36.3124 H   0  0  0  0  0  0  0  0  0  0  0  0
  -10.2660   24.3302   38.9508 H   0  0  0  0  0  0  0  0  0  0  0  0
  -11.9743   24.8140   38.6787 H   0  0  0  0  0  0  0  0  0  0  0  0
  -12.0853   23.8816   35.2364 H   0  0  0  0  0  0  0  0  0  0  0  0
  -12.8037   25.1331   36.3061 H   0  0  0  0  0  0  0  0  0  0  0  0
  -12.7105   23.4261   36.8576 H   0  0  0  0  0  0  0  0  0  0  0  0
  -10.6329   26.7053   39.5482 H   0  0  0  0  0  0  0  0  0  0  0  0
  -11.2175   27.0389   37.8829 H   0  0  0  0  0  0  0  0  0  0  0  0
   -9.5091   26.5552   38.1550 H   0  0  0  0  0  0  0  0  0  0  0  0
  1  2  1  0  0  0  0
  1 32  1  0  0  0  0
  1 33  1  0  0  0  0
  1 34  1  0  0  0  0
  2  3  1  0  0  0  0
  2  5  1  0  0  0  0
  2 35  1  1  0  0  0
  3  4  2  0  0  0  0
  3  8  1  0  0  0  0
  5  6  1  0  0  0  0
  5  7  1  0  0  0  0
  5 36  1  0  0  0  0
  6 37  1  0  0  0  0
  6 38  1  0  0  0  0
  6 39  1  0  0  0  0
  7 40  1  0  0  0  0
  7 41  1  0  0  0  0
  7 42  1  0  0  0  0
  8  9  1  0  0  0  0
  8 43  1  0  0  0  0
  9 10  1  0  0  0  0
  9 12  1  0  0  0  0
  9 44  1  6  0  0  0
 10 11  2  0  0  0  0
 10 17  1  0  0  0  0
 12 13  1  0  0  0  0
 12 45  1  0  0  0  0
 12 46  1  0  0  0  0
 13 14  1  0  0  0  0
 13 47  1  0  0  0  0
 13 48  1  0  0  0  0
 14 15  1  0  0  0  0
 14 16  2  0  0  0  0
 17 18  1  0  0  0  0
 17 23  1  0  0  0  0
 18 19  1  0  0  0  0
 18 21  1  0  0  0  0
 18 49  1  1  0  0  0
 19 20  2  0  0  0  0
 19 24  1  0  0  0  0
 21 22  1  0  0  0  0
 21 50  1  0  0  0  0
 21 51  1  0  0  0  0
 22 23  1  0  0  0  0
 22 52  1  0  0  0  0
 22 53  1  0  0  0  0
 23 54  1  0  0  0  0
 23 55  1  0  0  0  0
 24 25  1  0  0  0  0
 24 56  1  0  0  0  0
 25 26  1  0  0  0  0
 25 28  1  0  0  0  0
 25 57  1  6  0  0  0
 26 27  2  0  0  0  0
 26 58  1  0  0  0  0
 28 29  1  0  0  0  0
 28 30  1  0  0  0  0
 28 59  1  6  0  0  0
 29 31  1  0  0  0  0
 29 60  1  0  0  0  0
 29 61  1  0  0  0  0
 30 62  1  0  0  0  0
 30 63  1  0  0  0  0
 30 64  1  0  0  0  0
 31 65  1  0  0  0  0
 31 66  1  0  0  0  0
 31 67  1  0  0  0  0
M  CHG  2   1   1  15  -1
M  END
