1haa_ligand
 OpenBabel08222323343D

225231  0  0  1  0  0  0  0  0999 V2000
    4.5010    1.1870  -10.9010 N   0  3  0  0  0  0  0  0  0  0  0  0
    5.4240    1.6280   -9.8220 C   0  0  2  0  0  0  0  0  0  0  0  0
    4.7080    1.6990   -8.4790 C   0  0  0  0  0  0  0  0  0  0  0  0
    3.4840    1.8160   -8.4230 O   0  0  0  0  0  0  0  0  0  0  0  0
    5.9870    3.0010  -10.1940 C   0  0  0  0  0  0  0  0  0  0  0  0
    4.9410    4.0700  -10.3030 C   0  0  0  0  0  0  0  0  0  0  0  0
    4.1330    4.5320   -9.3050 C   0  0  0  0  0  0  0  0  0  0  0  0
    4.5930    4.8110  -11.4780 C   0  0  0  0  0  0  0  0  0  0  0  0
    3.3040    5.5170   -9.7870 N   0  0  0  0  0  0  0  0  0  0  0  0
    3.5670    5.7060  -11.1190 C   0  0  0  0  0  0  0  0  0  0  0  0
    5.0500    4.8070  -12.7990 C   0  0  0  0  0  0  0  0  0  0  0  0
    2.9920    6.5850  -12.0320 C   0  0  0  0  0  0  0  0  0  0  0  0
    4.4780    5.6800  -13.7050 C   0  0  0  0  0  0  0  0  0  0  0  0
    3.4590    6.5590  -13.3180 C   0  0  0  0  0  0  0  0  0  0  0  0
    5.4770    1.6340   -7.3960 N   0  0  0  0  0  0  0  0  0  0  0  0
    4.9100    1.6980   -6.0550 C   0  0  2  0  0  0  0  0  0  0  0  0
    5.9070    2.3270   -5.0970 C   0  0  0  0  0  0  0  0  0  0  0  0
    6.9060    2.9000   -5.5240 O   0  0  0  0  0  0  0  0  0  0  0  0
    4.5030    0.3030   -5.5720 C   0  0  0  0  0  0  0  0  0  0  0  0
    5.6740   -0.6170   -5.2690 C   0  0  0  0  0  0  0  0  0  0  0  0
    6.1870   -1.3030   -6.5240 C   0  0  0  0  0  0  0  0  0  0  0  0
    7.5300   -1.8420   -6.3370 N   0  0  0  0  0  0  0  0  0  0  0  0
    8.1960   -2.5200   -7.2700 C   0  0  0  0  0  3  0  0  0  0  0  0
    7.6460   -2.7420   -8.4570 N   0  0  0  0  0  0  0  0  0  0  0  0
    9.4140   -2.9760   -7.0140 N   0  0  0  0  0  0  0  0  0  0  0  0
    5.6400    2.2220   -3.8040 N   0  0  0  0  0  0  0  0  0  0  0  0
    6.5370    2.7930   -2.8100 C   0  0  2  0  0  0  0  0  0  0  0  0
    7.0720    1.7120   -1.8880 C   0  0  0  0  0  0  0  0  0  0  0  0
    6.4320    0.6840   -1.6920 O   0  0  0  0  0  0  0  0  0  0  0  0
    5.8220    3.8530   -1.9720 C   0  0  0  0  0  0  0  0  0  0  0  0
    5.0120    4.8470   -2.7770 C   0  0  0  0  0  0  0  0  0  0  0  0
    3.9560    4.4370   -3.5820 C   0  0  0  0  0  0  0  0  0  0  0  0
    5.3060    6.2030   -2.7240 C   0  0  0  0  0  0  0  0  0  0  0  0
    3.2190    5.3520   -4.3100 C   0  0  0  0  0  0  0  0  0  0  0  0
    4.5740    7.1220   -3.4500 C   0  0  0  0  0  0  0  0  0  0  0  0
    3.5320    6.6900   -4.2400 C   0  0  0  0  0  0  0  0  0  0  0  0
    2.7940    7.6010   -4.9580 O   0  0  0  0  0  0  0  0  0  0  0  0
    8.2370    1.9590   -1.3100 N   0  0  0  0  0  0  0  0  0  0  0  0
    8.8440    1.0210   -0.3870 C   0  0  2  0  0  0  0  0  0  0  0  0
    8.5380    1.4570    1.0410 C   0  0  0  0  0  0  0  0  0  0  0  0
    8.1410    2.5970    1.2750 O   0  0  0  0  0  0  0  0  0  0  0  0
   10.3540    0.9390   -0.6260 C   0  0  0  0  0  0  0  0  0  0  0  0
   10.7310    0.5090   -2.0320 C   0  0  0  0  0  0  0  0  0  0  0  0
    9.7750    0.0620   -2.9380 C   0  0  0  0  0  0  0  0  0  0  0  0
   12.0540    0.5380   -2.4440 C   0  0  0  0  0  0  0  0  0  0  0  0
   10.1320   -0.3420   -4.2100 C   0  0  0  0  0  0  0  0  0  0  0  0
   12.4180    0.1370   -3.7150 C   0  0  0  0  0  0  0  0  0  0  0  0
   11.4540   -0.3020   -4.5930 C   0  0  0  0  0  0  0  0  0  0  0  0
   11.8130   -0.7030   -5.8600 O   0  0  0  0  0  0  0  0  0  0  0  0
    8.7030    0.5490    1.9870 N   0  0  0  0  0  0  0  0  0  0  0  0
    8.4180    0.8540    3.3870 C   0  0  2  0  0  0  0  0  0  0  0  0
    9.4450    1.8250    3.9610 C   0  0  0  0  0  0  0  0  0  0  0  0
    9.1540    2.5750    4.8930 O   0  0  0  0  0  0  0  0  0  0  0  0
    8.4020   -0.4290    4.2170 C   0  0  0  0  0  0  0  0  0  0  0  0
    8.0620   -0.2020    5.6810 C   0  0  0  0  0  0  0  0  0  0  0  0
    8.2890   -1.4370    6.5310 C   0  0  0  0  0  0  0  0  0  0  0  0
    9.4490   -1.8890    6.6220 O   0  5  0  0  0  0  0  0  0  0  0  0
    7.3060   -1.9520    7.1040 O   0  0  0  0  0  0  0  0  0  0  0  0
   10.6510    1.7900    3.4090 N   0  0  0  0  0  0  0  0  0  0  0  0
   11.7340    2.6490    3.8710 C   0  0  2  0  0  0  0  0  0  0  0  0
   11.4690    4.1270    3.5760 C   0  0  0  0  0  0  0  0  0  0  0  0
   12.1530    4.9990    4.1130 O   0  0  0  0  0  0  0  0  0  0  0  0
   13.0510    2.2180    3.2230 C   0  0  0  0  0  0  0  0  0  0  0  0
   13.2340    2.8430    1.9640 O   0  0  0  0  0  0  0  0  0  0  0  0
   10.4890    4.4140    2.7220 N   0  0  0  0  0  0  0  0  0  0  0  0
   10.1760    5.7990    2.3800 C   0  0  2  0  0  0  0  0  0  0  0  0
    8.7370    5.9590    1.8970 C   0  0  0  0  0  0  0  0  0  0  0  0
    7.9810    4.9920    1.8210 O   0  0  0  0  0  0  0  0  0  0  0  0
   11.1400    6.3060    1.3170 C   0  0  0  0  0  0  0  0  0  0  0  0
   11.8700    7.4280    1.7810 O   0  0  0  0  0  0  0  0  0  0  0  0
    8.3730    7.1970    1.5680 N   0  0  0  0  0  0  0  0  0  0  0  0
    7.0310    7.5070    1.0840 C   0  0  2  0  0  0  0  0  0  0  0  0
    7.0670    8.0110   -0.3590 C   0  0  0  0  0  0  0  0  0  0  0  0
    6.0440    8.4240   -0.9040 O   0  0  0  0  0  0  0  0  0  0  0  0
    6.3770    8.5690    1.9730 C   0  0  0  0  0  0  0  0  0  0  0  0
    5.7750    8.0590    3.2850 C   0  0  0  0  0  0  0  0  0  0  0  0
    5.0040    9.1700    3.9820 C   0  0  0  0  0  0  0  0  0  0  0  0
    4.8690    6.8640    3.0340 C   0  0  0  0  0  0  0  0  0  0  0  0
    8.2490    7.9870   -0.9730 N   0  0  0  0  0  0  0  0  0  0  0  0
    8.4050    8.4540   -2.3460 C   0  0  2  0  0  0  0  0  0  0  0  0
    8.0680    7.3510   -3.3480 C   0  0  0  0  0  0  0  0  0  0  0  0
    8.0900    6.1670   -3.0130 O   0  0  0  0  0  0  0  0  0  0  0  0
    9.8340    8.9490   -2.5770 C   0  0  0  0  0  0  0  0  0  0  0  0
   10.0210   10.4260   -2.2710 C   0  0  0  0  0  0  0  0  0  0  0  0
   11.3660   10.7240   -1.6360 C   0  0  0  0  0  0  0  0  0  0  0  0
   11.5440   10.3990   -0.4440 O   0  5  0  0  0  0  0  0  0  0  0  0
   12.2390   11.2830   -2.3320 O   0  0  0  0  0  0  0  0  0  0  0  0
    7.7560    7.7320   -4.6010 N   0  0  0  0  0  0  0  0  0  0  0  0
    7.4160    6.7820   -5.6600 C   0  0  2  0  0  0  0  0  0  0  0  0
    8.6340    5.9910   -6.1050 C   0  0  0  0  0  0  0  0  0  0  0  0
    9.7470    6.5160   -6.1430 O   0  0  0  0  0  0  0  0  0  0  0  0
    6.8960    7.6680   -6.8050 C   0  0  0  0  0  0  0  0  0  0  0  0
    6.7270    9.0290   -6.2120 C   0  0  0  0  0  0  0  0  0  0  0  0
    7.7130    9.1120   -5.0850 C   0  0  0  0  0  0  0  0  0  0  0  0
    8.4260    4.7210   -6.4160 N   0  0  0  0  0  0  0  0  0  0  0  0
    9.5200    3.8570   -6.8270 C   0  0  2  0  0  0  0  0  0  0  0  0
    9.1460    3.0190   -8.0490 C   0  0  0  0  0  0  0  0  0  0  0  0
    8.4010    2.0450   -7.9380 O   0  0  0  0  0  0  0  0  0  0  0  0
    9.9090    2.9480   -5.6640 C   0  0  0  0  0  0  0  0  0  0  0  0
   10.9500    3.5540   -4.7440 C   0  0  0  0  0  0  0  0  0  0  0  0
   10.6910    4.7320   -4.0440 C   0  0  0  0  0  0  0  0  0  0  0  0
   12.1910    2.9530   -4.5720 C   0  0  0  0  0  0  0  0  0  0  0  0
   11.6390    5.2850   -3.2040 C   0  0  0  0  0  0  0  0  0  0  0  0
   13.1420    3.5030   -3.7330 C   0  0  0  0  0  0  0  0  0  0  0  0
   12.8610    4.6670   -3.0520 C   0  0  0  0  0  0  0  0  0  0  0  0
   13.8060    5.2160   -2.2160 O   0  0  0  0  0  0  0  0  0  0  0  0
    9.6650    3.3840   -9.2370 N   0  0  0  0  0  0  0  0  0  0  0  0
    9.3840    2.6570  -10.4770 C   0  0  2  0  0  0  0  0  0  0  0  0
   10.1880    1.3660  -10.5840 C   0  0  0  0  0  0  0  0  0  0  0  0
   11.0560    1.0920   -9.7550 O   0  0  0  0  0  0  0  0  0  0  0  0
    9.8110    3.6450  -11.5600 C   0  0  0  0  0  0  0  0  0  0  0  0
   10.9020    4.4400  -10.9300 C   0  0  0  0  0  0  0  0  0  0  0  0
   10.5660    4.5320   -9.4640 C   0  0  0  0  0  0  0  0  0  0  0  0
    9.8930    0.5750  -11.6110 N   0  0  0  0  0  0  0  0  0  0  0  0
   10.5880   -0.6880  -11.8270 C   0  0  2  0  0  0  0  0  0  0  0  0
   10.6660   -1.0200  -13.3130 C   0  0  0  0  0  0  0  0  0  0  0  0
   11.3720   -1.9870  -13.6670 O   0  5  0  0  0  0  0  0  0  0  0  0
    9.8810   -1.8180  -11.0760 C   0  0  0  0  0  0  0  0  0  0  0  0
    8.4290   -1.9630  -11.4860 C   0  0  0  0  0  0  0  0  0  0  0  0
    7.8660   -0.9910  -12.0320 O   0  5  0  0  0  0  0  0  0  0  0  0
    7.8540   -3.0490  -11.2600 O   0  0  0  0  0  0  0  0  0  0  0  0
   10.0180   -0.3100  -14.1110 O   0  0  0  0  0  0  0  0  0  0  0  0
    5.0004    1.1492  -11.7758 H   0  0  0  0  0  0  0  0  0  0  0  0
    3.7375    1.8406  -10.9780 H   0  0  0  0  0  0  0  0  0  0  0  0
    4.1394    0.2722  -10.6808 H   0  0  0  0  0  0  0  0  0  0  0  0
    6.2514    0.9076   -9.7421 H   0  0  0  0  0  0  0  0  0  0  0  0
    6.4991    2.9156  -11.1638 H   0  0  0  0  0  0  0  0  0  0  0  0
    6.7111    3.3006   -9.4220 H   0  0  0  0  0  0  0  0  0  0  0  0
    4.1434    4.1729   -8.2770 H   0  0  0  0  0  0  0  0  0  0  0  0
    2.6000    6.0295   -9.2369 H   0  0  0  0  0  0  0  0  0  0  0  0
    5.8393    4.1310  -13.1074 H   0  0  0  0  0  0  0  0  0  0  0  0
    2.2025    7.2659  -11.7351 H   0  0  0  0  0  0  0  0  0  0  0  0
    4.8240    5.6843  -14.7323 H   0  0  0  0  0  0  0  0  0  0  0  0
    3.0315    7.2325  -14.0520 H   0  0  0  0  0  0  0  0  0  0  0  0
    6.4666    1.5391   -7.5042 H   0  0  0  0  0  0  0  0  0  0  0  0
    4.0102    2.3299   -6.0867 H   0  0  0  0  0  0  0  0  0  0  0  0
    3.8882   -0.1671   -6.3537 H   0  0  0  0  0  0  0  0  0  0  0  0
    3.9065    0.4158   -4.6547 H   0  0  0  0  0  0  0  0  0  0  0  0
    5.3486   -1.3840   -4.5508 H   0  0  0  0  0  0  0  0  0  0  0  0
    6.4889   -0.0240   -4.8281 H   0  0  0  0  0  0  0  0  0  0  0  0
    6.2080   -0.5722   -7.3459 H   0  0  0  0  0  0  0  0  0  0  0  0
    5.5057   -2.1268   -6.7832 H   0  0  0  0  0  0  0  0  0  0  0  0
    7.9907   -1.6889   -5.4286 H   0  0  0  0  0  0  0  0  0  0  0  0
    8.1653   -3.2669   -9.1751 H   0  0  0  0  0  0  0  0  0  0  0  0
    6.6998   -2.3894   -8.6602 H   0  0  0  0  0  0  0  0  0  0  0  0
    9.8447   -2.8060   -6.0940 H   0  0  0  0  0  0  0  0  0  0  0  0
    9.9297   -3.5004   -7.7351 H   0  0  0  0  0  0  0  0  0  0  0  0
    4.8127    1.7450   -3.5073 H   0  0  0  0  0  0  0  0  0  0  0  0
    7.3819    3.2649   -3.3329 H   0  0  0  0  0  0  0  0  0  0  0  0
    6.5803    4.4094   -1.4016 H   0  0  0  0  0  0  0  0  0  0  0  0
    5.1426    3.3399   -1.2755 H   0  0  0  0  0  0  0  0  0  0  0  0
    3.7065    3.3837   -3.6398 H   0  0  0  0  0  0  0  0  0  0  0  0
    6.1245    6.5464   -2.1018 H   0  0  0  0  0  0  0  0  0  0  0  0
    2.3979    5.0169   -4.9334 H   0  0  0  0  0  0  0  0  0  0  0  0
    4.8182    8.1769   -3.3983 H   0  0  0  0  0  0  0  0  0  0  0  0
    3.3642    8.0646   -5.5601 H   0  0  0  0  0  0  0  0  0  0  0  0
    8.7107    2.8154   -1.5157 H   0  0  0  0  0  0  0  0  0  0  0  0
    8.4092    0.0245   -0.5538 H   0  0  0  0  0  0  0  0  0  0  0  0
   10.7782    0.2134    0.0836 H   0  0  0  0  0  0  0  0  0  0  0  0
   10.7888    1.9320   -0.4391 H   0  0  0  0  0  0  0  0  0  0  0  0
    8.7329    0.0301   -2.6412 H   0  0  0  0  0  0  0  0  0  0  0  0
   12.8177    0.8819   -1.7559 H   0  0  0  0  0  0  0  0  0  0  0  0
    9.3746   -0.6890   -4.9036 H   0  0  0  0  0  0  0  0  0  0  0  0
   13.4580    0.1681   -4.0190 H   0  0  0  0  0  0  0  0  0  0  0  0
   11.0375   -0.9748   -6.3366 H   0  0  0  0  0  0  0  0  0  0  0  0
    9.0289   -0.3636    1.7400 H   0  0  0  0  0  0  0  0  0  0  0  0
    7.4246    1.3228    3.4443 H   0  0  0  0  0  0  0  0  0  0  0  0
    9.3976   -0.8932    4.1591 H   0  0  0  0  0  0  0  0  0  0  0  0
    7.6536   -1.1115    3.7880 H   0  0  0  0  0  0  0  0  0  0  0  0
    7.0034    0.0875    5.7560 H   0  0  0  0  0  0  0  0  0  0  0  0
    8.6930    0.6121    6.0671 H   0  0  0  0  0  0  0  0  0  0  0  0
   10.8217    1.1562    2.6545 H   0  0  0  0  0  0  0  0  0  0  0  0
   11.8239    2.5290    4.9607 H   0  0  0  0  0  0  0  0  0  0  0  0
   13.0416    1.1269    3.0834 H   0  0  0  0  0  0  0  0  0  0  0  0
   13.8841    2.4958    3.8854 H   0  0  0  0  0  0  0  0  0  0  0  0
   14.0576    2.5572    1.5866 H   0  0  0  0  0  0  0  0  0  0  0  0
    9.9605    3.6720    2.3095 H   0  0  0  0  0  0  0  0  0  0  0  0
   10.3024    6.4107    3.2854 H   0  0  0  0  0  0  0  0  0  0  0  0
   10.5685    6.5947    0.4226 H   0  0  0  0  0  0  0  0  0  0  0  0
   11.8443    5.5017    1.0583 H   0  0  0  0  0  0  0  0  0  0  0  0
   12.4623    7.7230    1.0993 H   0  0  0  0  0  0  0  0  0  0  0  0
    9.0396    7.9373    1.6552 H   0  0  0  0  0  0  0  0  0  0  0  0
    6.4258    6.5893    1.1221 H   0  0  0  0  0  0  0  0  0  0  0  0
    5.5715    9.0446    1.3942 H   0  0  0  0  0  0  0  0  0  0  0  0
    7.1421    9.3192    2.2216 H   0  0  0  0  0  0  0  0  0  0  0  0
    6.5968    7.7394    3.9427 H   0  0  0  0  0  0  0  0  0  0  0  0
    4.5786    8.7874    4.9215 H   0  0  0  0  0  0  0  0  0  0  0  0
    4.1920    9.5194    3.3273 H   0  0  0  0  0  0  0  0  0  0  0  0
    5.6839   10.0064    4.2012 H   0  0  0  0  0  0  0  0  0  0  0  0
    5.4402    6.0703    2.5302 H   0  0  0  0  0  0  0  0  0  0  0  0
    4.0263    7.1702    2.3967 H   0  0  0  0  0  0  0  0  0  0  0  0
    4.4852    6.4869    3.9934 H   0  0  0  0  0  0  0  0  0  0  0  0
    9.0479    7.6408   -0.4812 H   0  0  0  0  0  0  0  0  0  0  0  0
    7.7124    9.2932   -2.5072 H   0  0  0  0  0  0  0  0  0  0  0  0
   10.0963    8.7760   -3.6312 H   0  0  0  0  0  0  0  0  0  0  0  0
   10.5113    8.3712   -1.9310 H   0  0  0  0  0  0  0  0  0  0  0  0
    9.2268   10.7462   -1.5806 H   0  0  0  0  0  0  0  0  0  0  0  0
    9.9413   10.9933   -3.2100 H   0  0  0  0  0  0  0  0  0  0  0  0
    6.6347    6.0863   -5.3200 H   0  0  0  0  0  0  0  0  0  0  0  0
    5.9330    7.2888   -7.1775 H   0  0  0  0  0  0  0  0  0  0  0  0
    7.6230    7.6958   -7.6300 H   0  0  0  0  0  0  0  0  0  0  0  0
    5.7021    9.1569   -5.8337 H   0  0  0  0  0  0  0  0  0  0  0  0
    6.9396    9.8031   -6.9640 H   0  0  0  0  0  0  0  0  0  0  0  0
    8.7003    9.4386   -5.4436 H   0  0  0  0  0  0  0  0  0  0  0  0
    7.3626    9.7981   -4.2998 H   0  0  0  0  0  0  0  0  0  0  0  0
    7.4989    4.3493   -6.3672 H   0  0  0  0  0  0  0  0  0  0  0  0
   10.3831    4.4864   -7.0894 H   0  0  0  0  0  0  0  0  0  0  0  0
   10.3112    2.0102   -6.0747 H   0  0  0  0  0  0  0  0  0  0  0  0
    9.0062    2.7324   -5.0737 H   0  0  0  0  0  0  0  0  0  0  0  0
    9.7310    5.2217   -4.1606 H   0  0  0  0  0  0  0  0  0  0  0  0
   12.4173    2.0367   -5.1051 H   0  0  0  0  0  0  0  0  0  0  0  0
   11.4220    6.2013   -2.6669 H   0  0  0  0  0  0  0  0  0  0  0  0
   14.1050    3.0203   -3.6114 H   0  0  0  0  0  0  0  0  0  0  0  0
   13.4592    6.0097   -1.8258 H   0  0  0  0  0  0  0  0  0  0  0  0
    8.3120    2.4235  -10.5560 H   0  0  0  0  0  0  0  0  0  0  0  0
    8.9713    4.2954  -11.8460 H   0  0  0  0  0  0  0  0  0  0  0  0
   10.1812    3.1123  -12.4483 H   0  0  0  0  0  0  0  0  0  0  0  0
   10.9462    5.4453  -11.3744 H   0  0  0  0  0  0  0  0  0  0  0  0
   11.8696    3.9352  -11.0680 H   0  0  0  0  0  0  0  0  0  0  0  0
   11.4732    4.4462   -8.8479 H   0  0  0  0  0  0  0  0  0  0  0  0
   10.0571    5.4805   -9.2373 H   0  0  0  0  0  0  0  0  0  0  0  0
    9.1768    0.8533  -12.2510 H   0  0  0  0  0  0  0  0  0  0  0  0
   11.6118   -0.5930  -11.4362 H   0  0  0  0  0  0  0  0  0  0  0  0
    9.9242   -1.6067   -9.9974 H   0  0  0  0  0  0  0  0  0  0  0  0
   10.4035   -2.7629  -11.2858 H   0  0  0  0  0  0  0  0  0  0  0  0
  1  2  1  0  0  0  0
  1123  1  0  0  0  0
  1124  1  0  0  0  0
  1125  1  0  0  0  0
  2  3  1  0  0  0  0
  2  5  1  0  0  0  0
  2126  1  1  0  0  0
  3  4  2  0  0  0  0
  3 15  1  0  0  0  0
  5  6  1  0  0  0  0
  5127  1  0  0  0  0
  5128  1  0  0  0  0
  6  7  2  0  0  0  0
  6  8  1  0  0  0  0
  7  9  1  0  0  0  0
  7129  1  0  0  0  0
  8 10  2  0  0  0  0
  8 11  1  0  0  0  0
  9 10  1  0  0  0  0
  9130  1  0  0  0  0
 10 12  1  0  0  0  0
 11 13  2  0  0  0  0
 11131  1  0  0  0  0
 12 14  2  0  0  0  0
 12132  1  0  0  0  0
 13 14  1  0  0  0  0
 13133  1  0  0  0  0
 14134  1  0  0  0  0
 15 16  1  0  0  0  0
 15135  1  0  0  0  0
 16 17  1  0  0  0  0
 16 19  1  0  0  0  0
 16136  1  6  0  0  0
 17 18  2  0  0  0  0
 17 26  1  0  0  0  0
 19 20  1  0  0  0  0
 19137  1  0  0  0  0
 19138  1  0  0  0  0
 20 21  1  0  0  0  0
 20139  1  0  0  0  0
 20140  1  0  0  0  0
 21 22  1  0  0  0  0
 21141  1  0  0  0  0
 21142  1  0  0  0  0
 22 23  1  0  0  0  0
 22143  1  0  0  0  0
 23 24  1  0  0  0  0
 23 25  1  0  0  0  0
 24144  1  0  0  0  0
 24145  1  0  0  0  0
 25146  1  0  0  0  0
 25147  1  0  0  0  0
 26 27  1  0  0  0  0
 26148  1  0  0  0  0
 27 28  1  0  0  0  0
 27 30  1  0  0  0  0
 27149  1  6  0  0  0
 28 29  2  0  0  0  0
 28 38  1  0  0  0  0
 30 31  1  0  0  0  0
 30150  1  0  0  0  0
 30151  1  0  0  0  0
 31 32  2  0  0  0  0
 31 33  1  0  0  0  0
 32 34  1  0  0  0  0
 32152  1  0  0  0  0
 33 35  2  0  0  0  0
 33153  1  0  0  0  0
 34 36  2  0  0  0  0
 34154  1  0  0  0  0
 35 36  1  0  0  0  0
 35155  1  0  0  0  0
 36 37  1  0  0  0  0
 37156  1  0  0  0  0
 38 39  1  0  0  0  0
 38157  1  0  0  0  0
 39 40  1  0  0  0  0
 39 42  1  0  0  0  0
 39158  1  6  0  0  0
 40 41  2  0  0  0  0
 40 50  1  0  0  0  0
 42 43  1  0  0  0  0
 42159  1  0  0  0  0
 42160  1  0  0  0  0
 43 44  2  0  0  0  0
 43 45  1  0  0  0  0
 44 46  1  0  0  0  0
 44161  1  0  0  0  0
 45 47  2  0  0  0  0
 45162  1  0  0  0  0
 46 48  2  0  0  0  0
 46163  1  0  0  0  0
 47 48  1  0  0  0  0
 47164  1  0  0  0  0
 48 49  1  0  0  0  0
 49165  1  0  0  0  0
 50 51  1  0  0  0  0
 50166  1  0  0  0  0
 51 52  1  0  0  0  0
 51 54  1  0  0  0  0
 51167  1  1  0  0  0
 52 53  2  0  0  0  0
 52 59  1  0  0  0  0
 54 55  1  0  0  0  0
 54168  1  0  0  0  0
 54169  1  0  0  0  0
 55 56  1  0  0  0  0
 55170  1  0  0  0  0
 55171  1  0  0  0  0
 56 57  1  0  0  0  0
 56 58  2  0  0  0  0
 59 60  1  0  0  0  0
 59172  1  0  0  0  0
 60 61  1  0  0  0  0
 60 63  1  0  0  0  0
 60173  1  1  0  0  0
 61 62  2  0  0  0  0
 61 65  1  0  0  0  0
 63 64  1  0  0  0  0
 63174  1  0  0  0  0
 63175  1  0  0  0  0
 64176  1  0  0  0  0
 65 66  1  0  0  0  0
 65177  1  0  0  0  0
 66 67  1  0  0  0  0
 66 69  1  0  0  0  0
 66178  1  1  0  0  0
 67 68  2  0  0  0  0
 67 71  1  0  0  0  0
 69 70  1  0  0  0  0
 69179  1  0  0  0  0
 69180  1  0  0  0  0
 70181  1  0  0  0  0
 71 72  1  0  0  0  0
 71182  1  0  0  0  0
 72 73  1  0  0  0  0
 72 75  1  0  0  0  0
 72183  1  1  0  0  0
 73 74  2  0  0  0  0
 73 79  1  0  0  0  0
 75 76  1  0  0  0  0
 75184  1  0  0  0  0
 75185  1  0  0  0  0
 76 77  1  0  0  0  0
 76 78  1  0  0  0  0
 76186  1  0  0  0  0
 77187  1  0  0  0  0
 77188  1  0  0  0  0
 77189  1  0  0  0  0
 78190  1  0  0  0  0
 78191  1  0  0  0  0
 78192  1  0  0  0  0
 79 80  1  0  0  0  0
 79193  1  0  0  0  0
 80 81  1  0  0  0  0
 80 83  1  0  0  0  0
 80194  1  6  0  0  0
 81 82  2  0  0  0  0
 81 88  1  0  0  0  0
 83 84  1  0  0  0  0
 83195  1  0  0  0  0
 83196  1  0  0  0  0
 84 85  1  0  0  0  0
 84197  1  0  0  0  0
 84198  1  0  0  0  0
 85 86  1  0  0  0  0
 85 87  2  0  0  0  0
 88 89  1  0  0  0  0
 88 94  1  0  0  0  0
 89 90  1  0  0  0  0
 89 92  1  0  0  0  0
 89199  1  1  0  0  0
 90 91  2  0  0  0  0
 90 95  1  0  0  0  0
 92 93  1  0  0  0  0
 92200  1  0  0  0  0
 92201  1  0  0  0  0
 93 94  1  0  0  0  0
 93202  1  0  0  0  0
 93203  1  0  0  0  0
 94204  1  0  0  0  0
 94205  1  0  0  0  0
 95 96  1  0  0  0  0
 95206  1  0  0  0  0
 96 97  1  0  0  0  0
 96 99  1  0  0  0  0
 96207  1  6  0  0  0
 97 98  2  0  0  0  0
 97107  1  0  0  0  0
 99100  1  0  0  0  0
 99208  1  0  0  0  0
 99209  1  0  0  0  0
100101  2  0  0  0  0
100102  1  0  0  0  0
101103  1  0  0  0  0
101210  1  0  0  0  0
102104  2  0  0  0  0
102211  1  0  0  0  0
103105  2  0  0  0  0
103212  1  0  0  0  0
104105  1  0  0  0  0
104213  1  0  0  0  0
105106  1  0  0  0  0
106214  1  0  0  0  0
107108  1  0  0  0  0
107113  1  0  0  0  0
108109  1  0  0  0  0
108111  1  0  0  0  0
108215  1  6  0  0  0
109110  2  0  0  0  0
109114  1  0  0  0  0
111112  1  0  0  0  0
111216  1  0  0  0  0
111217  1  0  0  0  0
112113  1  0  0  0  0
112218  1  0  0  0  0
112219  1  0  0  0  0
113220  1  0  0  0  0
113221  1  0  0  0  0
114115  1  0  0  0  0
114222  1  0  0  0  0
115116  1  0  0  0  0
115118  1  0  0  0  0
115223  1  1  0  0  0
116117  1  0  0  0  0
116122  2  0  0  0  0
118119  1  0  0  0  0
118224  1  0  0  0  0
118225  1  0  0  0  0
119120  1  0  0  0  0
119121  2  0  0  0  0
M  CHG  5   1   1  57  -1  86  -1 117  -1 120  -1
M  END
