1hbj_ligand
 OpenBabel08222323343D

 46 48  0  0  1  0  0  0  0  0999 V2000
    4.9330   69.4100   63.4170 N   0  0  0  0  0  0  0  0  0  0  0  0
    5.3280   69.9580   64.5840 C   0  0  0  0  0  0  0  0  0  0  0  0
    4.4250   69.9980   65.6890 C   0  0  0  0  0  0  0  0  0  0  0  0
    3.1350   69.4570   65.5320 C   0  0  0  0  0  0  0  0  0  0  0  0
    2.7320   68.8660   64.2810 C   0  0  0  0  0  0  0  0  0  0  0  0
    3.6800   68.8600   63.2060 C   0  0  0  0  0  0  0  0  0  0  0  0
    4.8920   70.6090   66.9360 C   0  0  0  0  0  0  0  0  0  0  0  0
    6.2060   71.1250   67.0490 C   0  0  0  0  0  0  0  0  0  0  0  0
    7.0570   71.0510   65.9350 C   0  0  0  0  0  0  0  0  0  0  0  0
    6.6170   70.4760   64.6880 C   0  0  0  0  0  0  0  0  0  0  0  0
    2.2140   69.4590   66.5740 N   0  0  0  0  0  0  0  0  0  0  0  0
    1.3290   68.2540   64.1250 C   0  0  0  0  0  0  0  0  0  0  0  0
    1.4470   66.4840   64.7830 S   0  0  0  0  0  0  0  0  0  0  0  0
    3.0710   66.1070   65.5030 C   0  0  0  0  0  0  0  0  0  0  0  0
    4.2210   65.8750   64.5460 C   0  0  0  0  0  0  0  0  0  0  0  0
    4.1200   65.0720   63.4070 C   0  0  0  0  0  0  0  0  0  0  0  0
    5.2690   64.8680   62.5830 C   0  0  0  0  0  0  0  0  0  0  0  0
    6.5410   65.5250   62.8850 C   0  0  0  0  0  0  0  0  0  0  0  0
    6.6540   66.3460   64.0270 C   0  0  0  0  0  0  0  0  0  0  0  0
    5.4830   66.5150   64.8720 C   0  0  0  0  0  0  0  0  0  0  0  0
    5.2570   63.9710   61.4060 C   0  0  1  0  0  0  0  0  0  0  0  0
    5.5250   62.5370   61.9300 C   0  0  0  0  0  0  0  0  0  0  0  0
    5.4350   61.5320   60.9750 F   0  0  0  0  0  0  0  0  0  0  0  0
    4.5530   62.2900   62.9300 F   0  0  0  0  0  0  0  0  0  0  0  0
    6.7420   62.5010   62.6650 F   0  0  0  0  0  0  0  0  0  0  0  0
    4.0880   64.0870   60.5330 O   0  0  0  0  0  0  0  0  0  0  0  0
    4.0820   70.7130   68.0410 F   0  0  0  0  0  0  0  0  0  0  0  0
    3.3620   68.2520   61.8250 C   0  0  0  0  0  0  0  0  0  0  0  0
    6.5479   71.5683   67.9773 H   0  0  0  0  0  0  0  0  0  0  0  0
    8.0677   71.4348   66.0140 H   0  0  0  0  0  0  0  0  0  0  0  0
    7.2860   70.4470   63.8356 H   0  0  0  0  0  0  0  0  0  0  0  0
    2.4658   69.8725   67.4831 H   0  0  0  0  0  0  0  0  0  0  0  0
    1.2800   69.0470   66.4366 H   0  0  0  0  0  0  0  0  0  0  0  0
    1.0316   68.2478   63.0660 H   0  0  0  0  0  0  0  0  0  0  0  0
    0.5952   68.8293   64.7086 H   0  0  0  0  0  0  0  0  0  0  0  0
    2.9591   65.1971   66.1109 H   0  0  0  0  0  0  0  0  0  0  0  0
    3.3476   66.9504   66.1527 H   0  0  0  0  0  0  0  0  0  0  0  0
    3.1753   64.6066   63.1501 H   0  0  0  0  0  0  0  0  0  0  0  0
    7.3948   65.3813   62.2327 H   0  0  0  0  0  0  0  0  0  0  0  0
    7.5894   66.8379   64.2680 H   0  0  0  0  0  0  0  0  0  0  0  0
    5.5533   67.1301   65.7618 H   0  0  0  0  0  0  0  0  0  0  0  0
    6.1173   64.2532   60.7813 H   0  0  0  0  0  0  0  0  0  0  0  0
    4.2061   63.5308   59.7720 H   0  0  0  0  0  0  0  0  0  0  0  0
    2.3337   67.8615   61.8243 H   0  0  0  0  0  0  0  0  0  0  0  0
    4.0653   67.4330   61.6142 H   0  0  0  0  0  0  0  0  0  0  0  0
    3.4601   69.0278   61.0514 H   0  0  0  0  0  0  0  0  0  0  0  0
  1  2  2  0  0  0  0
  1  6  1  0  0  0  0
  2  3  1  0  0  0  0
  2 10  1  0  0  0  0
  3  4  2  0  0  0  0
  3  7  1  0  0  0  0
  4  5  1  0  0  0  0
  4 11  1  0  0  0  0
  5  6  2  0  0  0  0
  5 12  1  0  0  0  0
  6 28  1  0  0  0  0
  7  8  2  0  0  0  0
  7 27  1  0  0  0  0
  8  9  1  0  0  0  0
  8 29  1  0  0  0  0
  9 10  2  0  0  0  0
  9 30  1  0  0  0  0
 10 31  1  0  0  0  0
 11 32  1  0  0  0  0
 11 33  1  0  0  0  0
 12 13  1  0  0  0  0
 12 34  1  0  0  0  0
 12 35  1  0  0  0  0
 13 14  1  0  0  0  0
 14 15  1  0  0  0  0
 14 36  1  0  0  0  0
 14 37  1  0  0  0  0
 15 16  2  0  0  0  0
 15 20  1  0  0  0  0
 16 17  1  0  0  0  0
 16 38  1  0  0  0  0
 17 18  2  0  0  0  0
 17 21  1  0  0  0  0
 18 19  1  0  0  0  0
 18 39  1  0  0  0  0
 19 20  2  0  0  0  0
 19 40  1  0  0  0  0
 20 41  1  0  0  0  0
 21 22  1  0  0  0  0
 21 26  1  0  0  0  0
 21 42  1  6  0  0  0
 22 23  1  0  0  0  0
 22 24  1  0  0  0  0
 22 25  1  0  0  0  0
 26 43  1  0  0  0  0
 28 44  1  0  0  0  0
 28 45  1  0  0  0  0
 28 46  1  0  0  0  0
M  END
