1hc9_ligand
 OpenBabel08222323343D

229235  0  0  1  0  0  0  0  0999 V2000
   -0.1630   45.3100    5.7140 N   0  3  0  0  0  0  0  0  0  0  0  0
    0.6860   46.4680    5.3280 C   0  0  2  0  0  0  0  0  0  0  0  0
    2.1670   46.1500    5.5030 C   0  0  0  0  0  0  0  0  0  0  0  0
    2.5400   45.1440    6.1060 O   0  0  0  0  0  0  0  0  0  0  0  0
    0.3170   47.6960    6.1660 C   0  0  0  0  0  0  0  0  0  0  0  0
    0.1950   47.4050    7.6370 C   0  0  0  0  0  0  0  0  0  0  0  0
    1.1940   47.0230    8.4890 C   0  0  0  0  0  0  0  0  0  0  0  0
   -1.0070   47.4410    8.4170 C   0  0  0  0  0  0  0  0  0  0  0  0
    0.6840   46.8160    9.7540 N   0  0  0  0  0  0  0  0  0  0  0  0
   -0.6640   47.0650    9.7350 C   0  0  0  0  0  0  0  0  0  0  0  0
   -2.3430   47.7550    8.1290 C   0  0  0  0  0  0  0  0  0  0  0  0
   -1.6080   46.9920   10.7640 C   0  0  0  0  0  0  0  0  0  0  0  0
   -3.2840   47.6840    9.1540 C   0  0  0  0  0  0  0  0  0  0  0  0
   -2.9090   47.3040   10.4550 C   0  0  0  0  0  0  0  0  0  0  0  0
    3.0060   47.0250    4.9720 N   0  0  0  0  0  0  0  0  0  0  0  0
    4.4440   46.8420    5.0530 C   0  0  2  0  0  0  0  0  0  0  0  0
    5.1040   48.1800    5.3290 C   0  0  0  0  0  0  0  0  0  0  0  0
    4.7150   49.2010    4.7580 O   0  0  0  0  0  0  0  0  0  0  0  0
    4.9640   46.2530    3.7380 C   0  0  0  0  0  0  0  0  0  0  0  0
    6.4750   46.3170    3.5750 C   0  0  0  0  0  0  0  0  0  0  0  0
    6.9530   45.5060    2.3730 C   0  0  0  0  0  0  0  0  0  0  0  0
    6.7700   44.0720    2.5840 N   0  0  0  0  0  0  0  0  0  0  0  0
    7.3230   43.1240    1.8330 C   0  0  0  0  0  3  0  0  0  0  0  0
    8.1040   43.4490    0.8080 N   0  0  0  0  0  0  0  0  0  0  0  0
    7.1020   41.8470    2.1160 N   0  0  0  0  0  0  0  0  0  0  0  0
    6.0910   48.1790    6.2170 N   0  0  0  0  0  0  0  0  0  0  0  0
    6.8050   49.4040    6.5430 C   0  0  2  0  0  0  0  0  0  0  0  0
    8.1640   49.4500    5.8500 C   0  0  0  0  0  0  0  0  0  0  0  0
    8.7860   48.4150    5.6000 O   0  0  0  0  0  0  0  0  0  0  0  0
    7.0420   49.5240    8.0510 C   0  0  0  0  0  0  0  0  0  0  0  0
    5.8090   49.8300    8.8640 C   0  0  0  0  0  0  0  0  0  0  0  0
    5.0180   48.8040    9.3950 C   0  0  0  0  0  0  0  0  0  0  0  0
    5.4400   51.1490    9.1160 C   0  0  0  0  0  0  0  0  0  0  0  0
    3.8810   49.0950   10.1670 C   0  0  0  0  0  0  0  0  0  0  0  0
    4.3180   51.4500    9.8750 C   0  0  0  0  0  0  0  0  0  0  0  0
    3.5450   50.4260   10.4000 C   0  0  0  0  0  0  0  0  0  0  0  0
    2.4450   50.7470   11.1610 O   0  0  0  0  0  0  0  0  0  0  0  0
    8.6000   50.6610    5.5320 N   0  0  0  0  0  0  0  0  0  0  0  0
    9.9020   50.8870    4.9200 C   0  0  2  0  0  0  0  0  0  0  0  0
   10.6020   51.9090    5.8070 C   0  0  0  0  0  0  0  0  0  0  0  0
    9.9460   52.6950    6.4950 O   0  0  0  0  0  0  0  0  0  0  0  0
    9.7630   51.4130    3.4860 C   0  0  0  0  0  0  0  0  0  0  0  0
    9.1950   50.3880    2.5280 C   0  0  0  0  0  0  0  0  0  0  0  0
    7.8180   50.1980    2.4120 C   0  0  0  0  0  0  0  0  0  0  0  0
   10.0410   49.5720    1.7690 C   0  0  0  0  0  0  0  0  0  0  0  0
    7.2930   49.2170    1.5630 C   0  0  0  0  0  0  0  0  0  0  0  0
    9.5290   48.5910    0.9210 C   0  0  0  0  0  0  0  0  0  0  0  0
    8.1540   48.4170    0.8230 C   0  0  0  0  0  0  0  0  0  0  0  0
    7.6450   47.4350   -0.0050 O   0  0  0  0  0  0  0  0  0  0  0  0
   11.9300   51.9070    5.7980 N   0  0  0  0  0  0  0  0  0  0  0  0
   12.6700   52.8270    6.6480 C   0  0  2  0  0  0  0  0  0  0  0  0
   12.4070   54.2970    6.3310 C   0  0  0  0  0  0  0  0  0  0  0  0
   12.6700   55.1660    7.1580 O   0  0  0  0  0  0  0  0  0  0  0  0
   14.1750   52.5310    6.5650 C   0  0  0  0  0  0  0  0  0  0  0  0
   14.8140   52.7950    5.2120 C   0  0  0  0  0  0  0  0  0  0  0  0
   16.2840   52.4080    5.1870 C   0  0  0  0  0  0  0  0  0  0  0  0
   16.6300   51.4020    4.5270 O   0  5  0  0  0  0  0  0  0  0  0  0
   17.0930   53.1000    5.8410 O   0  0  0  0  0  0  0  0  0  0  0  0
   11.8640   54.5710    5.1500 N   0  0  0  0  0  0  0  0  0  0  0  0
   11.5970   55.9480    4.7430 C   0  0  2  0  0  0  0  0  0  0  0  0
   10.3780   56.6120    5.3880 C   0  0  0  0  0  0  0  0  0  0  0  0
   10.2340   57.8340    5.3250 O   0  0  0  0  0  0  0  0  0  0  0  0
   11.4710   56.0250    3.2160 C   0  0  0  0  0  0  0  0  0  0  0  0
   10.4590   55.1580    2.7300 O   0  0  0  0  0  0  0  0  0  0  0  0
    9.5010   55.8340    6.0160 N   0  0  0  0  0  0  0  0  0  0  0  0
    8.3230   56.4380    6.6340 C   0  0  2  0  0  0  0  0  0  0  0  0
    7.7250   55.6540    7.7910 C   0  0  0  0  0  0  0  0  0  0  0  0
    7.7640   54.4270    7.8120 O   0  0  0  0  0  0  0  0  0  0  0  0
    7.2370   56.6650    5.5780 C   0  0  0  0  0  0  0  0  0  0  0  0
    6.0750   57.2200    6.1690 O   0  0  0  0  0  0  0  0  0  0  0  0
    7.1780   56.3820    8.7580 N   0  0  0  0  0  0  0  0  0  0  0  0
    6.5300   55.7660    9.9080 C   0  0  2  0  0  0  0  0  0  0  0  0
    5.1280   55.3220    9.5000 C   0  0  0  0  0  0  0  0  0  0  0  0
    4.4340   54.6460   10.2570 O   0  0  0  0  0  0  0  0  0  0  0  0
    6.4490   56.7570   11.0720 C   0  0  0  0  0  0  0  0  0  0  0  0
    7.7650   56.9720   11.8230 C   0  0  0  0  0  0  0  0  0  0  0  0
    7.5970   58.0680   12.8680 C   0  0  0  0  0  0  0  0  0  0  0  0
    8.1930   55.6620   12.4760 C   0  0  0  0  0  0  0  0  0  0  0  0
    4.7170   55.7160    8.2980 N   0  0  0  0  0  0  0  0  0  0  0  0
    3.4110   55.3440    7.7740 C   0  0  2  0  0  0  0  0  0  0  0  0
    3.5850   54.0820    6.9320 C   0  0  0  0  0  0  0  0  0  0  0  0
    4.4800   54.0050    6.0930 O   0  0  0  0  0  0  0  0  0  0  0  0
    2.8390   56.4730    6.9100 C   0  0  0  0  0  0  0  0  0  0  0  0
    2.6210   57.8190    7.6090 C   0  0  0  0  0  0  0  0  0  0  0  0
    2.0790   58.8330    6.6100 C   0  0  0  0  0  0  0  0  0  0  0  0
    1.6520   57.6460    8.7720 C   0  0  0  0  0  0  0  0  0  0  0  0
    2.7330   53.0720    7.1510 N   0  0  0  0  0  0  0  0  0  0  0  0
    2.8190   51.8180    6.3980 C   0  0  2  0  0  0  0  0  0  0  0  0
    2.2930   51.8930    4.9660 C   0  0  0  0  0  0  0  0  0  0  0  0
    1.4290   52.7100    4.6480 O   0  0  0  0  0  0  0  0  0  0  0  0
    2.0080   50.8550    7.2580 C   0  0  0  0  0  0  0  0  0  0  0  0
    0.9320   51.7400    7.7870 C   0  0  0  0  0  0  0  0  0  0  0  0
    1.6980   52.9820    8.1970 C   0  0  0  0  0  0  0  0  0  0  0  0
    2.8310   51.0340    4.1070 N   0  0  0  0  0  0  0  0  0  0  0  0
    2.4110   50.9660    2.7130 C   0  0  2  0  0  0  0  0  0  0  0  0
    1.4940   49.7640    2.5450 C   0  0  0  0  0  0  0  0  0  0  0  0
    1.5340   48.8280    3.3450 O   0  0  0  0  0  0  0  0  0  0  0  0
    3.6130   50.7940    1.7830 C   0  0  0  0  0  0  0  0  0  0  0  0
    4.4090   52.0480    1.5270 C   0  0  0  0  0  0  0  0  0  0  0  0
    5.2370   52.5890    2.5080 C   0  0  0  0  0  0  0  0  0  0  0  0
    4.3430   52.6900    0.2900 C   0  0  0  0  0  0  0  0  0  0  0  0
    5.9840   53.7390    2.2630 C   0  0  0  0  0  0  0  0  0  0  0  0
    5.0830   53.8360    0.0340 C   0  0  0  0  0  0  0  0  0  0  0  0
    5.9010   54.3550    1.0220 C   0  0  0  0  0  0  0  0  0  0  0  0
    6.6360   55.4860    0.7600 O   0  0  0  0  0  0  0  0  0  0  0  0
    0.6540   49.7730    1.5000 N   0  0  0  0  0  0  0  0  0  0  0  0
   -0.2650   48.6580    1.2500 C   0  0  2  0  0  0  0  0  0  0  0  0
    0.4830   47.3290    1.1090 C   0  0  0  0  0  0  0  0  0  0  0  0
    1.7120   47.3100    1.0200 O   0  0  0  0  0  0  0  0  0  0  0  0
   -0.9600   49.0740   -0.0440 C   0  0  0  0  0  0  0  0  0  0  0  0
   -0.9900   50.5660    0.0690 C   0  0  0  0  0  0  0  0  0  0  0  0
    0.4040   50.8780    0.5580 C   0  0  0  0  0  0  0  0  0  0  0  0
   -0.2730   46.2320    1.0900 N   0  0  0  0  0  0  0  0  0  0  0  0
    0.2690   44.8760    0.9660 C   0  0  2  0  0  0  0  0  0  0  0  0
    0.7630   44.3500    2.3080 C   0  0  0  0  0  0  0  0  0  0  0  0
    0.1640   43.3800    2.8190 O   0  5  0  0  0  0  0  0  0  0  0  0
    1.4180   44.8360   -0.0510 C   0  0  0  0  0  0  0  0  0  0  0  0
    1.0010   45.3260   -1.4230 C   0  0  0  0  0  0  0  0  0  0  0  0
    1.8630   45.3610   -2.3260 O   0  5  0  0  0  0  0  0  0  0  0  0
   -0.1850   45.6760   -1.6010 O   0  0  0  0  0  0  0  0  0  0  0  0
    1.7420   44.9170    2.8360 O   0  0  0  0  0  0  0  0  0  0  0  0
   -1.1342   45.5488    5.5883 H   0  0  0  0  0  0  0  0  0  0  0  0
    0.0036   45.0786    6.6808 H   0  0  0  0  0  0  0  0  0  0  0  0
    0.0659   44.5176    5.1346 H   0  0  0  0  0  0  0  0  0  0  0  0
    0.5012   46.6961    4.2679 H   0  0  0  0  0  0  0  0  0  0  0  0
   -0.6472   48.0853    5.8072 H   0  0  0  0  0  0  0  0  0  0  0  0
    1.0960   48.4599    6.0258 H   0  0  0  0  0  0  0  0  0  0  0  0
    2.2394   46.9001    8.2098 H   0  0  0  0  0  0  0  0  0  0  0  0
    1.2273   46.5223   10.5783 H   0  0  0  0  0  0  0  0  0  0  0  0
   -2.6381   48.0475    7.1278 H   0  0  0  0  0  0  0  0  0  0  0  0
   -1.3233   46.6999   11.7683 H   0  0  0  0  0  0  0  0  0  0  0  0
   -4.3201   47.9251    8.9456 H   0  0  0  0  0  0  0  0  0  0  0  0
   -3.6640   47.2563   11.2314 H   0  0  0  0  0  0  0  0  0  0  0  0
    2.6413   47.8303    4.5045 H   0  0  0  0  0  0  0  0  0  0  0  0
    4.6765   46.1484    5.8745 H   0  0  0  0  0  0  0  0  0  0  0  0
    4.5045   46.8081    2.9069 H   0  0  0  0  0  0  0  0  0  0  0  0
    4.6570   45.1979    3.6884 H   0  0  0  0  0  0  0  0  0  0  0  0
    6.9480   45.9175    4.4842 H   0  0  0  0  0  0  0  0  0  0  0  0
    6.7737   47.3667    3.4372 H   0  0  0  0  0  0  0  0  0  0  0  0
    8.0214   45.7089    2.2077 H   0  0  0  0  0  0  0  0  0  0  0  0
    6.3800   45.8120    1.4853 H   0  0  0  0  0  0  0  0  0  0  0  0
    6.1717   43.7749    3.3681 H   0  0  0  0  0  0  0  0  0  0  0  0
    8.5294   42.7101    0.2301 H   0  0  0  0  0  0  0  0  0  0  0  0
    8.2839   44.4398    0.5915 H   0  0  0  0  0  0  0  0  0  0  0  0
    6.4971   41.5927    2.9099 H   0  0  0  0  0  0  0  0  0  0  0  0
    7.5353   41.1098    1.5418 H   0  0  0  0  0  0  0  0  0  0  0  0
    6.3473   47.3241    6.6682 H   0  0  0  0  0  0  0  0  0  0  0  0
    6.2003   50.2587    6.2056 H   0  0  0  0  0  0  0  0  0  0  0  0
    7.7713   50.3300    8.2195 H   0  0  0  0  0  0  0  0  0  0  0  0
    7.4594   48.5711    8.4084 H   0  0  0  0  0  0  0  0  0  0  0  0
    5.2867   47.7707    9.2078 H   0  0  0  0  0  0  0  0  0  0  0  0
    6.0406   51.9558    8.7116 H   0  0  0  0  0  0  0  0  0  0  0  0
    3.2741   48.2950   10.5754 H   0  0  0  0  0  0  0  0  0  0  0  0
    4.0466   52.4836   10.0570 H   0  0  0  0  0  0  0  0  0  0  0  0
    2.0173   49.9494   11.4497 H   0  0  0  0  0  0  0  0  0  0  0  0
    8.0129   51.4486    5.7194 H   0  0  0  0  0  0  0  0  0  0  0  0
   10.4754   49.9485    4.9013 H   0  0  0  0  0  0  0  0  0  0  0  0
   10.7578   51.7145    3.1261 H   0  0  0  0  0  0  0  0  0  0  0  0
    9.0965   52.2880    3.4975 H   0  0  0  0  0  0  0  0  0  0  0  0
    7.1435   50.8203    2.9889 H   0  0  0  0  0  0  0  0  0  0  0  0
   11.1144   49.7050    1.8417 H   0  0  0  0  0  0  0  0  0  0  0  0
    6.2203   49.0823    1.4834 H   0  0  0  0  0  0  0  0  0  0  0  0
   10.1999   47.9674    0.3413 H   0  0  0  0  0  0  0  0  0  0  0  0
    7.9673   46.5868    0.2763 H   0  0  0  0  0  0  0  0  0  0  0  0
   12.4232   51.2707    5.2047 H   0  0  0  0  0  0  0  0  0  0  0  0
   12.3445   52.6509    7.6839 H   0  0  0  0  0  0  0  0  0  0  0  0
   14.3270   51.4698    6.8115 H   0  0  0  0  0  0  0  0  0  0  0  0
   14.6864   53.1575    7.3106 H   0  0  0  0  0  0  0  0  0  0  0  0
   14.7258   53.8669    4.9814 H   0  0  0  0  0  0  0  0  0  0  0  0
   14.2806   52.2104    4.4480 H   0  0  0  0  0  0  0  0  0  0  0  0
   11.6341   53.8216    4.5290 H   0  0  0  0  0  0  0  0  0  0  0  0
   12.4748   56.5403    5.0408 H   0  0  0  0  0  0  0  0  0  0  0  0
   12.4324   55.7398    2.7639 H   0  0  0  0  0  0  0  0  0  0  0  0
   11.2233   57.0579    2.9301 H   0  0  0  0  0  0  0  0  0  0  0  0
    9.6242   55.4016    3.1126 H   0  0  0  0  0  0  0  0  0  0  0  0
    9.6464   54.8458    6.0647 H   0  0  0  0  0  0  0  0  0  0  0  0
    8.6320   57.4173    7.0282 H   0  0  0  0  0  0  0  0  0  0  0  0
    6.9805   55.7029    5.1106 H   0  0  0  0  0  0  0  0  0  0  0  0
    7.6174   57.3555    4.8109 H   0  0  0  0  0  0  0  0  0  0  0  0
    6.2926   58.0526    6.5714 H   0  0  0  0  0  0  0  0  0  0  0  0
    7.2119   57.3794    8.6949 H   0  0  0  0  0  0  0  0  0  0  0  0
    7.1122   54.8883   10.2253 H   0  0  0  0  0  0  0  0  0  0  0  0
    5.7029   56.3832   11.7887 H   0  0  0  0  0  0  0  0  0  0  0  0
    6.1200   57.7278   10.6730 H   0  0  0  0  0  0  0  0  0  0  0  0
    8.5401   57.2825   11.1069 H   0  0  0  0  0  0  0  0  0  0  0  0
    8.5476   58.2146   13.4016 H   0  0  0  0  0  0  0  0  0  0  0  0
    6.8157   57.7747   13.5846 H   0  0  0  0  0  0  0  0  0  0  0  0
    7.3065   59.0060   12.3722 H   0  0  0  0  0  0  0  0  0  0  0  0
    8.3076   54.8875   11.7033 H   0  0  0  0  0  0  0  0  0  0  0  0
    7.4281   55.3465   13.2008 H   0  0  0  0  0  0  0  0  0  0  0  0
    9.1520   55.8071   12.9948 H   0  0  0  0  0  0  0  0  0  0  0  0
    5.3217   56.2833    7.7390 H   0  0  0  0  0  0  0  0  0  0  0  0
    2.7225   55.1420    8.6078 H   0  0  0  0  0  0  0  0  0  0  0  0
    1.8671   56.1368    6.5197 H   0  0  0  0  0  0  0  0  0  0  0  0
    3.5329   56.6387    6.0727 H   0  0  0  0  0  0  0  0  0  0  0  0
    3.5837   58.1815    7.9986 H   0  0  0  0  0  0  0  0  0  0  0  0
    1.9236   59.7979    7.1147 H   0  0  0  0  0  0  0  0  0  0  0  0
    1.1219   58.4729    6.2047 H   0  0  0  0  0  0  0  0  0  0  0  0
    2.8001   58.9605    5.7892 H   0  0  0  0  0  0  0  0  0  0  0  0
    2.0592   56.9113    9.4823 H   0  0  0  0  0  0  0  0  0  0  0  0
    0.6829   57.2905    8.3920 H   0  0  0  0  0  0  0  0  0  0  0  0
    1.5145   58.6112    9.2814 H   0  0  0  0  0  0  0  0  0  0  0  0
    3.8678   51.4896    6.3513 H   0  0  0  0  0  0  0  0  0  0  0  0
    2.6175   50.4368    8.0726 H   0  0  0  0  0  0  0  0  0  0  0  0
    1.5904   50.0355    6.6546 H   0  0  0  0  0  0  0  0  0  0  0  0
    0.4287   51.2807    8.6505 H   0  0  0  0  0  0  0  0  0  0  0  0
    0.1890   51.9703    7.0093 H   0  0  0  0  0  0  0  0  0  0  0  0
    1.0488   53.8700    8.1926 H   0  0  0  0  0  0  0  0  0  0  0  0
    2.1480   52.8617    9.1935 H   0  0  0  0  0  0  0  0  0  0  0  0
    3.5473   50.4140    4.4273 H   0  0  0  0  0  0  0  0  0  0  0  0
    1.8731   51.8881    2.4478 H   0  0  0  0  0  0  0  0  0  0  0  0
    3.2448   50.4210    0.8159 H   0  0  0  0  0  0  0  0  0  0  0  0
    4.2865   50.0487    2.2312 H   0  0  0  0  0  0  0  0  0  0  0  0
    5.3010   52.1076    3.4771 H   0  0  0  0  0  0  0  0  0  0  0  0
    3.7020   52.2863   -0.4854 H   0  0  0  0  0  0  0  0  0  0  0  0
    6.6247   54.1493    3.0351 H   0  0  0  0  0  0  0  0  0  0  0  0
    5.0205   54.3211   -0.9334 H   0  0  0  0  0  0  0  0  0  0  0  0
    7.1434   55.7177    1.5290 H   0  0  0  0  0  0  0  0  0  0  0  0
   -0.9957   48.5675    2.0672 H   0  0  0  0  0  0  0  0  0  0  0  0
   -1.9772   48.6592   -0.0999 H   0  0  0  0  0  0  0  0  0  0  0  0
   -0.3845   48.7537   -0.9250 H   0  0  0  0  0  0  0  0  0  0  0  0
   -1.7495   50.8958    0.7931 H   0  0  0  0  0  0  0  0  0  0  0  0
   -1.1848   51.0358   -0.9063 H   0  0  0  0  0  0  0  0  0  0  0  0
    1.1288   50.8693   -0.2694 H   0  0  0  0  0  0  0  0  0  0  0  0
    0.4400   51.8526    1.0668 H   0  0  0  0  0  0  0  0  0  0  0  0
   -1.2644   46.3398    1.1644 H   0  0  0  0  0  0  0  0  0  0  0  0
   -0.5363   44.2169    0.6094 H   0  0  0  0  0  0  0  0  0  0  0  0
    1.7729   43.7987   -0.1406 H   0  0  0  0  0  0  0  0  0  0  0  0
    2.2359   45.4730    0.3167 H   0  0  0  0  0  0  0  0  0  0  0  0
  1  2  1  0  0  0  0
  1122  1  0  0  0  0
  1123  1  0  0  0  0
  1124  1  0  0  0  0
  2  3  1  0  0  0  0
  2  5  1  0  0  0  0
  2125  1  6  0  0  0
  3  4  2  0  0  0  0
  3 15  1  0  0  0  0
  5  6  1  0  0  0  0
  5126  1  0  0  0  0
  5127  1  0  0  0  0
  6  7  2  0  0  0  0
  6  8  1  0  0  0  0
  7  9  1  0  0  0  0
  7128  1  0  0  0  0
  8 10  2  0  0  0  0
  8 11  1  0  0  0  0
  9 10  1  0  0  0  0
  9129  1  0  0  0  0
 10 12  1  0  0  0  0
 11 13  2  0  0  0  0
 11130  1  0  0  0  0
 12 14  2  0  0  0  0
 12131  1  0  0  0  0
 13 14  1  0  0  0  0
 13132  1  0  0  0  0
 14133  1  0  0  0  0
 15 16  1  0  0  0  0
 15134  1  0  0  0  0
 16 17  1  0  0  0  0
 16 19  1  0  0  0  0
 16135  1  1  0  0  0
 17 18  2  0  0  0  0
 17 26  1  0  0  0  0
 19 20  1  0  0  0  0
 19136  1  0  0  0  0
 19137  1  0  0  0  0
 20 21  1  0  0  0  0
 20138  1  0  0  0  0
 20139  1  0  0  0  0
 21 22  1  0  0  0  0
 21140  1  0  0  0  0
 21141  1  0  0  0  0
 22 23  1  0  0  0  0
 22142  1  0  0  0  0
 23 24  1  0  0  0  0
 23 25  1  0  0  0  0
 24143  1  0  0  0  0
 24144  1  0  0  0  0
 25145  1  0  0  0  0
 25146  1  0  0  0  0
 26 27  1  0  0  0  0
 26147  1  0  0  0  0
 27 28  1  0  0  0  0
 27 30  1  0  0  0  0
 27148  1  6  0  0  0
 28 29  2  0  0  0  0
 28 38  1  0  0  0  0
 30 31  1  0  0  0  0
 30149  1  0  0  0  0
 30150  1  0  0  0  0
 31 32  2  0  0  0  0
 31 33  1  0  0  0  0
 32 34  1  0  0  0  0
 32151  1  0  0  0  0
 33 35  2  0  0  0  0
 33152  1  0  0  0  0
 34 36  2  0  0  0  0
 34153  1  0  0  0  0
 35 36  1  0  0  0  0
 35154  1  0  0  0  0
 36 37  1  0  0  0  0
 37155  1  0  0  0  0
 38 39  1  0  0  0  0
 38156  1  0  0  0  0
 39 40  1  0  0  0  0
 39 42  1  0  0  0  0
 39157  1  6  0  0  0
 40 41  2  0  0  0  0
 40 50  1  0  0  0  0
 42 43  1  0  0  0  0
 42158  1  0  0  0  0
 42159  1  0  0  0  0
 43 44  2  0  0  0  0
 43 45  1  0  0  0  0
 44 46  1  0  0  0  0
 44160  1  0  0  0  0
 45 47  2  0  0  0  0
 45161  1  0  0  0  0
 46 48  2  0  0  0  0
 46162  1  0  0  0  0
 47 48  1  0  0  0  0
 47163  1  0  0  0  0
 48 49  1  0  0  0  0
 49164  1  0  0  0  0
 50 51  1  0  0  0  0
 50165  1  0  0  0  0
 51 52  1  0  0  0  0
 51 54  1  0  0  0  0
 51166  1  1  0  0  0
 52 53  2  0  0  0  0
 52 59  1  0  0  0  0
 54 55  1  0  0  0  0
 54167  1  0  0  0  0
 54168  1  0  0  0  0
 55 56  1  0  0  0  0
 55169  1  0  0  0  0
 55170  1  0  0  0  0
 56 57  1  0  0  0  0
 56 58  2  0  0  0  0
 59 60  1  0  0  0  0
 59171  1  0  0  0  0
 60 61  1  0  0  0  0
 60 63  1  0  0  0  0
 60172  1  1  0  0  0
 61 62  2  0  0  0  0
 61 65  1  0  0  0  0
 63 64  1  0  0  0  0
 63173  1  0  0  0  0
 63174  1  0  0  0  0
 64175  1  0  0  0  0
 65 66  1  0  0  0  0
 65176  1  0  0  0  0
 66 67  1  0  0  0  0
 66 69  1  0  0  0  0
 66177  1  1  0  0  0
 67 68  2  0  0  0  0
 67 71  1  0  0  0  0
 69 70  1  0  0  0  0
 69178  1  0  0  0  0
 69179  1  0  0  0  0
 70180  1  0  0  0  0
 71 72  1  0  0  0  0
 71181  1  0  0  0  0
 72 73  1  0  0  0  0
 72 75  1  0  0  0  0
 72182  1  1  0  0  0
 73 74  2  0  0  0  0
 73 79  1  0  0  0  0
 75 76  1  0  0  0  0
 75183  1  0  0  0  0
 75184  1  0  0  0  0
 76 77  1  0  0  0  0
 76 78  1  0  0  0  0
 76185  1  0  0  0  0
 77186  1  0  0  0  0
 77187  1  0  0  0  0
 77188  1  0  0  0  0
 78189  1  0  0  0  0
 78190  1  0  0  0  0
 78191  1  0  0  0  0
 79 80  1  0  0  0  0
 79192  1  0  0  0  0
 80 81  1  0  0  0  0
 80 83  1  0  0  0  0
 80193  1  1  0  0  0
 81 82  2  0  0  0  0
 81 87  1  0  0  0  0
 83 84  1  0  0  0  0
 83194  1  0  0  0  0
 83195  1  0  0  0  0
 84 85  1  0  0  0  0
 84 86  1  0  0  0  0
 84196  1  0  0  0  0
 85197  1  0  0  0  0
 85198  1  0  0  0  0
 85199  1  0  0  0  0
 86200  1  0  0  0  0
 86201  1  0  0  0  0
 86202  1  0  0  0  0
 87 88  1  0  0  0  0
 87 93  1  0  0  0  0
 88 89  1  0  0  0  0
 88 91  1  0  0  0  0
 88203  1  6  0  0  0
 89 90  2  0  0  0  0
 89 94  1  0  0  0  0
 91 92  1  0  0  0  0
 91204  1  0  0  0  0
 91205  1  0  0  0  0
 92 93  1  0  0  0  0
 92206  1  0  0  0  0
 92207  1  0  0  0  0
 93208  1  0  0  0  0
 93209  1  0  0  0  0
 94 95  1  0  0  0  0
 94210  1  0  0  0  0
 95 96  1  0  0  0  0
 95 98  1  0  0  0  0
 95211  1  6  0  0  0
 96 97  2  0  0  0  0
 96106  1  0  0  0  0
 98 99  1  0  0  0  0
 98212  1  0  0  0  0
 98213  1  0  0  0  0
 99100  2  0  0  0  0
 99101  1  0  0  0  0
100102  1  0  0  0  0
100214  1  0  0  0  0
101103  2  0  0  0  0
101215  1  0  0  0  0
102104  2  0  0  0  0
102216  1  0  0  0  0
103104  1  0  0  0  0
103217  1  0  0  0  0
104105  1  0  0  0  0
105218  1  0  0  0  0
106107  1  0  0  0  0
106112  1  0  0  0  0
107108  1  0  0  0  0
107110  1  0  0  0  0
107219  1  1  0  0  0
108109  2  0  0  0  0
108113  1  0  0  0  0
110111  1  0  0  0  0
110220  1  0  0  0  0
110221  1  0  0  0  0
111112  1  0  0  0  0
111222  1  0  0  0  0
111223  1  0  0  0  0
112224  1  0  0  0  0
112225  1  0  0  0  0
113114  1  0  0  0  0
113226  1  0  0  0  0
114115  1  0  0  0  0
114117  1  0  0  0  0
114227  1  6  0  0  0
115116  1  0  0  0  0
115121  2  0  0  0  0
117118  1  0  0  0  0
117228  1  0  0  0  0
117229  1  0  0  0  0
118119  1  0  0  0  0
118120  2  0  0  0  0
M  CHG  4   1   1  57  -1 116  -1 119  -1
M  END
