1hef_ligand
 OpenBabel08222323343D

102103  0  0  1  0  0  0  0  0999 V2000
  -13.6420   13.6160   34.9830 N   0  3  0  0  0  0  0  0  0  0  0  0
  -12.2960   13.8890   34.5570 C   0  0  2  0  0  0  0  0  0  0  0  0
  -12.2520   14.5870   33.1620 C   0  0  0  0  0  0  0  0  0  0  0  0
  -13.2750   14.4360   32.4770 O   0  0  0  0  0  0  0  0  0  0  0  0
  -11.3990   12.6720   34.5400 C   0  0  0  0  0  0  0  0  0  0  0  0
  -11.1350   15.2080   32.9240 N   0  0  0  0  0  0  0  0  0  0  0  0
  -10.3340   16.0110   32.1250 C   0  0  2  0  0  0  0  0  0  0  0  0
  -10.0430   15.3530   30.7410 C   0  0  0  0  0  0  0  0  0  0  0  0
   -9.3330   14.3720   30.6820 O   0  0  0  0  0  0  0  0  0  0  0  0
   -9.0600   16.4730   32.8210 C   0  0  0  0  0  0  0  0  0  0  0  0
  -10.5900   16.0090   29.7450 N   0  0  0  0  0  0  0  0  0  0  0  0
  -10.8310   16.1070   28.3570 C   0  0  1  0  0  0  0  0  0  0  0  0
  -12.3720   15.9770   28.1020 C   0  0  0  0  0  0  0  0  0  0  0  0
  -12.9550   14.6590   28.6170 C   0  0  0  0  0  0  0  0  0  0  0  0
  -12.2870   13.4330   28.3470 C   0  0  0  0  0  0  0  0  0  0  0  0
  -14.1280   14.6950   29.3820 C   0  0  0  0  0  0  0  0  0  0  0  0
  -12.8240   12.2320   28.8470 C   0  0  0  0  0  0  0  0  0  0  0  0
  -14.6620   13.4730   29.8700 C   0  0  0  0  0  0  0  0  0  0  0  0
  -14.0220   12.2730   29.5870 C   0  0  0  0  0  0  0  0  0  0  0  0
  -10.4180   17.4730   27.7490 C   0  0  1  0  0  0  0  0  0  0  0  0
  -11.2920   18.4600   28.2800 O   0  0  0  0  0  0  0  0  0  0  0  0
   -8.9690   17.7830   28.0620 C   0  0  0  0  0  0  0  0  0  0  0  0
   -7.9460   18.0530   26.9910 C   0  0  2  0  0  0  0  0  0  0  0  0
   -7.7610   17.0710   25.8550 C   0  0  0  0  0  0  0  0  0  0  0  0
   -7.1550   16.0070   26.0380 O   0  0  0  0  0  0  0  0  0  0  0  0
   -6.5570   18.0280   27.7500 C   0  0  0  0  0  0  0  0  0  0  0  0
   -5.4470   18.1850   26.8670 C   0  0  0  0  0  0  0  0  0  0  0  0
   -5.3220   19.3400   26.0520 C   0  0  0  0  0  0  0  0  0  0  0  0
   -4.4870   17.1600   26.7730 C   0  0  0  0  0  0  0  0  0  0  0  0
   -4.2260   19.4600   25.1770 C   0  0  0  0  0  0  0  0  0  0  0  0
   -3.3940   17.2830   25.8920 C   0  0  0  0  0  0  0  0  0  0  0  0
   -3.2590   18.4530   25.1030 C   0  0  0  0  0  0  0  0  0  0  0  0
   -8.2070   17.3680   24.6220 N   0  0  0  0  0  0  0  0  0  0  0  0
   -7.9530   16.4320   23.5160 C   0  0  2  0  0  0  0  0  0  0  0  0
   -7.1290   17.2710   22.4950 C   0  0  0  0  0  0  0  0  0  0  0  0
   -7.5590   18.3710   22.1260 O   0  0  0  0  0  0  0  0  0  0  0  0
   -9.1200   15.7860   22.8240 C   0  0  0  0  0  0  0  0  0  0  0  0
   -8.8110   14.3880   22.2450 C   0  0  0  0  0  0  0  0  0  0  0  0
  -10.4520   15.7510   23.5360 C   0  0  0  0  0  0  0  0  0  0  0  0
   -6.0500   16.6410   22.1220 N   0  0  0  0  0  0  0  0  0  0  0  0
   -4.9650   16.8370   21.2520 C   0  0  2  0  0  0  0  0  0  0  0  0
   -3.9780   17.8990   21.7610 C   0  0  0  0  0  0  0  0  0  0  0  0
   -4.1100   18.1740   22.9550 O   0  0  0  0  0  0  0  0  0  0  0  0
   -5.3750   17.2340   19.8230 C   0  0  0  0  0  0  0  0  0  0  0  0
   -5.6010   18.7340   19.7330 C   0  0  0  0  0  0  0  0  0  0  0  0
   -4.3190   16.6550   18.8580 C   0  0  0  0  0  0  0  0  0  0  0  0
   -3.5390   19.4440   19.9810 C   0  0  0  0  0  0  0  0  0  0  0  0
   -3.0530   18.5280   20.9390 O   0  0  0  0  0  0  0  0  0  0  0  0
  -13.6243   13.1667   35.8851 H   0  0  0  0  0  0  0  0  0  0  0  0
  -14.0896   13.0091   34.3141 H   0  0  0  0  0  0  0  0  0  0  0  0
  -14.1557   14.4808   35.0484 H   0  0  0  0  0  0  0  0  0  0  0  0
  -11.8723   14.5914   35.2898 H   0  0  0  0  0  0  0  0  0  0  0  0
  -10.3925   12.9630   34.2049 H   0  0  0  0  0  0  0  0  0  0  0  0
  -11.8123   11.9214   33.8502 H   0  0  0  0  0  0  0  0  0  0  0  0
  -11.3394   12.2462   35.5525 H   0  0  0  0  0  0  0  0  0  0  0  0
  -10.5643   15.0033   33.7193 H   0  0  0  0  0  0  0  0  0  0  0  0
  -10.9182   16.9203   31.9203 H   0  0  0  0  0  0  0  0  0  0  0  0
   -8.4747   17.1023   32.1344 H   0  0  0  0  0  0  0  0  0  0  0  0
   -8.4634   15.5964   33.1135 H   0  0  0  0  0  0  0  0  0  0  0  0
   -9.3220   17.0539   33.7176 H   0  0  0  0  0  0  0  0  0  0  0  0
  -11.0425   16.8003   30.1563 H   0  0  0  0  0  0  0  0  0  0  0  0
  -10.2878   15.2994   27.8445 H   0  0  0  0  0  0  0  0  0  0  0  0
  -12.5547   16.0415   27.0192 H   0  0  0  0  0  0  0  0  0  0  0  0
  -12.8826   16.8082   28.6102 H   0  0  0  0  0  0  0  0  0  0  0  0
  -11.3742   13.4236   27.7625 H   0  0  0  0  0  0  0  0  0  0  0  0
  -14.6185   15.6374   29.5973 H   0  0  0  0  0  0  0  0  0  0  0  0
  -12.3226   11.2883   28.6652 H   0  0  0  0  0  0  0  0  0  0  0  0
  -15.5691   13.4766   30.4634 H   0  0  0  0  0  0  0  0  0  0  0  0
  -14.4549   11.3456   29.9443 H   0  0  0  0  0  0  0  0  0  0  0  0
  -10.5384   17.4358   26.6562 H   0  0  0  0  0  0  0  0  0  0  0  0
  -11.0617   19.3100   27.9237 H   0  0  0  0  0  0  0  0  0  0  0  0
   -8.5905   16.9237   28.6350 H   0  0  0  0  0  0  0  0  0  0  0  0
   -8.9803   18.6758   28.7044 H   0  0  0  0  0  0  0  0  0  0  0  0
   -8.1528   19.0440   26.5607 H   0  0  0  0  0  0  0  0  0  0  0  0
   -6.4582   17.0651   28.2725 H   0  0  0  0  0  0  0  0  0  0  0  0
   -6.5418   18.8469   28.4842 H   0  0  0  0  0  0  0  0  0  0  0  0
   -6.0668   20.1259   26.1031 H   0  0  0  0  0  0  0  0  0  0  0  0
   -4.5891   16.2695   27.3827 H   0  0  0  0  0  0  0  0  0  0  0  0
   -4.1307   20.3421   24.5542 H   0  0  0  0  0  0  0  0  0  0  0  0
   -2.6610   16.4878   25.8181 H   0  0  0  0  0  0  0  0  0  0  0  0
   -2.4067   18.5668   24.4429 H   0  0  0  0  0  0  0  0  0  0  0  0
   -8.7073   18.2182   24.4581 H   0  0  0  0  0  0  0  0  0  0  0  0
   -7.3300   15.6145   23.9078 H   0  0  0  0  0  0  0  0  0  0  0  0
   -9.2924   16.4317   21.9504 H   0  0  0  0  0  0  0  0  0  0  0  0
   -9.7114   13.9857   21.7578 H   0  0  0  0  0  0  0  0  0  0  0  0
   -8.5021   13.7145   23.0580 H   0  0  0  0  0  0  0  0  0  0  0  0
   -7.9994   14.4680   21.5068 H   0  0  0  0  0  0  0  0  0  0  0  0
  -10.6733   16.7463   23.9489 H   0  0  0  0  0  0  0  0  0  0  0  0
  -10.4118   15.0157   24.3531 H   0  0  0  0  0  0  0  0  0  0  0  0
  -11.2408   15.4656   22.8244 H   0  0  0  0  0  0  0  0  0  0  0  0
   -5.9724   15.7621   22.5926 H   0  0  0  0  0  0  0  0  0  0  0  0
   -4.4301   15.8777   21.1927 H   0  0  0  0  0  0  0  0  0  0  0  0
   -6.3354   16.7517   19.5884 H   0  0  0  0  0  0  0  0  0  0  0  0
   -5.8929   18.9998   18.7063 H   0  0  0  0  0  0  0  0  0  0  0  0
   -4.6728   19.2613   19.9984 H   0  0  0  0  0  0  0  0  0  0  0  0
   -6.4009   19.0267   20.4290 H   0  0  0  0  0  0  0  0  0  0  0  0
   -4.2397   15.5685   19.0103 H   0  0  0  0  0  0  0  0  0  0  0  0
   -3.3444   17.1250   19.0560 H   0  0  0  0  0  0  0  0  0  0  0  0
   -4.6202   16.8587   17.8198 H   0  0  0  0  0  0  0  0  0  0  0  0
   -2.6957   19.8583   19.4090 H   0  0  0  0  0  0  0  0  0  0  0  0
   -4.0720   20.2599   20.4911 H   0  0  0  0  0  0  0  0  0  0  0  0
   -4.2279   18.9276   19.2963 H   0  0  0  0  0  0  0  0  0  0  0  0
  1 49  1  0  0  0  0
  1 50  1  0  0  0  0
  1 51  1  0  0  0  0
  2  1  1  0  0  0  0
  2  5  1  0  0  0  0
  2 52  1  1  0  0  0
  3  2  1  0  0  0  0
  3  4  2  0  0  0  0
  5 53  1  0  0  0  0
  5 54  1  0  0  0  0
  5 55  1  0  0  0  0
  6  3  1  0  0  0  0
  6 56  1  0  0  0  0
  7  6  1  0  0  0  0
  7 10  1  0  0  0  0
  7 57  1  6  0  0  0
  8  7  1  0  0  0  0
  8  9  2  0  0  0  0
 10 58  1  0  0  0  0
 10 59  1  0  0  0  0
 10 60  1  0  0  0  0
 11  8  1  0  0  0  0
 11 61  1  0  0  0  0
 12 11  1  0  0  0  0
 12 13  1  0  0  0  0
 12 62  1  6  0  0  0
 13 14  1  0  0  0  0
 13 63  1  0  0  0  0
 13 64  1  0  0  0  0
 14 15  2  0  0  0  0
 14 16  1  0  0  0  0
 15 17  1  0  0  0  0
 15 65  1  0  0  0  0
 16 18  2  0  0  0  0
 16 66  1  0  0  0  0
 17 19  2  0  0  0  0
 17 67  1  0  0  0  0
 18 19  1  0  0  0  0
 18 68  1  0  0  0  0
 19 69  1  0  0  0  0
 20 12  1  0  0  0  0
 20 21  1  0  0  0  0
 20 70  1  6  0  0  0
 21 71  1  0  0  0  0
 22 20  1  0  0  0  0
 22 72  1  0  0  0  0
 22 73  1  0  0  0  0
 23 26  1  0  0  0  0
 23 22  1  0  0  0  0
 23 74  1  6  0  0  0
 24 23  1  0  0  0  0
 24 25  2  0  0  0  0
 26 27  1  0  0  0  0
 26 75  1  0  0  0  0
 26 76  1  0  0  0  0
 27 28  2  0  0  0  0
 27 29  1  0  0  0  0
 28 30  1  0  0  0  0
 28 77  1  0  0  0  0
 29 31  2  0  0  0  0
 29 78  1  0  0  0  0
 30 32  2  0  0  0  0
 30 79  1  0  0  0  0
 31 32  1  0  0  0  0
 31 80  1  0  0  0  0
 32 81  1  0  0  0  0
 33 24  1  0  0  0  0
 33 82  1  0  0  0  0
 34 33  1  0  0  0  0
 34 37  1  0  0  0  0
 34 83  1  1  0  0  0
 35 34  1  0  0  0  0
 35 36  2  0  0  0  0
 37 39  1  0  0  0  0
 37 38  1  0  0  0  0
 37 84  1  0  0  0  0
 38 85  1  0  0  0  0
 38 86  1  0  0  0  0
 38 87  1  0  0  0  0
 39 88  1  0  0  0  0
 39 89  1  0  0  0  0
 39 90  1  0  0  0  0
 40 35  1  0  0  0  0
 40 91  1  0  0  0  0
 41 40  1  0  0  0  0
 41 44  1  0  0  0  0
 41 92  1  6  0  0  0
 42 41  1  0  0  0  0
 42 43  2  0  0  0  0
 42 48  1  0  0  0  0
 44 46  1  0  0  0  0
 44 45  1  0  0  0  0
 44 93  1  0  0  0  0
 45 94  1  0  0  0  0
 45 95  1  0  0  0  0
 45 96  1  0  0  0  0
 46 97  1  0  0  0  0
 46 98  1  0  0  0  0
 46 99  1  0  0  0  0
 47100  1  0  0  0  0
 47101  1  0  0  0  0
 47102  1  0  0  0  0
 48 47  1  0  0  0  0
M  CHG  1   1   1
M  END
