1hgt_ligand
 OpenBabel08222323343D

168170  0  0  1  0  0  0  0  0999 V2000
    5.2610  -12.9600   -0.3360 N   0  3  0  0  0  0  0  0  0  0  0  0
    4.5800  -12.2590    0.7750 C   0  0  2  0  0  0  0  0  0  0  0  0
    4.9670  -10.7730    0.7890 C   0  0  0  0  0  0  0  0  0  0  0  0
    4.0740   -9.9020    0.6020 O   0  0  0  0  0  0  0  0  0  0  0  0
    4.7670  -12.9770    2.0950 C   0  0  0  0  0  0  0  0  0  0  0  0
    4.4750  -12.1300    3.3270 C   0  0  0  0  0  0  0  0  0  0  0  0
    3.2580  -11.9390    3.5910 O   0  5  0  0  0  0  0  0  0  0  0  0
    5.4330  -11.6950    4.0090 O   0  0  0  0  0  0  0  0  0  0  0  0
    6.2450  -10.4990    0.9910 N   0  0  0  0  0  0  0  0  0  0  0  0
    6.6580   -9.0740    0.9760 C   0  0  2  0  0  0  0  0  0  0  0  0
    6.3410   -8.5020   -0.4070 C   0  0  0  0  0  0  0  0  0  0  0  0
    6.4510   -9.2270   -1.4160 O   0  0  0  0  0  0  0  0  0  0  0  0
    8.1370   -8.9240    1.3430 C   0  0  0  0  0  0  0  0  0  0  0  0
    8.3160   -8.6070    2.8020 C   0  0  0  0  0  0  0  0  0  0  0  0
    8.1510   -7.3020    3.2560 C   0  0  0  0  0  0  0  0  0  0  0  0
    8.5680   -9.6420    3.7070 C   0  0  0  0  0  0  0  0  0  0  0  0
    8.2780   -7.0130    4.6230 C   0  0  0  0  0  0  0  0  0  0  0  0
    8.6770   -9.3730    5.0590 C   0  0  0  0  0  0  0  0  0  0  0  0
    8.5460   -8.0700    5.5130 C   0  0  0  0  0  0  0  0  0  0  0  0
    5.9180   -7.2440   -0.4590 N   0  0  0  0  0  0  0  0  0  0  0  0
    5.6790   -6.6030   -1.7930 C   0  0  2  0  0  0  0  0  0  0  0  0
    7.1200   -6.2750   -2.2350 C   0  0  0  0  0  0  0  0  0  0  0  0
    8.0500   -6.5460   -1.4380 O   0  0  0  0  0  0  0  0  0  0  0  0
    4.9450   -5.3230   -1.7500 C   0  0  0  0  0  0  0  0  0  0  0  0
    3.6060   -5.0980   -2.3660 C   0  0  0  0  0  0  0  0  0  0  0  0
    3.1860   -3.6500   -2.3660 C   0  0  0  0  0  0  0  0  0  0  0  0
    3.8660   -2.9010   -3.0990 O   0  5  0  0  0  0  0  0  0  0  0  0
    2.3010   -3.2210   -1.6680 O   0  0  0  0  0  0  0  0  0  0  0  0
    7.3370   -5.7270   -3.3870 N   0  0  0  0  0  0  0  0  0  0  0  0
    8.6990   -5.3850   -3.8820 C   0  0  2  0  0  0  0  0  0  0  0  0
    8.8110   -3.8610   -3.7530 C   0  0  0  0  0  0  0  0  0  0  0  0
    7.7790   -3.1390   -3.8270 O   0  0  0  0  0  0  0  0  0  0  0  0
    8.8710   -5.7600   -5.3400 C   0  0  0  0  0  0  0  0  0  0  0  0
    7.7170   -5.4560   -6.2910 C   0  0  0  0  0  0  0  0  0  0  0  0
    6.5180   -6.3500   -6.1890 C   0  0  0  0  0  0  0  0  0  0  0  0
    6.5700   -7.5480   -5.9690 O   0  5  0  0  0  0  0  0  0  0  0  0
    5.4470   -5.7280   -6.3610 O   0  0  0  0  0  0  0  0  0  0  0  0
   10.0350   -3.4350   -3.5530 N   0  0  0  0  0  0  0  0  0  0  0  0
   10.3020   -1.9920   -3.4280 C   0  0  2  0  0  0  0  0  0  0  0  0
   11.0910   -1.5570   -4.6600 C   0  0  0  0  0  0  0  0  0  0  0  0
   11.8040   -2.3970   -5.2270 O   0  0  0  0  0  0  0  0  0  0  0  0
   11.1420   -1.7270   -2.1290 C   0  0  2  0  0  0  0  0  0  0  0  0
   12.6530   -2.0000   -2.4570 C   0  0  0  0  0  0  0  0  0  0  0  0
   10.6850   -2.4390   -0.8440 C   0  0  0  0  0  0  0  0  0  0  0  0
   13.5120   -2.1260   -1.1710 C   0  0  0  0  0  0  0  0  0  0  0  0
   10.9930   -0.2900   -5.0040 N   0  0  0  0  0  0  0  0  0  0  0  0
   11.7620    0.2920   -6.1100 C   0  0  2  0  0  0  0  0  0  0  0  0
   13.2660    0.0510   -5.9270 C   0  0  0  0  0  0  0  0  0  0  0  0
   13.8090    0.2300   -4.8110 O   0  0  0  0  0  0  0  0  0  0  0  0
   11.3960    1.7630   -6.0620 C   0  0  0  0  0  0  0  0  0  0  0  0
   10.4170    2.0180   -4.9780 C   0  0  0  0  0  0  0  0  0  0  0  0
   10.1500    0.7000   -4.2890 C   0  0  0  0  0  0  0  0  0  0  0  0
   13.9380   -0.3960   -7.0160 N   0  0  0  0  0  0  0  0  0  0  0  0
   15.3830   -0.6940   -6.8780 C   0  0  2  0  0  0  0  0  0  0  0  0
   16.1510    0.6210   -6.9960 C   0  0  0  0  0  0  0  0  0  0  0  0
   17.3560    0.6630   -7.2420 O   0  0  0  0  0  0  0  0  0  0  0  0
   16.0280   -1.8120   -7.6220 C   0  0  0  0  0  0  0  0  0  0  0  0
   17.3890   -2.3990   -7.3400 C   0  0  0  0  0  0  0  0  0  0  0  0
   18.5600   -2.3230   -8.2460 C   0  0  0  0  0  0  0  0  0  0  0  0
   18.2870   -2.0400   -9.4470 O   0  5  0  0  0  0  0  0  0  0  0  0
   19.7590   -2.5180   -7.9310 O   0  0  0  0  0  0  0  0  0  0  0  0
   15.3210    1.6530   -6.7910 N   0  0  0  0  0  0  0  0  0  0  0  0
   15.9360    3.0090   -6.7240 C   0  0  2  0  0  0  0  0  0  0  0  0
   16.6250    2.9120   -5.3230 C   0  0  0  0  0  0  0  0  0  0  0  0
   17.5490    3.6170   -4.9560 O   0  0  0  0  0  0  0  0  0  0  0  0
   14.9390    4.1520   -6.5880 C   0  0  0  0  0  0  0  0  0  0  0  0
   13.9830    4.0790   -5.4050 C   0  0  0  0  0  0  0  0  0  0  0  0
   12.7920    4.9740   -5.4480 C   0  0  0  0  0  0  0  0  0  0  0  0
   13.1220    6.2030   -5.5300 O   0  5  0  0  0  0  0  0  0  0  0  0
   11.6330    4.5670   -5.3770 O   0  0  0  0  0  0  0  0  0  0  0  0
   16.0420    1.9770   -4.5890 N   0  0  0  0  0  0  0  0  0  0  0  0
   16.3230    1.5500   -3.2400 C   0  0  2  0  0  0  0  0  0  0  0  0
   17.1850    0.3050   -3.1550 C   0  0  0  0  0  0  0  0  0  0  0  0
   18.0700    0.2500   -2.2790 O   0  0  0  0  0  0  0  0  0  0  0  0
   15.1080    1.4740   -2.3550 C   0  0  0  0  0  0  0  0  0  0  0  0
   14.3110    2.7700   -2.2150 C   0  0  0  0  0  0  0  0  0  0  0  0
   14.9590    3.9130   -1.7240 C   0  0  0  0  0  0  0  0  0  0  0  0
   12.9990    2.8250   -2.6300 C   0  0  0  0  0  0  0  0  0  0  0  0
   14.2880    5.1330   -1.6310 C   0  0  0  0  0  0  0  0  0  0  0  0
   12.3220    4.0220   -2.5200 C   0  0  0  0  0  0  0  0  0  0  0  0
   12.9820    5.1510   -2.0410 C   0  0  0  0  0  0  0  0  0  0  0  0
   12.1990    6.2700   -1.9280 O   0  0  0  0  0  0  0  0  0  0  0  0
   16.8090   -0.6600   -3.9900 N   0  0  0  0  0  0  0  0  0  0  0  0
   17.6420   -1.9010   -3.9850 C   0  0  2  0  0  0  0  0  0  0  0  0
   18.8860   -1.3250   -4.6830 C   0  0  0  0  0  0  0  0  0  0  0  0
   18.7110   -0.0920   -4.9130 O   0  5  0  0  0  0  0  0  0  0  0  0
   16.9200   -3.0550   -4.6290 C   0  0  0  0  0  0  0  0  0  0  0  0
   15.3940   -3.0190   -4.5090 C   0  0  0  0  0  0  0  0  0  0  0  0
   14.7010   -3.9720   -5.4650 C   0  0  0  0  0  0  0  0  0  0  0  0
   15.0520   -3.3140   -3.0560 C   0  0  0  0  0  0  0  0  0  0  0  0
   19.8110   -2.0810   -4.9050 O   0  0  0  0  0  0  0  0  0  0  0  0
    4.9970  -13.9328   -0.3315 H   0  0  0  0  0  0  0  0  0  0  0  0
    6.2593  -12.8823   -0.2206 H   0  0  0  0  0  0  0  0  0  0  0  0
    4.9906  -12.5425   -1.2127 H   0  0  0  0  0  0  0  0  0  0  0  0
    3.5016  -12.2946    0.5610 H   0  0  0  0  0  0  0  0  0  0  0  0
    5.8107  -13.3193    2.1541 H   0  0  0  0  0  0  0  0  0  0  0  0
    4.0943  -13.8471    2.1101 H   0  0  0  0  0  0  0  0  0  0  0  0
    6.9109  -11.2282    1.1486 H   0  0  0  0  0  0  0  0  0  0  0  0
    6.0665   -8.5264    1.7244 H   0  0  0  0  0  0  0  0  0  0  0  0
    8.5724   -8.1100    0.7449 H   0  0  0  0  0  0  0  0  0  0  0  0
    8.6585   -9.8655    1.1157 H   0  0  0  0  0  0  0  0  0  0  0  0
    7.9243   -6.5084    2.5532 H   0  0  0  0  0  0  0  0  0  0  0  0
    8.6783  -10.6588    3.3478 H   0  0  0  0  0  0  0  0  0  0  0  0
    8.1720   -5.9971    4.9861 H   0  0  0  0  0  0  0  0  0  0  0  0
    8.8641  -10.1777    5.7608 H   0  0  0  0  0  0  0  0  0  0  0  0
    8.6517   -7.8614    6.5715 H   0  0  0  0  0  0  0  0  0  0  0  0
    5.7604   -6.7293    0.3838 H   0  0  0  0  0  0  0  0  0  0  0  0
    5.1741   -7.3000   -2.4780 H   0  0  0  0  0  0  0  0  0  0  0  0
    5.6129   -4.5829   -2.2150 H   0  0  0  0  0  0  0  0  0  0  0  0
    4.8231   -5.0873   -0.6825 H   0  0  0  0  0  0  0  0  0  0  0  0
    2.8603   -5.6779   -1.8024 H   0  0  0  0  0  0  0  0  0  0  0  0
    3.6362   -5.4528   -3.4067 H   0  0  0  0  0  0  0  0  0  0  0  0
    6.5525   -5.5235   -3.9728 H   0  0  0  0  0  0  0  0  0  0  0  0
    9.4653   -5.8893   -3.2750 H   0  0  0  0  0  0  0  0  0  0  0  0
    9.0539   -6.8439   -5.3812 H   0  0  0  0  0  0  0  0  0  0  0  0
    9.7556   -5.2244   -5.7150 H   0  0  0  0  0  0  0  0  0  0  0  0
    8.1021   -5.5282   -7.3189 H   0  0  0  0  0  0  0  0  0  0  0  0
    7.3843   -4.4259   -6.0955 H   0  0  0  0  0  0  0  0  0  0  0  0
   10.7874   -4.0902   -3.4853 H   0  0  0  0  0  0  0  0  0  0  0  0
    9.3543   -1.4362   -3.3741 H   0  0  0  0  0  0  0  0  0  0  0  0
   11.0463   -0.6520   -1.9166 H   0  0  0  0  0  0  0  0  0  0  0  0
   13.0410   -1.1683   -3.0634 H   0  0  0  0  0  0  0  0  0  0  0  0
   12.7290   -2.9369   -3.0283 H   0  0  0  0  0  0  0  0  0  0  0  0
    9.6237   -2.2166   -0.6593 H   0  0  0  0  0  0  0  0  0  0  0  0
   11.2871   -2.0845    0.0056 H   0  0  0  0  0  0  0  0  0  0  0  0
   10.8174   -3.5249   -0.9595 H   0  0  0  0  0  0  0  0  0  0  0  0
   14.5597   -2.3163   -1.4471 H   0  0  0  0  0  0  0  0  0  0  0  0
   13.1367   -2.9599   -0.5596 H   0  0  0  0  0  0  0  0  0  0  0  0
   13.4487   -1.1912   -0.5947 H   0  0  0  0  0  0  0  0  0  0  0  0
   11.4488   -0.1460   -7.0692 H   0  0  0  0  0  0  0  0  0  0  0  0
   10.9547    2.0582   -7.0254 H   0  0  0  0  0  0  0  0  0  0  0  0
   12.3037    2.3563   -5.8773 H   0  0  0  0  0  0  0  0  0  0  0  0
    9.4832    2.4166   -5.4012 H   0  0  0  0  0  0  0  0  0  0  0  0
   10.8317    2.7403   -4.2595 H   0  0  0  0  0  0  0  0  0  0  0  0
   10.4349    0.7547   -3.2280 H   0  0  0  0  0  0  0  0  0  0  0  0
    9.0865    0.4310   -4.3697 H   0  0  0  0  0  0  0  0  0  0  0  0
   13.4702   -0.5216   -7.8909 H   0  0  0  0  0  0  0  0  0  0  0  0
   15.4881   -1.0046   -5.8280 H   0  0  0  0  0  0  0  0  0  0  0  0
   16.0713   -1.4745   -8.6680 H   0  0  0  0  0  0  0  0  0  0  0  0
   15.3275   -2.6559   -7.5376 H   0  0  0  0  0  0  0  0  0  0  0  0
   17.2154   -3.4730   -7.1774 H   0  0  0  0  0  0  0  0  0  0  0  0
   17.7178   -1.9341   -6.3989 H   0  0  0  0  0  0  0  0  0  0  0  0
   14.3353    1.5196   -6.6878 H   0  0  0  0  0  0  0  0  0  0  0  0
   16.6317    3.1886   -7.5569 H   0  0  0  0  0  0  0  0  0  0  0  0
   14.3338    4.1794   -7.5061 H   0  0  0  0  0  0  0  0  0  0  0  0
   15.5117    5.0869   -6.4983 H   0  0  0  0  0  0  0  0  0  0  0  0
   14.5547    4.3290   -4.4991 H   0  0  0  0  0  0  0  0  0  0  0  0
   13.6188    3.0434   -5.3347 H   0  0  0  0  0  0  0  0  0  0  0  0
   15.2917    1.4924   -5.0387 H   0  0  0  0  0  0  0  0  0  0  0  0
   16.9388    2.3549   -2.8124 H   0  0  0  0  0  0  0  0  0  0  0  0
   15.4391    1.1703   -1.3510 H   0  0  0  0  0  0  0  0  0  0  0  0
   14.4364    0.7066   -2.7674 H   0  0  0  0  0  0  0  0  0  0  0  0
   15.9952    3.8477   -1.4125 H   0  0  0  0  0  0  0  0  0  0  0  0
   12.5088    1.9467   -3.0343 H   0  0  0  0  0  0  0  0  0  0  0  0
   14.7772    6.0232   -1.2525 H   0  0  0  0  0  0  0  0  0  0  0  0
   11.2782    4.0837   -2.8059 H   0  0  0  0  0  0  0  0  0  0  0  0
   12.7231    6.9897   -1.5966 H   0  0  0  0  0  0  0  0  0  0  0  0
   16.0134   -0.5606   -4.5877 H   0  0  0  0  0  0  0  0  0  0  0  0
   17.8982   -2.2074   -2.9601 H   0  0  0  0  0  0  0  0  0  0  0  0
   17.2762   -3.9838   -4.1595 H   0  0  0  0  0  0  0  0  0  0  0  0
   17.1769   -3.0628   -5.6985 H   0  0  0  0  0  0  0  0  0  0  0  0
   15.0504   -2.0023   -4.7505 H   0  0  0  0  0  0  0  0  0  0  0  0
   13.6117   -3.8990   -5.3301 H   0  0  0  0  0  0  0  0  0  0  0  0
   15.0280   -5.0016   -5.2577 H   0  0  0  0  0  0  0  0  0  0  0  0
   14.9608   -3.7062   -6.5003 H   0  0  0  0  0  0  0  0  0  0  0  0
   15.5760   -2.5999   -2.4037 H   0  0  0  0  0  0  0  0  0  0  0  0
   15.3665   -4.3380   -2.8059 H   0  0  0  0  0  0  0  0  0  0  0  0
   13.9663   -3.2174   -2.9079 H   0  0  0  0  0  0  0  0  0  0  0  0
  1  2  1  0  0  0  0
  1 92  1  0  0  0  0
  1 93  1  0  0  0  0
  1 94  1  0  0  0  0
  2  3  1  0  0  0  0
  2  5  1  0  0  0  0
  2 95  1  6  0  0  0
  3  4  2  0  0  0  0
  3  9  1  0  0  0  0
  5  6  1  0  0  0  0
  5 96  1  0  0  0  0
  5 97  1  0  0  0  0
  6  7  1  0  0  0  0
  6  8  2  0  0  0  0
  9 10  1  0  0  0  0
  9 98  1  0  0  0  0
 10 11  1  0  0  0  0
 10 13  1  0  0  0  0
 10 99  1  1  0  0  0
 11 12  2  0  0  0  0
 11 20  1  0  0  0  0
 13 14  1  0  0  0  0
 13100  1  0  0  0  0
 13101  1  0  0  0  0
 14 15  2  0  0  0  0
 14 16  1  0  0  0  0
 15 17  1  0  0  0  0
 15102  1  0  0  0  0
 16 18  2  0  0  0  0
 16103  1  0  0  0  0
 17 19  2  0  0  0  0
 17104  1  0  0  0  0
 18 19  1  0  0  0  0
 18105  1  0  0  0  0
 19106  1  0  0  0  0
 20 21  1  0  0  0  0
 20107  1  0  0  0  0
 21 22  1  0  0  0  0
 21 24  1  0  0  0  0
 21108  1  6  0  0  0
 22 23  2  0  0  0  0
 22 29  1  0  0  0  0
 24 25  1  0  0  0  0
 24109  1  0  0  0  0
 24110  1  0  0  0  0
 25 26  1  0  0  0  0
 25111  1  0  0  0  0
 25112  1  0  0  0  0
 26 27  1  0  0  0  0
 26 28  2  0  0  0  0
 29 30  1  0  0  0  0
 29113  1  0  0  0  0
 30 31  1  0  0  0  0
 30 33  1  0  0  0  0
 30114  1  1  0  0  0
 31 32  2  0  0  0  0
 31 38  1  0  0  0  0
 33 34  1  0  0  0  0
 33115  1  0  0  0  0
 33116  1  0  0  0  0
 34 35  1  0  0  0  0
 34117  1  0  0  0  0
 34118  1  0  0  0  0
 35 36  1  0  0  0  0
 35 37  2  0  0  0  0
 38 39  1  0  0  0  0
 38119  1  0  0  0  0
 39 40  1  0  0  0  0
 39 42  1  0  0  0  0
 39120  1  1  0  0  0
 40 41  2  0  0  0  0
 40 46  1  0  0  0  0
 42 43  1  0  0  0  0
 42 44  1  0  0  0  0
 42121  1  1  0  0  0
 43 45  1  0  0  0  0
 43122  1  0  0  0  0
 43123  1  0  0  0  0
 44124  1  0  0  0  0
 44125  1  0  0  0  0
 44126  1  0  0  0  0
 45127  1  0  0  0  0
 45128  1  0  0  0  0
 45129  1  0  0  0  0
 46 47  1  0  0  0  0
 46 52  1  0  0  0  0
 47 48  1  0  0  0  0
 47 50  1  0  0  0  0
 47130  1  6  0  0  0
 48 49  2  0  0  0  0
 48 53  1  0  0  0  0
 50 51  1  0  0  0  0
 50131  1  0  0  0  0
 50132  1  0  0  0  0
 51 52  1  0  0  0  0
 51133  1  0  0  0  0
 51134  1  0  0  0  0
 52135  1  0  0  0  0
 52136  1  0  0  0  0
 53 54  1  0  0  0  0
 53137  1  0  0  0  0
 54 55  1  0  0  0  0
 54 57  1  0  0  0  0
 54138  1  1  0  0  0
 55 56  2  0  0  0  0
 55 62  1  0  0  0  0
 57 58  1  0  0  0  0
 57139  1  0  0  0  0
 57140  1  0  0  0  0
 58 59  1  0  0  0  0
 58141  1  0  0  0  0
 58142  1  0  0  0  0
 59 60  1  0  0  0  0
 59 61  2  0  0  0  0
 62 63  1  0  0  0  0
 62143  1  0  0  0  0
 63 64  1  0  0  0  0
 63 66  1  0  0  0  0
 63144  1  6  0  0  0
 64 65  2  0  0  0  0
 64 71  1  0  0  0  0
 66 67  1  0  0  0  0
 66145  1  0  0  0  0
 66146  1  0  0  0  0
 67 68  1  0  0  0  0
 67147  1  0  0  0  0
 67148  1  0  0  0  0
 68 69  1  0  0  0  0
 68 70  2  0  0  0  0
 71 72  1  0  0  0  0
 71149  1  0  0  0  0
 72 73  1  0  0  0  0
 72 75  1  0  0  0  0
 72150  1  1  0  0  0
 73 74  2  0  0  0  0
 73 83  1  0  0  0  0
 75 76  1  0  0  0  0
 75151  1  0  0  0  0
 75152  1  0  0  0  0
 76 77  2  0  0  0  0
 76 78  1  0  0  0  0
 77 79  1  0  0  0  0
 77153  1  0  0  0  0
 78 80  2  0  0  0  0
 78154  1  0  0  0  0
 79 81  2  0  0  0  0
 79155  1  0  0  0  0
 80 81  1  0  0  0  0
 80156  1  0  0  0  0
 81 82  1  0  0  0  0
 82157  1  0  0  0  0
 83 84  1  0  0  0  0
 83158  1  0  0  0  0
 84 85  1  0  0  0  0
 84 87  1  0  0  0  0
 84159  1  1  0  0  0
 85 86  1  0  0  0  0
 85 91  2  0  0  0  0
 87 88  1  0  0  0  0
 87160  1  0  0  0  0
 87161  1  0  0  0  0
 88 89  1  0  0  0  0
 88 90  1  0  0  0  0
 88162  1  0  0  0  0
 89163  1  0  0  0  0
 89164  1  0  0  0  0
 89165  1  0  0  0  0
 90166  1  0  0  0  0
 90167  1  0  0  0  0
 90168  1  0  0  0  0
M  CHG  7   1   1   7  -1  27  -1  36  -1  60  -1  69  -1  86  -1
M  END
