1him_ligand
 OpenBabel08222323343D

122124  0  0  1  0  0  0  0  0999 V2000
   -9.0710   28.1080  -33.5750 N   0  3  0  0  0  0  0  0  0  0  0  0
  -10.4490   28.0310  -33.1360 C   0  0  2  0  0  0  0  0  0  0  0  0
  -10.2130   27.5100  -31.7190 C   0  0  0  0  0  0  0  0  0  0  0  0
   -9.2180   26.8230  -31.5070 O   0  0  0  0  0  0  0  0  0  0  0  0
  -11.1300   27.0790  -34.1570 C   0  0  0  0  0  0  0  0  0  0  0  0
  -12.5830   26.6380  -33.9680 C   0  0  0  0  0  0  0  0  0  0  0  0
  -13.5510   27.4600  -33.4030 C   0  0  0  0  0  0  0  0  0  0  0  0
  -12.9210   25.3540  -34.3640 C   0  0  0  0  0  0  0  0  0  0  0  0
  -14.8460   26.9910  -33.2360 C   0  0  0  0  0  0  0  0  0  0  0  0
  -14.2160   24.8800  -34.1950 C   0  0  0  0  0  0  0  0  0  0  0  0
  -15.1730   25.7040  -33.6310 C   0  0  0  0  0  0  0  0  0  0  0  0
  -16.4710   25.2530  -33.4680 O   0  0  0  0  0  0  0  0  0  0  0  0
  -11.0040   27.8860  -30.7240 N   0  0  0  0  0  0  0  0  0  0  0  0
  -10.7880   27.5170  -29.3330 C   0  0  2  0  0  0  0  0  0  0  0  0
  -12.1370   27.2420  -28.7690 C   0  0  0  0  0  0  0  0  0  0  0  0
  -12.9460   28.1480  -28.6740 O   0  0  0  0  0  0  0  0  0  0  0  0
  -10.1970   28.6390  -28.5130 C   0  0  0  0  0  0  0  0  0  0  0  0
   -9.9400   28.2310  -27.0780 C   0  0  0  0  0  0  0  0  0  0  0  0
   -9.8730   27.0400  -26.8080 O   0  5  0  0  0  0  0  0  0  0  0  0
   -9.7800   29.1000  -26.2300 O   0  0  0  0  0  0  0  0  0  0  0  0
  -12.3440   26.0210  -28.3640 N   0  0  0  0  0  0  0  0  0  0  0  0
  -13.6730   25.6250  -27.9490 C   0  0  2  0  0  0  0  0  0  0  0  0
  -13.8590   25.4290  -26.4420 C   0  0  0  0  0  0  0  0  0  0  0  0
  -12.8960   25.1820  -25.7080 O   0  0  0  0  0  0  0  0  0  0  0  0
  -14.0740   24.3260  -28.7820 C   0  0  0  0  0  0  0  0  0  0  0  0
  -14.3980   24.7940  -30.1920 C   0  0  0  0  0  0  0  0  0  0  0  0
  -12.9600   23.2720  -28.8700 C   0  0  0  0  0  0  0  0  0  0  0  0
  -15.0610   25.6500  -25.9210 N   0  0  0  0  0  0  0  0  0  0  0  0
  -15.4200   25.3330  -24.5450 C   0  0  2  0  0  0  0  0  0  0  0  0
  -15.3490   23.8430  -24.2230 C   0  0  0  0  0  0  0  0  0  0  0  0
  -15.4610   23.0150  -25.1250 O   0  0  0  0  0  0  0  0  0  0  0  0
  -16.8420   25.9310  -24.3920 C   0  0  0  0  0  0  0  0  0  0  0  0
  -17.4110   25.9120  -25.7930 C   0  0  0  0  0  0  0  0  0  0  0  0
  -16.1610   26.3410  -26.5780 C   0  0  0  0  0  0  0  0  0  0  0  0
  -15.2320   23.4260  -22.9750 N   0  0  0  0  0  0  0  0  0  0  0  0
  -15.2610   22.0030  -22.6920 C   0  0  2  0  0  0  0  0  0  0  0  0
  -16.6890   21.5000  -22.7960 C   0  0  0  0  0  0  0  0  0  0  0  0
  -17.6310   22.1940  -22.4260 O   0  0  0  0  0  0  0  0  0  0  0  0
  -14.7590   21.7400  -21.3050 C   0  0  0  0  0  0  0  0  0  0  0  0
  -14.4090   20.3020  -21.0710 C   0  0  0  0  0  0  0  0  0  0  0  0
  -13.3130   19.9640  -21.4610 O   0  5  0  0  0  0  0  0  0  0  0  0
  -15.1810   19.5580  -20.4880 O   0  0  0  0  0  0  0  0  0  0  0  0
  -16.9090   20.2620  -23.2120 N   0  0  0  0  0  0  0  0  0  0  0  0
  -18.2650   19.7260  -23.3430 C   0  0  2  0  0  0  0  0  0  0  0  0
  -18.9810   19.6340  -22.0090 C   0  0  0  0  0  0  0  0  0  0  0  0
  -20.2050   19.6530  -21.9180 O   0  0  0  0  0  0  0  0  0  0  0  0
  -18.2310   18.3140  -24.0360 C   0  0  0  0  0  0  0  0  0  0  0  0
  -17.2190   17.2170  -23.6080 C   0  0  0  0  0  0  0  0  0  0  0  0
  -15.8950   17.3040  -23.9690 C   0  0  0  0  0  0  0  0  0  0  0  0
  -17.6540   16.1640  -22.8380 C   0  0  0  0  0  0  0  0  0  0  0  0
  -15.0340   16.3610  -23.5420 C   0  0  0  0  0  0  0  0  0  0  0  0
  -16.7880   15.2110  -22.4210 C   0  0  0  0  0  0  0  0  0  0  0  0
  -15.4910   15.3180  -22.7700 C   0  0  0  0  0  0  0  0  0  0  0  0
  -14.5930   14.3580  -22.3350 O   0  0  0  0  0  0  0  0  0  0  0  0
  -18.1920   19.5270  -20.9580 N   0  0  0  0  0  0  0  0  0  0  0  0
  -18.7740   19.3680  -19.6570 C   0  0  2  0  0  0  0  0  0  0  0  0
  -18.9860   20.7570  -18.9540 C   0  0  0  0  0  0  0  0  0  0  0  0
  -19.3070   20.8710  -17.7600 O   0  0  0  0  0  0  0  0  0  0  0  0
  -17.7880   18.3710  -19.0120 C   0  0  0  0  0  0  0  0  0  0  0  0
  -18.7920   21.8890  -19.6310 N   0  0  0  0  0  0  0  0  0  0  0  0
  -18.9300   23.2320  -19.0590 C   0  0  2  0  0  0  0  0  0  0  0  0
  -20.4220   23.6040  -19.1410 C   0  0  0  0  0  0  0  0  0  0  0  0
  -21.1980   23.2690  -18.2330 O   0  0  0  0  0  0  0  0  0  0  0  0
  -18.0160   24.1420  -19.8950 C   0  0  0  0  0  0  0  0  0  0  0  0
  -18.2930   25.5220  -19.9700 O   0  0  0  0  0  0  0  0  0  0  0  0
  -20.8170   24.1860  -20.1490 N   0  0  0  0  0  0  0  0  0  0  0  0
   -9.0391   28.4459  -34.5241 H   0  0  0  0  0  0  0  0  0  0  0  0
   -8.6524   27.1921  -33.5302 H   0  0  0  0  0  0  0  0  0  0  0  0
   -8.5624   28.7396  -32.9763 H   0  0  0  0  0  0  0  0  0  0  0  0
  -10.9687   29.0003  -33.1201 H   0  0  0  0  0  0  0  0  0  0  0  0
  -10.5243   26.1611  -34.1825 H   0  0  0  0  0  0  0  0  0  0  0  0
  -11.0787   27.5795  -35.1352 H   0  0  0  0  0  0  0  0  0  0  0  0
  -13.2944   28.4666  -33.0931 H   0  0  0  0  0  0  0  0  0  0  0  0
  -12.1684   24.7136  -34.8096 H   0  0  0  0  0  0  0  0  0  0  0  0
  -15.6020   27.6316  -32.7964 H   0  0  0  0  0  0  0  0  0  0  0  0
  -14.4741   23.8731  -34.5025 H   0  0  0  0  0  0  0  0  0  0  0  0
  -16.9953   25.9377  -33.0695 H   0  0  0  0  0  0  0  0  0  0  0  0
  -11.7957   28.4567  -30.9420 H   0  0  0  0  0  0  0  0  0  0  0  0
  -10.1412   26.6292  -29.2744 H   0  0  0  0  0  0  0  0  0  0  0  0
  -10.8968   29.4877  -28.5191 H   0  0  0  0  0  0  0  0  0  0  0  0
   -9.2443   28.9460  -28.9690 H   0  0  0  0  0  0  0  0  0  0  0  0
  -11.5912   25.3631  -28.3401 H   0  0  0  0  0  0  0  0  0  0  0  0
  -14.3580   26.4348  -28.2406 H   0  0  0  0  0  0  0  0  0  0  0  0
  -14.9605   23.8649  -28.3220 H   0  0  0  0  0  0  0  0  0  0  0  0
  -14.6822   23.9290  -30.8092 H   0  0  0  0  0  0  0  0  0  0  0  0
  -13.5139   25.2815  -30.6288 H   0  0  0  0  0  0  0  0  0  0  0  0
  -15.2323   25.5101  -30.1581 H   0  0  0  0  0  0  0  0  0  0  0  0
  -12.7090   22.9186  -27.8590 H   0  0  0  0  0  0  0  0  0  0  0  0
  -12.0684   23.7187  -29.3341 H   0  0  0  0  0  0  0  0  0  0  0  0
  -13.3049   22.4239  -29.4797 H   0  0  0  0  0  0  0  0  0  0  0  0
  -14.7316   25.8506  -23.8608 H   0  0  0  0  0  0  0  0  0  0  0  0
  -16.7921   26.9599  -24.0062 H   0  0  0  0  0  0  0  0  0  0  0  0
  -17.4526   25.3149  -23.7156 H   0  0  0  0  0  0  0  0  0  0  0  0
  -18.2363   26.6296  -25.9109 H   0  0  0  0  0  0  0  0  0  0  0  0
  -17.7538   24.9080  -26.0835 H   0  0  0  0  0  0  0  0  0  0  0  0
  -16.2392   26.0336  -27.6312 H   0  0  0  0  0  0  0  0  0  0  0  0
  -16.0231   27.4309  -26.5234 H   0  0  0  0  0  0  0  0  0  0  0  0
  -15.1243   24.0857  -22.2312 H   0  0  0  0  0  0  0  0  0  0  0  0
  -14.6274   21.4732  -23.4185 H   0  0  0  0  0  0  0  0  0  0  0  0
  -15.5409   22.0313  -20.5883 H   0  0  0  0  0  0  0  0  0  0  0  0
  -13.8603   22.3513  -21.1359 H   0  0  0  0  0  0  0  0  0  0  0  0
  -16.1298   19.6791  -23.4423 H   0  0  0  0  0  0  0  0  0  0  0  0
  -18.8367   20.4115  -23.9859 H   0  0  0  0  0  0  0  0  0  0  0  0
  -18.0521   18.4990  -25.1055 H   0  0  0  0  0  0  0  0  0  0  0  0
  -19.2326   17.8796  -23.9015 H   0  0  0  0  0  0  0  0  0  0  0  0
  -15.5485   18.1221  -24.5900 H   0  0  0  0  0  0  0  0  0  0  0  0
  -18.7002   16.0965  -22.5624 H   0  0  0  0  0  0  0  0  0  0  0  0
  -13.9844   16.4234  -23.8056 H   0  0  0  0  0  0  0  0  0  0  0  0
  -17.1312   14.3780  -21.8181 H   0  0  0  0  0  0  0  0  0  0  0  0
  -14.5826   14.3430  -21.3852 H   0  0  0  0  0  0  0  0  0  0  0  0
  -17.1984   19.5564  -21.0669 H   0  0  0  0  0  0  0  0  0  0  0  0
  -19.7627   18.8923  -19.7351 H   0  0  0  0  0  0  0  0  0  0  0  0
  -18.1119   18.1477  -17.9847 H   0  0  0  0  0  0  0  0  0  0  0  0
  -16.7809   18.8129  -18.9910 H   0  0  0  0  0  0  0  0  0  0  0  0
  -17.7686   17.4418  -19.6004 H   0  0  0  0  0  0  0  0  0  0  0  0
  -18.5348   21.8173  -20.5947 H   0  0  0  0  0  0  0  0  0  0  0  0
  -18.6062   23.2487  -18.0079 H   0  0  0  0  0  0  0  0  0  0  0  0
  -18.0344   23.7554  -20.9246 H   0  0  0  0  0  0  0  0  0  0  0  0
  -17.0009   24.0412  -19.4836 H   0  0  0  0  0  0  0  0  0  0  0  0
  -17.6436   25.9448  -20.5196 H   0  0  0  0  0  0  0  0  0  0  0  0
  -21.7800   24.4417  -20.2337 H   0  0  0  0  0  0  0  0  0  0  0  0
  -20.1753   24.4038  -20.8844 H   0  0  0  0  0  0  0  0  0  0  0  0
  1  2  1  0  0  0  0
  1 67  1  0  0  0  0
  1 68  1  0  0  0  0
  1 69  1  0  0  0  0
  2  3  1  0  0  0  0
  2  5  1  0  0  0  0
  2 70  1  1  0  0  0
  3  4  2  0  0  0  0
  3 13  1  0  0  0  0
  5  6  1  0  0  0  0
  5 71  1  0  0  0  0
  5 72  1  0  0  0  0
  6  7  2  0  0  0  0
  6  8  1  0  0  0  0
  7  9  1  0  0  0  0
  7 73  1  0  0  0  0
  8 10  2  0  0  0  0
  8 74  1  0  0  0  0
  9 11  2  0  0  0  0
  9 75  1  0  0  0  0
 10 11  1  0  0  0  0
 10 76  1  0  0  0  0
 11 12  1  0  0  0  0
 12 77  1  0  0  0  0
 13 14  1  0  0  0  0
 13 78  1  0  0  0  0
 14 15  1  0  0  0  0
 14 17  1  0  0  0  0
 14 79  1  1  0  0  0
 15 16  2  0  0  0  0
 15 21  1  0  0  0  0
 17 18  1  0  0  0  0
 17 80  1  0  0  0  0
 17 81  1  0  0  0  0
 18 19  1  0  0  0  0
 18 20  2  0  0  0  0
 21 22  1  0  0  0  0
 21 82  1  0  0  0  0
 22 23  1  0  0  0  0
 22 25  1  0  0  0  0
 22 83  1  6  0  0  0
 23 24  2  0  0  0  0
 23 28  1  0  0  0  0
 25 26  1  0  0  0  0
 25 27  1  0  0  0  0
 25 84  1  0  0  0  0
 26 85  1  0  0  0  0
 26 86  1  0  0  0  0
 26 87  1  0  0  0  0
 27 88  1  0  0  0  0
 27 89  1  0  0  0  0
 27 90  1  0  0  0  0
 28 29  1  0  0  0  0
 28 34  1  0  0  0  0
 29 30  1  0  0  0  0
 29 32  1  0  0  0  0
 29 91  1  1  0  0  0
 30 31  2  0  0  0  0
 30 35  1  0  0  0  0
 32 33  1  0  0  0  0
 32 92  1  0  0  0  0
 32 93  1  0  0  0  0
 33 34  1  0  0  0  0
 33 94  1  0  0  0  0
 33 95  1  0  0  0  0
 34 96  1  0  0  0  0
 34 97  1  0  0  0  0
 35 36  1  0  0  0  0
 35 98  1  0  0  0  0
 36 37  1  0  0  0  0
 36 39  1  0  0  0  0
 36 99  1  6  0  0  0
 37 38  2  0  0  0  0
 37 43  1  0  0  0  0
 39 40  1  0  0  0  0
 39100  1  0  0  0  0
 39101  1  0  0  0  0
 40 41  1  0  0  0  0
 40 42  2  0  0  0  0
 43 44  1  0  0  0  0
 43102  1  0  0  0  0
 44 45  1  0  0  0  0
 44 47  1  0  0  0  0
 44103  1  6  0  0  0
 45 46  2  0  0  0  0
 45 55  1  0  0  0  0
 47 48  1  0  0  0  0
 47104  1  0  0  0  0
 47105  1  0  0  0  0
 48 49  2  0  0  0  0
 48 50  1  0  0  0  0
 49 51  1  0  0  0  0
 49106  1  0  0  0  0
 50 52  2  0  0  0  0
 50107  1  0  0  0  0
 51 53  2  0  0  0  0
 51108  1  0  0  0  0
 52 53  1  0  0  0  0
 52109  1  0  0  0  0
 53 54  1  0  0  0  0
 54110  1  0  0  0  0
 55 56  1  0  0  0  0
 55111  1  0  0  0  0
 56 57  1  0  0  0  0
 56 59  1  0  0  0  0
 56112  1  6  0  0  0
 57 58  2  0  0  0  0
 57 60  1  0  0  0  0
 59113  1  0  0  0  0
 59114  1  0  0  0  0
 59115  1  0  0  0  0
 60 61  1  0  0  0  0
 60116  1  0  0  0  0
 61 62  1  0  0  0  0
 61 64  1  0  0  0  0
 61117  1  1  0  0  0
 62 63  2  0  0  0  0
 62 66  1  0  0  0  0
 64 65  1  0  0  0  0
 64118  1  0  0  0  0
 64119  1  0  0  0  0
 65120  1  0  0  0  0
 66121  1  0  0  0  0
 66122  1  0  0  0  0
M  CHG  3   1   1  19  -1  41  -1
M  END
