1hk2_ligand
 OpenBabel08222323343D

 35 36  0  0  1  0  0  0  0  0999 V2000
   -8.7150   -0.1570   16.5320 C   0  0  0  0  0  0  0  0  0  0  0  0
   -8.5080   -1.4940   16.1720 C   0  0  0  0  0  0  0  0  0  0  0  0
   -8.8450   -1.9840   14.9110 C   0  0  0  0  0  0  0  0  0  0  0  0
   -9.4150   -1.1090   13.9540 C   0  0  0  0  0  0  0  0  0  0  0  0
   -9.6370    0.1970   14.3100 C   0  0  0  0  0  0  0  0  0  0  0  0
   -9.3070    0.7180   15.5810 C   0  0  0  0  0  0  0  0  0  0  0  0
   -8.2670    0.2920   17.9120 C   0  0  0  0  0  0  0  0  0  0  0  0
   -6.7280    0.2350   18.1060 C   0  0  1  0  0  0  0  0  0  0  0  0
   -5.8500    0.6800   16.8810 C   0  0  0  0  0  0  0  0  0  0  0  0
   -8.6940   -1.4100   11.6970 C   0  0  0  0  0  0  0  0  0  0  0  0
   -9.1040   -1.3580   10.3750 C   0  0  0  0  0  0  0  0  0  0  0  0
   -8.1130   -1.1890    9.3940 C   0  0  0  0  0  0  0  0  0  0  0  0
   -6.6900   -1.0540    9.6440 C   0  0  0  0  0  0  0  0  0  0  0  0
   -6.3830   -1.1150   11.0130 C   0  0  0  0  0  0  0  0  0  0  0  0
   -7.3150   -1.2810   12.0310 C   0  0  0  0  0  0  0  0  0  0  0  0
   -6.3320    1.1290   19.2500 N   0  3  0  0  0  0  0  0  0  0  0  0
   -9.7110   -1.5800   12.6920 O   0  0  0  0  0  0  0  0  0  0  0  0
   -5.8010   -0.8980    8.6630 O   0  0  0  0  0  0  0  0  0  0  0  0
   -6.0440    1.8240   16.4390 O   0  5  0  0  0  0  0  0  0  0  0  0
   -5.0340   -0.1400   16.4240 O   0  0  0  0  0  0  0  0  0  0  0  0
   -8.5100   -3.9720   14.4470 I   0  0  0  0  0  0  0  0  0  0  0  0
   -8.6610   -1.1050    7.4410 I   0  0  0  0  0  0  0  0  0  0  0  0
  -10.5080    1.4510   12.8940 I   0  0  0  0  0  0  0  0  0  0  0  0
   -4.4250   -0.9230   11.5640 I   0  0  0  0  0  0  0  0  0  0  0  0
   -8.0713   -2.1706   16.8977 H   0  0  0  0  0  0  0  0  0  0  0  0
   -9.5000    1.7566   15.8243 H   0  0  0  0  0  0  0  0  0  0  0  0
   -8.7379   -0.3609   18.6617 H   0  0  0  0  0  0  0  0  0  0  0  0
   -8.6004    1.3287   18.0673 H   0  0  0  0  0  0  0  0  0  0  0  0
   -6.4675   -0.8056   18.3493 H   0  0  0  0  0  0  0  0  0  0  0  0
  -10.1509   -1.4445   10.1074 H   0  0  0  0  0  0  0  0  0  0  0  0
   -6.9963   -1.3119   13.0666 H   0  0  0  0  0  0  0  0  0  0  0  0
   -5.3325    1.0914   19.3753 H   0  0  0  0  0  0  0  0  0  0  0  0
   -6.7883    0.8178   20.0932 H   0  0  0  0  0  0  0  0  0  0  0  0
   -6.6099    2.0766   19.0477 H   0  0  0  0  0  0  0  0  0  0  0  0
   -5.1817   -1.6182    8.6808 H   0  0  0  0  0  0  0  0  0  0  0  0
  1  7  1  0  0  0  0
  2  1  2  0  0  0  0
  2 25  1  0  0  0  0
  3  2  1  0  0  0  0
  3 21  1  0  0  0  0
  4  3  2  0  0  0  0
  4  5  1  0  0  0  0
  5  6  2  0  0  0  0
  5 23  1  0  0  0  0
  6  1  1  0  0  0  0
  6 26  1  0  0  0  0
  7  8  1  0  0  0  0
  7 27  1  0  0  0  0
  7 28  1  0  0  0  0
  8  9  1  0  0  0  0
  8 16  1  0  0  0  0
  8 29  1  1  0  0  0
  9 19  1  0  0  0  0
  9 20  2  0  0  0  0
 10 11  2  0  0  0  0
 10 15  1  0  0  0  0
 10 17  1  0  0  0  0
 11 12  1  0  0  0  0
 11 30  1  0  0  0  0
 12 13  2  0  0  0  0
 12 22  1  0  0  0  0
 13 14  1  0  0  0  0
 13 18  1  0  0  0  0
 14 15  2  0  0  0  0
 14 24  1  0  0  0  0
 15 31  1  0  0  0  0
 16 32  1  0  0  0  0
 16 33  1  0  0  0  0
 16 34  1  0  0  0  0
 17  4  1  0  0  0  0
 18 35  1  0  0  0  0
M  CHG  2  16   1  19  -1
M  END
