1hqh_ligand
 OpenBabel08222323343D

 23 22  0  0  1  0  0  0  0  0999 V2000
   39.5370   22.0430   -8.5130 N   0  3  0  0  0  0  0  0  0  0  0  0
   39.1960   22.0230   -9.9270 C   0  0  2  0  0  0  0  0  0  0  0  0
   40.2570   22.7020  -10.7920 C   0  0  0  0  0  0  0  0  0  0  0  0
   41.2790   23.2280  -10.4010 O   0  5  0  0  0  0  0  0  0  0  0  0
   37.8010   22.6840  -10.0910 C   0  0  0  0  0  0  0  0  0  0  0  0
   37.5870   24.1490   -9.6050 C   0  0  0  0  0  0  0  0  0  0  0  0
   36.5210   24.7740  -10.4350 N   0  0  0  0  0  0  0  0  0  0  0  0
   35.9520   26.0240  -10.3390 C   0  0  1  0  0  3  0  0  0  0  0  0
   36.3810   26.9340   -9.3140 N   0  0  0  0  0  0  0  0  0  0  0  0
   34.9900   26.4680  -11.1660 N   0  0  0  0  0  0  0  0  0  0  0  0
   35.8620   28.1180   -9.2130 O   0  0  0  0  0  0  0  0  0  0  0  0
   39.9310   22.6390  -12.0910 O   0  0  0  0  0  0  0  0  0  0  0  0
   38.8100   21.5854   -7.9856 H   0  0  0  0  0  0  0  0  0  0  0  0
   39.6271   22.9977   -8.2025 H   0  0  0  0  0  0  0  0  0  0  0  0
   40.4101   21.5597   -8.3710 H   0  0  0  0  0  0  0  0  0  0  0  0
   39.1245   20.9744  -10.2515 H   0  0  0  0  0  0  0  0  0  0  0  0
   37.0826   22.0565   -9.5431 H   0  0  0  0  0  0  0  0  0  0  0  0
   37.5612   22.6642  -11.1643 H   0  0  0  0  0  0  0  0  0  0  0  0
   38.5229   24.7164   -9.7152 H   0  0  0  0  0  0  0  0  0  0  0  0
   37.2811   24.1480   -8.5484 H   0  0  0  0  0  0  0  0  0  0  0  0
   36.1543   24.1830  -11.1947 H   0  0  0  0  0  0  0  0  0  0  0  0
   34.6025   27.4145  -11.0441 H   0  0  0  0  0  0  0  0  0  0  0  0
   34.6402   25.8617  -11.9216 H   0  0  0  0  0  0  0  0  0  0  0  0
  1  2  1  0  0  0  0
  1 13  1  0  0  0  0
  1 14  1  0  0  0  0
  1 15  1  0  0  0  0
  2  3  1  0  0  0  0
  2  5  1  0  0  0  0
  2 16  1  6  0  0  0
  3  4  1  0  0  0  0
  3 12  2  0  0  0  0
  5  6  1  0  0  0  0
  5 17  1  0  0  0  0
  5 18  1  0  0  0  0
  6  7  1  0  0  0  0
  6 19  1  0  0  0  0
  6 20  1  0  0  0  0
  7  8  1  0  0  0  0
  7 21  1  0  0  0  0
  8  9  1  6  0  0  0
  8 10  1  0  0  0  0
  9 11  2  0  0  0  0
 10 22  1  0  0  0  0
 10 23  1  0  0  0  0
M  CHG  2   1   1   4  -1
M  END
