1htf_ligand
 OpenBabel08222323343D

 80 83  0  0  1  0  0  0  0  0999 V2000
   18.5650    4.3310    1.2190 C   0  0  0  0  0  0  0  0  0  0  0  0
   18.4580    3.2440    2.2930 C   0  0  2  0  0  0  0  0  0  0  0  0
   17.5490    5.1160    3.5890 C   0  0  2  0  0  0  0  0  0  0  0  0
   18.4590    5.3740    4.7890 C   0  0  1  0  0  0  0  0  0  0  0  0
   18.4600    6.8680    5.1520 C   0  0  0  0  0  0  0  0  0  0  0  0
   17.4080    4.3540    0.2220 C   0  0  0  0  0  0  0  0  0  0  0  0
   19.9170    4.3570    0.5260 C   0  0  0  0  0  0  0  0  0  0  0  0
   18.2080    1.8540    1.7090 C   0  0  0  0  0  0  0  0  0  0  0  0
   19.2390    0.0440    0.4170 C   0  0  1  0  0  0  0  0  0  0  0  0
   19.6500    8.7030    6.2390 C   0  0  0  0  0  0  0  0  0  0  0  0
   20.3880    0.0370   -0.5970 C   0  0  0  0  0  0  0  0  0  0  0  0
   18.8590    3.4980    6.2450 C   0  0  0  0  0  0  0  0  0  0  0  0
   18.2710    2.4920    7.2150 C   0  0  0  0  0  0  0  0  0  0  0  0
   17.6780    0.9130    5.3720 C   0  0  0  0  0  0  0  0  0  0  0  0
   18.3280    1.1290    6.5770 C   0  0  0  0  0  0  0  0  0  0  0  0
   19.0210    0.0980    7.1770 C   0  0  0  0  0  0  0  0  0  0  0  0
   19.0570   -1.1300    6.5620 C   0  0  0  0  0  0  0  0  0  0  0  0
   18.4150   -1.3290    5.3570 C   0  0  0  0  0  0  0  0  0  0  0  0
   17.7190   -0.3100    4.7600 C   0  0  0  0  0  0  0  0  0  0  0  0
   19.1970   -1.2060    1.3200 C   0  0  0  0  0  0  0  0  0  0  0  0
   18.2030   -4.8560   -0.7260 C   0  0  0  0  0  0  0  0  0  0  0  0
   19.5250   -4.4950   -0.5790 C   0  0  0  0  0  0  0  0  0  0  0  0
   19.8590   -3.3270    0.0720 C   0  0  0  0  0  0  0  0  0  0  0  0
   18.8680   -2.5060    0.5820 C   0  0  0  0  0  0  0  0  0  0  0  0
   17.5550   -2.8900    0.4210 C   0  0  0  0  0  0  0  0  0  0  0  0
   17.2110   -4.0550   -0.2240 C   0  0  0  0  0  0  0  0  0  0  0  0
   19.4510    9.8560    9.8350 C   0  0  0  0  0  0  0  0  0  0  0  0
   18.0980    9.7760   10.0850 C   0  0  0  0  0  0  0  0  0  0  0  0
   17.2430    9.3340    9.0970 C   0  0  0  0  0  0  0  0  0  0  0  0
   17.7420    8.9760    7.8590 C   0  0  0  0  0  0  0  0  0  0  0  0
   19.0980    9.0560    7.6010 C   0  0  0  0  0  0  0  0  0  0  0  0
   19.9470    9.4960    8.5990 C   0  0  0  0  0  0  0  0  0  0  0  0
   17.4500    3.7180    3.2440 N   0  3  0  0  0  0  0  0  0  0  0  0
   19.2830    1.2850    1.1750 N   0  0  0  0  0  0  0  0  0  0  0  0
   18.0550    4.4920    5.8910 N   0  0  0  0  0  0  0  0  0  0  0  0
   19.5100    7.3020    5.8370 N   0  0  0  0  0  0  0  0  0  0  0  0
   17.1220    1.3050    1.7020 O   0  0  0  0  0  0  0  0  0  0  0  0
   17.5570    7.6270    4.8440 O   0  0  0  0  0  0  0  0  0  0  0  0
   20.0010    3.3940    5.8350 O   0  0  0  0  0  0  0  0  0  0  0  0
   21.6500   -0.0540    0.0440 O   0  0  0  0  0  0  0  0  0  0  0  0
   18.3550    5.8670    2.1630 S   0  0  0  0  0  0  0  0  0  0  0  0
   19.4196    3.1888    2.8242 H   0  0  0  0  0  0  0  0  0  0  0  0
   16.5513    5.5423    3.7705 H   0  0  0  0  0  0  0  0  0  0  0  0
   19.4877    5.1049    4.5072 H   0  0  0  0  0  0  0  0  0  0  0  0
   17.5687    5.1614   -0.5075 H   0  0  0  0  0  0  0  0  0  0  0  0
   16.4642    4.5280    0.7595 H   0  0  0  0  0  0  0  0  0  0  0  0
   17.3580    3.3892   -0.3040 H   0  0  0  0  0  0  0  0  0  0  0  0
   20.7165    4.3392    1.2813 H   0  0  0  0  0  0  0  0  0  0  0  0
   20.0025    5.2731   -0.0769 H   0  0  0  0  0  0  0  0  0  0  0  0
   20.0108    3.4775   -0.1280 H   0  0  0  0  0  0  0  0  0  0  0  0
   18.3007    0.0439   -0.1570 H   0  0  0  0  0  0  0  0  0  0  0  0
   19.1290    9.3215    5.4933 H   0  0  0  0  0  0  0  0  0  0  0  0
   20.7220    8.9494    6.2354 H   0  0  0  0  0  0  0  0  0  0  0  0
   20.3520    0.9668   -1.1837 H   0  0  0  0  0  0  0  0  0  0  0  0
   20.2659   -0.8254   -1.2688 H   0  0  0  0  0  0  0  0  0  0  0  0
   17.2262    2.7555    7.4360 H   0  0  0  0  0  0  0  0  0  0  0  0
   18.8540    2.4904    8.1478 H   0  0  0  0  0  0  0  0  0  0  0  0
   17.1294    1.7246    4.9079 H   0  0  0  0  0  0  0  0  0  0  0  0
   19.5303    0.2547    8.1210 H   0  0  0  0  0  0  0  0  0  0  0  0
   19.5939   -1.9489    7.0270 H   0  0  0  0  0  0  0  0  0  0  0  0
   18.4614   -2.3003    4.8779 H   0  0  0  0  0  0  0  0  0  0  0  0
   17.2088   -0.4708    3.8172 H   0  0  0  0  0  0  0  0  0  0  0  0
   18.4318   -1.0463    2.0939 H   0  0  0  0  0  0  0  0  0  0  0  0
   20.1820   -1.3202    1.7962 H   0  0  0  0  0  0  0  0  0  0  0  0
   17.9474   -5.7756   -1.2399 H   0  0  0  0  0  0  0  0  0  0  0  0
   20.3058   -5.1328   -0.9773 H   0  0  0  0  0  0  0  0  0  0  0  0
   20.9010   -3.0504    0.1850 H   0  0  0  0  0  0  0  0  0  0  0  0
   16.7694   -2.2550    0.8144 H   0  0  0  0  0  0  0  0  0  0  0  0
   16.1697   -4.3356   -0.3337 H   0  0  0  0  0  0  0  0  0  0  0  0
   20.1256   10.2019   10.6098 H   0  0  0  0  0  0  0  0  0  0  0  0
   17.7069   10.0596   11.0554 H   0  0  0  0  0  0  0  0  0  0  0  0
   16.1787    9.2674    9.2918 H   0  0  0  0  0  0  0  0  0  0  0  0
   17.0660    8.6303    7.0853 H   0  0  0  0  0  0  0  0  0  0  0  0
   21.0123    9.5588    8.4088 H   0  0  0  0  0  0  0  0  0  0  0  0
   17.5411    3.1794    4.0911 H   0  0  0  0  0  0  0  0  0  0  0  0
   16.5400    3.5588    2.8408 H   0  0  0  0  0  0  0  0  0  0  0  0
   20.1683    1.7328    1.3005 H   0  0  0  0  0  0  0  0  0  0  0  0
   17.1878    4.6382    6.3670 H   0  0  0  0  0  0  0  0  0  0  0  0
   20.2280    6.6522    6.0865 H   0  0  0  0  0  0  0  0  0  0  0  0
   21.6902   -0.8577    0.5489 H   0  0  0  0  0  0  0  0  0  0  0  0
  1  2  1  0  0  0  0
  1  6  1  0  0  0  0
  1  7  1  0  0  0  0
  2  8  1  0  0  0  0
  2 42  1  1  0  0  0
  3 33  1  0  0  0  0
  3 41  1  0  0  0  0
  3 43  1  1  0  0  0
  4  3  1  0  0  0  0
  4 35  1  0  0  0  0
  4 44  1  6  0  0  0
  5  4  1  0  0  0  0
  5 38  2  0  0  0  0
  6 45  1  0  0  0  0
  6 46  1  0  0  0  0
  6 47  1  0  0  0  0
  7 48  1  0  0  0  0
  7 49  1  0  0  0  0
  7 50  1  0  0  0  0
  8 34  1  0  0  0  0
  8 37  2  0  0  0  0
  9 11  1  0  0  0  0
  9 20  1  0  0  0  0
  9 51  1  6  0  0  0
 10 36  1  0  0  0  0
 10 31  1  0  0  0  0
 10 52  1  0  0  0  0
 10 53  1  0  0  0  0
 11 40  1  0  0  0  0
 11 54  1  0  0  0  0
 11 55  1  0  0  0  0
 12 13  1  0  0  0  0
 12 39  2  0  0  0  0
 13 15  1  0  0  0  0
 13 56  1  0  0  0  0
 13 57  1  0  0  0  0
 14 58  1  0  0  0  0
 15 16  2  0  0  0  0
 15 14  1  0  0  0  0
 16 17  1  0  0  0  0
 16 59  1  0  0  0  0
 17 18  2  0  0  0  0
 17 60  1  0  0  0  0
 18 19  1  0  0  0  0
 18 61  1  0  0  0  0
 19 14  2  0  0  0  0
 19 62  1  0  0  0  0
 20 24  1  0  0  0  0
 20 63  1  0  0  0  0
 20 64  1  0  0  0  0
 21 65  1  0  0  0  0
 22 21  2  0  0  0  0
 22 66  1  0  0  0  0
 23 22  1  0  0  0  0
 23 67  1  0  0  0  0
 24 23  2  0  0  0  0
 24 25  1  0  0  0  0
 25 26  2  0  0  0  0
 25 68  1  0  0  0  0
 26 21  1  0  0  0  0
 26 69  1  0  0  0  0
 27 28  2  0  0  0  0
 27 70  1  0  0  0  0
 28 71  1  0  0  0  0
 29 28  1  0  0  0  0
 29 72  1  0  0  0  0
 30 29  2  0  0  0  0
 30 73  1  0  0  0  0
 31 30  1  0  0  0  0
 31 32  2  0  0  0  0
 32 27  1  0  0  0  0
 32 74  1  0  0  0  0
 33  2  1  0  0  0  0
 33 75  1  0  0  0  0
 33 76  1  0  0  0  0
 34  9  1  0  0  0  0
 34 77  1  0  0  0  0
 35 12  1  0  0  0  0
 35 78  1  0  0  0  0
 36  5  1  0  0  0  0
 36 79  1  0  0  0  0
 40 80  1  0  0  0  0
 41  1  1  0  0  0  0
M  CHG  1  33   1
M  END
