1htg_ligand
 OpenBabel08222323343D

103108  0  0  1  0  0  0  0  0999 V2000
   14.6060   22.9110    3.9500 C   0  0  0  0  0  0  0  0  0  0  0  0
   13.1600   24.0890    5.6660 C   0  0  1  0  0  0  0  0  0  0  0  0
   10.7590   24.1700    5.0360 C   0  0  0  0  0  0  0  0  0  0  0  0
    9.7720   24.8180    4.0710 C   0  0  1  0  0  0  0  0  0  0  0  0
    7.4120   25.1360    3.6000 C   0  0  2  0  0  0  0  0  0  0  0  0
    9.6910   24.0870    2.7320 C   0  0  0  0  0  0  0  0  0  0  0  0
    9.5600   22.5730    2.8480 C   0  0  0  0  0  0  0  0  0  0  0  0
   10.8230   24.4820    1.8210 C   0  0  0  0  0  0  0  0  0  0  0  0
    7.0150   26.5990    3.4860 C   0  0  1  0  0  0  0  0  0  0  0  0
    7.6770   27.9900    5.4610 C   0  0  0  0  0  0  0  0  0  0  0  0
    7.3930   28.1900    6.9650 C   0  0  0  0  0  0  0  0  0  0  0  0
    8.4930   27.5990    7.8310 C   0  0  0  0  0  0  0  0  0  0  0  0
    9.4140   28.4170    8.4500 C   0  0  0  0  0  0  0  0  0  0  0  0
   10.4820   27.8890    9.1340 C   0  0  0  0  0  0  0  0  0  0  0  0
   10.6470   26.5360    9.2250 C   0  0  0  0  0  0  0  0  0  0  0  0
    9.7280   25.6980    8.6400 C   0  0  0  0  0  0  0  0  0  0  0  0
    8.6420   26.2150    7.9540 C   0  0  0  0  0  0  0  0  0  0  0  0
    5.9170   26.6260    2.4350 C   0  0  0  0  0  0  0  0  0  0  0  0
    4.1350   25.5180    3.8700 C   0  0  0  0  0  0  0  0  0  0  0  0
   14.4750   24.1100    4.8540 C   0  0  2  0  0  0  0  0  0  0  0  0
    1.5390   27.1770    6.1210 C   0  0  0  0  0  0  0  0  0  0  0  0
    2.1460   26.5960    5.0090 C   0  0  0  0  0  0  0  0  0  0  0  0
    3.4800   26.1800    5.0810 C   0  0  0  0  0  0  0  0  0  0  0  0
    4.1870   26.3580    6.2780 C   0  0  0  0  0  0  0  0  0  0  0  0
    3.5910   26.9830    7.3650 C   0  0  0  0  0  0  0  0  0  0  0  0
    2.2650   27.3780    7.2960 C   0  0  0  0  0  0  0  0  0  0  0  0
   17.9590   16.7970    2.3830 C   0  0  0  0  0  0  0  0  0  0  0  0
   17.0060   17.7600    2.6320 C   0  0  0  0  0  0  0  0  0  0  0  0
   17.1510   18.5160    3.7780 C   0  0  0  0  0  0  0  0  0  0  0  0
   18.3060   18.3480    4.6790 C   0  0  0  0  0  0  0  0  0  0  0  0
   19.2170   17.3720    4.3960 C   0  0  0  0  0  0  0  0  0  0  0  0
   19.0120   16.5990    3.2730 C   0  0  0  0  0  0  0  0  0  0  0  0
   16.9870   19.7790    5.5020 C   0  0  0  0  0  0  0  0  0  0  0  0
   16.3360   20.7660    6.3940 C   0  0  0  0  0  0  0  0  0  0  0  0
   15.6440   23.9920    7.9000 C   0  0  0  0  0  0  0  0  0  0  0  0
   14.2620   23.9390    7.9320 C   0  0  0  0  0  0  0  0  0  0  0  0
   13.6800   23.0250    8.7780 C   0  0  0  0  0  0  0  0  0  0  0  0
   14.4340   22.1550    9.5490 C   0  0  0  0  0  0  0  0  0  0  0  0
   15.7990   22.1930    9.4810 C   0  0  0  0  0  0  0  0  0  0  0  0
   16.4060   23.1230    8.6650 C   0  0  0  0  0  0  0  0  0  0  0  0
   13.3420   24.7730    7.0300 C   0  0  0  0  0  0  0  0  0  0  0  0
   14.7620   21.7630    4.8710 C   0  0  0  0  0  0  0  0  0  0  0  0
   12.0070   24.5920    4.8720 N   0  0  0  0  0  0  0  0  0  0  0  0
    8.4180   24.9160    4.5850 N   0  3  0  0  0  0  0  0  0  0  0  0
    6.7490   27.2600    4.7920 N   0  0  0  0  0  0  0  0  0  0  0  0
    4.6600   26.3990    2.8020 N   0  0  0  0  0  0  0  0  0  0  0  0
   16.3540   19.4290    4.3900 N   0  0  0  0  0  0  0  0  0  0  0  0
   18.1690   19.1980    5.7280 N   0  0  0  0  0  0  0  0  0  0  0  0
   15.8970   21.8260    5.5120 N   0  0  0  0  0  0  0  0  0  0  0  0
   10.4360   23.3490    5.8760 O   0  0  0  0  0  0  0  0  0  0  0  0
    8.6890   28.4490    4.9480 O   0  0  0  0  0  0  0  0  0  0  0  0
    6.1610   26.8520    1.2570 O   0  0  0  0  0  0  0  0  0  0  0  0
   14.4550   25.2470    4.0590 O   0  0  0  0  0  0  0  0  0  0  0  0
   13.9050   20.9140    5.0660 O   0  0  0  0  0  0  0  0  0  0  0  0
    8.1400   24.6880    2.0090 S   0  0  0  0  0  0  0  0  0  0  0  0
   15.4878   23.0096    3.2998 H   0  0  0  0  0  0  0  0  0  0  0  0
   13.7050   22.7918    3.3304 H   0  0  0  0  0  0  0  0  0  0  0  0
   12.9404   23.0329    5.8812 H   0  0  0  0  0  0  0  0  0  0  0  0
   10.1360   25.8388    3.8826 H   0  0  0  0  0  0  0  0  0  0  0  0
    6.5275   24.5210    3.8222 H   0  0  0  0  0  0  0  0  0  0  0  0
    9.5085   22.1313    1.8419 H   0  0  0  0  0  0  0  0  0  0  0  0
    8.6438   22.3258    3.4042 H   0  0  0  0  0  0  0  0  0  0  0  0
   10.4331   22.1692    3.3815 H   0  0  0  0  0  0  0  0  0  0  0  0
   10.8829   25.5789    1.7650 H   0  0  0  0  0  0  0  0  0  0  0  0
   10.6445   24.0728    0.8157 H   0  0  0  0  0  0  0  0  0  0  0  0
   11.7685   24.0829    2.2168 H   0  0  0  0  0  0  0  0  0  0  0  0
    7.8722   27.1424    3.0618 H   0  0  0  0  0  0  0  0  0  0  0  0
    6.4407   27.6999    7.2157 H   0  0  0  0  0  0  0  0  0  0  0  0
    7.3167   29.2675    7.1727 H   0  0  0  0  0  0  0  0  0  0  0  0
    9.2937   29.4930    8.3962 H   0  0  0  0  0  0  0  0  0  0  0  0
   11.1994   28.5512    9.6052 H   0  0  0  0  0  0  0  0  0  0  0  0
   11.4983   26.1254    9.7558 H   0  0  0  0  0  0  0  0  0  0  0  0
    9.8543   24.6241    8.7162 H   0  0  0  0  0  0  0  0  0  0  0  0
    7.9096   25.5481    7.5137 H   0  0  0  0  0  0  0  0  0  0  0  0
    4.9766   24.9147    4.2411 H   0  0  0  0  0  0  0  0  0  0  0  0
    3.3845   24.8575    3.4112 H   0  0  0  0  0  0  0  0  0  0  0  0
   15.3312   24.1415    5.5439 H   0  0  0  0  0  0  0  0  0  0  0  0
    0.4977   27.4743    6.0731 H   0  0  0  0  0  0  0  0  0  0  0  0
    1.5857   26.4667    4.0901 H   0  0  0  0  0  0  0  0  0  0  0  0
    5.2087   26.0044    6.3558 H   0  0  0  0  0  0  0  0  0  0  0  0
    4.1634   27.1620    8.2680 H   0  0  0  0  0  0  0  0  0  0  0  0
    1.7918   27.8426    8.1535 H   0  0  0  0  0  0  0  0  0  0  0  0
   17.8890   16.1891    1.4882 H   0  0  0  0  0  0  0  0  0  0  0  0
   16.1747   17.9180    1.9545 H   0  0  0  0  0  0  0  0  0  0  0  0
   20.0769   17.2093    5.0357 H   0  0  0  0  0  0  0  0  0  0  0  0
   19.7084   15.7930    3.0716 H   0  0  0  0  0  0  0  0  0  0  0  0
   17.0520   21.1501    7.1354 H   0  0  0  0  0  0  0  0  0  0  0  0
   15.4783   20.3132    6.9129 H   0  0  0  0  0  0  0  0  0  0  0  0
   16.1371   24.7223    7.2687 H   0  0  0  0  0  0  0  0  0  0  0  0
   12.5988   22.9837    8.8439 H   0  0  0  0  0  0  0  0  0  0  0  0
   13.9425   21.4455   10.2049 H   0  0  0  0  0  0  0  0  0  0  0  0
   16.3966   21.4999   10.0620 H   0  0  0  0  0  0  0  0  0  0  0  0
   17.4879   23.1753    8.6211 H   0  0  0  0  0  0  0  0  0  0  0  0
   13.7874   25.7675    6.8795 H   0  0  0  0  0  0  0  0  0  0  0  0
   12.3604   24.8804    7.5147 H   0  0  0  0  0  0  0  0  0  0  0  0
   12.1819   25.2875    4.1751 H   0  0  0  0  0  0  0  0  0  0  0  0
    8.2030   24.0557    5.0643 H   0  0  0  0  0  0  0  0  0  0  0  0
    8.3871   25.6820    5.2394 H   0  0  0  0  0  0  0  0  0  0  0  0
    5.8402   27.1614    5.1975 H   0  0  0  0  0  0  0  0  0  0  0  0
    3.9669   26.8963    2.2802 H   0  0  0  0  0  0  0  0  0  0  0  0
   18.8197   19.3571    6.5104 H   0  0  0  0  0  0  0  0  0  0  0  0
   16.4798   22.6294    5.3903 H   0  0  0  0  0  0  0  0  0  0  0  0
   15.2623   25.2980    3.5608 H   0  0  0  0  0  0  0  0  0  0  0  0
  1 42  1  0  0  0  0
  1 56  1  0  0  0  0
  1 57  1  0  0  0  0
  2 41  1  0  0  0  0
  2 20  1  0  0  0  0
  2 58  1  1  0  0  0
  3 50  2  0  0  0  0
  3 43  1  0  0  0  0
  4  3  1  0  0  0  0
  4  6  1  0  0  0  0
  4 59  1  6  0  0  0
  5 55  1  0  0  0  0
  5 44  1  0  0  0  0
  5  9  1  0  0  0  0
  5 60  1  1  0  0  0
  6  7  1  0  0  0  0
  6  8  1  0  0  0  0
  7 61  1  0  0  0  0
  7 62  1  0  0  0  0
  7 63  1  0  0  0  0
  8 64  1  0  0  0  0
  8 65  1  0  0  0  0
  8 66  1  0  0  0  0
  9 18  1  0  0  0  0
  9 45  1  0  0  0  0
  9 67  1  6  0  0  0
 10 11  1  0  0  0  0
 10 51  2  0  0  0  0
 11 12  1  0  0  0  0
 11 68  1  0  0  0  0
 11 69  1  0  0  0  0
 12 13  2  0  0  0  0
 12 17  1  0  0  0  0
 13 14  1  0  0  0  0
 13 70  1  0  0  0  0
 14 15  2  0  0  0  0
 14 71  1  0  0  0  0
 15 72  1  0  0  0  0
 16 15  1  0  0  0  0
 16 73  1  0  0  0  0
 17 16  2  0  0  0  0
 17 74  1  0  0  0  0
 18 52  2  0  0  0  0
 18 46  1  0  0  0  0
 19 23  1  0  0  0  0
 19 75  1  0  0  0  0
 19 76  1  0  0  0  0
 20  1  1  0  0  0  0
 20 53  1  0  0  0  0
 20 77  1  1  0  0  0
 21 26  1  0  0  0  0
 21 78  1  0  0  0  0
 22 21  2  0  0  0  0
 22 79  1  0  0  0  0
 23 22  1  0  0  0  0
 23 24  2  0  0  0  0
 24 25  1  0  0  0  0
 24 80  1  0  0  0  0
 25 26  2  0  0  0  0
 25 81  1  0  0  0  0
 26 82  1  0  0  0  0
 27 32  1  0  0  0  0
 27 83  1  0  0  0  0
 28 27  2  0  0  0  0
 28 84  1  0  0  0  0
 29 28  1  0  0  0  0
 29 30  2  0  0  0  0
 30 31  1  0  0  0  0
 31 32  2  0  0  0  0
 31 85  1  0  0  0  0
 32 86  1  0  0  0  0
 33 48  1  0  0  0  0
 33 47  2  0  0  0  0
 34 33  1  0  0  0  0
 34 87  1  0  0  0  0
 34 88  1  0  0  0  0
 35 40  1  0  0  0  0
 35 89  1  0  0  0  0
 36 35  2  0  0  0  0
 36 37  1  0  0  0  0
 37 38  2  0  0  0  0
 37 90  1  0  0  0  0
 38 39  1  0  0  0  0
 38 91  1  0  0  0  0
 39 92  1  0  0  0  0
 40 39  2  0  0  0  0
 40 93  1  0  0  0  0
 41 36  1  0  0  0  0
 41 94  1  0  0  0  0
 41 95  1  0  0  0  0
 42 49  1  0  0  0  0
 42 54  2  0  0  0  0
 43  2  1  0  0  0  0
 43 96  1  0  0  0  0
 44  4  1  0  0  0  0
 44 97  1  0  0  0  0
 44 98  1  0  0  0  0
 45 10  1  0  0  0  0
 45 99  1  0  0  0  0
 46 19  1  0  0  0  0
 46100  1  0  0  0  0
 47 29  1  0  0  0  0
 48 30  1  0  0  0  0
 48101  1  0  0  0  0
 49 34  1  0  0  0  0
 49102  1  0  0  0  0
 53103  1  0  0  0  0
 55  6  1  0  0  0  0
M  CHG  1  44   1
M  END
