1hty_ligand
 OpenBabel08222323343D

 22 21  0  0  1  0  0  0  0  0999 V2000
   14.8810   61.1260   10.2450 C   0  0  0  0  0  0  0  0  0  0  0  0
   16.3240   61.1700   10.6310 C   0  0  0  0  0  0  0  0  0  0  0  0
   16.9880   60.0560    9.9950 O   0  0  0  0  0  0  0  0  0  0  0  0
   16.9740   62.4410   10.1530 C   0  0  0  0  0  0  0  0  0  0  0  0
   16.4490   61.0050   12.1700 C   0  0  0  0  0  0  0  0  0  0  0  0
   17.8170   60.6420   12.7500 C   0  0  2  0  0  0  0  0  0  0  0  0
   17.6760   59.6730   13.7670 O   0  0  0  0  0  0  0  0  0  0  0  0
   18.4630   61.8600   13.3990 C   0  0  0  0  0  0  0  0  0  0  0  0
   14.3495   61.9656   10.7167 H   0  0  0  0  0  0  0  0  0  0  0  0
   14.4398   60.1767   10.5828 H   0  0  0  0  0  0  0  0  0  0  0  0
   14.7914   61.2034    9.1514 H   0  0  0  0  0  0  0  0  0  0  0  0
   17.9092   60.0636   10.2268 H   0  0  0  0  0  0  0  0  0  0  0  0
   18.0329   62.4457   10.4507 H   0  0  0  0  0  0  0  0  0  0  0  0
   16.4631   63.3055   10.6021 H   0  0  0  0  0  0  0  0  0  0  0  0
   16.9010   62.5005    9.0571 H   0  0  0  0  0  0  0  0  0  0  0  0
   15.7469   60.2136   12.4711 H   0  0  0  0  0  0  0  0  0  0  0  0
   16.1443   61.9585   12.6259 H   0  0  0  0  0  0  0  0  0  0  0  0
   18.4618   60.2561   11.9467 H   0  0  0  0  0  0  0  0  0  0  0  0
   18.5320   59.4570   14.1180 H   0  0  0  0  0  0  0  0  0  0  0  0
   19.4442   61.5795   13.8096 H   0  0  0  0  0  0  0  0  0  0  0  0
   17.8180   62.2287   14.2102 H   0  0  0  0  0  0  0  0  0  0  0  0
   18.5933   62.6510   12.6458 H   0  0  0  0  0  0  0  0  0  0  0  0
  1  2  1  0  0  0  0
  1  9  1  0  0  0  0
  1 10  1  0  0  0  0
  1 11  1  0  0  0  0
  2  3  1  0  0  0  0
  2  4  1  0  0  0  0
  2  5  1  0  0  0  0
  3 12  1  0  0  0  0
  4 13  1  0  0  0  0
  4 14  1  0  0  0  0
  4 15  1  0  0  0  0
  5  6  1  0  0  0  0
  5 16  1  0  0  0  0
  5 17  1  0  0  0  0
  6  7  1  0  0  0  0
  6  8  1  0  0  0  0
  6 18  1  6  0  0  0
  7 19  1  0  0  0  0
  8 20  1  0  0  0  0
  8 21  1  0  0  0  0
  8 22  1  0  0  0  0
M  END
