1hyv_ligand
 OpenBabel08222323343D

 45 48  0  0  0  0  0  0  0  0999 V2000
    6.3270   46.1270  -10.7860 As  0  0  0  0  0  4  0  0  0  0  0  0
    5.5690   44.8690  -12.0190 C   0  0  0  0  0  0  0  0  0  0  0  0
    5.7010   43.4810  -11.9250 C   0  0  0  0  0  0  0  0  0  0  0  0
    5.0660   42.6850  -12.8860 C   0  0  0  0  0  0  0  0  0  0  0  0
    4.3080   43.2630  -13.8660 C   0  0  0  0  0  0  0  0  0  0  0  0
    4.1390   44.6550  -13.9800 C   0  0  0  0  0  0  0  0  0  0  0  0
    4.7740   45.5280  -13.0170 C   0  0  0  0  0  0  0  0  0  0  0  0
    4.9020   46.8720   -9.8160 C   0  0  0  0  0  0  0  0  0  0  0  0
    4.9700   47.3130   -8.4480 C   0  0  0  0  0  0  0  0  0  0  0  0
    3.8510   47.8310   -7.8040 C   0  0  0  0  0  0  0  0  0  0  0  0
    2.6150   47.8910   -8.5340 C   0  0  0  0  0  0  0  0  0  0  0  0
    2.5430   47.4240   -9.9100 C   0  0  0  0  0  0  0  0  0  0  0  0
    3.6600   46.9110  -10.5540 C   0  0  0  0  0  0  0  0  0  0  0  0
    7.4300   47.1920  -11.8940 C   0  0  0  0  0  0  0  0  0  0  0  0
    8.4130   48.1080  -11.2880 C   0  0  0  0  0  0  0  0  0  0  0  0
    9.3460   48.7900  -12.2120 C   0  0  0  0  0  0  0  0  0  0  0  0
    9.3010   48.4700  -13.6240 C   0  0  0  0  0  0  0  0  0  0  0  0
    8.4240   47.5120  -14.1910 C   0  0  0  0  0  0  0  0  0  0  0  0
    7.5240   46.8430  -13.3230 C   0  0  0  0  0  0  0  0  0  0  0  0
    7.4860   45.3330   -9.4720 C   0  0  0  0  0  0  0  0  0  0  0  0
    6.9520   45.1140   -8.1830 C   0  0  0  0  0  0  0  0  0  0  0  0
    7.8620   44.5340   -7.2500 C   0  0  0  0  0  0  0  0  0  0  0  0
    9.1260   44.2360   -7.5950 C   0  0  0  0  0  0  0  0  0  0  0  0
    9.7070   44.4610   -8.8980 C   0  0  0  0  0  0  0  0  0  0  0  0
    8.7880   45.0610   -9.8940 C   0  0  0  0  0  0  0  0  0  0  0  0
    6.2811   43.0314  -11.1272 H   0  0  0  0  0  0  0  0  0  0  0  0
    5.1757   41.6071  -12.8529 H   0  0  0  0  0  0  0  0  0  0  0  0
    3.8155   42.6205  -14.5869 H   0  0  0  0  0  0  0  0  0  0  0  0
    3.5387   45.0695  -14.7818 H   0  0  0  0  0  0  0  0  0  0  0  0
    4.6577   46.6053  -13.0467 H   0  0  0  0  0  0  0  0  0  0  0  0
    5.9085   47.2404   -7.9105 H   0  0  0  0  0  0  0  0  0  0  0  0
    3.9100   48.1799   -6.7794 H   0  0  0  0  0  0  0  0  0  0  0  0
    1.7274   48.2881   -8.0549 H   0  0  0  0  0  0  0  0  0  0  0  0
    1.5999   47.4778  -10.4417 H   0  0  0  0  0  0  0  0  0  0  0  0
    3.6030   46.5520  -11.5752 H   0  0  0  0  0  0  0  0  0  0  0  0
    8.4506   48.2740  -10.2174 H   0  0  0  0  0  0  0  0  0  0  0  0
   10.0543   49.5199  -11.8370 H   0  0  0  0  0  0  0  0  0  0  0  0
    9.9791   48.9950  -14.2870 H   0  0  0  0  0  0  0  0  0  0  0  0
    8.4406   47.2976  -15.2535 H   0  0  0  0  0  0  0  0  0  0  0  0
    6.8910   46.0573  -13.7193 H   0  0  0  0  0  0  0  0  0  0  0  0
    5.9305   45.3669   -7.9229 H   0  0  0  0  0  0  0  0  0  0  0  0
    7.5262   44.3290   -6.2399 H   0  0  0  0  0  0  0  0  0  0  0  0
    9.7594   43.7918   -6.8357 H   0  0  0  0  0  0  0  0  0  0  0  0
   10.7359   44.2104   -9.1296 H   0  0  0  0  0  0  0  0  0  0  0  0
    9.1127   45.2788  -10.9050 H   0  0  0  0  0  0  0  0  0  0  0  0
  1  2  1  0  0  0  0
  1  8  1  0  0  0  0
  1 14  1  0  0  0  0
  1 20  1  0  0  0  0
  2  3  2  0  0  0  0
  2  7  1  0  0  0  0
  3  4  1  0  0  0  0
  3 26  1  0  0  0  0
  4  5  2  0  0  0  0
  4 27  1  0  0  0  0
  5  6  1  0  0  0  0
  5 28  1  0  0  0  0
  6  7  2  0  0  0  0
  6 29  1  0  0  0  0
  7 30  1  0  0  0  0
  8  9  2  0  0  0  0
  8 13  1  0  0  0  0
  9 10  1  0  0  0  0
  9 31  1  0  0  0  0
 10 11  2  0  0  0  0
 10 32  1  0  0  0  0
 11 12  1  0  0  0  0
 11 33  1  0  0  0  0
 12 13  2  0  0  0  0
 12 34  1  0  0  0  0
 13 35  1  0  0  0  0
 14 15  2  0  0  0  0
 14 19  1  0  0  0  0
 15 16  1  0  0  0  0
 15 36  1  0  0  0  0
 16 17  2  0  0  0  0
 16 37  1  0  0  0  0
 17 18  1  0  0  0  0
 17 38  1  0  0  0  0
 18 19  2  0  0  0  0
 18 39  1  0  0  0  0
 19 40  1  0  0  0  0
 20 21  2  0  0  0  0
 20 25  1  0  0  0  0
 21 22  1  0  0  0  0
 21 41  1  0  0  0  0
 22 23  2  0  0  0  0
 22 42  1  0  0  0  0
 23 24  1  0  0  0  0
 23 43  1  0  0  0  0
 24 25  2  0  0  0  0
 24 44  1  0  0  0  0
 25 45  1  0  0  0  0
M  END
