1hyz_ligand
 OpenBabel08222323343D

 13 13  0  0  0  0  0  0  0  0999 V2000
    6.3320   46.1020  -10.6520 As  0  0  0  0  0  1  0  0  0  0  0  0
    5.4690   44.9790  -11.9230 C   0  0  0  0  0  0  0  0  0  0  0  0
    5.5250   43.5780  -11.7530 C   0  0  0  0  0  0  0  0  0  0  0  0
    4.8440   42.8550  -12.6990 C   0  0  0  0  0  0  0  0  0  0  0  0
    4.1860   43.3850  -13.7610 C   0  0  0  0  0  0  0  0  0  0  0  0
    4.1190   44.7760  -13.9620 C   0  0  0  0  0  0  0  0  0  0  0  0
    4.7860   45.6250  -12.9930 C   0  0  0  0  0  0  0  0  0  0  0  0
    5.9769   45.6007  -11.1946 H   0  0  0  0  0  0  0  0  0  0  0  0
    6.0647   43.1101  -10.9376 H   0  0  0  0  0  0  0  0  0  0  0  0
    4.8303   41.7766  -12.5899 H   0  0  0  0  0  0  0  0  0  0  0  0
    3.7018   42.7227  -14.4694 H   0  0  0  0  0  0  0  0  0  0  0  0
    3.5892   45.1972  -14.8087 H   0  0  0  0  0  0  0  0  0  0  0  0
    4.7654   46.7053  -13.0796 H   0  0  0  0  0  0  0  0  0  0  0  0
  1  2  1  0  0  0  0
  2  3  2  0  0  0  0
  2  7  1  0  0  0  0
  2  8  1  0  0  0  0
  3  4  1  0  0  0  0
  3  9  1  0  0  0  0
  4  5  2  0  0  0  0
  4 10  1  0  0  0  0
  5  6  1  0  0  0  0
  5 11  1  0  0  0  0
  6  7  2  0  0  0  0
  6 12  1  0  0  0  0
  7 13  1  0  0  0  0
M  END
