1i3z_ligand
 OpenBabel08222323343D

173173  0  0  1  0  0  0  0  0999 V2000
   14.7410   23.2200   18.5370 N   0  3  0  0  0  0  0  0  0  0  0  0
   15.1030   21.8700   18.0480 C   0  0  2  0  0  0  0  0  0  0  0  0
   16.5910   21.8450   17.8680 C   0  0  0  0  0  0  0  0  0  0  0  0
   17.2730   22.8090   18.2050 O   0  0  0  0  0  0  0  0  0  0  0  0
   14.3830   21.5360   16.7350 C   0  0  0  0  0  0  0  0  0  0  0  0
   14.4280   22.6170   15.8150 O   0  0  0  0  0  0  0  0  0  0  0  0
   17.1080   20.7480   17.3330 N   0  0  0  0  0  0  0  0  0  0  0  0
   18.5550   20.5940   17.1660 C   0  0  2  0  0  0  0  0  0  0  0  0
   18.8390   20.5060   15.6830 C   0  0  0  0  0  0  0  0  0  0  0  0
   19.7070   19.7990   15.2400 O   0  0  0  0  0  0  0  0  0  0  0  0
   18.9980   19.3080   17.8460 C   0  0  0  0  0  0  0  0  0  0  0  0
   18.9340   19.4260   19.3750 C   0  0  0  0  0  0  0  0  0  0  0  0
   19.2500   18.1050   20.0520 C   0  0  0  0  0  0  0  0  0  0  0  0
   19.8430   20.5700   19.9130 C   0  0  0  0  0  0  0  0  0  0  0  0
   17.9770   21.1520   14.9090 N   0  0  0  0  0  0  0  0  0  0  0  0
   18.1050   21.1250   13.4660 C   0  0  2  0  0  0  0  0  0  0  0  0
   18.1980   22.5350   12.9800 C   0  0  0  0  0  0  0  0  0  0  0  0
   17.4330   23.3930   13.4090 O   0  0  0  0  0  0  0  0  0  0  0  0
   16.8800   20.4640   12.8810 C   0  0  2  0  0  0  0  0  0  0  0  0
   17.1050   19.0530   12.8590 O   0  0  0  0  0  0  0  0  0  0  0  0
   16.7040   20.8920   11.4080 C   0  0  0  0  0  0  0  0  0  0  0  0
   19.1580   22.8020   12.1160 N   0  0  0  0  0  0  0  0  0  0  0  0
   19.2160   24.1280   11.5160 C   0  0  2  0  0  0  0  0  0  0  0  0
   18.8070   23.9910   10.0530 C   0  0  0  0  0  0  0  0  0  0  0  0
   19.3460   23.1390    9.3500 O   0  0  0  0  0  0  0  0  0  0  0  0
   20.6320   24.7130   11.6240 C   0  0  2  0  0  0  0  0  0  0  0  0
   21.0740   24.7550   13.0900 C   0  0  0  0  0  0  0  0  0  0  0  0
   20.6390   26.1330   11.0570 C   0  0  0  0  0  0  0  0  0  0  0  0
   20.7290   26.0810   13.7990 C   0  0  0  0  0  0  0  0  0  0  0  0
   17.8530   24.7990    9.6050 N   0  0  0  0  0  0  0  0  0  0  0  0
   17.4190   24.7290    8.2120 C   0  0  2  0  0  0  0  0  0  0  0  0
   18.4260   25.5990    7.4570 C   0  0  0  0  0  0  0  0  0  0  0  0
   18.8090   26.6650    7.9530 O   0  0  0  0  0  0  0  0  0  0  0  0
   15.9140   25.0680    8.0230 C   0  0  0  0  0  0  0  0  0  0  0  0
   15.0180   23.8270    8.1290 C   0  0  0  0  0  0  0  0  0  0  0  0
   14.4800   23.4330    9.3510 C   0  0  0  0  0  0  0  0  0  0  0  0
   14.7510   23.0300    7.0250 C   0  0  0  0  0  0  0  0  0  0  0  0
   13.6860   22.3110    9.4600 C   0  0  0  0  0  0  0  0  0  0  0  0
   13.9680   21.8920    7.1310 C   0  0  0  0  0  0  0  0  0  0  0  0
   13.4340   21.5350    8.3580 C   0  0  0  0  0  0  0  0  0  0  0  0
   12.7270   20.5120    8.4890 O   0  0  0  0  0  0  0  0  0  0  0  0
   11.1290   20.5460    8.2940 P   0  0  0  0  0  0  0  0  0  0  0  0
   10.7570   20.8670    6.8770 O   0  0  0  0  0  1  0  0  0  0  0  0
   10.5350   21.6490    9.1660 O   0  0  0  0  0  1  0  0  0  0  0  0
   10.6470   19.1220    8.6620 O   0  0  0  0  0  0  0  0  0  0  0  0
   18.9070   25.1410    6.3030 N   0  0  0  0  0  0  0  0  0  0  0  0
   19.8930   25.9350    5.5810 C   0  0  2  0  0  0  0  0  0  0  0  0
   19.5920   25.9070    4.1100 C   0  0  0  0  0  0  0  0  0  0  0  0
   18.8100   25.0980    3.6510 O   0  0  0  0  0  0  0  0  0  0  0  0
   21.3090   25.4160    5.8490 C   0  0  0  0  0  0  0  0  0  0  0  0
   20.1820   26.8320    3.3710 N   0  0  0  0  0  0  0  0  0  0  0  0
   20.0660   26.7920    1.9050 C   0  0  2  0  0  0  0  0  0  0  0  0
   21.4530   26.4870    1.2980 C   0  0  0  0  0  0  0  0  0  0  0  0
   22.4630   26.7990    1.9180 O   0  0  0  0  0  0  0  0  0  0  0  0
   19.5450   28.1240    1.3220 C   0  0  0  0  0  0  0  0  0  0  0  0
   18.4130   28.8420    2.0720 C   0  0  0  0  0  0  0  0  0  0  0  0
   17.7970   29.9960    1.2660 C   0  0  0  0  0  0  0  0  0  0  0  0
   16.5760   30.0440    1.0960 O   0  0  0  0  0  0  0  0  0  0  0  0
   18.6320   30.9320    0.8050 N   0  0  0  0  0  0  0  0  0  0  0  0
   21.5030   25.8860    0.1040 N   0  0  0  0  0  0  0  0  0  0  0  0
   22.7460   25.6170   -0.5860 C   0  0  2  0  0  0  0  0  0  0  0  0
   23.3590   26.9750   -1.0470 C   0  0  0  0  0  0  0  0  0  0  0  0
   22.6230   27.8930   -1.4490 O   0  0  0  0  0  0  0  0  0  0  0  0
   22.4840   24.6480   -1.7560 C   0  0  0  0  0  0  0  0  0  0  0  0
   23.7350   24.3620   -2.5750 C   0  0  0  0  0  0  0  0  0  0  0  0
   21.8680   23.3250   -1.2180 C   0  0  0  0  0  0  0  0  0  0  0  0
   24.6920   27.0950   -0.9860 N   0  0  0  0  0  0  0  0  0  0  0  0
   25.3710   28.3620   -1.3560 C   0  0  2  0  0  0  0  0  0  0  0  0
   26.3940   28.4030   -2.5270 C   0  0  0  0  0  0  0  0  0  0  0  0
   27.2400   29.2840   -2.5530 O   0  0  0  0  0  0  0  0  0  0  0  0
   26.0370   28.9620   -0.1170 C   0  0  0  0  0  0  0  0  0  0  0  0
   25.0700   29.2470    1.0290 C   0  0  0  0  0  0  0  0  0  0  0  0
   25.7880   29.7650    2.2590 C   0  0  0  0  0  0  0  0  0  0  0  0
   26.9590   29.4550    2.4700 O   0  0  0  0  0  0  0  0  0  0  0  0
   25.0930   30.5600    3.0710 N   0  0  0  0  0  0  0  0  0  0  0  0
   26.3190   27.4770   -3.4770 N   0  0  0  0  0  0  0  0  0  0  0  0
   27.2530   27.3830   -4.6070 C   0  0  2  0  0  0  0  0  0  0  0  0
   26.5441   26.6191   -5.7249 C   0  0  0  0  0  0  0  0  0  0  0  0
   28.5340   26.6190   -4.2060 C   0  0  0  0  0  0  0  0  0  0  0  0
   29.5420   26.4210   -5.3230 C   0  0  0  0  0  0  0  0  0  0  0  0
   31.0060   26.2990   -4.7980 C   0  0  0  0  0  0  0  0  0  0  0  0
   31.2450   27.2600   -3.6220 C   0  0  0  0  0  0  0  0  0  0  0  0
   32.7120   27.3830   -3.2130 N   0  3  0  0  0  0  0  0  0  0  0  0
   26.8000   26.7650   -6.9260 O   0  0  0  0  0  0  0  0  0  0  0  0
   13.7432   23.2729   18.6697 H   0  0  0  0  0  0  0  0  0  0  0  0
   15.0270   23.9103   17.8605 H   0  0  0  0  0  0  0  0  0  0  0  0
   15.2063   23.3958   19.4137 H   0  0  0  0  0  0  0  0  0  0  0  0
   14.8157   21.1229   18.8025 H   0  0  0  0  0  0  0  0  0  0  0  0
   13.3314   21.3012   16.9561 H   0  0  0  0  0  0  0  0  0  0  0  0
   14.8660   20.6599   16.2777 H   0  0  0  0  0  0  0  0  0  0  0  0
   13.9732   22.3720   15.0177 H   0  0  0  0  0  0  0  0  0  0  0  0
   16.4989   20.0119   17.0379 H   0  0  0  0  0  0  0  0  0  0  0  0
   19.0844   21.4527   17.6047 H   0  0  0  0  0  0  0  0  0  0  0  0
   20.0332   19.0851   17.5483 H   0  0  0  0  0  0  0  0  0  0  0  0
   18.3391   18.4884   17.5234 H   0  0  0  0  0  0  0  0  0  0  0  0
   17.8975   19.6860   19.6358 H   0  0  0  0  0  0  0  0  0  0  0  0
   19.1941   18.2298   21.1435 H   0  0  0  0  0  0  0  0  0  0  0  0
   20.2634   17.7823   19.7713 H   0  0  0  0  0  0  0  0  0  0  0  0
   18.5215   17.3455   19.7321 H   0  0  0  0  0  0  0  0  0  0  0  0
   19.5887   21.5109   19.4030 H   0  0  0  0  0  0  0  0  0  0  0  0
   20.8972   20.3220   19.7205 H   0  0  0  0  0  0  0  0  0  0  0  0
   19.6852   20.6854   20.9955 H   0  0  0  0  0  0  0  0  0  0  0  0
   17.2277   21.6652   15.3276 H   0  0  0  0  0  0  0  0  0  0  0  0
   19.0067   20.5662   13.1750 H   0  0  0  0  0  0  0  0  0  0  0  0
   15.9872   20.7163   13.4719 H   0  0  0  0  0  0  0  0  0  0  0  0
   16.3438   18.6177   12.4934 H   0  0  0  0  0  0  0  0  0  0  0  0
   15.8101   20.4065   10.9894 H   0  0  0  0  0  0  0  0  0  0  0  0
   17.5898   20.5899   10.8300 H   0  0  0  0  0  0  0  0  0  0  0  0
   16.5866   21.9844   11.3551 H   0  0  0  0  0  0  0  0  0  0  0  0
   19.8348   22.1057   11.8768 H   0  0  0  0  0  0  0  0  0  0  0  0
   18.5129   24.7967   12.0342 H   0  0  0  0  0  0  0  0  0  0  0  0
   21.3298   24.0851   11.0506 H   0  0  0  0  0  0  0  0  0  0  0  0
   22.1640   24.6126   13.1293 H   0  0  0  0  0  0  0  0  0  0  0  0
   20.5773   23.9336   13.6271 H   0  0  0  0  0  0  0  0  0  0  0  0
   20.3222   26.1088   10.0039 H   0  0  0  0  0  0  0  0  0  0  0  0
   21.6546   26.5500   11.1249 H   0  0  0  0  0  0  0  0  0  0  0  0
   19.9451   26.7618   11.6342 H   0  0  0  0  0  0  0  0  0  0  0  0
   21.0742   26.0394   14.8426 H   0  0  0  0  0  0  0  0  0  0  0  0
   19.6400   26.2350   13.7790 H   0  0  0  0  0  0  0  0  0  0  0  0
   21.2268   26.9141   13.2811 H   0  0  0  0  0  0  0  0  0  0  0  0
   17.4292   25.4593   10.2250 H   0  0  0  0  0  0  0  0  0  0  0  0
   17.5427   23.6940    7.8606 H   0  0  0  0  0  0  0  0  0  0  0  0
   15.7755   25.5200    7.0298 H   0  0  0  0  0  0  0  0  0  0  0  0
   15.6138   25.7879    8.7986 H   0  0  0  0  0  0  0  0  0  0  0  0
   14.6900   24.0215   10.2368 H   0  0  0  0  0  0  0  0  0  0  0  0
   15.1633   23.3032    6.0604 H   0  0  0  0  0  0  0  0  0  0  0  0
   13.2598   22.0416   10.4196 H   0  0  0  0  0  0  0  0  0  0  0  0
   13.7738   21.2826    6.2558 H   0  0  0  0  0  0  0  0  0  0  0  0
   18.5959   24.2641    5.9367 H   0  0  0  0  0  0  0  0  0  0  0  0
   19.8311   26.9754    5.9327 H   0  0  0  0  0  0  0  0  0  0  0  0
   22.0351   26.0290    5.2950 H   0  0  0  0  0  0  0  0  0  0  0  0
   21.3847   24.3696    5.5183 H   0  0  0  0  0  0  0  0  0  0  0  0
   21.5241   25.4767    6.9261 H   0  0  0  0  0  0  0  0  0  0  0  0
   20.7082   27.5603    3.8100 H   0  0  0  0  0  0  0  0  0  0  0  0
   19.3650   25.9902    1.6301 H   0  0  0  0  0  0  0  0  0  0  0  0
   19.1838   27.9171    0.3038 H   0  0  0  0  0  0  0  0  0  0  0  0
   20.3979   28.8170    1.2748 H   0  0  0  0  0  0  0  0  0  0  0  0
   18.8167   29.2470    3.0117 H   0  0  0  0  0  0  0  0  0  0  0  0
   17.6227   28.1108    2.2974 H   0  0  0  0  0  0  0  0  0  0  0  0
   18.2765   31.7020    0.2752 H   0  0  0  0  0  0  0  0  0  0  0  0
   19.6123   30.8624    0.9898 H   0  0  0  0  0  0  0  0  0  0  0  0
   20.6451   25.6110   -0.3300 H   0  0  0  0  0  0  0  0  0  0  0  0
   23.4488   25.1356    0.1099 H   0  0  0  0  0  0  0  0  0  0  0  0
   21.7498   25.1209   -2.4248 H   0  0  0  0  0  0  0  0  0  0  0  0
   23.4878   23.6679   -3.3918 H   0  0  0  0  0  0  0  0  0  0  0  0
   24.5010   23.9092   -1.9284 H   0  0  0  0  0  0  0  0  0  0  0  0
   24.1201   25.3021   -2.9967 H   0  0  0  0  0  0  0  0  0  0  0  0
   20.9667   23.5527   -0.6299 H   0  0  0  0  0  0  0  0  0  0  0  0
   22.6022   22.8116   -0.5797 H   0  0  0  0  0  0  0  0  0  0  0  0
   21.5994   22.6750   -2.0638 H   0  0  0  0  0  0  0  0  0  0  0  0
   25.2407   26.3150   -0.6850 H   0  0  0  0  0  0  0  0  0  0  0  0
   24.5604   29.0418   -1.6572 H   0  0  0  0  0  0  0  0  0  0  0  0
   26.5189   29.9075   -0.4065 H   0  0  0  0  0  0  0  0  0  0  0  0
   26.8005   28.2561    0.2418 H   0  0  0  0  0  0  0  0  0  0  0  0
   24.5437   28.3170    1.2898 H   0  0  0  0  0  0  0  0  0  0  0  0
   24.3403   30.0012    0.6993 H   0  0  0  0  0  0  0  0  0  0  0  0
   25.5206   30.9286    3.8964 H   0  0  0  0  0  0  0  0  0  0  0  0
   24.1436   30.7882    2.8552 H   0  0  0  0  0  0  0  0  0  0  0  0
   25.5822   26.8034   -3.4193 H   0  0  0  0  0  0  0  0  0  0  0  0
   27.5225   28.3926   -4.9507 H   0  0  0  0  0  0  0  0  0  0  0  0
   25.5979   25.7476   -5.3870 O   0  0  0  0  0  0  0  0  0  0  0  0
   28.2371   25.6269   -3.8353 H   0  0  0  0  0  0  0  0  0  0  0  0
   29.0265   27.1800   -3.3981 H   0  0  0  0  0  0  0  0  0  0  0  0
   29.4837   27.2811   -6.0062 H   0  0  0  0  0  0  0  0  0  0  0  0
   29.2861   25.5010   -5.8690 H   0  0  0  0  0  0  0  0  0  0  0  0
   31.7031   26.5452   -5.6125 H   0  0  0  0  0  0  0  0  0  0  0  0
   31.1841   25.2667   -4.4623 H   0  0  0  0  0  0  0  0  0  0  0  0
   30.6730   26.8965   -2.7556 H   0  0  0  0  0  0  0  0  0  0  0  0
   30.8807   28.2572   -3.9097 H   0  0  0  0  0  0  0  0  0  0  0  0
   32.7927   28.0257   -2.4407 H   0  0  0  0  0  0  0  0  0  0  0  0
   33.2507   27.7257   -3.9930 H   0  0  0  0  0  0  0  0  0  0  0  0
   33.0604   26.4788   -2.9354 H   0  0  0  0  0  0  0  0  0  0  0  0
   25.8418   24.8822   -5.6939 H   0  0  0  0  0  0  0  0  0  0  0  0
  1  2  1  0  0  0  0
  1 85  1  0  0  0  0
  1 86  1  0  0  0  0
  1 87  1  0  0  0  0
  2  3  1  0  0  0  0
  2  5  1  0  0  0  0
  2 88  1  1  0  0  0
  3  4  2  0  0  0  0
  3  7  1  0  0  0  0
  5  6  1  0  0  0  0
  5 89  1  0  0  0  0
  5 90  1  0  0  0  0
  6 91  1  0  0  0  0
  7  8  1  0  0  0  0
  7 92  1  0  0  0  0
  8  9  1  0  0  0  0
  8 11  1  0  0  0  0
  8 93  1  1  0  0  0
  9 10  2  0  0  0  0
  9 15  1  0  0  0  0
 11 12  1  0  0  0  0
 11 94  1  0  0  0  0
 11 95  1  0  0  0  0
 12 13  1  0  0  0  0
 12 14  1  0  0  0  0
 12 96  1  0  0  0  0
 13 97  1  0  0  0  0
 13 98  1  0  0  0  0
 13 99  1  0  0  0  0
 14100  1  0  0  0  0
 14101  1  0  0  0  0
 14102  1  0  0  0  0
 15 16  1  0  0  0  0
 15103  1  0  0  0  0
 16 17  1  0  0  0  0
 16 19  1  0  0  0  0
 16104  1  6  0  0  0
 17 18  2  0  0  0  0
 17 22  1  0  0  0  0
 19 20  1  0  0  0  0
 19 21  1  0  0  0  0
 19105  1  1  0  0  0
 20106  1  0  0  0  0
 21107  1  0  0  0  0
 21108  1  0  0  0  0
 21109  1  0  0  0  0
 22 23  1  0  0  0  0
 22110  1  0  0  0  0
 23 24  1  0  0  0  0
 23 26  1  0  0  0  0
 23111  1  1  0  0  0
 24 25  2  0  0  0  0
 24 30  1  0  0  0  0
 26 27  1  0  0  0  0
 26 28  1  0  0  0  0
 26112  1  6  0  0  0
 27 29  1  0  0  0  0
 27113  1  0  0  0  0
 27114  1  0  0  0  0
 28115  1  0  0  0  0
 28116  1  0  0  0  0
 28117  1  0  0  0  0
 29118  1  0  0  0  0
 29119  1  0  0  0  0
 29120  1  0  0  0  0
 30 31  1  0  0  0  0
 30121  1  0  0  0  0
 31 32  1  0  0  0  0
 31 34  1  0  0  0  0
 31122  1  6  0  0  0
 32 33  2  0  0  0  0
 32 46  1  0  0  0  0
 34 35  1  0  0  0  0
 34123  1  0  0  0  0
 34124  1  0  0  0  0
 35 36  2  0  0  0  0
 35 37  1  0  0  0  0
 36 38  1  0  0  0  0
 36125  1  0  0  0  0
 37 39  2  0  0  0  0
 37126  1  0  0  0  0
 38 40  2  0  0  0  0
 38127  1  0  0  0  0
 39 40  1  0  0  0  0
 39128  1  0  0  0  0
 40 41  1  0  0  0  0
 41 42  1  0  0  0  0
 42 43  1  0  0  0  0
 42 44  1  0  0  0  0
 42 45  2  0  0  0  0
 46 47  1  0  0  0  0
 46129  1  0  0  0  0
 47 48  1  0  0  0  0
 47 50  1  0  0  0  0
 47130  1  1  0  0  0
 48 49  2  0  0  0  0
 48 51  1  0  0  0  0
 50131  1  0  0  0  0
 50132  1  0  0  0  0
 50133  1  0  0  0  0
 51 52  1  0  0  0  0
 51134  1  0  0  0  0
 52 53  1  0  0  0  0
 52 55  1  0  0  0  0
 52135  1  6  0  0  0
 53 54  2  0  0  0  0
 53 60  1  0  0  0  0
 55 56  1  0  0  0  0
 55136  1  0  0  0  0
 55137  1  0  0  0  0
 56 57  1  0  0  0  0
 56138  1  0  0  0  0
 56139  1  0  0  0  0
 57 58  2  0  0  0  0
 57 59  1  0  0  0  0
 59140  1  0  0  0  0
 59141  1  0  0  0  0
 60 61  1  0  0  0  0
 60142  1  0  0  0  0
 61 62  1  0  0  0  0
 61 64  1  0  0  0  0
 61143  1  1  0  0  0
 62 63  2  0  0  0  0
 62 67  1  0  0  0  0
 64 65  1  0  0  0  0
 64 66  1  0  0  0  0
 64144  1  0  0  0  0
 65145  1  0  0  0  0
 65146  1  0  0  0  0
 65147  1  0  0  0  0
 66148  1  0  0  0  0
 66149  1  0  0  0  0
 66150  1  0  0  0  0
 67 68  1  0  0  0  0
 67151  1  0  0  0  0
 68 69  1  0  0  0  0
 68 71  1  0  0  0  0
 68152  1  6  0  0  0
 69 70  2  0  0  0  0
 69 76  1  0  0  0  0
 71 72  1  0  0  0  0
 71153  1  0  0  0  0
 71154  1  0  0  0  0
 72 73  1  0  0  0  0
 72155  1  0  0  0  0
 72156  1  0  0  0  0
 73 74  2  0  0  0  0
 73 75  1  0  0  0  0
 75157  1  0  0  0  0
 75158  1  0  0  0  0
 76 77  1  0  0  0  0
 76159  1  0  0  0  0
 77 78  1  0  0  0  0
 77 79  1  0  0  0  0
 77160  1  6  0  0  0
 78 84  2  0  0  0  0
 78161  1  0  0  0  0
 79 80  1  0  0  0  0
 79162  1  0  0  0  0
 79163  1  0  0  0  0
 80 81  1  0  0  0  0
 80164  1  0  0  0  0
 80165  1  0  0  0  0
 81 82  1  0  0  0  0
 81166  1  0  0  0  0
 81167  1  0  0  0  0
 82 83  1  0  0  0  0
 82168  1  0  0  0  0
 82169  1  0  0  0  0
 83170  1  0  0  0  0
 83171  1  0  0  0  0
 83172  1  0  0  0  0
161173  1  0  0  0  0
M  CHG  2   1   1  83   1
M  END
