1i7i_ligand
 OpenBabel08222323343D

 51 52  0  0  1  0  0  0  0  0999 V2000
   18.3960   16.3430   16.4840 C   0  0  0  0  0  0  0  0  0  0  0  0
   18.8060   16.4240   17.9370 C   0  0  0  0  0  0  0  0  0  0  0  0
   19.2630   17.8180   18.4260 C   0  0  2  0  0  0  0  0  0  0  0  0
   20.4490   18.1410   17.6930 O   0  0  0  0  0  0  0  0  0  0  0  0
   20.6920   19.5210   17.5290 C   0  0  0  0  0  0  0  0  0  0  0  0
   22.0860   19.6460   16.9440 C   0  0  0  0  0  0  0  0  0  0  0  0
   19.4700   17.7540   19.9600 C   0  0  0  0  0  0  0  0  0  0  0  0
   18.3230   17.9030   20.6580 O   0  5  0  0  0  0  0  0  0  0  0  0
   20.5210   17.5850   20.5410 O   0  0  0  0  0  0  0  0  0  0  0  0
   19.3450   16.0130   15.4660 C   0  0  0  0  0  0  0  0  0  0  0  0
   18.9390   15.9390   14.1020 C   0  0  0  0  0  0  0  0  0  0  0  0
   17.5740   16.1940   13.7360 C   0  0  0  0  0  0  0  0  0  0  0  0
   16.6480   16.5200   14.7520 C   0  0  0  0  0  0  0  0  0  0  0  0
   17.0570   16.5930   16.1130 C   0  0  0  0  0  0  0  0  0  0  0  0
   17.2390   16.1010   12.3820 O   0  0  0  0  0  0  0  0  0  0  0  0
   18.2370   15.8860   11.3530 C   0  0  0  0  0  0  0  0  0  0  0  0
   17.6420   16.3750   10.0300 C   0  0  0  0  0  0  0  0  0  0  0  0
   17.6740   17.8740    9.9160 C   0  0  0  0  0  0  0  0  0  0  0  0
   18.7320   18.5310    9.2180 C   0  0  0  0  0  0  0  0  0  0  0  0
   18.7580   19.9510    9.1180 C   0  0  0  0  0  0  0  0  0  0  0  0
   17.7250   20.7240    9.7160 C   0  0  0  0  0  0  0  0  0  0  0  0
   16.6680   20.0780   10.4080 C   0  0  0  0  0  0  0  0  0  0  0  0
   16.6510   18.6630   10.5030 C   0  0  0  0  0  0  0  0  0  0  0  0
   17.8440   22.0760    9.5550 O   0  0  0  0  0  0  0  0  0  0  0  0
   17.2560   22.7890    8.2240 S   0  0  0  0  0  0  0  0  0  0  0  0
   17.5950   24.4670    8.7020 C   0  0  0  0  0  0  0  0  0  0  0  0
   18.1020   22.4590    7.1090 O   0  0  0  0  0  0  0  0  0  0  0  0
   15.8090   22.5980    8.1760 O   0  0  0  0  0  0  0  0  0  0  0  0
   19.6376   15.7212   18.0936 H   0  0  0  0  0  0  0  0  0  0  0  0
   17.9454   16.1161   18.5491 H   0  0  0  0  0  0  0  0  0  0  0  0
   18.4900   18.5690   18.2059 H   0  0  0  0  0  0  0  0  0  0  0  0
   20.6402   20.0342   18.5006 H   0  0  0  0  0  0  0  0  0  0  0  0
   19.9515   19.9585   16.8433 H   0  0  0  0  0  0  0  0  0  0  0  0
   22.3272   20.7089   16.7952 H   0  0  0  0  0  0  0  0  0  0  0  0
   22.1265   19.1221   15.9776 H   0  0  0  0  0  0  0  0  0  0  0  0
   22.8152   19.1978   17.6349 H   0  0  0  0  0  0  0  0  0  0  0  0
   20.3774   15.8184   15.7332 H   0  0  0  0  0  0  0  0  0  0  0  0
   19.6646   15.6888   13.3365 H   0  0  0  0  0  0  0  0  0  0  0  0
   15.6142   16.7167   14.4918 H   0  0  0  0  0  0  0  0  0  0  0  0
   16.3295   16.8443   16.8763 H   0  0  0  0  0  0  0  0  0  0  0  0
   18.4805   14.8156   11.2830 H   0  0  0  0  0  0  0  0  0  0  0  0
   19.1486   16.4548   11.5884 H   0  0  0  0  0  0  0  0  0  0  0  0
   16.5975   16.0364    9.9640 H   0  0  0  0  0  0  0  0  0  0  0  0
   18.2205   15.9436    9.1998 H   0  0  0  0  0  0  0  0  0  0  0  0
   19.5210   17.9447    8.7610 H   0  0  0  0  0  0  0  0  0  0  0  0
   19.5647   20.4426    8.5864 H   0  0  0  0  0  0  0  0  0  0  0  0
   15.8768   20.6635   10.8621 H   0  0  0  0  0  0  0  0  0  0  0  0
   15.8415   18.1752   11.0339 H   0  0  0  0  0  0  0  0  0  0  0  0
   17.2606   25.1494    7.9067 H   0  0  0  0  0  0  0  0  0  0  0  0
   18.6762   24.5916    8.8614 H   0  0  0  0  0  0  0  0  0  0  0  0
   17.0579   24.6985    9.6336 H   0  0  0  0  0  0  0  0  0  0  0  0
  1 14  2  0  0  0  0
  1 10  1  0  0  0  0
  1  2  1  0  0  0  0
  2  3  1  0  0  0  0
  2 29  1  0  0  0  0
  2 30  1  0  0  0  0
  3  7  1  0  0  0  0
  3  4  1  0  0  0  0
  3 31  1  6  0  0  0
  4  5  1  0  0  0  0
  5  6  1  0  0  0  0
  5 32  1  0  0  0  0
  5 33  1  0  0  0  0
  6 34  1  0  0  0  0
  6 35  1  0  0  0  0
  6 36  1  0  0  0  0
  7  9  2  0  0  0  0
  7  8  1  0  0  0  0
 10 11  2  0  0  0  0
 10 37  1  0  0  0  0
 11 12  1  0  0  0  0
 11 38  1  0  0  0  0
 12 15  1  0  0  0  0
 12 13  2  0  0  0  0
 13 14  1  0  0  0  0
 13 39  1  0  0  0  0
 14 40  1  0  0  0  0
 15 16  1  0  0  0  0
 16 17  1  0  0  0  0
 16 41  1  0  0  0  0
 16 42  1  0  0  0  0
 17 18  1  0  0  0  0
 17 43  1  0  0  0  0
 17 44  1  0  0  0  0
 18 23  2  0  0  0  0
 18 19  1  0  0  0  0
 19 20  2  0  0  0  0
 19 45  1  0  0  0  0
 20 21  1  0  0  0  0
 20 46  1  0  0  0  0
 21 24  1  0  0  0  0
 21 22  2  0  0  0  0
 22 23  1  0  0  0  0
 22 47  1  0  0  0  0
 23 48  1  0  0  0  0
 24 25  1  0  0  0  0
 25 28  2  0  0  0  0
 25 27  2  0  0  0  0
 25 26  1  0  0  0  0
 26 49  1  0  0  0  0
 26 50  1  0  0  0  0
 26 51  1  0  0  0  0
M  CHG  1   8  -1
M  END
