1i8h_ligand
 OpenBabel08222323343D

211213  0  0  1  0  0  0  0  0999 V2000
  -41.2430    4.5200   62.3600 N   0  3  0  0  0  0  0  0  0  0  0  0
  -42.5560    3.9210   61.9770 C   0  0  2  0  0  0  0  0  0  0  0  0
  -42.3520    2.7130   61.0010 C   0  0  0  0  0  0  0  0  0  0  0  0
  -41.8140    2.9100   59.9100 O   0  0  0  0  0  0  0  0  0  0  0  0
  -43.4560    5.0540   61.3890 C   0  0  0  0  0  0  0  0  0  0  0  0
  -44.9000    4.6660   60.9380 C   0  0  0  0  0  0  0  0  0  0  0  0
  -45.0570    4.4510   59.4100 C   0  0  0  0  0  0  0  0  0  0  0  0
  -46.4940    4.0490   59.0060 C   0  0  0  0  0  0  0  0  0  0  0  0
  -46.6370    4.0020   57.5180 N   0  3  0  0  0  0  0  0  0  0  0  0
  -42.8010    1.4950   61.3590 N   0  0  0  0  0  0  0  0  0  0  0  0
  -42.8680    0.3430   60.3980 C   0  0  2  0  0  0  0  0  0  0  0  0
  -44.0170    0.5200   59.3340 C   0  0  0  0  0  0  0  0  0  0  0  0
  -45.0680    1.1050   59.6270 O   0  0  0  0  0  0  0  0  0  0  0  0
  -42.9210   -0.9970   61.2160 C   0  0  0  0  0  0  0  0  0  0  0  0
  -44.2400   -1.2700   61.9790 C   0  0  0  0  0  0  0  0  0  0  0  0
  -42.6030   -2.2400   60.3560 C   0  0  0  0  0  0  0  0  0  0  0  0
  -43.7980    0.0810   58.0830 N   0  0  0  0  0  0  0  0  0  0  0  0
  -44.7790    0.2790   56.9790 C   0  0  2  0  0  0  0  0  0  0  0  0
  -44.7560   -0.8600   55.9150 C   0  0  0  0  0  0  0  0  0  0  0  0
  -43.6950   -1.2810   55.4500 O   0  0  0  0  0  0  0  0  0  0  0  0
  -44.4870    1.6410   56.2920 C   0  0  0  0  0  0  0  0  0  0  0  0
  -45.6130    2.0780   55.5210 O   0  0  0  0  0  0  0  0  0  0  0  0
  -45.9430   -1.2440   55.4200 N   0  0  0  0  0  0  0  0  0  0  0  0
  -46.0880   -1.7910   54.0350 C   0  0  2  0  0  0  0  0  0  0  0  0
  -45.9300   -0.6600   52.9440 C   0  0  0  0  0  0  0  0  0  0  0  0
  -46.1750    0.5290   53.2040 O   0  0  0  0  0  0  0  0  0  0  0  0
  -47.4250   -2.6180   53.9610 C   0  0  0  0  0  0  0  0  0  0  0  0
  -48.7300   -1.7850   53.9720 C   0  0  0  0  0  0  0  0  0  0  0  0
  -47.4840   -3.5740   52.7480 C   0  0  0  0  0  0  0  0  0  0  0  0
  -45.5310   -1.0410   51.7190 N   0  0  0  0  0  0  0  0  0  0  0  0
  -45.4490   -0.1030   50.5530 C   0  0  2  0  0  0  0  0  0  0  0  0
  -46.8990    0.1560   49.9980 C   0  0  0  0  0  0  0  0  0  0  0  0
  -47.6480   -0.7700   49.6660 O   0  0  0  0  0  0  0  0  0  0  0  0
  -44.4620   -0.6450   49.4560 C   0  0  0  0  0  0  0  0  0  0  0  0
  -44.2380    0.3240   48.2710 C   0  0  0  0  0  0  0  0  0  0  0  0
  -43.0430   -0.9990   49.9720 C   0  0  0  0  0  0  0  0  0  0  0  0
  -47.3020    1.4320   49.9450 N   0  0  0  0  0  0  0  0  0  0  0  0
  -48.6970    1.8330   49.6090 C   0  0  2  0  0  0  0  0  0  0  0  0
  -48.8660    2.3340   48.1370 C   0  0  0  0  0  0  0  0  0  0  0  0
  -48.6660    3.5040   47.8070 O   0  0  0  0  0  0  0  0  0  0  0  0
  -49.2060    2.8290   50.6870 C   0  0  0  0  0  0  0  0  0  0  0  0
  -50.7130    3.2170   50.6260 C   0  0  0  0  0  0  0  0  0  0  0  0
  -51.7380    2.0970   50.9440 C   0  0  0  0  0  0  0  0  0  0  0  0
  -52.3830    1.5560   49.7090 N   0  0  0  0  0  0  0  0  0  0  0  0
  -52.2160    0.3250   49.1980 C   0  0  0  0  0  3  0  0  0  0  0  0
  -51.4860   -0.6130   49.7350 N   0  0  0  0  0  0  0  0  0  0  0  0
  -52.7940    0.0360   48.0800 N   0  0  0  0  0  0  0  0  0  0  0  0
  -49.3500    1.4350   47.2720 N   0  0  0  0  0  0  0  0  0  0  0  0
  -49.9980    1.7850   45.9680 C   0  0  1  0  0  0  0  0  0  0  0  0
  -50.3520    0.4510   45.1950 C   0  0  2  0  0  0  0  0  0  0  0  0
  -51.5030    0.5090   44.1810 C   0  0  0  0  0  0  0  0  0  0  0  0
  -50.6620   -0.6800   46.0630 O   0  0  0  0  0  0  0  0  0  0  0  0
  -49.6790   -1.9600   46.1510 P   0  0  0  0  0  0  0  0  0  0  0  0
  -50.2440   -3.0070   47.1280 O   0  0  0  0  0  1  0  0  0  0  0  0
  -49.5800   -2.6280   44.7740 O   0  0  0  0  0  1  0  0  0  0  0  0
  -48.2210   -1.5180   46.6300 O   0  0  0  0  0  0  0  0  0  0  0  0
  -51.1960    2.8140   46.1230 C   0  0  0  0  0  0  0  0  0  0  0  0
  -52.0960    2.5230   46.9140 O   0  0  0  0  0  0  0  0  0  0  0  0
  -51.2850    3.9940   45.4320 N   0  0  0  0  0  0  0  0  0  0  0  0
  -52.3520    5.0090   45.6920 C   0  0  2  0  0  0  0  0  0  0  0  0
  -53.8540    4.5270   45.6550 C   0  0  0  0  0  0  0  0  0  0  0  0
  -54.5160    4.7070   46.6820 O   0  0  0  0  0  0  0  0  0  0  0  0
  -51.9400    6.1910   44.7830 C   0  0  0  0  0  0  0  0  0  0  0  0
  -50.8670    5.6630   43.8280 C   0  0  0  0  0  0  0  0  0  0  0  0
  -50.2010    4.5340   44.6030 C   0  0  0  0  0  0  0  0  0  0  0  0
  -54.4160    3.8570   44.6040 N   0  0  0  0  0  0  0  0  0  0  0  0
  -55.6830    3.0840   44.7320 C   0  0  2  0  0  0  0  0  0  0  0  0
  -55.4320    1.6310   45.3060 C   0  0  0  0  0  0  0  0  0  0  0  0
  -54.9550    1.4630   46.4340 O   0  0  0  0  0  0  0  0  0  0  0  0
  -56.1840    3.2510   43.2730 C   0  0  0  0  0  0  0  0  0  0  0  0
  -54.9170    3.1500   42.4100 C   0  0  0  0  0  0  0  0  0  0  0  0
  -53.8430    3.8430   43.2470 C   0  0  0  0  0  0  0  0  0  0  0  0
  -55.7420    0.5740   44.5400 N   0  0  0  0  0  0  0  0  0  0  0  0
  -55.2690   -0.8150   44.8080 C   0  0  2  0  0  0  0  0  0  0  0  0
  -55.0580   -1.6150   43.4670 C   0  0  0  0  0  0  0  0  0  0  0  0
  -55.3650   -1.1390   42.3680 O   0  0  0  0  0  0  0  0  0  0  0  0
  -56.2130   -1.5020   45.8520 C   0  0  0  0  0  0  0  0  0  0  0  0
  -57.6210   -1.9240   45.3580 C   0  0  0  0  0  0  0  0  0  0  0  0
  -58.3870   -2.7880   46.3900 C   0  0  0  0  0  0  0  0  0  0  0  0
  -59.5550   -3.6000   45.7920 C   0  0  0  0  0  0  0  0  0  0  0  0
  -59.0310   -4.7720   45.0380 N   0  3  0  0  0  0  0  0  0  0  0  0
  -54.5940   -2.8740   43.5610 N   0  0  0  0  0  0  0  0  0  0  0  0
  -54.6780   -3.8420   42.4270 C   0  0  2  0  0  0  0  0  0  0  0  0
  -56.1610   -4.2330   42.0310 C   0  0  0  0  0  0  0  0  0  0  0  0
  -56.9620   -4.4630   42.9490 O   0  0  0  0  0  0  0  0  0  0  0  0
  -53.8540   -5.0890   42.8240 C   0  0  0  0  0  0  0  0  0  0  0  0
  -53.7310   -5.9950   41.7260 O   0  0  0  0  0  0  0  0  0  0  0  0
  -56.5780   -4.3480   40.7320 N   0  0  0  0  0  0  0  0  0  0  0  0
  -58.0040   -4.6380   40.3610 C   0  0  2  0  0  0  0  0  0  0  0  0
  -58.5260   -6.1210   40.4840 C   0  0  0  0  0  0  0  0  0  0  0  0
  -59.2050   -6.6470   39.6000 O   0  0  0  0  0  0  0  0  0  0  0  0
  -58.0460   -4.0460   38.9350 C   0  0  0  0  0  0  0  0  0  0  0  0
  -56.6420   -4.2690   38.3750 C   0  0  0  0  0  0  0  0  0  0  0  0
  -55.7310   -4.0030   39.5710 C   0  0  0  0  0  0  0  0  0  0  0  0
  -58.2780   -6.7410   41.6420 N   0  0  0  0  0  0  0  0  0  0  0  0
  -59.1270   -7.8260   42.1920 C   0  0  2  0  0  0  0  0  0  0  0  0
  -59.6130   -7.3260   43.5820 C   0  0  0  0  0  0  0  0  0  0  0  0
  -58.9930   -7.6380   44.6260 O   0  5  0  0  0  0  0  0  0  0  0  0
  -58.3050   -9.1350   42.2330 C   0  0  0  0  0  0  0  0  0  0  0  0
  -58.9610  -10.0980   43.0560 O   0  0  0  0  0  0  0  0  0  0  0  0
  -60.5630   -6.5110   43.6430 O   0  0  0  0  0  0  0  0  0  0  0  0
  -41.3970    5.2941   62.9871 H   0  0  0  0  0  0  0  0  0  0  0  0
  -40.7687    4.8469   61.5328 H   0  0  0  0  0  0  0  0  0  0  0  0
  -40.6769    3.8235   62.8188 H   0  0  0  0  0  0  0  0  0  0  0  0
  -43.0436    3.5352   62.8844 H   0  0  0  0  0  0  0  0  0  0  0  0
  -42.9362    5.4659   60.5115 H   0  0  0  0  0  0  0  0  0  0  0  0
  -43.5496    5.8337   62.1592 H   0  0  0  0  0  0  0  0  0  0  0  0
  -45.5843    5.4709   61.2444 H   0  0  0  0  0  0  0  0  0  0  0  0
  -45.1806    3.7324   61.4475 H   0  0  0  0  0  0  0  0  0  0  0  0
  -44.3674    3.6542   59.0945 H   0  0  0  0  0  0  0  0  0  0  0  0
  -44.7960    5.3871   58.8947 H   0  0  0  0  0  0  0  0  0  0  0  0
  -47.2019    4.7862   59.4126 H   0  0  0  0  0  0  0  0  0  0  0  0
  -46.7202    3.0557   59.4210 H   0  0  0  0  0  0  0  0  0  0  0  0
  -47.5801    3.7383   57.2793 H   0  0  0  0  0  0  0  0  0  0  0  0
  -45.9929    3.3251   57.1397 H   0  0  0  0  0  0  0  0  0  0  0  0
  -46.4344    4.9109   57.1321 H   0  0  0  0  0  0  0  0  0  0  0  0
  -43.1017    1.3520   62.3019 H   0  0  0  0  0  0  0  0  0  0  0  0
  -41.9252    0.3327   59.8315 H   0  0  0  0  0  0  0  0  0  0  0  0
  -42.1290   -0.9142   61.9748 H   0  0  0  0  0  0  0  0  0  0  0  0
  -44.1633   -2.2291   62.5122 H   0  0  0  0  0  0  0  0  0  0  0  0
  -45.0749   -1.3137   61.2641 H   0  0  0  0  0  0  0  0  0  0  0  0
  -44.4190   -0.4613   62.7029 H   0  0  0  0  0  0  0  0  0  0  0  0
  -41.6678   -2.0727   59.8015 H   0  0  0  0  0  0  0  0  0  0  0  0
  -43.4244   -2.4142   59.6454 H   0  0  0  0  0  0  0  0  0  0  0  0
  -42.4902   -3.1183   61.0086 H   0  0  0  0  0  0  0  0  0  0  0  0
  -42.9426   -0.3976   57.8850 H   0  0  0  0  0  0  0  0  0  0  0  0
  -45.7867    0.3110   57.4188 H   0  0  0  0  0  0  0  0  0  0  0  0
  -43.6173    1.5299   55.6277 H   0  0  0  0  0  0  0  0  0  0  0  0
  -44.2654    2.3931   57.0635 H   0  0  0  0  0  0  0  0  0  0  0  0
  -45.8060    1.4330   54.8508 H   0  0  0  0  0  0  0  0  0  0  0  0
  -46.7567   -1.1618   55.9955 H   0  0  0  0  0  0  0  0  0  0  0  0
  -45.2636   -2.4997   53.8676 H   0  0  0  0  0  0  0  0  0  0  0  0
  -47.4397   -3.2411   54.8674 H   0  0  0  0  0  0  0  0  0  0  0  0
  -49.5965   -2.4604   53.9170 H   0  0  0  0  0  0  0  0  0  0  0  0
  -48.7389   -1.1059   53.1067 H   0  0  0  0  0  0  0  0  0  0  0  0
  -48.7819   -1.1969   54.9002 H   0  0  0  0  0  0  0  0  0  0  0  0
  -46.5670   -4.1806   52.7143 H   0  0  0  0  0  0  0  0  0  0  0  0
  -47.5692   -2.9866   51.8219 H   0  0  0  0  0  0  0  0  0  0  0  0
  -48.3577   -4.2353   52.8445 H   0  0  0  0  0  0  0  0  0  0  0  0
  -45.2761   -1.9977   51.5783 H   0  0  0  0  0  0  0  0  0  0  0  0
  -45.0486    0.8567   50.9116 H   0  0  0  0  0  0  0  0  0  0  0  0
  -44.9173   -1.5655   49.0617 H   0  0  0  0  0  0  0  0  0  0  0  0
  -43.5386   -0.1298   47.5535 H   0  0  0  0  0  0  0  0  0  0  0  0
  -43.8178    1.2694   48.6447 H   0  0  0  0  0  0  0  0  0  0  0  0
  -45.1983    0.5214   47.7722 H   0  0  0  0  0  0  0  0  0  0  0  0
  -43.1244   -1.6913   50.8229 H   0  0  0  0  0  0  0  0  0  0  0  0
  -42.5303   -0.0807   50.2942 H   0  0  0  0  0  0  0  0  0  0  0  0
  -42.4678   -1.4762   49.1649 H   0  0  0  0  0  0  0  0  0  0  0  0
  -46.6344    2.1504   50.1404 H   0  0  0  0  0  0  0  0  0  0  0  0
  -49.3190    0.9296   49.6925 H   0  0  0  0  0  0  0  0  0  0  0  0
  -48.6195    3.7544   50.5890 H   0  0  0  0  0  0  0  0  0  0  0  0
  -49.0177    2.3782   51.6725 H   0  0  0  0  0  0  0  0  0  0  0  0
  -50.9221    3.5801   49.6089 H   0  0  0  0  0  0  0  0  0  0  0  0
  -50.8762    4.0316   51.3470 H   0  0  0  0  0  0  0  0  0  0  0  0
  -52.5190    2.5074   51.6010 H   0  0  0  0  0  0  0  0  0  0  0  0
  -51.2179    1.2768   51.4605 H   0  0  0  0  0  0  0  0  0  0  0  0
  -53.0171    2.1885   49.2004 H   0  0  0  0  0  0  0  0  0  0  0  0
  -51.4107   -1.5326   49.2772 H   0  0  0  0  0  0  0  0  0  0  0  0
  -50.9848   -0.4342   50.6169 H   0  0  0  0  0  0  0  0  0  0  0  0
  -53.3834    0.7370   47.6087 H   0  0  0  0  0  0  0  0  0  0  0  0
  -52.6657   -0.8955   47.6596 H   0  0  0  0  0  0  0  0  0  0  0  0
  -49.2741    0.4671   47.5118 H   0  0  0  0  0  0  0  0  0  0  0  0
  -49.2388    2.3029   45.3636 H   0  0  0  0  0  0  0  0  0  0  0  0
  -49.4427    0.1954   44.6312 H   0  0  0  0  0  0  0  0  0  0  0  0
  -51.6376   -0.4816   43.7221 H   0  0  0  0  0  0  0  0  0  0  0  0
  -51.2664    1.2460   43.3994 H   0  0  0  0  0  0  0  0  0  0  0  0
  -52.4298    0.8041   44.6948 H   0  0  0  0  0  0  0  0  0  0  0  0
  -52.2138    5.3501   46.7286 H   0  0  0  0  0  0  0  0  0  0  0  0
  -51.5340    7.0126   45.3913 H   0  0  0  0  0  0  0  0  0  0  0  0
  -52.8093    6.5513   44.2134 H   0  0  0  0  0  0  0  0  0  0  0  0
  -50.1394    6.4512   43.5843 H   0  0  0  0  0  0  0  0  0  0  0  0
  -51.3219    5.2844   42.9008 H   0  0  0  0  0  0  0  0  0  0  0  0
  -49.8104    3.7661   43.9191 H   0  0  0  0  0  0  0  0  0  0  0  0
  -49.3823    4.9180   45.2293 H   0  0  0  0  0  0  0  0  0  0  0  0
  -56.3830    3.5821   45.4190 H   0  0  0  0  0  0  0  0  0  0  0  0
  -56.6674    4.2299   43.1388 H   0  0  0  0  0  0  0  0  0  0  0  0
  -56.8945    2.4525   43.0133 H   0  0  0  0  0  0  0  0  0  0  0  0
  -55.0567    3.6659   41.4486 H   0  0  0  0  0  0  0  0  0  0  0  0
  -54.6516    2.0984   42.2267 H   0  0  0  0  0  0  0  0  0  0  0  0
  -52.9009    3.2757   43.2244 H   0  0  0  0  0  0  0  0  0  0  0  0
  -53.6635    4.8664   42.8860 H   0  0  0  0  0  0  0  0  0  0  0  0
  -56.3249    0.7265   43.7419 H   0  0  0  0  0  0  0  0  0  0  0  0
  -54.2790   -0.7394   45.2815 H   0  0  0  0  0  0  0  0  0  0  0  0
  -56.3512   -0.7994   46.6870 H   0  0  0  0  0  0  0  0  0  0  0  0
  -55.7037   -2.4070   46.2147 H   0  0  0  0  0  0  0  0  0  0  0  0
  -57.5084   -2.5033   44.4297 H   0  0  0  0  0  0  0  0  0  0  0  0
  -58.2085   -1.0165   45.1549 H   0  0  0  0  0  0  0  0  0  0  0  0
  -58.7919   -2.1212   47.1655 H   0  0  0  0  0  0  0  0  0  0  0  0
  -57.6756   -3.4919   46.8465 H   0  0  0  0  0  0  0  0  0  0  0  0
  -60.1329   -2.9582   45.1108 H   0  0  0  0  0  0  0  0  0  0  0  0
  -60.2067   -3.9525   46.6050 H   0  0  0  0  0  0  0  0  0  0  0  0
  -59.8015   -5.2949   44.6520 H   0  0  0  0  0  0  0  0  0  0  0  0
  -58.5022   -5.3629   45.6604 H   0  0  0  0  0  0  0  0  0  0  0  0
  -58.4346   -4.4517   44.2911 H   0  0  0  0  0  0  0  0  0  0  0  0
  -54.1783   -3.1722   44.4202 H   0  0  0  0  0  0  0  0  0  0  0  0
  -54.2128   -3.3786   41.5445 H   0  0  0  0  0  0  0  0  0  0  0  0
  -54.3564   -5.6012   43.6578 H   0  0  0  0  0  0  0  0  0  0  0  0
  -52.8500   -4.7703   43.1410 H   0  0  0  0  0  0  0  0  0  0  0  0
  -53.2219   -6.7503   41.9957 H   0  0  0  0  0  0  0  0  0  0  0  0
  -58.6576   -4.0417   41.0146 H   0  0  0  0  0  0  0  0  0  0  0  0
  -58.2832   -2.9724   38.9685 H   0  0  0  0  0  0  0  0  0  0  0  0
  -58.7948   -4.5680   38.3212 H   0  0  0  0  0  0  0  0  0  0  0  0
  -56.4298   -3.5661   37.5559 H   0  0  0  0  0  0  0  0  0  0  0  0
  -56.5231   -5.3008   38.0128 H   0  0  0  0  0  0  0  0  0  0  0  0
  -54.8361   -4.6415   39.5334 H   0  0  0  0  0  0  0  0  0  0  0  0
  -55.4266   -2.9466   39.6062 H   0  0  0  0  0  0  0  0  0  0  0  0
  -57.4753   -6.4576   42.1668 H   0  0  0  0  0  0  0  0  0  0  0  0
  -60.0016   -7.9862   41.5444 H   0  0  0  0  0  0  0  0  0  0  0  0
  -57.3062   -8.9252   42.6434 H   0  0  0  0  0  0  0  0  0  0  0  0
  -58.2058   -9.5348   41.2131 H   0  0  0  0  0  0  0  0  0  0  0  0
  -59.0461   -9.7542   43.9375 H   0  0  0  0  0  0  0  0  0  0  0  0
  1  2  1  0  0  0  0
  1102  1  0  0  0  0
  1103  1  0  0  0  0
  1104  1  0  0  0  0
  2  3  1  0  0  0  0
  2  5  1  0  0  0  0
  2105  1  1  0  0  0
  3  4  2  0  0  0  0
  3 10  1  0  0  0  0
  5  6  1  0  0  0  0
  5106  1  0  0  0  0
  5107  1  0  0  0  0
  6  7  1  0  0  0  0
  6108  1  0  0  0  0
  6109  1  0  0  0  0
  7  8  1  0  0  0  0
  7110  1  0  0  0  0
  7111  1  0  0  0  0
  8  9  1  0  0  0  0
  8112  1  0  0  0  0
  8113  1  0  0  0  0
  9114  1  0  0  0  0
  9115  1  0  0  0  0
  9116  1  0  0  0  0
 10 11  1  0  0  0  0
 10117  1  0  0  0  0
 11 12  1  0  0  0  0
 11 14  1  0  0  0  0
 11118  1  6  0  0  0
 12 13  2  0  0  0  0
 12 17  1  0  0  0  0
 14 15  1  0  0  0  0
 14 16  1  0  0  0  0
 14119  1  0  0  0  0
 15120  1  0  0  0  0
 15121  1  0  0  0  0
 15122  1  0  0  0  0
 16123  1  0  0  0  0
 16124  1  0  0  0  0
 16125  1  0  0  0  0
 17 18  1  0  0  0  0
 17126  1  0  0  0  0
 18 19  1  0  0  0  0
 18 21  1  0  0  0  0
 18127  1  1  0  0  0
 19 20  2  0  0  0  0
 19 23  1  0  0  0  0
 21 22  1  0  0  0  0
 21128  1  0  0  0  0
 21129  1  0  0  0  0
 22130  1  0  0  0  0
 23 24  1  0  0  0  0
 23131  1  0  0  0  0
 24 25  1  0  0  0  0
 24 27  1  0  0  0  0
 24132  1  6  0  0  0
 25 26  2  0  0  0  0
 25 30  1  0  0  0  0
 27 28  1  0  0  0  0
 27 29  1  0  0  0  0
 27133  1  0  0  0  0
 28134  1  0  0  0  0
 28135  1  0  0  0  0
 28136  1  0  0  0  0
 29137  1  0  0  0  0
 29138  1  0  0  0  0
 29139  1  0  0  0  0
 30 31  1  0  0  0  0
 30140  1  0  0  0  0
 31 32  1  0  0  0  0
 31 34  1  0  0  0  0
 31141  1  1  0  0  0
 32 33  2  0  0  0  0
 32 37  1  0  0  0  0
 34 35  1  0  0  0  0
 34 36  1  0  0  0  0
 34142  1  0  0  0  0
 35143  1  0  0  0  0
 35144  1  0  0  0  0
 35145  1  0  0  0  0
 36146  1  0  0  0  0
 36147  1  0  0  0  0
 36148  1  0  0  0  0
 37 38  1  0  0  0  0
 37149  1  0  0  0  0
 38 39  1  0  0  0  0
 38 41  1  0  0  0  0
 38150  1  1  0  0  0
 39 40  2  0  0  0  0
 39 48  1  0  0  0  0
 41 42  1  0  0  0  0
 41151  1  0  0  0  0
 41152  1  0  0  0  0
 42 43  1  0  0  0  0
 42153  1  0  0  0  0
 42154  1  0  0  0  0
 43 44  1  0  0  0  0
 43155  1  0  0  0  0
 43156  1  0  0  0  0
 44 45  1  0  0  0  0
 44157  1  0  0  0  0
 45 46  1  0  0  0  0
 45 47  1  0  0  0  0
 46158  1  0  0  0  0
 46159  1  0  0  0  0
 47160  1  0  0  0  0
 47161  1  0  0  0  0
 48 49  1  0  0  0  0
 48162  1  0  0  0  0
 49 50  1  0  0  0  0
 49 57  1  0  0  0  0
 49163  1  6  0  0  0
 50 51  1  0  0  0  0
 50 52  1  0  0  0  0
 50164  1  6  0  0  0
 51165  1  0  0  0  0
 51166  1  0  0  0  0
 51167  1  0  0  0  0
 52 53  1  0  0  0  0
 53 54  1  0  0  0  0
 53 55  1  0  0  0  0
 53 56  2  0  0  0  0
 57 58  2  0  0  0  0
 57 59  1  0  0  0  0
 59 60  1  0  0  0  0
 59 65  1  0  0  0  0
 60 61  1  0  0  0  0
 60 63  1  0  0  0  0
 60168  1  1  0  0  0
 61 62  2  0  0  0  0
 61 66  1  0  0  0  0
 63 64  1  0  0  0  0
 63169  1  0  0  0  0
 63170  1  0  0  0  0
 64 65  1  0  0  0  0
 64171  1  0  0  0  0
 64172  1  0  0  0  0
 65173  1  0  0  0  0
 65174  1  0  0  0  0
 66 67  1  0  0  0  0
 66 72  1  0  0  0  0
 67 68  1  0  0  0  0
 67 70  1  0  0  0  0
 67175  1  1  0  0  0
 68 69  2  0  0  0  0
 68 73  1  0  0  0  0
 70 71  1  0  0  0  0
 70176  1  0  0  0  0
 70177  1  0  0  0  0
 71 72  1  0  0  0  0
 71178  1  0  0  0  0
 71179  1  0  0  0  0
 72180  1  0  0  0  0
 72181  1  0  0  0  0
 73 74  1  0  0  0  0
 73182  1  0  0  0  0
 74 75  1  0  0  0  0
 74 77  1  0  0  0  0
 74183  1  1  0  0  0
 75 76  2  0  0  0  0
 75 82  1  0  0  0  0
 77 78  1  0  0  0  0
 77184  1  0  0  0  0
 77185  1  0  0  0  0
 78 79  1  0  0  0  0
 78186  1  0  0  0  0
 78187  1  0  0  0  0
 79 80  1  0  0  0  0
 79188  1  0  0  0  0
 79189  1  0  0  0  0
 80 81  1  0  0  0  0
 80190  1  0  0  0  0
 80191  1  0  0  0  0
 81192  1  0  0  0  0
 81193  1  0  0  0  0
 81194  1  0  0  0  0
 82 83  1  0  0  0  0
 82195  1  0  0  0  0
 83 84  1  0  0  0  0
 83 86  1  0  0  0  0
 83196  1  6  0  0  0
 84 85  2  0  0  0  0
 84 88  1  0  0  0  0
 86 87  1  0  0  0  0
 86197  1  0  0  0  0
 86198  1  0  0  0  0
 87199  1  0  0  0  0
 88 89  1  0  0  0  0
 88 94  1  0  0  0  0
 89 90  1  0  0  0  0
 89 92  1  0  0  0  0
 89200  1  1  0  0  0
 90 91  2  0  0  0  0
 90 95  1  0  0  0  0
 92 93  1  0  0  0  0
 92201  1  0  0  0  0
 92202  1  0  0  0  0
 93 94  1  0  0  0  0
 93203  1  0  0  0  0
 93204  1  0  0  0  0
 94205  1  0  0  0  0
 94206  1  0  0  0  0
 95 96  1  0  0  0  0
 95207  1  0  0  0  0
 96 97  1  0  0  0  0
 96 99  1  0  0  0  0
 96208  1  6  0  0  0
 97 98  1  0  0  0  0
 97101  2  0  0  0  0
 99100  1  0  0  0  0
 99209  1  0  0  0  0
 99210  1  0  0  0  0
100211  1  0  0  0  0
M  CHG  4   1   1   9   1  81   1  98  -1
M  END
