1i8j_ligand
 OpenBabel08222323343D

 30 29  0  0  0  0  0  0  0  0999 V2000
   21.0900   91.0970   49.0530 C   0  0  0  0  0  0  0  0  0  0  0  0
   22.1830   90.9440   48.4620 O   0  5  0  0  0  0  0  0  0  0  0  0
   20.8720   90.2110   50.2440 C   0  0  0  0  0  0  0  0  0  0  0  0
   19.4260   90.2940   50.6570 C   0  0  0  0  0  0  0  0  0  0  0  0
   19.4090   89.3190   53.0310 C   0  0  0  0  0  0  0  0  0  0  0  0
   20.1800   91.9210   48.7380 O   0  0  0  0  0  0  0  0  0  0  0  0
   19.1040   88.1300   53.8630 C   0  0  0  0  0  0  0  0  0  0  0  0
   21.2680   87.0130   52.8070 C   0  0  0  0  0  0  0  0  0  0  0  0
   22.1730   88.0670   53.4550 C   0  0  0  0  0  0  0  0  0  0  0  0
   23.6270   87.6400   53.4910 C   0  0  0  0  0  0  0  0  0  0  0  0
   23.8890   86.4150   53.4100 O   0  5  0  0  0  0  0  0  0  0  0  0
   24.4650   88.5480   53.6370 O   0  0  0  0  0  0  0  0  0  0  0  0
   19.9240   86.9150   53.4810 C   0  0  0  0  0  0  0  0  0  0  0  0
   19.0370   89.1560   51.5690 C   0  0  0  0  0  0  0  0  0  0  0  0
   21.5125   90.5441   51.0739 H   0  0  0  0  0  0  0  0  0  0  0  0
   21.1219   89.1723   49.9820 H   0  0  0  0  0  0  0  0  0  0  0  0
   18.7959   90.2595   49.7560 H   0  0  0  0  0  0  0  0  0  0  0  0
   19.2603   91.2451   51.1841 H   0  0  0  0  0  0  0  0  0  0  0  0
   20.4890   89.5183   53.0937 H   0  0  0  0  0  0  0  0  0  0  0  0
   18.8535   90.1775   53.4364 H   0  0  0  0  0  0  0  0  0  0  0  0
   18.0381   87.8844   53.7463 H   0  0  0  0  0  0  0  0  0  0  0  0
   19.3107   88.3758   54.9151 H   0  0  0  0  0  0  0  0  0  0  0  0
   21.7660   86.0341   52.8687 H   0  0  0  0  0  0  0  0  0  0  0  0
   21.1146   87.2805   51.7511 H   0  0  0  0  0  0  0  0  0  0  0  0
   21.8306   88.2404   54.4859 H   0  0  0  0  0  0  0  0  0  0  0  0
   22.0939   89.0015   52.8802 H   0  0  0  0  0  0  0  0  0  0  0  0
   19.2895   86.3202   52.8075 H   0  0  0  0  0  0  0  0  0  0  0  0
   20.0924   86.3571   54.4139 H   0  0  0  0  0  0  0  0  0  0  0  0
   19.5264   88.2439   51.1968 H   0  0  0  0  0  0  0  0  0  0  0  0
   17.9451   89.0361   51.5108 H   0  0  0  0  0  0  0  0  0  0  0  0
  1  2  1  0  0  0  0
  1  6  2  0  0  0  0
  3  1  1  0  0  0  0
  3 15  1  0  0  0  0
  3 16  1  0  0  0  0
  4  3  1  0  0  0  0
  4 17  1  0  0  0  0
  4 18  1  0  0  0  0
  5 14  1  0  0  0  0
  5 19  1  0  0  0  0
  5 20  1  0  0  0  0
  7  5  1  0  0  0  0
  7 21  1  0  0  0  0
  7 22  1  0  0  0  0
  8  9  1  0  0  0  0
  8 13  1  0  0  0  0
  8 23  1  0  0  0  0
  8 24  1  0  0  0  0
  9 10  1  0  0  0  0
  9 25  1  0  0  0  0
  9 26  1  0  0  0  0
 10 11  1  0  0  0  0
 10 12  2  0  0  0  0
 13  7  1  0  0  0  0
 13 27  1  0  0  0  0
 13 28  1  0  0  0  0
 14  4  1  0  0  0  0
 14 29  1  0  0  0  0
 14 30  1  0  0  0  0
M  CHG  2   2  -1  11  -1
M  END
