1ibg_ligand
 OpenBabel08222323343D

 85 90  0  0  1  0  0  0  0  0999 V2000
    6.9710   11.8370   41.9510 C   0  0  2  0  0  0  0  0  0  0  0  0
    5.9560   11.9670   43.0680 C   0  0  0  0  0  0  0  0  0  0  0  0
    5.4240   10.6210   43.5440 C   0  0  1  0  0  0  0  0  0  0  0  0
    5.0390    9.6940   42.3750 C   0  0  0  0  0  0  0  0  0  0  0  0
    5.9520    9.6640   41.1110 C   0  0  1  0  0  0  0  0  0  0  0  0
    5.2010    9.0170   39.9300 C   0  0  0  0  0  0  0  0  0  0  0  0
    3.8690    9.7320   39.7060 C   0  0  0  0  0  0  0  0  0  0  0  0
    4.1560   11.1360   39.2150 C   0  0  2  0  0  0  0  0  0  0  0  0
    4.9770   11.9610   40.2210 C   0  0  1  0  0  0  0  0  0  0  0  0
    6.3030   11.1670   40.6900 C   0  0  1  0  0  0  0  0  0  0  0  0
    5.1370   13.4020   39.6330 C   0  0  1  0  0  0  0  0  0  0  0  0
    3.8190   14.0640   39.2490 C   0  0  0  0  0  0  0  0  0  0  0  0
    3.0650   13.3000   38.1650 C   0  0  1  0  0  0  0  0  0  0  0  0
    2.9000   11.8250   38.6330 C   0  0  2  0  0  0  0  0  0  0  0  0
    1.7050   11.9330   39.5610 C   0  0  0  0  0  0  0  0  0  0  0  0
    0.8730   13.1380   39.1160 C   0  0  0  0  0  0  0  0  0  0  0  0
    1.6480   13.8700   38.0430 C   0  0  2  0  0  0  0  0  0  0  0  0
    3.8590   13.4120   36.8630 C   0  0  0  0  0  0  0  0  0  0  0  0
    7.3710   11.0370   39.5680 C   0  0  0  0  0  0  0  0  0  0  0  0
    0.9680   13.8470   36.6910 C   0  0  0  0  0  0  0  0  0  0  0  0
    0.9090   15.0200   35.7670 C   0  0  0  0  0  0  0  0  0  0  0  0
    0.2770   12.8560   36.0790 C   0  0  0  0  0  0  0  0  0  0  0  0
   -0.3010   13.3270   34.8260 C   0  0  0  0  0  0  0  0  0  0  0  0
    5.7480    8.9910   45.3530 C   0  0  2  0  0  0  0  0  0  0  0  0
    6.9180    8.3560   46.1130 C   0  0  1  0  0  0  0  0  0  0  0  0
    7.6650    9.4740   46.8850 C   0  0  1  0  0  0  0  0  0  0  0  0
    6.7460   10.1000   47.9390 C   0  0  2  0  0  0  0  0  0  0  0  0
    5.3560   10.4590   47.3760 C   0  0  2  0  0  0  0  0  0  0  0  0
    4.3480   10.5060   48.5180 C   0  0  0  0  0  0  0  0  0  0  0  0
    8.1270   11.0920   42.3910 O   0  0  0  0  0  0  0  0  0  0  0  0
    6.2900   10.0080   44.4710 O   0  0  0  0  0  0  0  0  0  0  0  0
    7.1160    8.8120   41.3820 O   0  0  0  0  0  0  0  0  0  0  0  0
    5.8710   14.3020   40.4540 O   0  0  0  0  0  0  0  0  0  0  0  0
    2.4330   11.0510   37.5190 O   0  0  0  0  0  0  0  0  0  0  0  0
    8.2330   12.1910   39.4660 O   0  0  0  0  0  0  0  0  0  0  0  0
    0.0120   14.6140   34.6910 O   0  0  0  0  0  0  0  0  0  0  0  0
   -1.0190   12.7690   33.9960 O   0  0  0  0  0  0  0  0  0  0  0  0
    6.3600    7.3530   46.9950 O   0  0  0  0  0  0  0  0  0  0  0  0
    8.9210    9.0670   47.4780 O   0  0  0  0  0  0  0  0  0  0  0  0
    7.3720   11.3310   48.3140 O   0  0  0  0  0  0  0  0  0  0  0  0
    4.8580    9.4940   46.3940 O   0  0  0  0  0  0  0  0  0  0  0  0
    7.3040   12.8464   41.6678 H   0  0  0  0  0  0  0  0  0  0  0  0
    5.1106   12.5705   42.7059 H   0  0  0  0  0  0  0  0  0  0  0  0
    6.4328   12.4767   43.9182 H   0  0  0  0  0  0  0  0  0  0  0  0
    4.4912   10.8316   44.0876 H   0  0  0  0  0  0  0  0  0  0  0  0
    4.0344    9.9934   42.0417 H   0  0  0  0  0  0  0  0  0  0  0  0
    5.0031    8.6691   42.7728 H   0  0  0  0  0  0  0  0  0  0  0  0
    5.0125    7.9568   40.1545 H   0  0  0  0  0  0  0  0  0  0  0  0
    5.8146    9.0958   39.0205 H   0  0  0  0  0  0  0  0  0  0  0  0
    3.3078    9.7765   40.6510 H   0  0  0  0  0  0  0  0  0  0  0  0
    3.2779    9.1891   38.9538 H   0  0  0  0  0  0  0  0  0  0  0  0
    4.8260   11.0087   38.3520 H   0  0  0  0  0  0  0  0  0  0  0  0
    4.3686   12.0713   41.1307 H   0  0  0  0  0  0  0  0  0  0  0  0
    5.7142   13.2801   38.7046 H   0  0  0  0  0  0  0  0  0  0  0  0
    4.0300   15.0789   38.8809 H   0  0  0  0  0  0  0  0  0  0  0  0
    3.1822   14.1235   40.1439 H   0  0  0  0  0  0  0  0  0  0  0  0
    2.0473   12.0768   40.5964 H   0  0  0  0  0  0  0  0  0  0  0  0
    1.0993   11.0169   39.4989 H   0  0  0  0  0  0  0  0  0  0  0  0
    0.6972   13.8068   39.9715 H   0  0  0  0  0  0  0  0  0  0  0  0
   -0.0919   12.7971   38.7127 H   0  0  0  0  0  0  0  0  0  0  0  0
    1.7019   14.9326   38.3223 H   0  0  0  0  0  0  0  0  0  0  0  0
    4.8639   12.9891   37.0089 H   0  0  0  0  0  0  0  0  0  0  0  0
    3.9448   14.4703   36.5757 H   0  0  0  0  0  0  0  0  0  0  0  0
    3.3396   12.8571   36.0678 H   0  0  0  0  0  0  0  0  0  0  0  0
    6.8535   10.9013   38.6069 H   0  0  0  0  0  0  0  0  0  0  0  0
    7.9925   10.1540   39.7777 H   0  0  0  0  0  0  0  0  0  0  0  0
    1.9089   15.2490   35.3699 H   0  0  0  0  0  0  0  0  0  0  0  0
    0.5107   15.9026   36.2889 H   0  0  0  0  0  0  0  0  0  0  0  0
    0.1679   11.8453   36.4695 H   0  0  0  0  0  0  0  0  0  0  0  0
    5.2182    8.2403   44.7482 H   0  0  0  0  0  0  0  0  0  0  0  0
    7.6138    7.8768   45.4086 H   0  0  0  0  0  0  0  0  0  0  0  0
    7.9047   10.2569   46.1505 H   0  0  0  0  0  0  0  0  0  0  0  0
    6.6398    9.4245   48.8006 H   0  0  0  0  0  0  0  0  0  0  0  0
    5.4198   11.4481   46.8989 H   0  0  0  0  0  0  0  0  0  0  0  0
    3.3549   10.7619   48.1202 H   0  0  0  0  0  0  0  0  0  0  0  0
    4.6574   11.2674   49.2491 H   0  0  0  0  0  0  0  0  0  0  0  0
    4.3040    9.5227   49.0090 H   0  0  0  0  0  0  0  0  0  0  0  0
    7.8642   10.2086   42.6213 H   0  0  0  0  0  0  0  0  0  0  0  0
    7.6109    9.1751   42.1071 H   0  0  0  0  0  0  0  0  0  0  0  0
    6.6963   13.9019   40.7014 H   0  0  0  0  0  0  0  0  0  0  0  0
    3.0660   11.1011   36.8125 H   0  0  0  0  0  0  0  0  0  0  0  0
    8.6932   12.3147   40.2878 H   0  0  0  0  0  0  0  0  0  0  0  0
    5.7419    7.7633   47.5884 H   0  0  0  0  0  0  0  0  0  0  0  0
    9.3539    9.8255   47.8520 H   0  0  0  0  0  0  0  0  0  0  0  0
    8.2352   11.1512   48.6674 H   0  0  0  0  0  0  0  0  0  0  0  0
  1 10  1  0  0  0  0
  1 30  1  0  0  0  0
  1 42  1  6  0  0  0
  2  1  1  0  0  0  0
  2 43  1  0  0  0  0
  2 44  1  0  0  0  0
  3  2  1  0  0  0  0
  3  4  1  0  0  0  0
  3 45  1  1  0  0  0
  4  5  1  0  0  0  0
  4 46  1  0  0  0  0
  4 47  1  0  0  0  0
  5  6  1  0  0  0  0
  5 10  1  0  0  0  0
  5 32  1  1  0  0  0
  6  7  1  0  0  0  0
  6 48  1  0  0  0  0
  6 49  1  0  0  0  0
  7  8  1  0  0  0  0
  7 50  1  0  0  0  0
  7 51  1  0  0  0  0
  8 14  1  0  0  0  0
  8 52  1  6  0  0  0
  9  8  1  0  0  0  0
  9 11  1  0  0  0  0
  9 53  1  1  0  0  0
 10  9  1  0  0  0  0
 10 19  1  6  0  0  0
 11 12  1  0  0  0  0
 11 33  1  0  0  0  0
 11 54  1  6  0  0  0
 12 13  1  0  0  0  0
 12 55  1  0  0  0  0
 12 56  1  0  0  0  0
 13 17  1  0  0  0  0
 13 18  1  6  0  0  0
 14 13  1  0  0  0  0
 14 15  1  0  0  0  0
 14 34  1  6  0  0  0
 15 16  1  0  0  0  0
 15 57  1  0  0  0  0
 15 58  1  0  0  0  0
 16 59  1  0  0  0  0
 16 60  1  0  0  0  0
 17 16  1  0  0  0  0
 17 20  1  0  0  0  0
 17 61  1  1  0  0  0
 18 62  1  0  0  0  0
 18 63  1  0  0  0  0
 18 64  1  0  0  0  0
 19 35  1  0  0  0  0
 19 65  1  0  0  0  0
 19 66  1  0  0  0  0
 20 21  1  0  0  0  0
 20 22  2  0  0  0  0
 21 36  1  0  0  0  0
 21 67  1  0  0  0  0
 21 68  1  0  0  0  0
 22 23  1  0  0  0  0
 22 69  1  0  0  0  0
 23 36  1  0  0  0  0
 23 37  2  0  0  0  0
 24 25  1  0  0  0  0
 24 31  1  0  0  0  0
 24 41  1  0  0  0  0
 24 70  1  6  0  0  0
 25 26  1  0  0  0  0
 25 38  1  0  0  0  0
 25 71  1  6  0  0  0
 26 27  1  0  0  0  0
 26 39  1  0  0  0  0
 26 72  1  6  0  0  0
 27 28  1  0  0  0  0
 27 40  1  0  0  0  0
 27 73  1  1  0  0  0
 28 29  1  0  0  0  0
 28 41  1  0  0  0  0
 28 74  1  6  0  0  0
 29 75  1  0  0  0  0
 29 76  1  0  0  0  0
 29 77  1  0  0  0  0
 30 78  1  0  0  0  0
 31  3  1  0  0  0  0
 32 79  1  0  0  0  0
 33 80  1  0  0  0  0
 34 81  1  0  0  0  0
 35 82  1  0  0  0  0
 38 83  1  0  0  0  0
 39 84  1  0  0  0  0
 40 85  1  0  0  0  0
M  END
