1icj_ligand
 OpenBabel08222323343D

 66 65  0  0  0  0  0  0  0  0999 V2000
   31.5930   37.8640   77.3400 O   0  0  0  0  0  0  0  0  0  0  0  0
   32.7220   38.6250   77.8210 C   0  0  0  0  0  0  0  0  0  0  0  0
   33.2650   39.5420   76.6910 C   0  0  0  0  0  0  0  0  0  0  0  0
   34.0800   38.7760   75.7890 O   0  0  0  0  0  0  0  0  0  0  0  0
   33.4030   38.6190   74.5350 C   0  0  0  0  0  0  0  0  0  0  0  0
   32.9820   37.1340   74.3590 C   0  0  0  0  0  0  0  0  0  0  0  0
   33.1620   36.7270   72.9870 O   0  0  0  0  0  0  0  0  0  0  0  0
   33.9580   35.5330   72.9470 C   0  0  0  0  0  0  0  0  0  0  0  0
   35.2910   35.8630   72.2860 C   0  0  0  0  0  0  0  0  0  0  0  0
   35.8300   34.6900   71.6800 O   0  0  0  0  0  0  0  0  0  0  0  0
   36.5270   35.0520   70.4860 C   0  0  0  0  0  0  0  0  0  0  0  0
   37.9410   35.4510   70.8210 C   0  0  0  0  0  0  0  0  0  0  0  0
   37.9120   36.6720   71.5500 O   0  0  0  0  0  0  0  0  0  0  0  0
   39.2190   37.2430   71.5720 C   0  0  0  0  0  0  0  0  0  0  0  0
   39.1100   38.7760   71.4810 C   0  0  0  0  0  0  0  0  0  0  0  0
   38.3540   39.3020   72.5870 O   0  0  0  0  0  0  0  0  0  0  0  0
   37.1910   39.9600   72.0860 C   0  0  0  0  0  0  0  0  0  0  0  0
   36.6810   40.9670   73.1200 C   0  0  0  0  0  0  0  0  0  0  0  0
   35.2870   40.7370   73.3840 O   0  0  0  0  0  0  0  0  0  0  0  0
   34.4980   41.1640   72.2560 C   0  0  0  0  0  0  0  0  0  0  0  0
   34.2290   42.6820   72.3390 C   0  0  0  0  0  0  0  0  0  0  0  0
   33.0790   42.9350   73.1700 O   0  0  0  0  0  0  0  0  0  0  0  0
   33.4810   43.6300   74.3650 C   0  0  0  0  0  0  0  0  0  0  0  0
   33.2950   45.1460   74.1690 C   0  0  0  0  0  0  0  0  0  0  0  0
   34.1310   45.6080   73.0770 O   0  0  0  0  0  0  0  0  0  0  0  0
   33.3240   46.2780   72.0700 C   0  0  0  0  0  0  0  0  0  0  0  0
   33.6270   45.7220   70.6550 C   0  0  0  0  0  0  0  0  0  0  0  0
   32.6460   44.7310   70.3040 O   0  0  0  0  0  0  0  0  0  0  0  0
   31.2680   37.3067   78.0373 H   0  0  0  0  0  0  0  0  0  0  0  0
   33.5158   37.9350   78.1431 H   0  0  0  0  0  0  0  0  0  0  0  0
   32.4069   39.2449   78.6733 H   0  0  0  0  0  0  0  0  0  0  0  0
   33.8691   40.3476   77.1337 H   0  0  0  0  0  0  0  0  0  0  0  0
   32.4203   39.9786   76.1380 H   0  0  0  0  0  0  0  0  0  0  0  0
   34.0766   38.9092   73.7153 H   0  0  0  0  0  0  0  0  0  0  0  0
   32.5083   39.2586   74.5182 H   0  0  0  0  0  0  0  0  0  0  0  0
   31.9236   37.0206   74.6362 H   0  0  0  0  0  0  0  0  0  0  0  0
   33.6017   36.5005   75.0106 H   0  0  0  0  0  0  0  0  0  0  0  0
   33.4368   34.7588   72.3649 H   0  0  0  0  0  0  0  0  0  0  0  0
   34.1314   35.1681   73.9701 H   0  0  0  0  0  0  0  0  0  0  0  0
   35.9930   36.2378   73.0454 H   0  0  0  0  0  0  0  0  0  0  0  0
   35.1369   36.6341   71.5168 H   0  0  0  0  0  0  0  0  0  0  0  0
   36.0132   35.8976   70.0054 H   0  0  0  0  0  0  0  0  0  0  0  0
   36.5431   34.1938   69.7981 H   0  0  0  0  0  0  0  0  0  0  0  0
   38.5162   35.5878   69.8934 H   0  0  0  0  0  0  0  0  0  0  0  0
   38.4116   34.6667   71.4320 H   0  0  0  0  0  0  0  0  0  0  0  0
   39.7988   36.8651   70.7170 H   0  0  0  0  0  0  0  0  0  0  0  0
   39.7245   36.9662   72.5089 H   0  0  0  0  0  0  0  0  0  0  0  0
   38.6081   39.0465   70.5403 H   0  0  0  0  0  0  0  0  0  0  0  0
   40.1203   39.2108   71.4958 H   0  0  0  0  0  0  0  0  0  0  0  0
   36.4076   39.2146   71.8846 H   0  0  0  0  0  0  0  0  0  0  0  0
   37.4427   40.4883   71.1546 H   0  0  0  0  0  0  0  0  0  0  0  0
   36.8146   41.9874   72.7315 H   0  0  0  0  0  0  0  0  0  0  0  0
   37.2522   40.8521   74.0530 H   0  0  0  0  0  0  0  0  0  0  0  0
   33.5395   40.6244   72.2576 H   0  0  0  0  0  0  0  0  0  0  0  0
   35.0425   40.9416   71.3264 H   0  0  0  0  0  0  0  0  0  0  0  0
   34.0414   43.0743   71.3286 H   0  0  0  0  0  0  0  0  0  0  0  0
   35.1074   43.1844   72.7703 H   0  0  0  0  0  0  0  0  0  0  0  0
   34.5392   43.4153   74.5748 H   0  0  0  0  0  0  0  0  0  0  0  0
   32.8636   43.2919   75.2103 H   0  0  0  0  0  0  0  0  0  0  0  0
   33.5787   45.6710   75.0931 H   0  0  0  0  0  0  0  0  0  0  0  0
   32.2409   45.3572   73.9361 H   0  0  0  0  0  0  0  0  0  0  0  0
   33.5469   47.3550   72.0886 H   0  0  0  0  0  0  0  0  0  0  0  0
   32.2597   46.1198   72.2983 H   0  0  0  0  0  0  0  0  0  0  0  0
   34.6274   45.2647   70.6482 H   0  0  0  0  0  0  0  0  0  0  0  0
   33.5944   46.5437   69.9244 H   0  0  0  0  0  0  0  0  0  0  0  0
   32.6747   44.0212   70.9349 H   0  0  0  0  0  0  0  0  0  0  0  0
  1  2  1  0  0  0  0
  1 29  1  0  0  0  0
  2  3  1  0  0  0  0
  2 30  1  0  0  0  0
  2 31  1  0  0  0  0
  3  4  1  0  0  0  0
  3 32  1  0  0  0  0
  3 33  1  0  0  0  0
  4  5  1  0  0  0  0
  5  6  1  0  0  0  0
  5 34  1  0  0  0  0
  5 35  1  0  0  0  0
  6  7  1  0  0  0  0
  6 36  1  0  0  0  0
  6 37  1  0  0  0  0
  7  8  1  0  0  0  0
  8  9  1  0  0  0  0
  8 38  1  0  0  0  0
  8 39  1  0  0  0  0
  9 10  1  0  0  0  0
  9 40  1  0  0  0  0
  9 41  1  0  0  0  0
 10 11  1  0  0  0  0
 11 12  1  0  0  0  0
 11 42  1  0  0  0  0
 11 43  1  0  0  0  0
 12 13  1  0  0  0  0
 12 44  1  0  0  0  0
 12 45  1  0  0  0  0
 13 14  1  0  0  0  0
 14 15  1  0  0  0  0
 14 46  1  0  0  0  0
 14 47  1  0  0  0  0
 15 16  1  0  0  0  0
 15 48  1  0  0  0  0
 15 49  1  0  0  0  0
 16 17  1  0  0  0  0
 17 18  1  0  0  0  0
 17 50  1  0  0  0  0
 17 51  1  0  0  0  0
 18 19  1  0  0  0  0
 18 52  1  0  0  0  0
 18 53  1  0  0  0  0
 19 20  1  0  0  0  0
 20 21  1  0  0  0  0
 20 54  1  0  0  0  0
 20 55  1  0  0  0  0
 21 22  1  0  0  0  0
 21 56  1  0  0  0  0
 21 57  1  0  0  0  0
 22 23  1  0  0  0  0
 23 24  1  0  0  0  0
 23 58  1  0  0  0  0
 23 59  1  0  0  0  0
 24 25  1  0  0  0  0
 24 60  1  0  0  0  0
 24 61  1  0  0  0  0
 25 26  1  0  0  0  0
 26 27  1  0  0  0  0
 26 62  1  0  0  0  0
 26 63  1  0  0  0  0
 27 28  1  0  0  0  0
 27 64  1  0  0  0  0
 27 65  1  0  0  0  0
 28 66  1  0  0  0  0
M  END
