1idg_ligand
 OpenBabel08222323343D

310321  0  0  1  0  0  0  0  0999 V2000
   -4.1060  -16.1730   25.0780 N   0  3  0  0  0  0  0  0  0  0  0  0
   -2.9690  -17.0060   24.6340 C   0  0  2  0  0  0  0  0  0  0  0  0
   -2.1230  -16.1250   23.6620 C   0  0  0  0  0  0  0  0  0  0  0  0
   -1.6870  -15.0270   24.0220 O   0  0  0  0  0  0  0  0  0  0  0  0
   -3.4960  -18.3670   24.0710 C   0  0  0  0  0  0  0  0  0  0  0  0
   -4.1360  -19.4060   25.0070 C   0  0  0  0  0  0  0  0  0  0  0  0
   -3.3650  -20.0060   26.0030 C   0  0  0  0  0  0  0  0  0  0  0  0
   -5.4280  -19.8870   24.7480 C   0  0  0  0  0  0  0  0  0  0  0  0
   -3.8660  -21.0940   26.7210 C   0  0  0  0  0  0  0  0  0  0  0  0
   -5.9250  -20.9750   25.4690 C   0  0  0  0  0  0  0  0  0  0  0  0
   -5.1450  -21.5780   26.4460 C   0  0  0  0  0  0  0  0  0  0  0  0
   -5.6200  -22.6730   27.1280 O   0  0  0  0  0  0  0  0  0  0  0  0
   -4.6838  -16.7032   25.7113 H   0  0  0  0  0  0  0  0  0  0  0  0
   -4.6520  -15.8955   24.2775 H   0  0  0  0  0  0  0  0  0  0  0  0
   -3.7578  -15.3522   25.5482 H   0  0  0  0  0  0  0  0  0  0  0  0
   -2.3374  -17.2415   25.5033 H   0  0  0  0  0  0  0  0  0  0  0  0
   -2.6390  -18.8619   23.5907 H   0  0  0  0  0  0  0  0  0  0  0  0
   -4.2514  -18.1214   23.3101 H   0  0  0  0  0  0  0  0  0  0  0  0
   -2.3733  -19.6262   26.2204 H   0  0  0  0  0  0  0  0  0  0  0  0
   -6.0404  -19.4145   23.9886 H   0  0  0  0  0  0  0  0  0  0  0  0
   -3.2622  -21.5614   27.4904 H   0  0  0  0  0  0  0  0  0  0  0  0
   -6.9217  -21.3492   25.2652 H   0  0  0  0  0  0  0  0  0  0  0  0
   -4.9679  -22.9609   27.7560 H   0  0  0  0  0  0  0  0  0  0  0  0
   -1.8880  -16.5480   22.4130 N   0  0  0  0  0  0  0  0  0  0  0  0
   -2.5660  -15.9670   21.2140 C   0  0  2  0  0  0  0  0  0  0  0  0
   -3.2450  -14.5470   21.3040 C   0  0  0  0  0  0  0  0  0  0  0  0
   -4.2840  -14.3210   21.9350 O   0  0  0  0  0  0  0  0  0  0  0  0
   -3.5170  -17.0230   20.5750 C   0  0  0  0  0  0  0  0  0  0  0  0
   -2.7980  -18.2520   19.9470 C   0  0  0  0  0  0  0  0  0  0  0  0
   -3.3470  -19.6410   20.3340 C   0  0  0  0  0  0  0  0  0  0  0  0
   -4.3510  -20.1400   19.3600 N   0  0  0  0  0  0  0  0  0  0  0  0
   -4.4170  -21.4040   18.9010 C   0  0  0  0  0  3  0  0  0  0  0  0
   -3.5950  -22.3830   19.2830 N   0  0  0  0  0  0  0  0  0  0  0  0
   -5.3550  -21.6930   18.0190 N   0  0  0  0  0  0  0  0  0  0  0  0
   -1.2282  -17.2869   22.2762 H   0  0  0  0  0  0  0  0  0  0  0  0
   -1.7512  -15.8221   20.4893 H   0  0  0  0  0  0  0  0  0  0  0  0
   -4.0988  -16.5261   19.7847 H   0  0  0  0  0  0  0  0  0  0  0  0
   -4.1984  -17.3881   21.3575 H   0  0  0  0  0  0  0  0  0  0  0  0
   -1.7417  -18.2132   20.2516 H   0  0  0  0  0  0  0  0  0  0  0  0
   -2.8680  -18.1576   18.8533 H   0  0  0  0  0  0  0  0  0  0  0  0
   -3.8193  -19.5715   21.3250 H   0  0  0  0  0  0  0  0  0  0  0  0
   -2.5099  -20.3534   20.3759 H   0  0  0  0  0  0  0  0  0  0  0  0
   -5.0491  -19.4688   19.0094 H   0  0  0  0  0  0  0  0  0  0  0  0
   -3.7030  -23.3289   18.8900 H   0  0  0  0  0  0  0  0  0  0  0  0
   -2.8524  -22.1929   19.9709 H   0  0  0  0  0  0  0  0  0  0  0  0
   -6.0068  -20.9612   17.7019 H   0  0  0  0  0  0  0  0  0  0  0  0
   -5.4353  -22.6504   17.6476 H   0  0  0  0  0  0  0  0  0  0  0  0
   -2.5830  -13.6300   20.6030 N   0  0  0  0  0  0  0  0  0  0  0  0
   -3.0860  -12.3140   20.1870 C   0  0  0  0  0  0  0  0  0  0  0  0
   -1.8470  -11.4510   19.8850 C   0  0  0  0  0  0  0  0  0  0  0  0
   -1.5600  -10.5620   20.6890 O   0  0  0  0  0  0  0  0  0  0  0  0
   -1.6483  -13.8600   20.3319 H   0  0  0  0  0  0  0  0  0  0  0  0
   -3.6780  -11.8600   20.9953 H   0  0  0  0  0  0  0  0  0  0  0  0
   -3.7098  -12.4124   19.2864 H   0  0  0  0  0  0  0  0  0  0  0  0
   -1.0280  -11.5650   18.8160 N   0  0  0  0  0  0  0  0  0  0  0  0
   -1.0440  -12.5820   17.7210 C   0  0  2  0  0  0  0  0  0  0  0  0
   -1.8550  -12.0270   16.5330 C   0  0  0  0  0  0  0  0  0  0  0  0
   -3.0860  -11.9980   16.5940 O   0  0  0  0  0  0  0  0  0  0  0  0
   -1.0440  -14.1550   17.9460 C   0  0  0  0  0  0  0  0  0  0  0  0
   -2.1540  -15.0870   17.3660 C   0  0  0  0  0  0  0  0  0  0  0  0
   -3.5620  -14.9340   17.4550 C   0  0  0  0  0  0  0  0  0  0  0  0
   -1.9850  -16.2880   16.6720 C   0  0  0  0  0  0  0  0  0  0  0  0
   -4.2640  -15.9860   16.8310 N   0  0  0  0  0  0  0  0  0  0  0  0
   -3.2670  -16.8070   16.3470 C   0  0  0  0  0  0  0  0  0  0  0  0
   -0.8180  -17.0160   16.3150 C   0  0  0  0  0  0  0  0  0  0  0  0
   -3.3880  -18.0380   15.6510 C   0  0  0  0  0  0  0  0  0  0  0  0
   -0.9590  -18.2150   15.6180 C   0  0  0  0  0  0  0  0  0  0  0  0
   -2.2240  -18.7190   15.2900 C   0  0  0  0  0  0  0  0  0  0  0  0
   -0.3107  -10.8716   18.7482 H   0  0  0  0  0  0  0  0  0  0  0  0
   -0.0146  -12.4751   17.3483 H   0  0  0  0  0  0  0  0  0  0  0  0
   -1.0562  -14.3074   19.0353 H   0  0  0  0  0  0  0  0  0  0  0  0
   -0.0920  -14.5220   17.5350 H   0  0  0  0  0  0  0  0  0  0  0  0
   -4.0478  -14.0952   17.9513 H   0  0  0  0  0  0  0  0  0  0  0  0
   -5.2834  -16.1119   16.7545 H   0  0  0  0  0  0  0  0  0  0  0  0
    0.1655  -16.6452   16.5802 H   0  0  0  0  0  0  0  0  0  0  0  0
   -4.3638  -18.4410   15.4049 H   0  0  0  0  0  0  0  0  0  0  0  0
   -0.0736  -18.7673   15.3245 H   0  0  0  0  0  0  0  0  0  0  0  0
   -2.3005  -19.6538   14.7466 H   0  0  0  0  0  0  0  0  0  0  0  0
   -1.1610  -11.6770   15.4330 N   0  0  0  0  0  0  0  0  0  0  0  0
   -1.2620  -12.4440   14.1580 C   0  0  2  0  0  0  0  0  0  0  0  0
   -2.6860  -12.9230   13.7160 C   0  0  0  0  0  0  0  0  0  0  0  0
   -3.1480  -13.9310   14.2510 O   0  0  0  0  0  0  0  0  0  0  0  0
   -0.1840  -13.5880   14.1550 C   0  0  0  0  0  0  0  0  0  0  0  0
    1.2490  -13.2600   13.6670 C   0  0  0  0  0  0  0  0  0  0  0  0
    2.0870  -12.2190   14.4410 C   0  0  0  0  0  0  0  0  0  0  0  0
    2.4320  -10.9420   13.6490 C   0  0  0  0  0  0  0  0  0  0  0  0
    1.3120  -10.0160   13.4120 N   0  3  0  0  0  0  0  0  0  0  0  0
   -0.5599  -10.8788   15.4724 H   0  0  0  0  0  0  0  0  0  0  0  0
   -0.9556  -11.7381   13.3720 H   0  0  0  0  0  0  0  0  0  0  0  0
   -0.5684  -14.3932   13.5117 H   0  0  0  0  0  0  0  0  0  0  0  0
   -0.0978  -13.9541   15.1887 H   0  0  0  0  0  0  0  0  0  0  0  0
    1.1613  -12.8972   12.6323 H   0  0  0  0  0  0  0  0  0  0  0  0
    1.8163  -14.2023   13.6784 H   0  0  0  0  0  0  0  0  0  0  0  0
    3.0298  -12.6974   14.7447 H   0  0  0  0  0  0  0  0  0  0  0  0
    1.5210  -11.9228   15.3365 H   0  0  0  0  0  0  0  0  0  0  0  0
    2.8301  -11.2483   12.6704 H   0  0  0  0  0  0  0  0  0  0  0  0
    3.2083  -10.3977   14.2067 H   0  0  0  0  0  0  0  0  0  0  0  0
    1.6400   -9.2187   12.8898 H   0  0  0  0  0  0  0  0  0  0  0  0
    0.9379   -9.7079   14.2959 H   0  0  0  0  0  0  0  0  0  0  0  0
    0.5914  -10.4874   12.8881 H   0  0  0  0  0  0  0  0  0  0  0  0
   -3.4850  -12.3300   12.7950 N   0  0  0  0  0  0  0  0  0  0  0  0
   -3.1050  -11.2480   11.8330 C   0  0  2  0  0  0  0  0  0  0  0  0
   -2.0580  -11.6930   10.7460 C   0  0  0  0  0  0  0  0  0  0  0  0
   -1.8930  -12.8980   10.5290 O   0  0  0  0  0  0  0  0  0  0  0  0
   -3.0040   -9.8650   12.5550 C   0  0  0  0  0  0  0  0  0  0  0  0
   -3.2360   -8.6290   11.6830 C   0  0  0  0  0  0  0  0  0  0  0  0
   -4.4150   -8.3210   11.0110 N   0  0  0  0  0  0  0  0  0  0  0  0
   -2.2790   -7.6210   11.4680 C   0  0  0  0  0  0  0  0  0  0  0  0
   -4.0470   -7.1410   10.4220 C   0  0  0  0  0  0  0  0  0  0  0  0
   -2.7930   -6.6360   10.6450 N   0  0  0  0  0  0  0  0  0  0  0  0
   -4.4314  -12.6504   12.7539 H   0  0  0  0  0  0  0  0  0  0  0  0
   -4.0105  -11.1197   11.2218 H   0  0  0  0  0  0  0  0  0  0  0  0
   -1.9961   -9.7855   12.9884 H   0  0  0  0  0  0  0  0  0  0  0  0
   -3.7520   -9.8520   13.3614 H   0  0  0  0  0  0  0  0  0  0  0  0
   -1.2751   -7.6169   11.8901 H   0  0  0  0  0  0  0  0  0  0  0  0
   -4.7466   -6.6073    9.7804 H   0  0  0  0  0  0  0  0  0  0  0  0
   -2.3573   -5.7695   10.2983 H   0  0  0  0  0  0  0  0  0  0  0  0
   -1.2898   -9.8640   10.3109 H   0  0  0  0  0  0  0  0  0  0  0  0
   -1.4790  -10.7760    9.9470 N   0  0  0  0  0  0  0  0  0  0  0  0
   -1.1120  -11.0840    8.5330 C   0  0  2  0  0  0  0  0  0  0  0  0
    0.3890  -10.6900    8.2630 C   0  0  0  0  0  0  0  0  0  0  0  0
    1.2230  -11.4520    8.7530 O   0  0  0  0  0  0  0  0  0  0  0  0
   -2.3060  -10.5930    7.6580 C   0  0  0  0  0  0  0  0  0  0  0  0
   -3.4800  -11.5750    7.5710 C   0  0  0  0  0  0  0  0  0  0  0  0
   -4.6730  -11.5180    8.3150 C   0  0  0  0  0  0  0  0  0  0  0  0
   -3.4930  -12.8030    6.9460 C   0  0  0  0  0  0  0  0  0  0  0  0
   -5.4540  -12.6740    8.1390 N   0  0  0  0  0  0  0  0  0  0  0  0
   -4.6940  -13.4630    7.2930 C   0  0  0  0  0  0  0  0  0  0  0  0
   -2.4900  -13.4750    6.2070 C   0  0  0  0  0  0  0  0  0  0  0  0
   -4.9090  -14.8040    6.8890 C   0  0  0  0  0  0  0  0  0  0  0  0
   -2.7270  -14.7850    5.8000 C   0  0  0  0  0  0  0  0  0  0  0  0
   -3.9200  -15.4400    6.1260 C   0  0  0  0  0  0  0  0  0  0  0  0
   -1.1204  -12.1785    8.4234 H   0  0  0  0  0  0  0  0  0  0  0  0
   -1.9332  -10.4129    6.6389 H   0  0  0  0  0  0  0  0  0  0  0  0
   -2.6786   -9.6499    8.0842 H   0  0  0  0  0  0  0  0  0  0  0  0
   -4.9570  -10.6802    8.9501 H   0  0  0  0  0  0  0  0  0  0  0  0
   -6.3768  -12.8846    8.5451 H   0  0  0  0  0  0  0  0  0  0  0  0
   -1.5570  -12.9799    5.9631 H   0  0  0  0  0  0  0  0  0  0  0  0
   -5.8181  -15.3265    7.1639 H   0  0  0  0  0  0  0  0  0  0  0  0
   -1.9742  -15.3069    5.2204 H   0  0  0  0  0  0  0  0  0  0  0  0
   -4.0818  -16.4555    5.7829 H   0  0  0  0  0  0  0  0  0  0  0  0
    1.9209   -9.4614    7.8819 H   0  0  0  0  0  0  0  0  0  0  0  0
    0.9600   -9.6200    7.6550 N   0  0  0  0  0  0  0  0  0  0  0  0
    0.3590   -8.6420    6.6930 C   0  0  2  0  0  0  0  0  0  0  0  0
   -0.7730   -7.7290    7.3090 C   0  0  0  0  0  0  0  0  0  0  0  0
   -1.0400   -7.8640    8.5020 O   0  0  0  0  0  0  0  0  0  0  0  0
    0.3770   -9.1520    5.1910 C   0  0  0  0  0  0  0  0  0  0  0  0
    1.7860   -9.1540    4.5520 C   0  0  0  0  0  0  0  0  0  0  0  0
   -0.2910  -10.4800    4.7690 C   0  0  0  0  0  0  0  0  0  0  0  0
    1.1617   -7.8926    6.6294 H   0  0  0  0  0  0  0  0  0  0  0  0
   -0.1963   -8.3777    4.6603 H   0  0  0  0  0  0  0  0  0  0  0  0
    1.7183   -9.5180    3.5162 H   0  0  0  0  0  0  0  0  0  0  0  0
    2.4498   -9.8139    5.1299 H   0  0  0  0  0  0  0  0  0  0  0  0
    2.1917   -8.1316    4.5555 H   0  0  0  0  0  0  0  0  0  0  0  0
   -1.3026  -10.5339    5.1976 H   0  0  0  0  0  0  0  0  0  0  0  0
    0.3087  -11.3254    5.1373 H   0  0  0  0  0  0  0  0  0  0  0  0
   -0.3547  -10.5260    3.6718 H   0  0  0  0  0  0  0  0  0  0  0  0
   -2.3581   -6.5177    7.1976 H   0  0  0  0  0  0  0  0  0  0  0  0
   -1.4900   -6.7300    6.7490 N   0  0  0  0  0  0  0  0  0  0  0  0
   -1.1640   -5.9020    5.5550 C   0  0  2  0  0  0  0  0  0  0  0  0
   -1.7540   -6.4260    4.2170 C   0  0  0  0  0  0  0  0  0  0  0  0
   -0.9960   -6.7190    3.2910 O   0  0  0  0  0  0  0  0  0  0  0  0
    0.2740   -5.2910    5.3630 C   0  0  0  0  0  0  0  0  0  0  0  0
    1.2020   -5.0320    6.5590 C   0  0  0  0  0  0  0  0  0  0  0  0
    0.7330   -4.4110    7.7180 C   0  0  0  0  0  0  0  0  0  0  0  0
    2.5110   -5.5310    6.5290 C   0  0  0  0  0  0  0  0  0  0  0  0
    1.5220   -4.3770    8.8630 C   0  0  0  0  0  0  0  0  0  0  0  0
    3.3020   -5.4900    7.6720 C   0  0  0  0  0  0  0  0  0  0  0  0
    2.7980   -4.9350    8.8470 C   0  0  0  0  0  0  0  0  0  0  0  0
    3.5360   -4.9750   10.0000 O   0  0  0  0  0  0  0  0  0  0  0  0
   -1.7641   -5.0012    5.7512 H   0  0  0  0  0  0  0  0  0  0  0  0
    0.1349   -4.3214    4.8625 H   0  0  0  0  0  0  0  0  0  0  0  0
    0.8150   -5.9753    4.6929 H   0  0  0  0  0  0  0  0  0  0  0  0
   -0.2497   -3.9536    7.7256 H   0  0  0  0  0  0  0  0  0  0  0  0
    2.9084   -5.9504    5.6118 H   0  0  0  0  0  0  0  0  0  0  0  0
    1.1436   -3.9160    9.7682 H   0  0  0  0  0  0  0  0  0  0  0  0
    4.3095   -5.8893    7.6492 H   0  0  0  0  0  0  0  0  0  0  0  0
    3.0499   -4.5561   10.7005 H   0  0  0  0  0  0  0  0  0  0  0  0
   -3.6985   -6.4950    4.8268 H   0  0  0  0  0  0  0  0  0  0  0  0
   -3.0890   -6.4880    4.0340 N   0  0  0  0  0  0  0  0  0  0  0  0
   -3.6620   -6.5460    2.6620 C   0  0  2  0  0  0  0  0  0  0  0  0
   -4.9020   -5.6300    2.4820 C   0  0  0  0  0  0  0  0  0  0  0  0
   -5.9630   -5.8110    3.0860 O   0  0  0  0  0  0  0  0  0  0  0  0
   -3.8790   -7.9400    1.9860 C   0  0  0  0  0  0  0  0  0  0  0  0
   -3.9340   -9.2810    2.7390 C   0  0  0  0  0  0  0  0  0  0  0  0
   -5.0700   -9.6430    3.4730 C   0  0  0  0  0  0  0  0  0  0  0  0
   -2.9890  -10.2580    2.4140 C   0  0  0  0  0  0  0  0  0  0  0  0
   -5.2900  -10.9810    3.8000 C   0  0  0  0  0  0  0  0  0  0  0  0
   -3.2020  -11.5880    2.7570 C   0  0  0  0  0  0  0  0  0  0  0  0
   -4.3690  -11.9570    3.4210 C   0  0  0  0  0  0  0  0  0  0  0  0
   -4.6410  -13.2850    3.6400 O   0  0  0  0  0  0  0  0  0  0  0  0
   -2.8800   -6.0806    2.0441 H   0  0  0  0  0  0  0  0  0  0  0  0
   -3.0613   -8.0446    1.2577 H   0  0  0  0  0  0  0  0  0  0  0  0
   -4.8377   -7.8625    1.4523 H   0  0  0  0  0  0  0  0  0  0  0  0
   -5.7778   -8.8843    3.7868 H   0  0  0  0  0  0  0  0  0  0  0  0
   -2.0827   -9.9763    1.8902 H   0  0  0  0  0  0  0  0  0  0  0  0
   -6.1801  -11.2631    4.3507 H   0  0  0  0  0  0  0  0  0  0  0  0
   -2.4599  -12.3378    2.5077 H   0  0  0  0  0  0  0  0  0  0  0  0
   -5.4677  -13.3659    4.1010 H   0  0  0  0  0  0  0  0  0  0  0  0
   -3.8485   -4.3455    1.3660 H   0  0  0  0  0  0  0  0  0  0  0  0
   -4.7500   -4.7660    1.4690 N   0  0  0  0  0  0  0  0  0  0  0  0
   -5.7920   -4.3710    0.4820 C   0  0  2  0  0  0  0  0  0  0  0  0
   -6.9020   -5.3830    0.0260 C   0  0  0  0  0  0  0  0  0  0  0  0
   -7.9020   -4.9160   -0.5290 O   0  0  0  0  0  0  0  0  0  0  0  0
   -5.1110   -3.7460   -0.7940 C   0  0  2  0  0  0  0  0  0  0  0  0
   -3.6830   -3.8280   -0.8270 O   0  0  0  0  0  0  0  0  0  0  0  0
   -5.5180   -2.2960   -1.0850 C   0  0  0  0  0  0  0  0  0  0  0  0
   -6.3447   -3.5592    0.9775 H   0  0  0  0  0  0  0  0  0  0  0  0
   -5.4752   -4.3486   -1.6391 H   0  0  0  0  0  0  0  0  0  0  0  0
   -3.4140   -4.7214   -0.6483 H   0  0  0  0  0  0  0  0  0  0  0  0
   -4.9977   -1.9433   -1.9877 H   0  0  0  0  0  0  0  0  0  0  0  0
   -5.2430   -1.6595   -0.2311 H   0  0  0  0  0  0  0  0  0  0  0  0
   -6.6051   -2.2453   -1.2450 H   0  0  0  0  0  0  0  0  0  0  0  0
   -5.8618   -7.0502    0.5181 H   0  0  0  0  0  0  0  0  0  0  0  0
   -6.7630   -6.7160    0.2420 N   0  0  0  0  0  0  0  0  0  0  0  0
   -7.8580   -7.7170    0.0970 C   0  0  2  0  0  0  0  0  0  0  0  0
   -9.2160   -7.2530    0.6580 C   0  0  0  0  0  0  0  0  0  0  0  0
   -9.3140   -6.5880    1.7000 O   0  0  0  0  0  0  0  0  0  0  0  0
   -7.5200   -9.0280    0.8610 C   0  0  0  0  0  0  0  0  0  0  0  0
   -8.9430  -10.1620    1.0690 S   0  0  0  0  0  0  0  0  0  0  0  0
   -7.9727   -7.9360   -0.9748 H   0  0  0  0  0  0  0  0  0  0  0  0
   -7.1444   -8.7588    1.8592 H   0  0  0  0  0  0  0  0  0  0  0  0
   -6.7339   -9.5591    0.3043 H   0  0  0  0  0  0  0  0  0  0  0  0
  -10.0845   -8.1150   -0.9409 H   0  0  0  0  0  0  0  0  0  0  0  0
  -10.2520   -7.7260   -0.0350 N   0  0  0  0  0  0  0  0  0  0  0  0
  -11.6330   -7.7000    0.4770 C   0  0  2  0  0  0  0  0  0  0  0  0
  -12.1340   -6.2280    0.7270 C   0  0  0  0  0  0  0  0  0  0  0  0
  -12.3630   -5.8650    1.8850 O   0  0  0  0  0  0  0  0  0  0  0  0
  -11.8560   -8.7700    1.5900 C   0  0  0  0  0  0  0  0  0  0  0  0
  -10.3410   -9.4410    2.3720 S   0  0  0  0  0  0  0  0  0  0  0  0
  -12.2577   -8.0529   -0.3568 H   0  0  0  0  0  0  0  0  0  0  0  0
  -12.4052   -9.6117    1.1429 H   0  0  0  0  0  0  0  0  0  0  0  0
  -12.4681   -8.3112    2.3805 H   0  0  0  0  0  0  0  0  0  0  0  0
  -12.0943   -3.3986    0.4309 H   0  0  0  0  0  0  0  0  0  0  0  0
  -12.3060   -5.3540   -0.3160 N   0  0  0  0  0  0  0  0  0  0  0  0
  -12.8220   -3.9700   -0.1640 C   0  0  2  0  0  0  0  0  0  0  0  0
  -14.1900   -3.8030    0.5360 C   0  0  0  0  0  0  0  0  0  0  0  0
  -14.8920   -4.7600    0.8740 O   0  0  0  0  0  0  0  0  0  0  0  0
  -12.8400   -3.4130   -1.6200 C   0  0  0  0  0  0  0  0  0  0  0  0
  -12.6810   -4.6210   -2.5240 C   0  0  0  0  0  0  0  0  0  0  0  0
  -11.8530   -5.5940   -1.6980 C   0  0  0  0  0  0  0  0  0  0  0  0
  -12.0088   -2.7087   -1.7715 H   0  0  0  0  0  0  0  0  0  0  0  0
  -13.7936   -2.9042   -1.8242 H   0  0  0  0  0  0  0  0  0  0  0  0
  -13.6608   -5.0547   -2.7725 H   0  0  0  0  0  0  0  0  0  0  0  0
  -12.1547   -4.3489   -3.4508 H   0  0  0  0  0  0  0  0  0  0  0  0
  -12.0512   -6.6327   -2.0008 H   0  0  0  0  0  0  0  0  0  0  0  0
  -10.7789   -5.3806   -1.8012 H   0  0  0  0  0  0  0  0  0  0  0  0
  -14.9816   -2.1568   -0.3051 H   0  0  0  0  0  0  0  0  0  0  0  0
  -14.6580   -2.5490    0.5560 N   0  0  0  0  0  0  0  0  0  0  0  0
  -14.7270   -1.7110    1.7620 C   0  0  2  0  0  0  0  0  0  0  0  0
  -16.1210   -1.6660    2.4640 C   0  0  0  0  0  0  0  0  0  0  0  0
  -16.1110   -1.5160    3.6830 O   0  0  0  0  0  0  0  0  0  0  0  0
  -14.2100   -0.2980    1.3830 C   0  0  0  0  0  0  0  0  0  0  0  0
  -14.0060    0.6550    2.5690 C   0  0  0  0  0  0  0  0  0  0  0  0
  -13.2080    0.3370    3.4800 O   0  5  0  0  0  0  0  0  0  0  0  0
  -14.5970    1.7550    2.5460 O   0  0  0  0  0  0  0  0  0  0  0  0
  -14.0271   -2.1387    2.4949 H   0  0  0  0  0  0  0  0  0  0  0  0
  -14.9386    0.1601    0.6980 H   0  0  0  0  0  0  0  0  0  0  0  0
  -13.2450   -0.4140    0.8679 H   0  0  0  0  0  0  0  0  0  0  0  0
  -18.0763   -1.9626    2.5975 H   0  0  0  0  0  0  0  0  0  0  0  0
  -17.3380   -1.8260    1.9370 N   0  0  0  0  0  0  0  0  0  0  0  0
  -17.7500   -1.8300    0.5160 C   0  0  2  0  0  0  0  0  0  0  0  0
  -18.7570   -0.6300    0.2790 C   0  0  0  0  0  0  0  0  0  0  0  0
  -19.2510   -0.0590    1.2680 O   0  0  0  0  0  0  0  0  0  0  0  0
  -18.3010   -3.2640    0.1670 C   0  0  1  0  0  0  0  0  0  0  0  0
  -17.4810   -3.7370   -0.8970 O   0  0  0  0  0  0  0  0  0  0  0  0
  -18.3780   -4.4290    1.2150 C   0  0  0  0  0  0  0  0  0  0  0  0
  -16.8666   -1.6506   -0.1143 H   0  0  0  0  0  0  0  0  0  0  0  0
  -19.3283   -3.1163   -0.1974 H   0  0  0  0  0  0  0  0  0  0  0  0
  -16.6189   -3.9506   -0.5600 H   0  0  0  0  0  0  0  0  0  0  0  0
  -18.7956   -5.3266    0.7354 H   0  0  0  0  0  0  0  0  0  0  0  0
  -19.0239   -4.1267    2.0525 H   0  0  0  0  0  0  0  0  0  0  0  0
  -17.3686   -4.6506    1.5918 H   0  0  0  0  0  0  0  0  0  0  0  0
  -19.8796    1.6718   -0.3101 H   0  0  0  0  0  0  0  0  0  0  0  0
  -19.1300   -0.1770   -0.9670 N   0  0  0  0  0  0  0  0  0  0  0  0
  -20.0190    0.9950   -1.1660 C   0  0  2  0  0  0  0  0  0  0  0  0
  -21.5400    0.6590   -1.1950 C   0  0  0  0  0  0  0  0  0  0  0  0
  -22.2110    0.8730   -0.1780 O   0  0  0  0  0  0  0  0  0  0  0  0
  -19.4650    1.7080   -2.4190 C   0  0  0  0  0  0  0  0  0  0  0  0
  -18.4750    0.7350   -3.0640 C   0  0  0  0  0  0  0  0  0  0  0  0
  -18.5460   -0.5780   -2.2700 C   0  0  0  0  0  0  0  0  0  0  0  0
  -18.9529    2.6385   -2.1327 H   0  0  0  0  0  0  0  0  0  0  0  0
  -20.2821    1.9393   -3.1182 H   0  0  0  0  0  0  0  0  0  0  0  0
  -18.7518    0.5563   -4.1135 H   0  0  0  0  0  0  0  0  0  0  0  0
  -17.4566    1.1483   -3.0186 H   0  0  0  0  0  0  0  0  0  0  0  0
  -19.1912   -1.3088   -2.7795 H   0  0  0  0  0  0  0  0  0  0  0  0
  -17.5425   -1.0072   -2.1334 H   0  0  0  0  0  0  0  0  0  0  0  0
  -21.6772    0.2605   -3.1894 H   0  0  0  0  0  0  0  0  0  0  0  0
  -22.0480    0.0330   -2.2890 N   0  0  0  0  0  0  0  0  0  0  0  0
  -23.1330   -0.9760   -2.1970 C   0  0  2  0  0  0  0  0  0  0  0  0
  -24.5670   -0.3580   -2.2430 C   0  0  0  0  0  0  0  0  0  0  0  0
  -25.3510   -0.7220   -3.1490 O   0  0  0  0  0  0  0  0  0  0  0  0
  -22.8020   -2.0740   -1.1140 C   0  0  0  0  0  0  0  0  0  0  0  0
  -23.9660   -2.7780   -0.4380 C   0  0  0  0  0  0  0  0  0  0  0  0
  -24.6350   -3.7890   -1.1220 C   0  0  0  0  0  0  0  0  0  0  0  0
  -24.4610   -2.3180    0.7910 C   0  0  0  0  0  0  0  0  0  0  0  0
  -25.8140   -4.3150   -0.6090 C   0  0  0  0  0  0  0  0  0  0  0  0
  -25.6480   -2.8400    1.2960 C   0  0  0  0  0  0  0  0  0  0  0  0
  -26.3270   -3.8290    0.5930 C   0  0  0  0  0  0  0  0  0  0  0  0
  -27.5270   -4.2930    1.0520 O   0  0  0  0  0  0  0  0  0  0  0  0
  -23.0740   -1.5296   -3.1457 H   0  0  0  0  0  0  0  0  0  0  0  0
  -22.2100   -1.5878   -0.3246 H   0  0  0  0  0  0  0  0  0  0  0  0
  -22.1929   -2.8465   -1.6060 H   0  0  0  0  0  0  0  0  0  0  0  0
  -24.2354   -4.1664   -2.0563 H   0  0  0  0  0  0  0  0  0  0  0  0
  -23.9211   -1.5589    1.3453 H   0  0  0  0  0  0  0  0  0  0  0  0
  -26.3344   -5.1022   -1.1424 H   0  0  0  0  0  0  0  0  0  0  0  0
  -26.0432   -2.4756    2.2373 H   0  0  0  0  0  0  0  0  0  0  0  0
  -27.8544   -4.9604    0.4605 H   0  0  0  0  0  0  0  0  0  0  0  0
  -24.2345    0.6959   -0.7299 H   0  0  0  0  0  0  0  0  0  0  0  0
  -24.9480    0.5379   -1.3369 O   0  0  0  0  0  0  0  0  0  0  0  0
  1 13  1  0  0  0  0
  1 14  1  0  0  0  0
  1 15  1  0  0  0  0
  2  1  1  0  0  0  0
  2  5  1  0  0  0  0
  2 16  1  1  0  0  0
  3  2  1  0  0  0  0
  3  4  2  0  0  0  0
  5  6  1  0  0  0  0
  5 17  1  0  0  0  0
  5 18  1  0  0  0  0
  6  7  2  0  0  0  0
  6  8  1  0  0  0  0
  7  9  1  0  0  0  0
  7 19  1  0  0  0  0
  8 10  2  0  0  0  0
  8 20  1  0  0  0  0
  9 11  2  0  0  0  0
  9 21  1  0  0  0  0
 10 11  1  0  0  0  0
 10 22  1  0  0  0  0
 11 12  1  0  0  0  0
 12 23  1  0  0  0  0
 24 35  1  0  0  0  0
 24  3  1  0  0  0  0
 25 24  1  0  0  0  0
 25 28  1  0  0  0  0
 25 36  1  6  0  0  0
 26 25  1  0  0  0  0
 26 27  2  0  0  0  0
 28 29  1  0  0  0  0
 28 37  1  0  0  0  0
 28 38  1  0  0  0  0
 29 30  1  0  0  0  0
 29 39  1  0  0  0  0
 29 40  1  0  0  0  0
 30 31  1  0  0  0  0
 30 41  1  0  0  0  0
 30 42  1  0  0  0  0
 31 32  1  0  0  0  0
 31 43  1  0  0  0  0
 32 34  1  0  0  0  0
 32 33  1  0  0  0  0
 33 44  1  0  0  0  0
 33 45  1  0  0  0  0
 34 46  1  0  0  0  0
 34 47  1  0  0  0  0
 48 52  1  0  0  0  0
 48 26  1  0  0  0  0
 49 48  1  0  0  0  0
 49 53  1  0  0  0  0
 49 54  1  0  0  0  0
 50 49  1  0  0  0  0
 50 51  2  0  0  0  0
 55 69  1  0  0  0  0
 55 50  1  0  0  0  0
 56 55  1  0  0  0  0
 56 59  1  0  0  0  0
 56 70  1  6  0  0  0
 57 56  1  0  0  0  0
 57 58  2  0  0  0  0
 59 60  1  0  0  0  0
 59 71  1  0  0  0  0
 59 72  1  0  0  0  0
 60 61  2  0  0  0  0
 60 62  1  0  0  0  0
 61 63  1  0  0  0  0
 61 73  1  0  0  0  0
 62 65  2  0  0  0  0
 62 64  1  0  0  0  0
 63 74  1  0  0  0  0
 64 66  2  0  0  0  0
 64 63  1  0  0  0  0
 65 67  1  0  0  0  0
 65 75  1  0  0  0  0
 66 68  1  0  0  0  0
 66 76  1  0  0  0  0
 67 68  2  0  0  0  0
 67 77  1  0  0  0  0
 68 78  1  0  0  0  0
 79 88  1  0  0  0  0
 79 57  1  0  0  0  0
 80 79  1  0  0  0  0
 80 83  1  0  0  0  0
 80 89  1  6  0  0  0
 81 80  1  0  0  0  0
 81 82  2  0  0  0  0
 83 84  1  0  0  0  0
 83 90  1  0  0  0  0
 83 91  1  0  0  0  0
 84 85  1  0  0  0  0
 84 92  1  0  0  0  0
 84 93  1  0  0  0  0
 85 86  1  0  0  0  0
 85 94  1  0  0  0  0
 85 95  1  0  0  0  0
 86 87  1  0  0  0  0
 86 96  1  0  0  0  0
 86 97  1  0  0  0  0
 87 98  1  0  0  0  0
 87 99  1  0  0  0  0
 87100  1  0  0  0  0
101111  1  0  0  0  0
101 81  1  0  0  0  0
102101  1  0  0  0  0
102105  1  0  0  0  0
102112  1  6  0  0  0
103102  1  0  0  0  0
103104  2  0  0  0  0
105106  1  0  0  0  0
105113  1  0  0  0  0
105114  1  0  0  0  0
106107  1  0  0  0  0
106108  2  0  0  0  0
107109  2  0  0  0  0
108110  1  0  0  0  0
108115  1  0  0  0  0
109116  1  0  0  0  0
110109  1  0  0  0  0
110117  1  0  0  0  0
119118  1  0  0  0  0
119103  1  0  0  0  0
120119  1  0  0  0  0
120123  1  0  0  0  0
120133  1  6  0  0  0
121120  1  0  0  0  0
121122  2  0  0  0  0
123124  1  0  0  0  0
123134  1  0  0  0  0
123135  1  0  0  0  0
124125  2  0  0  0  0
124126  1  0  0  0  0
125127  1  0  0  0  0
125136  1  0  0  0  0
126129  2  0  0  0  0
126128  1  0  0  0  0
127137  1  0  0  0  0
128130  2  0  0  0  0
128127  1  0  0  0  0
129131  1  0  0  0  0
129138  1  0  0  0  0
130132  1  0  0  0  0
130139  1  0  0  0  0
131132  2  0  0  0  0
131140  1  0  0  0  0
132141  1  0  0  0  0
143142  1  0  0  0  0
143121  1  0  0  0  0
144143  1  0  0  0  0
144147  1  0  0  0  0
144150  1  6  0  0  0
145144  1  0  0  0  0
145146  2  0  0  0  0
147149  1  0  0  0  0
147148  1  0  0  0  0
147151  1  0  0  0  0
148152  1  0  0  0  0
148153  1  0  0  0  0
148154  1  0  0  0  0
149155  1  0  0  0  0
149156  1  0  0  0  0
149157  1  0  0  0  0
159158  1  0  0  0  0
159145  1  0  0  0  0
160159  1  0  0  0  0
160163  1  0  0  0  0
160171  1  1  0  0  0
161160  1  0  0  0  0
161162  2  0  0  0  0
163164  1  0  0  0  0
163172  1  0  0  0  0
163173  1  0  0  0  0
164165  2  0  0  0  0
164166  1  0  0  0  0
165167  1  0  0  0  0
165174  1  0  0  0  0
166168  2  0  0  0  0
166175  1  0  0  0  0
167169  2  0  0  0  0
167176  1  0  0  0  0
168169  1  0  0  0  0
168177  1  0  0  0  0
169170  1  0  0  0  0
170178  1  0  0  0  0
180179  1  0  0  0  0
180161  1  0  0  0  0
181180  1  0  0  0  0
181184  1  0  0  0  0
181192  1  6  0  0  0
182181  1  0  0  0  0
182183  2  0  0  0  0
184185  1  0  0  0  0
184193  1  0  0  0  0
184194  1  0  0  0  0
185186  2  0  0  0  0
185187  1  0  0  0  0
186188  1  0  0  0  0
186195  1  0  0  0  0
187189  2  0  0  0  0
187196  1  0  0  0  0
188190  2  0  0  0  0
188197  1  0  0  0  0
189190  1  0  0  0  0
189198  1  0  0  0  0
190191  1  0  0  0  0
191199  1  0  0  0  0
201200  1  0  0  0  0
201182  1  0  0  0  0
202201  1  0  0  0  0
202205  1  0  0  0  0
202208  1  1  0  0  0
203202  1  0  0  0  0
203204  2  0  0  0  0
205207  1  0  0  0  0
205206  1  0  0  0  0
205209  1  6  0  0  0
206210  1  0  0  0  0
207211  1  0  0  0  0
207212  1  0  0  0  0
207213  1  0  0  0  0
215214  1  0  0  0  0
215203  1  0  0  0  0
216215  1  0  0  0  0
216219  1  0  0  0  0
216221  1  6  0  0  0
217216  1  0  0  0  0
217218  2  0  0  0  0
219220  1  0  0  0  0
219222  1  0  0  0  0
219223  1  0  0  0  0
220230  1  0  0  0  0
225224  1  0  0  0  0
225217  1  0  0  0  0
226225  1  0  0  0  0
226229  1  0  0  0  0
226231  1  6  0  0  0
227226  1  0  0  0  0
227228  2  0  0  0  0
229230  1  0  0  0  0
229232  1  0  0  0  0
229233  1  0  0  0  0
235241  1  0  0  0  0
235227  1  0  0  0  0
236234  1  1  0  0  0
236239  1  0  0  0  0
236235  1  0  0  0  0
237236  1  0  0  0  0
237238  2  0  0  0  0
239240  1  0  0  0  0
239242  1  0  0  0  0
239243  1  0  0  0  0
240244  1  0  0  0  0
240245  1  0  0  0  0
241240  1  0  0  0  0
241246  1  0  0  0  0
241247  1  0  0  0  0
249248  1  0  0  0  0
249237  1  0  0  0  0
250249  1  0  0  0  0
250253  1  0  0  0  0
250257  1  1  0  0  0
251250  1  0  0  0  0
251252  2  0  0  0  0
253254  1  0  0  0  0
253258  1  0  0  0  0
253259  1  0  0  0  0
254255  1  0  0  0  0
254256  2  0  0  0  0
261260  1  0  0  0  0
261251  1  0  0  0  0
262261  1  0  0  0  0
262265  1  0  0  0  0
262268  1  6  0  0  0
263262  1  0  0  0  0
263264  2  0  0  0  0
265267  1  0  0  0  0
265266  1  0  0  0  0
265269  1  6  0  0  0
266270  1  0  0  0  0
267271  1  0  0  0  0
267272  1  0  0  0  0
267273  1  0  0  0  0
275281  1  0  0  0  0
275263  1  0  0  0  0
276274  1  1  0  0  0
276279  1  0  0  0  0
276275  1  0  0  0  0
277276  1  0  0  0  0
277278  2  0  0  0  0
277289  1  0  0  0  0
279280  1  0  0  0  0
279282  1  0  0  0  0
279283  1  0  0  0  0
280284  1  0  0  0  0
280285  1  0  0  0  0
281280  1  0  0  0  0
281286  1  0  0  0  0
281287  1  0  0  0  0
289288  1  0  0  0  0
289290  1  0  0  0  0
290293  1  0  0  0  0
290291  1  0  0  0  0
290301  1  6  0  0  0
291292  2  0  0  0  0
291310  1  0  0  0  0
293294  1  0  0  0  0
293302  1  0  0  0  0
293303  1  0  0  0  0
294295  2  0  0  0  0
294296  1  0  0  0  0
295297  1  0  0  0  0
295304  1  0  0  0  0
296298  2  0  0  0  0
296305  1  0  0  0  0
297299  2  0  0  0  0
297306  1  0  0  0  0
298299  1  0  0  0  0
298307  1  0  0  0  0
299300  1  0  0  0  0
300308  1  0  0  0  0
310309  1  0  0  0  0
M  CHG  3   1   1  87   1 255  -1
M  END
