1ihy_ligand
 OpenBabel08222323343D

 57 60  0  0  1  0  0  0  0  0999 V2000
   52.1960   15.3350   46.6300 N   0  0  0  0  0  0  0  0  0  0  0  0
   51.3360   15.9790   45.7620 C   0  0  0  0  0  0  0  0  0  0  0  0
   50.4660   15.4320   44.9390 N   0  0  0  0  0  0  0  0  0  0  0  0
   50.4690   14.0630   45.0130 C   0  0  0  0  0  0  0  0  0  0  0  0
   51.2630   13.2610   45.8330 C   0  0  0  0  0  0  0  0  0  0  0  0
   52.1780   13.9520   46.6890 C   0  0  0  0  0  0  0  0  0  0  0  0
   53.0040   13.3320   47.5240 N   0  0  0  0  0  0  0  0  0  0  0  0
   50.9810   11.9180   45.6340 N   0  0  0  0  0  0  0  0  0  0  0  0
   50.0230   11.9210   44.6930 C   0  0  0  0  0  0  0  0  0  0  0  0
   49.6800   13.1850   44.2870 N   0  0  0  0  0  0  0  0  0  0  0  0
   48.6960   13.6340   43.2760 C   0  0  1  0  0  0  0  0  0  0  0  0
   48.7470   12.8060   42.0060 C   0  0  2  0  0  0  0  0  0  0  0  0
   49.7280   13.3210   41.0920 O   0  0  0  0  0  0  0  0  0  0  0  0
   47.3280   12.8520   41.4500 C   0  0  2  0  0  0  0  0  0  0  0  0
   47.0710   13.7920   40.3880 O   0  0  0  0  0  0  0  0  0  0  0  0
   47.3810   13.5480   43.7470 O   0  0  0  0  0  0  0  0  0  0  0  0
   46.4780   13.1110   42.6900 C   0  0  2  0  0  0  0  0  0  0  0  0
   45.6690   11.9220   43.1950 C   0  0  0  0  0  0  0  0  0  0  0  0
   44.2450   12.1730   42.9670 O   0  0  0  0  0  0  0  0  0  0  0  0
   43.2760   11.0420   42.3000 P   0  0  2  0  0  0  0  0  0  0  0  0
   43.8770    9.6920   42.4680 O   0  0  0  0  0  1  0  0  0  0  0  0
   43.0720   11.3190   40.8590 O   0  0  0  0  0  0  0  0  0  0  0  0
   41.9440   11.2310   43.1240 O   0  0  0  0  0  0  0  0  0  0  0  0
   41.3540   12.4480   44.1200 P   0  0  1  0  0  0  0  0  0  0  0  0
   41.8420   12.2620   45.5160 O   0  0  0  0  0  1  0  0  0  0  0  0
   41.7460   13.7870   43.5970 O   0  0  0  0  0  0  0  0  0  0  0  0
   39.8310   12.2230   44.0040 O   0  0  0  0  0  0  0  0  0  0  0  0
   39.3580   10.9990   44.4750 C   0  0  0  0  0  0  0  0  0  0  0  0
   37.6230   11.0880   42.8680 O   0  0  0  0  0  0  0  0  0  0  0  0
   37.3610    9.6090   41.0550 O   0  0  0  0  0  0  0  0  0  0  0  0
   36.9010    9.9800   42.4090 C   0  0  1  0  0  0  0  0  0  0  0  0
   36.1880    7.8720   43.5050 O   0  0  0  0  0  0  0  0  0  0  0  0
   37.1920    8.8990   43.4350 C   0  0  2  0  0  0  0  0  0  0  0  0
   36.0450    9.7770   45.4870 O   0  0  0  0  0  0  0  0  0  0  0  0
   37.3040    9.6620   44.7670 C   0  0  2  0  0  0  0  0  0  0  0  0
   37.9010   10.9530   44.2880 C   0  0  1  0  0  0  0  0  0  0  0  0
   51.3829   17.0620   45.7579 H   0  0  0  0  0  0  0  0  0  0  0  0
   53.0033   12.3035   47.5802 H   0  0  0  0  0  0  0  0  0  0  0  0
   53.6453   13.8796   48.1154 H   0  0  0  0  0  0  0  0  0  0  0  0
   49.5670   11.0158   44.2947 H   0  0  0  0  0  0  0  0  0  0  0  0
   48.9213   14.6819   43.0289 H   0  0  0  0  0  0  0  0  0  0  0  0
   49.0127   11.7662   42.2474 H   0  0  0  0  0  0  0  0  0  0  0  0
   49.5069   14.2161   40.8631 H   0  0  0  0  0  0  0  0  0  0  0  0
   47.0840   11.8573   41.0487 H   0  0  0  0  0  0  0  0  0  0  0  0
   47.2542   14.6723   40.6946 H   0  0  0  0  0  0  0  0  0  0  0  0
   45.7714   13.9207   42.4551 H   0  0  0  0  0  0  0  0  0  0  0  0
   45.8501   11.7850   44.2713 H   0  0  0  0  0  0  0  0  0  0  0  0
   45.9732   11.0141   42.6535 H   0  0  0  0  0  0  0  0  0  0  0  0
   39.5973   10.8962   45.5437 H   0  0  0  0  0  0  0  0  0  0  0  0
   39.8293   10.1791   43.9131 H   0  0  0  0  0  0  0  0  0  0  0  0
   38.2854    9.3921   41.0842 H   0  0  0  0  0  0  0  0  0  0  0  0
   35.8234   10.1988   42.3786 H   0  0  0  0  0  0  0  0  0  0  0  0
   35.3534    8.2619   43.7373 H   0  0  0  0  0  0  0  0  0  0  0  0
   38.1525    8.4191   43.1962 H   0  0  0  0  0  0  0  0  0  0  0  0
   35.7149    8.9088   45.6861 H   0  0  0  0  0  0  0  0  0  0  0  0
   38.0131    9.1519   45.4356 H   0  0  0  0  0  0  0  0  0  0  0  0
   37.4416   11.7864   44.8396 H   0  0  0  0  0  0  0  0  0  0  0  0
  2  1  2  0  0  0  0
  2 37  1  0  0  0  0
  3  2  1  0  0  0  0
  4  3  2  0  0  0  0
  4  5  1  0  0  0  0
  5  6  2  0  0  0  0
  6  1  1  0  0  0  0
  6  7  1  0  0  0  0
  7 38  1  0  0  0  0
  7 39  1  0  0  0  0
  8  5  1  0  0  0  0
  9  8  2  0  0  0  0
  9 40  1  0  0  0  0
 10  4  1  0  0  0  0
 10  9  1  0  0  0  0
 11 10  1  0  0  0  0
 11 12  1  0  0  0  0
 11 41  1  6  0  0  0
 12 13  1  0  0  0  0
 12 42  1  1  0  0  0
 13 43  1  0  0  0  0
 14 12  1  0  0  0  0
 14 15  1  0  0  0  0
 14 44  1  6  0  0  0
 15 45  1  0  0  0  0
 16 11  1  0  0  0  0
 17 14  1  0  0  0  0
 17 16  1  0  0  0  0
 17 46  1  6  0  0  0
 18 17  1  0  0  0  0
 18 47  1  0  0  0  0
 18 48  1  0  0  0  0
 19 18  1  0  0  0  0
 20 19  1  0  0  0  0
 20 21  1  1  0  0  0
 20 22  2  0  0  0  0
 23 20  1  0  0  0  0
 24 23  1  0  0  0  0
 24 25  1  1  0  0  0
 24 26  2  0  0  0  0
 27 24  1  0  0  0  0
 28 27  1  0  0  0  0
 28 49  1  0  0  0  0
 28 50  1  0  0  0  0
 29 31  1  0  0  0  0
 29 36  1  0  0  0  0
 30 51  1  0  0  0  0
 31 30  1  0  0  0  0
 31 33  1  0  0  0  0
 31 52  1  6  0  0  0
 32 53  1  0  0  0  0
 33 32  1  0  0  0  0
 33 35  1  0  0  0  0
 33 54  1  6  0  0  0
 34 55  1  0  0  0  0
 35 34  1  0  0  0  0
 35 36  1  0  0  0  0
 35 56  1  1  0  0  0
 36 28  1  0  0  0  0
 36 57  1  1  0  0  0
M  END
