1iig_ligand
 OpenBabel08222323343D

 13 12  0  0  0  0  0  0  0  0999 V2000
   47.5290   16.2470  -10.7480 C   0  0  0  0  0  0  0  0  0  0  0  0
   46.3880   15.3810  -10.3120 C   0  0  0  0  0  0  0  0  0  0  0  0
   47.3900   16.7460  -12.4690 P   0  0  0  0  0  0  0  0  0  0  0  0
   46.2700   15.3260   -8.8110 C   0  0  0  0  0  0  0  0  0  0  0  0
   45.2810   14.8000   -8.2230 O   0  5  0  0  0  0  0  0  0  0  0  0
   47.2720   15.8150   -8.2090 O   0  0  0  0  0  0  0  0  0  0  0  0
   48.7630   16.8080  -13.1140 O   0  0  0  0  0  1  0  0  0  0  0  0
   46.5480   15.6520  -13.0970 O   0  0  0  0  0  1  0  0  0  0  0  0
   46.7970   18.1250  -12.5410 O   0  0  0  0  0  0  0  0  0  0  0  0
   48.4673   15.6880  -10.6168 H   0  0  0  0  0  0  0  0  0  0  0  0
   47.5485   17.1491  -10.1189 H   0  0  0  0  0  0  0  0  0  0  0  0
   46.5479   14.3620  -10.6942 H   0  0  0  0  0  0  0  0  0  0  0  0
   45.4539   15.7864  -10.7281 H   0  0  0  0  0  0  0  0  0  0  0  0
  1  2  1  0  0  0  0
  1  3  1  0  0  0  0
  1 10  1  0  0  0  0
  1 11  1  0  0  0  0
  2  4  1  0  0  0  0
  2 12  1  0  0  0  0
  2 13  1  0  0  0  0
  3  7  1  0  0  0  0
  3  8  1  0  0  0  0
  3  9  2  0  0  0  0
  4  5  1  0  0  0  0
  4  6  2  0  0  0  0
M  CHG  1   5  -1
M  END
