1ijr_ligand
 OpenBabel08222323343D

 78 80  0  0  1  0  0  0  0  0999 V2000
   69.0730   26.5080   34.2270 P   0  0  0  0  0  0  0  0  0  0  0  0
   68.7380   27.4620   35.3400 O   0  0  0  0  0  1  0  0  0  0  0  0
   69.8460   27.2460   33.1800 O   0  0  0  0  0  1  0  0  0  0  0  0
   69.8900   25.3630   34.7600 O   0  0  0  0  0  0  0  0  0  0  0  0
   59.6350   27.6920   33.5900 C   0  0  1  0  0  0  0  0  0  0  0  0
   60.9750   27.6510   33.0400 N   0  0  0  0  0  0  0  0  0  0  0  0
   63.3860   27.4740   33.2620 C   0  0  1  0  0  0  0  0  0  0  0  0
   62.0580   27.9400   33.7790 C   0  0  0  0  0  0  0  0  0  0  0  0
   62.0300   28.5790   34.8280 O   0  0  0  0  0  0  0  0  0  0  0  0
   64.3720   28.5450   33.3860 N   0  0  0  0  0  0  0  0  0  0  0  0
   63.7640   26.2010   34.0420 C   0  0  0  0  0  0  0  0  0  0  0  0
   65.1140   25.7390   33.4800 C   0  0  0  0  0  0  0  0  0  0  0  0
   66.3100   26.2430   34.0160 C   0  0  0  0  0  0  0  0  0  0  0  0
   65.1570   24.8140   32.4250 C   0  0  0  0  0  0  0  0  0  0  0  0
   67.5610   25.8410   33.5080 C   0  0  0  0  0  0  0  0  0  0  0  0
   66.3980   24.4060   31.9130 C   0  0  0  0  0  0  0  0  0  0  0  0
   67.6000   24.9100   32.4390 C   0  0  0  0  0  0  0  0  0  0  0  0
   68.8590   24.5050   31.9220 O   0  0  0  0  0  0  0  0  0  0  0  0
   58.5880   27.7530   32.4190 C   0  0  0  0  0  0  0  0  0  0  0  0
   64.7360   29.2730   32.3040 C   0  0  0  0  0  0  0  0  0  0  0  0
   65.7590   30.3510   32.4900 C   0  0  0  0  0  0  0  0  0  0  0  0
   64.2780   29.0970   31.1900 O   0  0  0  0  0  0  0  0  0  0  0  0
   57.8780   23.7910   37.4620 O   0  0  0  0  0  0  0  0  0  0  0  0
   59.3150   26.4940   34.5070 C   0  0  0  0  0  0  0  0  0  0  0  0
   59.9890   25.2960   34.7590 C   0  0  0  0  0  0  0  0  0  0  0  0
   59.5490   24.4050   35.7560 C   0  0  0  0  0  0  0  0  0  0  0  0
   58.3900   24.7090   36.5180 C   0  0  0  0  0  0  0  0  0  0  0  0
   57.7910   25.9790   36.3170 C   0  0  0  0  0  0  0  0  0  0  0  0
   58.1620   26.7780   35.2500 C   0  0  0  0  0  0  0  0  0  0  0  0
   56.5890   24.0310   38.0720 C   0  0  0  0  0  0  0  0  0  0  0  0
   55.5950   22.9110   37.7080 C   0  0  0  0  0  0  0  0  0  0  0  0
   54.1410   23.4810   37.8030 C   0  0  0  0  0  0  0  0  0  0  0  0
   53.1280   22.3830   37.4490 C   0  0  0  0  0  0  0  0  0  0  0  0
   53.4250   21.8200   36.0260 C   0  0  0  0  0  0  0  0  0  0  0  0
   54.8760   21.2970   35.8900 C   0  0  0  0  0  0  0  0  0  0  0  0
   55.8650   22.4220   36.2520 C   0  0  0  0  0  0  0  0  0  0  0  0
   60.3970   23.1620   36.0040 C   0  0  0  0  0  0  0  0  0  0  0  0
   59.9180   22.0260   36.5690 N   0  0  0  0  0  0  0  0  0  0  0  0
   61.5730   23.1920   35.6510 O   0  0  0  0  0  0  0  0  0  0  0  0
   68.7890   23.3300   31.0960 C   0  0  0  0  0  0  0  0  0  0  0  0
   68.8420   23.7080   29.6400 C   0  0  0  0  0  0  0  0  0  0  0  0
   69.4850   22.8610   28.8250 O   0  5  0  0  0  0  0  0  0  0  0  0
   68.3060   24.7440   29.2510 O   0  0  0  0  0  0  0  0  0  0  0  0
   59.5445   28.6095   34.1900 H   0  0  0  0  0  0  0  0  0  0  0  0
   61.0969   27.3995   32.0798 H   0  0  0  0  0  0  0  0  0  0  0  0
   63.2918   27.2176   32.1965 H   0  0  0  0  0  0  0  0  0  0  0  0
   64.7812   28.7419   34.2769 H   0  0  0  0  0  0  0  0  0  0  0  0
   63.8542   26.4243   35.1153 H   0  0  0  0  0  0  0  0  0  0  0  0
   63.0020   25.4219   33.8923 H   0  0  0  0  0  0  0  0  0  0  0  0
   66.2700   26.9531   34.8341 H   0  0  0  0  0  0  0  0  0  0  0  0
   64.2379   24.4177   32.0088 H   0  0  0  0  0  0  0  0  0  0  0  0
   66.4302   23.6909   31.0990 H   0  0  0  0  0  0  0  0  0  0  0  0
   57.5712   27.7841   32.8376 H   0  0  0  0  0  0  0  0  0  0  0  0
   58.6959   26.8614   31.7838 H   0  0  0  0  0  0  0  0  0  0  0  0
   58.7641   28.6562   31.8163 H   0  0  0  0  0  0  0  0  0  0  0  0
   65.9469   30.8482   31.5269 H   0  0  0  0  0  0  0  0  0  0  0  0
   66.6945   29.9084   32.8628 H   0  0  0  0  0  0  0  0  0  0  0  0
   65.3869   31.0882   33.2167 H   0  0  0  0  0  0  0  0  0  0  0  0
   60.8680   25.0480   34.1752 H   0  0  0  0  0  0  0  0  0  0  0  0
   57.0326   26.3282   37.0084 H   0  0  0  0  0  0  0  0  0  0  0  0
   57.5526   27.6347   34.9857 H   0  0  0  0  0  0  0  0  0  0  0  0
   56.1944   24.9936   37.7147 H   0  0  0  0  0  0  0  0  0  0  0  0
   56.7081   24.0664   39.1650 H   0  0  0  0  0  0  0  0  0  0  0  0
   55.7114   22.0697   38.4070 H   0  0  0  0  0  0  0  0  0  0  0  0
   54.0309   24.3198   37.1000 H   0  0  0  0  0  0  0  0  0  0  0  0
   53.9534   23.8343   38.8277 H   0  0  0  0  0  0  0  0  0  0  0  0
   52.1123   22.8047   37.4688 H   0  0  0  0  0  0  0  0  0  0  0  0
   53.2015   21.5689   38.1851 H   0  0  0  0  0  0  0  0  0  0  0  0
   53.2677   22.6213   35.2890 H   0  0  0  0  0  0  0  0  0  0  0  0
   52.7303   20.9920   35.8214 H   0  0  0  0  0  0  0  0  0  0  0  0
   55.0531   20.9729   34.8539 H   0  0  0  0  0  0  0  0  0  0  0  0
   55.0241   20.4459   36.5709 H   0  0  0  0  0  0  0  0  0  0  0  0
   56.8944   22.0412   36.1791 H   0  0  0  0  0  0  0  0  0  0  0  0
   55.7345   23.2621   35.5540 H   0  0  0  0  0  0  0  0  0  0  0  0
   60.5235   21.2421   36.7063 H   0  0  0  0  0  0  0  0  0  0  0  0
   58.9593   21.9722   36.8483 H   0  0  0  0  0  0  0  0  0  0  0  0
   67.8466   22.8001   31.2987 H   0  0  0  0  0  0  0  0  0  0  0  0
   69.6380   22.6711   31.3304 H   0  0  0  0  0  0  0  0  0  0  0  0
  1 15  1  0  0  0  0
  1  4  2  0  0  0  0
  1  3  1  0  0  0  0
  1  2  1  0  0  0  0
  5 19  1  0  0  0  0
  5 24  1  0  0  0  0
  5 44  1  1  0  0  0
  6  5  1  0  0  0  0
  6 45  1  0  0  0  0
  7  8  1  0  0  0  0
  7 10  1  0  0  0  0
  7 46  1  6  0  0  0
  8  9  2  0  0  0  0
  8  6  1  0  0  0  0
 10 20  1  0  0  0  0
 10 47  1  0  0  0  0
 11  7  1  0  0  0  0
 11 48  1  0  0  0  0
 11 49  1  0  0  0  0
 12 14  1  0  0  0  0
 12 11  1  0  0  0  0
 13 12  2  0  0  0  0
 13 50  1  0  0  0  0
 14 16  2  0  0  0  0
 14 51  1  0  0  0  0
 15 17  2  0  0  0  0
 15 13  1  0  0  0  0
 16 17  1  0  0  0  0
 16 52  1  0  0  0  0
 17 18  1  0  0  0  0
 18 40  1  0  0  0  0
 19 53  1  0  0  0  0
 19 54  1  0  0  0  0
 19 55  1  0  0  0  0
 20 22  2  0  0  0  0
 20 21  1  0  0  0  0
 21 56  1  0  0  0  0
 21 57  1  0  0  0  0
 21 58  1  0  0  0  0
 23 30  1  0  0  0  0
 24 29  2  0  0  0  0
 24 25  1  0  0  0  0
 25 26  2  0  0  0  0
 25 59  1  0  0  0  0
 26 37  1  0  0  0  0
 26 27  1  0  0  0  0
 27 28  2  0  0  0  0
 27 23  1  0  0  0  0
 28 29  1  0  0  0  0
 28 60  1  0  0  0  0
 29 61  1  0  0  0  0
 30 31  1  0  0  0  0
 30 62  1  0  0  0  0
 30 63  1  0  0  0  0
 31 36  1  0  0  0  0
 31 32  1  0  0  0  0
 31 64  1  0  0  0  0
 32 33  1  0  0  0  0
 32 65  1  0  0  0  0
 32 66  1  0  0  0  0
 33 34  1  0  0  0  0
 33 67  1  0  0  0  0
 33 68  1  0  0  0  0
 34 35  1  0  0  0  0
 34 69  1  0  0  0  0
 34 70  1  0  0  0  0
 35 36  1  0  0  0  0
 35 71  1  0  0  0  0
 35 72  1  0  0  0  0
 36 73  1  0  0  0  0
 36 74  1  0  0  0  0
 37 39  2  0  0  0  0
 37 38  1  0  0  0  0
 38 75  1  0  0  0  0
 38 76  1  0  0  0  0
 40 41  1  0  0  0  0
 40 77  1  0  0  0  0
 40 78  1  0  0  0  0
 41 43  2  0  0  0  0
 41 42  1  0  0  0  0
M  CHG  1  42  -1
M  HYD  3   2   0   3   0  15   0
M  ZBO  1   1   0
M  END
