1ikx_ligand
 OpenBabel08222323343D

 31 33  0  0  1  0  0  0  0  0999 V2000
   -9.8980  142.8870  172.6230 C   0  0  0  0  0  0  0  0  0  0  0  0
   -8.9790  142.6990  171.6160 N   0  0  0  0  0  0  0  0  0  0  0  0
   -7.6580  143.0290  171.8440 C   0  0  0  0  0  0  0  0  0  0  0  0
   -7.2730  143.5580  173.1240 C   0  0  0  0  0  0  0  0  0  0  0  0
   -8.2380  143.7390  174.1410 C   0  0  0  0  0  0  0  0  0  0  0  0
   -9.5790  143.3720  173.8190 N   0  0  0  0  0  0  0  0  0  0  0  0
  -11.6200  139.7180  176.7090 C   0  0  0  0  0  0  0  0  0  0  0  0
  -12.2700  139.3770  175.4940 C   0  0  0  0  0  0  0  0  0  0  0  0
  -12.4940  140.3980  174.6020 N   0  0  0  0  0  0  0  0  0  0  0  0
  -12.1170  141.7040  174.8430 C   0  0  0  0  0  0  0  0  0  0  0  0
  -11.4550  142.0780  176.0500 C   0  0  0  0  0  0  0  0  0  0  0  0
  -11.2230  141.0410  176.9760 C   0  0  0  0  0  0  0  0  0  0  0  0
  -10.5920  140.9460  178.3440 C   0  0  0  0  0  0  0  0  0  0  0  0
  -11.3020  138.8280  177.7580 O   0  0  0  0  0  0  0  0  0  0  0  0
  -10.6960  139.6410  178.6880 C   0  0  0  0  0  0  0  0  0  0  0  0
  -12.4030  142.8710  173.9000 C   0  0  1  0  0  0  0  0  0  0  0  0
  -11.6010  142.4600  172.2990 S   0  0  0  0  0  0  0  0  0  0  0  0
   -6.6820  142.8480  170.8110 N   0  0  0  0  0  0  0  0  0  0  0  0
   -7.9040  144.3060  175.5650 Cl  0  0  0  0  0  0  0  0  0  0  0  0
  -13.9480  143.0030  173.7150 C   0  0  0  0  0  0  0  0  0  0  0  0
   -6.2376  143.8194  173.3103 H   0  0  0  0  0  0  0  0  0  0  0  0
  -12.5753  138.3591  175.2799 H   0  0  0  0  0  0  0  0  0  0  0  0
  -11.1484  143.0996  176.2436 H   0  0  0  0  0  0  0  0  0  0  0  0
  -10.1494  141.7521  178.9273 H   0  0  0  0  0  0  0  0  0  0  0  0
  -10.3246  139.2598  179.6381 H   0  0  0  0  0  0  0  0  0  0  0  0
  -11.9924  143.8077  174.3050 H   0  0  0  0  0  0  0  0  0  0  0  0
   -5.6972  143.0951  170.9840 H   0  0  0  0  0  0  0  0  0  0  0  0
   -6.9651  142.4708  169.8953 H   0  0  0  0  0  0  0  0  0  0  0  0
  -14.1658  143.8413  173.0369 H   0  0  0  0  0  0  0  0  0  0  0  0
  -14.4196  143.1890  174.6912 H   0  0  0  0  0  0  0  0  0  0  0  0
  -14.3469  142.0717  173.2865 H   0  0  0  0  0  0  0  0  0  0  0  0
  1  2  2  0  0  0  0
  1  6  1  0  0  0  0
  2  3  1  0  0  0  0
  3  4  2  0  0  0  0
  3 18  1  0  0  0  0
  4 21  1  0  0  0  0
  5  4  1  0  0  0  0
  5 19  1  0  0  0  0
  6  5  2  0  0  0  0
  7 14  1  0  0  0  0
  8  7  2  0  0  0  0
  8 22  1  0  0  0  0
  9  8  1  0  0  0  0
 10  9  2  0  0  0  0
 10 11  1  0  0  0  0
 11 12  2  0  0  0  0
 11 23  1  0  0  0  0
 12  7  1  0  0  0  0
 12 13  1  0  0  0  0
 13 15  2  0  0  0  0
 13 24  1  0  0  0  0
 15 14  1  0  0  0  0
 15 25  1  0  0  0  0
 16 10  1  0  0  0  0
 16 17  1  0  0  0  0
 16 20  1  0  0  0  0
 16 26  1  1  0  0  0
 17  1  1  0  0  0  0
 18 27  1  0  0  0  0
 18 28  1  0  0  0  0
 20 29  1  0  0  0  0
 20 30  1  0  0  0  0
 20 31  1  0  0  0  0
M  END
