1il3_ligand
 OpenBabel08222323343D

 17 18  0  0  0  0  0  0  0  0999 V2000
   -1.0790    0.5580    7.8420 N   0  0  0  0  0  0  0  0  0  0  0  0
   -1.6900    0.9590    6.7110 C   0  0  0  0  0  0  0  0  0  0  0  0
   -0.7530    1.4910    5.8210 C   0  0  0  0  0  0  0  0  0  0  0  0
    0.4780    1.3890    6.4690 C   0  0  0  0  0  0  0  0  0  0  0  0
    1.7920    1.7360    6.1280 C   0  0  0  0  0  0  0  0  0  0  0  0
    2.0990    2.2520    5.0770 O   0  0  0  0  0  0  0  0  0  0  0  0
    2.7650    1.4720    7.0390 N   0  0  0  0  0  0  0  0  0  0  0  0
    2.4990    0.8970    8.2450 C   0  0  0  0  0  0  0  0  0  0  0  0
    3.4650    0.6360    9.1430 N   0  0  0  0  0  0  0  0  0  0  0  0
    1.2360    0.5640    8.5950 N   0  0  0  0  0  0  0  0  0  0  0  0
    0.2360    0.8060    7.7150 C   0  0  0  0  0  0  0  0  0  0  0  0
   -1.5388    0.1353    8.6610 H   0  0  0  0  0  0  0  0  0  0  0  0
   -2.7589    0.8802    6.5179 H   0  0  0  0  0  0  0  0  0  0  0  0
   -0.9439    1.8994    4.8297 H   0  0  0  0  0  0  0  0  0  0  0  0
    3.7107    1.7084    6.8161 H   0  0  0  0  0  0  0  0  0  0  0  0
    3.2255    0.2001   10.0450 H   0  0  0  0  0  0  0  0  0  0  0  0
    4.4445    0.8719    8.9290 H   0  0  0  0  0  0  0  0  0  0  0  0
  1  2  1  0  0  0  0
  1 11  1  0  0  0  0
  1 12  1  0  0  0  0
  2  3  2  0  0  0  0
  2 13  1  0  0  0  0
  3  4  1  0  0  0  0
  3 14  1  0  0  0  0
  4  5  1  0  0  0  0
  4 11  2  0  0  0  0
  5  6  2  0  0  0  0
  5  7  1  0  0  0  0
  7  8  1  0  0  0  0
  7 15  1  0  0  0  0
  8  9  1  0  0  0  0
  8 10  2  0  0  0  0
  9 16  1  0  0  0  0
  9 17  1  0  0  0  0
 10 11  1  0  0  0  0
M  END
