1ind_ligand
 OpenBabel08222323343D

 60 60  0  0  1  0  0  0  0  0999 V2000
   61.6180    1.3390   37.4210 C   0  0  0  0  0  0  0  0  0  0  0  0
   60.9970    2.4350   38.0310 C   0  0  0  0  0  0  0  0  0  0  0  0
   59.9180    2.2660   38.8940 C   0  0  0  0  0  0  0  0  0  0  0  0
   59.4470    0.9830   39.1620 C   0  0  0  0  0  0  0  0  0  0  0  0
   60.0610   -0.1080   38.5600 C   0  0  0  0  0  0  0  0  0  0  0  0
   61.1320    0.0680   37.6960 C   0  0  0  0  0  0  0  0  0  0  0  0
   62.6520    1.4380   36.5750 N   0  0  0  0  0  0  0  0  0  0  0  0
   63.8050    2.0520   36.8620 C   0  0  0  0  0  0  0  0  0  0  0  0
   64.1550    2.6720   38.3770 S   0  0  0  0  0  0  0  0  0  0  0  0
   64.6880    2.1430   35.8780 N   0  0  0  0  0  0  0  0  0  0  0  0
   65.9650    2.8440   36.0550 C   0  0  0  0  0  0  0  0  0  0  0  0
   66.3530    3.5290   34.7390 C   0  0  0  0  0  0  0  0  0  0  0  0
   67.6080    4.1680   34.9190 O   0  0  0  0  0  0  0  0  0  0  0  0
   58.3030    0.7790   40.0730 C   0  0  0  0  0  0  0  0  0  0  0  0
   56.9020    1.0440   39.4940 C   0  0  1  0  0  0  0  0  0  0  0  0
   56.4870   -0.1220   38.5490 C   0  0  0  0  0  0  0  0  0  0  0  0
   55.8850    1.1730   40.5680 N   0  3  0  0  0  0  0  0  0  0  0  0
   55.9110    2.4720   41.2660 C   0  0  0  0  0  0  0  0  0  0  0  0
   55.4600    3.6140   40.3650 C   0  0  0  0  0  0  0  0  0  0  0  0
   54.5060    3.2880   39.4710 O   0  5  0  0  0  0  0  0  0  0  0  0
   55.9870    4.7200   40.4260 O   0  0  0  0  0  0  0  0  0  0  0  0
   55.9170    0.0200   41.4600 C   0  0  0  0  0  0  0  0  0  0  0  0
   54.6780    0.0350   42.3430 C   0  0  0  0  0  0  0  0  0  0  0  0
   53.6000    0.6140   41.7730 O   0  5  0  0  0  0  0  0  0  0  0  0
   54.7110   -0.3880   43.4970 O   0  0  0  0  0  0  0  0  0  0  0  0
   55.1520    0.0110   37.9400 N   0  3  0  0  0  0  0  0  0  0  0  0
   54.6750   -1.3530   37.6030 C   0  0  0  0  0  0  0  0  0  0  0  0
   53.3180   -1.7070   38.2250 C   0  0  0  0  0  0  0  0  0  0  0  0
   52.9780   -1.0160   39.3240 O   0  5  0  0  0  0  0  0  0  0  0  0
   52.6100   -2.5970   37.7540 O   0  0  0  0  0  0  0  0  0  0  0  0
   55.1460    0.8730   36.7330 C   0  0  0  0  0  0  0  0  0  0  0  0
   53.7340    1.3060   36.3600 C   0  0  0  0  0  0  0  0  0  0  0  0
   52.8470    1.2220   37.3740 O   0  5  0  0  0  0  0  0  0  0  0  0
   53.4350    1.6620   35.2190 O   0  0  0  0  0  0  0  0  0  0  0  0
   61.3634    3.4347   37.8275 H   0  0  0  0  0  0  0  0  0  0  0  0
   59.4475    3.1272   39.3544 H   0  0  0  0  0  0  0  0  0  0  0  0
   59.6991   -1.1085   38.7678 H   0  0  0  0  0  0  0  0  0  0  0  0
   61.5939   -0.7954   37.2310 H   0  0  0  0  0  0  0  0  0  0  0  0
   62.5554    1.0256   35.6691 H   0  0  0  0  0  0  0  0  0  0  0  0
   64.4792    1.7242   34.9942 H   0  0  0  0  0  0  0  0  0  0  0  0
   66.7449    2.1215   36.3371 H   0  0  0  0  0  0  0  0  0  0  0  0
   65.8623    3.6006   36.8468 H   0  0  0  0  0  0  0  0  0  0  0  0
   65.5913    4.2756   34.4702 H   0  0  0  0  0  0  0  0  0  0  0  0
   66.4297    2.7787   33.9383 H   0  0  0  0  0  0  0  0  0  0  0  0
   67.8622    4.5976   34.1107 H   0  0  0  0  0  0  0  0  0  0  0  0
   58.4396    1.4490   40.9347 H   0  0  0  0  0  0  0  0  0  0  0  0
   58.3305   -0.2666   40.4135 H   0  0  0  0  0  0  0  0  0  0  0  0
   56.9318    1.9811   38.9188 H   0  0  0  0  0  0  0  0  0  0  0  0
   56.5042   -1.0550   39.1314 H   0  0  0  0  0  0  0  0  0  0  0  0
   57.2270   -0.1826   37.7374 H   0  0  0  0  0  0  0  0  0  0  0  0
   54.9902    1.1382   40.1053 H   0  0  0  0  0  0  0  0  0  0  0  0
   56.9380    2.6721   41.6054 H   0  0  0  0  0  0  0  0  0  0  0  0
   55.2405    2.4207   42.1365 H   0  0  0  0  0  0  0  0  0  0  0  0
   56.8178    0.0669   42.0896 H   0  0  0  0  0  0  0  0  0  0  0  0
   55.9333   -0.9050   40.8650 H   0  0  0  0  0  0  0  0  0  0  0  0
   54.5291    0.4203   38.6186 H   0  0  0  0  0  0  0  0  0  0  0  0
   55.4201   -2.0789   37.9606 H   0  0  0  0  0  0  0  0  0  0  0  0
   54.5851   -1.4284   36.5093 H   0  0  0  0  0  0  0  0  0  0  0  0
   55.5814    0.3130   35.8923 H   0  0  0  0  0  0  0  0  0  0  0  0
   55.7534    1.7685   36.9309 H   0  0  0  0  0  0  0  0  0  0  0  0
  1  2  2  0  0  0  0
  1  6  1  0  0  0  0
  1  7  1  0  0  0  0
  2  3  1  0  0  0  0
  2 35  1  0  0  0  0
  3  4  2  0  0  0  0
  3 36  1  0  0  0  0
  4  5  1  0  0  0  0
  4 14  1  0  0  0  0
  5  6  2  0  0  0  0
  5 37  1  0  0  0  0
  6 38  1  0  0  0  0
  7  8  1  0  0  0  0
  7 39  1  0  0  0  0
  8  9  2  0  0  0  0
  8 10  1  0  0  0  0
 10 11  1  0  0  0  0
 10 40  1  0  0  0  0
 11 12  1  0  0  0  0
 11 41  1  0  0  0  0
 11 42  1  0  0  0  0
 12 13  1  0  0  0  0
 12 43  1  0  0  0  0
 12 44  1  0  0  0  0
 13 45  1  0  0  0  0
 14 15  1  0  0  0  0
 14 46  1  0  0  0  0
 14 47  1  0  0  0  0
 15 16  1  0  0  0  0
 15 17  1  0  0  0  0
 15 48  1  6  0  0  0
 16 26  1  0  0  0  0
 16 49  1  0  0  0  0
 16 50  1  0  0  0  0
 17 18  1  0  0  0  0
 17 22  1  0  0  0  0
 17 51  1  0  0  0  0
 18 19  1  0  0  0  0
 18 52  1  0  0  0  0
 18 53  1  0  0  0  0
 19 20  1  0  0  0  0
 19 21  2  0  0  0  0
 22 23  1  0  0  0  0
 22 54  1  0  0  0  0
 22 55  1  0  0  0  0
 23 24  1  0  0  0  0
 23 25  2  0  0  0  0
 26 27  1  0  0  0  0
 26 31  1  0  0  0  0
 26 56  1  0  0  0  0
 27 28  1  0  0  0  0
 27 57  1  0  0  0  0
 27 58  1  0  0  0  0
 28 29  1  0  0  0  0
 28 30  2  0  0  0  0
 31 32  1  0  0  0  0
 31 59  1  0  0  0  0
 31 60  1  0  0  0  0
 32 33  1  0  0  0  0
 32 34  2  0  0  0  0
M  CHG  6  17   1  20  -1  24  -1  26   1  29  -1  33  -1
M  END
