1inh_ligand
 OpenBabel08222323343D

 31 31  0  0  0  0  0  0  0  0999 V2000
   49.1590   22.8940  -20.3130 C   0  0  0  0  0  0  0  0  0  0  0  0
   48.8090   24.0970  -20.3000 O   0  5  0  0  0  0  0  0  0  0  0  0
   50.1610   22.4630  -19.7150 O   0  0  0  0  0  0  0  0  0  0  0  0
   48.4220   22.0010  -21.0640 C   0  0  0  0  0  0  0  0  0  0  0  0
   48.0050   22.3500  -22.3260 C   0  0  0  0  0  0  0  0  0  0  0  0
   47.1900   21.5240  -23.0560 C   0  0  0  0  0  0  0  0  0  0  0  0
   46.7040   21.9540  -24.2500 N   0  0  0  0  0  0  0  0  0  0  0  0
   45.4800   22.4630  -24.2410 C   0  0  0  0  0  0  0  0  0  0  0  0
   44.6760   22.2600  -23.3220 O   0  0  0  0  0  0  0  0  0  0  0  0
   45.0710   23.3040  -25.3850 C   0  0  0  0  0  0  0  0  0  0  0  0
   43.9630   24.1370  -24.8820 N   0  3  0  0  0  0  0  0  0  0  0  0
   46.7520   20.3250  -22.5170 C   0  0  0  0  0  0  0  0  0  0  0  0
   45.8800   19.5340  -23.2300 N   0  0  0  0  0  0  0  0  0  0  0  0
   46.3100   18.6060  -24.0750 C   0  0  0  0  0  0  0  0  0  0  0  0
   47.5120   18.3860  -24.2480 O   0  0  0  0  0  0  0  0  0  0  0  0
   45.2900   17.7760  -24.8320 C   0  0  0  0  0  0  0  0  0  0  0  0
   47.1760   19.9470  -21.2600 C   0  0  0  0  0  0  0  0  0  0  0  0
   47.9950   20.7870  -20.5260 C   0  0  0  0  0  0  0  0  0  0  0  0
   48.3258   23.2941  -22.7513 H   0  0  0  0  0  0  0  0  0  0  0  0
   47.2413   21.8898  -25.0910 H   0  0  0  0  0  0  0  0  0  0  0  0
   44.7313   22.6764  -26.2221 H   0  0  0  0  0  0  0  0  0  0  0  0
   45.9079   23.9361  -25.7166 H   0  0  0  0  0  0  0  0  0  0  0  0
   43.6343   24.7400  -25.6198 H   0  0  0  0  0  0  0  0  0  0  0  0
   44.2877   24.6974  -24.1096 H   0  0  0  0  0  0  0  0  0  0  0  0
   43.2096   23.5430  -24.5728 H   0  0  0  0  0  0  0  0  0  0  0  0
   44.8958   19.6622  -23.1078 H   0  0  0  0  0  0  0  0  0  0  0  0
   45.8114   17.0597  -25.4840 H   0  0  0  0  0  0  0  0  0  0  0  0
   44.6602   18.4381  -25.4444 H   0  0  0  0  0  0  0  0  0  0  0  0
   44.6590   17.2284  -24.1165 H   0  0  0  0  0  0  0  0  0  0  0  0
   46.8680   18.9930  -20.8476 H   0  0  0  0  0  0  0  0  0  0  0  0
   48.3062   20.5001  -19.5280 H   0  0  0  0  0  0  0  0  0  0  0  0
  1  2  1  0  0  0  0
  1  3  2  0  0  0  0
  1  4  1  0  0  0  0
  4  5  2  0  0  0  0
  4 18  1  0  0  0  0
  5  6  1  0  0  0  0
  5 19  1  0  0  0  0
  6  7  1  0  0  0  0
  6 12  2  0  0  0  0
  7  8  1  0  0  0  0
  7 20  1  0  0  0  0
  8  9  2  0  0  0  0
  8 10  1  0  0  0  0
 10 11  1  0  0  0  0
 10 21  1  0  0  0  0
 10 22  1  0  0  0  0
 11 23  1  0  0  0  0
 11 24  1  0  0  0  0
 11 25  1  0  0  0  0
 12 13  1  0  0  0  0
 12 17  1  0  0  0  0
 13 14  1  0  0  0  0
 13 26  1  0  0  0  0
 14 15  2  0  0  0  0
 14 16  1  0  0  0  0
 16 27  1  0  0  0  0
 16 28  1  0  0  0  0
 16 29  1  0  0  0  0
 17 18  2  0  0  0  0
 17 30  1  0  0  0  0
 18 31  1  0  0  0  0
M  CHG  2   2  -1  11   1
M  END
