1inq_ligand
 OpenBabel08222323343D

144146  0  0  1  0  0  0  0  0999 V2000
   33.7560    7.5260   -3.5500 N   0  3  0  0  0  0  0  0  0  0  0  0
   33.6440    8.9480   -4.0140 C   0  0  2  0  0  0  0  0  0  0  0  0
   32.2080    9.1390   -4.5030 C   0  0  0  0  0  0  0  0  0  0  0  0
   31.7300    8.3830   -5.3560 O   0  0  0  0  0  0  0  0  0  0  0  0
   34.6360    9.2130   -5.1480 C   0  0  0  0  0  0  0  0  0  0  0  0
   34.5860   10.5720   -5.5430 O   0  0  0  0  0  0  0  0  0  0  0  0
   31.5210   10.1330   -3.9340 N   0  0  0  0  0  0  0  0  0  0  0  0
   30.1190   10.4120   -4.2620 C   0  0  2  0  0  0  0  0  0  0  0  0
   29.8850   11.1700   -5.5650 C   0  0  0  0  0  0  0  0  0  0  0  0
   30.8280   11.6790   -6.1820 O   0  0  0  0  0  0  0  0  0  0  0  0
   29.4960   11.2060   -3.1180 C   0  0  0  0  0  0  0  0  0  0  0  0
   30.2140   12.4160   -2.9220 O   0  0  0  0  0  0  0  0  0  0  0  0
   28.6120   11.2160   -5.9730 N   0  0  0  0  0  0  0  0  0  0  0  0
   28.1510   11.9240   -7.1650 C   0  0  2  0  0  0  0  0  0  0  0  0
   27.4760   13.1850   -6.6630 C   0  0  0  0  0  0  0  0  0  0  0  0
   26.9280   13.2060   -5.5750 O   0  0  0  0  0  0  0  0  0  0  0  0
   26.9500   11.2560   -7.9170 C   0  0  0  0  0  0  0  0  0  0  0  0
   27.2270   11.2010   -9.4120 C   0  0  0  0  0  0  0  0  0  0  0  0
   26.5980    9.9540   -7.3070 C   0  0  0  0  0  0  0  0  0  0  0  0
   27.4870   14.2210   -7.4830 N   0  0  0  0  0  0  0  0  0  0  0  0
   26.8030   15.4490   -7.1330 C   0  0  2  0  0  0  0  0  0  0  0  0
   25.6700   15.6300   -8.1500 C   0  0  0  0  0  0  0  0  0  0  0  0
   25.7140   15.1070   -9.2870 O   0  0  0  0  0  0  0  0  0  0  0  0
   27.7180   16.6800   -7.2240 C   0  0  0  0  0  0  0  0  0  0  0  0
   28.8670   16.5700   -6.2190 C   0  0  0  0  0  0  0  0  0  0  0  0
   28.2340   16.8310   -8.6280 C   0  0  0  0  0  0  0  0  0  0  0  0
   24.6510   16.3580   -7.7320 N   0  0  0  0  0  0  0  0  0  0  0  0
   23.5590   16.6440   -8.6430 C   0  0  0  0  0  0  0  0  0  0  0  0
   23.9250   17.9250   -9.3880 C   0  0  0  0  0  0  0  0  0  0  0  0
   24.6760   18.7590   -8.8840 O   0  0  0  0  0  0  0  0  0  0  0  0
   23.4280   18.0480  -10.6120 N   0  0  0  0  0  0  0  0  0  0  0  0
   23.6340   19.2190  -11.4400 C   0  0  2  0  0  0  0  0  0  0  0  0
   22.2010   19.7510  -11.5860 C   0  0  0  0  0  0  0  0  0  0  0  0
   21.7480   20.5370  -10.7610 O   0  0  0  0  0  0  0  0  0  0  0  0
   24.2590   18.7950  -12.7770 C   0  0  0  0  0  0  0  0  0  0  0  0
   24.5270   20.0040  -13.6850 C   0  0  0  0  0  0  0  0  0  0  0  0
   25.5670   18.0840  -12.4820 C   0  0  0  0  0  0  0  0  0  0  0  0
   21.4560   19.3020  -12.5910 N   0  0  0  0  0  0  0  0  0  0  0  0
   20.0710   19.7660  -12.7400 C   0  0  2  0  0  0  0  0  0  0  0  0
   19.2220   19.3580  -11.5410 C   0  0  0  0  0  0  0  0  0  0  0  0
   19.4020   18.2710  -10.9810 O   0  0  0  0  0  0  0  0  0  0  0  0
   19.4800   19.1900  -14.0330 C   0  0  0  0  0  0  0  0  0  0  0  0
   20.3480   19.5430  -15.1510 C   0  0  0  0  0  0  0  0  0  0  0  0
   20.4110   20.7590  -15.7850 C   0  0  0  0  0  0  0  0  0  0  0  0
   21.4660   18.7960  -15.6140 C   0  0  0  0  0  0  0  0  0  0  0  0
   21.5130   20.8120  -16.5900 N   0  0  0  0  0  0  0  0  0  0  0  0
   22.1800   19.6220  -16.5050 C   0  0  0  0  0  0  0  0  0  0  0  0
   21.9450   17.5090  -15.3520 C   0  0  0  0  0  0  0  0  0  0  0  0
   23.3480   19.2050  -17.1370 C   0  0  0  0  0  0  0  0  0  0  0  0
   23.1080   17.0930  -15.9800 C   0  0  0  0  0  0  0  0  0  0  0  0
   23.8000   17.9380  -16.8620 C   0  0  0  0  0  0  0  0  0  0  0  0
   18.2930   20.2260  -11.1550 N   0  0  0  0  0  0  0  0  0  0  0  0
   17.4180   19.9780  -10.0220 C   0  0  2  0  0  0  0  0  0  0  0  0
   16.2060   19.1610  -10.4260 C   0  0  0  0  0  0  0  0  0  0  0  0
   15.9090   19.0070  -11.6140 O   0  0  0  0  0  0  0  0  0  0  0  0
   16.9350   21.3030   -9.3990 C   0  0  0  0  0  0  0  0  0  0  0  0
   18.0570   22.2580   -9.0680 C   0  0  0  0  0  0  0  0  0  0  0  0
   18.3060   23.3740   -9.8640 C   0  0  0  0  0  0  0  0  0  0  0  0
   18.8870   22.0370   -7.9570 C   0  0  0  0  0  0  0  0  0  0  0  0
   19.3400   24.2510   -9.5650 C   0  0  0  0  0  0  0  0  0  0  0  0
   19.9250   22.9030   -7.6580 C   0  0  0  0  0  0  0  0  0  0  0  0
   20.1440   24.0080   -8.4660 C   0  0  0  0  0  0  0  0  0  0  0  0
   21.1810   24.8590   -8.1900 O   0  0  0  0  0  0  0  0  0  0  0  0
   15.5310   18.6070   -9.4240 N   0  0  0  0  0  0  0  0  0  0  0  0
   14.3280   17.8300   -9.6700 C   0  0  2  0  0  0  0  0  0  0  0  0
   13.2670   18.7670  -10.2520 C   0  0  0  0  0  0  0  0  0  0  0  0
   13.4390   20.0030  -10.1170 O   0  5  0  0  0  0  0  0  0  0  0  0
   13.8190   17.2230   -8.3590 C   0  0  0  0  0  0  0  0  0  0  0  0
   14.7610   16.1780   -7.7530 C   0  0  0  0  0  0  0  0  0  0  0  0
   14.1680   15.6550   -6.4320 C   0  0  0  0  0  0  0  0  0  0  0  0
   14.9460   15.0390   -8.7650 C   0  0  0  0  0  0  0  0  0  0  0  0
   12.2750   18.2460  -10.8090 O   0  0  0  0  0  0  0  0  0  0  0  0
   34.6917    7.3540   -3.2170 H   0  0  0  0  0  0  0  0  0  0  0  0
   33.5532    6.9051   -4.3177 H   0  0  0  0  0  0  0  0  0  0  0  0
   33.0985    7.3633   -2.8035 H   0  0  0  0  0  0  0  0  0  0  0  0
   33.8523    9.6348   -3.1804 H   0  0  0  0  0  0  0  0  0  0  0  0
   34.3811    8.5764   -6.0081 H   0  0  0  0  0  0  0  0  0  0  0  0
   35.6527    8.9735   -4.8030 H   0  0  0  0  0  0  0  0  0  0  0  0
   34.8081   11.1242   -4.8025 H   0  0  0  0  0  0  0  0  0  0  0  0
   31.9804   10.7094   -3.2581 H   0  0  0  0  0  0  0  0  0  0  0  0
   29.6017    9.4449   -4.3456 H   0  0  0  0  0  0  0  0  0  0  0  0
   29.5323   10.6070   -2.1961 H   0  0  0  0  0  0  0  0  0  0  0  0
   28.4492   11.4387   -3.3632 H   0  0  0  0  0  0  0  0  0  0  0  0
   31.1179   12.2156   -2.7092 H   0  0  0  0  0  0  0  0  0  0  0  0
   27.9293   10.7329   -5.4248 H   0  0  0  0  0  0  0  0  0  0  0  0
   28.9939   12.1182   -7.8446 H   0  0  0  0  0  0  0  0  0  0  0  0
   26.0755   11.9097   -7.7830 H   0  0  0  0  0  0  0  0  0  0  0  0
   26.3758   10.7300   -9.9255 H   0  0  0  0  0  0  0  0  0  0  0  0
   28.1374   10.6113   -9.5948 H   0  0  0  0  0  0  0  0  0  0  0  0
   27.3680   12.2219   -9.7966 H   0  0  0  0  0  0  0  0  0  0  0  0
   26.4161   10.0906   -6.2308 H   0  0  0  0  0  0  0  0  0  0  0  0
   27.4267    9.2453   -7.4517 H   0  0  0  0  0  0  0  0  0  0  0  0
   25.6896    9.5587   -7.7851 H   0  0  0  0  0  0  0  0  0  0  0  0
   27.9728   14.1566   -8.3547 H   0  0  0  0  0  0  0  0  0  0  0  0
   26.3983   15.3688   -6.1133 H   0  0  0  0  0  0  0  0  0  0  0  0
   27.1269   17.5735   -6.9744 H   0  0  0  0  0  0  0  0  0  0  0  0
   29.5102   17.4588   -6.2988 H   0  0  0  0  0  0  0  0  0  0  0  0
   29.4588   15.6685   -6.4358 H   0  0  0  0  0  0  0  0  0  0  0  0
   28.4579   16.5038   -5.2001 H   0  0  0  0  0  0  0  0  0  0  0  0
   27.3857   16.9073   -9.3242 H   0  0  0  0  0  0  0  0  0  0  0  0
   28.8457   15.9552   -8.8900 H   0  0  0  0  0  0  0  0  0  0  0  0
   28.8480   17.7411   -8.6971 H   0  0  0  0  0  0  0  0  0  0  0  0
   24.6322   16.7091   -6.7958 H   0  0  0  0  0  0  0  0  0  0  0  0
   22.6250   16.7879   -8.0801 H   0  0  0  0  0  0  0  0  0  0  0  0
   23.4340   15.8151   -9.3553 H   0  0  0  0  0  0  0  0  0  0  0  0
   22.8839   17.2947  -10.9816 H   0  0  0  0  0  0  0  0  0  0  0  0
   24.2825   19.9592  -10.9486 H   0  0  0  0  0  0  0  0  0  0  0  0
   23.5737   18.1068  -13.2935 H   0  0  0  0  0  0  0  0  0  0  0  0
   24.9733   19.6610  -14.6301 H   0  0  0  0  0  0  0  0  0  0  0  0
   25.2199   20.6942  -13.1816 H   0  0  0  0  0  0  0  0  0  0  0  0
   23.5798   20.5228  -13.8939 H   0  0  0  0  0  0  0  0  0  0  0  0
   25.3750   17.2180  -11.8316 H   0  0  0  0  0  0  0  0  0  0  0  0
   26.2551   18.7771  -11.9760 H   0  0  0  0  0  0  0  0  0  0  0  0
   26.0189   17.7415  -13.4246 H   0  0  0  0  0  0  0  0  0  0  0  0
   21.8383   18.6490  -13.2448 H   0  0  0  0  0  0  0  0  0  0  0  0
   20.0726   20.8639  -12.8085 H   0  0  0  0  0  0  0  0  0  0  0  0
   18.4766   19.6093  -14.1986 H   0  0  0  0  0  0  0  0  0  0  0  0
   19.4110   18.0952  -13.9512 H   0  0  0  0  0  0  0  0  0  0  0  0
   19.6877   21.5640  -15.6637 H   0  0  0  0  0  0  0  0  0  0  0  0
   21.7953   21.6172  -17.1669 H   0  0  0  0  0  0  0  0  0  0  0  0
   21.4175   16.8502  -14.6717 H   0  0  0  0  0  0  0  0  0  0  0  0
   23.8807   19.8561  -17.8206 H   0  0  0  0  0  0  0  0  0  0  0  0
   23.4903   16.0972  -15.7868 H   0  0  0  0  0  0  0  0  0  0  0  0
   24.7086   17.5834  -17.3350 H   0  0  0  0  0  0  0  0  0  0  0  0
   18.1924   21.0814  -11.6630 H   0  0  0  0  0  0  0  0  0  0  0  0
   17.9853   19.4165   -9.2651 H   0  0  0  0  0  0  0  0  0  0  0  0
   16.3888   21.0732   -8.4723 H   0  0  0  0  0  0  0  0  0  0  0  0
   16.2572   21.7959  -10.1115 H   0  0  0  0  0  0  0  0  0  0  0  0
   17.6824   23.5606  -10.7308 H   0  0  0  0  0  0  0  0  0  0  0  0
   18.7122   21.1748   -7.3236 H   0  0  0  0  0  0  0  0  0  0  0  0
   19.5160   25.1201  -10.1885 H   0  0  0  0  0  0  0  0  0  0  0  0
   20.5609   22.7186   -6.7997 H   0  0  0  0  0  0  0  0  0  0  0  0
   21.0652   25.2263   -7.3215 H   0  0  0  0  0  0  0  0  0  0  0  0
   15.8562   18.7268   -8.4860 H   0  0  0  0  0  0  0  0  0  0  0  0
   14.5462   17.0238  -10.3858 H   0  0  0  0  0  0  0  0  0  0  0  0
   12.8483   16.7433   -8.5531 H   0  0  0  0  0  0  0  0  0  0  0  0
   13.6872   18.0354   -7.6291 H   0  0  0  0  0  0  0  0  0  0  0  0
   15.7378   16.6404   -7.5480 H   0  0  0  0  0  0  0  0  0  0  0  0
   14.8452   14.9048   -5.9978 H   0  0  0  0  0  0  0  0  0  0  0  0
   13.1879   15.1952   -6.6267 H   0  0  0  0  0  0  0  0  0  0  0  0
   14.0474   16.4913   -5.7277 H   0  0  0  0  0  0  0  0  0  0  0  0
   15.3701   15.4416   -9.6967 H   0  0  0  0  0  0  0  0  0  0  0  0
   13.9716   14.5745   -8.9765 H   0  0  0  0  0  0  0  0  0  0  0  0
   15.6289   14.2846   -8.3473 H   0  0  0  0  0  0  0  0  0  0  0  0
  1  2  1  0  0  0  0
  1 73  1  0  0  0  0
  1 74  1  0  0  0  0
  1 75  1  0  0  0  0
  2  3  1  0  0  0  0
  2  5  1  0  0  0  0
  2 76  1  1  0  0  0
  3  4  2  0  0  0  0
  3  7  1  0  0  0  0
  5  6  1  0  0  0  0
  5 77  1  0  0  0  0
  5 78  1  0  0  0  0
  6 79  1  0  0  0  0
  7  8  1  0  0  0  0
  7 80  1  0  0  0  0
  8  9  1  0  0  0  0
  8 11  1  0  0  0  0
  8 81  1  6  0  0  0
  9 10  2  0  0  0  0
  9 13  1  0  0  0  0
 11 12  1  0  0  0  0
 11 82  1  0  0  0  0
 11 83  1  0  0  0  0
 12 84  1  0  0  0  0
 13 14  1  0  0  0  0
 13 85  1  0  0  0  0
 14 15  1  0  0  0  0
 14 17  1  0  0  0  0
 14 86  1  6  0  0  0
 15 16  2  0  0  0  0
 15 20  1  0  0  0  0
 17 18  1  0  0  0  0
 17 19  1  0  0  0  0
 17 87  1  0  0  0  0
 18 88  1  0  0  0  0
 18 89  1  0  0  0  0
 18 90  1  0  0  0  0
 19 91  1  0  0  0  0
 19 92  1  0  0  0  0
 19 93  1  0  0  0  0
 20 21  1  0  0  0  0
 20 94  1  0  0  0  0
 21 22  1  0  0  0  0
 21 24  1  0  0  0  0
 21 95  1  1  0  0  0
 22 23  2  0  0  0  0
 22 27  1  0  0  0  0
 24 25  1  0  0  0  0
 24 26  1  0  0  0  0
 24 96  1  0  0  0  0
 25 97  1  0  0  0  0
 25 98  1  0  0  0  0
 25 99  1  0  0  0  0
 26100  1  0  0  0  0
 26101  1  0  0  0  0
 26102  1  0  0  0  0
 27 28  1  0  0  0  0
 27103  1  0  0  0  0
 28 29  1  0  0  0  0
 28104  1  0  0  0  0
 28105  1  0  0  0  0
 29 30  2  0  0  0  0
 29 31  1  0  0  0  0
 31 32  1  0  0  0  0
 31106  1  0  0  0  0
 32 33  1  0  0  0  0
 32 35  1  0  0  0  0
 32107  1  1  0  0  0
 33 34  2  0  0  0  0
 33 38  1  0  0  0  0
 35 36  1  0  0  0  0
 35 37  1  0  0  0  0
 35108  1  0  0  0  0
 36109  1  0  0  0  0
 36110  1  0  0  0  0
 36111  1  0  0  0  0
 37112  1  0  0  0  0
 37113  1  0  0  0  0
 37114  1  0  0  0  0
 38 39  1  0  0  0  0
 38115  1  0  0  0  0
 39 40  1  0  0  0  0
 39 42  1  0  0  0  0
 39116  1  6  0  0  0
 40 41  2  0  0  0  0
 40 52  1  0  0  0  0
 42 43  1  0  0  0  0
 42117  1  0  0  0  0
 42118  1  0  0  0  0
 43 44  2  0  0  0  0
 43 45  1  0  0  0  0
 44 46  1  0  0  0  0
 44119  1  0  0  0  0
 45 47  2  0  0  0  0
 45 48  1  0  0  0  0
 46 47  1  0  0  0  0
 46120  1  0  0  0  0
 47 49  1  0  0  0  0
 48 50  2  0  0  0  0
 48121  1  0  0  0  0
 49 51  2  0  0  0  0
 49122  1  0  0  0  0
 50 51  1  0  0  0  0
 50123  1  0  0  0  0
 51124  1  0  0  0  0
 52 53  1  0  0  0  0
 52125  1  0  0  0  0
 53 54  1  0  0  0  0
 53 56  1  0  0  0  0
 53126  1  1  0  0  0
 54 55  2  0  0  0  0
 54 64  1  0  0  0  0
 56 57  1  0  0  0  0
 56127  1  0  0  0  0
 56128  1  0  0  0  0
 57 58  2  0  0  0  0
 57 59  1  0  0  0  0
 58 60  1  0  0  0  0
 58129  1  0  0  0  0
 59 61  2  0  0  0  0
 59130  1  0  0  0  0
 60 62  2  0  0  0  0
 60131  1  0  0  0  0
 61 62  1  0  0  0  0
 61132  1  0  0  0  0
 62 63  1  0  0  0  0
 63133  1  0  0  0  0
 64 65  1  0  0  0  0
 64134  1  0  0  0  0
 65 66  1  0  0  0  0
 65 68  1  0  0  0  0
 65135  1  6  0  0  0
 66 67  1  0  0  0  0
 66 72  2  0  0  0  0
 68 69  1  0  0  0  0
 68136  1  0  0  0  0
 68137  1  0  0  0  0
 69 70  1  0  0  0  0
 69 71  1  0  0  0  0
 69138  1  0  0  0  0
 70139  1  0  0  0  0
 70140  1  0  0  0  0
 70141  1  0  0  0  0
 71142  1  0  0  0  0
 71143  1  0  0  0  0
 71144  1  0  0  0  0
M  CHG  2   1   1  67  -1
M  END
