1irs_ligand
 OpenBabel08222323343D

171172  0  0  1  0  0  0  0  0999 V2000
    4.2450  -18.1010   -1.0160 N   0  3  0  0  0  0  0  0  0  0  0  0
    4.1870  -16.6610   -1.3980 C   0  0  2  0  0  0  0  0  0  0  0  0
    2.7500  -16.1540   -1.2610 C   0  0  0  0  0  0  0  0  0  0  0  0
    2.0420  -15.9780   -2.2330 O   0  0  0  0  0  0  0  0  0  0  0  0
    4.6630  -16.4980   -2.8450 C   0  0  0  0  0  0  0  0  0  0  0  0
    5.5550  -15.2600   -2.9490 C   0  0  0  0  0  0  0  0  0  0  0  0
    6.9930  -15.6920   -3.2390 C   0  0  0  0  0  0  0  0  0  0  0  0
    5.0530  -14.3640   -4.0850 C   0  0  0  0  0  0  0  0  0  0  0  0
    2.3140  -15.9150   -0.0560 N   0  0  0  0  0  0  0  0  0  0  0  0
    0.9250  -15.4160    0.1490 C   0  0  2  0  0  0  0  0  0  0  0  0
    0.7400  -14.1230   -0.6480 C   0  0  0  0  0  0  0  0  0  0  0  0
    1.3780  -13.1240   -0.3800 O   0  0  0  0  0  0  0  0  0  0  0  0
    0.7020  -15.1410    1.6380 C   0  0  0  0  0  0  0  0  0  0  0  0
   -0.7810  -14.8750    1.8960 C   0  0  0  0  0  0  0  0  0  0  0  0
    1.1500  -16.3560    2.4560 C   0  0  0  0  0  0  0  0  0  0  0  0
   -0.1220  -14.1310   -1.6290 N   0  0  0  0  0  0  0  0  0  0  0  0
   -0.3330  -12.8970   -2.4390 C   0  0  2  0  0  0  0  0  0  0  0  0
   -1.8230  -12.5420   -2.4770 C   0  0  0  0  0  0  0  0  0  0  0  0
   -2.6790  -13.3760   -2.2570 O   0  0  0  0  0  0  0  0  0  0  0  0
    0.2040  -13.1310   -3.8580 C   0  0  2  0  0  0  0  0  0  0  0  0
    0.2930  -11.7900   -4.5990 C   0  0  0  0  0  0  0  0  0  0  0  0
   -0.7030  -14.1020   -4.6260 C   0  0  0  0  0  0  0  0  0  0  0  0
   -0.8970  -11.6280   -5.5430 C   0  0  0  0  0  0  0  0  0  0  0  0
   -2.1370  -11.3040   -2.7580 N   0  0  0  0  0  0  0  0  0  0  0  0
   -3.5650  -10.8810   -2.8150 C   0  0  2  0  0  0  0  0  0  0  0  0
   -3.7880  -10.0520   -4.0820 C   0  0  0  0  0  0  0  0  0  0  0  0
   -2.8960   -9.8850   -4.8860 O   0  0  0  0  0  0  0  0  0  0  0  0
   -3.9000  -10.0330   -1.5860 C   0  0  0  0  0  0  0  0  0  0  0  0
   -4.9670   -9.5290   -4.2720 N   0  0  0  0  0  0  0  0  0  0  0  0
   -5.2210   -8.7170   -5.4950 C   0  0  0  0  0  0  0  0  0  0  0  0
   -5.9180   -7.4100   -5.1180 C   0  0  0  0  0  0  0  0  0  0  0  0
   -6.4130   -7.2500   -4.0200 O   0  0  0  0  0  0  0  0  0  0  0  0
   -5.9590   -6.4750   -6.0250 N   0  0  0  0  0  0  0  0  0  0  0  0
   -6.6220   -5.1740   -5.7350 C   0  0  2  0  0  0  0  0  0  0  0  0
   -7.9300   -5.0900   -6.5470 C   0  0  0  0  0  0  0  0  0  0  0  0
   -7.8840   -5.0350   -7.7600 O   0  0  0  0  0  0  0  0  0  0  0  0
   -5.6870   -4.0410   -6.1570 C   0  0  0  0  0  0  0  0  0  0  0  0
   -5.7960   -2.8830   -5.1650 C   0  0  0  0  0  0  0  0  0  0  0  0
   -4.9990   -2.7720   -4.2550 O   0  0  0  0  0  0  0  0  0  0  0  0
   -6.7530   -2.0070   -5.3060 N   0  0  0  0  0  0  0  0  0  0  0  0
   -9.0600   -5.0910   -5.8700 N   0  0  0  0  0  0  0  0  0  0  0  0
  -10.3760   -5.0260   -6.5250 C   0  0  2  0  0  0  0  0  0  0  0  0
  -10.6530   -3.6210   -7.0770 C   0  0  0  0  0  0  0  0  0  0  0  0
  -11.2200   -3.4660   -8.1400 O   0  0  0  0  0  0  0  0  0  0  0  0
  -11.3910   -5.3730   -5.4420 C   0  0  0  0  0  0  0  0  0  0  0  0
  -10.6620   -4.9620   -4.1420 C   0  0  0  0  0  0  0  0  0  0  0  0
   -9.1480   -5.1590   -4.3930 C   0  0  0  0  0  0  0  0  0  0  0  0
  -10.2690   -2.5970   -6.3630 N   0  0  0  0  0  0  0  0  0  0  0  0
  -10.5240   -1.2060   -6.8480 C   0  0  2  0  0  0  0  0  0  0  0  0
   -9.5560   -0.8170   -7.9800 C   0  0  0  0  0  0  0  0  0  0  0  0
   -9.6280    0.2780   -8.5000 O   0  0  0  0  0  0  0  0  0  0  0  0
  -10.3480   -0.2300   -5.6830 C   0  0  0  0  0  0  0  0  0  0  0  0
   -8.6530   -1.6810   -8.3710 N   0  0  0  0  0  0  0  0  0  0  0  0
   -7.7030   -1.3180   -9.4680 C   0  0  2  0  0  0  0  0  0  0  0  0
   -8.4670   -1.1350  -10.7840 C   0  0  0  0  0  0  0  0  0  0  0  0
   -8.0630   -0.3750  -11.6380 O   0  0  0  0  0  0  0  0  0  0  0  0
   -6.6670   -2.4320   -9.6310 C   0  0  0  0  0  0  0  0  0  0  0  0
   -5.6560   -2.0480  -10.6850 C   0  0  0  0  0  0  0  0  0  0  0  0
   -4.8880   -0.8890  -10.5290 C   0  0  0  0  0  0  0  0  0  0  0  0
   -5.4850   -2.8530  -11.8170 C   0  0  0  0  0  0  0  0  0  0  0  0
   -3.9490   -0.5340  -11.5040 C   0  0  0  0  0  0  0  0  0  0  0  0
   -4.5460   -2.4980  -12.7930 C   0  0  0  0  0  0  0  0  0  0  0  0
   -3.7780   -1.3380  -12.6360 C   0  0  0  0  0  0  0  0  0  0  0  0
   -2.8370   -0.9830  -13.6110 O   0  0  0  0  0  0  0  0  0  0  0  0
   -3.3470   -0.7110  -15.0590 P   0  0  0  0  0  0  0  0  0  0  0  0
   -3.7830   -2.1020  -15.5870 O   0  0  0  0  0  1  0  0  0  0  0  0
   -2.0860   -0.2520  -15.8350 O   0  0  0  0  0  1  0  0  0  0  0  0
   -4.5060    0.3770  -14.8790 O   0  0  0  0  0  0  0  0  0  0  0  0
   -9.5660   -1.8280  -10.9440 N   0  0  0  0  0  0  0  0  0  0  0  0
  -10.3800   -1.7160  -12.1930 C   0  0  2  0  0  0  0  0  0  0  0  0
   -9.6670   -2.4170  -13.3640 C   0  0  0  0  0  0  0  0  0  0  0  0
   -9.9780   -3.5450  -13.6890 O   0  0  0  0  0  0  0  0  0  0  0  0
  -10.6490   -0.2420  -12.5260 C   0  0  0  0  0  0  0  0  0  0  0  0
  -11.0810    0.4980  -11.2610 C   0  0  0  0  0  0  0  0  0  0  0  0
  -11.6200    1.8800  -11.6360 C   0  0  0  0  0  0  0  0  0  0  0  0
  -12.6660    1.7370  -12.6880 N   0  0  0  0  0  0  0  0  0  0  0  0
  -12.6610    2.5310  -13.7250 C   0  0  0  0  0  3  0  0  0  0  0  0
  -11.8210    2.3220  -14.7020 N   0  0  0  0  0  0  0  0  0  0  0  0
  -13.4950    3.5320  -13.7860 N   0  0  0  0  0  0  0  0  0  0  0  0
   -8.7210   -1.7770  -14.0040 N   0  0  0  0  0  0  0  0  0  0  0  0
   -8.0190   -2.4370  -15.1410 C   0  0  2  0  0  0  0  0  0  0  0  0
   -9.0430   -2.8770  -16.1890 C   0  0  0  0  0  0  0  0  0  0  0  0
  -10.1940   -2.4970  -16.0590 O   0  5  0  0  0  0  0  0  0  0  0  0
   -7.2600   -3.6580  -14.6260 C   0  0  0  0  0  0  0  0  0  0  0  0
   -7.9430   -4.8390  -15.0250 O   0  0  0  0  0  0  0  0  0  0  0  0
   -8.6580   -3.5880  -17.1020 O   0  0  0  0  0  0  0  0  0  0  0  0
    5.1919  -18.4347   -1.1064 H   0  0  0  0  0  0  0  0  0  0  0  0
    3.6416  -18.6341   -1.6224 H   0  0  0  0  0  0  0  0  0  0  0  0
    3.9409  -18.2078   -0.0609 H   0  0  0  0  0  0  0  0  0  0  0  0
    4.8422  -16.0800   -0.7323 H   0  0  0  0  0  0  0  0  0  0  0  0
    3.7924  -16.3798   -3.5068 H   0  0  0  0  0  0  0  0  0  0  0  0
    5.2343  -17.3885   -3.1461 H   0  0  0  0  0  0  0  0  0  0  0  0
    5.5228  -14.7034   -2.0008 H   0  0  0  0  0  0  0  0  0  0  0  0
    7.6351  -14.8020   -3.3139 H   0  0  0  0  0  0  0  0  0  0  0  0
    7.0247  -16.2479   -4.1877 H   0  0  0  0  0  0  0  0  0  0  0  0
    7.3536  -16.3367   -2.4240 H   0  0  0  0  0  0  0  0  0  0  0  0
    4.0186  -14.0530   -3.8769 H   0  0  0  0  0  0  0  0  0  0  0  0
    5.0846  -14.9213   -5.0328 H   0  0  0  0  0  0  0  0  0  0  0  0
    5.6951  -13.4741   -4.1612 H   0  0  0  0  0  0  0  0  0  0  0  0
    2.9119  -16.0666    0.7311 H   0  0  0  0  0  0  0  0  0  0  0  0
    0.2041  -16.1708   -0.1983 H   0  0  0  0  0  0  0  0  0  0  0  0
    1.2891  -14.2607    1.9386 H   0  0  0  0  0  0  0  0  0  0  0  0
   -0.9372  -14.6779    2.9668 H   0  0  0  0  0  0  0  0  0  0  0  0
   -1.3690  -15.7547    1.5956 H   0  0  0  0  0  0  0  0  0  0  0  0
   -1.1039  -14.0010    1.3114 H   0  0  0  0  0  0  0  0  0  0  0  0
    2.2171  -16.5489    2.2715 H   0  0  0  0  0  0  0  0  0  0  0  0
    0.5614  -17.2361    2.1577 H   0  0  0  0  0  0  0  0  0  0  0  0
    0.9933  -16.1556    3.5262 H   0  0  0  0  0  0  0  0  0  0  0  0
   -0.6387  -14.9617   -1.8362 H   0  0  0  0  0  0  0  0  0  0  0  0
    0.2192  -12.0642   -1.9791 H   0  0  0  0  0  0  0  0  0  0  0  0
    1.2109  -13.5684   -3.7894 H   0  0  0  0  0  0  0  0  0  0  0  0
    1.2256  -11.7581   -5.1815 H   0  0  0  0  0  0  0  0  0  0  0  0
    0.2898  -10.9694   -3.8665 H   0  0  0  0  0  0  0  0  0  0  0  0
   -0.7581  -15.0581   -4.0848 H   0  0  0  0  0  0  0  0  0  0  0  0
   -0.2896  -14.2729   -5.6309 H   0  0  0  0  0  0  0  0  0  0  0  0
   -1.7114  -13.6711   -4.7127 H   0  0  0  0  0  0  0  0  0  0  0  0
   -0.8207  -10.6638   -6.0670 H   0  0  0  0  0  0  0  0  0  0  0  0
   -1.8315  -11.6573   -4.9634 H   0  0  0  0  0  0  0  0  0  0  0  0
   -0.8957  -12.4460   -6.2784 H   0  0  0  0  0  0  0  0  0  0  0  0
   -1.4139  -10.6365   -2.9359 H   0  0  0  0  0  0  0  0  0  0  0  0
   -4.2127  -11.7698   -2.8357 H   0  0  0  0  0  0  0  0  0  0  0  0
   -4.9543   -9.7225   -1.6311 H   0  0  0  0  0  0  0  0  0  0  0  0
   -3.2557   -9.1416   -1.5688 H   0  0  0  0  0  0  0  0  0  0  0  0
   -3.7309  -10.6253   -0.6746 H   0  0  0  0  0  0  0  0  0  0  0  0
   -5.6954   -9.6718   -3.6019 H   0  0  0  0  0  0  0  0  0  0  0  0
   -5.8622   -9.2864   -6.1839 H   0  0  0  0  0  0  0  0  0  0  0  0
   -4.2638   -8.4907   -5.9875 H   0  0  0  0  0  0  0  0  0  0  0  0
   -5.5429   -6.6323   -6.9206 H   0  0  0  0  0  0  0  0  0  0  0  0
   -6.8434   -5.0956   -4.6604 H   0  0  0  0  0  0  0  0  0  0  0  0
   -5.9686   -3.6898   -7.1606 H   0  0  0  0  0  0  0  0  0  0  0  0
   -4.6509   -4.4101   -6.1750 H   0  0  0  0  0  0  0  0  0  0  0  0
   -6.8329   -1.2458   -4.6624 H   0  0  0  0  0  0  0  0  0  0  0  0
   -7.4064   -2.0969   -6.0577 H   0  0  0  0  0  0  0  0  0  0  0  0
  -10.4273   -5.7557   -7.3465 H   0  0  0  0  0  0  0  0  0  0  0  0
  -11.6200   -6.4489   -5.4442 H   0  0  0  0  0  0  0  0  0  0  0  0
  -12.3208   -4.7999   -5.5726 H   0  0  0  0  0  0  0  0  0  0  0  0
  -10.9924   -5.5965   -3.3064 H   0  0  0  0  0  0  0  0  0  0  0  0
  -10.8723   -3.9081   -3.9076 H   0  0  0  0  0  0  0  0  0  0  0  0
   -8.5589   -4.3584   -3.9218 H   0  0  0  0  0  0  0  0  0  0  0  0
   -8.8061   -6.1350   -4.0183 H   0  0  0  0  0  0  0  0  0  0  0  0
   -9.8035   -2.7437   -5.4902 H   0  0  0  0  0  0  0  0  0  0  0  0
  -11.5558   -1.1433   -7.2241 H   0  0  0  0  0  0  0  0  0  0  0  0
  -10.5343    0.7961   -6.0330 H   0  0  0  0  0  0  0  0  0  0  0  0
   -9.3216   -0.3042   -5.2944 H   0  0  0  0  0  0  0  0  0  0  0  0
  -11.0616   -0.4801   -4.8841 H   0  0  0  0  0  0  0  0  0  0  0  0
   -8.5987   -2.5806   -7.9376 H   0  0  0  0  0  0  0  0  0  0  0  0
   -7.1922   -0.3784   -9.2107 H   0  0  0  0  0  0  0  0  0  0  0  0
   -7.1744   -3.3597   -9.9341 H   0  0  0  0  0  0  0  0  0  0  0  0
   -6.1510   -2.5925   -8.6729 H   0  0  0  0  0  0  0  0  0  0  0  0
   -5.0204   -0.2655   -9.6522 H   0  0  0  0  0  0  0  0  0  0  0  0
   -6.0795   -3.7513  -11.9381 H   0  0  0  0  0  0  0  0  0  0  0  0
   -3.3541    0.3640  -11.3821 H   0  0  0  0  0  0  0  0  0  0  0  0
   -4.4137   -3.1212  -13.6700 H   0  0  0  0  0  0  0  0  0  0  0  0
   -9.8670   -2.4445  -10.2164 H   0  0  0  0  0  0  0  0  0  0  0  0
  -11.3455   -2.2158  -12.0253 H   0  0  0  0  0  0  0  0  0  0  0  0
  -11.4479   -0.1766  -13.2793 H   0  0  0  0  0  0  0  0  0  0  0  0
   -9.7317    0.2170  -12.9235 H   0  0  0  0  0  0  0  0  0  0  0  0
  -10.2170    0.6115  -10.5897 H   0  0  0  0  0  0  0  0  0  0  0  0
  -11.8685   -0.0765  -10.7513 H   0  0  0  0  0  0  0  0  0  0  0  0
  -10.7979    2.5027  -12.0187 H   0  0  0  0  0  0  0  0  0  0  0  0
  -12.0576    2.3566  -10.7464 H   0  0  0  0  0  0  0  0  0  0  0  0
  -13.3924    1.0124  -12.5973 H   0  0  0  0  0  0  0  0  0  0  0  0
  -11.8165    2.9478  -15.5201 H   0  0  0  0  0  0  0  0  0  0  0  0
  -11.1626    1.5313  -14.6549 H   0  0  0  0  0  0  0  0  0  0  0  0
  -14.1581    3.6975  -13.0154 H   0  0  0  0  0  0  0  0  0  0  0  0
  -13.4905    4.1569  -14.6047 H   0  0  0  0  0  0  0  0  0  0  0  0
   -8.4703   -0.8483  -13.7308 H   0  0  0  0  0  0  0  0  0  0  0  0
   -7.3104   -1.7290  -15.5956 H   0  0  0  0  0  0  0  0  0  0  0  0
   -7.2037   -3.6194  -13.5281 H   0  0  0  0  0  0  0  0  0  0  0  0
   -6.2431   -3.6623  -15.0454 H   0  0  0  0  0  0  0  0  0  0  0  0
   -7.9911   -4.8706  -15.9733 H   0  0  0  0  0  0  0  0  0  0  0  0
  1  2  1  0  0  0  0
  1 87  1  0  0  0  0
  1 88  1  0  0  0  0
  1 89  1  0  0  0  0
  2  3  1  0  0  0  0
  2  5  1  0  0  0  0
  2 90  1  1  0  0  0
  3  4  2  0  0  0  0
  3  9  1  0  0  0  0
  5  6  1  0  0  0  0
  5 91  1  0  0  0  0
  5 92  1  0  0  0  0
  6  7  1  0  0  0  0
  6  8  1  0  0  0  0
  6 93  1  0  0  0  0
  7 94  1  0  0  0  0
  7 95  1  0  0  0  0
  7 96  1  0  0  0  0
  8 97  1  0  0  0  0
  8 98  1  0  0  0  0
  8 99  1  0  0  0  0
  9 10  1  0  0  0  0
  9100  1  0  0  0  0
 10 11  1  0  0  0  0
 10 13  1  0  0  0  0
 10101  1  6  0  0  0
 11 12  2  0  0  0  0
 11 16  1  0  0  0  0
 13 14  1  0  0  0  0
 13 15  1  0  0  0  0
 13102  1  0  0  0  0
 14103  1  0  0  0  0
 14104  1  0  0  0  0
 14105  1  0  0  0  0
 15106  1  0  0  0  0
 15107  1  0  0  0  0
 15108  1  0  0  0  0
 16 17  1  0  0  0  0
 16109  1  0  0  0  0
 17 18  1  0  0  0  0
 17 20  1  0  0  0  0
 17110  1  1  0  0  0
 18 19  2  0  0  0  0
 18 24  1  0  0  0  0
 20 21  1  0  0  0  0
 20 22  1  0  0  0  0
 20111  1  1  0  0  0
 21 23  1  0  0  0  0
 21112  1  0  0  0  0
 21113  1  0  0  0  0
 22114  1  0  0  0  0
 22115  1  0  0  0  0
 22116  1  0  0  0  0
 23117  1  0  0  0  0
 23118  1  0  0  0  0
 23119  1  0  0  0  0
 24 25  1  0  0  0  0
 24120  1  0  0  0  0
 25 26  1  0  0  0  0
 25 28  1  0  0  0  0
 25121  1  6  0  0  0
 26 27  2  0  0  0  0
 26 29  1  0  0  0  0
 28122  1  0  0  0  0
 28123  1  0  0  0  0
 28124  1  0  0  0  0
 29 30  1  0  0  0  0
 29125  1  0  0  0  0
 30 31  1  0  0  0  0
 30126  1  0  0  0  0
 30127  1  0  0  0  0
 31 32  2  0  0  0  0
 31 33  1  0  0  0  0
 33 34  1  0  0  0  0
 33128  1  0  0  0  0
 34 35  1  0  0  0  0
 34 37  1  0  0  0  0
 34129  1  1  0  0  0
 35 36  2  0  0  0  0
 35 41  1  0  0  0  0
 37 38  1  0  0  0  0
 37130  1  0  0  0  0
 37131  1  0  0  0  0
 38 39  2  0  0  0  0
 38 40  1  0  0  0  0
 40132  1  0  0  0  0
 40133  1  0  0  0  0
 41 42  1  0  0  0  0
 41 47  1  0  0  0  0
 42 43  1  0  0  0  0
 42 45  1  0  0  0  0
 42134  1  6  0  0  0
 43 44  2  0  0  0  0
 43 48  1  0  0  0  0
 45 46  1  0  0  0  0
 45135  1  0  0  0  0
 45136  1  0  0  0  0
 46 47  1  0  0  0  0
 46137  1  0  0  0  0
 46138  1  0  0  0  0
 47139  1  0  0  0  0
 47140  1  0  0  0  0
 48 49  1  0  0  0  0
 48141  1  0  0  0  0
 49 50  1  0  0  0  0
 49 52  1  0  0  0  0
 49142  1  6  0  0  0
 50 51  2  0  0  0  0
 50 53  1  0  0  0  0
 52143  1  0  0  0  0
 52144  1  0  0  0  0
 52145  1  0  0  0  0
 53 54  1  0  0  0  0
 53146  1  0  0  0  0
 54 55  1  0  0  0  0
 54 57  1  0  0  0  0
 54147  1  1  0  0  0
 55 56  2  0  0  0  0
 55 69  1  0  0  0  0
 57 58  1  0  0  0  0
 57148  1  0  0  0  0
 57149  1  0  0  0  0
 58 59  2  0  0  0  0
 58 60  1  0  0  0  0
 59 61  1  0  0  0  0
 59150  1  0  0  0  0
 60 62  2  0  0  0  0
 60151  1  0  0  0  0
 61 63  2  0  0  0  0
 61152  1  0  0  0  0
 62 63  1  0  0  0  0
 62153  1  0  0  0  0
 63 64  1  0  0  0  0
 64 65  1  0  0  0  0
 65 66  1  0  0  0  0
 65 67  1  0  0  0  0
 65 68  2  0  0  0  0
 69 70  1  0  0  0  0
 69154  1  0  0  0  0
 70 71  1  0  0  0  0
 70 73  1  0  0  0  0
 70155  1  1  0  0  0
 71 72  2  0  0  0  0
 71 80  1  0  0  0  0
 73 74  1  0  0  0  0
 73156  1  0  0  0  0
 73157  1  0  0  0  0
 74 75  1  0  0  0  0
 74158  1  0  0  0  0
 74159  1  0  0  0  0
 75 76  1  0  0  0  0
 75160  1  0  0  0  0
 75161  1  0  0  0  0
 76 77  1  0  0  0  0
 76162  1  0  0  0  0
 77 78  1  0  0  0  0
 77 79  1  0  0  0  0
 78163  1  0  0  0  0
 78164  1  0  0  0  0
 79165  1  0  0  0  0
 79166  1  0  0  0  0
 80 81  1  0  0  0  0
 80167  1  0  0  0  0
 81 82  1  0  0  0  0
 81 84  1  0  0  0  0
 81168  1  6  0  0  0
 82 83  1  0  0  0  0
 82 86  2  0  0  0  0
 84 85  1  0  0  0  0
 84169  1  0  0  0  0
 84170  1  0  0  0  0
 85171  1  0  0  0  0
M  CHG  2   1   1  83  -1
M  END
