1is0_ligand
 OpenBabel08222323343D

 81 82  0  0  1  0  0  0  0  0999 V2000
    7.8370   24.9000   16.3810 C   0  0  0  0  0  0  0  0  0  0  0  0
    8.7810   24.1480   16.2120 O   0  0  0  0  0  0  0  0  0  0  0  0
    6.5880   24.6510   15.8960 N   0  0  0  0  0  0  0  0  0  0  0  0
    6.1530   23.2890   15.6310 C   0  0  0  0  0  0  0  0  0  0  0  0
    9.3010   26.3550   17.6510 C   0  0  2  0  0  0  0  0  0  0  0  0
    9.6870   26.8830   19.0660 C   0  0  0  0  0  0  0  0  0  0  0  0
    8.9160   27.6660   19.6390 O   0  0  0  0  0  0  0  0  0  0  0  0
    8.6370   27.4180   16.6660 C   0  0  1  0  0  0  0  0  0  0  0  0
    9.4100   27.4180   15.3290 C   0  0  0  0  0  0  0  0  0  0  0  0
   10.8360   27.3960   15.1820 C   0  0  0  0  0  0  0  0  0  0  0  0
    8.6210   27.4240   14.1560 C   0  0  0  0  0  0  0  0  0  0  0  0
   11.3900   27.3910   13.8780 C   0  0  0  0  0  0  0  0  0  0  0  0
    9.1700   27.4180   12.8650 C   0  0  0  0  0  0  0  0  0  0  0  0
   10.5820   27.4060   12.7530 C   0  0  0  0  0  0  0  0  0  0  0  0
   11.1660   27.4180   11.4500 O   0  0  0  0  0  0  0  0  0  0  0  0
    7.8950   26.2190   17.1280 C   0  0  1  0  0  0  0  0  0  0  0  0
   11.0530   26.2160   10.3550 P   0  0  0  0  0  0  0  0  0  0  0  0
    9.6660   26.3070    9.6790 O   0  0  0  0  0  1  0  0  0  0  0  0
   11.2930   24.9470   11.1210 O   0  0  0  0  0  1  0  0  0  0  0  0
   12.1550   26.5770    9.3360 O   0  0  0  0  0  0  0  0  0  0  0  0
   13.8710   32.0391   27.6478 O   0  5  0  0  0  0  0  0  0  0  0  0
    5.9643   25.4127   15.7206 H   0  0  0  0  0  0  0  0  0  0  0  0
    5.1222   23.3015   15.2472 H   0  0  0  0  0  0  0  0  0  0  0  0
    6.1905   22.7044   16.5620 H   0  0  0  0  0  0  0  0  0  0  0  0
    6.8171   22.8309   14.8833 H   0  0  0  0  0  0  0  0  0  0  0  0
   10.0663   25.6434   17.3076 H   0  0  0  0  0  0  0  0  0  0  0  0
    8.3110   28.4265   16.9603 H   0  0  0  0  0  0  0  0  0  0  0  0
   11.4797   27.3834   16.0541 H   0  0  0  0  0  0  0  0  0  0  0  0
    7.5419   27.4337   14.2588 H   0  0  0  0  0  0  0  0  0  0  0  0
   12.4673   27.3751   13.7584 H   0  0  0  0  0  0  0  0  0  0  0  0
    8.5367   27.4224   11.9852 H   0  0  0  0  0  0  0  0  0  0  0  0
    6.9967   26.3704   17.7445 H   0  0  0  0  0  0  0  0  0  0  0  0
   11.4110   25.8357   19.1785 H   0  0  0  0  0  0  0  0  0  0  0  0
   10.2057   26.6344   21.6190 H   0  0  0  0  0  0  0  0  0  0  0  0
   12.4049   26.3401   22.6637 H   0  0  0  0  0  0  0  0  0  0  0  0
   13.1692   26.2732   21.0395 H   0  0  0  0  0  0  0  0  0  0  0  0
   12.9968   24.0588   21.8815 H   0  0  0  0  0  0  0  0  0  0  0  0
   11.8037   24.2511   20.5525 H   0  0  0  0  0  0  0  0  0  0  0  0
   10.8002   28.0083   23.2334 H   0  0  0  0  0  0  0  0  0  0  0  0
   11.8076   30.6734   22.3001 H   0  0  0  0  0  0  0  0  0  0  0  0
   10.7910   26.4520   19.6640 N   0  0  0  0  0  0  0  0  0  0  0  0
   11.1080   26.8760   21.0380 C   0  0  2  0  0  0  0  0  0  0  0  0
   11.4100   28.3380   21.3510 C   0  0  0  0  0  0  0  0  0  0  0  0
   11.8540   29.1030   20.5020 O   0  0  0  0  0  0  0  0  0  0  0  0
   12.2610   26.0410   21.6150 C   0  0  0  0  0  0  0  0  0  0  0  0
   12.0580   24.5470   21.5810 C   0  0  0  0  0  0  0  0  0  0  0  0
   10.9520   24.0780   22.5060 C   0  0  0  0  0  0  0  0  0  0  0  0
   11.0370   24.3060   23.7360 O   0  5  0  0  0  0  0  0  0  0  0  0
   10.0000   23.4660   21.9910 O   0  0  0  0  0  0  0  0  0  0  0  0
   10.4138   31.4064   24.4074 H   0  0  0  0  0  0  0  0  0  0  0  0
   11.1710   28.6930   22.6060 N   0  0  0  0  0  0  0  0  0  0  0  0
   11.4250   30.0400   23.1140 C   0  0  2  0  0  0  0  0  0  0  0  0
   12.4590   29.9630   24.2390 C   0  0  0  0  0  0  0  0  0  0  0  0
   12.5240   28.9550   24.9580 O   0  0  0  0  0  0  0  0  0  0  0  0
   10.1410   30.6410   23.6660 C   0  0  0  0  0  0  0  0  0  0  0  0
    9.2500   31.2800   22.6450 C   0  0  0  0  0  0  0  0  0  0  0  0
    7.9750   31.8210   23.2810 C   0  0  0  0  0  0  0  0  0  0  0  0
    8.0790   32.6100   24.2590 O   0  5  0  0  0  0  0  0  0  0  0  0
    6.8710   31.4530   22.8050 O   0  0  0  0  0  0  0  0  0  0  0  0
    9.5733   29.8384   24.1595 H   0  0  0  0  0  0  0  0  0  0  0  0
   13.2820   31.0050   24.3800 N   0  0  0  0  0  0  0  0  0  0  0  0
   14.2950   31.0520   25.4400 C   0  0  2  0  0  0  0  0  0  0  0  0
   13.8740   32.1740   26.3950 C   0  0  0  0  0  0  0  0  0  0  0  0
   13.5320   33.2400   25.8240 O   0  0  0  0  0  0  0  0  0  0  0  0
   15.7210   31.4300   24.9130 C   0  0  2  0  0  0  0  0  0  0  0  0
   16.2120   30.4310   23.8760 C   0  0  0  0  0  0  0  0  0  0  0  0
   16.7330   31.4540   26.0710 C   0  0  0  0  0  0  0  0  0  0  0  0
   17.5600   30.8200   23.3240 C   0  0  0  0  0  0  0  0  0  0  0  0
    8.9812   30.5311   21.8855 H   0  0  0  0  0  0  0  0  0  0  0  0
    9.7912   32.1096   22.1666 H   0  0  0  0  0  0  0  0  0  0  0  0
   13.2057   31.7743   23.7457 H   0  0  0  0  0  0  0  0  0  0  0  0
   14.3349   30.0832   25.9594 H   0  0  0  0  0  0  0  0  0  0  0  0
   15.6718   32.4285   24.4542 H   0  0  0  0  0  0  0  0  0  0  0  0
   15.4869   30.3887   23.0499 H   0  0  0  0  0  0  0  0  0  0  0  0
   16.2914   29.4394   24.3454 H   0  0  0  0  0  0  0  0  0  0  0  0
   16.3987   32.1710   26.8353 H   0  0  0  0  0  0  0  0  0  0  0  0
   17.7192   31.7576   25.6899 H   0  0  0  0  0  0  0  0  0  0  0  0
   16.8048   30.4506   26.5161 H   0  0  0  0  0  0  0  0  0  0  0  0
   17.8801   30.0758   22.5799 H   0  0  0  0  0  0  0  0  0  0  0  0
   18.2939   30.8593   24.1424 H   0  0  0  0  0  0  0  0  0  0  0  0
   17.4895   31.8086   22.8469 H   0  0  0  0  0  0  0  0  0  0  0  0
  1  3  1  0  0  0  0
  1  2  2  0  0  0  0
  3  4  1  0  0  0  0
  3 22  1  0  0  0  0
  4 23  1  0  0  0  0
  4 24  1  0  0  0  0
  4 25  1  0  0  0  0
  5 16  1  0  0  0  0
  5  8  1  0  0  0  0
  5 26  1  6  0  0  0
  6  5  1  0  0  0  0
  6  7  2  0  0  0  0
  8 16  1  0  0  0  0
  8  9  1  0  0  0  0
  8 27  1  1  0  0  0
  9 11  2  0  0  0  0
  9 10  1  0  0  0  0
 10 12  2  0  0  0  0
 10 28  1  0  0  0  0
 11 13  1  0  0  0  0
 11 29  1  0  0  0  0
 12 14  1  0  0  0  0
 12 30  1  0  0  0  0
 13 14  2  0  0  0  0
 13 31  1  0  0  0  0
 14 15  1  0  0  0  0
 15 17  1  0  0  0  0
 16  1  1  0  0  0  0
 16 32  1  1  0  0  0
 17 20  2  0  0  0  0
 17 19  1  0  0  0  0
 17 18  1  0  0  0  0
 41  6  1  0  0  0  0
 41 33  1  0  0  0  0
 42 34  1  1  0  0  0
 42 45  1  0  0  0  0
 42 41  1  0  0  0  0
 43 42  1  0  0  0  0
 43 44  2  0  0  0  0
 45 35  1  0  0  0  0
 45 36  1  0  0  0  0
 45 46  1  0  0  0  0
 46 37  1  0  0  0  0
 46 38  1  0  0  0  0
 46 47  1  0  0  0  0
 47 48  1  0  0  0  0
 47 49  2  0  0  0  0
 51 39  1  0  0  0  0
 51 43  1  0  0  0  0
 52 40  1  6  0  0  0
 52 55  1  0  0  0  0
 52 51  1  0  0  0  0
 53 52  1  0  0  0  0
 53 54  2  0  0  0  0
 53 61  1  0  0  0  0
 55 50  1  0  0  0  0
 55 60  1  0  0  0  0
 55 56  1  0  0  0  0
 56 57  1  0  0  0  0
 56 69  1  0  0  0  0
 56 70  1  0  0  0  0
 57 58  1  0  0  0  0
 57 59  2  0  0  0  0
 61 62  1  0  0  0  0
 61 71  1  0  0  0  0
 62 63  1  0  0  0  0
 62 65  1  0  0  0  0
 62 72  1  1  0  0  0
 63 21  1  0  0  0  0
 63 64  2  0  0  0  0
 65 66  1  0  0  0  0
 65 67  1  0  0  0  0
 65 73  1  6  0  0  0
 66 68  1  0  0  0  0
 66 74  1  0  0  0  0
 66 75  1  0  0  0  0
 67 76  1  0  0  0  0
 67 77  1  0  0  0  0
 67 78  1  0  0  0  0
 68 79  1  0  0  0  0
 68 80  1  0  0  0  0
 68 81  1  0  0  0  0
M  CHG  3  21  -1  48  -1  58  -1
M  END
