1iwq_ligand
 OpenBabel08222323343D

292296  0  0  1  0  0  0  0  0999 V2000
   15.8280   28.8120  101.1530 N   0  3  0  0  0  0  0  0  0  0  0  0
   16.7090   28.1470  100.1570 C   0  0  2  0  0  0  0  0  0  0  0  0
   16.3120   28.6640   98.7920 C   0  0  0  0  0  0  0  0  0  0  0  0
   15.1420   28.6030   98.4230 O   0  0  0  0  0  0  0  0  0  0  0  0
   16.5600   26.6110  100.2170 C   0  0  0  0  0  0  0  0  0  0  0  0
   17.2590   29.3010   98.1220 N   0  0  0  0  0  0  0  0  0  0  0  0
   17.1010   29.7280   96.7440 C   0  0  2  0  0  0  0  0  0  0  0  0
   16.7500   28.6190   95.7310 C   0  0  0  0  0  0  0  0  0  0  0  0
   17.4580   27.6120   95.6090 O   0  0  0  0  0  0  0  0  0  0  0  0
   18.3830   30.4450   96.2880 C   0  0  0  0  0  0  0  0  0  0  0  0
   15.6670   28.8430   94.9840 N   0  0  0  0  0  0  0  0  0  0  0  0
   15.2320   27.9390   93.9130 C   0  0  2  0  0  0  0  0  0  0  0  0
   15.0630   28.7620   92.6140 C   0  0  0  0  0  0  0  0  0  0  0  0
   14.3620   29.7840   92.5740 O   0  0  0  0  0  0  0  0  0  0  0  0
   13.9540   27.2210   94.3030 C   0  0  0  0  0  0  0  0  0  0  0  0
   15.7540   28.3380   91.5590 N   0  0  0  0  0  0  0  0  0  0  0  0
   15.6600   29.0230   90.2720 C   0  0  2  0  0  0  0  0  0  0  0  0
   14.2240   29.0040   89.7240 C   0  0  0  0  0  0  0  0  0  0  0  0
   13.6100   27.9530   89.6670 O   0  0  0  0  0  0  0  0  0  0  0  0
   16.5780   28.3630   89.2330 C   0  0  0  0  0  0  0  0  0  0  0  0
   16.5710   29.0740   87.9110 C   0  0  0  0  0  0  0  0  0  0  0  0
   17.1500   30.3330   87.7980 C   0  0  0  0  0  0  0  0  0  0  0  0
   15.9520   28.5160   86.7980 C   0  0  0  0  0  0  0  0  0  0  0  0
   17.1230   31.0260   86.5860 C   0  0  0  0  0  0  0  0  0  0  0  0
   15.9240   29.1930   85.5910 C   0  0  0  0  0  0  0  0  0  0  0  0
   16.5070   30.4630   85.4840 C   0  0  0  0  0  0  0  0  0  0  0  0
   13.7220   30.1630   89.2940 N   0  0  0  0  0  0  0  0  0  0  0  0
   12.3560   30.3150   88.7470 C   0  0  2  0  0  0  0  0  0  0  0  0
   11.3270   30.5250   89.8840 C   0  0  0  0  0  0  0  0  0  0  0  0
   10.1520   30.6940   89.6070 O   0  0  0  0  0  0  0  0  0  0  0  0
   11.9500   29.1250   87.8560 C   0  0  0  0  0  0  0  0  0  0  0  0
   11.2910   28.0900   88.5650 O   0  0  0  0  0  0  0  0  0  0  0  0
   11.8050   30.4920   91.1400 N   0  0  0  0  0  0  0  0  0  0  0  0
   10.9890   30.6910   92.3390 C   0  0  2  0  0  0  0  0  0  0  0  0
   11.4580   31.9160   93.1170 C   0  0  0  0  0  0  0  0  0  0  0  0
   12.6410   32.1960   93.1890 O   0  0  0  0  0  0  0  0  0  0  0  0
   11.0910   29.4860   93.2850 C   0  0  0  0  0  0  0  0  0  0  0  0
   10.4730   28.2260   92.7410 C   0  0  0  0  0  0  0  0  0  0  0  0
   11.1300   27.4900   91.7720 C   0  0  0  0  0  0  0  0  0  0  0  0
    9.2530   27.7710   93.2140 C   0  0  0  0  0  0  0  0  0  0  0  0
   10.5710   26.3410   91.2650 C   0  0  0  0  0  0  0  0  0  0  0  0
    8.6970   26.6190   92.7210 C   0  0  0  0  0  0  0  0  0  0  0  0
    9.3660   25.8920   91.7370 C   0  0  0  0  0  0  0  0  0  0  0  0
   10.5190   32.6040   93.7490 N   0  0  0  0  0  0  0  0  0  0  0  0
   10.8310   33.7930   94.5150 C   0  0  2  0  0  0  0  0  0  0  0  0
    9.8250   33.9990   95.6450 C   0  0  0  0  0  0  0  0  0  0  0  0
    8.6020   34.0650   95.4090 O   0  0  0  0  0  0  0  0  0  0  0  0
   10.8160   35.0000   93.5900 C   0  0  0  0  0  0  0  0  0  0  0  0
   11.4690   36.2450   94.1740 C   0  0  0  0  0  0  0  0  0  0  0  0
   10.4600   37.1590   94.8130 C   0  0  0  0  0  0  0  0  0  0  0  0
   10.9510   38.5710   95.0300 C   0  0  0  0  0  0  0  0  0  0  0  0
    9.7780   39.3420   95.5690 N   0  3  0  0  0  0  0  0  0  0  0  0
   10.3200   34.1250   96.8660 N   0  0  0  0  0  0  0  0  0  0  0  0
    9.4190   34.3260   98.0000 C   0  0  2  0  0  0  0  0  0  0  0  0
    8.9470   35.7670   98.1460 C   0  0  0  0  0  0  0  0  0  0  0  0
    9.7310   36.6560   98.3940 O   0  0  0  0  0  0  0  0  0  0  0  0
   10.0590   33.8210   99.2840 C   0  0  0  0  0  0  0  0  0  0  0  0
   10.5500   32.4200   99.1190 C   0  0  0  0  0  0  0  0  0  0  0  0
   10.8500   31.7500  100.3960 C   0  0  0  0  0  0  0  0  0  0  0  0
   11.3340   30.3380  100.1280 C   0  0  0  0  0  0  0  0  0  0  0  0
   12.6260   30.3460   99.3540 N   0  3  0  0  0  0  0  0  0  0  0  0
    7.6570   35.9880   98.0010 N   0  0  0  0  0  0  0  0  0  0  0  0
    7.0980   37.3150   98.1300 C   0  0  2  0  0  0  0  0  0  0  0  0
    6.3260   37.4430   99.4280 C   0  0  0  0  0  0  0  0  0  0  0  0
    5.5520   36.5690   99.7830 O   0  0  0  0  0  0  0  0  0  0  0  0
    6.1660   37.6380   96.9750 C   0  0  0  0  0  0  0  0  0  0  0  0
    5.2480   38.6830   97.3090 O   0  0  0  0  0  0  0  0  0  0  0  0
    6.5460   38.5530  100.1170 N   0  0  0  0  0  0  0  0  0  0  0  0
    5.8260   38.8560  101.3400 C   0  0  2  0  0  0  0  0  0  0  0  0
    4.3530   39.0930  100.9770 C   0  0  0  0  0  0  0  0  0  0  0  0
    3.4600   38.5220  101.5950 O   0  0  0  0  0  0  0  0  0  0  0  0
    6.3920   40.1200  101.9860 C   0  0  0  0  0  0  0  0  0  0  0  0
    6.1380   40.2280  103.4800 C   0  0  0  0  0  0  0  0  0  0  0  0
    5.2940   39.3490  104.1430 C   0  0  0  0  0  0  0  0  0  0  0  0
    6.7550   41.1950  104.1980 C   0  0  0  0  0  0  0  0  0  0  0  0
    5.0510   39.4470  105.4880 C   0  0  0  0  0  0  0  0  0  0  0  0
    6.5370   41.3050  105.5580 C   0  0  0  0  0  0  0  0  0  0  0  0
    5.6810   40.4090  106.2070 C   0  0  0  0  0  0  0  0  0  0  0  0
    4.1420   39.9040   99.9370 N   0  0  0  0  0  0  0  0  0  0  0  0
    2.8120   40.2860   99.4680 C   0  0  2  0  0  0  0  0  0  0  0  0
    1.9310   39.1130   99.2090 C   0  0  0  0  0  0  0  0  0  0  0  0
    0.8810   38.9810   99.8330 O   0  0  0  0  0  0  0  0  0  0  0  0
    2.8960   41.1110   98.1850 C   0  0  0  0  0  0  0  0  0  0  0  0
    1.5270   41.4530   97.6260 C   0  0  0  0  0  0  0  0  0  0  0  0
    1.6620   42.3500   96.3940 C   0  0  0  0  0  0  0  0  0  0  0  0
    0.3030   42.6000   95.7250 C   0  0  0  0  0  0  0  0  0  0  0  0
    0.4720   43.4420   94.4990 N   0  3  0  0  0  0  0  0  0  0  0  0
    2.3390   38.2780   98.2600 N   0  0  0  0  0  0  0  0  0  0  0  0
    1.5880   37.0810   97.9270 C   0  0  2  0  0  0  0  0  0  0  0  0
    1.4490   36.1810   99.1550 C   0  0  0  0  0  0  0  0  0  0  0  0
    0.4310   35.5220   99.3320 O   0  0  0  0  0  0  0  0  0  0  0  0
    2.2760   36.3070   96.7900 C   0  0  0  0  0  0  0  0  0  0  0  0
    2.2720   37.0030   95.4510 C   0  0  0  0  0  0  0  0  0  0  0  0
    2.7510   36.0240   94.4200 C   0  0  0  0  0  0  0  0  0  0  0  0
    0.8630   37.4780   95.1130 C   0  0  0  0  0  0  0  0  0  0  0  0
    2.4560   36.1540  100.0190 N   0  0  0  0  0  0  0  0  0  0  0  0
    2.3670   35.3430  101.2300 C   0  0  2  0  0  0  0  0  0  0  0  0
    1.2940   35.9480  102.1830 C   0  0  0  0  0  0  0  0  0  0  0  0
    0.6490   35.2530  102.9560 O   0  0  0  0  0  0  0  0  0  0  0  0
    3.7330   35.3210  101.9500 C   0  0  0  0  0  0  0  0  0  0  0  0
    4.7460   34.5660  101.2560 O   0  0  0  0  0  0  0  0  0  0  0  0
    1.1700   37.2650  102.1660 N   0  0  0  0  0  0  0  0  0  0  0  0
    0.1960   37.9210  103.0140 C   0  0  0  0  0  0  0  0  0  0  0  0
   -1.1950   37.4580  102.5770 C   0  0  0  0  0  0  0  0  0  0  0  0
   -1.9520   36.8760  103.3490 O   0  0  0  0  0  0  0  0  0  0  0  0
   -1.5060   37.6750  101.3060 N   0  0  0  0  0  0  0  0  0  0  0  0
   -2.8200   37.2710  100.7740 C   0  0  2  0  0  0  0  0  0  0  0  0
   -3.0710   35.7930  101.0310 C   0  0  0  0  0  0  0  0  0  0  0  0
   -4.1930   35.3890  101.3220 O   0  0  0  0  0  0  0  0  0  0  0  0
   -2.9210   37.5840   99.2880 C   0  0  0  0  0  0  0  0  0  0  0  0
   -3.1160   39.0350   99.0000 C   0  0  0  0  0  0  0  0  0  0  0  0
   -2.0440   39.8270   98.6640 C   0  0  0  0  0  0  0  0  0  0  0  0
   -4.3770   39.6080   99.0900 C   0  0  0  0  0  0  0  0  0  0  0  0
   -2.2100   41.1660   98.4100 C   0  0  0  0  0  0  0  0  0  0  0  0
   -4.5610   40.9440   98.8360 C   0  0  0  0  0  0  0  0  0  0  0  0
   -3.4740   41.7280   98.4940 C   0  0  0  0  0  0  0  0  0  0  0  0
   -2.0080   34.9900  100.9800 N   0  0  0  0  0  0  0  0  0  0  0  0
   -2.1310   33.5480  101.1830 C   0  0  2  0  0  0  0  0  0  0  0  0
   -2.5300   33.2720  102.6120 C   0  0  0  0  0  0  0  0  0  0  0  0
   -2.9620   32.1600  102.9520 O   0  0  0  0  0  0  0  0  0  0  0  0
   -0.7920   32.8300  100.8710 C   0  0  0  0  0  0  0  0  0  0  0  0
   -0.3800   33.0180   99.5360 O   0  0  0  0  0  0  0  0  0  0  0  0
   -2.3610   34.2750  103.4680 N   0  0  0  0  0  0  0  0  0  0  0  0
   -2.6740   34.1280  104.8810 C   0  0  2  0  0  0  0  0  0  0  0  0
   -3.8080   35.0490  105.3340 C   0  0  0  0  0  0  0  0  0  0  0  0
   -4.0320   36.1200  104.7630 O   0  0  0  0  0  0  0  0  0  0  0  0
   -1.4330   34.4180  105.7240 C   0  0  0  0  0  0  0  0  0  0  0  0
   -0.1830   33.7660  105.2150 C   0  0  0  0  0  0  0  0  0  0  0  0
    1.0520   34.1370  105.7280 C   0  0  0  0  0  0  0  0  0  0  0  0
   -0.2260   32.7810  104.2340 C   0  0  0  0  0  0  0  0  0  0  0  0
    2.2220   33.5500  105.2760 C   0  0  0  0  0  0  0  0  0  0  0  0
    0.9400   32.1870  103.7740 C   0  0  0  0  0  0  0  0  0  0  0  0
    2.1660   32.5780  104.2990 C   0  0  0  0  0  0  0  0  0  0  0  0
   -4.5040   34.6370  106.3850 N   0  0  0  0  0  0  0  0  0  0  0  0
   -5.6130   35.4250  106.9120 C   0  0  2  0  0  0  0  0  0  0  0  0
   -5.3890   35.7390  108.3630 C   0  0  0  0  0  0  0  0  0  0  0  0
   -5.8560   36.8050  108.7580 O   0  0  0  0  0  0  0  0  0  0  0  0
   -6.9680   34.7020  106.7480 C   0  0  0  0  0  0  0  0  0  0  0  0
   -8.1890   35.5240  107.2530 C   0  0  0  0  0  0  0  0  0  0  0  0
   -9.5440   34.9090  106.8700 C   0  0  0  0  0  0  0  0  0  0  0  0
  -10.1100   34.0100  107.9680 C   0  0  0  0  0  0  0  0  0  0  0  0
  -10.7830   34.7300  109.1110 N   0  3  0  0  0  0  0  0  0  0  0  0
   -4.7267   34.9152  109.1703 O   0  0  0  0  0  0  0  0  0  0  0  0
   16.0647   28.4904  102.0785 H   0  0  0  0  0  0  0  0  0  0  0  0
   14.8659   28.5859  100.9546 H   0  0  0  0  0  0  0  0  0  0  0  0
   15.9561   29.8105  101.1013 H   0  0  0  0  0  0  0  0  0  0  0  0
   17.7573   28.4103  100.3611 H   0  0  0  0  0  0  0  0  0  0  0  0
   17.2226   26.1489   99.4704 H   0  0  0  0  0  0  0  0  0  0  0  0
   15.5170   26.3351  100.0023 H   0  0  0  0  0  0  0  0  0  0  0  0
   16.8343   26.2549  101.2210 H   0  0  0  0  0  0  0  0  0  0  0  0
   18.1227   29.4970   98.5864 H   0  0  0  0  0  0  0  0  0  0  0  0
   16.2741   30.4532   96.7251 H   0  0  0  0  0  0  0  0  0  0  0  0
   18.2690   30.7711   95.2436 H   0  0  0  0  0  0  0  0  0  0  0  0
   19.2363   29.7552   96.3656 H   0  0  0  0  0  0  0  0  0  0  0  0
   18.5605   31.3215   96.9285 H   0  0  0  0  0  0  0  0  0  0  0  0
   15.1267   29.6653   95.1624 H   0  0  0  0  0  0  0  0  0  0  0  0
   16.0130   27.1821   93.7485 H   0  0  0  0  0  0  0  0  0  0  0  0
   13.6468   26.5501   93.4872 H   0  0  0  0  0  0  0  0  0  0  0  0
   13.1604   27.9597   94.4886 H   0  0  0  0  0  0  0  0  0  0  0  0
   14.1280   26.6325   95.2159 H   0  0  0  0  0  0  0  0  0  0  0  0
   16.3471   27.5378   91.6484 H   0  0  0  0  0  0  0  0  0  0  0  0
   15.9724   30.0682   90.4132 H   0  0  0  0  0  0  0  0  0  0  0  0
   16.2426   27.3272   89.0760 H   0  0  0  0  0  0  0  0  0  0  0  0
   17.6060   28.3603   89.6244 H   0  0  0  0  0  0  0  0  0  0  0  0
   17.6281   30.7820   88.6611 H   0  0  0  0  0  0  0  0  0  0  0  0
   15.4863   27.5403   86.8764 H   0  0  0  0  0  0  0  0  0  0  0  0
   17.5844   32.0039   86.5094 H   0  0  0  0  0  0  0  0  0  0  0  0
   15.4505   28.7403   84.7273 H   0  0  0  0  0  0  0  0  0  0  0  0
   16.4751   31.0003   84.5431 H   0  0  0  0  0  0  0  0  0  0  0  0
   14.3026   30.9757   89.3444 H   0  0  0  0  0  0  0  0  0  0  0  0
   12.3501   31.2172   88.1177 H   0  0  0  0  0  0  0  0  0  0  0  0
   12.8580   28.7086   87.3953 H   0  0  0  0  0  0  0  0  0  0  0  0
   11.2752   29.4929   87.0691 H   0  0  0  0  0  0  0  0  0  0  0  0
   11.8665   27.7561   89.2431 H   0  0  0  0  0  0  0  0  0  0  0  0
   12.7824   30.3202   91.2634 H   0  0  0  0  0  0  0  0  0  0  0  0
    9.9412   30.8290   92.0339 H   0  0  0  0  0  0  0  0  0  0  0  0
   10.5831   29.7416   94.2266 H   0  0  0  0  0  0  0  0  0  0  0  0
   12.1553   29.2913   93.4835 H   0  0  0  0  0  0  0  0  0  0  0  0
   12.0956   27.8225   91.4085 H   0  0  0  0  0  0  0  0  0  0  0  0
    8.7326   28.3318   93.9820 H   0  0  0  0  0  0  0  0  0  0  0  0
   11.0861   25.7877   90.4881 H   0  0  0  0  0  0  0  0  0  0  0  0
    7.7398   26.2742   93.0951 H   0  0  0  0  0  0  0  0  0  0  0  0
    8.9350   24.9767   91.3478 H   0  0  0  0  0  0  0  0  0  0  0  0
    9.5696   32.2943   93.6959 H   0  0  0  0  0  0  0  0  0  0  0  0
   11.8353   33.6833   94.9502 H   0  0  0  0  0  0  0  0  0  0  0  0
    9.7689   35.2393   93.3528 H   0  0  0  0  0  0  0  0  0  0  0  0
   11.3494   34.7325   92.6659 H   0  0  0  0  0  0  0  0  0  0  0  0
   11.9817   36.7895   93.3674 H   0  0  0  0  0  0  0  0  0  0  0  0
   12.2030   35.9387   94.9339 H   0  0  0  0  0  0  0  0  0  0  0  0
   10.1825   36.7367   95.7900 H   0  0  0  0  0  0  0  0  0  0  0  0
    9.5720   37.1987   94.1651 H   0  0  0  0  0  0  0  0  0  0  0  0
   11.2904   39.0076   94.0791 H   0  0  0  0  0  0  0  0  0  0  0  0
   11.7791   38.5802   95.7540 H   0  0  0  0  0  0  0  0  0  0  0  0
   10.0513   40.2982   95.7332 H   0  0  0  0  0  0  0  0  0  0  0  0
    9.4721   38.9266   96.4350 H   0  0  0  0  0  0  0  0  0  0  0  0
    9.0243   39.3182   94.9002 H   0  0  0  0  0  0  0  0  0  0  0  0
   11.3083   34.0828   97.0127 H   0  0  0  0  0  0  0  0  0  0  0  0
    8.5243   33.7137   97.8141 H   0  0  0  0  0  0  0  0  0  0  0  0
    9.3141   33.8487  100.0929 H   0  0  0  0  0  0  0  0  0  0  0  0
   10.9070   34.4716   99.5439 H   0  0  0  0  0  0  0  0  0  0  0  0
   11.4676   32.4414   98.5128 H   0  0  0  0  0  0  0  0  0  0  0  0
    9.7771   31.8394   98.5940 H   0  0  0  0  0  0  0  0  0  0  0  0
    9.9402   31.7142  101.0133 H   0  0  0  0  0  0  0  0  0  0  0  0
   11.6326   32.3104  100.9285 H   0  0  0  0  0  0  0  0  0  0  0  0
   10.5703   29.8006   99.5468 H   0  0  0  0  0  0  0  0  0  0  0  0
   11.4932   29.8245  101.0876 H   0  0  0  0  0  0  0  0  0  0  0  0
   12.9250   29.3975   99.1896 H   0  0  0  0  0  0  0  0  0  0  0  0
   13.3317   30.8338   99.8832 H   0  0  0  0  0  0  0  0  0  0  0  0
   12.4860   30.8119   98.4712 H   0  0  0  0  0  0  0  0  0  0  0  0
    7.0499   35.2200   97.7969 H   0  0  0  0  0  0  0  0  0  0  0  0
    7.9240   38.0415   98.1325 H   0  0  0  0  0  0  0  0  0  0  0  0
    5.5965   36.7340   96.7136 H   0  0  0  0  0  0  0  0  0  0  0  0
    6.7673   37.9554   96.1103 H   0  0  0  0  0  0  0  0  0  0  0  0
    4.6834   38.8568   96.5650 H   0  0  0  0  0  0  0  0  0  0  0  0
    7.2296   39.2024   99.7839 H   0  0  0  0  0  0  0  0  0  0  0  0
    5.9106   38.0131  102.0416 H   0  0  0  0  0  0  0  0  0  0  0  0
    5.9346   40.9918  101.4953 H   0  0  0  0  0  0  0  0  0  0  0  0
    7.4793   40.1342  101.8199 H   0  0  0  0  0  0  0  0  0  0  0  0
    4.8112   38.5592  103.5789 H   0  0  0  0  0  0  0  0  0  0  0  0
    7.4251   41.8883  103.7026 H   0  0  0  0  0  0  0  0  0  0  0  0
    4.3629   38.7633  105.9719 H   0  0  0  0  0  0  0  0  0  0  0  0
    7.0304   42.0874  106.1233 H   0  0  0  0  0  0  0  0  0  0  0  0
    5.5224   40.4830  107.2768 H   0  0  0  0  0  0  0  0  0  0  0  0
    4.9372   40.2695   99.4532 H   0  0  0  0  0  0  0  0  0  0  0  0
    2.3454   40.9014  100.2513 H   0  0  0  0  0  0  0  0  0  0  0  0
    3.4517   40.5350   97.4304 H   0  0  0  0  0  0  0  0  0  0  0  0
    3.4330   42.0464   98.4011 H   0  0  0  0  0  0  0  0  0  0  0  0
    0.9428   41.9794   98.3951 H   0  0  0  0  0  0  0  0  0  0  0  0
    1.0089   40.5248   97.3433 H   0  0  0  0  0  0  0  0  0  0  0  0
    2.3321   41.8635   95.6699 H   0  0  0  0  0  0  0  0  0  0  0  0
    2.0918   43.3150   96.7005 H   0  0  0  0  0  0  0  0  0  0  0  0
   -0.3594   43.1196   96.4330 H   0  0  0  0  0  0  0  0  0  0  0  0
   -0.1453   41.6358   95.4434 H   0  0  0  0  0  0  0  0  0  0  0  0
   -0.4275   43.5973   94.0715 H   0  0  0  0  0  0  0  0  0  0  0  0
    1.0767   42.9680   93.8466 H   0  0  0  0  0  0  0  0  0  0  0  0
    0.8805   44.3277   94.7533 H   0  0  0  0  0  0  0  0  0  0  0  0
    3.1834   38.4786   97.7632 H   0  0  0  0  0  0  0  0  0  0  0  0
    0.5836   37.3797   97.5924 H   0  0  0  0  0  0  0  0  0  0  0  0
    1.7615   35.3417   96.6743 H   0  0  0  0  0  0  0  0  0  0  0  0
    3.3224   36.1323   97.0806 H   0  0  0  0  0  0  0  0  0  0  0  0
    2.9490   37.8694   95.4814 H   0  0  0  0  0  0  0  0  0  0  0  0
    2.7580   36.5066   93.4315 H   0  0  0  0  0  0  0  0  0  0  0  0
    2.0773   35.1547   94.3989 H   0  0  0  0  0  0  0  0  0  0  0  0
    3.7689   35.6930   94.6736 H   0  0  0  0  0  0  0  0  0  0  0  0
    0.5247   38.1944   95.8761 H   0  0  0  0  0  0  0  0  0  0  0  0
    0.1806   36.6156   95.0916 H   0  0  0  0  0  0  0  0  0  0  0  0
    0.8673   37.9668   94.1276 H   0  0  0  0  0  0  0  0  0  0  0  0
    3.2798   36.6917   99.8398 H   0  0  0  0  0  0  0  0  0  0  0  0
    2.0801   34.3160  100.9601 H   0  0  0  0  0  0  0  0  0  0  0  0
    3.5923   34.8775  102.9467 H   0  0  0  0  0  0  0  0  0  0  0  0
    4.0854   36.3576  102.0563 H   0  0  0  0  0  0  0  0  0  0  0  0
    4.8867   34.9433  100.3955 H   0  0  0  0  0  0  0  0  0  0  0  0
    1.7524   37.8111  101.5639 H   0  0  0  0  0  0  0  0  0  0  0  0
    0.2786   39.0123  102.9032 H   0  0  0  0  0  0  0  0  0  0  0  0
    0.3689   37.6449  104.0647 H   0  0  0  0  0  0  0  0  0  0  0  0
   -0.8424   38.1171  100.7026 H   0  0  0  0  0  0  0  0  0  0  0  0
   -3.5954   37.8477  101.2996 H   0  0  0  0  0  0  0  0  0  0  0  0
   -3.7741   37.0282   98.8718 H   0  0  0  0  0  0  0  0  0  0  0  0
   -1.9935   37.2529   98.7981 H   0  0  0  0  0  0  0  0  0  0  0  0
   -1.0547   39.3887   98.5987 H   0  0  0  0  0  0  0  0  0  0  0  0
   -5.2265   38.9929   99.3642 H   0  0  0  0  0  0  0  0  0  0  0  0
   -1.3570   41.7803   98.1452 H   0  0  0  0  0  0  0  0  0  0  0  0
   -5.5505   41.3815   98.9029 H   0  0  0  0  0  0  0  0  0  0  0  0
   -3.6111   42.7840   98.2913 H   0  0  0  0  0  0  0  0  0  0  0  0
   -1.1065   35.3831  100.7988 H   0  0  0  0  0  0  0  0  0  0  0  0
   -2.9089   33.1588  100.5097 H   0  0  0  0  0  0  0  0  0  0  0  0
   -0.9179   31.7526  101.0534 H   0  0  0  0  0  0  0  0  0  0  0  0
   -0.0141   33.2267  101.5400 H   0  0  0  0  0  0  0  0  0  0  0  0
   -0.2617   33.9459   99.3700 H   0  0  0  0  0  0  0  0  0  0  0  0
   -2.0110   35.1499  103.1332 H   0  0  0  0  0  0  0  0  0  0  0  0
   -2.9852   33.0873  105.0546 H   0  0  0  0  0  0  0  0  0  0  0  0
   -1.6183   34.0587  106.7470 H   0  0  0  0  0  0  0  0  0  0  0  0
   -1.2730   35.5062  105.7408 H   0  0  0  0  0  0  0  0  0  0  0  0
    1.1017   34.9000  106.4964 H   0  0  0  0  0  0  0  0  0  0  0  0
   -1.1815   32.4741  103.8243 H   0  0  0  0  0  0  0  0  0  0  0  0
    3.1777   33.8531  105.6882 H   0  0  0  0  0  0  0  0  0  0  0  0
    0.8952   31.4210  103.0083 H   0  0  0  0  0  0  0  0  0  0  0  0
    3.0797   32.1183  103.9401 H   0  0  0  0  0  0  0  0  0  0  0  0
   -4.2645   33.7710  106.8240 H   0  0  0  0  0  0  0  0  0  0  0  0
   -5.6565   36.3703  106.3512 H   0  0  0  0  0  0  0  0  0  0  0  0
   -6.9278   33.7594  107.3136 H   0  0  0  0  0  0  0  0  0  0  0  0
   -7.1162   34.4830  105.6803 H   0  0  0  0  0  0  0  0  0  0  0  0
   -8.1310   36.5341  106.8214 H   0  0  0  0  0  0  0  0  0  0  0  0
   -8.1344   35.5901  108.3496 H   0  0  0  0  0  0  0  0  0  0  0  0
   -9.4141   34.3105  105.9562 H   0  0  0  0  0  0  0  0  0  0  0  0
  -10.2587   35.7226  106.6770 H   0  0  0  0  0  0  0  0  0  0  0  0
   -9.2813   33.4166  108.3816 H   0  0  0  0  0  0  0  0  0  0  0  0
  -10.8491   33.3373  107.5085 H   0  0  0  0  0  0  0  0  0  0  0  0
  -11.1214   34.0561  109.7799 H   0  0  0  0  0  0  0  0  0  0  0  0
  -11.5569   35.2710  108.7582 H   0  0  0  0  0  0  0  0  0  0  0  0
  -10.1202   35.3437  109.5584 H   0  0  0  0  0  0  0  0  0  0  0  0
   -5.2952   34.6465  109.8825 H   0  0  0  0  0  0  0  0  0  0  0  0
  1144  1  0  0  0  0
  1145  1  0  0  0  0
  1146  1  0  0  0  0
  2  1  1  0  0  0  0
  2  5  1  0  0  0  0
  2147  1  1  0  0  0
  3  2  1  0  0  0  0
  3  4  2  0  0  0  0
  5148  1  0  0  0  0
  5149  1  0  0  0  0
  5150  1  0  0  0  0
  6  3  1  0  0  0  0
  6151  1  0  0  0  0
  7  6  1  0  0  0  0
  7 10  1  0  0  0  0
  7152  1  6  0  0  0
  8  7  1  0  0  0  0
  8  9  2  0  0  0  0
 10153  1  0  0  0  0
 10154  1  0  0  0  0
 10155  1  0  0  0  0
 11  8  1  0  0  0  0
 11156  1  0  0  0  0
 12 11  1  0  0  0  0
 12 15  1  0  0  0  0
 12157  1  6  0  0  0
 13 12  1  0  0  0  0
 13 14  2  0  0  0  0
 15158  1  0  0  0  0
 15159  1  0  0  0  0
 15160  1  0  0  0  0
 16 13  1  0  0  0  0
 16161  1  0  0  0  0
 17 16  1  0  0  0  0
 17 20  1  0  0  0  0
 17162  1  1  0  0  0
 18 17  1  0  0  0  0
 18 19  2  0  0  0  0
 20 21  1  0  0  0  0
 20163  1  0  0  0  0
 20164  1  0  0  0  0
 21 22  2  0  0  0  0
 21 23  1  0  0  0  0
 22 24  1  0  0  0  0
 22165  1  0  0  0  0
 23 25  2  0  0  0  0
 23166  1  0  0  0  0
 24 26  2  0  0  0  0
 24167  1  0  0  0  0
 25 26  1  0  0  0  0
 25168  1  0  0  0  0
 26169  1  0  0  0  0
 27 18  1  0  0  0  0
 27170  1  0  0  0  0
 28 27  1  0  0  0  0
 28 31  1  0  0  0  0
 28171  1  6  0  0  0
 29 28  1  0  0  0  0
 29 30  2  0  0  0  0
 31 32  1  0  0  0  0
 31172  1  0  0  0  0
 31173  1  0  0  0  0
 32174  1  0  0  0  0
 33 29  1  0  0  0  0
 33175  1  0  0  0  0
 34 33  1  0  0  0  0
 34 37  1  0  0  0  0
 34176  1  6  0  0  0
 35 34  1  0  0  0  0
 35 36  2  0  0  0  0
 37 38  1  0  0  0  0
 37177  1  0  0  0  0
 37178  1  0  0  0  0
 38 39  2  0  0  0  0
 38 40  1  0  0  0  0
 39 41  1  0  0  0  0
 39179  1  0  0  0  0
 40 42  2  0  0  0  0
 40180  1  0  0  0  0
 41 43  2  0  0  0  0
 41181  1  0  0  0  0
 42 43  1  0  0  0  0
 42182  1  0  0  0  0
 43183  1  0  0  0  0
 44 35  1  0  0  0  0
 44184  1  0  0  0  0
 45 44  1  0  0  0  0
 45 48  1  0  0  0  0
 45185  1  1  0  0  0
 46 45  1  0  0  0  0
 46 47  2  0  0  0  0
 48 49  1  0  0  0  0
 48186  1  0  0  0  0
 48187  1  0  0  0  0
 49 50  1  0  0  0  0
 49188  1  0  0  0  0
 49189  1  0  0  0  0
 50 51  1  0  0  0  0
 50190  1  0  0  0  0
 50191  1  0  0  0  0
 51 52  1  0  0  0  0
 51192  1  0  0  0  0
 51193  1  0  0  0  0
 52194  1  0  0  0  0
 52195  1  0  0  0  0
 52196  1  0  0  0  0
 53 46  1  0  0  0  0
 53197  1  0  0  0  0
 54 53  1  0  0  0  0
 54 57  1  0  0  0  0
 54198  1  6  0  0  0
 55 54  1  0  0  0  0
 55 56  2  0  0  0  0
 57 58  1  0  0  0  0
 57199  1  0  0  0  0
 57200  1  0  0  0  0
 58 59  1  0  0  0  0
 58201  1  0  0  0  0
 58202  1  0  0  0  0
 59 60  1  0  0  0  0
 59203  1  0  0  0  0
 59204  1  0  0  0  0
 60 61  1  0  0  0  0
 60205  1  0  0  0  0
 60206  1  0  0  0  0
 61207  1  0  0  0  0
 61208  1  0  0  0  0
 61209  1  0  0  0  0
 62 55  1  0  0  0  0
 62210  1  0  0  0  0
 63 62  1  0  0  0  0
 63 66  1  0  0  0  0
 63211  1  1  0  0  0
 64 63  1  0  0  0  0
 64 65  2  0  0  0  0
 66 67  1  0  0  0  0
 66212  1  0  0  0  0
 66213  1  0  0  0  0
 67214  1  0  0  0  0
 68 64  1  0  0  0  0
 68215  1  0  0  0  0
 69 68  1  0  0  0  0
 69 72  1  0  0  0  0
 69216  1  1  0  0  0
 70 69  1  0  0  0  0
 70 71  2  0  0  0  0
 72 73  1  0  0  0  0
 72217  1  0  0  0  0
 72218  1  0  0  0  0
 73 74  2  0  0  0  0
 73 75  1  0  0  0  0
 74 76  1  0  0  0  0
 74219  1  0  0  0  0
 75 77  2  0  0  0  0
 75220  1  0  0  0  0
 76 78  2  0  0  0  0
 76221  1  0  0  0  0
 77 78  1  0  0  0  0
 77222  1  0  0  0  0
 78223  1  0  0  0  0
 79 70  1  0  0  0  0
 79224  1  0  0  0  0
 80 79  1  0  0  0  0
 80 83  1  0  0  0  0
 80225  1  1  0  0  0
 81 80  1  0  0  0  0
 81 82  2  0  0  0  0
 83 84  1  0  0  0  0
 83226  1  0  0  0  0
 83227  1  0  0  0  0
 84 85  1  0  0  0  0
 84228  1  0  0  0  0
 84229  1  0  0  0  0
 85 86  1  0  0  0  0
 85230  1  0  0  0  0
 85231  1  0  0  0  0
 86 87  1  0  0  0  0
 86232  1  0  0  0  0
 86233  1  0  0  0  0
 87234  1  0  0  0  0
 87235  1  0  0  0  0
 87236  1  0  0  0  0
 88 81  1  0  0  0  0
 88237  1  0  0  0  0
 89 88  1  0  0  0  0
 89 92  1  0  0  0  0
 89238  1  6  0  0  0
 90 89  1  0  0  0  0
 90 91  2  0  0  0  0
 92 93  1  0  0  0  0
 92239  1  0  0  0  0
 92240  1  0  0  0  0
 93 94  1  0  0  0  0
 93 95  1  0  0  0  0
 93241  1  0  0  0  0
 94242  1  0  0  0  0
 94243  1  0  0  0  0
 94244  1  0  0  0  0
 95245  1  0  0  0  0
 95246  1  0  0  0  0
 95247  1  0  0  0  0
 96 90  1  0  0  0  0
 96248  1  0  0  0  0
 97 96  1  0  0  0  0
 97100  1  0  0  0  0
 97249  1  6  0  0  0
 98 97  1  0  0  0  0
 98 99  2  0  0  0  0
100101  1  0  0  0  0
100250  1  0  0  0  0
100251  1  0  0  0  0
101252  1  0  0  0  0
102 98  1  0  0  0  0
102253  1  0  0  0  0
103102  1  0  0  0  0
103254  1  0  0  0  0
103255  1  0  0  0  0
104103  1  0  0  0  0
104105  2  0  0  0  0
106104  1  0  0  0  0
106256  1  0  0  0  0
107106  1  0  0  0  0
107110  1  0  0  0  0
107257  1  1  0  0  0
108107  1  0  0  0  0
108109  2  0  0  0  0
110111  1  0  0  0  0
110258  1  0  0  0  0
110259  1  0  0  0  0
111112  2  0  0  0  0
111113  1  0  0  0  0
112114  1  0  0  0  0
112260  1  0  0  0  0
113115  2  0  0  0  0
113261  1  0  0  0  0
114116  2  0  0  0  0
114262  1  0  0  0  0
115116  1  0  0  0  0
115263  1  0  0  0  0
116264  1  0  0  0  0
117108  1  0  0  0  0
117265  1  0  0  0  0
118117  1  0  0  0  0
118121  1  0  0  0  0
118266  1  6  0  0  0
119118  1  0  0  0  0
119120  2  0  0  0  0
121122  1  0  0  0  0
121267  1  0  0  0  0
121268  1  0  0  0  0
122269  1  0  0  0  0
123119  1  0  0  0  0
123270  1  0  0  0  0
124123  1  0  0  0  0
124127  1  0  0  0  0
124271  1  1  0  0  0
125124  1  0  0  0  0
125126  2  0  0  0  0
125134  1  0  0  0  0
127128  1  0  0  0  0
127272  1  0  0  0  0
127273  1  0  0  0  0
128129  2  0  0  0  0
128130  1  0  0  0  0
129131  1  0  0  0  0
129274  1  0  0  0  0
130132  2  0  0  0  0
130275  1  0  0  0  0
131133  2  0  0  0  0
131276  1  0  0  0  0
132133  1  0  0  0  0
132277  1  0  0  0  0
133278  1  0  0  0  0
134135  1  0  0  0  0
134279  1  0  0  0  0
135138  1  0  0  0  0
135136  1  0  0  0  0
135280  1  6  0  0  0
136137  2  0  0  0  0
136143  1  0  0  0  0
138139  1  0  0  0  0
138281  1  0  0  0  0
138282  1  0  0  0  0
139140  1  0  0  0  0
139283  1  0  0  0  0
139284  1  0  0  0  0
140141  1  0  0  0  0
140285  1  0  0  0  0
140286  1  0  0  0  0
141142  1  0  0  0  0
141287  1  0  0  0  0
141288  1  0  0  0  0
142289  1  0  0  0  0
142290  1  0  0  0  0
142291  1  0  0  0  0
143292  1  0  0  0  0
M  CHG  5   1   1  52   1  61   1  87   1 142   1
M  END
