1j07_ligand
 OpenBabel08222323343D

 80 83  0  0  1  0  0  0  0  0999 V2000
   39.1110   24.0780    4.9510 C   0  0  0  0  0  0  0  0  0  0  0  0
   38.8710   24.0030    3.4080 C   0  0  0  0  0  0  0  0  0  0  0  0
   39.0990   22.6660    2.6670 C   0  0  0  0  0  0  0  0  0  0  0  0
   40.5850   22.2530    2.7240 C   0  0  0  0  0  0  0  0  0  0  0  0
   41.3310   22.5260    1.4350 C   0  0  0  0  0  0  0  0  0  0  0  0
   42.6340   21.9620    1.3120 C   0  0  0  0  0  0  0  0  0  0  0  0
   43.3210   22.1700   -0.0310 C   0  0  0  0  0  0  0  0  0  0  0  0
   44.8520   22.3810    0.0780 C   0  0  0  0  0  0  0  0  0  0  0  0
   45.5940   21.6890   -1.0650 C   0  0  0  0  0  0  0  0  0  0  0  0
   46.8360   22.4100   -1.6650 C   0  0  0  0  0  0  0  0  0  0  0  0
   48.1670   21.7190   -1.4410 N   0  3  0  0  0  0  0  0  0  0  0  0
   49.2410   22.5990   -1.9150 C   0  0  0  0  0  0  0  0  0  0  0  0
   48.2580   20.4360   -2.1980 C   0  0  0  0  0  0  0  0  0  0  0  0
   48.4280   21.4380   -0.0070 C   0  0  0  0  0  0  0  0  0  0  0  0
   41.1840   27.2100    9.4870 C   0  0  0  0  0  0  0  0  0  0  0  0
   40.5310   26.6970    8.3210 C   0  0  0  0  0  0  0  0  0  0  0  0
   41.3240   26.6900    7.0560 C   0  0  0  0  0  0  0  0  0  0  0  0
   42.6540   27.2670    7.1170 C   0  0  0  0  0  0  0  0  0  0  0  0
   43.2470   27.7800    8.3040 C   0  0  0  0  0  0  0  0  0  0  0  0
   42.5070   27.7480    9.5050 C   0  0  0  0  0  0  0  0  0  0  0  0
   40.8850   25.8360    5.9780 C   0  0  0  0  0  0  0  0  0  0  0  0
   39.6310   25.1270    6.0400 N   0  0  0  0  0  0  0  0  0  0  0  0
   38.7860   25.3030    7.1850 C   0  0  2  0  0  3  0  0  0  0  0  0
   39.2080   26.1640    8.3120 C   0  0  0  0  0  0  0  0  0  0  0  0
   37.5680   24.5520    7.4130 C   0  0  0  0  0  0  0  0  0  0  0  0
   36.7870   24.5880    8.5990 C   0  0  0  0  0  0  0  0  0  0  0  0
   37.2100   25.4110    9.6390 C   0  0  0  0  0  0  0  0  0  0  0  0
   38.3960   26.1710    9.4660 C   0  0  0  0  0  0  0  0  0  0  0  0
   41.7560   25.7440    4.7550 C   0  0  0  0  0  0  0  0  0  0  0  0
   42.7740   24.7330    4.6830 C   0  0  0  0  0  0  0  0  0  0  0  0
   43.6430   24.6720    3.5560 C   0  0  0  0  0  0  0  0  0  0  0  0
   43.5050   25.6050    2.5000 C   0  0  0  0  0  0  0  0  0  0  0  0
   42.4920   26.6070    2.5640 C   0  0  0  0  0  0  0  0  0  0  0  0
   41.6180   26.6730    3.6940 C   0  0  0  0  0  0  0  0  0  0  0  0
   44.5400   28.3370    8.3040 N   0  0  0  0  0  0  0  0  0  0  0  0
   35.6220   23.8150    8.7690 N   0  0  0  0  0  0  0  0  0  0  0  0
   39.7958   23.2322    5.1115 H   0  0  0  0  0  0  0  0  0  0  0  0
   38.1156   23.8236    5.3441 H   0  0  0  0  0  0  0  0  0  0  0  0
   39.5385   24.7440    2.9439 H   0  0  0  0  0  0  0  0  0  0  0  0
   37.8242   24.2917    3.2325 H   0  0  0  0  0  0  0  0  0  0  0  0
   38.7969   22.7806    1.6155 H   0  0  0  0  0  0  0  0  0  0  0  0
   38.4889   21.8828    3.1406 H   0  0  0  0  0  0  0  0  0  0  0  0
   40.6402   21.1755    2.9381 H   0  0  0  0  0  0  0  0  0  0  0  0
   41.0726   22.8135    3.5352 H   0  0  0  0  0  0  0  0  0  0  0  0
   41.4302   23.6168    1.3331 H   0  0  0  0  0  0  0  0  0  0  0  0
   40.7201   22.1345    0.6082 H   0  0  0  0  0  0  0  0  0  0  0  0
   42.5508   20.8788    1.4845 H   0  0  0  0  0  0  0  0  0  0  0  0
   43.2704   22.4094    2.0897 H   0  0  0  0  0  0  0  0  0  0  0  0
   42.8818   23.0564   -0.5120 H   0  0  0  0  0  0  0  0  0  0  0  0
   43.1364   21.2841   -0.6563 H   0  0  0  0  0  0  0  0  0  0  0  0
   45.2030   21.9670    1.0348 H   0  0  0  0  0  0  0  0  0  0  0  0
   45.0679   23.4591    0.0437 H   0  0  0  0  0  0  0  0  0  0  0  0
   44.8731   21.5419   -1.8828 H   0  0  0  0  0  0  0  0  0  0  0  0
   45.9309   20.7103   -0.6926 H   0  0  0  0  0  0  0  0  0  0  0  0
   46.8953   23.4122   -1.2156 H   0  0  0  0  0  0  0  0  0  0  0  0
   46.6817   22.5033   -2.7501 H   0  0  0  0  0  0  0  0  0  0  0  0
   50.2130   22.1086   -1.7579 H   0  0  0  0  0  0  0  0  0  0  0  0
   49.2133   23.5456   -1.3554 H   0  0  0  0  0  0  0  0  0  0  0  0
   49.1021   22.8025   -2.9870 H   0  0  0  0  0  0  0  0  0  0  0  0
   47.4622   19.7549   -1.8621 H   0  0  0  0  0  0  0  0  0  0  0  0
   49.2386   19.9719   -2.0165 H   0  0  0  0  0  0  0  0  0  0  0  0
   48.1402   20.6355   -3.2733 H   0  0  0  0  0  0  0  0  0  0  0  0
   48.3650   22.3740    0.5674 H   0  0  0  0  0  0  0  0  0  0  0  0
   49.4335   21.0062    0.1050 H   0  0  0  0  0  0  0  0  0  0  0  0
   47.6790   20.7257    0.3693 H   0  0  0  0  0  0  0  0  0  0  0  0
   40.6359   27.1887   10.4220 H   0  0  0  0  0  0  0  0  0  0  0  0
   43.2318   27.3098    6.2008 H   0  0  0  0  0  0  0  0  0  0  0  0
   42.9356   28.1256   10.4263 H   0  0  0  0  0  0  0  0  0  0  0  0
   37.2239   23.9087    6.6112 H   0  0  0  0  0  0  0  0  0  0  0  0
   36.6450   25.4702   10.5622 H   0  0  0  0  0  0  0  0  0  0  0  0
   38.7030   26.8087   10.2871 H   0  0  0  0  0  0  0  0  0  0  0  0
   42.8811   24.0150    5.4880 H   0  0  0  0  0  0  0  0  0  0  0  0
   44.4118   23.9094    3.5067 H   0  0  0  0  0  0  0  0  0  0  0  0
   44.1684   25.5578    1.6440 H   0  0  0  0  0  0  0  0  0  0  0  0
   42.3844   27.3199    1.7545 H   0  0  0  0  0  0  0  0  0  0  0  0
   40.8485   27.4352    3.7389 H   0  0  0  0  0  0  0  0  0  0  0  0
   45.0886   28.3653    7.4327 H   0  0  0  0  0  0  0  0  0  0  0  0
   44.9374   28.7162    9.1753 H   0  0  0  0  0  0  0  0  0  0  0  0
   35.2959   23.2011    8.0090 H   0  0  0  0  0  0  0  0  0  0  0  0
   35.0962   23.8636    9.6533 H   0  0  0  0  0  0  0  0  0  0  0  0
  1  2  1  0  0  0  0
  1 37  1  0  0  0  0
  1 38  1  0  0  0  0
  2  3  1  0  0  0  0
  2 39  1  0  0  0  0
  2 40  1  0  0  0  0
  3  4  1  0  0  0  0
  3 41  1  0  0  0  0
  3 42  1  0  0  0  0
  4  5  1  0  0  0  0
  4 43  1  0  0  0  0
  4 44  1  0  0  0  0
  5  6  1  0  0  0  0
  5 45  1  0  0  0  0
  5 46  1  0  0  0  0
  6  7  1  0  0  0  0
  6 47  1  0  0  0  0
  6 48  1  0  0  0  0
  7  8  1  0  0  0  0
  7 49  1  0  0  0  0
  7 50  1  0  0  0  0
  8  9  1  0  0  0  0
  8 51  1  0  0  0  0
  8 52  1  0  0  0  0
  9 10  1  0  0  0  0
  9 53  1  0  0  0  0
  9 54  1  0  0  0  0
 10 11  1  0  0  0  0
 10 55  1  0  0  0  0
 10 56  1  0  0  0  0
 11 12  1  0  0  0  0
 11 13  1  0  0  0  0
 11 14  1  0  0  0  0
 12 57  1  0  0  0  0
 12 58  1  0  0  0  0
 12 59  1  0  0  0  0
 13 60  1  0  0  0  0
 13 61  1  0  0  0  0
 13 62  1  0  0  0  0
 14 63  1  0  0  0  0
 14 64  1  0  0  0  0
 14 65  1  0  0  0  0
 15 20  2  0  0  0  0
 15 66  1  0  0  0  0
 16 15  1  0  0  0  0
 16 24  2  0  0  0  0
 17 16  1  0  0  0  0
 17 18  1  0  0  0  0
 18 19  2  0  0  0  0
 18 67  1  0  0  0  0
 19 20  1  0  0  0  0
 19 35  1  0  0  0  0
 20 68  1  0  0  0  0
 21 17  2  0  0  0  0
 21 29  1  0  0  0  0
 22  1  1  0  0  0  0
 22 21  1  0  0  0  0
 22 23  1  0  0  0  0
 23 24  1  1  0  0  0
 23 25  1  0  0  0  0
 24 28  1  0  0  0  0
 25 26  2  0  0  0  0
 25 69  1  0  0  0  0
 26 27  1  0  0  0  0
 26 36  1  0  0  0  0
 27 28  2  0  0  0  0
 27 70  1  0  0  0  0
 28 71  1  0  0  0  0
 29 30  2  0  0  0  0
 29 34  1  0  0  0  0
 30 31  1  0  0  0  0
 30 72  1  0  0  0  0
 31 32  2  0  0  0  0
 31 73  1  0  0  0  0
 32 33  1  0  0  0  0
 32 74  1  0  0  0  0
 33 34  2  0  0  0  0
 33 75  1  0  0  0  0
 34 76  1  0  0  0  0
 35 77  1  0  0  0  0
 35 78  1  0  0  0  0
 36 79  1  0  0  0  0
 36 80  1  0  0  0  0
M  CHG  1  11   1
M  END
