1jbd_ligand
 OpenBabel08222323343D

245252  0  0  1  0  0  0  0  0999 V2000
  -15.1460   -4.8690    4.4280 N   0  3  0  0  0  0  0  0  0  0  0  0
  -14.5550   -3.5400    4.4620 C   0  0  2  0  0  0  0  0  0  0  0  0
  -13.0350   -3.6580    4.5430 C   0  0  0  0  0  0  0  0  0  0  0  0
  -12.4760   -3.8460    5.6220 O   0  0  0  0  0  0  0  0  0  0  0  0
  -15.1470   -2.7170    5.6080 C   0  0  0  0  0  0  0  0  0  0  0  0
  -14.2780   -1.5620    6.0480 C   0  0  0  0  0  0  0  0  0  0  0  0
  -13.9630   -1.3210    7.3730 N   0  0  0  0  0  0  0  0  0  0  0  0
  -13.6610   -0.5860    5.3230 C   0  0  0  0  0  0  0  0  0  0  0  0
  -13.1890   -0.2500    7.4330 C   0  0  0  0  0  0  0  0  0  0  0  0
  -13.0060    0.2060    6.1630 N   0  0  0  0  0  0  0  0  0  0  0  0
  -16.1494   -4.7892    4.3745 H   0  0  0  0  0  0  0  0  0  0  0  0
  -14.8930   -5.3708    5.2648 H   0  0  0  0  0  0  0  0  0  0  0  0
  -14.8052   -5.3678    3.6211 H   0  0  0  0  0  0  0  0  0  0  0  0
  -14.8035   -3.0278    3.5208 H   0  0  0  0  0  0  0  0  0  0  0  0
  -15.2990   -3.3834    6.4699 H   0  0  0  0  0  0  0  0  0  0  0  0
  -16.1168   -2.3147    5.2800 H   0  0  0  0  0  0  0  0  0  0  0  0
  -13.6990   -0.4752    4.2403 H   0  0  0  0  0  0  0  0  0  0  0  0
  -12.7719    0.1893    8.3380 H   0  0  0  0  0  0  0  0  0  0  0  0
  -12.4498    1.0312    5.8974 H   0  0  0  0  0  0  0  0  0  0  0  0
  -12.9301   -3.3851    2.5469 H   0  0  0  0  0  0  0  0  0  0  0  0
  -12.4020   -3.5390    3.3820 N   0  0  0  0  0  0  0  0  0  0  0  0
  -10.9530   -3.6290    3.3060 C   0  0  2  0  0  0  0  0  0  0  0  0
  -10.4730   -3.2810    1.8970 C   0  0  0  0  0  0  0  0  0  0  0  0
  -11.2770   -3.1920    0.9680 O   0  0  0  0  0  0  0  0  0  0  0  0
  -10.4700   -5.0340    3.6710 C   0  0  0  0  0  0  0  0  0  0  0  0
   -9.9060   -5.0700    5.0920 C   0  0  0  0  0  0  0  0  0  0  0  0
   -8.3880   -5.2590    5.0760 C   0  0  0  0  0  0  0  0  0  0  0  0
   -7.7990   -4.7470    6.3360 N   0  0  0  0  0  0  0  0  0  0  0  0
   -7.8890   -3.4630    6.7390 C   0  0  0  0  0  3  0  0  0  0  0  0
   -8.5450   -2.5490    5.9940 N   0  0  0  0  0  0  0  0  0  0  0  0
   -7.3270   -3.1140    7.8820 N   0  0  0  0  0  0  0  0  0  0  0  0
  -10.5201   -2.9104    4.0174 H   0  0  0  0  0  0  0  0  0  0  0  0
   -9.6837   -5.3385    2.9646 H   0  0  0  0  0  0  0  0  0  0  0  0
  -11.3158   -5.7339    3.6023 H   0  0  0  0  0  0  0  0  0  0  0  0
  -10.3664   -5.9050    5.6405 H   0  0  0  0  0  0  0  0  0  0  0  0
  -10.1450   -4.1229    5.5978 H   0  0  0  0  0  0  0  0  0  0  0  0
   -7.9615   -4.7083    4.2247 H   0  0  0  0  0  0  0  0  0  0  0  0
   -8.1554   -6.3293    4.9740 H   0  0  0  0  0  0  0  0  0  0  0  0
   -7.2915   -5.4102    6.9389 H   0  0  0  0  0  0  0  0  0  0  0  0
   -8.6060   -1.5718    6.3138 H   0  0  0  0  0  0  0  0  0  0  0  0
   -8.9848   -2.8285    5.1055 H   0  0  0  0  0  0  0  0  0  0  0  0
   -6.8277   -3.8165    8.4460 H   0  0  0  0  0  0  0  0  0  0  0  0
   -7.3880   -2.1393    8.2094 H   0  0  0  0  0  0  0  0  0  0  0  0
   -8.5828   -3.1812    2.5866 H   0  0  0  0  0  0  0  0  0  0  0  0
   -9.1670   -3.0910    1.7800 N   0  0  0  0  0  0  0  0  0  0  0  0
   -8.5700   -2.7540    0.5000 C   0  0  2  0  0  0  0  0  0  0  0  0
   -7.6080   -3.8480    0.0360 C   0  0  0  0  0  0  0  0  0  0  0  0
   -6.4730   -3.5640   -0.3410 O   0  0  0  0  0  0  0  0  0  0  0  0
   -7.7850   -1.4620    0.7300 C   0  0  0  0  0  0  0  0  0  0  0  0
   -8.0280   -0.8200    2.0950 C   0  0  0  0  0  0  0  0  0  0  0  0
   -7.3280   -1.2620    3.2000 C   0  0  0  0  0  0  0  0  0  0  0  0
   -8.9450    0.2040    2.2230 C   0  0  0  0  0  0  0  0  0  0  0  0
   -7.5550   -0.6580    4.4870 C   0  0  0  0  0  0  0  0  0  0  0  0
   -9.1720    0.8070    3.5120 C   0  0  0  0  0  0  0  0  0  0  0  0
   -8.4700    0.3480    4.5770 C   0  0  0  0  0  0  0  0  0  0  0  0
   -8.6810    0.9200    5.7920 O   0  0  0  0  0  0  0  0  0  0  0  0
   -9.3527   -2.6036   -0.2581 H   0  0  0  0  0  0  0  0  0  0  0  0
   -8.0730   -0.7395   -0.0479 H   0  0  0  0  0  0  0  0  0  0  0  0
   -6.7123   -1.6888    0.6408 H   0  0  0  0  0  0  0  0  0  0  0  0
   -6.6067   -2.0647    3.0984 H   0  0  0  0  0  0  0  0  0  0  0  0
   -9.4932    0.5537    1.3557 H   0  0  0  0  0  0  0  0  0  0  0  0
   -7.0118   -0.9949    5.3625 H   0  0  0  0  0  0  0  0  0  0  0  0
   -9.8895    1.6113    3.6277 H   0  0  0  0  0  0  0  0  0  0  0  0
   -8.4725    1.8456    5.7455 H   0  0  0  0  0  0  0  0  0  0  0  0
   -9.0332   -5.2289    0.3998 H   0  0  0  0  0  0  0  0  0  0  0  0
   -8.0970   -5.0810    0.0810 N   0  0  0  0  0  0  0  0  0  0  0  0
   -7.2920   -6.2170   -0.3260 C   0  0  2  0  0  0  0  0  0  0  0  0
   -6.8360   -6.0740   -1.7810 C   0  0  0  0  0  0  0  0  0  0  0  0
   -6.9210   -4.9900   -2.3550 O   0  0  0  0  0  0  0  0  0  0  0  0
   -8.2040   -7.4410   -0.2110 C   0  0  0  0  0  0  0  0  0  0  0  0
   -7.9740   -8.2710    1.0510 C   0  0  0  0  0  0  0  0  0  0  0  0
   -8.6350   -7.9490    2.2210 C   0  0  0  0  0  0  0  0  0  0  0  0
   -7.1090   -9.3470    1.0200 C   0  0  0  0  0  0  0  0  0  0  0  0
   -8.4150   -8.7320    3.4100 C   0  0  0  0  0  0  0  0  0  0  0  0
   -6.8920  -10.1280    2.2120 C   0  0  0  0  0  0  0  0  0  0  0  0
   -7.5570   -9.7830    3.3480 C   0  0  0  0  0  0  0  0  0  0  0  0
   -7.3520  -10.5230    4.4700 O   0  0  0  0  0  0  0  0  0  0  0  0
   -6.4154   -6.3198    0.3305 H   0  0  0  0  0  0  0  0  0  0  0  0
   -8.0299   -8.0854   -1.0853 H   0  0  0  0  0  0  0  0  0  0  0  0
   -9.2483   -7.0956   -0.2122 H   0  0  0  0  0  0  0  0  0  0  0  0
   -9.3185   -7.1079    2.2441 H   0  0  0  0  0  0  0  0  0  0  0  0
   -6.5943   -9.6038    0.1012 H   0  0  0  0  0  0  0  0  0  0  0  0
   -8.9239   -8.4873    4.3353 H   0  0  0  0  0  0  0  0  0  0  0  0
   -6.2129  -10.9729    2.2036 H   0  0  0  0  0  0  0  0  0  0  0  0
   -6.4326  -10.4892    4.7067 H   0  0  0  0  0  0  0  0  0  0  0  0
   -6.3284   -8.0247   -1.7957 H   0  0  0  0  0  0  0  0  0  0  0  0
   -6.3620   -7.1820   -2.3330 N   0  0  0  0  0  0  0  0  0  0  0  0
   -5.8910   -7.1900   -3.7060 C   0  0  2  0  0  0  0  0  0  0  0  0
   -6.8940   -7.9190   -4.6060 C   0  0  0  0  0  0  0  0  0  0  0  0
   -6.5040   -8.6630   -5.4990 O   0  0  0  0  0  0  0  0  0  0  0  0
   -4.5020   -7.8290   -3.8060 C   0  0  0  0  0  0  0  0  0  0  0  0
   -4.6020   -9.3570   -3.8030 C   0  0  0  0  0  0  0  0  0  0  0  0
   -3.9100   -9.9510   -5.0310 C   0  0  0  0  0  0  0  0  0  0  0  0
   -2.6978  -10.0880   -5.0458 O   0  0  0  0  0  0  0  0  0  0  0  0
   -4.7278  -10.2851   -6.0252 O   0  0  0  0  0  0  0  0  0  0  0  0
   -5.8136   -6.1479   -4.0496 H   0  0  0  0  0  0  0  0  0  0  0  0
   -3.8944   -7.5062   -2.9477 H   0  0  0  0  0  0  0  0  0  0  0  0
   -4.0212   -7.5014   -4.7395 H   0  0  0  0  0  0  0  0  0  0  0  0
   -5.6626   -9.6487   -3.8109 H   0  0  0  0  0  0  0  0  0  0  0  0
   -4.1210   -9.7478   -2.8942 H   0  0  0  0  0  0  0  0  0  0  0  0
   -5.6229  -10.0839   -5.7787 H   0  0  0  0  0  0  0  0  0  0  0  0
   -8.4015   -7.0480   -3.5885 H   0  0  0  0  0  0  0  0  0  0  0  0
   -8.1680   -7.6710   -4.3350 N   0  0  0  0  0  0  0  0  0  0  0  0
   -9.2300   -8.2930   -5.1090 C   0  0  2  0  0  0  0  0  0  0  0  0
  -10.4390   -7.3600   -5.1780 C   0  0  0  0  0  0  0  0  0  0  0  0
  -11.4200   -7.6590   -5.8590 O   0  0  0  0  0  0  0  0  0  0  0  0
   -9.6330   -9.6410   -4.5070 C   0  0  0  0  0  0  0  0  0  0  0  0
  -10.8570  -10.1230   -5.0530 O   0  0  0  0  0  0  0  0  0  0  0  0
   -8.8611   -8.4658   -6.1308 H   0  0  0  0  0  0  0  0  0  0  0  0
   -9.7507   -9.5237   -3.4196 H   0  0  0  0  0  0  0  0  0  0  0  0
   -8.8390  -10.3739   -4.7130 H   0  0  0  0  0  0  0  0  0  0  0  0
  -11.5499   -9.4981   -4.8744 H   0  0  0  0  0  0  0  0  0  0  0  0
   -9.4976   -6.0774   -3.9419 H   0  0  0  0  0  0  0  0  0  0  0  0
  -10.3310   -6.2470   -4.4680 N   0  0  0  0  0  0  0  0  0  0  0  0
  -11.4060   -5.2680   -4.4420 C   0  0  2  0  0  0  0  0  0  0  0  0
  -10.9530   -4.0150   -3.6890 C   0  0  0  0  0  0  0  0  0  0  0  0
   -9.9240   -4.0290   -3.0130 O   0  0  0  0  0  0  0  0  0  0  0  0
  -12.6640   -5.8490   -3.7940 C   0  0  0  0  0  0  0  0  0  0  0  0
  -13.6360   -4.8450   -3.5180 O   0  0  0  0  0  0  0  0  0  0  0  0
  -11.6469   -4.9875   -5.4780 H   0  0  0  0  0  0  0  0  0  0  0  0
  -12.3829   -6.3397   -2.8505 H   0  0  0  0  0  0  0  0  0  0  0  0
  -13.1043   -6.5911   -4.4763 H   0  0  0  0  0  0  0  0  0  0  0  0
  -14.3987   -5.2457   -3.1176 H   0  0  0  0  0  0  0  0  0  0  0  0
  -12.5579   -3.0314   -4.4060 H   0  0  0  0  0  0  0  0  0  0  0  0
  -11.7400   -2.9600   -3.8350 N   0  0  0  0  0  0  0  0  0  0  0  0
  -11.4340   -1.7010   -3.1790 C   0  0  2  0  0  0  0  0  0  0  0  0
  -12.6420   -1.2530   -2.3520 C   0  0  0  0  0  0  0  0  0  0  0  0
  -12.5000   -0.4860   -1.4020 O   0  0  0  0  0  0  0  0  0  0  0  0
  -10.9690   -0.6630   -4.2020 C   0  0  0  0  0  0  0  0  0  0  0  0
  -10.1570    0.5110   -3.6470 C   0  0  0  0  0  0  0  0  0  0  0  0
  -11.0740    1.5470   -2.9950 C   0  0  0  0  0  0  0  0  0  0  0  0
   -9.0720    0.0210   -2.6880 C   0  0  0  0  0  0  0  0  0  0  0  0
  -10.5999   -1.8707   -2.4823 H   0  0  0  0  0  0  0  0  0  0  0  0
  -11.8628   -0.2512   -4.6935 H   0  0  0  0  0  0  0  0  0  0  0  0
  -10.3464   -1.1802   -4.9469 H   0  0  0  0  0  0  0  0  0  0  0  0
   -9.6536    1.0004   -4.4938 H   0  0  0  0  0  0  0  0  0  0  0  0
  -10.4687    2.3785   -2.6049 H   0  0  0  0  0  0  0  0  0  0  0  0
  -11.6282    1.0778   -2.1688 H   0  0  0  0  0  0  0  0  0  0  0  0
  -11.7845    1.9298   -3.7424 H   0  0  0  0  0  0  0  0  0  0  0  0
   -8.4389   -0.7198   -3.1983 H   0  0  0  0  0  0  0  0  0  0  0  0
   -9.5423   -0.4425   -1.8082 H   0  0  0  0  0  0  0  0  0  0  0  0
   -8.4540    0.8727   -2.3675 H   0  0  0  0  0  0  0  0  0  0  0  0
  -13.8324   -2.3756   -3.5286 H   0  0  0  0  0  0  0  0  0  0  0  0
  -13.8030   -1.7550   -2.7450 N   0  0  0  0  0  0  0  0  0  0  0  0
  -15.0370   -1.4150   -2.0510 C   0  0  2  0  0  0  0  0  0  0  0  0
  -15.2170   -2.3080   -0.8220 C   0  0  0  0  0  0  0  0  0  0  0  0
  -14.8600   -3.4830   -0.8450 O   0  0  0  0  0  0  0  0  0  0  0  0
  -16.2410   -1.5260   -2.9900 C   0  0  0  0  0  0  0  0  0  0  0  0
  -15.9400   -0.8790   -4.3440 C   0  0  0  0  0  0  0  0  0  0  0  0
  -15.5920    0.6010   -4.1780 C   0  0  0  0  0  0  0  0  0  0  0  0
  -14.4250    0.9566   -4.1839 O   0  0  0  0  0  0  0  0  0  0  0  0
  -16.6346    1.4142   -4.0344 O   0  0  0  0  0  0  0  0  0  0  0  0
  -14.9643   -0.3716   -1.7105 H   0  0  0  0  0  0  0  0  0  0  0  0
  -17.1027   -1.0183   -2.5321 H   0  0  0  0  0  0  0  0  0  0  0  0
  -16.4807   -2.5884   -3.1441 H   0  0  0  0  0  0  0  0  0  0  0  0
  -16.8248   -0.9702   -4.9911 H   0  0  0  0  0  0  0  0  0  0  0  0
  -15.0898   -1.3985   -4.8100 H   0  0  0  0  0  0  0  0  0  0  0  0
  -16.5718    1.8634   -3.1996 H   0  0  0  0  0  0  0  0  0  0  0  0
  -15.1276   -3.0165    1.7500 H   0  0  0  0  0  0  0  0  0  0  0  0
  -15.7820   -1.6950    0.2530 N   0  0  0  0  0  0  0  0  0  0  0  0
  -16.0150   -2.4200    1.4920 C   0  0  2  0  0  0  0  0  0  0  0  0
  -17.2080   -3.3670    1.3560 C   0  0  0  0  0  0  0  0  0  0  0  0
  -17.8450   -3.7180    2.3490 O   0  0  0  0  0  0  0  0  0  0  0  0
  -16.2250   -1.3440    2.5420 C   0  0  0  0  0  0  0  0  0  0  0  0
  -16.5680   -0.0760    1.7810 C   0  0  0  0  0  0  0  0  0  0  0  0
  -16.2170   -0.3040    0.3160 C   0  0  0  0  0  0  0  0  0  0  0  0
  -15.3067   -1.1998    3.1302 H   0  0  0  0  0  0  0  0  0  0  0  0
  -17.0508   -1.6216    3.2135 H   0  0  0  0  0  0  0  0  0  0  0  0
  -17.6419    0.1407    1.8794 H   0  0  0  0  0  0  0  0  0  0  0  0
  -15.9856    0.7683    2.1785 H   0  0  0  0  0  0  0  0  0  0  0  0
  -17.0974   -0.1433   -0.3236 H   0  0  0  0  0  0  0  0  0  0  0  0
  -15.4071    0.3706    0.0014 H   0  0  0  0  0  0  0  0  0  0  0  0
  -16.9091   -3.4319   -0.6369 H   0  0  0  0  0  0  0  0  0  0  0  0
  -17.4770   -3.7600    0.1180 N   0  0  0  0  0  0  0  0  0  0  0  0
  -18.5830   -4.6590   -0.1580 C   0  0  2  0  0  0  0  0  0  0  0  0
  -18.0310   -5.8670   -0.9150 C   0  0  0  0  0  0  0  0  0  0  0  0
  -18.5090   -6.9850   -0.7370 O   0  0  0  0  0  0  0  0  0  0  0  0
  -19.7000   -3.9370   -0.9200 C   0  0  0  0  0  0  0  0  0  0  0  0
  -21.1100   -4.3590   -0.4990 C   0  0  0  0  0  0  0  0  0  0  0  0
  -21.7940   -5.4440   -0.8820 C   0  0  0  0  0  0  0  0  0  0  0  0
  -21.9840   -3.6520    0.4050 C   0  0  0  0  0  0  0  0  0  0  0  0
  -23.0430   -5.4880   -0.2920 N   0  0  0  0  0  0  0  0  0  0  0  0
  -23.1610   -4.3640    0.5140 C   0  0  0  0  0  0  0  0  0  0  0  0
  -21.7900   -2.4470    1.1080 C   0  0  0  0  0  0  0  0  0  0  0  0
  -24.2340   -3.9580    1.3170 C   0  0  0  0  0  0  0  0  0  0  0  0
  -22.8680   -2.0550    1.9070 C   0  0  0  0  0  0  0  0  0  0  0  0
  -24.0630   -2.7600    2.0250 C   0  0  0  0  0  0  0  0  0  0  0  0
  -19.0005   -5.0098    0.7973 H   0  0  0  0  0  0  0  0  0  0  0  0
  -19.5807   -4.1490   -1.9928 H   0  0  0  0  0  0  0  0  0  0  0  0
  -19.5955   -2.8559   -0.7460 H   0  0  0  0  0  0  0  0  0  0  0  0
  -21.4143   -6.1968   -1.5713 H   0  0  0  0  0  0  0  0  0  0  0  0
  -23.7552   -6.2200   -0.4257 H   0  0  0  0  0  0  0  0  0  0  0  0
  -20.8760   -1.8687    1.0351 H   0  0  0  0  0  0  0  0  0  0  0  0
  -25.1469   -4.5383    1.3874 H   0  0  0  0  0  0  0  0  0  0  0  0
  -22.7665   -1.1373    2.4749 H   0  0  0  0  0  0  0  0  0  0  0  0
  -24.8567   -2.3846    2.6608 H   0  0  0  0  0  0  0  0  0  0  0  0
  -16.6992   -4.6626   -1.8268 H   0  0  0  0  0  0  0  0  0  0  0  0
  -17.0310   -5.6020   -1.7410 N   0  0  0  0  0  0  0  0  0  0  0  0
  -16.4080   -6.6550   -2.5250 C   0  0  2  0  0  0  0  0  0  0  0  0
  -15.1410   -7.1710   -1.8420 C   0  0  0  0  0  0  0  0  0  0  0  0
  -14.8360   -8.3610   -1.9080 O   0  0  0  0  0  0  0  0  0  0  0  0
  -16.0270   -6.0150   -3.8650 C   0  0  0  0  0  0  0  0  0  0  0  0
  -17.2020   -5.8620   -4.8350 C   0  0  0  0  0  0  0  0  0  0  0  0
  -18.4890   -6.0920   -4.4020 C   0  0  0  0  0  0  0  0  0  0  0  0
  -16.9660   -5.4930   -6.1460 C   0  0  0  0  0  0  0  0  0  0  0  0
  -19.5930   -5.9490   -5.3170 C   0  0  0  0  0  0  0  0  0  0  0  0
  -18.0720   -5.3460   -7.0570 C   0  0  0  0  0  0  0  0  0  0  0  0
  -19.3270   -5.5820   -6.5990 C   0  0  0  0  0  0  0  0  0  0  0  0
  -20.3720   -5.4460   -7.4620 O   0  0  0  0  0  0  0  0  0  0  0  0
  -17.1126   -7.4860   -2.6767 H   0  0  0  0  0  0  0  0  0  0  0  0
  -15.2619   -6.6435   -4.3441 H   0  0  0  0  0  0  0  0  0  0  0  0
  -15.6097   -5.0168   -3.6661 H   0  0  0  0  0  0  0  0  0  0  0  0
  -18.6714   -6.3805   -3.3732 H   0  0  0  0  0  0  0  0  0  0  0  0
  -15.9526   -5.3150   -6.4872 H   0  0  0  0  0  0  0  0  0  0  0  0
  -20.6110   -6.1296   -4.9912 H   0  0  0  0  0  0  0  0  0  0  0  0
  -17.9050   -5.0529   -8.0872 H   0  0  0  0  0  0  0  0  0  0  0  0
  -21.1835   -5.6408   -7.0081 H   0  0  0  0  0  0  0  0  0  0  0  0
  -12.5743   -7.2296   -1.1221 H   0  0  0  0  0  0  0  0  0  0  0  0
  -14.4180   -6.2260   -1.1870 N   0  0  0  0  0  0  0  0  0  0  0  0
  -13.1890   -6.5710   -0.4910 C   0  0  2  0  0  0  0  0  0  0  0  0
  -13.4870   -7.3020    0.8200 C   0  0  0  0  0  0  0  0  0  0  0  0
  -12.7700   -8.2280    1.1970 O   0  0  0  0  0  0  0  0  0  0  0  0
  -12.4670   -5.2510   -0.2830 C   0  0  0  0  0  0  0  0  0  0  0  0
  -13.5200   -4.1690   -0.4520 C   0  0  0  0  0  0  0  0  0  0  0  0
  -14.7460   -4.8050   -1.0880 C   0  0  0  0  0  0  0  0  0  0  0  0
  -11.6697   -5.1290   -1.0309 H   0  0  0  0  0  0  0  0  0  0  0  0
  -12.0325   -5.2075    0.7266 H   0  0  0  0  0  0  0  0  0  0  0  0
  -13.7840   -3.7480    0.5293 H   0  0  0  0  0  0  0  0  0  0  0  0
  -13.1338   -3.3700   -1.1020 H   0  0  0  0  0  0  0  0  0  0  0  0
  -15.6331   -4.6549   -0.4552 H   0  0  0  0  0  0  0  0  0  0  0  0
  -14.9306   -4.3791   -2.0853 H   0  0  0  0  0  0  0  0  0  0  0  0
  -15.0817   -6.1022    1.1011 H   0  0  0  0  0  0  0  0  0  0  0  0
  -14.5490   -6.8600    1.4780 N   0  0  0  0  0  0  0  0  0  0  0  0
  -14.9510   -7.4600    2.7390 C   0  0  2  0  0  0  0  0  0  0  0  0
  -16.2690   -6.8350    3.1970 C   0  0  0  0  0  0  0  0  0  0  0  0
  -17.3010   -7.0040    2.5460 O   0  0  0  0  0  0  0  0  0  0  0  0
  -13.9060   -7.2100    3.8240 C   0  0  0  0  0  0  0  0  0  0  0  0
  -14.4280   -7.3160    5.2600 C   0  0  0  0  0  0  0  0  0  0  0  0
  -15.2690   -8.1700    5.5730 O   0  5  0  0  0  0  0  0  0  0  0  0
  -13.9250   -6.4580    6.0860 O   0  0  0  0  0  0  0  0  0  0  0  0
  -15.0812   -8.5432    2.5989 H   0  0  0  0  0  0  0  0  0  0  0  0
  -13.5014   -6.1971    3.6816 H   0  0  0  0  0  0  0  0  0  0  0  0
  -13.0999   -7.9479    3.6983 H   0  0  0  0  0  0  0  0  0  0  0  0
  -15.4321   -6.0696    4.6885 H   0  0  0  0  0  0  0  0  0  0  0  0
  -16.3015   -6.1031    4.3070 O   0  0  0  0  0  0  0  0  0  0  0  0
  1 11  1  0  0  0  0
  1 12  1  0  0  0  0
  1 13  1  0  0  0  0
  2  1  1  0  0  0  0
  2  5  1  0  0  0  0
  2 14  1  6  0  0  0
  3  2  1  0  0  0  0
  3  4  2  0  0  0  0
  5  6  1  0  0  0  0
  5 15  1  0  0  0  0
  5 16  1  0  0  0  0
  6  7  1  0  0  0  0
  6  8  2  0  0  0  0
  7  9  2  0  0  0  0
  8 10  1  0  0  0  0
  8 17  1  0  0  0  0
  9 18  1  0  0  0  0
 10  9  1  0  0  0  0
 10 19  1  0  0  0  0
 21 20  1  0  0  0  0
 21  3  1  0  0  0  0
 22 21  1  0  0  0  0
 22 25  1  0  0  0  0
 22 32  1  1  0  0  0
 23 22  1  0  0  0  0
 23 24  2  0  0  0  0
 25 26  1  0  0  0  0
 25 33  1  0  0  0  0
 25 34  1  0  0  0  0
 26 27  1  0  0  0  0
 26 35  1  0  0  0  0
 26 36  1  0  0  0  0
 27 28  1  0  0  0  0
 27 37  1  0  0  0  0
 27 38  1  0  0  0  0
 28 29  1  0  0  0  0
 28 39  1  0  0  0  0
 29 31  1  0  0  0  0
 29 30  1  0  0  0  0
 30 40  1  0  0  0  0
 30 41  1  0  0  0  0
 31 42  1  0  0  0  0
 31 43  1  0  0  0  0
 45 44  1  0  0  0  0
 45 23  1  0  0  0  0
 46 45  1  0  0  0  0
 46 49  1  0  0  0  0
 46 57  1  6  0  0  0
 47 46  1  0  0  0  0
 47 48  2  0  0  0  0
 49 50  1  0  0  0  0
 49 58  1  0  0  0  0
 49 59  1  0  0  0  0
 50 51  2  0  0  0  0
 50 52  1  0  0  0  0
 51 53  1  0  0  0  0
 51 60  1  0  0  0  0
 52 54  2  0  0  0  0
 52 61  1  0  0  0  0
 53 55  2  0  0  0  0
 53 62  1  0  0  0  0
 54 55  1  0  0  0  0
 54 63  1  0  0  0  0
 55 56  1  0  0  0  0
 56 64  1  0  0  0  0
 66 65  1  0  0  0  0
 66 47  1  0  0  0  0
 67 66  1  0  0  0  0
 67 70  1  0  0  0  0
 67 78  1  1  0  0  0
 68 67  1  0  0  0  0
 68 69  2  0  0  0  0
 70 71  1  0  0  0  0
 70 79  1  0  0  0  0
 70 80  1  0  0  0  0
 71 72  2  0  0  0  0
 71 73  1  0  0  0  0
 72 74  1  0  0  0  0
 72 81  1  0  0  0  0
 73 75  2  0  0  0  0
 73 82  1  0  0  0  0
 74 76  2  0  0  0  0
 74 83  1  0  0  0  0
 75 76  1  0  0  0  0
 75 84  1  0  0  0  0
 76 77  1  0  0  0  0
 77 85  1  0  0  0  0
 87 86  1  0  0  0  0
 87 68  1  0  0  0  0
 88 87  1  0  0  0  0
 88 91  1  0  0  0  0
 88 96  1  6  0  0  0
 89 88  1  0  0  0  0
 89 90  2  0  0  0  0
 91 92  1  0  0  0  0
 91 97  1  0  0  0  0
 91 98  1  0  0  0  0
 92 93  1  0  0  0  0
 92 99  1  0  0  0  0
 92100  1  0  0  0  0
 93 95  1  0  0  0  0
 93 94  2  0  0  0  0
 95101  1  0  0  0  0
103102  1  0  0  0  0
103 89  1  0  0  0  0
104103  1  0  0  0  0
104107  1  0  0  0  0
104109  1  6  0  0  0
105104  1  0  0  0  0
105106  2  0  0  0  0
107108  1  0  0  0  0
107110  1  0  0  0  0
107111  1  0  0  0  0
108112  1  0  0  0  0
114113  1  0  0  0  0
114105  1  0  0  0  0
115114  1  0  0  0  0
115118  1  0  0  0  0
115120  1  6  0  0  0
116115  1  0  0  0  0
116117  2  0  0  0  0
118119  1  0  0  0  0
118121  1  0  0  0  0
118122  1  0  0  0  0
119123  1  0  0  0  0
125124  1  0  0  0  0
125116  1  0  0  0  0
126125  1  0  0  0  0
126129  1  0  0  0  0
126133  1  1  0  0  0
127126  1  0  0  0  0
127128  2  0  0  0  0
129130  1  0  0  0  0
129134  1  0  0  0  0
129135  1  0  0  0  0
130131  1  0  0  0  0
130132  1  0  0  0  0
130136  1  0  0  0  0
131137  1  0  0  0  0
131138  1  0  0  0  0
131139  1  0  0  0  0
132140  1  0  0  0  0
132141  1  0  0  0  0
132142  1  0  0  0  0
144143  1  0  0  0  0
144127  1  0  0  0  0
145144  1  0  0  0  0
145148  1  0  0  0  0
145153  1  1  0  0  0
146145  1  0  0  0  0
146147  2  0  0  0  0
148149  1  0  0  0  0
148154  1  0  0  0  0
148155  1  0  0  0  0
149150  1  0  0  0  0
149156  1  0  0  0  0
149157  1  0  0  0  0
150152  1  0  0  0  0
150151  2  0  0  0  0
152158  1  0  0  0  0
160166  1  0  0  0  0
160146  1  0  0  0  0
161159  1  1  0  0  0
161164  1  0  0  0  0
161160  1  0  0  0  0
162161  1  0  0  0  0
162163  2  0  0  0  0
164165  1  0  0  0  0
164167  1  0  0  0  0
164168  1  0  0  0  0
165169  1  0  0  0  0
165170  1  0  0  0  0
166165  1  0  0  0  0
166171  1  0  0  0  0
166172  1  0  0  0  0
174173  1  0  0  0  0
174162  1  0  0  0  0
175174  1  0  0  0  0
175178  1  0  0  0  0
175188  1  1  0  0  0
176175  1  0  0  0  0
176177  2  0  0  0  0
178179  1  0  0  0  0
178189  1  0  0  0  0
178190  1  0  0  0  0
179180  2  0  0  0  0
179181  1  0  0  0  0
180182  1  0  0  0  0
180191  1  0  0  0  0
181184  2  0  0  0  0
181183  1  0  0  0  0
182192  1  0  0  0  0
183185  2  0  0  0  0
183182  1  0  0  0  0
184186  1  0  0  0  0
184193  1  0  0  0  0
185187  1  0  0  0  0
185194  1  0  0  0  0
186187  2  0  0  0  0
186195  1  0  0  0  0
187196  1  0  0  0  0
198197  1  0  0  0  0
198176  1  0  0  0  0
199198  1  0  0  0  0
199202  1  0  0  0  0
199210  1  6  0  0  0
200199  1  0  0  0  0
200201  2  0  0  0  0
202203  1  0  0  0  0
202211  1  0  0  0  0
202212  1  0  0  0  0
203204  2  0  0  0  0
203205  1  0  0  0  0
204206  1  0  0  0  0
204213  1  0  0  0  0
205207  2  0  0  0  0
205214  1  0  0  0  0
206208  2  0  0  0  0
206215  1  0  0  0  0
207208  1  0  0  0  0
207216  1  0  0  0  0
208209  1  0  0  0  0
209217  1  0  0  0  0
219225  1  0  0  0  0
219200  1  0  0  0  0
220218  1  6  0  0  0
220223  1  0  0  0  0
220219  1  0  0  0  0
221220  1  0  0  0  0
221222  2  0  0  0  0
221233  1  0  0  0  0
223224  1  0  0  0  0
223226  1  0  0  0  0
223227  1  0  0  0  0
224228  1  0  0  0  0
224229  1  0  0  0  0
225224  1  0  0  0  0
225230  1  0  0  0  0
225231  1  0  0  0  0
233232  1  0  0  0  0
233234  1  0  0  0  0
234237  1  0  0  0  0
234235  1  0  0  0  0
234241  1  6  0  0  0
235236  2  0  0  0  0
235245  1  0  0  0  0
237238  1  0  0  0  0
237242  1  0  0  0  0
237243  1  0  0  0  0
238239  1  0  0  0  0
238240  2  0  0  0  0
245244  1  0  0  0  0
M  CHG  2   1   1 239  -1
M  END
