1jd5_ligand
 OpenBabel08222323343D

128130  0  0  1  0  0  0  0  0999 V2000
   10.8260   42.4210   12.8100 N   0  3  0  0  0  0  0  0  0  0  0  0
    9.5190   42.4860   13.5020 C   0  0  2  0  0  0  0  0  0  0  0  0
    8.4660   42.5250   12.4220 C   0  0  0  0  0  0  0  0  0  0  0  0
    8.7790   42.7820   11.2630 O   0  0  0  0  0  0  0  0  0  0  0  0
    9.4280   43.7460   14.3560 C   0  0  0  0  0  0  0  0  0  0  0  0
    7.2360   42.1960   12.7860 N   0  0  0  0  0  0  0  0  0  0  0  0
    6.1410   42.2280   11.8320 C   0  0  2  0  0  0  0  0  0  0  0  0
    5.1020   43.2110   12.3670 C   0  0  0  0  0  0  0  0  0  0  0  0
    4.9090   43.3270   13.5850 O   0  0  0  0  0  0  0  0  0  0  0  0
    5.4990   40.8270   11.6190 C   0  0  2  0  0  0  0  0  0  0  0  0
    4.8790   40.3180   12.9110 C   0  0  0  0  0  0  0  0  0  0  0  0
    6.5440   39.8190   11.1300 C   0  0  0  0  0  0  0  0  0  0  0  0
    4.1120   39.0330   12.7440 C   0  0  0  0  0  0  0  0  0  0  0  0
    4.4920   43.9700   11.4670 N   0  0  0  0  0  0  0  0  0  0  0  0
    3.4860   44.9390   11.8600 C   0  0  2  0  0  0  0  0  0  0  0  0
    2.1470   44.2310   11.9460 C   0  0  0  0  0  0  0  0  0  0  0  0
    1.5560   43.8980   10.9230 O   0  0  0  0  0  0  0  0  0  0  0  0
    3.4340   46.0760   10.8510 C   0  0  0  0  0  0  0  0  0  0  0  0
    1.6900   43.9570   13.1660 N   0  0  0  0  0  0  0  0  0  0  0  0
    0.4110   43.2760   13.3360 C   0  0  2  0  0  0  0  0  0  0  0  0
   -0.7730   44.2120   13.1070 C   0  0  0  0  0  0  0  0  0  0  0  0
   -1.9120   43.7730   12.9180 O   0  0  0  0  0  0  0  0  0  0  0  0
    0.3330   42.5510   14.6940 C   0  0  0  0  0  0  0  0  0  0  0  0
    0.2940   43.4100   15.9370 C   0  0  0  0  0  0  0  0  0  0  0  0
   -0.9200   43.7400   16.5340 C   0  0  0  0  0  0  0  0  0  0  0  0
    1.4690   43.7990   16.5780 C   0  0  0  0  0  0  0  0  0  0  0  0
   -0.9650   44.4330   17.7470 C   0  0  0  0  0  0  0  0  0  0  0  0
    1.4360   44.4940   17.7920 C   0  0  0  0  0  0  0  0  0  0  0  0
    0.2150   44.8010   18.3720 C   0  0  0  0  0  0  0  0  0  0  0  0
    0.1640   45.4420   19.5840 O   0  0  0  0  0  0  0  0  0  0  0  0
   -0.4880   45.5080   13.1150 N   0  0  0  0  0  0  0  0  0  0  0  0
   -1.4870   46.5310   12.8700 C   0  0  2  0  0  0  0  0  0  0  0  0
   -0.8100   47.7250   12.2290 C   0  0  0  0  0  0  0  0  0  0  0  0
    0.1520   48.2760   12.7710 O   0  0  0  0  0  0  0  0  0  0  0  0
   -2.1940   46.9710   14.1580 C   0  0  0  0  0  0  0  0  0  0  0  0
   -3.1490   48.1210   13.9520 C   0  0  0  0  0  0  0  0  0  0  0  0
   -4.4340   47.8970   13.4590 C   0  0  0  0  0  0  0  0  0  0  0  0
   -2.7440   49.4370   14.1860 C   0  0  0  0  0  0  0  0  0  0  0  0
   -5.2980   48.9670   13.1970 C   0  0  0  0  0  0  0  0  0  0  0  0
   -3.5960   50.5150   13.9300 C   0  0  0  0  0  0  0  0  0  0  0  0
   -4.8730   50.2800   13.4330 C   0  0  0  0  0  0  0  0  0  0  0  0
   -1.2940   48.0870   11.0440 N   0  0  0  0  0  0  0  0  0  0  0  0
   -0.7840   49.2300   10.3070 C   0  0  2  0  0  0  0  0  0  0  0  0
   -1.9600   50.1880   10.1600 C   0  0  0  0  0  0  0  0  0  0  0  0
   -3.0320   49.7900    9.7120 O   0  0  0  0  0  0  0  0  0  0  0  0
   -0.2540   48.8060    8.9130 C   0  0  2  0  0  0  0  0  0  0  0  0
    1.0500   48.0200    9.0850 C   0  0  0  0  0  0  0  0  0  0  0  0
   -0.0300   50.0280    8.0360 C   0  0  0  0  0  0  0  0  0  0  0  0
    1.6490   47.5160    7.7880 C   0  0  0  0  0  0  0  0  0  0  0  0
   -1.7920   51.4470   10.6090 N   0  0  0  0  0  0  0  0  0  0  0  0
   -2.8270   52.4860   10.5440 C   0  0  2  0  0  0  0  0  0  0  0  0
   -3.5980   52.4620    9.2210 C   0  0  0  0  0  0  0  0  0  0  0  0
   -3.0220   52.6930    8.1610 O   0  0  0  0  0  0  0  0  0  0  0  0
   -2.0180   53.7660   10.7170 C   0  0  0  0  0  0  0  0  0  0  0  0
   -0.9780   53.3460   11.6960 C   0  0  0  0  0  0  0  0  0  0  0  0
   -0.5370   52.0020   11.1570 C   0  0  0  0  0  0  0  0  0  0  0  0
   -4.8740   52.0790    9.3220 N   0  0  0  0  0  0  0  0  0  0  0  0
   -5.8440   51.9660    8.2230 C   0  0  2  0  0  0  0  0  0  0  0  0
   -5.3800   52.3980    6.8300 C   0  0  0  0  0  0  0  0  0  0  0  0
   -5.1260   51.5060    5.9850 O   0  5  0  0  0  0  0  0  0  0  0  0
   -7.1380   52.6910    8.6050 C   0  0  0  0  0  0  0  0  0  0  0  0
   -7.5220   52.4620   10.0550 C   0  0  0  0  0  0  0  0  0  0  0  0
   -7.0830   53.2600   10.9140 O   0  5  0  0  0  0  0  0  0  0  0  0
   -8.2250   51.4690   10.3450 O   0  0  0  0  0  0  0  0  0  0  0  0
   -5.2563   53.6178    6.5393 O   0  0  0  0  0  0  0  0  0  0  0  0
   11.5668   42.3929   13.4930 H   0  0  0  0  0  0  0  0  0  0  0  0
   10.9380   43.2351   12.2262 H   0  0  0  0  0  0  0  0  0  0  0  0
   10.8633   41.5907   12.2396 H   0  0  0  0  0  0  0  0  0  0  0  0
    9.3818   41.5994   14.1385 H   0  0  0  0  0  0  0  0  0  0  0  0
    8.4515   43.7766   14.8615 H   0  0  0  0  0  0  0  0  0  0  0  0
    9.5365   44.6327   13.7141 H   0  0  0  0  0  0  0  0  0  0  0  0
   10.2303   43.7377   15.1085 H   0  0  0  0  0  0  0  0  0  0  0  0
    7.0584   41.9216   13.7311 H   0  0  0  0  0  0  0  0  0  0  0  0
    6.5200   42.5872   10.8639 H   0  0  0  0  0  0  0  0  0  0  0  0
    4.7098   40.9166   10.8580 H   0  0  0  0  0  0  0  0  0  0  0  0
    4.1914   41.0866   13.2936 H   0  0  0  0  0  0  0  0  0  0  0  0
    5.6844   40.1503   13.6412 H   0  0  0  0  0  0  0  0  0  0  0  0
    6.9953   40.1831   10.1953 H   0  0  0  0  0  0  0  0  0  0  0  0
    6.0603   38.8477   10.9495 H   0  0  0  0  0  0  0  0  0  0  0  0
    7.3267   39.7025   11.8940 H   0  0  0  0  0  0  0  0  0  0  0  0
    3.6940   38.7267   13.7143 H   0  0  0  0  0  0  0  0  0  0  0  0
    4.7873   38.2486   12.3717 H   0  0  0  0  0  0  0  0  0  0  0  0
    3.2943   39.1849   12.0241 H   0  0  0  0  0  0  0  0  0  0  0  0
    4.7294   43.8729   10.5005 H   0  0  0  0  0  0  0  0  0  0  0  0
    3.7420   45.3507   12.8474 H   0  0  0  0  0  0  0  0  0  0  0  0
    2.6689   46.8041   11.1583 H   0  0  0  0  0  0  0  0  0  0  0  0
    3.1805   45.6745    9.8588 H   0  0  0  0  0  0  0  0  0  0  0  0
    4.4149   46.5717   10.8063 H   0  0  0  0  0  0  0  0  0  0  0  0
    2.2254   44.2190   13.9689 H   0  0  0  0  0  0  0  0  0  0  0  0
    0.3562   42.5006   12.5577 H   0  0  0  0  0  0  0  0  0  0  0  0
    1.2149   41.8980   14.7712 H   0  0  0  0  0  0  0  0  0  0  0  0
   -0.5791   41.9362   14.6885 H   0  0  0  0  0  0  0  0  0  0  0  0
   -1.8466   43.4544   16.0494 H   0  0  0  0  0  0  0  0  0  0  0  0
    2.4255   43.5588   16.1280 H   0  0  0  0  0  0  0  0  0  0  0  0
   -1.9195   44.6814   18.1968 H   0  0  0  0  0  0  0  0  0  0  0  0
    2.3596   44.7905   18.2759 H   0  0  0  0  0  0  0  0  0  0  0  0
    1.0473   45.6267   19.8807 H   0  0  0  0  0  0  0  0  0  0  0  0
    0.4536   45.7910   13.2973 H   0  0  0  0  0  0  0  0  0  0  0  0
   -2.2413   46.1282   12.1781 H   0  0  0  0  0  0  0  0  0  0  0  0
   -1.4305   47.2778   14.8880 H   0  0  0  0  0  0  0  0  0  0  0  0
   -2.7589   46.1152   14.5560 H   0  0  0  0  0  0  0  0  0  0  0  0
   -4.7680   46.8820   13.2764 H   0  0  0  0  0  0  0  0  0  0  0  0
   -1.7495   49.6260   14.5737 H   0  0  0  0  0  0  0  0  0  0  0  0
   -6.2939   48.7793   12.8122 H   0  0  0  0  0  0  0  0  0  0  0  0
   -3.2628   51.5292   14.1180 H   0  0  0  0  0  0  0  0  0  0  0  0
   -5.5380   51.1113   13.2287 H   0  0  0  0  0  0  0  0  0  0  0  0
   -2.0381   47.5512   10.6450 H   0  0  0  0  0  0  0  0  0  0  0  0
    0.0290   49.7103   10.8712 H   0  0  0  0  0  0  0  0  0  0  0  0
   -0.9997   48.1577    8.4297 H   0  0  0  0  0  0  0  0  0  0  0  0
    0.8472   47.1529    9.7307 H   0  0  0  0  0  0  0  0  0  0  0  0
    1.7861   48.6761    9.5725 H   0  0  0  0  0  0  0  0  0  0  0  0
   -0.9762   50.5779    7.9248 H   0  0  0  0  0  0  0  0  0  0  0  0
    0.3268   49.7083    7.0458 H   0  0  0  0  0  0  0  0  0  0  0  0
    0.7213   50.6818    8.5030 H   0  0  0  0  0  0  0  0  0  0  0  0
    2.5773   46.9660    8.0022 H   0  0  0  0  0  0  0  0  0  0  0  0
    1.8719   48.3696    7.1309 H   0  0  0  0  0  0  0  0  0  0  0  0
    0.9329   46.8464    7.2892 H   0  0  0  0  0  0  0  0  0  0  0  0
   -3.5440   52.3678   11.3698 H   0  0  0  0  0  0  0  0  0  0  0  0
   -2.6392   54.5801   11.1187 H   0  0  0  0  0  0  0  0  0  0  0  0
   -1.5661   54.0846    9.7661 H   0  0  0  0  0  0  0  0  0  0  0  0
   -1.4010   53.2486   12.7067 H   0  0  0  0  0  0  0  0  0  0  0  0
   -0.1409   54.0593   11.7160 H   0  0  0  0  0  0  0  0  0  0  0  0
   -0.1377   51.3640   11.9592 H   0  0  0  0  0  0  0  0  0  0  0  0
    0.2222   52.1196   10.3698 H   0  0  0  0  0  0  0  0  0  0  0  0
   -5.2023   51.8457   10.2373 H   0  0  0  0  0  0  0  0  0  0  0  0
   -6.0818   50.8953    8.1396 H   0  0  0  0  0  0  0  0  0  0  0  0
   -7.9516   52.3244    7.9619 H   0  0  0  0  0  0  0  0  0  0  0  0
   -6.9998   53.7701    8.4422 H   0  0  0  0  0  0  0  0  0  0  0  0
  1 66  1  0  0  0  0
  1 67  1  0  0  0  0
  1 68  1  0  0  0  0
  2  5  1  0  0  0  0
  2  1  1  0  0  0  0
  2 69  1  1  0  0  0
  3  2  1  0  0  0  0
  3  4  2  0  0  0  0
  5 70  1  0  0  0  0
  5 71  1  0  0  0  0
  5 72  1  0  0  0  0
  6  3  1  0  0  0  0
  6 73  1  0  0  0  0
  7 10  1  0  0  0  0
  7  6  1  0  0  0  0
  7 74  1  6  0  0  0
  8  7  1  0  0  0  0
  8  9  2  0  0  0  0
 10 11  1  0  0  0  0
 10 12  1  0  0  0  0
 10 75  1  6  0  0  0
 11 13  1  0  0  0  0
 11 76  1  0  0  0  0
 11 77  1  0  0  0  0
 12 78  1  0  0  0  0
 12 79  1  0  0  0  0
 12 80  1  0  0  0  0
 13 81  1  0  0  0  0
 13 82  1  0  0  0  0
 13 83  1  0  0  0  0
 14  8  1  0  0  0  0
 14 84  1  0  0  0  0
 15 18  1  0  0  0  0
 15 14  1  0  0  0  0
 15 85  1  1  0  0  0
 16 15  1  0  0  0  0
 16 17  2  0  0  0  0
 18 86  1  0  0  0  0
 18 87  1  0  0  0  0
 18 88  1  0  0  0  0
 19 16  1  0  0  0  0
 19 89  1  0  0  0  0
 20 23  1  0  0  0  0
 20 19  1  0  0  0  0
 20 90  1  6  0  0  0
 21 20  1  0  0  0  0
 21 22  2  0  0  0  0
 23 24  1  0  0  0  0
 23 91  1  0  0  0  0
 23 92  1  0  0  0  0
 24 26  2  0  0  0  0
 24 25  1  0  0  0  0
 25 27  2  0  0  0  0
 25 93  1  0  0  0  0
 26 28  1  0  0  0  0
 26 94  1  0  0  0  0
 27 29  1  0  0  0  0
 27 95  1  0  0  0  0
 28 29  2  0  0  0  0
 28 96  1  0  0  0  0
 29 30  1  0  0  0  0
 30 97  1  0  0  0  0
 31 21  1  0  0  0  0
 31 98  1  0  0  0  0
 32 35  1  0  0  0  0
 32 31  1  0  0  0  0
 32 99  1  6  0  0  0
 33 32  1  0  0  0  0
 33 34  2  0  0  0  0
 35 36  1  0  0  0  0
 35100  1  0  0  0  0
 35101  1  0  0  0  0
 36 38  2  0  0  0  0
 36 37  1  0  0  0  0
 37 39  2  0  0  0  0
 37102  1  0  0  0  0
 38 40  1  0  0  0  0
 38103  1  0  0  0  0
 39 41  1  0  0  0  0
 39104  1  0  0  0  0
 40 41  2  0  0  0  0
 40105  1  0  0  0  0
 41106  1  0  0  0  0
 42 33  1  0  0  0  0
 42107  1  0  0  0  0
 43 46  1  0  0  0  0
 43 42  1  0  0  0  0
 43108  1  1  0  0  0
 44 43  1  0  0  0  0
 44 45  2  0  0  0  0
 46 47  1  0  0  0  0
 46 48  1  0  0  0  0
 46109  1  6  0  0  0
 47 49  1  0  0  0  0
 47110  1  0  0  0  0
 47111  1  0  0  0  0
 48112  1  0  0  0  0
 48113  1  0  0  0  0
 48114  1  0  0  0  0
 49115  1  0  0  0  0
 49116  1  0  0  0  0
 49117  1  0  0  0  0
 50 56  1  0  0  0  0
 50 44  1  0  0  0  0
 51 50  1  0  0  0  0
 51 54  1  0  0  0  0
 51118  1  1  0  0  0
 52 51  1  0  0  0  0
 52 53  2  0  0  0  0
 52 57  1  0  0  0  0
 54 55  1  0  0  0  0
 54119  1  0  0  0  0
 54120  1  0  0  0  0
 55 56  1  0  0  0  0
 55121  1  0  0  0  0
 55122  1  0  0  0  0
 56123  1  0  0  0  0
 56124  1  0  0  0  0
 57 58  1  0  0  0  0
 57125  1  0  0  0  0
 58 59  1  0  0  0  0
 58 61  1  0  0  0  0
 58126  1  6  0  0  0
 59 60  1  0  0  0  0
 59 65  2  0  0  0  0
 61 62  1  0  0  0  0
 61127  1  0  0  0  0
 61128  1  0  0  0  0
 62 63  1  0  0  0  0
 62 64  2  0  0  0  0
M  CHG  3   1   1  60  -1  63  -1
M  END
