1jd6_ligand
 OpenBabel08222323343D

132135  0  0  1  0  0  0  0  0999 V2000
   10.8340   42.4700   12.8530 N   0  3  0  0  0  0  0  0  0  0  0  0
    9.4690   42.6000   13.4220 C   0  0  2  0  0  0  0  0  0  0  0  0
    8.4130   42.6540   12.3100 C   0  0  0  0  0  0  0  0  0  0  0  0
    8.7140   43.0160   11.1680 O   0  0  0  0  0  0  0  0  0  0  0  0
    9.4000   43.8370   14.3300 C   0  0  0  0  0  0  0  0  0  0  0  0
    7.1870   42.2340   12.6350 N   0  0  0  0  0  0  0  0  0  0  0  0
    6.0620   42.2330   11.6980 C   0  0  2  0  0  0  0  0  0  0  0  0
    4.8910   42.9790   12.3710 C   0  0  0  0  0  0  0  0  0  0  0  0
    4.7570   42.9480   13.5870 O   0  0  0  0  0  0  0  0  0  0  0  0
    5.6880   40.7550   11.2820 C   0  0  0  0  0  0  0  0  0  0  0  0
    4.4030   40.7180   10.4570 C   0  0  0  0  0  0  0  0  0  0  0  0
    6.8140   40.1430   10.4580 C   0  0  0  0  0  0  0  0  0  0  0  0
    4.1530   43.7930   11.6240 N   0  0  0  0  0  0  0  0  0  0  0  0
    3.0380   44.4740   12.2930 C   0  0  2  0  0  0  0  0  0  0  0  0
    1.8320   43.5750   12.5610 C   0  0  0  0  0  0  0  0  0  0  0  0
    1.6020   42.5990   11.8360 O   0  0  0  0  0  0  0  0  0  0  0  0
    2.6830   45.5660   11.2850 C   0  0  0  0  0  0  0  0  0  0  0  0
    2.9780   44.9280    9.9820 C   0  0  0  0  0  0  0  0  0  0  0  0
    4.3590   44.3340   10.2770 C   0  0  0  0  0  0  0  0  0  0  0  0
    1.0930   43.8870   13.6180 N   0  0  0  0  0  0  0  0  0  0  0  0
   -0.1240   43.1460   13.9310 C   0  0  2  0  0  0  0  0  0  0  0  0
   -1.3000   44.0920   13.7350 C   0  0  0  0  0  0  0  0  0  0  0  0
   -2.4700   43.6810   13.7370 O   0  0  0  0  0  0  0  0  0  0  0  0
   -0.1130   42.5270   15.3480 C   0  0  0  0  0  0  0  0  0  0  0  0
    0.0500   43.5170   16.4830 C   0  0  0  0  0  0  0  0  0  0  0  0
   -1.0470   44.1530   17.0590 C   0  0  0  0  0  0  0  0  0  0  0  0
    1.3020   43.7620   17.0340 C   0  0  0  0  0  0  0  0  0  0  0  0
   -0.8790   44.9980   18.1620 C   0  0  0  0  0  0  0  0  0  0  0  0
    1.4560   44.6100   18.1410 C   0  0  0  0  0  0  0  0  0  0  0  0
    0.3750   45.2170   18.6940 C   0  0  0  0  0  0  0  0  0  0  0  0
   -0.9680   45.3620   13.4980 N   0  0  0  0  0  0  0  0  0  0  0  0
   -1.9370   46.4400   13.2690 C   0  0  2  0  0  0  0  0  0  0  0  0
   -1.2410   47.6070   12.5690 C   0  0  0  0  0  0  0  0  0  0  0  0
   -0.1610   48.0290   12.9760 O   0  0  0  0  0  0  0  0  0  0  0  0
   -2.5760   46.9350   14.5920 C   0  0  0  0  0  0  0  0  0  0  0  0
   -3.4450   48.1760   14.4250 C   0  0  0  0  0  0  0  0  0  0  0  0
   -4.6940   48.1110   13.8130 C   0  0  0  0  0  0  0  0  0  0  0  0
   -3.0040   49.4260   14.8320 C   0  0  0  0  0  0  0  0  0  0  0  0
   -5.4750   49.2640   13.6120 C   0  0  0  0  0  0  0  0  0  0  0  0
   -3.7790   50.5800   14.6320 C   0  0  0  0  0  0  0  0  0  0  0  0
   -5.0030   50.4880   14.0220 C   0  0  0  0  0  0  0  0  0  0  0  0
   -5.7280   51.6390   13.7970 O   0  0  0  0  0  0  0  0  0  0  0  0
   -1.8620   48.0860   11.4930 N   0  0  0  0  0  0  0  0  0  0  0  0
   -1.3790   49.2070   10.7010 C   0  0  2  0  0  0  0  0  0  0  0  0
   -2.5610   50.1750   10.5710 C   0  0  0  0  0  0  0  0  0  0  0  0
   -3.7020   49.7430   10.5010 O   0  0  0  0  0  0  0  0  0  0  0  0
   -0.9410   48.7130    9.3150 C   0  0  0  0  0  0  0  0  0  0  0  0
    0.3110   47.8300    9.2030 C   0  0  0  0  0  0  0  0  0  0  0  0
    0.4730   47.3150    7.7710 C   0  0  0  0  0  0  0  0  0  0  0  0
    1.5450   48.6470    9.5870 C   0  0  0  0  0  0  0  0  0  0  0  0
   -2.3050   51.4960   10.6040 N   0  0  0  0  0  0  0  0  0  0  0  0
   -3.3800   52.4970   10.4850 C   0  0  2  0  0  0  0  0  0  0  0  0
   -4.1100   52.3200    9.1570 C   0  0  0  0  0  0  0  0  0  0  0  0
   -3.5010   51.8710    8.1710 O   0  0  0  0  0  0  0  0  0  0  0  0
   -2.6110   53.8240   10.5090 C   0  0  0  0  0  0  0  0  0  0  0  0
   -1.4400   53.5270   11.3640 C   0  0  0  0  0  0  0  0  0  0  0  0
   -1.0150   52.1460   10.8590 C   0  0  0  0  0  0  0  0  0  0  0  0
   -5.3930   52.6880    9.1320 N   0  0  0  0  0  0  0  0  0  0  0  0
   -6.2300   52.5670    7.9360 C   0  0  2  0  0  0  0  0  0  0  0  0
   -5.7240   53.4550    6.7970 C   0  0  0  0  0  0  0  0  0  0  0  0
   -5.2950   54.6000    7.0680 O   0  0  0  0  0  0  0  0  0  0  0  0
   -7.6980   52.9090    8.2580 C   0  0  0  0  0  0  0  0  0  0  0  0
   -8.3910   51.9770    9.2630 C   0  0  0  0  0  0  0  0  0  0  0  0
   -8.1680   52.3860   10.7100 C   0  0  0  0  0  0  0  0  0  0  0  0
   -8.8880   53.2900   11.1910 O   0  5  0  0  0  0  0  0  0  0  0  0
   -7.2790   51.8070   11.3660 O   0  0  0  0  0  0  0  0  0  0  0  0
   11.5083   42.4367   13.6016 H   0  0  0  0  0  0  0  0  0  0  0  0
   11.0281   43.2624   12.2610 H   0  0  0  0  0  0  0  0  0  0  0  0
   10.8925   41.6227   12.3102 H   0  0  0  0  0  0  0  0  0  0  0  0
    9.2661   41.7115   14.0380 H   0  0  0  0  0  0  0  0  0  0  0  0
    8.3869   43.9284   14.7487 H   0  0  0  0  0  0  0  0  0  0  0  0
    9.6366   44.7366   13.7428 H   0  0  0  0  0  0  0  0  0  0  0  0
   10.1270   43.7319   15.1488 H   0  0  0  0  0  0  0  0  0  0  0  0
    7.0298   41.9035   13.5656 H   0  0  0  0  0  0  0  0  0  0  0  0
    6.3510   42.7804   10.7887 H   0  0  0  0  0  0  0  0  0  0  0  0
    5.5431   40.1587   12.1949 H   0  0  0  0  0  0  0  0  0  0  0  0
    4.1719   39.6776   10.1847 H   0  0  0  0  0  0  0  0  0  0  0  0
    4.5368   41.3151    9.5429 H   0  0  0  0  0  0  0  0  0  0  0  0
    3.5749   41.1345   11.0492 H   0  0  0  0  0  0  0  0  0  0  0  0
    7.7470   40.1629   11.0403 H   0  0  0  0  0  0  0  0  0  0  0  0
    6.9472   40.7218    9.5321 H   0  0  0  0  0  0  0  0  0  0  0  0
    6.5608   39.1025   10.2067 H   0  0  0  0  0  0  0  0  0  0  0  0
    3.3719   44.9093   13.2464 H   0  0  0  0  0  0  0  0  0  0  0  0
    3.3048   46.4607   11.4365 H   0  0  0  0  0  0  0  0  0  0  0  0
    1.6205   45.8411   11.3585 H   0  0  0  0  0  0  0  0  0  0  0  0
    3.0176   45.6656    9.1669 H   0  0  0  0  0  0  0  0  0  0  0  0
    2.2433   44.1476    9.7349 H   0  0  0  0  0  0  0  0  0  0  0  0
    4.6189   43.5417    9.5595 H   0  0  0  0  0  0  0  0  0  0  0  0
    5.1410   45.1076   10.2683 H   0  0  0  0  0  0  0  0  0  0  0  0
    1.3749   44.6423   14.2096 H   0  0  0  0  0  0  0  0  0  0  0  0
   -0.2178   42.3189   13.2119 H   0  0  0  0  0  0  0  0  0  0  0  0
    0.7196   41.8100   15.3997 H   0  0  0  0  0  0  0  0  0  0  0  0
   -1.0647   41.9951   15.4944 H   0  0  0  0  0  0  0  0  0  0  0  0
   -2.0380   43.9924   16.6501 H   0  0  0  0  0  0  0  0  0  0  0  0
    2.1758   43.2892   16.6005 H   0  0  0  0  0  0  0  0  0  0  0  0
   -1.7418   45.4847   18.6022 H   0  0  0  0  0  0  0  0  0  0  0  0
    2.4424   44.7812   18.5565 H   0  0  0  0  0  0  0  0  0  0  0  0
    0.4965   45.8710   19.5499 H   0  0  0  0  0  0  0  0  0  0  0  0
    0.0043   45.5946   13.4749 H   0  0  0  0  0  0  0  0  0  0  0  0
   -2.7368   46.0578   12.6176 H   0  0  0  0  0  0  0  0  0  0  0  0
   -1.7687   47.1691   15.3015 H   0  0  0  0  0  0  0  0  0  0  0  0
   -3.2000   46.1264   15.0003 H   0  0  0  0  0  0  0  0  0  0  0  0
   -5.0733   47.1503   13.4839 H   0  0  0  0  0  0  0  0  0  0  0  0
   -2.0381   49.5146   15.3160 H   0  0  0  0  0  0  0  0  0  0  0  0
   -6.4456   49.1872   13.1354 H   0  0  0  0  0  0  0  0  0  0  0  0
   -3.4088   51.5445   14.9604 H   0  0  0  0  0  0  0  0  0  0  0  0
   -6.5475   51.4175   13.3705 H   0  0  0  0  0  0  0  0  0  0  0  0
   -2.7152   47.6471   11.2111 H   0  0  0  0  0  0  0  0  0  0  0  0
   -0.5332   49.6988   11.2037 H   0  0  0  0  0  0  0  0  0  0  0  0
   -0.7636   49.6046    8.6957 H   0  0  0  0  0  0  0  0  0  0  0  0
   -1.7802   48.1375    8.8973 H   0  0  0  0  0  0  0  0  0  0  0  0
    0.2120   46.9740    9.8867 H   0  0  0  0  0  0  0  0  0  0  0  0
    1.3727   46.6853    7.7074 H   0  0  0  0  0  0  0  0  0  0  0  0
    0.5732   48.1680    7.0837 H   0  0  0  0  0  0  0  0  0  0  0  0
   -0.4103   46.7215    7.4926 H   0  0  0  0  0  0  0  0  0  0  0  0
    1.4326   49.0192   10.6160 H   0  0  0  0  0  0  0  0  0  0  0  0
    1.6499   49.4985    8.8985 H   0  0  0  0  0  0  0  0  0  0  0  0
    2.4403   48.0111    9.5229 H   0  0  0  0  0  0  0  0  0  0  0  0
   -4.0928   52.4289   11.3200 H   0  0  0  0  0  0  0  0  0  0  0  0
   -3.2239   54.6262   10.9459 H   0  0  0  0  0  0  0  0  0  0  0  0
   -2.2951   54.1142    9.4961 H   0  0  0  0  0  0  0  0  0  0  0  0
   -1.7201   53.4943   12.4272 H   0  0  0  0  0  0  0  0  0  0  0  0
   -0.6408   54.2686   11.2180 H   0  0  0  0  0  0  0  0  0  0  0  0
   -0.4195   52.2247    9.9375 H   0  0  0  0  0  0  0  0  0  0  0  0
   -0.4391   51.6026   11.6225 H   0  0  0  0  0  0  0  0  0  0  0  0
   -5.8000   53.0622    9.9653 H   0  0  0  0  0  0  0  0  0  0  0  0
   -6.1865   51.5212    7.5978 H   0  0  0  0  0  0  0  0  0  0  0  0
   -5.7367   53.0974    5.7685 H   0  0  0  0  0  0  0  0  0  0  0  0
   -8.2674   52.8760    7.3175 H   0  0  0  0  0  0  0  0  0  0  0  0
   -7.7258   53.9294    8.6679 H   0  0  0  0  0  0  0  0  0  0  0  0
   -7.9995   50.9586    9.1231 H   0  0  0  0  0  0  0  0  0  0  0  0
   -9.4720   51.9854    9.0599 H   0  0  0  0  0  0  0  0  0  0  0  0
  1  2  1  0  0  0  0
  1 67  1  0  0  0  0
  1 68  1  0  0  0  0
  1 69  1  0  0  0  0
  2  3  1  0  0  0  0
  2  5  1  0  0  0  0
  2 70  1  1  0  0  0
  3  4  2  0  0  0  0
  3  6  1  0  0  0  0
  5 71  1  0  0  0  0
  5 72  1  0  0  0  0
  5 73  1  0  0  0  0
  6  7  1  0  0  0  0
  6 74  1  0  0  0  0
  7  8  1  0  0  0  0
  7 10  1  0  0  0  0
  7 75  1  6  0  0  0
  8  9  2  0  0  0  0
  8 13  1  0  0  0  0
 10 11  1  0  0  0  0
 10 12  1  0  0  0  0
 10 76  1  0  0  0  0
 11 77  1  0  0  0  0
 11 78  1  0  0  0  0
 11 79  1  0  0  0  0
 12 80  1  0  0  0  0
 12 81  1  0  0  0  0
 12 82  1  0  0  0  0
 13 14  1  0  0  0  0
 13 19  1  0  0  0  0
 14 15  1  0  0  0  0
 14 17  1  0  0  0  0
 14 83  1  1  0  0  0
 15 16  2  0  0  0  0
 15 20  1  0  0  0  0
 17 18  1  0  0  0  0
 17 84  1  0  0  0  0
 17 85  1  0  0  0  0
 18 19  1  0  0  0  0
 18 86  1  0  0  0  0
 18 87  1  0  0  0  0
 19 88  1  0  0  0  0
 19 89  1  0  0  0  0
 20 21  1  0  0  0  0
 20 90  1  0  0  0  0
 21 22  1  0  0  0  0
 21 24  1  0  0  0  0
 21 91  1  6  0  0  0
 22 23  2  0  0  0  0
 22 31  1  0  0  0  0
 24 25  1  0  0  0  0
 24 92  1  0  0  0  0
 24 93  1  0  0  0  0
 25 26  2  0  0  0  0
 25 27  1  0  0  0  0
 26 28  1  0  0  0  0
 26 94  1  0  0  0  0
 27 29  2  0  0  0  0
 27 95  1  0  0  0  0
 28 30  2  0  0  0  0
 28 96  1  0  0  0  0
 29 30  1  0  0  0  0
 29 97  1  0  0  0  0
 30 98  1  0  0  0  0
 31 32  1  0  0  0  0
 31 99  1  0  0  0  0
 32 33  1  0  0  0  0
 32 35  1  0  0  0  0
 32100  1  6  0  0  0
 33 34  2  0  0  0  0
 33 43  1  0  0  0  0
 35 36  1  0  0  0  0
 35101  1  0  0  0  0
 35102  1  0  0  0  0
 36 37  2  0  0  0  0
 36 38  1  0  0  0  0
 37 39  1  0  0  0  0
 37103  1  0  0  0  0
 38 40  2  0  0  0  0
 38104  1  0  0  0  0
 39 41  2  0  0  0  0
 39105  1  0  0  0  0
 40 41  1  0  0  0  0
 40106  1  0  0  0  0
 41 42  1  0  0  0  0
 42107  1  0  0  0  0
 43 44  1  0  0  0  0
 43108  1  0  0  0  0
 44 45  1  0  0  0  0
 44 47  1  0  0  0  0
 44109  1  1  0  0  0
 45 46  2  0  0  0  0
 45 51  1  0  0  0  0
 47 48  1  0  0  0  0
 47110  1  0  0  0  0
 47111  1  0  0  0  0
 48 49  1  0  0  0  0
 48 50  1  0  0  0  0
 48112  1  0  0  0  0
 49113  1  0  0  0  0
 49114  1  0  0  0  0
 49115  1  0  0  0  0
 50116  1  0  0  0  0
 50117  1  0  0  0  0
 50118  1  0  0  0  0
 51 52  1  0  0  0  0
 51 57  1  0  0  0  0
 52 53  1  0  0  0  0
 52 55  1  0  0  0  0
 52119  1  1  0  0  0
 53 54  2  0  0  0  0
 53 58  1  0  0  0  0
 55 56  1  0  0  0  0
 55120  1  0  0  0  0
 55121  1  0  0  0  0
 56 57  1  0  0  0  0
 56122  1  0  0  0  0
 56123  1  0  0  0  0
 57124  1  0  0  0  0
 57125  1  0  0  0  0
 58 59  1  0  0  0  0
 58126  1  0  0  0  0
 59 60  1  0  0  0  0
 59 62  1  0  0  0  0
 59127  1  6  0  0  0
 60 61  2  0  0  0  0
 60128  1  0  0  0  0
 62 63  1  0  0  0  0
 62129  1  0  0  0  0
 62130  1  0  0  0  0
 63 64  1  0  0  0  0
 63131  1  0  0  0  0
 63132  1  0  0  0  0
 64 65  1  0  0  0  0
 64 66  2  0  0  0  0
M  CHG  2   1   1  65  -1
M  END
