1jil_ligand
 OpenBabel08222323343D

 51 52  0  0  1  0  0  0  0  0999 V2000
   25.3940    7.2340   83.6780 O   0  0  0  0  0  0  0  0  0  0  0  0
   26.5770    7.7550   83.3260 C   0  0  0  0  0  0  0  0  0  0  0  0
   27.2530    8.6040   84.2080 C   0  0  0  0  0  0  0  0  0  0  0  0
   28.5160    9.1540   83.8180 C   0  0  0  0  0  0  0  0  0  0  0  0
   29.0530    8.8310   82.5570 C   0  0  0  0  0  0  0  0  0  0  0  0
   28.3420    7.9560   81.6770 C   0  0  0  0  0  0  0  0  0  0  0  0
   27.1200    7.4330   82.0720 C   0  0  0  0  0  0  0  0  0  0  0  0
   30.3740    9.4080   82.1210 C   0  0  0  0  0  0  0  0  0  0  0  0
   30.3560   10.9040   81.8700 C   0  0  2  0  0  0  0  0  0  0  0  0
   29.2130   11.3250   80.9800 N   0  3  0  0  0  0  0  0  0  0  0  0
   31.7220   11.3520   81.3210 C   0  0  0  0  0  0  0  0  0  0  0  0
   31.8770   11.5220   80.1490 O   0  0  0  0  0  0  0  0  0  0  0  0
   32.7040   11.5320   82.2170 N   0  0  0  0  0  0  0  0  0  0  0  0
   34.1280   11.9840   81.9310 C   0  0  2  0  0  0  0  0  0  0  0  0
   35.0240   10.8290   81.3040 C   0  0  0  0  0  0  0  0  0  0  0  0
   34.4000    9.5790   81.3100 O   0  5  0  0  0  0  0  0  0  0  0  0
   36.1870   11.0400   80.8280 O   0  0  0  0  0  0  0  0  0  0  0  0
   34.7180   12.5970   83.1920 C   0  0  1  0  0  0  0  0  0  0  0  0
   34.0090   13.8940   83.5760 C   0  0  1  0  0  0  0  0  0  0  0  0
   34.6110   14.4620   84.8880 C   0  0  2  0  0  0  0  0  0  0  0  0
   34.5260   13.4490   86.0500 C   0  0  2  0  0  0  0  0  0  0  0  0
   35.2370   12.0900   85.6240 C   0  0  2  0  0  0  0  0  0  0  0  0
   34.5810   11.6560   84.3650 O   0  0  0  0  0  0  0  0  0  0  0  0
   34.1700   14.8400   82.5490 O   0  0  0  0  0  0  0  0  0  0  0  0
   33.8810   15.6110   85.2070 O   0  0  0  0  0  0  0  0  0  0  0  0
   33.1260   13.2250   86.2990 O   0  0  0  0  0  0  0  0  0  0  0  0
   35.1070   10.9150   86.6270 C   0  0  0  0  0  0  0  0  0  0  0  0
   25.1598    7.5409   84.5460 H   0  0  0  0  0  0  0  0  0  0  0  0
   26.8259    8.8428   85.1753 H   0  0  0  0  0  0  0  0  0  0  0  0
   29.0547    9.8140   84.4883 H   0  0  0  0  0  0  0  0  0  0  0  0
   28.7557    7.7033   80.7075 H   0  0  0  0  0  0  0  0  0  0  0  0
   26.5792    6.7697   81.4067 H   0  0  0  0  0  0  0  0  0  0  0  0
   30.6768    8.9072   81.1896 H   0  0  0  0  0  0  0  0  0  0  0  0
   31.1154    9.2006   82.9067 H   0  0  0  0  0  0  0  0  0  0  0  0
   30.2086   11.4015   82.8399 H   0  0  0  0  0  0  0  0  0  0  0  0
   29.2437   12.3232   80.8433 H   0  0  0  0  0  0  0  0  0  0  0  0
   28.3388   11.0720   81.4134 H   0  0  0  0  0  0  0  0  0  0  0  0
   29.2927   10.8612   80.0886 H   0  0  0  0  0  0  0  0  0  0  0  0
   32.4759   11.3499   83.1735 H   0  0  0  0  0  0  0  0  0  0  0  0
   34.0741   12.7821   81.1760 H   0  0  0  0  0  0  0  0  0  0  0  0
   35.7831   12.8053   83.0128 H   0  0  0  0  0  0  0  0  0  0  0  0
   32.9378   13.6921   83.7238 H   0  0  0  0  0  0  0  0  0  0  0  0
   35.6663   14.7242   84.7221 H   0  0  0  0  0  0  0  0  0  0  0  0
   35.0123   13.8550   86.9493 H   0  0  0  0  0  0  0  0  0  0  0  0
   36.3054   12.2891   85.4539 H   0  0  0  0  0  0  0  0  0  0  0  0
   33.7282   15.6458   82.7901 H   0  0  0  0  0  0  0  0  0  0  0  0
   33.9593   16.2410   84.5002 H   0  0  0  0  0  0  0  0  0  0  0  0
   32.7178   12.8768   85.5150 H   0  0  0  0  0  0  0  0  0  0  0  0
   35.6333   10.0343   86.2302 H   0  0  0  0  0  0  0  0  0  0  0  0
   34.0439   10.6724   86.7718 H   0  0  0  0  0  0  0  0  0  0  0  0
   35.5516   11.2045   87.5906 H   0  0  0  0  0  0  0  0  0  0  0  0
  1  2  1  0  0  0  0
  1 28  1  0  0  0  0
  2  7  2  0  0  0  0
  2  3  1  0  0  0  0
  3  4  2  0  0  0  0
  3 29  1  0  0  0  0
  4  5  1  0  0  0  0
  4 30  1  0  0  0  0
  5  8  1  0  0  0  0
  5  6  2  0  0  0  0
  6  7  1  0  0  0  0
  6 31  1  0  0  0  0
  7 32  1  0  0  0  0
  8  9  1  0  0  0  0
  8 33  1  0  0  0  0
  8 34  1  0  0  0  0
  9 11  1  0  0  0  0
  9 10  1  0  0  0  0
  9 35  1  1  0  0  0
 10 36  1  0  0  0  0
 10 37  1  0  0  0  0
 10 38  1  0  0  0  0
 11 13  1  0  0  0  0
 11 12  2  0  0  0  0
 13 14  1  0  0  0  0
 13 39  1  0  0  0  0
 14 18  1  0  0  0  0
 14 15  1  0  0  0  0
 14 40  1  6  0  0  0
 15 17  2  0  0  0  0
 15 16  1  0  0  0  0
 18 23  1  0  0  0  0
 18 19  1  0  0  0  0
 18 41  1  6  0  0  0
 19 24  1  0  0  0  0
 19 20  1  0  0  0  0
 19 42  1  1  0  0  0
 20 25  1  0  0  0  0
 20 21  1  0  0  0  0
 20 43  1  6  0  0  0
 21 26  1  0  0  0  0
 21 22  1  0  0  0  0
 21 44  1  1  0  0  0
 22 27  1  0  0  0  0
 22 23  1  0  0  0  0
 22 45  1  6  0  0  0
 24 46  1  0  0  0  0
 25 47  1  0  0  0  0
 26 48  1  0  0  0  0
 27 49  1  0  0  0  0
 27 50  1  0  0  0  0
 27 51  1  0  0  0  0
M  CHG  2  10   1  16  -1
M  END
