1jje_ligand
 OpenBabel08222323343D

 41 43  0  0  1  0  0  0  0  0999 V2000
   56.3361   25.0168   32.8373 H   0  0  0  0  0  0  0  0  0  0  0  0
   57.6339   22.9473   32.9256 H   0  0  0  0  0  0  0  0  0  0  0  0
   59.1748   23.8585   32.7775 H   0  0  0  0  0  0  0  0  0  0  0  0
   60.0305   24.3824   30.6363 H   0  0  0  0  0  0  0  0  0  0  0  0
   59.8540   24.3730   28.1655 H   0  0  0  0  0  0  0  0  0  0  0  0
   57.7404   23.5905   27.0786 H   0  0  0  0  0  0  0  0  0  0  0  0
   55.7651   23.1015   28.4882 H   0  0  0  0  0  0  0  0  0  0  0  0
   55.9727   23.0578   30.9594 H   0  0  0  0  0  0  0  0  0  0  0  0
   57.4160   25.1030   33.0280 C   0  0  1  0  0  0  0  0  0  0  0  0
   57.9150   26.3470   32.3210 C   0  0  0  0  0  0  0  0  0  0  0  0
   57.0850   27.1160   31.7890 O   0  5  0  0  0  0  0  0  0  0  0  0
   59.1230   26.6600   32.2440 O   0  0  0  0  0  0  0  0  0  0  0  0
   58.1130   23.8370   32.4910 C   0  0  0  0  0  0  0  0  0  0  0  0
   58.0040   23.7750   30.9750 C   0  0  0  0  0  0  0  0  0  0  0  0
   59.0930   24.1020   30.1700 C   0  0  0  0  0  0  0  0  0  0  0  0
   59.0050   24.0770   28.7710 C   0  0  0  0  0  0  0  0  0  0  0  0
   57.8070   23.6650   28.1580 C   0  0  0  0  0  0  0  0  0  0  0  0
   56.7110   23.3550   28.9530 C   0  0  0  0  0  0  0  0  0  0  0  0
   56.8170   23.3670   30.3540 C   0  0  0  0  0  0  0  0  0  0  0  0
   57.6370   25.1710   34.5470 C   0  0  1  0  0  0  0  0  0  0  0  0
   57.5140   26.5790   35.0580 C   0  0  0  0  0  0  0  0  0  0  0  0
   56.6730   27.3870   34.6000 O   0  5  0  0  0  0  0  0  0  0  0  0
   58.2960   26.9840   35.9560 O   0  0  0  0  0  0  0  0  0  0  0  0
   56.6260   24.2210   35.2430 C   0  0  0  0  0  0  0  0  0  0  0  0
   57.0770   24.1100   36.6850 C   0  0  0  0  0  0  0  0  0  0  0  0
   56.4830   24.8980   37.7000 C   0  0  0  0  0  0  0  0  0  0  0  0
   56.9680   24.6860   38.9890 C   0  0  0  0  0  0  0  0  0  0  0  0
   56.6450   25.3320   40.1140 O   0  0  0  0  0  0  0  0  0  0  0  0
   57.4370   24.7990   41.1870 C   0  0  0  0  0  0  0  0  0  0  0  0
   58.2800   23.8030   40.5730 O   0  0  0  0  0  0  0  0  0  0  0  0
   57.9960   23.7970   39.2640 C   0  0  0  0  0  0  0  0  0  0  0  0
   58.6040   23.0440   38.2630 C   0  0  0  0  0  0  0  0  0  0  0  0
   58.0950   23.2020   36.9550 C   0  0  0  0  0  0  0  0  0  0  0  0
   58.6553   24.8182   34.7675 H   0  0  0  0  0  0  0  0  0  0  0  0
   56.6385   23.2318   34.7621 H   0  0  0  0  0  0  0  0  0  0  0  0
   55.6105   24.6408   35.1920 H   0  0  0  0  0  0  0  0  0  0  0  0
   55.7019   25.6192   37.4883 H   0  0  0  0  0  0  0  0  0  0  0  0
   56.7927   24.3411   41.9520 H   0  0  0  0  0  0  0  0  0  0  0  0
   58.0468   25.5906   41.6470 H   0  0  0  0  0  0  0  0  0  0  0  0
   59.4262   22.3707   38.4767 H   0  0  0  0  0  0  0  0  0  0  0  0
   58.5048   22.6054   36.1480 H   0  0  0  0  0  0  0  0  0  0  0  0
  9  1  1  6  0  0  0
  9 20  1  0  0  0  0
  9 10  1  0  0  0  0
 10 12  2  0  0  0  0
 10 11  1  0  0  0  0
 13  2  1  0  0  0  0
 13  3  1  0  0  0  0
 13  9  1  0  0  0  0
 14 13  1  0  0  0  0
 14 19  2  0  0  0  0
 15  4  1  0  0  0  0
 15 14  1  0  0  0  0
 16  5  1  0  0  0  0
 16 15  2  0  0  0  0
 16 17  1  0  0  0  0
 17  6  1  0  0  0  0
 17 18  2  0  0  0  0
 18 19  1  0  0  0  0
 18  7  1  0  0  0  0
 19  8  1  0  0  0  0
 20 24  1  0  0  0  0
 20 21  1  0  0  0  0
 20 34  1  1  0  0  0
 21 23  2  0  0  0  0
 21 22  1  0  0  0  0
 24 25  1  0  0  0  0
 24 35  1  0  0  0  0
 24 36  1  0  0  0  0
 25 33  2  0  0  0  0
 25 26  1  0  0  0  0
 26 27  2  0  0  0  0
 26 37  1  0  0  0  0
 27 31  1  0  0  0  0
 27 28  1  0  0  0  0
 28 29  1  0  0  0  0
 29 30  1  0  0  0  0
 29 38  1  0  0  0  0
 29 39  1  0  0  0  0
 30 31  1  0  0  0  0
 31 32  2  0  0  0  0
 32 33  1  0  0  0  0
 32 40  1  0  0  0  0
 33 41  1  0  0  0  0
M  CHG  2  11  -1  22  -1
M  END
