1jjk_ligand
 OpenBabel08222323343D

 33 34  0  0  1  0  0  0  0  0999 V2000
  -19.2480    1.8330   10.2510 P   0  0  0  0  0  0  0  0  0  0  0  0
  -18.4460   -0.7470   16.0780 N   0  0  0  0  0  0  0  0  0  0  0  0
  -18.4340   -1.6770   15.0330 C   0  0  0  0  0  0  0  0  0  0  0  0
  -18.2530   -1.3150   13.7640 O   0  0  0  0  0  0  0  0  0  0  0  0
  -18.6180   -3.0180   15.3720 N   0  0  0  0  0  0  0  0  0  0  0  0
  -18.8060   -3.4120   16.6750 C   0  0  0  0  0  0  0  0  0  0  0  0
  -18.9660   -4.6150   16.9330 O   0  0  0  0  0  0  0  0  0  0  0  0
  -18.8120   -2.4190   17.6980 C   0  0  0  0  0  0  0  0  0  0  0  0
  -18.6240   -1.1170   17.3050 C   0  0  0  0  0  0  0  0  0  0  0  0
  -18.6280   -0.1700   18.2910 O   0  0  0  0  0  0  0  0  0  0  0  0
  -18.6140    0.6440    9.4900 O   0  0  0  0  0  1  0  0  0  0  0  0
  -20.7560    1.8640   10.2340 O   0  0  0  0  0  1  0  0  0  0  0  0
  -18.6880    3.1380    9.6960 O   0  0  0  0  0  0  0  0  0  0  0  0
  -18.7390    1.6240   11.7610 O   0  0  0  0  0  0  0  0  0  0  0  0
  -19.1830    2.5800   12.7480 C   0  0  0  0  0  0  0  0  0  0  0  0
  -18.6750    2.4480   14.1340 C   0  0  1  0  0  0  0  0  0  0  0  0
  -19.3020    1.2530   14.8980 O   0  0  0  0  0  0  0  0  0  0  0  0
  -17.2000    2.4860   14.4840 C   0  0  1  0  0  0  0  0  0  0  0  0
  -16.9730    3.5060   15.5290 O   0  0  0  0  0  0  0  0  0  0  0  0
  -16.9110    1.0890   15.0990 C   0  0  1  0  0  0  0  0  0  0  0  0
  -15.8450    0.9780   15.9490 O   0  0  0  0  0  0  0  0  0  0  0  0
  -18.2380    0.7480   15.7490 C   0  0  2  0  0  0  0  0  0  0  0  0
  -18.2776   -2.0859   13.2094 H   0  0  0  0  0  0  0  0  0  0  0  0
  -18.9592   -2.6816   18.7446 H   0  0  0  0  0  0  0  0  0  0  0  0
  -18.7685   -0.5900   19.1314 H   0  0  0  0  0  0  0  0  0  0  0  0
  -20.2799    2.5129   12.7957 H   0  0  0  0  0  0  0  0  0  0  0  0
  -18.8920    3.5780   12.3884 H   0  0  0  0  0  0  0  0  0  0  0  0
  -19.0760    3.3499   14.6195 H   0  0  0  0  0  0  0  0  0  0  0  0
  -16.5765    2.6828   13.5994 H   0  0  0  0  0  0  0  0  0  0  0  0
  -17.2457    4.3562   15.2046 H   0  0  0  0  0  0  0  0  0  0  0  0
  -16.7205    0.3835   14.2768 H   0  0  0  0  0  0  0  0  0  0  0  0
  -15.0490    1.2192   15.4900 H   0  0  0  0  0  0  0  0  0  0  0  0
  -18.2809    1.2897   16.7054 H   0  0  0  0  0  0  0  0  0  0  0  0
  1 11  1  0  0  0  0
  1 12  1  0  0  0  0
  1 13  2  0  0  0  0
  2  3  1  0  0  0  0
  2  9  1  0  0  0  0
  3  4  1  0  0  0  0
  3  5  2  0  0  0  0
  4 23  1  0  0  0  0
  5  6  1  0  0  0  0
  6  7  2  0  0  0  0
  8  6  1  0  0  0  0
  8 24  1  0  0  0  0
  9  8  2  0  0  0  0
  9 10  1  0  0  0  0
 10 25  1  0  0  0  0
 14  1  1  0  0  0  0
 15 14  1  0  0  0  0
 15 26  1  0  0  0  0
 15 27  1  0  0  0  0
 16 15  1  0  0  0  0
 16 18  1  0  0  0  0
 16 28  1  1  0  0  0
 17 16  1  0  0  0  0
 17 22  1  0  0  0  0
 18 19  1  0  0  0  0
 18 20  1  0  0  0  0
 18 29  1  6  0  0  0
 19 30  1  0  0  0  0
 20 21  1  0  0  0  0
 20 22  1  0  0  0  0
 20 31  1  6  0  0  0
 21 32  1  0  0  0  0
 22  2  1  0  0  0  0
 22 33  1  1  0  0  0
M  END
