1jk7_ligand
 OpenBabel08222323343D

124130  0  0  1  0  0  0  0  0999 V2000
   84.7320   52.5870   22.0760 C   0  0  0  0  0  0  0  0  0  0  0  0
   84.5130   51.9650   23.4460 C   0  0  2  0  0  0  0  0  0  0  0  0
   85.8020   51.8750   24.2370 C   0  0  0  0  0  0  0  0  0  0  0  0
   86.4660   53.2300   24.6430 C   0  0  2  0  0  0  0  0  0  0  0  0
   87.7070   53.1020   25.3890 C   0  0  0  0  0  0  0  0  0  0  0  0
   88.2490   54.4690   25.7830 C   0  0  0  0  0  0  0  0  0  0  0  0
   87.1240   55.1760   26.6000 C   0  0  2  0  0  0  0  0  0  0  0  0
   85.8480   55.3270   25.8470 C   0  0  2  0  0  0  0  0  0  0  0  0
   84.7100   55.9060   26.5380 C   0  0  0  0  0  0  0  0  0  0  0  0
   83.9760   56.9360   26.0960 C   0  0  0  0  0  0  0  0  0  0  0  0
   84.2890   57.5720   24.7500 C   0  0  0  0  0  0  0  0  0  0  0  0
   85.1530   56.6200   23.8730 C   0  0  1  0  0  0  0  0  0  0  0  0
   85.7790   57.3160   22.6710 C   0  0  1  0  0  0  0  0  0  0  0  0
   86.6190   56.3490   21.9220 C   0  0  0  0  0  0  0  0  0  0  0  0
   87.8380   56.4730   21.6450 C   0  0  0  0  0  0  0  0  0  0  0  0
   88.7790   55.5180   20.9260 C   0  0  1  0  0  0  0  0  0  0  0  0
   89.7590   56.0190   19.8730 C   0  0  0  0  0  0  0  0  0  0  0  0
   91.0150   55.1000   19.9920 C   0  0  0  0  0  0  0  0  0  0  0  0
   90.6000   54.1200   21.1830 C   0  0  1  0  0  0  0  0  0  0  0  0
   91.7550   53.7910   22.0410 C   0  0  0  0  0  0  0  0  0  0  0  0
   91.2910   52.8040   23.1970 C   0  0  0  0  0  0  0  0  0  0  0  0
   90.6520   51.5760   22.5060 C   0  0  2  0  0  0  0  0  0  0  0  0
   89.5400   52.0470   21.6190 C   0  0  2  0  0  0  0  0  0  0  0  0
   88.9160   50.7760   20.9570 C   0  0  1  0  0  0  0  0  0  0  0  0
   88.4170   49.7690   22.0900 C   0  0  0  0  0  0  0  0  0  0  0  0
   89.5190   49.4740   23.0350 C   0  0  1  0  0  0  0  0  0  0  0  0
   90.6590   48.4960   22.6060 C   0  0  2  0  0  0  0  0  0  0  0  0
   90.0630   47.1120   22.2130 C   0  0  0  0  0  0  0  0  0  0  0  0
   91.1050   46.0580   21.7310 C   0  0  1  0  0  0  0  0  0  0  0  0
   90.3560   44.7100   21.4850 C   0  0  2  0  0  0  0  0  0  0  0  0
   89.6430   44.1410   22.7260 C   0  0  1  0  0  0  0  0  0  0  0  0
   89.0400   42.7970   22.3110 C   0  0  0  0  0  0  0  0  0  0  0  0
   90.1090   41.8280   21.7220 C   0  0  0  0  0  0  0  0  0  0  0  0
   90.9130   42.4630   20.6410 C   0  0  2  0  0  0  0  0  0  0  0  0
   92.1630   41.7070   20.2210 C   0  0  0  0  0  0  0  0  0  0  0  0
   92.7310   42.2150   18.8650 C   0  0  0  0  0  0  0  0  0  0  0  0
   91.7240   42.3660   17.7510 C   0  0  0  0  0  0  0  0  0  0  0  0
   90.4870   43.1060   18.2570 C   0  0  0  0  0  0  0  0  0  0  0  0
   90.5510   43.9420   23.9750 C   0  0  0  0  0  0  0  0  0  0  0  0
   91.7570   46.5190   20.4420 C   0  0  0  0  0  0  0  0  0  0  0  0
   87.2320   49.3660   22.1030 C   0  0  0  0  0  0  0  0  0  0  0  0
   84.7660   57.9430   21.7610 C   0  0  0  0  0  0  0  0  0  0  0  0
   82.8040   57.5150   26.8540 C   0  0  0  0  0  0  0  0  0  0  0  0
   83.9360   50.5520   23.1170 C   0  0  0  0  0  0  0  0  0  0  0  0
   83.9670   53.6800   21.8290 O   0  5  0  0  0  0  0  0  0  0  0  0
   85.5070   52.2140   21.2070 O   0  0  0  0  0  0  0  0  0  0  0  0
   83.4800   52.6130   24.1090 O   0  0  0  0  0  0  0  0  0  0  0  0
   85.4130   53.9720   25.3830 O   0  0  0  0  0  0  0  0  0  0  0  0
   87.5860   56.4910   27.0330 O   0  0  0  0  0  0  0  0  0  0  0  0
   86.1770   56.0460   24.6410 O   0  0  0  0  0  0  0  0  0  0  0  0
   89.5730   54.8660   21.8870 O   0  0  0  0  0  0  0  0  0  0  0  0
   89.9890   52.9340   20.5950 O   0  0  0  0  0  0  0  0  0  0  0  0
   90.1980   50.7020   23.5310 O   0  0  0  0  0  0  0  0  0  0  0  0
   87.8760   51.1260   20.0650 O   0  0  0  0  0  0  0  0  0  0  0  0
   91.5940   48.3140   23.5810 O   0  0  0  0  0  0  0  0  0  0  0  0
   91.3600   43.7670   20.9990 O   0  0  0  0  0  0  0  0  0  0  0  0
   89.9870   42.5370   19.5200 O   0  0  0  0  0  0  0  0  0  0  0  0
   86.5286   51.3154   23.6297 H   0  0  0  0  0  0  0  0  0  0  0  0
   85.5892   51.3170   25.1607 H   0  0  0  0  0  0  0  0  0  0  0  0
   86.7056   53.7850   23.7240 H   0  0  0  0  0  0  0  0  0  0  0  0
   88.4510   52.5863   24.7641 H   0  0  0  0  0  0  0  0  0  0  0  0
   87.5208   52.5128   26.2990 H   0  0  0  0  0  0  0  0  0  0  0  0
   88.4905   55.0550   24.8840 H   0  0  0  0  0  0  0  0  0  0  0  0
   89.1523   54.3556   26.4004 H   0  0  0  0  0  0  0  0  0  0  0  0
   86.9199   54.5639   27.4909 H   0  0  0  0  0  0  0  0  0  0  0  0
   84.4299   55.4669   27.4944 H   0  0  0  0  0  0  0  0  0  0  0  0
   84.8403   58.5096   24.9142 H   0  0  0  0  0  0  0  0  0  0  0  0
   83.3463   57.7879   24.2258 H   0  0  0  0  0  0  0  0  0  0  0  0
   84.4983   55.8178   23.5017 H   0  0  0  0  0  0  0  0  0  0  0  0
   86.4291   58.1190   23.0486 H   0  0  0  0  0  0  0  0  0  0  0  0
   86.1290   55.4395   21.5775 H   0  0  0  0  0  0  0  0  0  0  0  0
   88.2911   57.4085   21.9697 H   0  0  0  0  0  0  0  0  0  0  0  0
   88.1353   54.7782   20.4277 H   0  0  0  0  0  0  0  0  0  0  0  0
   90.0306   57.0666   20.0697 H   0  0  0  0  0  0  0  0  0  0  0  0
   89.3178   55.9369   18.8687 H   0  0  0  0  0  0  0  0  0  0  0  0
   91.9128   55.6818   20.2480 H   0  0  0  0  0  0  0  0  0  0  0  0
   91.1922   54.5432   19.0601 H   0  0  0  0  0  0  0  0  0  0  0  0
   92.1563   54.7136   22.4856 H   0  0  0  0  0  0  0  0  0  0  0  0
   92.5352   53.3061   21.4359 H   0  0  0  0  0  0  0  0  0  0  0  0
   90.5537   53.3000   23.8453 H   0  0  0  0  0  0  0  0  0  0  0  0
   92.1572   52.4918   23.7988 H   0  0  0  0  0  0  0  0  0  0  0  0
   91.4028   51.0562   21.8927 H   0  0  0  0  0  0  0  0  0  0  0  0
   88.7837   52.5630   22.2288 H   0  0  0  0  0  0  0  0  0  0  0  0
   89.7012   50.2713   20.3750 H   0  0  0  0  0  0  0  0  0  0  0  0
   89.0261   49.0024   23.8979 H   0  0  0  0  0  0  0  0  0  0  0  0
   91.1603   48.9261   21.7264 H   0  0  0  0  0  0  0  0  0  0  0  0
   89.3381   47.2709   21.4010 H   0  0  0  0  0  0  0  0  0  0  0  0
   89.5447   46.7018   23.0922 H   0  0  0  0  0  0  0  0  0  0  0  0
   91.8770   45.9203   22.5024 H   0  0  0  0  0  0  0  0  0  0  0  0
   89.5966   44.8689   20.7052 H   0  0  0  0  0  0  0  0  0  0  0  0
   88.8349   44.8325   23.0065 H   0  0  0  0  0  0  0  0  0  0  0  0
   88.2665   42.9759   21.5496 H   0  0  0  0  0  0  0  0  0  0  0  0
   88.5834   42.3260   23.1940 H   0  0  0  0  0  0  0  0  0  0  0  0
   89.5978   40.9452   21.3105 H   0  0  0  0  0  0  0  0  0  0  0  0
   90.7869   41.5157   22.5300 H   0  0  0  0  0  0  0  0  0  0  0  0
   91.9152   40.6398   20.1233 H   0  0  0  0  0  0  0  0  0  0  0  0
   92.9319   41.8354   20.9971 H   0  0  0  0  0  0  0  0  0  0  0  0
   93.4996   41.5021   18.5318 H   0  0  0  0  0  0  0  0  0  0  0  0
   93.1931   43.1980   19.0387 H   0  0  0  0  0  0  0  0  0  0  0  0
   91.4293   41.3697   17.3897 H   0  0  0  0  0  0  0  0  0  0  0  0
   92.1767   42.9360   16.9263 H   0  0  0  0  0  0  0  0  0  0  0  0
   89.6948   43.0363   17.4970 H   0  0  0  0  0  0  0  0  0  0  0  0
   90.7463   44.1624   18.4206 H   0  0  0  0  0  0  0  0  0  0  0  0
   90.9834   44.9089   24.2717 H   0  0  0  0  0  0  0  0  0  0  0  0
   91.3602   43.2377   23.7316 H   0  0  0  0  0  0  0  0  0  0  0  0
   89.9510   43.5388   24.8041 H   0  0  0  0  0  0  0  0  0  0  0  0
   92.2841   47.4685   20.6169 H   0  0  0  0  0  0  0  0  0  0  0  0
   90.9849   46.6647   19.6722 H   0  0  0  0  0  0  0  0  0  0  0  0
   92.4751   45.7583   20.1018 H   0  0  0  0  0  0  0  0  0  0  0  0
   86.5408   49.6820   21.3231 H   0  0  0  0  0  0  0  0  0  0  0  0
   86.8922   48.6993   22.8942 H   0  0  0  0  0  0  0  0  0  0  0  0
   85.2805   58.4264   20.9174 H   0  0  0  0  0  0  0  0  0  0  0  0
   84.1886   58.6955   22.3181 H   0  0  0  0  0  0  0  0  0  0  0  0
   84.0857   57.1672   21.3797 H   0  0  0  0  0  0  0  0  0  0  0  0
   82.6793   56.9753   27.8044 H   0  0  0  0  0  0  0  0  0  0  0  0
   81.8899   57.4114   26.2509 H   0  0  0  0  0  0  0  0  0  0  0  0
   82.9896   58.5797   27.0586 H   0  0  0  0  0  0  0  0  0  0  0  0
   83.0034   50.6611   22.5440 H   0  0  0  0  0  0  0  0  0  0  0  0
   83.7299   50.0129   24.0534 H   0  0  0  0  0  0  0  0  0  0  0  0
   84.6680   49.9865   22.5218 H   0  0  0  0  0  0  0  0  0  0  0  0
   82.7097   52.6298   23.5531 H   0  0  0  0  0  0  0  0  0  0  0  0
   86.9296   56.8871   27.5941 H   0  0  0  0  0  0  0  0  0  0  0  0
   87.1739   51.5459   20.5480 H   0  0  0  0  0  0  0  0  0  0  0  0
   91.9622   49.1547   23.8260 H   0  0  0  0  0  0  0  0  0  0  0  0
  1 45  1  0  0  0  0
  1 46  2  0  0  0  0
  2  1  1  6  0  0  0
  2  3  1  0  0  0  0
  2 44  1  0  0  0  0
  2 47  1  0  0  0  0
  3  4  1  0  0  0  0
  3 58  1  0  0  0  0
  3 59  1  0  0  0  0
  4  5  1  0  0  0  0
  4 48  1  0  0  0  0
  4 60  1  6  0  0  0
  5  6  1  0  0  0  0
  5 61  1  0  0  0  0
  5 62  1  0  0  0  0
  6  7  1  0  0  0  0
  6 63  1  0  0  0  0
  6 64  1  0  0  0  0
  7  8  1  0  0  0  0
  7 49  1  0  0  0  0
  7 65  1  1  0  0  0
  8  9  1  1  0  0  0
  8 48  1  0  0  0  0
  8 50  1  0  0  0  0
  9 10  2  0  0  0  0
  9 66  1  0  0  0  0
 10 11  1  0  0  0  0
 10 43  1  0  0  0  0
 11 12  1  0  0  0  0
 11 67  1  0  0  0  0
 11 68  1  0  0  0  0
 12 13  1  0  0  0  0
 12 50  1  0  0  0  0
 12 69  1  6  0  0  0
 13 14  1  0  0  0  0
 13 42  1  0  0  0  0
 13 70  1  1  0  0  0
 14 15  2  0  0  0  0
 14 71  1  0  0  0  0
 15 16  1  0  0  0  0
 15 72  1  0  0  0  0
 16 17  1  0  0  0  0
 16 51  1  0  0  0  0
 16 73  1  6  0  0  0
 17 18  1  0  0  0  0
 17 74  1  0  0  0  0
 17 75  1  0  0  0  0
 18 19  1  0  0  0  0
 18 76  1  0  0  0  0
 18 77  1  0  0  0  0
 19 20  1  0  0  0  0
 19 51  1  1  0  0  0
 19 52  1  0  0  0  0
 20 21  1  0  0  0  0
 20 78  1  0  0  0  0
 20 79  1  0  0  0  0
 21 22  1  0  0  0  0
 21 80  1  0  0  0  0
 21 81  1  0  0  0  0
 22 23  1  0  0  0  0
 22 53  1  0  0  0  0
 22 82  1  6  0  0  0
 23 24  1  0  0  0  0
 23 52  1  0  0  0  0
 23 83  1  1  0  0  0
 24 25  1  0  0  0  0
 24 54  1  0  0  0  0
 24 84  1  6  0  0  0
 25 26  1  0  0  0  0
 25 41  2  0  0  0  0
 26 27  1  0  0  0  0
 26 53  1  0  0  0  0
 26 85  1  1  0  0  0
 27 28  1  0  0  0  0
 27 55  1  0  0  0  0
 27 86  1  6  0  0  0
 28 29  1  0  0  0  0
 28 87  1  0  0  0  0
 28 88  1  0  0  0  0
 29 30  1  0  0  0  0
 29 40  1  0  0  0  0
 29 89  1  1  0  0  0
 30 31  1  0  0  0  0
 30 56  1  0  0  0  0
 30 90  1  6  0  0  0
 31 32  1  0  0  0  0
 31 39  1  0  0  0  0
 31 91  1  1  0  0  0
 32 33  1  0  0  0  0
 32 92  1  0  0  0  0
 32 93  1  0  0  0  0
 33 34  1  0  0  0  0
 33 94  1  0  0  0  0
 33 95  1  0  0  0  0
 34 35  1  0  0  0  0
 34 56  1  1  0  0  0
 34 57  1  0  0  0  0
 35 36  1  0  0  0  0
 35 96  1  0  0  0  0
 35 97  1  0  0  0  0
 36 37  1  0  0  0  0
 36 98  1  0  0  0  0
 36 99  1  0  0  0  0
 37 38  1  0  0  0  0
 37100  1  0  0  0  0
 37101  1  0  0  0  0
 38 57  1  0  0  0  0
 38102  1  0  0  0  0
 38103  1  0  0  0  0
 39104  1  0  0  0  0
 39105  1  0  0  0  0
 39106  1  0  0  0  0
 40107  1  0  0  0  0
 40108  1  0  0  0  0
 40109  1  0  0  0  0
 41110  1  0  0  0  0
 41111  1  0  0  0  0
 42112  1  0  0  0  0
 42113  1  0  0  0  0
 42114  1  0  0  0  0
 43115  1  0  0  0  0
 43116  1  0  0  0  0
 43117  1  0  0  0  0
 44118  1  0  0  0  0
 44119  1  0  0  0  0
 44120  1  0  0  0  0
 47121  1  0  0  0  0
 49122  1  0  0  0  0
 54123  1  0  0  0  0
 55124  1  0  0  0  0
M  CHG  1  45  -1
M  END
