1jlq_ligand
 OpenBabel08222323343D

 34 35  0  0  0  0  0  0  0  0999 V2000
   -3.9010  -33.5840   22.5330 C   0  0  0  0  0  0  0  0  0  0  0  0
   -2.8990  -34.3040   21.8250 C   0  0  0  0  0  0  0  0  0  0  0  0
   -2.0400  -35.2210   22.5310 C   0  0  0  0  0  0  0  0  0  0  0  0
   -2.1770  -35.4350   23.9750 C   0  0  0  0  0  0  0  0  0  0  0  0
   -3.2100  -34.6770   24.6290 C   0  0  0  0  0  0  0  0  0  0  0  0
   -4.0550  -33.7710   23.9240 C   0  0  0  0  0  0  0  0  0  0  0  0
   -1.2120  -36.5520   24.8930 S   0  0  0  0  0  0  0  0  0  0  0  0
   -1.8200  -36.7460   26.2190 O   0  0  0  0  0  0  0  0  0  0  0  0
   -0.9970  -37.7880   24.1380 O   0  0  0  0  0  0  0  0  0  0  0  0
    0.2830  -35.7500   25.1550 C   0  0  0  0  0  0  0  0  0  0  0  0
    0.3400  -34.6140   26.0450 C   0  0  0  0  0  0  0  0  0  0  0  0
    1.5550  -33.9050   26.2480 C   0  0  0  0  0  0  0  0  0  0  0  0
    2.7350  -34.3310   25.5610 C   0  0  0  0  0  0  0  0  0  0  0  0
    2.7120  -35.4660   24.6790 C   0  0  0  0  0  0  0  0  0  0  0  0
    1.4720  -36.1590   24.4930 C   0  0  0  0  0  0  0  0  0  0  0  0
   -0.2340  -36.4910   21.2010 N   0  0  0  0  0  0  0  0  0  0  0  0
   -1.0370  -35.9250   21.7910 C   0  0  0  0  0  0  0  0  0  0  0  0
   -2.7780  -34.1260   20.4120 N   0  0  0  0  0  0  0  0  0  0  0  0
    1.5710  -32.7000   27.1980 C   0  0  0  0  0  0  0  0  0  0  0  0
    3.9780  -35.9500   23.9690 C   0  0  0  0  0  0  0  0  0  0  0  0
   -4.5464  -32.8917   22.0045 H   0  0  0  0  0  0  0  0  0  0  0  0
   -3.3510  -34.7992   25.6968 H   0  0  0  0  0  0  0  0  0  0  0  0
   -4.8210  -33.2219   24.4594 H   0  0  0  0  0  0  0  0  0  0  0  0
   -0.5566  -34.2976   26.5656 H   0  0  0  0  0  0  0  0  0  0  0  0
    3.6622  -33.7889   25.7079 H   0  0  0  0  0  0  0  0  0  0  0  0
    1.4400  -37.0167   23.8308 H   0  0  0  0  0  0  0  0  0  0  0  0
   -3.3989  -33.4671   19.9209 H   0  0  0  0  0  0  0  0  0  0  0  0
   -2.0699  -34.6567   19.8848 H   0  0  0  0  0  0  0  0  0  0  0  0
    0.5646  -32.5490   27.6157 H   0  0  0  0  0  0  0  0  0  0  0  0
    1.8768  -31.8003   26.6439 H   0  0  0  0  0  0  0  0  0  0  0  0
    2.2829  -32.8869   28.0154 H   0  0  0  0  0  0  0  0  0  0  0  0
    4.8206  -35.2947   24.2347 H   0  0  0  0  0  0  0  0  0  0  0  0
    3.8212  -35.9226   22.8806 H   0  0  0  0  0  0  0  0  0  0  0  0
    4.2024  -36.9806   24.2814 H   0  0  0  0  0  0  0  0  0  0  0  0
  1  2  2  0  0  0  0
  1  6  1  0  0  0  0
  1 21  1  0  0  0  0
  2  3  1  0  0  0  0
  2 18  1  0  0  0  0
  3  4  2  0  0  0  0
  3 17  1  0  0  0  0
  4  5  1  0  0  0  0
  4  7  1  0  0  0  0
  5  6  2  0  0  0  0
  5 22  1  0  0  0  0
  6 23  1  0  0  0  0
  7  8  2  0  0  0  0
  7  9  2  0  0  0  0
  7 10  1  0  0  0  0
 10 11  2  0  0  0  0
 10 15  1  0  0  0  0
 11 12  1  0  0  0  0
 11 24  1  0  0  0  0
 12 13  2  0  0  0  0
 12 19  1  0  0  0  0
 13 14  1  0  0  0  0
 13 25  1  0  0  0  0
 14 15  2  0  0  0  0
 14 20  1  0  0  0  0
 15 26  1  0  0  0  0
 17 16  3  0  0  0  0
 18 27  1  0  0  0  0
 18 28  1  0  0  0  0
 19 29  1  0  0  0  0
 19 30  1  0  0  0  0
 19 31  1  0  0  0  0
 20 32  1  0  0  0  0
 20 33  1  0  0  0  0
 20 34  1  0  0  0  0
M  END
