1jlx_ligand
 OpenBabel08222323343D

 64 66  0  0  1  0  0  0  0  0999 V2000
   54.4680   88.3880  -31.3650 C   0  0  1  0  0  0  0  0  0  0  0  0
   54.1410   87.0000  -31.8680 C   0  0  1  0  0  0  0  0  0  0  0  0
   53.0150   87.0570  -32.8950 C   0  0  2  0  0  0  0  0  0  0  0  0
   51.8130   87.7140  -32.2780 C   0  0  2  0  0  0  0  0  0  0  0  0
   52.1740   89.0700  -31.6540 C   0  0  1  0  0  0  0  0  0  0  0  0
   51.0160   89.6280  -30.8610 C   0  0  0  0  0  0  0  0  0  0  0  0
   55.2960   86.4320  -32.4490 O   0  0  0  0  0  0  0  0  0  0  0  0
   52.6550   85.7400  -33.2890 O   0  0  0  0  0  0  0  0  0  0  0  0
   51.2730   86.8400  -31.3070 O   0  0  0  0  0  0  0  0  0  0  0  0
   53.3060   88.9650  -30.7480 O   0  0  0  0  0  0  0  0  0  0  0  0
   51.3090   90.9360  -30.4130 O   0  0  0  0  0  0  0  0  0  0  0  0
   58.6450   90.1050  -29.5090 C   0  0  1  0  0  0  0  0  0  0  0  0
   57.7190   88.9110  -29.6630 C   0  0  1  0  0  0  0  0  0  0  0  0
   56.4200   89.3860  -30.3240 C   0  0  2  0  0  0  0  0  0  0  0  0
   55.8040   90.5250  -29.5200 C   0  0  2  0  0  0  0  0  0  0  0  0
   56.8140   91.6280  -29.2610 C   0  0  1  0  0  0  0  0  0  0  0  0
   56.3000   92.6510  -28.2690 C   0  0  0  0  0  0  0  0  0  0  0  0
   58.5600   86.6750  -29.9900 C   0  0  0  0  0  0  0  0  0  0  0  0
   59.2060   85.6570  -30.9180 C   0  0  0  0  0  0  0  0  0  0  0  0
   58.3510   87.8920  -30.4780 N   0  0  0  0  0  0  0  0  0  0  0  0
   58.9630   90.6240  -30.7780 O   0  0  0  0  0  0  0  0  0  0  0  0
   55.4880   88.2930  -30.4150 O   0  0  0  0  0  0  0  0  0  0  0  0
   55.3480   90.0250  -28.2820 O   0  0  0  0  0  0  0  0  0  0  0  0
   58.0120   91.0740  -28.6950 O   0  0  0  0  0  0  0  0  0  0  0  0
   55.0610   93.2130  -28.6840 O   0  0  0  0  0  0  0  0  0  0  0  0
   58.2760   86.3830  -28.8270 O   0  0  0  0  0  0  0  0  0  0  0  0
   60.2570   91.2380  -30.9430 C   0  0  0  0  0  0  0  0  0  0  0  0
   61.4180   90.3020  -31.1920 C   0  0  0  0  0  0  0  0  0  0  0  0
   61.2080   89.0660  -31.7870 C   0  0  0  0  0  0  0  0  0  0  0  0
   62.2330   88.1750  -31.9220 C   0  0  0  0  0  0  0  0  0  0  0  0
   63.4960   88.5030  -31.4660 C   0  0  0  0  0  0  0  0  0  0  0  0
   63.7220   89.7290  -30.8860 C   0  0  0  0  0  0  0  0  0  0  0  0
   62.6900   90.6200  -30.7530 C   0  0  0  0  0  0  0  0  0  0  0  0
   54.7953   89.0201  -32.2037 H   0  0  0  0  0  0  0  0  0  0  0  0
   53.8194   86.3770  -31.0204 H   0  0  0  0  0  0  0  0  0  0  0  0
   53.3453   87.6310  -33.7733 H   0  0  0  0  0  0  0  0  0  0  0  0
   51.0605   87.8838  -33.0621 H   0  0  0  0  0  0  0  0  0  0  0  0
   52.4269   89.7679  -32.4658 H   0  0  0  0  0  0  0  0  0  0  0  0
   50.8272   88.9812  -29.9915 H   0  0  0  0  0  0  0  0  0  0  0  0
   50.1202   89.6558  -31.4987 H   0  0  0  0  0  0  0  0  0  0  0  0
   55.9849   86.3811  -31.7968 H   0  0  0  0  0  0  0  0  0  0  0  0
   52.3624   85.2519  -32.5283 H   0  0  0  0  0  0  0  0  0  0  0  0
   51.0196   86.0243  -31.7228 H   0  0  0  0  0  0  0  0  0  0  0  0
   52.0811   90.9146  -29.8600 H   0  0  0  0  0  0  0  0  0  0  0  0
   59.5744   89.7811  -29.0178 H   0  0  0  0  0  0  0  0  0  0  0  0
   57.4935   88.4913  -28.6715 H   0  0  0  0  0  0  0  0  0  0  0  0
   56.6476   89.7476  -31.3376 H   0  0  0  0  0  0  0  0  0  0  0  0
   54.9551   90.9410  -30.0823 H   0  0  0  0  0  0  0  0  0  0  0  0
   57.0462   92.1264  -30.2137 H   0  0  0  0  0  0  0  0  0  0  0  0
   57.0420   93.4573  -28.1722 H   0  0  0  0  0  0  0  0  0  0  0  0
   56.1603   92.1622  -27.2935 H   0  0  0  0  0  0  0  0  0  0  0  0
   59.3195   84.6991  -30.3893 H   0  0  0  0  0  0  0  0  0  0  0  0
   60.1951   86.0223  -31.2313 H   0  0  0  0  0  0  0  0  0  0  0  0
   58.5704   85.5135  -31.8042 H   0  0  0  0  0  0  0  0  0  0  0  0
   58.6313   88.1071  -31.4135 H   0  0  0  0  0  0  0  0  0  0  0  0
   54.6950   89.3521  -28.4347 H   0  0  0  0  0  0  0  0  0  0  0  0
   54.7708   93.8478  -28.0396 H   0  0  0  0  0  0  0  0  0  0  0  0
   60.1937   91.9276  -31.7976 H   0  0  0  0  0  0  0  0  0  0  0  0
   60.4764   91.8074  -30.0278 H   0  0  0  0  0  0  0  0  0  0  0  0
   60.2197   88.8055  -32.1483 H   0  0  0  0  0  0  0  0  0  0  0  0
   62.0569   87.2114  -32.3862 H   0  0  0  0  0  0  0  0  0  0  0  0
   64.3090   87.7930  -31.5658 H   0  0  0  0  0  0  0  0  0  0  0  0
   64.7139   89.9897  -30.5350 H   0  0  0  0  0  0  0  0  0  0  0  0
   62.8729   91.5866  -30.2978 H   0  0  0  0  0  0  0  0  0  0  0  0
  1 10  1  0  0  0  0
  1  2  1  0  0  0  0
  1 34  1  6  0  0  0
  2  7  1  0  0  0  0
  2  3  1  0  0  0  0
  2 35  1  1  0  0  0
  3  8  1  0  0  0  0
  3  4  1  0  0  0  0
  3 36  1  6  0  0  0
  4  9  1  0  0  0  0
  4 37  1  6  0  0  0
  5  4  1  0  0  0  0
  5  6  1  0  0  0  0
  5 38  1  6  0  0  0
  6 11  1  0  0  0  0
  6 39  1  0  0  0  0
  6 40  1  0  0  0  0
  7 41  1  0  0  0  0
  8 42  1  0  0  0  0
  9 43  1  0  0  0  0
 10  5  1  0  0  0  0
 11 44  1  0  0  0  0
 12 24  1  0  0  0  0
 12 21  1  0  0  0  0
 12 45  1  1  0  0  0
 13 12  1  0  0  0  0
 13 20  1  0  0  0  0
 13 46  1  1  0  0  0
 14 13  1  0  0  0  0
 14 15  1  0  0  0  0
 14 47  1  6  0  0  0
 15 23  1  0  0  0  0
 15 16  1  0  0  0  0
 15 48  1  6  0  0  0
 16 24  1  0  0  0  0
 16 17  1  0  0  0  0
 16 49  1  6  0  0  0
 17 25  1  0  0  0  0
 17 50  1  0  0  0  0
 17 51  1  0  0  0  0
 18 26  2  0  0  0  0
 18 19  1  0  0  0  0
 19 52  1  0  0  0  0
 19 53  1  0  0  0  0
 19 54  1  0  0  0  0
 20 18  1  0  0  0  0
 20 55  1  0  0  0  0
 21 27  1  0  0  0  0
 22 14  1  0  0  0  0
 22  1  1  0  0  0  0
 23 56  1  0  0  0  0
 25 57  1  0  0  0  0
 27 28  1  0  0  0  0
 27 58  1  0  0  0  0
 27 59  1  0  0  0  0
 28 33  2  0  0  0  0
 28 29  1  0  0  0  0
 29 30  2  0  0  0  0
 29 60  1  0  0  0  0
 30 31  1  0  0  0  0
 30 61  1  0  0  0  0
 31 62  1  0  0  0  0
 32 31  2  0  0  0  0
 32 63  1  0  0  0  0
 33 32  1  0  0  0  0
 33 64  1  0  0  0  0
M  END
