1jm4_ligand
 OpenBabel08222323343D

214214  0  0  1  0  0  0  0  0999 V2000
  -20.4530    3.5100   -9.0650 N   0  3  0  0  0  0  0  0  0  0  0  0
  -19.8910    4.8830   -9.1900 C   0  0  2  0  0  0  0  0  0  0  0  0
  -18.5690    4.9890   -8.4270 C   0  0  0  0  0  0  0  0  0  0  0  0
  -18.5460    5.0430   -7.2130 O   0  0  0  0  0  0  0  0  0  0  0  0
  -20.9430    5.7970   -8.5580 C   0  0  0  0  0  0  0  0  0  0  0  0
  -21.2300    6.8700   -9.4420 O   0  0  0  0  0  0  0  0  0  0  0  0
  -17.4680    5.0220   -9.1270 N   0  0  0  0  0  0  0  0  0  0  0  0
  -16.1500    5.1280   -8.4380 C   0  0  2  0  0  0  0  0  0  0  0  0
  -16.0150    4.0370   -7.3730 C   0  0  0  0  0  0  0  0  0  0  0  0
  -16.8390    3.1490   -7.2730 O   0  0  0  0  0  0  0  0  0  0  0  0
  -16.1620    6.5110   -7.7840 C   0  0  0  0  0  0  0  0  0  0  0  0
  -15.4110    7.4900   -8.6540 C   0  0  0  0  0  0  0  0  0  0  0  0
  -14.0390    7.3190   -8.8780 C   0  0  0  0  0  0  0  0  0  0  0  0
  -16.0840    8.5740   -9.2320 C   0  0  0  0  0  0  0  0  0  0  0  0
  -13.3410    8.2280   -9.6820 C   0  0  0  0  0  0  0  0  0  0  0  0
  -15.3860    9.4830  -10.0370 C   0  0  0  0  0  0  0  0  0  0  0  0
  -14.0150    9.3110  -10.2620 C   0  0  0  0  0  0  0  0  0  0  0  0
  -13.3270   10.2070  -11.0550 O   0  0  0  0  0  0  0  0  0  0  0  0
  -14.9790    4.0930   -6.5790 N   0  0  0  0  0  0  0  0  0  0  0  0
  -14.7890    3.0600   -5.5190 C   0  0  0  0  0  0  0  0  0  0  0  0
  -16.0420    2.9840   -4.6470 C   0  0  0  0  0  0  0  0  0  0  0  0
  -17.0320    3.6390   -4.9060 O   0  0  0  0  0  0  0  0  0  0  0  0
  -16.0110    2.1860   -3.6150 N   0  0  0  0  0  0  0  0  0  0  0  0
  -17.2000    2.0810   -2.7230 C   0  0  2  0  0  0  0  0  0  0  0  0
  -16.7540    1.9890   -1.2650 C   0  0  0  0  0  0  0  0  0  0  0  0
  -17.0440    2.8530   -0.4610 O   0  0  0  0  0  0  0  0  0  0  0  0
  -17.9080    0.7930   -3.1470 C   0  0  0  0  0  0  0  0  0  0  0  0
  -19.3180    0.7740   -2.5520 C   0  0  0  0  0  0  0  0  0  0  0  0
  -20.1190    1.9550   -3.1050 C   0  0  0  0  0  0  0  0  0  0  0  0
  -21.3720    1.3470   -3.6460 N   0  0  0  0  0  0  0  0  0  0  0  0
  -22.4180    2.0920   -3.9220 C   0  0  0  0  0  3  0  0  0  0  0  0
  -22.3920    3.3890   -3.7330 N   0  0  0  0  0  0  0  0  0  0  0  0
  -23.4990    1.5330   -4.3930 N   0  0  0  0  0  0  0  0  0  0  0  0
  -10.3000   -1.7090    2.2530 O   0  0  0  0  0  0  0  0  0  0  0  0
  -10.2050   -0.9330    1.3230 C   0  0  0  0  0  0  0  0  0  0  0  0
   -8.8560   -0.3230    0.9350 C   0  0  0  0  0  0  0  0  0  0  0  0
  -11.2600   -0.5290    0.6690 N   0  0  0  0  0  0  0  0  0  0  0  0
  -12.1480    0.5040    1.2660 C   0  0  0  0  0  0  0  0  0  0  0  0
  -12.1020    1.6700    0.2760 C   0  0  0  0  0  0  0  0  0  0  0  0
  -13.4720    1.8530   -0.3920 C   0  0  0  0  0  0  0  0  0  0  0  0
  -14.5730    1.9660    0.6700 C   0  0  0  0  0  0  0  0  0  0  0  0
  -15.5650    0.8140    0.4870 C   0  0  2  0  0  0  0  0  0  0  0  0
  -16.0410    0.9520   -0.9180 N   0  0  0  0  0  0  0  0  0  0  0  0
  -16.7390    0.9440    1.4600 C   0  0  0  0  0  0  0  0  0  0  0  0
  -16.7850    1.8390    2.2800 O   0  0  0  0  0  0  0  0  0  0  0  0
  -17.6940    0.0580    1.3640 N   0  0  0  0  0  0  0  0  0  0  0  0
  -18.8740    0.1240    2.2710 C   0  0  2  0  0  0  0  0  0  0  0  0
  -19.1560   -1.2530    2.8760 C   0  0  0  0  0  0  0  0  0  0  0  0
  -18.2830   -2.0940    2.9600 O   0  0  0  0  0  0  0  0  0  0  0  0
  -20.0330    0.5600    1.3680 C   0  0  0  0  0  0  0  0  0  0  0  0
  -20.2780   -0.5040    0.2940 C   0  0  0  0  0  0  0  0  0  0  0  0
  -21.3860   -0.0320   -0.6510 C   0  0  0  0  0  0  0  0  0  0  0  0
  -22.7430   -0.1650    0.0430 C   0  0  0  0  0  0  0  0  0  0  0  0
  -23.1880    1.2370    0.2830 N   0  3  0  0  0  0  0  0  0  0  0  0
  -20.3690   -1.4950    3.2910 N   0  0  0  0  0  0  0  0  0  0  0  0
  -20.7020   -2.8230    3.8780 C   0  0  2  0  0  0  0  0  0  0  0  0
  -20.7710   -3.8820    2.7750 C   0  0  0  0  0  0  0  0  0  0  0  0
  -20.5930   -3.5880    1.6090 O   0  0  0  0  0  0  0  0  0  0  0  0
  -22.0760   -2.6360    4.5250 C   0  0  0  0  0  0  0  0  0  0  0  0
  -21.9440   -1.7260    5.7500 C   0  0  0  0  0  0  0  0  0  0  0  0
  -21.0680   -2.4090    6.8030 C   0  0  0  0  0  0  0  0  0  0  0  0
  -21.5670   -1.8900    8.1120 N   0  0  0  0  0  0  0  0  0  0  0  0
  -22.7550   -2.2230    8.5600 C   0  0  0  0  0  3  0  0  0  0  0  0
  -23.5390   -3.0180    7.8740 N   0  0  0  0  0  0  0  0  0  0  0  0
  -23.1630   -1.7550    9.7080 N   0  0  0  0  0  0  0  0  0  0  0  0
  -21.0240   -5.1110    3.1310 N   0  0  0  0  0  0  0  0  0  0  0  0
  -21.1000   -6.1820    2.0980 C   0  0  2  0  0  0  0  0  0  0  0  0
  -22.4640   -6.1580    1.4060 C   0  0  0  0  0  0  0  0  0  0  0  0
  -23.4930   -6.3100    2.0350 O   0  0  0  0  0  0  0  0  0  0  0  0
  -20.9170   -7.4890    2.8690 C   0  0  0  0  0  0  0  0  0  0  0  0
  -19.6850   -8.2250    2.3370 C   0  0  0  0  0  0  0  0  0  0  0  0
  -19.9350   -9.7330    2.3790 C   0  0  0  0  0  0  0  0  0  0  0  0
  -18.6850  -10.3430    1.8370 N   0  0  0  0  0  0  0  0  0  0  0  0
  -18.6360  -11.6190    1.5300 C   0  0  0  0  0  3  0  0  0  0  0  0
  -19.6810  -12.3930    1.6890 N   0  0  0  0  0  0  0  0  0  0  0  0
  -17.5290  -12.1240    1.0580 N   0  0  0  0  0  0  0  0  0  0  0  0
  -22.4800   -5.9690    0.1160 N   0  0  0  0  0  0  0  0  0  0  0  0
  -23.7760   -5.9350   -0.6180 C   0  0  2  0  0  0  0  0  0  0  0  0
  -24.5060   -7.2720   -0.4700 C   0  0  0  0  0  0  0  0  0  0  0  0
  -24.1520   -8.2560   -1.0880 O   0  0  0  0  0  0  0  0  0  0  0  0
  -23.3870   -5.6970   -2.0780 C   0  0  0  0  0  0  0  0  0  0  0  0
  -24.6330   -5.7750   -2.9650 C   0  0  0  0  0  0  0  0  0  0  0  0
  -24.7800   -4.4730   -3.7540 C   0  0  0  0  0  0  0  0  0  0  0  0
  -25.7000   -3.7120   -3.5280 O   0  0  0  0  0  0  0  0  0  0  0  0
  -23.9060   -4.1820   -4.6780 N   0  0  0  0  0  0  0  0  0  0  0  0
  -25.5280   -7.3120    0.3390 N   0  0  0  0  0  0  0  0  0  0  0  0
  -26.2830   -8.5830    0.5230 C   0  0  2  0  0  0  0  0  0  0  0  0
  -27.2020   -8.8340   -0.6740 C   0  0  0  0  0  0  0  0  0  0  0  0
  -28.1920   -8.1550   -0.8610 O   0  0  0  0  0  0  0  0  0  0  0  0
  -27.1080   -8.3650    1.7920 C   0  0  0  0  0  0  0  0  0  0  0  0
  -27.5180   -9.7200    2.3710 C   0  0  0  0  0  0  0  0  0  0  0  0
  -28.5320  -10.3870    1.4390 C   0  0  0  0  0  0  0  0  0  0  0  0
  -29.5360  -11.0110    2.3500 N   0  0  0  0  0  0  0  0  0  0  0  0
  -29.2640  -12.1240    2.9920 C   0  0  0  0  0  3  0  0  0  0  0  0
  -28.1050  -12.7190    2.8520 N   0  0  0  0  0  0  0  0  0  0  0  0
  -30.1630  -12.6450    3.7810 N   0  0  0  0  0  0  0  0  0  0  0  0
  -26.8830   -9.8040   -1.4860 N   0  0  0  0  0  0  0  0  0  0  0  0
  -27.7410  -10.0960   -2.6690 C   0  0  2  0  0  0  0  0  0  0  0  0
  -28.6650  -11.2800   -2.3770 C   0  0  0  0  0  0  0  0  0  0  0  0
  -28.7470  -12.1630   -3.2150 O   0  5  0  0  0  0  0  0  0  0  0  0
  -26.7590  -10.4500   -3.7890 C   0  0  0  0  0  0  0  0  0  0  0  0
  -26.1780   -8.9310   -4.5840 S   0  0  0  0  0  0  0  0  0  0  0  0
  -29.3220  -11.2530   -1.3490 O   0  0  0  0  0  0  0  0  0  0  0  0
  -21.3225    3.4554   -9.5720 H   0  0  0  0  0  0  0  0  0  0  0  0
  -20.6174    3.3014   -8.0926 H   0  0  0  0  0  0  0  0  0  0  0  0
  -19.7997    2.8435   -9.4458 H   0  0  0  0  0  0  0  0  0  0  0  0
  -19.7311    5.1442  -10.2465 H   0  0  0  0  0  0  0  0  0  0  0  0
  -20.5582    6.1972   -7.6084 H   0  0  0  0  0  0  0  0  0  0  0  0
  -21.8617    5.2225   -8.3684 H   0  0  0  0  0  0  0  0  0  0  0  0
  -21.8831    7.4368   -9.0487 H   0  0  0  0  0  0  0  0  0  0  0  0
  -17.5083    4.9762  -10.1251 H   0  0  0  0  0  0  0  0  0  0  0  0
  -15.3244    5.0447   -9.1601 H   0  0  0  0  0  0  0  0  0  0  0  0
  -15.6794    6.4534   -6.7972 H   0  0  0  0  0  0  0  0  0  0  0  0
  -17.2015    6.8503   -7.6645 H   0  0  0  0  0  0  0  0  0  0  0  0
  -13.5171    6.4820   -8.4284 H   0  0  0  0  0  0  0  0  0  0  0  0
  -17.1451    8.7093   -9.0562 H   0  0  0  0  0  0  0  0  0  0  0  0
  -12.2794    8.0941   -9.8558 H   0  0  0  0  0  0  0  0  0  0  0  0
  -15.9077   10.3203  -10.4862 H   0  0  0  0  0  0  0  0  0  0  0  0
  -12.4143    9.9482  -11.1048 H   0  0  0  0  0  0  0  0  0  0  0  0
  -14.3113    4.8303   -6.6819 H   0  0  0  0  0  0  0  0  0  0  0  0
  -13.9245    3.3305   -4.8949 H   0  0  0  0  0  0  0  0  0  0  0  0
  -14.6102    2.0817   -5.9890 H   0  0  0  0  0  0  0  0  0  0  0  0
  -15.1913    1.6462   -3.4232 H   0  0  0  0  0  0  0  0  0  0  0  0
  -17.8628    2.9491   -2.8539 H   0  0  0  0  0  0  0  0  0  0  0  0
  -17.3421   -0.0758   -2.7798 H   0  0  0  0  0  0  0  0  0  0  0  0
  -17.9713    0.7522   -4.2444 H   0  0  0  0  0  0  0  0  0  0  0  0
  -19.2553    0.8539   -1.4567 H   0  0  0  0  0  0  0  0  0  0  0  0
  -19.8180   -0.1675   -2.8230 H   0  0  0  0  0  0  0  0  0  0  0  0
  -19.5587    2.4630   -3.9037 H   0  0  0  0  0  0  0  0  0  0  0  0
  -20.3511    2.6740   -2.3055 H   0  0  0  0  0  0  0  0  0  0  0  0
  -21.4161    0.3302   -3.8046 H   0  0  0  0  0  0  0  0  0  0  0  0
  -23.2211    3.9585   -3.9547 H   0  0  0  0  0  0  0  0  0  0  0  0
  -21.5424    3.8386   -3.3628 H   0  0  0  0  0  0  0  0  0  0  0  0
  -23.5280    0.5146   -4.5445 H   0  0  0  0  0  0  0  0  0  0  0  0
  -24.3232    2.1102   -4.6132 H   0  0  0  0  0  0  0  0  0  0  0  0
   -8.9910    0.3473    0.0733 H   0  0  0  0  0  0  0  0  0  0  0  0
   -8.1535   -1.1263    0.6682 H   0  0  0  0  0  0  0  0  0  0  0  0
   -8.4540    0.2485    1.7846 H   0  0  0  0  0  0  0  0  0  0  0  0
  -11.4704   -0.9127   -0.2302 H   0  0  0  0  0  0  0  0  0  0  0  0
  -11.7727    0.8163    2.2517 H   0  0  0  0  0  0  0  0  0  0  0  0
  -13.1743    0.1218    1.3686 H   0  0  0  0  0  0  0  0  0  0  0  0
  -11.3465    1.4617   -0.4958 H   0  0  0  0  0  0  0  0  0  0  0  0
  -11.8335    2.5919    0.8127 H   0  0  0  0  0  0  0  0  0  0  0  0
  -13.6790    0.9871   -1.0381 H   0  0  0  0  0  0  0  0  0  0  0  0
  -13.4594    2.7695   -1.0001 H   0  0  0  0  0  0  0  0  0  0  0  0
  -15.0980    2.9259    0.5558 H   0  0  0  0  0  0  0  0  0  0  0  0
  -14.1247    1.9103    1.6729 H   0  0  0  0  0  0  0  0  0  0  0  0
  -15.0674   -0.1553    0.6380 H   0  0  0  0  0  0  0  0  0  0  0  0
  -15.8146    0.2511   -1.5944 H   0  0  0  0  0  0  0  0  0  0  0  0
  -17.6328   -0.6677    0.6787 H   0  0  0  0  0  0  0  0  0  0  0  0
  -18.7089    0.8557    3.0756 H   0  0  0  0  0  0  0  0  0  0  0  0
  -19.7811    1.5157    0.8852 H   0  0  0  0  0  0  0  0  0  0  0  0
  -20.9424    0.6839    1.9742 H   0  0  0  0  0  0  0  0  0  0  0  0
  -20.5825   -1.4458    0.7740 H   0  0  0  0  0  0  0  0  0  0  0  0
  -19.3529   -0.6665   -0.2785 H   0  0  0  0  0  0  0  0  0  0  0  0
  -21.3784   -0.6492   -1.5615 H   0  0  0  0  0  0  0  0  0  0  0  0
  -21.2140    1.0206   -0.9201 H   0  0  0  0  0  0  0  0  0  0  0  0
  -22.6399   -0.7069    0.9947 H   0  0  0  0  0  0  0  0  0  0  0  0
  -23.4588   -0.6931   -0.6040 H   0  0  0  0  0  0  0  0  0  0  0  0
  -24.0851    1.2307    0.7425 H   0  0  0  0  0  0  0  0  0  0  0  0
  -23.2652    1.7205   -0.5981 H   0  0  0  0  0  0  0  0  0  0  0  0
  -22.5147    1.7080    0.8669 H   0  0  0  0  0  0  0  0  0  0  0  0
  -21.0742   -0.7900    3.2151 H   0  0  0  0  0  0  0  0  0  0  0  0
  -19.9543   -3.1171    4.6293 H   0  0  0  0  0  0  0  0  0  0  0  0
  -22.4711   -3.6144    4.8360 H   0  0  0  0  0  0  0  0  0  0  0  0
  -22.7635   -2.1767    3.7995 H   0  0  0  0  0  0  0  0  0  0  0  0
  -22.9412   -1.5331    6.1723 H   0  0  0  0  0  0  0  0  0  0  0  0
  -21.4819   -0.7736    5.4509 H   0  0  0  0  0  0  0  0  0  0  0  0
  -20.0105   -2.1428    6.6587 H   0  0  0  0  0  0  0  0  0  0  0  0
  -21.1814   -3.5019    6.7513 H   0  0  0  0  0  0  0  0  0  0  0  0
  -20.9709   -1.2625    8.6704 H   0  0  0  0  0  0  0  0  0  0  0  0
  -24.4680   -3.2682    8.2418 H   0  0  0  0  0  0  0  0  0  0  0  0
  -23.2262   -3.3927    6.9670 H   0  0  0  0  0  0  0  0  0  0  0  0
  -22.5543   -1.1294   10.2548 H   0  0  0  0  0  0  0  0  0  0  0  0
  -24.0937   -2.0112   10.0672 H   0  0  0  0  0  0  0  0  0  0  0  0
  -21.1667   -5.3340    4.0953 H   0  0  0  0  0  0  0  0  0  0  0  0
  -20.3036   -6.0575    1.3495 H   0  0  0  0  0  0  0  0  0  0  0  0
  -21.8075   -8.1210    2.7366 H   0  0  0  0  0  0  0  0  0  0  0  0
  -20.7795   -7.2684    3.9378 H   0  0  0  0  0  0  0  0  0  0  0  0
  -18.8134   -7.9803    2.9618 H   0  0  0  0  0  0  0  0  0  0  0  0
  -19.4916   -7.9141    1.2997 H   0  0  0  0  0  0  0  0  0  0  0  0
  -20.7992   -9.9999    1.7530 H   0  0  0  0  0  0  0  0  0  0  0  0
  -20.1130  -10.0675    3.4117 H   0  0  0  0  0  0  0  0  0  0  0  0
  -17.8499   -9.7554    1.7020 H   0  0  0  0  0  0  0  0  0  0  0  0
  -19.6245  -13.3916    1.4429 H   0  0  0  0  0  0  0  0  0  0  0  0
  -20.5591  -12.0029    2.0601 H   0  0  0  0  0  0  0  0  0  0  0  0
  -16.7024  -11.5230    0.9297 H   0  0  0  0  0  0  0  0  0  0  0  0
  -17.4819  -13.1235    0.8138 H   0  0  0  0  0  0  0  0  0  0  0  0
  -21.6211   -5.8467   -0.3814 H   0  0  0  0  0  0  0  0  0  0  0  0
  -24.4152   -5.1207   -0.2461 H   0  0  0  0  0  0  0  0  0  0  0  0
  -22.6652   -6.4647   -2.3936 H   0  0  0  0  0  0  0  0  0  0  0  0
  -22.9300   -4.7013   -2.1767 H   0  0  0  0  0  0  0  0  0  0  0  0
  -25.5225   -5.9244   -2.3353 H   0  0  0  0  0  0  0  0  0  0  0  0
  -24.5329   -6.6181   -3.6644 H   0  0  0  0  0  0  0  0  0  0  0  0
  -23.9934   -3.3331   -5.1994 H   0  0  0  0  0  0  0  0  0  0  0  0
  -23.1487   -4.8078   -4.8648 H   0  0  0  0  0  0  0  0  0  0  0  0
  -25.8049   -6.4895    0.8359 H   0  0  0  0  0  0  0  0  0  0  0  0
  -25.5946   -9.4321    0.6459 H   0  0  0  0  0  0  0  0  0  0  0  0
  -28.0087   -7.7824    1.5485 H   0  0  0  0  0  0  0  0  0  0  0  0
  -26.5057   -7.8171    2.5316 H   0  0  0  0  0  0  0  0  0  0  0  0
  -27.9722   -9.5731    3.3620 H   0  0  0  0  0  0  0  0  0  0  0  0
  -26.6299  -10.3620    2.4662 H   0  0  0  0  0  0  0  0  0  0  0  0
  -28.0429  -11.1528    0.8191 H   0  0  0  0  0  0  0  0  0  0  0  0
  -29.0106   -9.6397    0.7890 H   0  0  0  0  0  0  0  0  0  0  0  0
  -30.4546  -10.5627    2.4770 H   0  0  0  0  0  0  0  0  0  0  0  0
  -27.9088  -13.5913    3.3633 H   0  0  0  0  0  0  0  0  0  0  0  0
  -27.3901  -12.3144    2.2306 H   0  0  0  0  0  0  0  0  0  0  0  0
  -31.0765  -12.1834    3.8965 H   0  0  0  0  0  0  0  0  0  0  0  0
  -29.9592  -13.5179    4.2884 H   0  0  0  0  0  0  0  0  0  0  0  0
  -26.0636  -10.3510   -1.3148 H   0  0  0  0  0  0  0  0  0  0  0  0
  -28.3420   -9.2159   -2.9414 H   0  0  0  0  0  0  0  0  0  0  0  0
  -27.2642  -11.0832   -4.5332 H   0  0  0  0  0  0  0  0  0  0  0  0
  -25.9013  -10.9939   -3.3664 H   0  0  0  0  0  0  0  0  0  0  0  0
  -25.5316   -9.1651   -5.3212 H   0  0  0  0  0  0  0  0  0  0  0  0
  1104  1  0  0  0  0
  1105  1  0  0  0  0
  1106  1  0  0  0  0
  2  1  1  0  0  0  0
  2  5  1  0  0  0  0
  2107  1  6  0  0  0
  3  2  1  0  0  0  0
  3  4  2  0  0  0  0
  5  6  1  0  0  0  0
  5108  1  0  0  0  0
  5109  1  0  0  0  0
  6110  1  0  0  0  0
  7  3  1  0  0  0  0
  7111  1  0  0  0  0
  8  7  1  0  0  0  0
  8 11  1  0  0  0  0
  8112  1  6  0  0  0
  9  8  1  0  0  0  0
  9 10  2  0  0  0  0
 11 12  1  0  0  0  0
 11113  1  0  0  0  0
 11114  1  0  0  0  0
 12 13  2  0  0  0  0
 12 14  1  0  0  0  0
 13 15  1  0  0  0  0
 13115  1  0  0  0  0
 14 16  2  0  0  0  0
 14116  1  0  0  0  0
 15 17  2  0  0  0  0
 15117  1  0  0  0  0
 16 17  1  0  0  0  0
 16118  1  0  0  0  0
 17 18  1  0  0  0  0
 18119  1  0  0  0  0
 19  9  1  0  0  0  0
 19120  1  0  0  0  0
 20 19  1  0  0  0  0
 20121  1  0  0  0  0
 20122  1  0  0  0  0
 21 20  1  0  0  0  0
 21 22  2  0  0  0  0
 23 21  1  0  0  0  0
 23123  1  0  0  0  0
 24 23  1  0  0  0  0
 24 27  1  0  0  0  0
 24124  1  6  0  0  0
 25 24  1  0  0  0  0
 25 26  2  0  0  0  0
 27 28  1  0  0  0  0
 27125  1  0  0  0  0
 27126  1  0  0  0  0
 28 29  1  0  0  0  0
 28127  1  0  0  0  0
 28128  1  0  0  0  0
 29 30  1  0  0  0  0
 29129  1  0  0  0  0
 29130  1  0  0  0  0
 30 31  1  0  0  0  0
 30131  1  0  0  0  0
 31 32  1  0  0  0  0
 31 33  1  0  0  0  0
 32132  1  0  0  0  0
 32133  1  0  0  0  0
 33134  1  0  0  0  0
 33135  1  0  0  0  0
 35 34  2  0  0  0  0
 35 36  1  0  0  0  0
 36136  1  0  0  0  0
 36137  1  0  0  0  0
 36138  1  0  0  0  0
 37 35  1  0  0  0  0
 37139  1  0  0  0  0
 38 37  1  0  0  0  0
 38140  1  0  0  0  0
 38141  1  0  0  0  0
 39 38  1  0  0  0  0
 39142  1  0  0  0  0
 39143  1  0  0  0  0
 40 39  1  0  0  0  0
 40144  1  0  0  0  0
 40145  1  0  0  0  0
 41 40  1  0  0  0  0
 41146  1  0  0  0  0
 41147  1  0  0  0  0
 42 41  1  0  0  0  0
 42 43  1  0  0  0  0
 42 44  1  0  0  0  0
 42148  1  1  0  0  0
 43 25  1  0  0  0  0
 43149  1  0  0  0  0
 44 45  2  0  0  0  0
 44 46  1  0  0  0  0
 46 47  1  0  0  0  0
 46150  1  0  0  0  0
 47 48  1  0  0  0  0
 47 50  1  0  0  0  0
 47151  1  1  0  0  0
 48 49  2  0  0  0  0
 48 55  1  0  0  0  0
 50 51  1  0  0  0  0
 50152  1  0  0  0  0
 50153  1  0  0  0  0
 51 52  1  0  0  0  0
 51154  1  0  0  0  0
 51155  1  0  0  0  0
 52 53  1  0  0  0  0
 52156  1  0  0  0  0
 52157  1  0  0  0  0
 53 54  1  0  0  0  0
 53158  1  0  0  0  0
 53159  1  0  0  0  0
 54160  1  0  0  0  0
 54161  1  0  0  0  0
 54162  1  0  0  0  0
 55 56  1  0  0  0  0
 55163  1  0  0  0  0
 56 57  1  0  0  0  0
 56 59  1  0  0  0  0
 56164  1  1  0  0  0
 57 58  2  0  0  0  0
 57 66  1  0  0  0  0
 59 60  1  0  0  0  0
 59165  1  0  0  0  0
 59166  1  0  0  0  0
 60 61  1  0  0  0  0
 60167  1  0  0  0  0
 60168  1  0  0  0  0
 61 62  1  0  0  0  0
 61169  1  0  0  0  0
 61170  1  0  0  0  0
 62 63  1  0  0  0  0
 62171  1  0  0  0  0
 63 64  1  0  0  0  0
 63 65  1  0  0  0  0
 64172  1  0  0  0  0
 64173  1  0  0  0  0
 65174  1  0  0  0  0
 65175  1  0  0  0  0
 66 67  1  0  0  0  0
 66176  1  0  0  0  0
 67 68  1  0  0  0  0
 67 70  1  0  0  0  0
 67177  1  6  0  0  0
 68 69  2  0  0  0  0
 68 77  1  0  0  0  0
 70 71  1  0  0  0  0
 70178  1  0  0  0  0
 70179  1  0  0  0  0
 71 72  1  0  0  0  0
 71180  1  0  0  0  0
 71181  1  0  0  0  0
 72 73  1  0  0  0  0
 72182  1  0  0  0  0
 72183  1  0  0  0  0
 73 74  1  0  0  0  0
 73184  1  0  0  0  0
 74 75  1  0  0  0  0
 74 76  1  0  0  0  0
 75185  1  0  0  0  0
 75186  1  0  0  0  0
 76187  1  0  0  0  0
 76188  1  0  0  0  0
 77 78  1  0  0  0  0
 77189  1  0  0  0  0
 78 79  1  0  0  0  0
 78 81  1  0  0  0  0
 78190  1  1  0  0  0
 79 80  2  0  0  0  0
 79 86  1  0  0  0  0
 81 82  1  0  0  0  0
 81191  1  0  0  0  0
 81192  1  0  0  0  0
 82 83  1  0  0  0  0
 82193  1  0  0  0  0
 82194  1  0  0  0  0
 83 84  2  0  0  0  0
 83 85  1  0  0  0  0
 85195  1  0  0  0  0
 85196  1  0  0  0  0
 86 87  1  0  0  0  0
 86197  1  0  0  0  0
 87 88  1  0  0  0  0
 87 90  1  0  0  0  0
 87198  1  1  0  0  0
 88 89  2  0  0  0  0
 88 97  1  0  0  0  0
 90 91  1  0  0  0  0
 90199  1  0  0  0  0
 90200  1  0  0  0  0
 91 92  1  0  0  0  0
 91201  1  0  0  0  0
 91202  1  0  0  0  0
 92 93  1  0  0  0  0
 92203  1  0  0  0  0
 92204  1  0  0  0  0
 93 94  1  0  0  0  0
 93205  1  0  0  0  0
 94 95  1  0  0  0  0
 94 96  1  0  0  0  0
 95206  1  0  0  0  0
 95207  1  0  0  0  0
 96208  1  0  0  0  0
 96209  1  0  0  0  0
 97 98  1  0  0  0  0
 97210  1  0  0  0  0
 98 99  1  0  0  0  0
 98101  1  0  0  0  0
 98211  1  6  0  0  0
 99100  1  0  0  0  0
 99103  2  0  0  0  0
101102  1  0  0  0  0
101212  1  0  0  0  0
101213  1  0  0  0  0
102214  1  0  0  0  0
M  CHG  3   1   1  54   1 100  -1
M  END
