1jq3_ligand
 OpenBabel08222323343D

 62 64  0  0  1  0  0  0  0  0999 V2000
   21.5780   41.0790   14.0790 N   0  3  0  0  0  0  0  0  0  0  0  0
   22.7460   40.4890   14.5240 C   0  0  0  0  0  0  0  0  0  0  0  0
   22.7760   39.0760   14.1700 C   0  0  0  0  0  0  0  0  0  0  0  0
   22.4580   38.8830   12.7540 C   0  0  2  0  0  0  0  0  0  0  0  0
   21.0460   37.7910   12.6310 S   0  0  0  0  0  0  0  0  0  0  0  0
   21.0340   37.2430   10.9120 C   0  0  0  0  0  0  0  0  0  0  0  0
   19.6960   36.7540   10.4430 C   0  0  1  0  0  0  0  0  0  0  0  0
   19.6780   36.7320    9.1150 O   0  0  0  0  0  0  0  0  0  0  0  0
   19.3830   35.3960   10.8900 C   0  0  1  0  0  0  0  0  0  0  0  0
   18.2600   35.5530   11.6940 O   0  0  0  0  0  0  0  0  0  0  0  0
   19.0260   34.5680    9.5690 C   0  0  1  0  0  0  0  0  0  0  0  0
   17.9960   33.5940    9.6040 O   0  0  0  0  0  0  0  0  0  0  0  0
   18.8480   35.7300    8.6020 C   0  0  2  0  0  0  0  0  0  0  0  0
   19.3350   35.5300    7.2670 N   0  0  0  0  0  0  0  0  0  0  0  0
   20.1150   34.5520    6.7210 C   0  0  0  0  0  0  0  0  0  0  0  0
   19.8700   34.2260    5.4320 N   0  0  0  0  0  0  0  0  0  0  0  0
   18.8730   34.9980    5.1040 C   0  0  0  0  0  0  0  0  0  0  0  0
   18.1520   35.1230    3.8090 C   0  0  0  0  0  0  0  0  0  0  0  0
   18.4770   34.3680    2.6830 N   0  0  0  0  0  0  0  0  0  0  0  0
   17.0850   36.0300    3.6670 N   0  0  0  0  0  0  0  0  0  0  0  0
   16.7850   36.7660    4.8110 C   0  0  0  0  0  0  0  0  0  0  0  0
   17.4070   36.7240    6.0650 N   0  0  0  0  0  0  0  0  0  0  0  0
   18.4790   35.8210    6.1990 C   0  0  0  0  0  0  0  0  0  0  0  0
   23.6410   38.2720   12.0430 C   0  0  0  0  0  0  0  0  0  0  0  0
   25.0800   38.7400   12.0320 C   0  0  0  0  0  0  0  0  0  0  0  0
   25.9720   37.9360   12.9580 C   0  0  0  0  0  0  0  0  0  0  0  0
   27.3170   37.4020   12.5000 C   0  0  0  0  0  0  0  0  0  0  0  0
   28.2250   36.6020   13.4140 C   0  0  0  0  0  0  0  0  0  0  0  0
   29.4990   36.0030   13.2320 N   0  3  0  0  0  0  0  0  0  0  0  0
   21.5763   42.0544   14.3331 H   0  0  0  0  0  0  0  0  0  0  0  0
   20.7870   40.6200   14.5029 H   0  0  0  0  0  0  0  0  0  0  0  0
   21.5189   40.9929   13.0764 H   0  0  0  0  0  0  0  0  0  0  0  0
   22.8070   40.5886   15.6178 H   0  0  0  0  0  0  0  0  0  0  0  0
   23.6057   40.9956   14.0611 H   0  0  0  0  0  0  0  0  0  0  0  0
   22.0377   38.5363   14.7812 H   0  0  0  0  0  0  0  0  0  0  0  0
   23.7809   38.6761   14.3707 H   0  0  0  0  0  0  0  0  0  0  0  0
   22.2164   39.8525   12.2939 H   0  0  0  0  0  0  0  0  0  0  0  0
   21.7602   36.4239   10.8038 H   0  0  0  0  0  0  0  0  0  0  0  0
   21.3369   38.0880   10.2763 H   0  0  0  0  0  0  0  0  0  0  0  0
   18.9225   37.4414   10.8160 H   0  0  0  0  0  0  0  0  0  0  0  0
   20.2134   34.9298   11.4405 H   0  0  0  0  0  0  0  0  0  0  0  0
   18.4948   36.0465   12.4711 H   0  0  0  0  0  0  0  0  0  0  0  0
   19.9238   34.0056    9.2729 H   0  0  0  0  0  0  0  0  0  0  0  0
   17.1778   34.0087    9.8510 H   0  0  0  0  0  0  0  0  0  0  0  0
   17.7911   36.0335    8.5735 H   0  0  0  0  0  0  0  0  0  0  0  0
   20.8970   34.0581    7.2959 H   0  0  0  0  0  0  0  0  0  0  0  0
   17.9464   34.4922    1.8089 H   0  0  0  0  0  0  0  0  0  0  0  0
   19.2477   33.6860    2.7251 H   0  0  0  0  0  0  0  0  0  0  0  0
   15.9607   37.4639    4.7183 H   0  0  0  0  0  0  0  0  0  0  0  0
   23.3479   38.2574   10.9829 H   0  0  0  0  0  0  0  0  0  0  0  0
   23.6894   37.2413   12.4243 H   0  0  0  0  0  0  0  0  0  0  0  0
   25.1082   39.7938   12.3460 H   0  0  0  0  0  0  0  0  0  0  0  0
   25.4693   38.6522   11.0070 H   0  0  0  0  0  0  0  0  0  0  0  0
   25.3832   37.0624   13.2744 H   0  0  0  0  0  0  0  0  0  0  0  0
   26.1734   38.5774   13.8286 H   0  0  0  0  0  0  0  0  0  0  0  0
   27.9005   38.2770   12.1777 H   0  0  0  0  0  0  0  0  0  0  0  0
   27.1117   36.7582   11.6320 H   0  0  0  0  0  0  0  0  0  0  0  0
   27.5911   35.7586   13.7253 H   0  0  0  0  0  0  0  0  0  0  0  0
   28.3826   37.2771   14.2681 H   0  0  0  0  0  0  0  0  0  0  0  0
   29.7824   35.5498   14.0866 H   0  0  0  0  0  0  0  0  0  0  0  0
   30.1723   36.7126   12.9888 H   0  0  0  0  0  0  0  0  0  0  0  0
   29.4470   35.3212   12.4914 H   0  0  0  0  0  0  0  0  0  0  0  0
  1  2  1  0  0  0  0
  1 30  1  0  0  0  0
  1 31  1  0  0  0  0
  1 32  1  0  0  0  0
  2  3  1  0  0  0  0
  2 33  1  0  0  0  0
  2 34  1  0  0  0  0
  3  4  1  0  0  0  0
  3 35  1  0  0  0  0
  3 36  1  0  0  0  0
  4 24  1  0  0  0  0
  4  5  1  0  0  0  0
  4 37  1  6  0  0  0
  5  6  1  0  0  0  0
  6  7  1  0  0  0  0
  6 38  1  0  0  0  0
  6 39  1  0  0  0  0
  7  9  1  0  0  0  0
  7  8  1  0  0  0  0
  7 40  1  1  0  0  0
  8 13  1  0  0  0  0
  9 10  1  0  0  0  0
  9 41  1  1  0  0  0
 10 42  1  0  0  0  0
 11 12  1  0  0  0  0
 11  9  1  0  0  0  0
 11 43  1  6  0  0  0
 12 44  1  0  0  0  0
 13 14  1  0  0  0  0
 13 11  1  0  0  0  0
 13 45  1  6  0  0  0
 14 23  1  0  0  0  0
 14 15  1  0  0  0  0
 15 16  2  0  0  0  0
 15 46  1  0  0  0  0
 16 17  1  0  0  0  0
 17 23  2  0  0  0  0
 17 18  1  0  0  0  0
 18 20  2  0  0  0  0
 18 19  1  0  0  0  0
 19 47  1  0  0  0  0
 19 48  1  0  0  0  0
 20 21  1  0  0  0  0
 21 22  2  0  0  0  0
 21 49  1  0  0  0  0
 22 23  1  0  0  0  0
 24 25  1  0  0  0  0
 24 50  1  0  0  0  0
 24 51  1  0  0  0  0
 25 26  1  0  0  0  0
 25 52  1  0  0  0  0
 25 53  1  0  0  0  0
 26 27  1  0  0  0  0
 26 54  1  0  0  0  0
 26 55  1  0  0  0  0
 27 28  1  0  0  0  0
 27 56  1  0  0  0  0
 27 57  1  0  0  0  0
 28 29  1  0  0  0  0
 28 58  1  0  0  0  0
 28 59  1  0  0  0  0
 29 60  1  0  0  0  0
 29 61  1  0  0  0  0
 29 62  1  0  0  0  0
M  CHG  2   1   1  29   1
M  END
