1juf_ligand
 OpenBabel08222323343D

147149  0  0  1  0  0  0  0  0999 V2000
   33.4650    7.3440   -3.2500 N   0  3  0  0  0  0  0  0  0  0  0  0
   33.3600    8.7370   -3.7800 C   0  0  2  0  0  0  0  0  0  0  0  0
   31.9140    8.9970   -4.2080 C   0  0  0  0  0  0  0  0  0  0  0  0
   31.3730    8.3000   -5.0800 O   0  0  0  0  0  0  0  0  0  0  0  0
   34.3270    8.9180   -4.9490 C   0  0  0  0  0  0  0  0  0  0  0  0
   34.3640   10.2670   -5.3800 O   0  0  0  0  0  0  0  0  0  0  0  0
   31.3060    9.9960   -3.5720 N   0  0  0  0  0  0  0  0  0  0  0  0
   29.9060   10.3530   -3.7800 C   0  0  2  0  0  0  0  0  0  0  0  0
   29.6070   11.0700   -5.0770 C   0  0  0  0  0  0  0  0  0  0  0  0
   30.4570   11.7320   -5.6320 O   0  0  0  0  0  0  0  0  0  0  0  0
   29.3980   11.2090   -2.6100 C   0  0  0  0  0  0  0  0  0  0  0  0
   30.1850   12.3820   -2.4440 O   0  0  0  0  0  0  0  0  0  0  0  0
   28.3750   10.9070   -5.5450 N   0  0  0  0  0  0  0  0  0  0  0  0
   27.9130   11.5280   -6.7760 C   0  0  2  0  0  0  0  0  0  0  0  0
   27.3040   12.8490   -6.3720 C   0  0  0  0  0  0  0  0  0  0  0  0
   26.8420   13.0110   -5.2390 O   0  0  0  0  0  0  0  0  0  0  0  0
   26.8190   10.6520   -7.4750 C   0  0  0  0  0  0  0  0  0  0  0  0
   25.6040   10.5210   -6.5610 C   0  0  0  0  0  0  0  0  0  0  0  0
   26.4290   11.2470   -8.8190 C   0  0  0  0  0  0  0  0  0  0  0  0
   27.2990   13.8040   -7.2870 N   0  0  0  0  0  0  0  0  0  0  0  0
   26.7040   15.1000   -6.9930 C   0  0  2  0  0  0  0  0  0  0  0  0
   25.5450   15.3860   -7.9580 C   0  0  0  0  0  0  0  0  0  0  0  0
   25.4910   14.8300   -9.0700 O   0  0  0  0  0  0  0  0  0  0  0  0
   27.7250   16.2330   -7.1480 C   0  0  2  0  0  0  0  0  0  0  0  0
   28.1140   16.3730   -8.6060 C   0  0  0  0  0  0  0  0  0  0  0  0
   28.9800   15.9490   -6.2960 C   0  0  0  0  0  0  0  0  0  0  0  0
   28.8970   17.6230   -8.8800 C   0  0  0  0  0  0  0  0  0  0  0  0
   24.6150   16.2240   -7.5220 N   0  0  0  0  0  0  0  0  0  0  0  0
   23.5120   16.6020   -8.3890 C   0  0  0  0  0  0  0  0  0  0  0  0
   23.9160   17.8690   -9.1210 C   0  0  0  0  0  0  0  0  0  0  0  0
   24.7030   18.6740   -8.6110 O   0  0  0  0  0  0  0  0  0  0  0  0
   23.4070   18.0350  -10.3360 N   0  0  0  0  0  0  0  0  0  0  0  0
   23.6880   19.2260  -11.1260 C   0  0  2  0  0  0  0  0  0  0  0  0
   22.3150   19.8560  -11.3490 C   0  0  0  0  0  0  0  0  0  0  0  0
   21.9080   20.7260  -10.5940 O   0  0  0  0  0  0  0  0  0  0  0  0
   24.3430   18.8460  -12.4600 C   0  0  0  0  0  0  0  0  0  0  0  0
   24.6240   20.1010  -13.2740 C   0  0  0  0  0  0  0  0  0  0  0  0
   25.6320   18.0830  -12.1990 C   0  0  0  0  0  0  0  0  0  0  0  0
   21.5700   19.3760  -12.3440 N   0  0  0  0  0  0  0  0  0  0  0  0
   20.2170   19.8970  -12.5900 C   0  0  2  0  0  0  0  0  0  0  0  0
   19.3320   19.5210  -11.4020 C   0  0  0  0  0  0  0  0  0  0  0  0
   19.4300   18.4110  -10.8670 O   0  0  0  0  0  0  0  0  0  0  0  0
   19.6480   19.2950  -13.8840 C   0  0  0  0  0  0  0  0  0  0  0  0
   20.6200   19.6350  -14.9990 C   0  0  0  0  0  0  0  0  0  0  0  0
   20.6610   20.7700  -15.7010 C   0  0  0  0  0  0  0  0  0  0  0  0
   21.6650   18.7940  -15.4440 C   0  0  0  0  0  0  0  0  0  0  0  0
   21.7840   20.6760  -16.5740 N   0  0  0  0  0  0  0  0  0  0  0  0
   22.3720   19.5150  -16.3950 C   0  0  0  0  0  0  0  0  0  0  0  0
   22.0880   17.5000  -15.1120 C   0  0  0  0  0  0  0  0  0  0  0  0
   23.5270   19.0310  -17.0160 C   0  0  0  0  0  0  0  0  0  0  0  0
   23.2400   17.0110  -15.7610 C   0  0  0  0  0  0  0  0  0  0  0  0
   23.9280   17.7450  -16.6650 C   0  0  0  0  0  0  0  0  0  0  0  0
   18.4530   20.4320  -10.9920 N   0  0  0  0  0  0  0  0  0  0  0  0
   17.5910   20.1620   -9.8440 C   0  0  2  0  0  0  0  0  0  0  0  0
   16.3600   19.3740  -10.2490 C   0  0  0  0  0  0  0  0  0  0  0  0
   16.0540   19.2640  -11.4390 O   0  0  0  0  0  0  0  0  0  0  0  0
   17.1300   21.4730   -9.2010 C   0  0  0  0  0  0  0  0  0  0  0  0
   18.2600   22.4110   -8.8780 C   0  0  0  0  0  0  0  0  0  0  0  0
   18.4760   23.5630   -9.6350 C   0  0  0  0  0  0  0  0  0  0  0  0
   19.1230   22.1450   -7.7990 C   0  0  0  0  0  0  0  0  0  0  0  0
   19.5280   24.4430   -9.3190 C   0  0  0  0  0  0  0  0  0  0  0  0
   20.1610   22.9970   -7.4850 C   0  0  0  0  0  0  0  0  0  0  0  0
   20.3600   24.1450   -8.2360 C   0  0  0  0  0  0  0  0  0  0  0  0
   21.3610   25.0190   -7.8740 O   0  0  0  0  0  0  0  0  0  0  0  0
   15.6660   18.8090   -9.2630 N   0  0  0  0  0  0  0  0  0  0  0  0
   14.4280   18.0940   -9.5590 C   0  0  2  0  0  0  0  0  0  0  0  0
   13.4160   19.1260  -10.0810 C   0  0  0  0  0  0  0  0  0  0  0  0
   13.6490   20.3310   -9.8050 O   0  5  0  0  0  0  0  0  0  0  0  0
   13.8460   17.4770   -8.2990 C   0  0  0  0  0  0  0  0  0  0  0  0
   14.6880   16.3990   -7.6270 C   0  0  0  0  0  0  0  0  0  0  0  0
   13.9690   15.9650   -6.3440 C   0  0  0  0  0  0  0  0  0  0  0  0
   14.8850   15.2600   -8.5820 C   0  0  0  0  0  0  0  0  0  0  0  0
   12.4020   18.7070  -10.7050 O   0  0  0  0  0  0  0  0  0  0  0  0
   34.4150    7.1636   -2.9653 H   0  0  0  0  0  0  0  0  0  0  0  0
   33.1999    6.6898   -3.9696 H   0  0  0  0  0  0  0  0  0  0  0  0
   32.8511    7.2388   -2.4575 H   0  0  0  0  0  0  0  0  0  0  0  0
   33.6296    9.4481   -2.9853 H   0  0  0  0  0  0  0  0  0  0  0  0
   34.0009    8.2830   -5.7859 H   0  0  0  0  0  0  0  0  0  0  0  0
   35.3355    8.6155   -4.6304 H   0  0  0  0  0  0  0  0  0  0  0  0
   33.4960   10.5326   -5.6604 H   0  0  0  0  0  0  0  0  0  0  0  0
   31.8376   10.5313   -2.9156 H   0  0  0  0  0  0  0  0  0  0  0  0
   29.3348    9.4130   -3.7904 H   0  0  0  0  0  0  0  0  0  0  0  0
   29.4430   10.6143   -1.6857 H   0  0  0  0  0  0  0  0  0  0  0  0
   28.3563   11.5021   -2.8071 H   0  0  0  0  0  0  0  0  0  0  0  0
   31.0856   12.1356   -2.2688 H   0  0  0  0  0  0  0  0  0  0  0  0
   27.7385   10.3333   -5.0294 H   0  0  0  0  0  0  0  0  0  0  0  0
   28.7570   11.6837   -7.4640 H   0  0  0  0  0  0  0  0  0  0  0  0
   27.2338    9.6483   -7.6497 H   0  0  0  0  0  0  0  0  0  0  0  0
   24.8381    9.9053   -7.0552 H   0  0  0  0  0  0  0  0  0  0  0  0
   25.1929   11.5197   -6.3521 H   0  0  0  0  0  0  0  0  0  0  0  0
   25.9051   10.0436   -5.6169 H   0  0  0  0  0  0  0  0  0  0  0  0
   27.3218   11.3299   -9.4562 H   0  0  0  0  0  0  0  0  0  0  0  0
   25.9941   12.2456   -8.6656 H   0  0  0  0  0  0  0  0  0  0  0  0
   25.6891   10.5959   -9.3075 H   0  0  0  0  0  0  0  0  0  0  0  0
   27.7057   13.6352   -8.1848 H   0  0  0  0  0  0  0  0  0  0  0  0
   26.3273   15.0895   -5.9596 H   0  0  0  0  0  0  0  0  0  0  0  0
   27.2684   17.1737   -6.8065 H   0  0  0  0  0  0  0  0  0  0  0  0
   27.1977   16.3916   -9.2143 H   0  0  0  0  0  0  0  0  0  0  0  0
   28.7262   15.5049   -8.8916 H   0  0  0  0  0  0  0  0  0  0  0  0
   28.6908   15.8485   -5.2395 H   0  0  0  0  0  0  0  0  0  0  0  0
   29.6922   16.7804   -6.4037 H   0  0  0  0  0  0  0  0  0  0  0  0
   29.4515   15.0157   -6.6374 H   0  0  0  0  0  0  0  0  0  0  0  0
   29.1501   17.6701   -9.9495 H   0  0  0  0  0  0  0  0  0  0  0  0
   29.8218   17.6144   -8.2844 H   0  0  0  0  0  0  0  0  0  0  0  0
   28.2933   18.5011   -8.6071 H   0  0  0  0  0  0  0  0  0  0  0  0
   24.6726   16.5963   -6.5957 H   0  0  0  0  0  0  0  0  0  0  0  0
   22.6095   16.7877   -7.7882 H   0  0  0  0  0  0  0  0  0  0  0  0
   23.3117   15.7984   -9.1130 H   0  0  0  0  0  0  0  0  0  0  0  0
   22.8160   17.3246  -10.7182 H   0  0  0  0  0  0  0  0  0  0  0  0
   24.3477   19.9136  -10.5765 H   0  0  0  0  0  0  0  0  0  0  0  0
   23.6553   18.2009  -13.0264 H   0  0  0  0  0  0  0  0  0  0  0  0
   25.0934   19.8213  -14.2287 H   0  0  0  0  0  0  0  0  0  0  0  0
   25.3021   20.7591  -12.7110 H   0  0  0  0  0  0  0  0  0  0  0  0
   23.6796   20.6296  -13.4707 H   0  0  0  0  0  0  0  0  0  0  0  0
   25.4110   17.1803  -11.6105 H   0  0  0  0  0  0  0  0  0  0  0  0
   26.3303   18.7232  -11.6400 H   0  0  0  0  0  0  0  0  0  0  0  0
   26.0872   17.7934  -13.1576 H   0  0  0  0  0  0  0  0  0  0  0  0
   21.9352   18.6530  -12.9304 H   0  0  0  0  0  0  0  0  0  0  0  0
   20.2564   20.9920  -12.6872 H   0  0  0  0  0  0  0  0  0  0  0  0
   18.6602   19.7284  -14.0994 H   0  0  0  0  0  0  0  0  0  0  0  0
   19.5556   18.2035  -13.7837 H   0  0  0  0  0  0  0  0  0  0  0  0
   19.9691   21.6072  -15.6218 H   0  0  0  0  0  0  0  0  0  0  0  0
   22.0861   21.4023  -17.2389 H   0  0  0  0  0  0  0  0  0  0  0  0
   21.5515   16.8997  -14.3861 H   0  0  0  0  0  0  0  0  0  0  0  0
   24.0812   19.6257  -17.7331 H   0  0  0  0  0  0  0  0  0  0  0  0
   23.5868   16.0109  -15.5271 H   0  0  0  0  0  0  0  0  0  0  0  0
   24.8126   17.3219  -17.1271 H   0  0  0  0  0  0  0  0  0  0  0  0
   18.3821   21.3062  -11.4724 H   0  0  0  0  0  0  0  0  0  0  0  0
   18.1625   19.5792   -9.1066 H   0  0  0  0  0  0  0  0  0  0  0  0
   16.5972   21.2353   -8.2685 H   0  0  0  0  0  0  0  0  0  0  0  0
   16.4444   21.9798   -9.8961 H   0  0  0  0  0  0  0  0  0  0  0  0
   17.8270   23.7825  -10.4750 H   0  0  0  0  0  0  0  0  0  0  0  0
   18.9690   21.2529   -7.2028 H   0  0  0  0  0  0  0  0  0  0  0  0
   19.6907   25.3390   -9.9070 H   0  0  0  0  0  0  0  0  0  0  0  0
   20.8189   22.7698   -6.6539 H   0  0  0  0  0  0  0  0  0  0  0  0
   22.1975   24.5695   -7.9013 H   0  0  0  0  0  0  0  0  0  0  0  0
   15.9927   18.8744   -8.3201 H   0  0  0  0  0  0  0  0  0  0  0  0
   14.6125   17.3131  -10.3114 H   0  0  0  0  0  0  0  0  0  0  0  0
   12.8758   17.0300   -8.5614 H   0  0  0  0  0  0  0  0  0  0  0  0
   13.6919   18.2858   -7.5695 H   0  0  0  0  0  0  0  0  0  0  0  0
   15.6725   16.8121   -7.3624 H   0  0  0  0  0  0  0  0  0  0  0  0
   14.5584   15.1854   -5.8392 H   0  0  0  0  0  0  0  0  0  0  0  0
   12.9753   15.5671   -6.5972 H   0  0  0  0  0  0  0  0  0  0  0  0
   13.8577   16.8311   -5.6751 H   0  0  0  0  0  0  0  0  0  0  0  0
   15.4029   15.6219   -9.4825 H   0  0  0  0  0  0  0  0  0  0  0  0
   13.9063   14.8445   -8.8640 H   0  0  0  0  0  0  0  0  0  0  0  0
   15.4904   14.4781   -8.1003 H   0  0  0  0  0  0  0  0  0  0  0  0
  1  2  1  0  0  0  0
  1 74  1  0  0  0  0
  1 75  1  0  0  0  0
  1 76  1  0  0  0  0
  2  3  1  0  0  0  0
  2  5  1  0  0  0  0
  2 77  1  1  0  0  0
  3  4  2  0  0  0  0
  3  7  1  0  0  0  0
  5  6  1  0  0  0  0
  5 78  1  0  0  0  0
  5 79  1  0  0  0  0
  6 80  1  0  0  0  0
  7  8  1  0  0  0  0
  7 81  1  0  0  0  0
  8  9  1  0  0  0  0
  8 11  1  0  0  0  0
  8 82  1  1  0  0  0
  9 10  2  0  0  0  0
  9 13  1  0  0  0  0
 11 12  1  0  0  0  0
 11 83  1  0  0  0  0
 11 84  1  0  0  0  0
 12 85  1  0  0  0  0
 13 14  1  0  0  0  0
 13 86  1  0  0  0  0
 14 15  1  0  0  0  0
 14 17  1  0  0  0  0
 14 87  1  6  0  0  0
 15 16  2  0  0  0  0
 15 20  1  0  0  0  0
 17 18  1  0  0  0  0
 17 19  1  0  0  0  0
 17 88  1  0  0  0  0
 18 89  1  0  0  0  0
 18 90  1  0  0  0  0
 18 91  1  0  0  0  0
 19 92  1  0  0  0  0
 19 93  1  0  0  0  0
 19 94  1  0  0  0  0
 20 21  1  0  0  0  0
 20 95  1  0  0  0  0
 21 22  1  0  0  0  0
 21 24  1  0  0  0  0
 21 96  1  1  0  0  0
 22 23  2  0  0  0  0
 22 28  1  0  0  0  0
 24 25  1  0  0  0  0
 24 26  1  0  0  0  0
 24 97  1  1  0  0  0
 25 27  1  0  0  0  0
 25 98  1  0  0  0  0
 25 99  1  0  0  0  0
 26100  1  0  0  0  0
 26101  1  0  0  0  0
 26102  1  0  0  0  0
 27103  1  0  0  0  0
 27104  1  0  0  0  0
 27105  1  0  0  0  0
 28 29  1  0  0  0  0
 28106  1  0  0  0  0
 29 30  1  0  0  0  0
 29107  1  0  0  0  0
 29108  1  0  0  0  0
 30 31  2  0  0  0  0
 30 32  1  0  0  0  0
 32 33  1  0  0  0  0
 32109  1  0  0  0  0
 33 34  1  0  0  0  0
 33 36  1  0  0  0  0
 33110  1  1  0  0  0
 34 35  2  0  0  0  0
 34 39  1  0  0  0  0
 36 37  1  0  0  0  0
 36 38  1  0  0  0  0
 36111  1  0  0  0  0
 37112  1  0  0  0  0
 37113  1  0  0  0  0
 37114  1  0  0  0  0
 38115  1  0  0  0  0
 38116  1  0  0  0  0
 38117  1  0  0  0  0
 39 40  1  0  0  0  0
 39118  1  0  0  0  0
 40 41  1  0  0  0  0
 40 43  1  0  0  0  0
 40119  1  6  0  0  0
 41 42  2  0  0  0  0
 41 53  1  0  0  0  0
 43 44  1  0  0  0  0
 43120  1  0  0  0  0
 43121  1  0  0  0  0
 44 45  2  0  0  0  0
 44 46  1  0  0  0  0
 45 47  1  0  0  0  0
 45122  1  0  0  0  0
 46 48  2  0  0  0  0
 46 49  1  0  0  0  0
 47 48  1  0  0  0  0
 47123  1  0  0  0  0
 48 50  1  0  0  0  0
 49 51  2  0  0  0  0
 49124  1  0  0  0  0
 50 52  2  0  0  0  0
 50125  1  0  0  0  0
 51 52  1  0  0  0  0
 51126  1  0  0  0  0
 52127  1  0  0  0  0
 53 54  1  0  0  0  0
 53128  1  0  0  0  0
 54 55  1  0  0  0  0
 54 57  1  0  0  0  0
 54129  1  1  0  0  0
 55 56  2  0  0  0  0
 55 65  1  0  0  0  0
 57 58  1  0  0  0  0
 57130  1  0  0  0  0
 57131  1  0  0  0  0
 58 59  2  0  0  0  0
 58 60  1  0  0  0  0
 59 61  1  0  0  0  0
 59132  1  0  0  0  0
 60 62  2  0  0  0  0
 60133  1  0  0  0  0
 61 63  2  0  0  0  0
 61134  1  0  0  0  0
 62 63  1  0  0  0  0
 62135  1  0  0  0  0
 63 64  1  0  0  0  0
 64136  1  0  0  0  0
 65 66  1  0  0  0  0
 65137  1  0  0  0  0
 66 67  1  0  0  0  0
 66 69  1  0  0  0  0
 66138  1  6  0  0  0
 67 68  1  0  0  0  0
 67 73  2  0  0  0  0
 69 70  1  0  0  0  0
 69139  1  0  0  0  0
 69140  1  0  0  0  0
 70 71  1  0  0  0  0
 70 72  1  0  0  0  0
 70141  1  0  0  0  0
 71142  1  0  0  0  0
 71143  1  0  0  0  0
 71144  1  0  0  0  0
 72145  1  0  0  0  0
 72146  1  0  0  0  0
 72147  1  0  0  0  0
M  CHG  2   1   1  68  -1
M  END
