1juj_ligand
 OpenBabel08222323343D

 50 52  0  0  1  0  0  0  0  0999 V2000
  -43.2240  -49.5530    3.6100 C   0  0  0  0  0  0  0  0  0  0  0  0
  -41.8100  -49.5780    3.4990 C   0  0  0  0  0  0  0  0  0  0  0  0
  -41.0650  -48.3700    3.6010 C   0  0  0  0  0  0  0  0  0  0  0  0
  -41.7200  -47.1000    3.8230 C   0  0  0  0  0  0  0  0  0  0  0  0
  -43.1380  -47.1140    3.9270 C   0  0  0  0  0  0  0  0  0  0  0  0
  -43.8790  -48.3100    3.8270 C   0  0  0  0  0  0  0  0  0  0  0  0
  -44.0360  -50.8660    3.5120 C   0  0  0  0  0  0  0  0  0  0  0  0
  -44.7080  -51.1660    2.1410 C   0  0  0  0  0  0  0  0  0  0  0  0
  -46.0890  -50.5260    2.0040 C   0  0  0  0  0  0  0  0  0  0  0  0
  -47.1920  -50.7660    2.8260 C   0  0  0  0  0  0  0  0  0  0  0  0
  -48.2910  -50.0040    2.4180 N   0  0  0  0  0  0  0  0  0  0  0  0
  -47.8810  -49.2770    1.3280 C   0  0  0  0  0  0  0  0  0  0  0  0
  -46.5220  -49.6080    1.0780 C   0  0  0  0  0  0  0  0  0  0  0  0
  -45.8010  -48.9190   -0.1210 C   0  0  0  0  0  0  0  0  0  0  0  0
  -44.6450  -49.1200   -0.4390 O   0  0  0  0  0  0  0  0  0  0  0  0
  -46.5480  -48.0350   -0.8460 N   0  0  0  0  0  0  0  0  0  0  0  0
  -47.9280  -47.7410   -0.5350 C   0  0  0  0  0  0  0  0  0  0  0  0
  -48.5370  -48.3140    0.4620 N   0  0  0  0  0  0  0  0  0  0  0  0
  -48.6050  -46.8440   -1.3060 N   0  0  0  0  0  0  0  0  0  0  0  0
  -41.0100  -45.7490    3.9590 C   0  0  0  0  0  0  0  0  0  0  0  0
  -41.6630  -44.7190    4.1540 O   0  0  0  0  0  0  0  0  0  0  0  0
  -39.6680  -45.7370    3.8750 N   0  0  0  0  0  0  0  0  0  0  0  0
  -38.7770  -44.5470    4.0060 C   0  0  1  0  0  0  0  0  0  0  0  0
  -38.0680  -44.4820    5.3950 C   0  0  0  0  0  0  0  0  0  0  0  0
  -38.9820  -44.2170    6.6360 C   0  0  0  0  0  0  0  0  0  0  0  0
  -38.3050  -44.1650    8.0130 C   0  0  0  0  0  0  0  0  0  0  0  0
  -37.1980  -43.5880    8.1380 O   0  5  0  0  0  0  0  0  0  0  0  0
  -38.8800  -44.7040    8.9860 O   0  0  0  0  0  0  0  0  0  0  0  0
  -37.7740  -44.5180    2.7860 C   0  0  0  0  0  0  0  0  0  0  0  0
  -37.5120  -43.4480    2.1570 O   0  5  0  0  0  0  0  0  0  0  0  0
  -37.2190  -45.6100    2.4630 O   0  0  0  0  0  0  0  0  0  0  0  0
  -41.2964  -50.5186    3.3363 H   0  0  0  0  0  0  0  0  0  0  0  0
  -39.9853  -48.4024    3.5105 H   0  0  0  0  0  0  0  0  0  0  0  0
  -43.6640  -46.1799    4.0875 H   0  0  0  0  0  0  0  0  0  0  0  0
  -44.9589  -48.2811    3.9165 H   0  0  0  0  0  0  0  0  0  0  0  0
  -44.8304  -50.8252    4.2717 H   0  0  0  0  0  0  0  0  0  0  0  0
  -43.3539  -51.6986    3.7391 H   0  0  0  0  0  0  0  0  0  0  0  0
  -44.8136  -52.2555    2.0326 H   0  0  0  0  0  0  0  0  0  0  0  0
  -44.0606  -50.7789    1.3404 H   0  0  0  0  0  0  0  0  0  0  0  0
  -47.1957  -51.4536    3.6705 H   0  0  0  0  0  0  0  0  0  0  0  0
  -49.2256  -49.9907    2.8507 H   0  0  0  0  0  0  0  0  0  0  0  0
  -46.1225  -47.5724   -1.6238 H   0  0  0  0  0  0  0  0  0  0  0  0
  -49.5892  -46.6243   -1.0965 H   0  0  0  0  0  0  0  0  0  0  0  0
  -48.1324  -46.3858   -2.0982 H   0  0  0  0  0  0  0  0  0  0  0  0
  -39.2211  -46.6158    3.7075 H   0  0  0  0  0  0  0  0  0  0  0  0
  -39.4091  -43.6498    3.9321 H   0  0  0  0  0  0  0  0  0  0  0  0
  -37.3221  -43.6747    5.3515 H   0  0  0  0  0  0  0  0  0  0  0  0
  -37.5586  -45.4437    5.5550 H   0  0  0  0  0  0  0  0  0  0  0  0
  -39.7350  -45.0182    6.6685 H   0  0  0  0  0  0  0  0  0  0  0  0
  -39.4819  -43.2501    6.4773 H   0  0  0  0  0  0  0  0  0  0  0  0
  1  2  2  0  0  0  0
  1  6  1  0  0  0  0
  1  7  1  0  0  0  0
  2  3  1  0  0  0  0
  2 32  1  0  0  0  0
  3  4  2  0  0  0  0
  3 33  1  0  0  0  0
  4  5  1  0  0  0  0
  4 20  1  0  0  0  0
  5  6  2  0  0  0  0
  5 34  1  0  0  0  0
  6 35  1  0  0  0  0
  7  8  1  0  0  0  0
  7 36  1  0  0  0  0
  7 37  1  0  0  0  0
  8  9  1  0  0  0  0
  8 38  1  0  0  0  0
  8 39  1  0  0  0  0
  9 10  2  0  0  0  0
  9 13  1  0  0  0  0
 10 11  1  0  0  0  0
 10 40  1  0  0  0  0
 11 12  1  0  0  0  0
 11 41  1  0  0  0  0
 12 13  2  0  0  0  0
 12 18  1  0  0  0  0
 13 14  1  0  0  0  0
 14 15  2  0  0  0  0
 14 16  1  0  0  0  0
 16 17  1  0  0  0  0
 16 42  1  0  0  0  0
 17 18  2  0  0  0  0
 17 19  1  0  0  0  0
 19 43  1  0  0  0  0
 19 44  1  0  0  0  0
 20 21  2  0  0  0  0
 20 22  1  0  0  0  0
 22 23  1  0  0  0  0
 22 45  1  0  0  0  0
 23 24  1  0  0  0  0
 23 29  1  0  0  0  0
 23 46  1  6  0  0  0
 24 25  1  0  0  0  0
 24 47  1  0  0  0  0
 24 48  1  0  0  0  0
 25 26  1  0  0  0  0
 25 49  1  0  0  0  0
 25 50  1  0  0  0  0
 26 27  1  0  0  0  0
 26 28  2  0  0  0  0
 29 30  1  0  0  0  0
 29 31  2  0  0  0  0
M  CHG  2  27  -1  30  -1
M  END
