1juq_ligand
 OpenBabel08222323343D

 82 82  0  0  1  0  0  0  0  0999 V2000
   39.3150   15.9840   58.2230 N   0  3  0  0  0  0  0  0  0  0  0  0
   39.3480   15.1040   57.0560 C   0  0  2  0  0  0  0  0  0  0  0  0
   40.6320   14.2830   57.0740 C   0  0  0  0  0  0  0  0  0  0  0  0
   41.6230   14.6830   57.6910 O   0  0  0  0  0  0  0  0  0  0  0  0
   39.2940   15.9270   55.7610 C   0  0  0  0  0  0  0  0  0  0  0  0
   39.0290   15.0730   54.5310 C   0  0  0  0  0  0  0  0  0  0  0  0
   38.5680   13.9220   54.6850 O   0  5  0  0  0  0  0  0  0  0  0  0
   39.2690   15.5590   53.4060 O   0  0  0  0  0  0  0  0  0  0  0  0
   40.6110   13.1400   56.3930 N   0  0  0  0  0  0  0  0  0  0  0  0
   41.7770   12.2670   56.3300 C   0  0  2  0  0  0  0  0  0  0  0  0
   42.4170   12.2480   54.9450 C   0  0  0  0  0  0  0  0  0  0  0  0
   42.2310   13.1710   54.1480 O   0  0  0  0  0  0  0  0  0  0  0  0
   41.3950   10.8420   56.7360 C   0  0  0  0  0  0  0  0  0  0  0  0
   40.1120   10.3770   56.0830 C   0  0  0  0  0  0  0  0  0  0  0  0
   39.0260   10.7960   56.5430 O   0  5  0  0  0  0  0  0  0  0  0  0
   40.1940    9.6020   55.1060 O   0  0  0  0  0  0  0  0  0  0  0  0
   43.1730   11.1880   54.6710 N   0  0  0  0  0  0  0  0  0  0  0  0
   43.8620   11.0330   53.3950 C   0  0  2  0  0  0  0  0  0  0  0  0
   43.1120   10.0990   52.4540 C   0  0  0  0  0  0  0  0  0  0  0  0
   42.1940    9.3880   52.8640 O   0  0  0  0  0  0  0  0  0  0  0  0
   45.2720   10.4840   53.6270 C   0  0  0  0  0  0  0  0  0  0  0  0
   46.1090   11.3290   54.5360 C   0  0  0  0  0  0  0  0  0  0  0  0
   46.4120   12.6460   54.2610 N   0  0  0  0  0  0  0  0  0  0  0  0
   46.7080   11.0440   55.7170 C   0  0  0  0  0  0  0  0  0  0  0  0
   47.1610   13.1360   55.2330 C   0  0  0  0  0  0  0  0  0  0  0  0
   47.3550   12.1850   56.1290 N   0  0  0  0  0  0  0  0  0  0  0  0
   43.5190   10.1060   51.1870 N   0  0  0  0  0  0  0  0  0  0  0  0
   42.9060    9.2580   50.1690 C   0  0  2  0  0  0  0  0  0  0  0  0
   43.3330    7.8060   50.3890 C   0  0  0  0  0  0  0  0  0  0  0  0
   44.4690    7.5450   50.7950 O   0  0  0  0  0  0  0  0  0  0  0  0
   43.3370    9.7320   48.7770 C   0  0  0  0  0  0  0  0  0  0  0  0
   42.7930    8.9710   47.5670 C   0  0  0  0  0  0  0  0  0  0  0  0
   41.2740    8.9740   47.5950 C   0  0  0  0  0  0  0  0  0  0  0  0
   43.3160    9.6120   46.2860 C   0  0  0  0  0  0  0  0  0  0  0  0
   42.4220    6.8690   50.1220 N   0  0  0  0  0  0  0  0  0  0  0  0
   42.6920    5.4400   50.2970 C   0  0  2  0  0  0  0  0  0  0  0  0
   44.0800    5.0100   49.8440 C   0  0  0  0  0  0  0  0  0  0  0  0
   44.7690    5.8230   49.1950 O   0  0  0  0  0  0  0  0  0  0  0  0
   41.6560    4.6030   49.5430 C   0  0  0  0  0  0  0  0  0  0  0  0
   40.2970    4.3970   50.2050 C   0  0  0  0  0  0  0  0  0  0  0  0
   39.4170    3.5500   49.2920 C   0  0  0  0  0  0  0  0  0  0  0  0
   40.4870    3.7130   51.5560 C   0  0  0  0  0  0  0  0  0  0  0  0
   38.4657   16.5267   58.2106 H   0  0  0  0  0  0  0  0  0  0  0  0
   40.1099   16.6034   58.1994 H   0  0  0  0  0  0  0  0  0  0  0  0
   39.3466   15.4287   59.0636 H   0  0  0  0  0  0  0  0  0  0  0  0
   38.4815   14.4272   57.0905 H   0  0  0  0  0  0  0  0  0  0  0  0
   40.2576   16.4412   55.6309 H   0  0  0  0  0  0  0  0  0  0  0  0
   38.4899   16.6722   55.8513 H   0  0  0  0  0  0  0  0  0  0  0  0
   39.7753   12.8734   55.9128 H   0  0  0  0  0  0  0  0  0  0  0  0
   42.5223   12.6457   57.0450 H   0  0  0  0  0  0  0  0  0  0  0  0
   41.2670   10.8088   57.8280 H   0  0  0  0  0  0  0  0  0  0  0  0
   42.2074   10.1615   56.4412 H   0  0  0  0  0  0  0  0  0  0  0  0
   43.2721   10.4734   55.3635 H   0  0  0  0  0  0  0  0  0  0  0  0
   43.9378   12.0219   52.9193 H   0  0  0  0  0  0  0  0  0  0  0  0
   45.7806   10.4129   52.6542 H   0  0  0  0  0  0  0  0  0  0  0  0
   45.1848    9.4807   54.0694 H   0  0  0  0  0  0  0  0  0  0  0  0
   46.1026   13.1665   53.4278 H   0  0  0  0  0  0  0  0  0  0  0  0
   46.6820   10.0901   56.2417 H   0  0  0  0  0  0  0  0  0  0  0  0
   47.5518   14.1511   55.2863 H   0  0  0  0  0  0  0  0  0  0  0  0
   44.2695   10.7121   50.9236 H   0  0  0  0  0  0  0  0  0  0  0  0
   41.8112    9.3279   50.2500 H   0  0  0  0  0  0  0  0  0  0  0  0
   44.4347    9.6738   48.7353 H   0  0  0  0  0  0  0  0  0  0  0  0
   43.0212   10.7807   48.6746 H   0  0  0  0  0  0  0  0  0  0  0  0
   43.1446    7.9297   47.6111 H   0  0  0  0  0  0  0  0  0  0  0  0
   40.8901    8.4252   46.7224 H   0  0  0  0  0  0  0  0  0  0  0  0
   40.9087   10.0112   47.5656 H   0  0  0  0  0  0  0  0  0  0  0  0
   40.9233    8.4877   48.5172 H   0  0  0  0  0  0  0  0  0  0  0  0
   44.4159    9.5970   46.2911 H   0  0  0  0  0  0  0  0  0  0  0  0
   42.9638   10.6524   46.2263 H   0  0  0  0  0  0  0  0  0  0  0  0
   42.9457    9.0490   45.4166 H   0  0  0  0  0  0  0  0  0  0  0  0
   41.5221    7.1524   49.7904 H   0  0  0  0  0  0  0  0  0  0  0  0
   42.6054    5.2182   51.3709 H   0  0  0  0  0  0  0  0  0  0  0  0
   44.4620    4.0180   50.0803 H   0  0  0  0  0  0  0  0  0  0  0  0
   42.0949    3.6083   49.3762 H   0  0  0  0  0  0  0  0  0  0  0  0
   41.4791    5.0929   48.5742 H   0  0  0  0  0  0  0  0  0  0  0  0
   39.8168    5.3741   50.3621 H   0  0  0  0  0  0  0  0  0  0  0  0
   38.4357    3.3989   49.7656 H   0  0  0  0  0  0  0  0  0  0  0  0
   39.8963    2.5746   49.1224 H   0  0  0  0  0  0  0  0  0  0  0  0
   39.2840    4.0655   48.3294 H   0  0  0  0  0  0  0  0  0  0  0  0
   41.1236    4.3397   52.1979 H   0  0  0  0  0  0  0  0  0  0  0  0
   40.9668    2.7344   51.4073 H   0  0  0  0  0  0  0  0  0  0  0  0
   39.5076    3.5720   52.0366 H   0  0  0  0  0  0  0  0  0  0  0  0
  1  2  1  0  0  0  0
  1 43  1  0  0  0  0
  1 44  1  0  0  0  0
  1 45  1  0  0  0  0
  2  3  1  0  0  0  0
  2  5  1  0  0  0  0
  2 46  1  1  0  0  0
  3  4  2  0  0  0  0
  3  9  1  0  0  0  0
  5  6  1  0  0  0  0
  5 47  1  0  0  0  0
  5 48  1  0  0  0  0
  6  7  1  0  0  0  0
  6  8  2  0  0  0  0
  9 10  1  0  0  0  0
  9 49  1  0  0  0  0
 10 11  1  0  0  0  0
 10 13  1  0  0  0  0
 10 50  1  1  0  0  0
 11 12  2  0  0  0  0
 11 17  1  0  0  0  0
 13 14  1  0  0  0  0
 13 51  1  0  0  0  0
 13 52  1  0  0  0  0
 14 15  1  0  0  0  0
 14 16  2  0  0  0  0
 17 18  1  0  0  0  0
 17 53  1  0  0  0  0
 18 19  1  0  0  0  0
 18 21  1  0  0  0  0
 18 54  1  6  0  0  0
 19 20  2  0  0  0  0
 19 27  1  0  0  0  0
 21 22  1  0  0  0  0
 21 55  1  0  0  0  0
 21 56  1  0  0  0  0
 22 23  1  0  0  0  0
 22 24  2  0  0  0  0
 23 25  1  0  0  0  0
 23 57  1  0  0  0  0
 24 26  1  0  0  0  0
 24 58  1  0  0  0  0
 25 26  2  0  0  0  0
 25 59  1  0  0  0  0
 27 28  1  0  0  0  0
 27 60  1  0  0  0  0
 28 29  1  0  0  0  0
 28 31  1  0  0  0  0
 28 61  1  1  0  0  0
 29 30  2  0  0  0  0
 29 35  1  0  0  0  0
 31 32  1  0  0  0  0
 31 62  1  0  0  0  0
 31 63  1  0  0  0  0
 32 33  1  0  0  0  0
 32 34  1  0  0  0  0
 32 64  1  0  0  0  0
 33 65  1  0  0  0  0
 33 66  1  0  0  0  0
 33 67  1  0  0  0  0
 34 68  1  0  0  0  0
 34 69  1  0  0  0  0
 34 70  1  0  0  0  0
 35 36  1  0  0  0  0
 35 71  1  0  0  0  0
 36 37  1  0  0  0  0
 36 39  1  0  0  0  0
 36 72  1  1  0  0  0
 37 38  2  0  0  0  0
 37 73  1  0  0  0  0
 39 40  1  0  0  0  0
 39 74  1  0  0  0  0
 39 75  1  0  0  0  0
 40 41  1  0  0  0  0
 40 42  1  0  0  0  0
 40 76  1  0  0  0  0
 41 77  1  0  0  0  0
 41 78  1  0  0  0  0
 41 79  1  0  0  0  0
 42 80  1  0  0  0  0
 42 81  1  0  0  0  0
 42 82  1  0  0  0  0
M  CHG  3   1   1   7  -1  15  -1
M  END
