1jut_ligand
 OpenBabel08222323343D

 51 53  0  0  1  0  0  0  0  0999 V2000
   16.2710   14.1400   34.8440 C   0  0  0  0  0  0  0  0  0  0  0  0
   15.9790   13.9600   33.4750 C   0  0  0  0  0  0  0  0  0  0  0  0
   14.6720   13.6520   33.0820 C   0  0  0  0  0  0  0  0  0  0  0  0
   13.6810   13.5130   34.0620 C   0  0  0  0  0  0  0  0  0  0  0  0
   13.9660   13.6740   35.4380 C   0  0  0  0  0  0  0  0  0  0  0  0
   15.2720   13.9980   35.8200 C   0  0  0  0  0  0  0  0  0  0  0  0
   12.9470   13.3100   36.4470 C   0  0  0  0  0  0  0  0  0  0  0  0
   11.7440   13.1300   36.1770 O   0  0  0  0  0  0  0  0  0  0  0  0
   13.4000   13.1300   37.7290 N   0  0  0  0  0  0  0  0  0  0  0  0
   12.5170   12.7010   38.8430 C   0  0  1  0  0  0  0  0  0  0  0  0
   12.5550   11.1730   39.0130 C   0  0  0  0  0  0  0  0  0  0  0  0
   12.1310   10.5130   37.7110 C   0  0  0  0  0  0  0  0  0  0  0  0
   11.6640   10.6630   40.1700 C   0  0  0  0  0  0  0  0  0  0  0  0
   17.0850   14.1000   32.4320 C   0  0  0  0  0  0  0  0  0  0  0  0
   17.1860   15.5340   31.8670 C   0  0  0  0  0  0  0  0  0  0  0  0
   15.8950   15.9590   31.1920 C   0  0  0  0  0  0  0  0  0  0  0  0
   12.9290   13.3750   40.1230 C   0  0  0  0  0  0  0  0  0  0  0  0
   14.1280   13.7090   40.1860 O   0  5  0  0  0  0  0  0  0  0  0  0
   12.0910   13.5040   41.0340 O   0  0  0  0  0  0  0  0  0  0  0  0
   15.4610   15.4320   30.0020 C   0  0  0  0  0  0  0  0  0  0  0  0
   14.3460   16.1660   29.5550 N   0  0  0  0  0  0  0  0  0  0  0  0
   14.1150   17.1650   30.4800 C   0  0  0  0  0  0  0  0  0  0  0  0
   15.0160   17.0520   31.5230 C   0  0  0  0  0  0  0  0  0  0  0  0
   14.9640   17.9840   32.6190 C   0  0  0  0  0  0  0  0  0  0  0  0
   15.7450   18.0520   33.5870 O   0  0  0  0  0  0  0  0  0  0  0  0
   13.9470   18.9760   32.5330 N   0  0  0  0  0  0  0  0  0  0  0  0
   12.9750   19.0190   31.5050 C   0  0  0  0  0  0  0  0  0  0  0  0
   13.0950   18.1440   30.4240 N   0  0  0  0  0  0  0  0  0  0  0  0
   11.8760   19.8550   31.6360 N   0  0  0  0  0  0  0  0  0  0  0  0
   17.2812   14.3915   35.1462 H   0  0  0  0  0  0  0  0  0  0  0  0
   14.4297   13.5227   32.0334 H   0  0  0  0  0  0  0  0  0  0  0  0
   12.6681   13.2756   33.7576 H   0  0  0  0  0  0  0  0  0  0  0  0
   15.5122   14.1392   36.8676 H   0  0  0  0  0  0  0  0  0  0  0  0
   14.3673   13.2949   37.9219 H   0  0  0  0  0  0  0  0  0  0  0  0
   11.4855   13.0001   38.6052 H   0  0  0  0  0  0  0  0  0  0  0  0
   13.5928   10.8824   39.2334 H   0  0  0  0  0  0  0  0  0  0  0  0
   12.1569    9.4196   37.8288 H   0  0  0  0  0  0  0  0  0  0  0  0
   12.8199   10.8116   36.9072 H   0  0  0  0  0  0  0  0  0  0  0  0
   11.1093   10.8300   37.4549 H   0  0  0  0  0  0  0  0  0  0  0  0
   11.9738   11.1427   41.1102 H   0  0  0  0  0  0  0  0  0  0  0  0
   11.7715    9.5722   40.2622 H   0  0  0  0  0  0  0  0  0  0  0  0
   10.6131   10.9115   39.9605 H   0  0  0  0  0  0  0  0  0  0  0  0
   16.8777   13.4078   31.6027 H   0  0  0  0  0  0  0  0  0  0  0  0
   18.0456   13.8361   32.8986 H   0  0  0  0  0  0  0  0  0  0  0  0
   18.0029   15.5714   31.1313 H   0  0  0  0  0  0  0  0  0  0  0  0
   17.4033   16.2285   32.6919 H   0  0  0  0  0  0  0  0  0  0  0  0
   15.9071   14.5828   29.4864 H   0  0  0  0  0  0  0  0  0  0  0  0
   13.8033   15.9905   28.6973 H   0  0  0  0  0  0  0  0  0  0  0  0
   13.9175   19.6832   33.2394 H   0  0  0  0  0  0  0  0  0  0  0  0
   11.1649   19.8912   30.8918 H   0  0  0  0  0  0  0  0  0  0  0  0
   11.7710   20.4396   32.4775 H   0  0  0  0  0  0  0  0  0  0  0  0
  1  2  2  0  0  0  0
  1  6  1  0  0  0  0
  1 30  1  0  0  0  0
  2  3  1  0  0  0  0
  2 14  1  0  0  0  0
  3  4  2  0  0  0  0
  3 31  1  0  0  0  0
  4  5  1  0  0  0  0
  4 32  1  0  0  0  0
  5  6  2  0  0  0  0
  5  7  1  0  0  0  0
  6 33  1  0  0  0  0
  7  8  2  0  0  0  0
  7  9  1  0  0  0  0
  9 10  1  0  0  0  0
  9 34  1  0  0  0  0
 10 11  1  0  0  0  0
 10 17  1  0  0  0  0
 10 35  1  6  0  0  0
 11 12  1  0  0  0  0
 11 13  1  0  0  0  0
 11 36  1  0  0  0  0
 12 37  1  0  0  0  0
 12 38  1  0  0  0  0
 12 39  1  0  0  0  0
 13 40  1  0  0  0  0
 13 41  1  0  0  0  0
 13 42  1  0  0  0  0
 14 15  1  0  0  0  0
 14 43  1  0  0  0  0
 14 44  1  0  0  0  0
 15 16  1  0  0  0  0
 15 45  1  0  0  0  0
 15 46  1  0  0  0  0
 16 20  2  0  0  0  0
 16 23  1  0  0  0  0
 17 18  1  0  0  0  0
 17 19  2  0  0  0  0
 20 21  1  0  0  0  0
 20 47  1  0  0  0  0
 21 22  1  0  0  0  0
 21 48  1  0  0  0  0
 22 23  2  0  0  0  0
 22 28  1  0  0  0  0
 23 24  1  0  0  0  0
 24 25  2  0  0  0  0
 24 26  1  0  0  0  0
 26 27  1  0  0  0  0
 26 49  1  0  0  0  0
 27 28  2  0  0  0  0
 27 29  1  0  0  0  0
 29 50  1  0  0  0  0
 29 51  1  0  0  0  0
M  CHG  1  18  -1
M  END
