1juy_ligand
 OpenBabel08222323343D

 28 29  0  0  1  0  0  0  0  0999 V2000
  -10.7280   52.8510   51.4510 C   0  0  0  0  0  0  0  0  0  0  0  0
  -10.1330   52.8610   52.5320 O   0  0  0  0  0  0  0  0  0  0  0  0
  -10.3390   52.3060   50.2360 N   0  0  0  0  0  0  0  0  0  0  0  0
  -11.3810   52.3040   49.3260 C   0  0  0  0  0  0  0  0  0  0  0  0
  -11.3370   51.8470   48.1890 O   0  0  0  0  0  0  0  0  0  0  0  0
  -12.4740   52.8990   49.9820 N   0  0  0  0  0  0  0  0  0  0  0  0
  -12.1960   53.2880   51.2970 C   0  0  2  0  0  0  0  0  0  0  0  0
  -12.3370   54.7540   51.5470 C   0  0  2  0  0  0  0  0  0  0  0  0
  -11.0840   55.3820   51.3910 O   0  0  0  0  0  0  0  0  0  0  0  0
  -12.9560   54.8880   52.9330 C   0  0  2  0  0  0  0  0  0  0  0  0
  -11.9760   55.0050   53.9940 O   0  0  0  0  0  0  0  0  0  0  0  0
  -13.7820   53.5840   52.9760 C   0  0  2  0  0  0  0  0  0  0  0  0
  -13.0360   52.6300   52.2600 O   0  0  0  0  0  0  0  0  0  0  0  0
  -15.1970   53.7780   52.4420 C   0  0  0  0  0  0  0  0  0  0  0  0
  -15.2850   54.5360   51.1590 O   0  0  0  0  0  0  0  0  0  0  0  0
  -15.9990   53.9340   49.8330 P   0  0  0  0  0  0  0  0  0  0  0  0
  -15.5040   54.8890   48.8390 O   0  0  0  0  0  1  0  0  0  0  0  0
  -17.4540   54.1050   50.0730 O   0  0  0  0  0  1  0  0  0  0  0  0
  -15.3420   52.6100   49.6380 O   0  0  0  0  0  0  0  0  0  0  0  0
   -9.4215   51.9586   50.0425 H   0  0  0  0  0  0  0  0  0  0  0  0
  -13.3657   53.0315   49.5492 H   0  0  0  0  0  0  0  0  0  0  0  0
  -13.0281   55.1907   50.8110 H   0  0  0  0  0  0  0  0  0  0  0  0
  -10.4666   55.0130   52.0116 H   0  0  0  0  0  0  0  0  0  0  0  0
  -13.6161   55.7666   52.9823 H   0  0  0  0  0  0  0  0  0  0  0  0
  -12.4226   55.0850   54.8287 H   0  0  0  0  0  0  0  0  0  0  0  0
  -13.8677   53.2509   54.0208 H   0  0  0  0  0  0  0  0  0  0  0  0
  -15.7774   54.3226   53.2013 H   0  0  0  0  0  0  0  0  0  0  0  0
  -15.6418   52.7845   52.2833 H   0  0  0  0  0  0  0  0  0  0  0  0
  1  2  2  0  0  0  0
  1  3  1  0  0  0  0
  3  4  1  0  0  0  0
  3 20  1  0  0  0  0
  4  5  2  0  0  0  0
  4  6  1  0  0  0  0
  6  7  1  0  0  0  0
  6 21  1  0  0  0  0
  7  1  1  1  0  0  0
  7  8  1  0  0  0  0
  7 13  1  0  0  0  0
  8  9  1  0  0  0  0
  8 10  1  0  0  0  0
  8 22  1  6  0  0  0
  9 23  1  0  0  0  0
 10 11  1  0  0  0  0
 10 12  1  0  0  0  0
 10 24  1  1  0  0  0
 11 25  1  0  0  0  0
 12 13  1  0  0  0  0
 12 14  1  0  0  0  0
 12 26  1  1  0  0  0
 14 15  1  0  0  0  0
 14 27  1  0  0  0  0
 14 28  1  0  0  0  0
 15 16  1  0  0  0  0
 16 17  1  0  0  0  0
 16 18  1  0  0  0  0
 16 19  2  0  0  0  0
M  END
