1jvp_ligand
 OpenBabel08222323343D

 29 32  0  0  0  0  0  0  0  0999 V2000
    1.8030   32.3060    7.3120 N   0  0  0  0  0  0  0  0  0  0  0  0
    0.6450   32.7880    7.8810 N   0  0  0  0  0  0  0  0  0  0  0  0
    0.1680   31.8990    8.6100 C   0  0  0  0  0  0  0  0  0  0  0  0
    0.8640   30.8420    8.6180 C   0  0  0  0  0  0  0  0  0  0  0  0
    1.9070   31.0640    7.8160 C   0  0  0  0  0  0  0  0  0  0  0  0
    3.0170   30.0830    7.5160 C   0  0  0  0  0  0  0  0  0  0  0  0
    3.0440   28.8320    8.1300 C   0  0  0  0  0  0  0  0  0  0  0  0
    4.0860   27.9470    7.8380 C   0  0  0  0  0  0  0  0  0  0  0  0
    5.0630   28.2930    6.9650 N   0  0  0  0  0  0  0  0  0  0  0  0
    5.0550   29.5040    6.3640 C   0  0  0  0  0  0  0  0  0  0  0  0
    4.0340   30.4220    6.6250 C   0  0  0  0  0  0  0  0  0  0  0  0
    0.3180   29.7090    9.5020 C   0  0  0  0  0  0  0  0  0  0  0  0
   -0.9730   30.5370   10.0070 C   0  0  0  0  0  0  0  0  0  0  0  0
   -1.0230   31.8100    9.4680 C   0  0  0  0  0  0  0  0  0  0  0  0
   -2.0320   32.7270    9.7390 C   0  0  0  0  0  0  0  0  0  0  0  0
   -3.0390   32.3040   10.6240 C   0  0  0  0  0  0  0  0  0  0  0  0
   -3.0060   31.0070   11.1870 C   0  0  0  0  0  0  0  0  0  0  0  0
   -1.9670   30.1050   10.8820 C   0  0  0  0  0  0  0  0  0  0  0  0
    2.4380   32.7834    6.6565 H   0  0  0  0  0  0  0  0  0  0  0  0
    2.2643   28.5480    8.8274 H   0  0  0  0  0  0  0  0  0  0  0  0
    4.1127   26.9739    8.3149 H   0  0  0  0  0  0  0  0  0  0  0  0
    5.8482   29.7655    5.6730 H   0  0  0  0  0  0  0  0  0  0  0  0
    4.0330   31.3905    6.1381 H   0  0  0  0  0  0  0  0  0  0  0  0
    1.0003   29.4363   10.3206 H   0  0  0  0  0  0  0  0  0  0  0  0
    0.0531   28.8077    8.9298 H   0  0  0  0  0  0  0  0  0  0  0  0
   -2.0418   33.7146    9.2922 H   0  0  0  0  0  0  0  0  0  0  0  0
   -3.8488   32.9786   10.8774 H   0  0  0  0  0  0  0  0  0  0  0  0
   -3.7942   30.7011   11.8654 H   0  0  0  0  0  0  0  0  0  0  0  0
   -1.9423   29.1106   11.3129 H   0  0  0  0  0  0  0  0  0  0  0  0
  1  2  1  0  0  0  0
  1  5  1  0  0  0  0
  1 19  1  0  0  0  0
  2  3  2  0  0  0  0
  3  4  1  0  0  0  0
  3 14  1  0  0  0  0
  4  5  2  0  0  0  0
  4 12  1  0  0  0  0
  5  6  1  0  0  0  0
  6  7  2  0  0  0  0
  6 11  1  0  0  0  0
  7  8  1  0  0  0  0
  7 20  1  0  0  0  0
  8  9  2  0  0  0  0
  8 21  1  0  0  0  0
  9 10  1  0  0  0  0
 10 11  2  0  0  0  0
 10 22  1  0  0  0  0
 11 23  1  0  0  0  0
 12 13  1  0  0  0  0
 12 24  1  0  0  0  0
 12 25  1  0  0  0  0
 13 14  2  0  0  0  0
 13 18  1  0  0  0  0
 14 15  1  0  0  0  0
 15 16  2  0  0  0  0
 15 26  1  0  0  0  0
 16 17  1  0  0  0  0
 16 27  1  0  0  0  0
 17 18  2  0  0  0  0
 17 28  1  0  0  0  0
 18 29  1  0  0  0  0
M  END
