1jws_ligand
 OpenBabel08222323343D

227228  0  0  1  0  0  0  0  0999 V2000
  -17.3320   37.1360   20.9390 N   0  3  0  0  0  0  0  0  0  0  0  0
  -17.4920   38.5250   20.4470 C   0  0  2  0  0  0  0  0  0  0  0  0
  -18.2330   38.5170   19.1190 C   0  0  0  0  0  0  0  0  0  0  0  0
  -17.8960   37.7400   18.2210 O   0  0  0  0  0  0  0  0  0  0  0  0
  -16.0920   39.0990   20.3000 C   0  0  0  0  0  0  0  0  0  0  0  0
  -15.3540   38.3240   21.3800 C   0  0  0  0  0  0  0  0  0  0  0  0
  -15.9190   36.8910   21.2750 C   0  0  0  0  0  0  0  0  0  0  0  0
  -19.2310   39.3920   18.9960 N   0  0  0  0  0  0  0  0  0  0  0  0
  -20.0380   39.4440   17.7860 C   0  0  2  0  0  0  0  0  0  0  0  0
  -20.0460   40.7670   17.0120 C   0  0  0  0  0  0  0  0  0  0  0  0
  -20.3880   41.8210   17.5520 O   0  0  0  0  0  0  0  0  0  0  0  0
  -21.4770   39.0660   18.1260 C   0  0  0  0  0  0  0  0  0  0  0  0
  -22.3230   38.7480   16.9080 C   0  0  0  0  0  0  0  0  0  0  0  0
  -22.7530   37.2730   16.9120 C   0  0  0  0  0  0  0  0  0  0  0  0
  -23.0200   36.7640   15.4850 C   0  0  0  0  0  0  0  0  0  0  0  0
  -23.6240   35.3750   15.4970 N   0  3  0  0  0  0  0  0  0  0  0  0
  -19.6820   40.6920   15.7340 N   0  0  0  0  0  0  0  0  0  0  0  0
  -19.6750   41.8640   14.8690 C   0  0  2  0  0  0  0  0  0  0  0  0
  -21.1110   42.2650   14.6100 C   0  0  0  0  0  0  0  0  0  0  0  0
  -21.9680   41.4170   14.3900 O   0  0  0  0  0  0  0  0  0  0  0  0
  -18.9870   41.5540   13.5370 C   0  0  0  0  0  0  0  0  0  0  0  0
  -17.4890   41.7640   13.5550 C   0  0  0  0  0  0  0  0  0  0  0  0
  -16.9460   43.0390   13.6890 C   0  0  0  0  0  0  0  0  0  0  0  0
  -16.6090   40.6880   13.4410 C   0  0  0  0  0  0  0  0  0  0  0  0
  -15.5660   43.2410   13.7100 C   0  0  0  0  0  0  0  0  0  0  0  0
  -15.2190   40.8810   13.4590 C   0  0  0  0  0  0  0  0  0  0  0  0
  -14.7090   42.1590   13.5950 C   0  0  0  0  0  0  0  0  0  0  0  0
  -13.3490   42.3600   13.6340 O   0  0  0  0  0  0  0  0  0  0  0  0
  -21.3780   43.5600   14.6390 N   0  0  0  0  0  0  0  0  0  0  0  0
  -22.7270   44.0420   14.4020 C   0  0  2  0  0  0  0  0  0  0  0  0
  -22.7650   44.9090   13.1630 C   0  0  0  0  0  0  0  0  0  0  0  0
  -21.8110   45.6270   12.8740 O   0  0  0  0  0  0  0  0  0  0  0  0
  -23.2260   44.8630   15.5790 C   0  0  0  0  0  0  0  0  0  0  0  0
  -24.6550   45.2600   15.3430 C   0  0  0  0  0  0  0  0  0  0  0  0
  -23.0970   44.0580   16.8630 C   0  0  0  0  0  0  0  0  0  0  0  0
  -23.8670   44.8510   12.4290 N   0  0  0  0  0  0  0  0  0  0  0  0
  -23.9860   45.6480   11.2120 C   0  0  2  0  0  0  0  0  0  0  0  0
  -24.8780   46.8630   11.3840 C   0  0  0  0  0  0  0  0  0  0  0  0
  -25.6310   46.9660   12.3510 O   0  0  0  0  0  0  0  0  0  0  0  0
  -24.5730   44.8070   10.0760 C   0  0  0  0  0  0  0  0  0  0  0  0
  -26.0660   44.6160   10.1770 C   0  0  0  0  0  0  0  0  0  0  0  0
  -26.6350   44.1290    8.8750 C   0  0  0  0  0  0  0  0  0  0  0  0
  -28.1500   44.2150    8.8780 C   0  0  0  0  0  0  0  0  0  0  0  0
  -28.7520   43.2950    9.8640 N   0  3  0  0  0  0  0  0  0  0  0  0
  -24.7880   47.7790   10.4280 N   0  0  0  0  0  0  0  0  0  0  0  0
  -25.6420   48.9630   10.4150 C   0  0  2  0  0  0  0  0  0  0  0  0
  -26.7010   48.5940    9.4030 C   0  0  0  0  0  0  0  0  0  0  0  0
  -26.3790   48.0340    8.3630 O   0  0  0  0  0  0  0  0  0  0  0  0
  -24.8850   50.1940    9.9280 C   0  0  0  0  0  0  0  0  0  0  0  0
  -24.2260   51.0170   11.0270 C   0  0  0  0  0  0  0  0  0  0  0  0
  -25.2350   51.5720   12.0230 C   0  0  0  0  0  0  0  0  0  0  0  0
  -25.7460   50.8460   12.8790 O   0  0  0  0  0  0  0  0  0  0  0  0
  -25.5370   52.8650   11.9060 N   0  0  0  0  0  0  0  0  0  0  0  0
  -27.9630   48.8710    9.6990 N   0  0  0  0  0  0  0  0  0  0  0  0
  -29.0120   48.5290    8.7480 C   0  0  2  0  0  0  0  0  0  0  0  0
  -29.0790   49.5770    7.6460 C   0  0  0  0  0  0  0  0  0  0  0  0
  -28.9060   50.7680    7.9050 O   0  0  0  0  0  0  0  0  0  0  0  0
  -30.3670   48.4290    9.4470 C   0  0  0  0  0  0  0  0  0  0  0  0
  -30.3230   47.5430   10.6730 C   0  0  0  0  0  0  0  0  0  0  0  0
  -29.5560   46.5820   10.7340 O   0  0  0  0  0  0  0  0  0  0  0  0
  -31.1570   47.8550   11.6560 N   0  0  0  0  0  0  0  0  0  0  0  0
  -29.3100   49.1290    6.4150 N   0  0  0  0  0  0  0  0  0  0  0  0
  -29.4100   50.0510    5.2900 C   0  0  2  0  0  0  0  0  0  0  0  0
  -30.7890   50.7100    5.2830 C   0  0  0  0  0  0  0  0  0  0  0  0
  -31.8190   50.0570    5.4800 O   0  0  0  0  0  0  0  0  0  0  0  0
  -29.1720   49.3380    3.9250 C   0  0  2  0  0  0  0  0  0  0  0  0
  -30.0300   48.2050    3.8170 O   0  0  0  0  0  0  0  0  0  0  0  0
  -27.7590   48.8500    3.8150 C   0  0  0  0  0  0  0  0  0  0  0  0
  -30.7960   52.0170    5.0820 N   0  0  0  0  0  0  0  0  0  0  0  0
  -32.0400   52.7610    5.0440 C   0  0  2  0  0  0  0  0  0  0  0  0
  -32.5920   52.7620    3.6350 C   0  0  0  0  0  0  0  0  0  0  0  0
  -31.8490   52.6910    2.6630 O   0  0  0  0  0  0  0  0  0  0  0  0
  -31.7970   54.2040    5.4880 C   0  0  0  0  0  0  0  0  0  0  0  0
  -31.3700   54.3670    6.9450 C   0  0  0  0  0  0  0  0  0  0  0  0
  -30.9750   55.8110    7.2040 C   0  0  0  0  0  0  0  0  0  0  0  0
  -32.5140   53.9330    7.8530 C   0  0  0  0  0  0  0  0  0  0  0  0
  -33.9050   52.8330    3.5260 N   0  0  0  0  0  0  0  0  0  0  0  0
  -34.5320   52.8900    2.2120 C   0  0  2  0  0  0  0  0  0  0  0  0
  -34.5710   54.3550    1.7470 C   0  0  0  0  0  0  0  0  0  0  0  0
  -34.8510   55.2600    2.5350 O   0  0  0  0  0  0  0  0  0  0  0  0
  -35.9590   52.3480    2.2700 C   0  0  0  0  0  0  0  0  0  0  0  0
  -36.5830   52.0320    0.9060 C   0  0  0  0  0  0  0  0  0  0  0  0
  -38.0440   51.5580    1.0910 C   0  0  0  0  0  0  0  0  0  0  0  0
  -38.2390   50.6700    2.3810 C   0  0  0  0  0  0  0  0  0  0  0  0
  -37.8830   51.3310    3.7220 N   0  3  0  0  0  0  0  0  0  0  0  0
  -34.2870   54.5640    0.4660 N   0  0  0  0  0  0  0  0  0  0  0  0
  -34.2870   55.8920   -0.1040 C   0  0  2  0  0  0  0  0  0  0  0  0
  -35.6830   56.5040   -0.1500 C   0  0  0  0  0  0  0  0  0  0  0  0
  -36.6970   55.8060   -0.0470 O   0  0  0  0  0  0  0  0  0  0  0  0
  -33.6970   55.8620   -1.5100 C   0  0  0  0  0  0  0  0  0  0  0  0
  -32.2160   55.5010   -1.6240 C   0  0  0  0  0  0  0  0  0  0  0  0
  -31.7440   55.7200   -3.0600 C   0  0  0  0  0  0  0  0  0  0  0  0
  -31.3990   56.3600   -0.6770 C   0  0  0  0  0  0  0  0  0  0  0  0
  -35.7100   57.8250   -0.2980 N   0  0  0  0  0  0  0  0  0  0  0  0
  -36.9470   58.5850   -0.3740 C   0  0  2  0  0  0  0  0  0  0  0  0
  -37.6580   58.2570   -1.6680 C   0  0  0  0  0  0  0  0  0  0  0  0
  -37.0530   58.2570   -2.7400 O   0  0  0  0  0  0  0  0  0  0  0  0
  -36.6470   60.0810   -0.3140 C   0  0  0  0  0  0  0  0  0  0  0  0
  -38.9520   57.9910   -1.5520 N   0  0  0  0  0  0  0  0  0  0  0  0
  -39.7810   57.6570   -2.6990 C   0  0  2  0  0  0  0  0  0  0  0  0
  -40.9570   58.6190   -2.8460 C   0  0  0  0  0  0  0  0  0  0  0  0
  -41.1100   59.1820   -3.9540 O   0  5  0  0  0  0  0  0  0  0  0  0
  -40.3370   56.2330   -2.5730 C   0  0  2  0  0  0  0  0  0  0  0  0
  -39.2620   55.2930   -2.6870 O   0  0  0  0  0  0  0  0  0  0  0  0
  -41.3750   55.9690   -3.6580 C   0  0  0  0  0  0  0  0  0  0  0  0
  -41.7160   58.7800   -1.8580 O   0  0  0  0  0  0  0  0  0  0  0  0
  -17.6231   36.4903   20.2218 H   0  0  0  0  0  0  0  0  0  0  0  0
  -17.9001   37.0036   21.7610 H   0  0  0  0  0  0  0  0  0  0  0  0
  -18.0629   39.1203   21.1748 H   0  0  0  0  0  0  0  0  0  0  0  0
  -16.0753   40.1814   20.4950 H   0  0  0  0  0  0  0  0  0  0  0  0
  -15.6751   38.8997   19.3018 H   0  0  0  0  0  0  0  0  0  0  0  0
  -15.5566   38.7509   22.3733 H   0  0  0  0  0  0  0  0  0  0  0  0
  -14.2702   38.3302   21.1924 H   0  0  0  0  0  0  0  0  0  0  0  0
  -15.4138   36.3205   20.4817 H   0  0  0  0  0  0  0  0  0  0  0  0
  -15.8237   36.3541   22.2303 H   0  0  0  0  0  0  0  0  0  0  0  0
  -19.4283   40.0225   19.7467 H   0  0  0  0  0  0  0  0  0  0  0  0
  -19.6330   38.6814   17.1046 H   0  0  0  0  0  0  0  0  0  0  0  0
  -21.9407   39.9073   18.6619 H   0  0  0  0  0  0  0  0  0  0  0  0
  -21.4595   38.1806   18.7785 H   0  0  0  0  0  0  0  0  0  0  0  0
  -21.7372   38.9503   15.9992 H   0  0  0  0  0  0  0  0  0  0  0  0
  -23.2198   39.3850   16.9155 H   0  0  0  0  0  0  0  0  0  0  0  0
  -23.6723   37.1695   17.5070 H   0  0  0  0  0  0  0  0  0  0  0  0
  -21.9534   36.6680   17.3643 H   0  0  0  0  0  0  0  0  0  0  0  0
  -22.0699   36.7362   14.9314 H   0  0  0  0  0  0  0  0  0  0  0  0
  -23.7163   37.4525   14.9839 H   0  0  0  0  0  0  0  0  0  0  0  0
  -23.7865   35.0711   14.5497 H   0  0  0  0  0  0  0  0  0  0  0  0
  -24.4981   35.3930   15.9986 H   0  0  0  0  0  0  0  0  0  0  0  0
  -22.9894   34.7365   15.9505 H   0  0  0  0  0  0  0  0  0  0  0  0
  -19.4060   39.8076   15.3576 H   0  0  0  0  0  0  0  0  0  0  0  0
  -19.1428   42.6865   15.3693 H   0  0  0  0  0  0  0  0  0  0  0  0
  -19.4186   42.2073   12.7644 H   0  0  0  0  0  0  0  0  0  0  0  0
  -19.1859   40.5028   13.2813 H   0  0  0  0  0  0  0  0  0  0  0  0
  -17.6090   43.8919   13.7788 H   0  0  0  0  0  0  0  0  0  0  0  0
  -17.0058   39.6846   13.3366 H   0  0  0  0  0  0  0  0  0  0  0  0
  -15.1652   44.2426   13.8161 H   0  0  0  0  0  0  0  0  0  0  0  0
  -14.5494   40.0335   13.3669 H   0  0  0  0  0  0  0  0  0  0  0  0
  -13.1698   43.2880   13.7301 H   0  0  0  0  0  0  0  0  0  0  0  0
  -20.6442   44.2131   14.8258 H   0  0  0  0  0  0  0  0  0  0  0  0
  -23.3912   43.1769   14.2594 H   0  0  0  0  0  0  0  0  0  0  0  0
  -22.6137   45.7725   15.6676 H   0  0  0  0  0  0  0  0  0  0  0  0
  -25.0159   45.8544   16.1953 H   0  0  0  0  0  0  0  0  0  0  0  0
  -25.2739   44.3568   15.2376 H   0  0  0  0  0  0  0  0  0  0  0  0
  -24.7219   45.8597   14.4233 H   0  0  0  0  0  0  0  0  0  0  0  0
  -22.0443   43.7782   17.0161 H   0  0  0  0  0  0  0  0  0  0  0  0
  -23.7111   43.1484   16.7888 H   0  0  0  0  0  0  0  0  0  0  0  0
  -23.4423   44.6652   17.7127 H   0  0  0  0  0  0  0  0  0  0  0  0
  -24.6212   44.2578   12.7106 H   0  0  0  0  0  0  0  0  0  0  0  0
  -22.9794   45.9878   10.9270 H   0  0  0  0  0  0  0  0  0  0  0  0
  -24.0937   43.8171   10.0923 H   0  0  0  0  0  0  0  0  0  0  0  0
  -24.3499   45.3068    9.1218 H   0  0  0  0  0  0  0  0  0  0  0  0
  -26.5348   45.5763   10.4378 H   0  0  0  0  0  0  0  0  0  0  0  0
  -26.2819   43.8772   10.9628 H   0  0  0  0  0  0  0  0  0  0  0  0
  -26.3344   43.0823    8.7201 H   0  0  0  0  0  0  0  0  0  0  0  0
  -26.2411   44.7487    8.0560 H   0  0  0  0  0  0  0  0  0  0  0  0
  -28.5229   43.9559    7.8761 H   0  0  0  0  0  0  0  0  0  0  0  0
  -28.4472   45.2449    9.1249 H   0  0  0  0  0  0  0  0  0  0  0  0
  -29.7558   43.3818    9.8353 H   0  0  0  0  0  0  0  0  0  0  0  0
  -28.4209   43.5282   10.7871 H   0  0  0  0  0  0  0  0  0  0  0  0
  -28.4902   42.3471    9.6427 H   0  0  0  0  0  0  0  0  0  0  0  0
  -24.1172   47.6549    9.6968 H   0  0  0  0  0  0  0  0  0  0  0  0
  -26.0748   49.1555   11.4078 H   0  0  0  0  0  0  0  0  0  0  0  0
  -25.5949   50.8429    9.3941 H   0  0  0  0  0  0  0  0  0  0  0  0
  -24.0999   49.8600    9.2337 H   0  0  0  0  0  0  0  0  0  0  0  0
  -23.6881   51.8575   10.5642 H   0  0  0  0  0  0  0  0  0  0  0  0
  -23.5122   50.3776   11.5670 H   0  0  0  0  0  0  0  0  0  0  0  0
  -26.1938   53.2838   12.5331 H   0  0  0  0  0  0  0  0  0  0  0  0
  -25.1068   53.4162   11.1911 H   0  0  0  0  0  0  0  0  0  0  0  0
  -28.1928   49.3107   10.5672 H   0  0  0  0  0  0  0  0  0  0  0  0
  -28.7744   47.5539    8.2977 H   0  0  0  0  0  0  0  0  0  0  0  0
  -31.0996   48.0148    8.7387 H   0  0  0  0  0  0  0  0  0  0  0  0
  -30.6818   49.4379    9.7521 H   0  0  0  0  0  0  0  0  0  0  0  0
  -31.1731   47.3055   12.4914 H   0  0  0  0  0  0  0  0  0  0  0  0
  -31.7697   48.6397   11.5618 H   0  0  0  0  0  0  0  0  0  0  0  0
  -29.4165   48.1470    6.2591 H   0  0  0  0  0  0  0  0  0  0  0  0
  -28.6438   50.8306    5.4127 H   0  0  0  0  0  0  0  0  0  0  0  0
  -29.3824   50.0438    3.1080 H   0  0  0  0  0  0  0  0  0  0  0  0
  -29.8807   47.7745    2.9835 H   0  0  0  0  0  0  0  0  0  0  0  0
  -27.6177   48.3517    2.8446 H   0  0  0  0  0  0  0  0  0  0  0  0
  -27.5531   48.1368    4.6267 H   0  0  0  0  0  0  0  0  0  0  0  0
  -27.0692   49.7033    3.8929 H   0  0  0  0  0  0  0  0  0  0  0  0
  -29.9297   52.4999    4.9542 H   0  0  0  0  0  0  0  0  0  0  0  0
  -32.7666   52.2881    5.7211 H   0  0  0  0  0  0  0  0  0  0  0  0
  -32.7297   54.7682    5.3405 H   0  0  0  0  0  0  0  0  0  0  0  0
  -31.0069   54.6286    4.8512 H   0  0  0  0  0  0  0  0  0  0  0  0
  -30.4996   53.7232    7.1396 H   0  0  0  0  0  0  0  0  0  0  0  0
  -30.6681   55.9244    8.2542 H   0  0  0  0  0  0  0  0  0  0  0  0
  -31.8331   56.4682    6.9998 H   0  0  0  0  0  0  0  0  0  0  0  0
  -30.1377   56.0859    6.5457 H   0  0  0  0  0  0  0  0  0  0  0  0
  -32.7742   52.8857    7.6398 H   0  0  0  0  0  0  0  0  0  0  0  0
  -33.3900   54.5728    7.6705 H   0  0  0  0  0  0  0  0  0  0  0  0
  -32.2038   54.0271    8.9041 H   0  0  0  0  0  0  0  0  0  0  0  0
  -34.4726   52.8478    4.3492 H   0  0  0  0  0  0  0  0  0  0  0  0
  -33.9442   52.2908    1.5011 H   0  0  0  0  0  0  0  0  0  0  0  0
  -36.5899   53.0982    2.7692 H   0  0  0  0  0  0  0  0  0  0  0  0
  -35.9496   51.4226    2.8645 H   0  0  0  0  0  0  0  0  0  0  0  0
  -36.0017   51.2380    0.4144 H   0  0  0  0  0  0  0  0  0  0  0  0
  -36.5698   52.9369    0.2807 H   0  0  0  0  0  0  0  0  0  0  0  0
  -38.3363   50.9675    0.2102 H   0  0  0  0  0  0  0  0  0  0  0  0
  -38.6931   52.4424    1.1715 H   0  0  0  0  0  0  0  0  0  0  0  0
  -37.6088   49.7752    2.2705 H   0  0  0  0  0  0  0  0  0  0  0  0
  -39.2965   50.3705    2.4252 H   0  0  0  0  0  0  0  0  0  0  0  0
  -38.0448   50.6774    4.4721 H   0  0  0  0  0  0  0  0  0  0  0  0
  -38.4587   52.1473    3.8576 H   0  0  0  0  0  0  0  0  0  0  0  0
  -36.9121   51.6018    3.7159 H   0  0  0  0  0  0  0  0  0  0  0  0
  -34.0677   53.7827   -0.1184 H   0  0  0  0  0  0  0  0  0  0  0  0
  -33.6536   56.5324    0.5274 H   0  0  0  0  0  0  0  0  0  0  0  0
  -33.8315   56.8613   -1.9496 H   0  0  0  0  0  0  0  0  0  0  0  0
  -34.2661   55.1244   -2.0949 H   0  0  0  0  0  0  0  0  0  0  0  0
  -32.0811   54.4425   -1.3569 H   0  0  0  0  0  0  0  0  0  0  0  0
  -30.6782   55.4596   -3.1394 H   0  0  0  0  0  0  0  0  0  0  0  0
  -31.8850   56.7756   -3.3354 H   0  0  0  0  0  0  0  0  0  0  0  0
  -32.3288   55.0825   -3.7395 H   0  0  0  0  0  0  0  0  0  0  0  0
  -31.7437   56.1978    0.3549 H   0  0  0  0  0  0  0  0  0  0  0  0
  -31.5242   57.4200   -0.9430 H   0  0  0  0  0  0  0  0  0  0  0  0
  -30.3369   56.0850   -0.7563 H   0  0  0  0  0  0  0  0  0  0  0  0
  -34.8417   58.3172   -0.3597 H   0  0  0  0  0  0  0  0  0  0  0  0
  -37.5923   58.3124    0.4741 H   0  0  0  0  0  0  0  0  0  0  0  0
  -37.5888   60.6464   -0.3722 H   0  0  0  0  0  0  0  0  0  0  0  0
  -35.9995   60.3593   -1.1585 H   0  0  0  0  0  0  0  0  0  0  0  0
  -36.1367   60.3150    0.6320 H   0  0  0  0  0  0  0  0  0  0  0  0
  -39.3719   58.0211   -0.6449 H   0  0  0  0  0  0  0  0  0  0  0  0
  -39.1585   57.7185   -3.6038 H   0  0  0  0  0  0  0  0  0  0  0  0
  -40.8133   56.1192   -1.5880 H   0  0  0  0  0  0  0  0  0  0  0  0
  -39.6049   54.4105   -2.6091 H   0  0  0  0  0  0  0  0  0  0  0  0
  -41.7627   54.9450   -3.5531 H   0  0  0  0  0  0  0  0  0  0  0  0
  -40.9087   56.0849   -4.6475 H   0  0  0  0  0  0  0  0  0  0  0  0
  -42.2025   56.6866   -3.5562 H   0  0  0  0  0  0  0  0  0  0  0  0
  1  2  1  0  0  0  0
  1  7  1  0  0  0  0
  1107  1  0  0  0  0
  1108  1  0  0  0  0
  2  3  1  0  0  0  0
  2  5  1  0  0  0  0
  2109  1  1  0  0  0
  3  4  2  0  0  0  0
  3  8  1  0  0  0  0
  5  6  1  0  0  0  0
  5110  1  0  0  0  0
  5111  1  0  0  0  0
  6  7  1  0  0  0  0
  6112  1  0  0  0  0
  6113  1  0  0  0  0
  7114  1  0  0  0  0
  7115  1  0  0  0  0
  8  9  1  0  0  0  0
  8116  1  0  0  0  0
  9 10  1  0  0  0  0
  9 12  1  0  0  0  0
  9117  1  6  0  0  0
 10 11  2  0  0  0  0
 10 17  1  0  0  0  0
 12 13  1  0  0  0  0
 12118  1  0  0  0  0
 12119  1  0  0  0  0
 13 14  1  0  0  0  0
 13120  1  0  0  0  0
 13121  1  0  0  0  0
 14 15  1  0  0  0  0
 14122  1  0  0  0  0
 14123  1  0  0  0  0
 15 16  1  0  0  0  0
 15124  1  0  0  0  0
 15125  1  0  0  0  0
 16126  1  0  0  0  0
 16127  1  0  0  0  0
 16128  1  0  0  0  0
 17 18  1  0  0  0  0
 17129  1  0  0  0  0
 18 19  1  0  0  0  0
 18 21  1  0  0  0  0
 18130  1  1  0  0  0
 19 20  2  0  0  0  0
 19 29  1  0  0  0  0
 21 22  1  0  0  0  0
 21131  1  0  0  0  0
 21132  1  0  0  0  0
 22 23  2  0  0  0  0
 22 24  1  0  0  0  0
 23 25  1  0  0  0  0
 23133  1  0  0  0  0
 24 26  2  0  0  0  0
 24134  1  0  0  0  0
 25 27  2  0  0  0  0
 25135  1  0  0  0  0
 26 27  1  0  0  0  0
 26136  1  0  0  0  0
 27 28  1  0  0  0  0
 28137  1  0  0  0  0
 29 30  1  0  0  0  0
 29138  1  0  0  0  0
 30 31  1  0  0  0  0
 30 33  1  0  0  0  0
 30139  1  6  0  0  0
 31 32  2  0  0  0  0
 31 36  1  0  0  0  0
 33 34  1  0  0  0  0
 33 35  1  0  0  0  0
 33140  1  0  0  0  0
 34141  1  0  0  0  0
 34142  1  0  0  0  0
 34143  1  0  0  0  0
 35144  1  0  0  0  0
 35145  1  0  0  0  0
 35146  1  0  0  0  0
 36 37  1  0  0  0  0
 36147  1  0  0  0  0
 37 38  1  0  0  0  0
 37 40  1  0  0  0  0
 37148  1  6  0  0  0
 38 39  2  0  0  0  0
 38 45  1  0  0  0  0
 40 41  1  0  0  0  0
 40149  1  0  0  0  0
 40150  1  0  0  0  0
 41 42  1  0  0  0  0
 41151  1  0  0  0  0
 41152  1  0  0  0  0
 42 43  1  0  0  0  0
 42153  1  0  0  0  0
 42154  1  0  0  0  0
 43 44  1  0  0  0  0
 43155  1  0  0  0  0
 43156  1  0  0  0  0
 44157  1  0  0  0  0
 44158  1  0  0  0  0
 44159  1  0  0  0  0
 45 46  1  0  0  0  0
 45160  1  0  0  0  0
 46 47  1  0  0  0  0
 46 49  1  0  0  0  0
 46161  1  1  0  0  0
 47 48  2  0  0  0  0
 47 54  1  0  0  0  0
 49 50  1  0  0  0  0
 49162  1  0  0  0  0
 49163  1  0  0  0  0
 50 51  1  0  0  0  0
 50164  1  0  0  0  0
 50165  1  0  0  0  0
 51 52  2  0  0  0  0
 51 53  1  0  0  0  0
 53166  1  0  0  0  0
 53167  1  0  0  0  0
 54 55  1  0  0  0  0
 54168  1  0  0  0  0
 55 56  1  0  0  0  0
 55 58  1  0  0  0  0
 55169  1  6  0  0  0
 56 57  2  0  0  0  0
 56 62  1  0  0  0  0
 58 59  1  0  0  0  0
 58170  1  0  0  0  0
 58171  1  0  0  0  0
 59 60  2  0  0  0  0
 59 61  1  0  0  0  0
 61172  1  0  0  0  0
 61173  1  0  0  0  0
 62 63  1  0  0  0  0
 62174  1  0  0  0  0
 63 64  1  0  0  0  0
 63 66  1  0  0  0  0
 63175  1  1  0  0  0
 64 65  2  0  0  0  0
 64 69  1  0  0  0  0
 66 67  1  0  0  0  0
 66 68  1  0  0  0  0
 66176  1  6  0  0  0
 67177  1  0  0  0  0
 68178  1  0  0  0  0
 68179  1  0  0  0  0
 68180  1  0  0  0  0
 69 70  1  0  0  0  0
 69181  1  0  0  0  0
 70 71  1  0  0  0  0
 70 73  1  0  0  0  0
 70182  1  1  0  0  0
 71 72  2  0  0  0  0
 71 77  1  0  0  0  0
 73 74  1  0  0  0  0
 73183  1  0  0  0  0
 73184  1  0  0  0  0
 74 75  1  0  0  0  0
 74 76  1  0  0  0  0
 74185  1  0  0  0  0
 75186  1  0  0  0  0
 75187  1  0  0  0  0
 75188  1  0  0  0  0
 76189  1  0  0  0  0
 76190  1  0  0  0  0
 76191  1  0  0  0  0
 77 78  1  0  0  0  0
 77192  1  0  0  0  0
 78 79  1  0  0  0  0
 78 81  1  0  0  0  0
 78193  1  6  0  0  0
 79 80  2  0  0  0  0
 79 86  1  0  0  0  0
 81 82  1  0  0  0  0
 81194  1  0  0  0  0
 81195  1  0  0  0  0
 82 83  1  0  0  0  0
 82196  1  0  0  0  0
 82197  1  0  0  0  0
 83 84  1  0  0  0  0
 83198  1  0  0  0  0
 83199  1  0  0  0  0
 84 85  1  0  0  0  0
 84200  1  0  0  0  0
 84201  1  0  0  0  0
 85202  1  0  0  0  0
 85203  1  0  0  0  0
 85204  1  0  0  0  0
 86 87  1  0  0  0  0
 86205  1  0  0  0  0
 87 88  1  0  0  0  0
 87 90  1  0  0  0  0
 87206  1  1  0  0  0
 88 89  2  0  0  0  0
 88 94  1  0  0  0  0
 90 91  1  0  0  0  0
 90207  1  0  0  0  0
 90208  1  0  0  0  0
 91 92  1  0  0  0  0
 91 93  1  0  0  0  0
 91209  1  0  0  0  0
 92210  1  0  0  0  0
 92211  1  0  0  0  0
 92212  1  0  0  0  0
 93213  1  0  0  0  0
 93214  1  0  0  0  0
 93215  1  0  0  0  0
 94 95  1  0  0  0  0
 94216  1  0  0  0  0
 95 96  1  0  0  0  0
 95 98  1  0  0  0  0
 95217  1  1  0  0  0
 96 97  2  0  0  0  0
 96 99  1  0  0  0  0
 98218  1  0  0  0  0
 98219  1  0  0  0  0
 98220  1  0  0  0  0
 99100  1  0  0  0  0
 99221  1  0  0  0  0
100101  1  0  0  0  0
100103  1  0  0  0  0
100222  1  6  0  0  0
101102  1  0  0  0  0
101106  2  0  0  0  0
103104  1  0  0  0  0
103105  1  0  0  0  0
103223  1  1  0  0  0
104224  1  0  0  0  0
105225  1  0  0  0  0
105226  1  0  0  0  0
105227  1  0  0  0  0
M  CHG  5   1   1  16   1  44   1  85   1 102  -1
M  END
