1jyi_ligand
 OpenBabel08222323343D

181186  0  0  1  0  0  0  0  0999 V2000
   57.1440   24.4590  125.3390 N   0  3  0  0  0  0  0  0  0  0  0  0
   57.0060   23.5990  124.1270 C   0  0  2  0  0  0  0  0  0  0  0  0
   58.3890   23.3350  123.5270 C   0  0  0  0  0  0  0  0  0  0  0  0
   58.5800   22.3780  122.7730 O   0  0  0  0  0  0  0  0  0  0  0  0
   56.0970   24.2920  123.0980 C   0  0  0  0  0  0  0  0  0  0  0  0
   55.6380   23.3550  121.9870 C   0  0  0  0  0  0  0  0  0  0  0  0
   55.0780   22.2840  122.3040 O   0  5  0  0  0  0  0  0  0  0  0  0
   55.8240   23.6920  120.7960 O   0  0  0  0  0  0  0  0  0  0  0  0
   59.3500   24.1890  123.8750 N   0  0  0  0  0  0  0  0  0  0  0  0
   60.7250   24.0680  123.3880 C   0  0  2  0  0  0  0  0  0  0  0  0
   61.7320   24.3680  124.5070 C   0  0  0  0  0  0  0  0  0  0  0  0
   61.4970   25.2380  125.3480 O   0  0  0  0  0  0  0  0  0  0  0  0
   60.9750   25.0220  122.1830 C   0  0  0  0  0  0  0  0  0  0  0  0
   62.4500   25.0800  121.8510 C   0  0  0  0  0  0  0  0  0  0  0  0
   60.2090   24.5280  120.9670 C   0  0  0  0  0  0  0  0  0  0  0  0
   62.8480   23.6370  124.5050 N   0  0  0  0  0  0  0  0  0  0  0  0
   63.8930   23.7890  125.5230 C   0  0  2  0  0  0  0  0  0  0  0  0
   65.3010   24.0840  124.9830 C   0  0  0  0  0  0  0  0  0  0  0  0
   65.8420   23.3220  124.1760 O   0  0  0  0  0  0  0  0  0  0  0  0
   63.9500   22.5280  126.3950 C   0  0  0  0  0  0  0  0  0  0  0  0
   62.8610   22.4480  127.4290 C   0  0  0  0  0  0  0  0  0  0  0  0
   62.6110   21.2540  128.0980 C   0  0  0  0  0  0  0  0  0  0  0  0
   62.1030   23.5700  127.7570 C   0  0  0  0  0  0  0  0  0  0  0  0
   61.6230   21.1780  129.0790 C   0  0  0  0  0  0  0  0  0  0  0  0
   61.1140   23.5050  128.7350 C   0  0  0  0  0  0  0  0  0  0  0  0
   60.8730   22.3070  129.3980 C   0  0  0  0  0  0  0  0  0  0  0  0
   65.8790   25.1890  125.4600 N   0  0  0  0  0  0  0  0  0  0  0  0
   67.2220   25.6670  125.0950 C   0  0  2  0  0  0  0  0  0  0  0  0
   67.8440   25.1170  123.8090 C   0  0  0  0  0  0  0  0  0  0  0  0
   69.0080   24.7110  123.8210 O   0  0  0  0  0  0  0  0  0  0  0  0
   68.2370   25.3980  126.2200 C   0  0  0  0  0  0  0  0  0  0  0  0
   67.7010   25.2920  127.6340 C   0  0  0  0  0  0  0  0  0  0  0  0
   66.7350   24.3400  127.9680 C   0  0  0  0  0  0  0  0  0  0  0  0
   68.2310   26.0770  128.6570 C   0  0  0  0  0  0  0  0  0  0  0  0
   66.3150   24.1700  129.2840 C   0  0  0  0  0  0  0  0  0  0  0  0
   67.8190   25.9150  129.9770 C   0  0  0  0  0  0  0  0  0  0  0  0
   66.8630   24.9570  130.2840 C   0  0  0  0  0  0  0  0  0  0  0  0
   66.4620   24.7730  131.5870 O   0  0  0  0  0  0  0  0  0  0  0  0
   67.0980   25.0970  122.6880 N   0  0  0  0  0  0  0  0  0  0  0  0
   67.6510   24.5840  121.4350 C   0  0  2  0  0  0  0  0  0  0  0  0
   69.1490   24.7940  121.2970 C   0  0  0  0  0  0  0  0  0  0  0  0
   69.8850   23.8460  121.0360 O   0  0  0  0  0  0  0  0  0  0  0  0
   66.8320   25.3310  120.4040 C   0  0  0  0  0  0  0  0  0  0  0  0
   65.4870   25.1880  120.9930 C   0  0  0  0  0  0  0  0  0  0  0  0
   65.7240   25.5700  122.4590 C   0  0  0  0  0  0  0  0  0  0  0  0
   69.6060   26.0270  121.4770 N   0  0  0  0  0  0  0  0  0  0  0  0
   71.0340   26.2900  121.4080 C   0  0  2  0  0  0  0  0  0  0  0  0
   71.4440   27.4710  122.2830 C   0  0  0  0  0  0  0  0  0  0  0  0
   72.2490   27.3130  123.2040 O   0  0  0  0  0  0  0  0  0  0  0  0
   71.4870   26.5280  119.9660 C   0  0  0  0  0  0  0  0  0  0  0  0
   72.9720   26.3060  119.7570 C   0  0  0  0  0  0  0  0  0  0  0  0
   73.9110   26.7750  120.6840 C   0  0  0  0  0  0  0  0  0  0  0  0
   73.4440   25.6570  118.6170 C   0  0  0  0  0  0  0  0  0  0  0  0
   75.2820   26.6060  120.4780 C   0  0  0  0  0  0  0  0  0  0  0  0
   74.8160   25.4840  118.3980 C   0  0  0  0  0  0  0  0  0  0  0  0
   75.7270   25.9610  119.3310 C   0  0  0  0  0  0  0  0  0  0  0  0
   77.0760   25.7970  119.1070 O   0  0  0  0  0  0  0  0  0  0  0  0
   70.8980   28.6710  122.0120 N   0  0  0  0  0  0  0  0  0  0  0  0
   71.2540   29.8440  122.8170 C   0  0  2  0  0  0  0  0  0  0  0  0
   71.0550   29.6430  124.3240 C   0  0  0  0  0  0  0  0  0  0  0  0
   69.9930   29.2000  124.7750 O   0  0  0  0  0  0  0  0  0  0  0  0
   70.3510   30.9350  122.2500 C   0  0  0  0  0  0  0  0  0  0  0  0
   70.2050   30.5380  120.8230 C   0  0  0  0  0  0  0  0  0  0  0  0
   69.9670   29.0490  120.9330 C   0  0  0  0  0  0  0  0  0  0  0  0
   72.0980   29.9720  125.0830 N   0  0  0  0  0  0  0  0  0  0  0  0
   72.1150   29.8520  126.5410 C   0  0  2  0  0  0  0  0  0  0  0  0
   70.9040   30.4680  127.2420 C   0  0  0  0  0  0  0  0  0  0  0  0
   70.7860   31.6920  127.3470 O   0  0  0  0  0  0  0  0  0  0  0  0
   73.4030   30.4830  127.0970 C   0  0  0  0  0  0  0  0  0  0  0  0
   74.1380   31.3600  126.0990 C   0  0  0  0  0  0  0  0  0  0  0  0
   73.4850   32.4100  125.4450 C   0  0  0  0  0  0  0  0  0  0  0  0
   75.4790   31.1280  125.7930 C   0  0  0  0  0  0  0  0  0  0  0  0
   74.1460   33.2020  124.5110 C   0  0  0  0  0  0  0  0  0  0  0  0
   76.1500   31.9150  124.8610 C   0  0  0  0  0  0  0  0  0  0  0  0
   75.4770   32.9480  124.2240 C   0  0  0  0  0  0  0  0  0  0  0  0
   76.1340   33.7270  123.3020 O   0  0  0  0  0  0  0  0  0  0  0  0
   70.0070   29.6090  127.7230 N   0  0  0  0  0  0  0  0  0  0  0  0
   68.8160   30.0620  128.4330 C   0  0  2  0  0  0  0  0  0  0  0  0
   69.1020   30.0180  129.9350 C   0  0  0  0  0  0  0  0  0  0  0  0
   69.1260   28.9430  130.5370 O   0  0  0  0  0  0  0  0  0  0  0  0
   67.6200   29.1700  128.0870 C   0  0  0  0  0  0  0  0  0  0  0  0
   69.3230   31.1930  130.5250 N   0  0  0  0  0  0  0  0  0  0  0  0
   69.6310   31.3200  131.9530 C   0  0  2  0  0  0  0  0  0  0  0  0
   68.4470   30.9880  132.8610 C   0  0  0  0  0  0  0  0  0  0  0  0
   67.5400   31.8040  133.0470 O   0  0  0  0  0  0  0  0  0  0  0  0
   70.1250   32.7400  132.2600 C   0  0  0  0  0  0  0  0  0  0  0  0
   70.4840   32.8750  133.6260 O   0  0  0  0  0  0  0  0  0  0  0  0
   68.4760   29.7880  133.4350 N   0  0  0  0  0  0  0  0  0  0  0  0
   67.4060   29.3520  134.3140 C   0  0  0  0  0  0  0  0  0  0  0  0
   66.7920   28.0470  133.8450 C   0  0  0  0  0  0  0  0  0  0  0  0
   67.3130   26.9660  134.1290 O   0  0  0  0  0  0  0  0  0  0  0  0
   65.6800   28.1440  133.1180 N   0  0  0  0  0  0  0  0  0  0  0  0
   64.9920   26.9620  132.6040 C   0  0  2  0  0  0  0  0  0  0  0  0
   64.5590   27.1400  131.1480 C   0  0  0  0  0  0  0  0  0  0  0  0
   64.9260   28.1700  130.5390 O   0  5  0  0  0  0  0  0  0  0  0  0
   63.7730   26.6360  133.4760 C   0  0  0  0  0  0  0  0  0  0  0  0
   64.1670   26.2600  134.7860 O   0  0  0  0  0  0  0  0  0  0  0  0
   63.8630   26.2400  130.6320 O   0  0  0  0  0  0  0  0  0  0  0  0
   56.2327   24.6324  125.7335 H   0  0  0  0  0  0  0  0  0  0  0  0
   57.5712   25.3352  125.0824 H   0  0  0  0  0  0  0  0  0  0  0  0
   57.7211   23.9903  126.0197 H   0  0  0  0  0  0  0  0  0  0  0  0
   56.5519   22.6396  124.4156 H   0  0  0  0  0  0  0  0  0  0  0  0
   56.6516   25.1274  122.6459 H   0  0  0  0  0  0  0  0  0  0  0  0
   55.2094   24.6803  123.6188 H   0  0  0  0  0  0  0  0  0  0  0  0
   59.1234   24.9419  124.4929 H   0  0  0  0  0  0  0  0  0  0  0  0
   60.8797   23.0329  123.0496 H   0  0  0  0  0  0  0  0  0  0  0  0
   60.6251   26.0310  122.4467 H   0  0  0  0  0  0  0  0  0  0  0  0
   62.6076   25.7575  120.9988 H   0  0  0  0  0  0  0  0  0  0  0  0
   62.8069   24.0729  121.5896 H   0  0  0  0  0  0  0  0  0  0  0  0
   63.0078   25.4519  122.7231 H   0  0  0  0  0  0  0  0  0  0  0  0
   59.1355   24.4839  121.2029 H   0  0  0  0  0  0  0  0  0  0  0  0
   60.5654   23.5244  120.6919 H   0  0  0  0  0  0  0  0  0  0  0  0
   60.3715   25.2181  120.1260 H   0  0  0  0  0  0  0  0  0  0  0  0
   62.9771   22.9591  123.7813 H   0  0  0  0  0  0  0  0  0  0  0  0
   63.6034   24.6382  126.1594 H   0  0  0  0  0  0  0  0  0  0  0  0
   64.9203   22.5094  126.9129 H   0  0  0  0  0  0  0  0  0  0  0  0
   63.8680   21.6495  125.7381 H   0  0  0  0  0  0  0  0  0  0  0  0
   63.1915   20.3718  127.8536 H   0  0  0  0  0  0  0  0  0  0  0  0
   62.2858   24.5070  127.2435 H   0  0  0  0  0  0  0  0  0  0  0  0
   61.4390   20.2413  129.5926 H   0  0  0  0  0  0  0  0  0  0  0  0
   60.5330   24.3870  128.9790 H   0  0  0  0  0  0  0  0  0  0  0  0
   60.1043   22.2520  130.1603 H   0  0  0  0  0  0  0  0  0  0  0  0
   65.3584   25.7346  126.1168 H   0  0  0  0  0  0  0  0  0  0  0  0
   67.1319   26.7558  124.9669 H   0  0  0  0  0  0  0  0  0  0  0  0
   68.9699   26.2181  126.2059 H   0  0  0  0  0  0  0  0  0  0  0  0
   68.7434   24.4496  125.9874 H   0  0  0  0  0  0  0  0  0  0  0  0
   66.3046   23.7223  127.1881 H   0  0  0  0  0  0  0  0  0  0  0  0
   68.9772   26.8269  128.4205 H   0  0  0  0  0  0  0  0  0  0  0  0
   65.5639   23.4265  129.5251 H   0  0  0  0  0  0  0  0  0  0  0  0
   68.2424   26.5334  130.7602 H   0  0  0  0  0  0  0  0  0  0  0  0
   65.8079   24.0850  131.6217 H   0  0  0  0  0  0  0  0  0  0  0  0
   67.4580   23.5040  121.3550 H   0  0  0  0  0  0  0  0  0  0  0  0
   66.8956   24.8594  119.4123 H   0  0  0  0  0  0  0  0  0  0  0  0
   67.1345   26.3859  120.3285 H   0  0  0  0  0  0  0  0  0  0  0  0
   65.1228   24.1537  120.9057 H   0  0  0  0  0  0  0  0  0  0  0  0
   64.7692   25.8711  120.5154 H   0  0  0  0  0  0  0  0  0  0  0  0
   65.6476   26.6576  122.6046 H   0  0  0  0  0  0  0  0  0  0  0  0
   65.0112   25.0601  123.1237 H   0  0  0  0  0  0  0  0  0  0  0  0
   68.9680   26.7750  121.6601 H   0  0  0  0  0  0  0  0  0  0  0  0
   71.5539   25.3965  121.7838 H   0  0  0  0  0  0  0  0  0  0  0  0
   71.2478   27.5662  119.6922 H   0  0  0  0  0  0  0  0  0  0  0  0
   70.9357   25.8392  119.3091 H   0  0  0  0  0  0  0  0  0  0  0  0
   73.5668   27.2794  121.5796 H   0  0  0  0  0  0  0  0  0  0  0  0
   72.7365   25.2798  117.8875 H   0  0  0  0  0  0  0  0  0  0  0  0
   75.9935   26.9754  121.2077 H   0  0  0  0  0  0  0  0  0  0  0  0
   75.1654   24.9800  117.5042 H   0  0  0  0  0  0  0  0  0  0  0  0
   77.5640   26.1735  119.8299 H   0  0  0  0  0  0  0  0  0  0  0  0
   72.3093   30.1039  122.6476 H   0  0  0  0  0  0  0  0  0  0  0  0
   70.8225   31.9248  122.3390 H   0  0  0  0  0  0  0  0  0  0  0  0
   69.3761   30.9461  122.7593 H   0  0  0  0  0  0  0  0  0  0  0  0
   71.1199   30.7553  120.2522 H   0  0  0  0  0  0  0  0  0  0  0  0
   69.3500   31.0456  120.3525 H   0  0  0  0  0  0  0  0  0  0  0  0
   68.9249   28.8298  121.2086 H   0  0  0  0  0  0  0  0  0  0  0  0
   70.2138   28.5339  119.9929 H   0  0  0  0  0  0  0  0  0  0  0  0
   72.9180   30.3217  124.6300 H   0  0  0  0  0  0  0  0  0  0  0  0
   72.1233   28.7787  126.7816 H   0  0  0  0  0  0  0  0  0  0  0  0
   74.0785   29.6732  127.4099 H   0  0  0  0  0  0  0  0  0  0  0  0
   73.1387   31.0980  127.9699 H   0  0  0  0  0  0  0  0  0  0  0  0
   72.4438   32.6107  125.6701 H   0  0  0  0  0  0  0  0  0  0  0  0
   76.0073   30.3218  126.2890 H   0  0  0  0  0  0  0  0  0  0  0  0
   73.6238   34.0106  124.0125 H   0  0  0  0  0  0  0  0  0  0  0  0
   77.1923   31.7220  124.6342 H   0  0  0  0  0  0  0  0  0  0  0  0
   75.5377   34.3833  122.9613 H   0  0  0  0  0  0  0  0  0  0  0  0
   70.1538   28.6283  127.5941 H   0  0  0  0  0  0  0  0  0  0  0  0
   68.5868   31.0963  128.1370 H   0  0  0  0  0  0  0  0  0  0  0  0
   66.7303   29.5231  128.6290 H   0  0  0  0  0  0  0  0  0  0  0  0
   67.8396   28.1326  128.3793 H   0  0  0  0  0  0  0  0  0  0  0  0
   67.4310   29.2137  127.0042 H   0  0  0  0  0  0  0  0  0  0  0  0
   69.2767   32.0234  129.9698 H   0  0  0  0  0  0  0  0  0  0  0  0
   70.4406   30.6121  132.1840 H   0  0  0  0  0  0  0  0  0  0  0  0
   69.3236   33.4567  132.0273 H   0  0  0  0  0  0  0  0  0  0  0  0
   71.0039   32.9570  131.6351 H   0  0  0  0  0  0  0  0  0  0  0  0
   70.7852   33.7615  133.7870 H   0  0  0  0  0  0  0  0  0  0  0  0
   69.2473   29.1766  133.2581 H   0  0  0  0  0  0  0  0  0  0  0  0
   66.6247   30.1260  134.3359 H   0  0  0  0  0  0  0  0  0  0  0  0
   67.8115   29.2115  135.3268 H   0  0  0  0  0  0  0  0  0  0  0  0
   65.3062   29.0499  132.9188 H   0  0  0  0  0  0  0  0  0  0  0  0
   65.6906   26.1137  132.6515 H   0  0  0  0  0  0  0  0  0  0  0  0
   63.2146   25.8068  133.0171 H   0  0  0  0  0  0  0  0  0  0  0  0
   63.1268   27.5241  133.5364 H   0  0  0  0  0  0  0  0  0  0  0  0
   63.3949   26.0640  135.3037 H   0  0  0  0  0  0  0  0  0  0  0  0
  1  2  1  0  0  0  0
  1 99  1  0  0  0  0
  1100  1  0  0  0  0
  1101  1  0  0  0  0
  2  3  1  0  0  0  0
  2  5  1  0  0  0  0
  2102  1  1  0  0  0
  3  4  2  0  0  0  0
  3  9  1  0  0  0  0
  5  6  1  0  0  0  0
  5103  1  0  0  0  0
  5104  1  0  0  0  0
  6  7  1  0  0  0  0
  6  8  2  0  0  0  0
  9 10  1  0  0  0  0
  9105  1  0  0  0  0
 10 11  1  0  0  0  0
 10 13  1  0  0  0  0
 10106  1  6  0  0  0
 11 12  2  0  0  0  0
 11 16  1  0  0  0  0
 13 14  1  0  0  0  0
 13 15  1  0  0  0  0
 13107  1  0  0  0  0
 14108  1  0  0  0  0
 14109  1  0  0  0  0
 14110  1  0  0  0  0
 15111  1  0  0  0  0
 15112  1  0  0  0  0
 15113  1  0  0  0  0
 16 17  1  0  0  0  0
 16114  1  0  0  0  0
 17 18  1  0  0  0  0
 17 20  1  0  0  0  0
 17115  1  1  0  0  0
 18 19  2  0  0  0  0
 18 27  1  0  0  0  0
 20 21  1  0  0  0  0
 20116  1  0  0  0  0
 20117  1  0  0  0  0
 21 22  2  0  0  0  0
 21 23  1  0  0  0  0
 22 24  1  0  0  0  0
 22118  1  0  0  0  0
 23 25  2  0  0  0  0
 23119  1  0  0  0  0
 24 26  2  0  0  0  0
 24120  1  0  0  0  0
 25 26  1  0  0  0  0
 25121  1  0  0  0  0
 26122  1  0  0  0  0
 27 28  1  0  0  0  0
 27123  1  0  0  0  0
 28 29  1  0  0  0  0
 28 31  1  0  0  0  0
 28124  1  6  0  0  0
 29 30  2  0  0  0  0
 29 39  1  0  0  0  0
 31 32  1  0  0  0  0
 31125  1  0  0  0  0
 31126  1  0  0  0  0
 32 33  2  0  0  0  0
 32 34  1  0  0  0  0
 33 35  1  0  0  0  0
 33127  1  0  0  0  0
 34 36  2  0  0  0  0
 34128  1  0  0  0  0
 35 37  2  0  0  0  0
 35129  1  0  0  0  0
 36 37  1  0  0  0  0
 36130  1  0  0  0  0
 37 38  1  0  0  0  0
 38131  1  0  0  0  0
 39 40  1  0  0  0  0
 39 45  1  0  0  0  0
 40 41  1  0  0  0  0
 40 43  1  0  0  0  0
 40132  1  6  0  0  0
 41 42  2  0  0  0  0
 41 46  1  0  0  0  0
 43 44  1  0  0  0  0
 43133  1  0  0  0  0
 43134  1  0  0  0  0
 44 45  1  0  0  0  0
 44135  1  0  0  0  0
 44136  1  0  0  0  0
 45137  1  0  0  0  0
 45138  1  0  0  0  0
 46 47  1  0  0  0  0
 46139  1  0  0  0  0
 47 48  1  0  0  0  0
 47 50  1  0  0  0  0
 47140  1  1  0  0  0
 48 49  2  0  0  0  0
 48 58  1  0  0  0  0
 50 51  1  0  0  0  0
 50141  1  0  0  0  0
 50142  1  0  0  0  0
 51 52  2  0  0  0  0
 51 53  1  0  0  0  0
 52 54  1  0  0  0  0
 52143  1  0  0  0  0
 53 55  2  0  0  0  0
 53144  1  0  0  0  0
 54 56  2  0  0  0  0
 54145  1  0  0  0  0
 55 56  1  0  0  0  0
 55146  1  0  0  0  0
 56 57  1  0  0  0  0
 57147  1  0  0  0  0
 58 59  1  0  0  0  0
 58 64  1  0  0  0  0
 59 60  1  0  0  0  0
 59 62  1  0  0  0  0
 59148  1  6  0  0  0
 60 61  2  0  0  0  0
 60 65  1  0  0  0  0
 62 63  1  0  0  0  0
 62149  1  0  0  0  0
 62150  1  0  0  0  0
 63 64  1  0  0  0  0
 63151  1  0  0  0  0
 63152  1  0  0  0  0
 64153  1  0  0  0  0
 64154  1  0  0  0  0
 65 66  1  0  0  0  0
 65155  1  0  0  0  0
 66 67  1  0  0  0  0
 66 69  1  0  0  0  0
 66156  1  1  0  0  0
 67 68  2  0  0  0  0
 67 77  1  0  0  0  0
 69 70  1  0  0  0  0
 69157  1  0  0  0  0
 69158  1  0  0  0  0
 70 71  2  0  0  0  0
 70 72  1  0  0  0  0
 71 73  1  0  0  0  0
 71159  1  0  0  0  0
 72 74  2  0  0  0  0
 72160  1  0  0  0  0
 73 75  2  0  0  0  0
 73161  1  0  0  0  0
 74 75  1  0  0  0  0
 74162  1  0  0  0  0
 75 76  1  0  0  0  0
 76163  1  0  0  0  0
 77 78  1  0  0  0  0
 77164  1  0  0  0  0
 78 79  1  0  0  0  0
 78 81  1  0  0  0  0
 78165  1  6  0  0  0
 79 80  2  0  0  0  0
 79 82  1  0  0  0  0
 81166  1  0  0  0  0
 81167  1  0  0  0  0
 81168  1  0  0  0  0
 82 83  1  0  0  0  0
 82169  1  0  0  0  0
 83 84  1  0  0  0  0
 83 86  1  0  0  0  0
 83170  1  1  0  0  0
 84 85  2  0  0  0  0
 84 88  1  0  0  0  0
 86 87  1  0  0  0  0
 86171  1  0  0  0  0
 86172  1  0  0  0  0
 87173  1  0  0  0  0
 88 89  1  0  0  0  0
 88174  1  0  0  0  0
 89 90  1  0  0  0  0
 89175  1  0  0  0  0
 89176  1  0  0  0  0
 90 91  2  0  0  0  0
 90 92  1  0  0  0  0
 92 93  1  0  0  0  0
 92177  1  0  0  0  0
 93 94  1  0  0  0  0
 93 96  1  0  0  0  0
 93178  1  1  0  0  0
 94 95  1  0  0  0  0
 94 98  2  0  0  0  0
 96 97  1  0  0  0  0
 96179  1  0  0  0  0
 96180  1  0  0  0  0
 97181  1  0  0  0  0
M  CHG  3   1   1   7  -1  95  -1
M  END
