1k06_ligand
 OpenBabel08222323343D

 41 42  0  0  1  0  0  0  0  0999 V2000
   33.1100   21.5100   28.3840 O   0  0  0  0  0  0  0  0  0  0  0  0
   33.2740   22.9230   28.0680 C   0  0  2  0  0  0  0  0  0  0  0  0
   33.7430   23.1030   26.5760 C   0  0  2  0  0  0  0  0  0  0  0  0
   33.9270   24.4960   26.2810 O   0  0  0  0  0  0  0  0  0  0  0  0
   32.6530   22.4710   25.6550 C   0  0  1  0  0  0  0  0  0  0  0  0
   33.0420   22.6130   24.2810 O   0  0  0  0  0  0  0  0  0  0  0  0
   32.5080   20.9830   26.0360 C   0  0  2  0  0  0  0  0  0  0  0  0
   31.5000   20.3850   25.2030 O   0  0  0  0  0  0  0  0  0  0  0  0
   32.1280   20.8610   27.5430 C   0  0  1  0  0  0  0  0  0  0  0  0
   32.0230   19.3760   27.9840 C   0  0  0  0  0  0  0  0  0  0  0  0
   33.2020   18.6690   27.5350 O   0  0  0  0  0  0  0  0  0  0  0  0
   34.2330   23.4910   29.0030 N   0  0  0  0  0  0  0  0  0  0  0  0
   33.8060   24.1330   30.1390 C   0  0  0  0  0  0  0  0  0  0  0  0
   32.5820   24.2130   30.3440 O   0  0  0  0  0  0  0  0  0  0  0  0
   34.7020   24.6680   31.0290 N   0  0  0  0  0  0  0  0  0  0  0  0
   34.3990   25.3220   32.2000 C   0  0  0  0  0  0  0  0  0  0  0  0
   33.2410   25.5190   32.5960 O   0  0  0  0  0  0  0  0  0  0  0  0
   35.5240   25.8380   33.0700 C   0  0  0  0  0  0  0  0  0  0  0  0
   36.7620   26.2740   32.5040 C   0  0  0  0  0  0  0  0  0  0  0  0
   37.8070   26.7480   33.3380 C   0  0  0  0  0  0  0  0  0  0  0  0
   37.6230   26.7940   34.7600 C   0  0  0  0  0  0  0  0  0  0  0  0
   36.3950   26.3610   35.3350 C   0  0  0  0  0  0  0  0  0  0  0  0
   35.3490   25.8850   34.4950 C   0  0  0  0  0  0  0  0  0  0  0  0
   32.3084   23.4346   28.1936 H   0  0  0  0  0  0  0  0  0  0  0  0
   34.6975   22.5779   26.4241 H   0  0  0  0  0  0  0  0  0  0  0  0
   33.1059   24.9566   26.4079 H   0  0  0  0  0  0  0  0  0  0  0  0
   31.6926   22.9837   25.8121 H   0  0  0  0  0  0  0  0  0  0  0  0
   33.1355   23.5352   24.0732 H   0  0  0  0  0  0  0  0  0  0  0  0
   33.4657   20.4690   25.8669 H   0  0  0  0  0  0  0  0  0  0  0  0
   30.6733   20.8333   25.3369 H   0  0  0  0  0  0  0  0  0  0  0  0
   31.1525   21.3467   27.6930 H   0  0  0  0  0  0  0  0  0  0  0  0
   31.1270   18.9206   27.5371 H   0  0  0  0  0  0  0  0  0  0  0  0
   31.9545   19.3205   29.0804 H   0  0  0  0  0  0  0  0  0  0  0  0
   33.9740   19.0654   27.9216 H   0  0  0  0  0  0  0  0  0  0  0  0
   35.2124   23.4131   28.8165 H   0  0  0  0  0  0  0  0  0  0  0  0
   35.6717   24.5730   30.8040 H   0  0  0  0  0  0  0  0  0  0  0  0
   36.9033   26.2422   31.4297 H   0  0  0  0  0  0  0  0  0  0  0  0
   38.7437   27.0751   32.9013 H   0  0  0  0  0  0  0  0  0  0  0  0
   38.4202   27.1590   35.3974 H   0  0  0  0  0  0  0  0  0  0  0  0
   36.2567   26.3936   36.4097 H   0  0  0  0  0  0  0  0  0  0  0  0
   34.4140   25.5557   34.9337 H   0  0  0  0  0  0  0  0  0  0  0  0
  1  2  1  0  0  0  0
  1  9  1  0  0  0  0
  2  3  1  0  0  0  0
  2 12  1  0  0  0  0
  2 24  1  1  0  0  0
  3  4  1  0  0  0  0
  3  5  1  0  0  0  0
  3 25  1  6  0  0  0
  4 26  1  0  0  0  0
  5  6  1  0  0  0  0
  5  7  1  0  0  0  0
  5 27  1  1  0  0  0
  6 28  1  0  0  0  0
  7  8  1  0  0  0  0
  7  9  1  0  0  0  0
  7 29  1  6  0  0  0
  8 30  1  0  0  0  0
  9 10  1  0  0  0  0
  9 31  1  1  0  0  0
 10 11  1  0  0  0  0
 10 32  1  0  0  0  0
 10 33  1  0  0  0  0
 11 34  1  0  0  0  0
 12 13  1  0  0  0  0
 12 35  1  0  0  0  0
 13 14  2  0  0  0  0
 13 15  1  0  0  0  0
 15 16  1  0  0  0  0
 15 36  1  0  0  0  0
 16 17  2  0  0  0  0
 16 18  1  0  0  0  0
 18 19  2  0  0  0  0
 18 23  1  0  0  0  0
 19 20  1  0  0  0  0
 19 37  1  0  0  0  0
 20 21  2  0  0  0  0
 20 38  1  0  0  0  0
 21 22  1  0  0  0  0
 21 39  1  0  0  0  0
 22 23  2  0  0  0  0
 22 40  1  0  0  0  0
 23 41  1  0  0  0  0
M  END
