1k1p_ligand
 OpenBabel08222323343D

 63 65  0  0  1  0  0  0  0  0999 V2000
   40.2620   24.9760   55.8330 C   0  0  0  0  0  0  0  0  0  0  0  0
   39.0840   25.9120   55.3820 C   0  0  0  0  0  0  0  0  0  0  0  0
   37.7310   25.3530   55.9250 C   0  0  0  0  0  0  0  0  0  0  0  0
   37.7780   25.2940   57.4640 C   0  0  0  0  0  0  0  0  0  0  0  0
   38.9620   24.4070   57.9160 C   0  0  0  0  0  0  0  0  0  0  0  0
   40.3050   24.9610   57.3840 C   0  0  0  0  0  0  0  0  0  0  0  0
   42.7580   25.0960   56.0500 N   0  3  0  0  0  0  0  0  0  0  0  0
   41.6120   25.2920   55.1120 C   0  0  1  0  0  0  0  0  0  0  0  0
   41.7490   24.4670   53.8410 C   0  0  0  0  0  0  0  0  0  0  0  0
   42.3380   23.4110   53.8620 O   0  0  0  0  0  0  0  0  0  0  0  0
   41.0590   24.8760   52.7780 N   0  0  0  0  0  0  0  0  0  0  0  0
   41.3670   24.3570   51.3970 C   0  0  2  0  0  0  0  0  0  0  0  0
   42.8260   23.8700   51.1850 C   0  0  0  0  0  0  0  0  0  0  0  0
   43.7430   24.6850   51.3900 O   0  0  0  0  0  0  0  0  0  0  0  0
   43.0530   22.6320   50.7290 N   0  0  0  0  0  0  0  0  0  0  0  0
   44.4260   22.1590   50.4740 C   0  0  0  0  0  0  0  0  0  0  0  0
   44.7950   21.0400   51.4280 C   0  0  0  0  0  0  0  0  0  0  0  0
   45.0830   21.3600   52.7650 C   0  0  0  0  0  0  0  0  0  0  0  0
   45.4330   20.3360   53.6710 C   0  0  0  0  0  0  0  0  0  0  0  0
   45.5050   18.9900   53.2470 C   0  0  0  0  0  0  0  0  0  0  0  0
   45.2370   18.6750   51.9070 C   0  0  0  0  0  0  0  0  0  0  0  0
   44.8830   19.6920   51.0110 C   0  0  0  0  0  0  0  0  0  0  0  0
   45.8740   17.9020   54.2140 C   0  0  0  0  0  3  0  0  0  0  0  0
   46.6570   18.1780   55.2140 N   0  0  0  0  0  0  0  0  0  0  0  0
   45.4050   16.6840   54.0250 N   0  0  0  0  0  0  0  0  0  0  0  0
   41.0450   25.7450   50.8200 C   0  0  0  0  0  0  0  0  0  0  0  0
   41.2710   26.2580   52.2740 C   0  0  0  0  0  0  0  0  0  0  0  0
   44.0940   25.5280   55.5730 C   0  0  0  0  0  0  0  0  0  0  0  0
   45.2120   25.1060   56.4780 C   0  0  0  0  0  0  0  0  0  0  0  0
   45.0270   25.1420   57.7020 O   0  5  0  0  0  0  0  0  0  0  0  0
   46.3050   24.7400   55.9750 O   0  0  0  0  0  0  0  0  0  0  0  0
   39.9966   23.9551   55.5210 H   0  0  0  0  0  0  0  0  0  0  0  0
   39.0486   25.9519   54.2833 H   0  0  0  0  0  0  0  0  0  0  0  0
   39.2478   26.9241   55.7806 H   0  0  0  0  0  0  0  0  0  0  0  0
   37.5653   24.3420   55.5246 H   0  0  0  0  0  0  0  0  0  0  0  0
   36.9090   26.0120   55.6087 H   0  0  0  0  0  0  0  0  0  0  0  0
   36.8370   24.8683   57.8425 H   0  0  0  0  0  0  0  0  0  0  0  0
   37.9084   26.3099   57.8650 H   0  0  0  0  0  0  0  0  0  0  0  0
   38.8154   23.3874   57.5300 H   0  0  0  0  0  0  0  0  0  0  0  0
   38.9935   24.3820   59.0153 H   0  0  0  0  0  0  0  0  0  0  0  0
   40.4574   25.9837   57.7593 H   0  0  0  0  0  0  0  0  0  0  0  0
   41.1304   24.3186   57.7245 H   0  0  0  0  0  0  0  0  0  0  0  0
   42.8135   24.1122   56.2623 H   0  0  0  0  0  0  0  0  0  0  0  0
   42.5540   25.6105   56.8924 H   0  0  0  0  0  0  0  0  0  0  0  0
   41.6000   26.3521   54.8187 H   0  0  0  0  0  0  0  0  0  0  0  0
   40.6789   23.5686   51.0580 H   0  0  0  0  0  0  0  0  0  0  0  0
   42.2809   22.0197   50.5590 H   0  0  0  0  0  0  0  0  0  0  0  0
   45.1270   22.9955   50.6108 H   0  0  0  0  0  0  0  0  0  0  0  0
   44.4940   21.7889   49.4404 H   0  0  0  0  0  0  0  0  0  0  0  0
   45.0366   22.3900   53.0998 H   0  0  0  0  0  0  0  0  0  0  0  0
   45.6490   20.5849   54.7037 H   0  0  0  0  0  0  0  0  0  0  0  0
   45.3035   17.6483   51.5658 H   0  0  0  0  0  0  0  0  0  0  0  0
   44.6724   19.4405   49.9778 H   0  0  0  0  0  0  0  0  0  0  0  0
   46.9169   17.4398   55.8836 H   0  0  0  0  0  0  0  0  0  0  0  0
   47.0176   19.1349   55.3369 H   0  0  0  0  0  0  0  0  0  0  0  0
   44.7859   16.4889   53.2253 H   0  0  0  0  0  0  0  0  0  0  0  0
   45.6578   15.9278   54.6771 H   0  0  0  0  0  0  0  0  0  0  0  0
   40.0214   25.8655   50.4357 H   0  0  0  0  0  0  0  0  0  0  0  0
   41.7627   26.1196   50.0754 H   0  0  0  0  0  0  0  0  0  0  0  0
   42.2791   26.6568   52.4603 H   0  0  0  0  0  0  0  0  0  0  0  0
   40.5199   26.9842   52.6182 H   0  0  0  0  0  0  0  0  0  0  0  0
   44.1002   26.6255   55.4990 H   0  0  0  0  0  0  0  0  0  0  0  0
   44.2671   25.0923   54.5779 H   0  0  0  0  0  0  0  0  0  0  0  0
  1  2  1  0  0  0  0
  1  6  1  0  0  0  0
  1  8  1  0  0  0  0
  1 32  1  0  0  0  0
  2  3  1  0  0  0  0
  2 33  1  0  0  0  0
  2 34  1  0  0  0  0
  3  4  1  0  0  0  0
  3 35  1  0  0  0  0
  3 36  1  0  0  0  0
  4  5  1  0  0  0  0
  4 37  1  0  0  0  0
  4 38  1  0  0  0  0
  5  6  1  0  0  0  0
  5 39  1  0  0  0  0
  5 40  1  0  0  0  0
  6 41  1  0  0  0  0
  6 42  1  0  0  0  0
  7 28  1  0  0  0  0
  7 43  1  0  0  0  0
  7 44  1  0  0  0  0
  8  7  1  0  0  0  0
  8  9  1  0  0  0  0
  8 45  1  6  0  0  0
  9 10  2  0  0  0  0
  9 11  1  0  0  0  0
 11 12  1  0  0  0  0
 11 27  1  0  0  0  0
 12 13  1  0  0  0  0
 12 26  1  0  0  0  0
 12 46  1  6  0  0  0
 13 14  2  0  0  0  0
 13 15  1  0  0  0  0
 15 16  1  0  0  0  0
 15 47  1  0  0  0  0
 16 17  1  0  0  0  0
 16 48  1  0  0  0  0
 16 49  1  0  0  0  0
 17 18  2  0  0  0  0
 17 22  1  0  0  0  0
 18 19  1  0  0  0  0
 18 50  1  0  0  0  0
 19 20  2  0  0  0  0
 19 51  1  0  0  0  0
 20 21  1  0  0  0  0
 20 23  1  0  0  0  0
 21 22  2  0  0  0  0
 21 52  1  0  0  0  0
 22 53  1  0  0  0  0
 23 24  1  0  0  0  0
 23 25  1  0  0  0  0
 24 54  1  0  0  0  0
 24 55  1  0  0  0  0
 25 56  1  0  0  0  0
 25 57  1  0  0  0  0
 26 27  1  0  0  0  0
 26 58  1  0  0  0  0
 26 59  1  0  0  0  0
 27 60  1  0  0  0  0
 27 61  1  0  0  0  0
 28 29  1  0  0  0  0
 28 62  1  0  0  0  0
 28 63  1  0  0  0  0
 29 30  1  0  0  0  0
 29 31  2  0  0  0  0
M  CHG  2   7   1  30  -1
M  END
