1k2i_ligand
 OpenBabel08222323343D

 20 20  0  0  0  0  0  0  0  0999 V2000
   27.6610    1.8660   38.5860 C   0  0  0  0  0  0  0  0  0  0  0  0
   26.9660    2.7040   39.3520 C   0  0  0  0  0  0  0  0  0  0  0  0
   27.0890    2.9510   40.7920 C   0  0  0  0  0  0  0  0  0  0  0  0
   26.6240    4.1620   41.3260 C   0  0  0  0  0  0  0  0  0  0  0  0
   26.7160    4.3990   42.6790 C   0  0  0  0  0  0  0  0  0  0  0  0
   27.6540    2.0020   41.6360 C   0  0  0  0  0  0  0  0  0  0  0  0
   27.7440    2.2420   43.0020 C   0  0  0  0  0  0  0  0  0  0  0  0
   27.2690    3.4470   43.5130 C   0  0  0  0  0  0  0  0  0  0  0  0
   27.3370    3.7200   44.8580 O   0  0  0  0  0  0  0  0  0  0  0  0
   26.0660    5.1130   40.5050 O   0  0  0  0  0  0  0  0  0  0  0  0
   27.3410    1.7760   37.1560 C   0  0  0  0  0  0  0  0  0  0  0  0
   26.9590    0.7370   36.6120 O   0  0  0  0  0  0  0  0  0  0  0  0
   28.4553    1.2561   39.0138 H   0  0  0  0  0  0  0  0  0  0  0  0
   26.2015    3.2856   38.8389 H   0  0  0  0  0  0  0  0  0  0  0  0
   26.3539    5.3342   43.0904 H   0  0  0  0  0  0  0  0  0  0  0  0
   28.0264    1.0699   41.2266 H   0  0  0  0  0  0  0  0  0  0  0  0
   28.1788    1.4999   43.6618 H   0  0  0  0  0  0  0  0  0  0  0  0
   28.2446    3.7025   45.1380 H   0  0  0  0  0  0  0  0  0  0  0  0
   26.5678    5.9173   40.5672 H   0  0  0  0  0  0  0  0  0  0  0  0
   27.4462    2.6713   36.5450 H   0  0  0  0  0  0  0  0  0  0  0  0
  1  2  2  0  0  0  0
  1 11  1  0  0  0  0
  1 13  1  0  0  0  0
  2  3  1  0  0  0  0
  2 14  1  0  0  0  0
  3  4  2  0  0  0  0
  3  6  1  0  0  0  0
  4  5  1  0  0  0  0
  4 10  1  0  0  0  0
  5  8  2  0  0  0  0
  5 15  1  0  0  0  0
  6  7  2  0  0  0  0
  6 16  1  0  0  0  0
  7  8  1  0  0  0  0
  7 17  1  0  0  0  0
  8  9  1  0  0  0  0
  9 18  1  0  0  0  0
 10 19  1  0  0  0  0
 11 12  2  0  0  0  0
 11 20  1  0  0  0  0
M  END
