1k3n_ligand
 OpenBabel08222323343D

220222  0  0  1  0  0  0  0  0999 V2000
   -9.3640  -26.7210  -10.1300 N   0  3  0  0  0  0  0  0  0  0  0  0
   -9.8410  -26.0320  -11.3600 C   0  0  2  0  0  0  0  0  0  0  0  0
   -8.8300  -26.1700  -12.4940 C   0  0  0  0  0  0  0  0  0  0  0  0
   -7.6500  -26.4340  -12.2600 O   0  0  0  0  0  0  0  0  0  0  0  0
  -10.0720  -24.5560  -11.0320 C   0  0  0  0  0  0  0  0  0  0  0  0
  -11.5040  -24.2390  -10.6340 C   0  0  0  0  0  0  0  0  0  0  0  0
  -11.6110  -22.8710   -9.9810 C   0  0  0  0  0  0  0  0  0  0  0  0
  -12.8730  -22.1440  -10.4140 C   0  0  0  0  0  0  0  0  0  0  0  0
  -12.7240  -20.6650  -10.3140 N   0  3  0  0  0  0  0  0  0  0  0  0
   -9.3010  -25.9860  -13.7240 N   0  0  0  0  0  0  0  0  0  0  0  0
   -8.4400  -26.0890  -14.8960 C   0  0  2  0  0  0  0  0  0  0  0  0
   -8.9880  -25.2540  -16.0480 C   0  0  0  0  0  0  0  0  0  0  0  0
  -10.0470  -25.5560  -16.5980 O   0  0  0  0  0  0  0  0  0  0  0  0
   -8.3050  -27.5510  -15.3280 C   0  0  0  0  0  0  0  0  0  0  0  0
   -7.0880  -28.2500  -14.7420 C   0  0  0  0  0  0  0  0  0  0  0  0
   -6.1060  -28.6670  -15.8250 C   0  0  0  0  0  0  0  0  0  0  0  0
   -4.6680  -28.3980  -15.4100 C   0  0  0  0  0  0  0  0  0  0  0  0
   -4.1360  -27.1520  -16.0250 N   0  3  0  0  0  0  0  0  0  0  0  0
   -8.2610  -24.2010  -16.4090 N   0  0  0  0  0  0  0  0  0  0  0  0
   -8.6750  -23.3230  -17.4950 C   0  0  2  0  0  0  0  0  0  0  0  0
   -7.4620  -22.7720  -18.2420 C   0  0  0  0  0  0  0  0  0  0  0  0
   -6.3190  -23.0320  -17.8650 O   0  0  0  0  0  0  0  0  0  0  0  0
   -9.5220  -22.1700  -16.9520 C   0  0  0  0  0  0  0  0  0  0  0  0
  -10.7530  -21.8710  -17.7930 C   0  0  0  0  0  0  0  0  0  0  0  0
  -10.8940  -20.1260  -18.2310 S   0  0  0  0  0  0  0  0  0  0  0  0
  -12.3330  -19.6510  -17.2780 C   0  0  0  0  0  0  0  0  0  0  0  0
   -7.7200  -22.0120  -19.3000 N   0  0  0  0  0  0  0  0  0  0  0  0
   -6.6490  -21.4250  -20.0990 C   0  0  2  0  0  0  0  0  0  0  0  0
   -6.3060  -20.0250  -19.6020 C   0  0  0  0  0  0  0  0  0  0  0  0
   -7.1690  -19.3040  -19.1020 O   0  0  0  0  0  0  0  0  0  0  0  0
   -7.0540  -21.3710  -21.5730 C   0  0  2  0  0  0  0  0  0  0  0  0
   -7.8560  -22.4870  -21.9140 O   0  0  0  0  0  0  0  0  0  0  0  0
   -5.8710  -21.3500  -22.5170 C   0  0  0  0  0  0  0  0  0  0  0  0
   -5.0400  -19.6460  -19.7450 N   0  0  0  0  0  0  0  0  0  0  0  0
   -4.5820  -18.3310  -19.3110 C   0  0  2  0  0  0  0  0  0  0  0  0
   -5.2310  -17.2280  -20.1410 C   0  0  0  0  0  0  0  0  0  0  0  0
   -5.7720  -17.4830  -21.2170 O   0  0  0  0  0  0  0  0  0  0  0  0
   -3.0600  -18.2370  -19.4170 C   0  0  0  0  0  0  0  0  0  0  0  0
   -2.5170  -18.7290  -20.7290 C   0  0  0  0  0  0  0  0  0  0  0  0
   -2.8120  -18.0650  -21.9090 C   0  0  0  0  0  0  0  0  0  0  0  0
   -1.7110  -19.8540  -20.7810 C   0  0  0  0  0  0  0  0  0  0  0  0
   -2.3130  -18.5160  -23.1170 C   0  0  0  0  0  0  0  0  0  0  0  0
   -1.2080  -20.3090  -21.9870 C   0  0  0  0  0  0  0  0  0  0  0  0
   -1.5110  -19.6390  -23.1560 C   0  0  0  0  0  0  0  0  0  0  0  0
   -5.1720  -16.0010  -19.6330 N   0  0  0  0  0  0  0  0  0  0  0  0
   -5.7530  -14.8570  -20.3270 C   0  0  2  0  0  0  0  0  0  0  0  0
   -4.6730  -14.0380  -21.0260 C   0  0  0  0  0  0  0  0  0  0  0  0
   -4.6890  -13.8840  -22.2470 O   0  0  0  0  0  0  0  0  0  0  0  0
   -6.5220  -13.9750  -19.3430 C   0  0  0  0  0  0  0  0  0  0  0  0
   -7.5290  -13.0530  -20.0120 C   0  0  0  0  0  0  0  0  0  0  0  0
   -8.7070  -12.7280  -19.1110 C   0  0  0  0  0  0  0  0  0  0  0  0
   -8.9640  -11.5640  -18.8040 O   0  0  0  0  0  0  0  0  0  0  0  0
   -9.4280  -13.7570  -18.6870 N   0  0  0  0  0  0  0  0  0  0  0  0
   -3.7350  -13.5160  -20.2430 N   0  0  0  0  0  0  0  0  0  0  0  0
   -2.6460  -12.7120  -20.7850 C   0  0  1  0  0  0  0  0  0  0  0  0
   -2.5180  -11.3680  -20.0390 C   0  0  1  0  0  0  0  0  0  0  0  0
   -1.3630  -10.5440  -20.5890 C   0  0  0  0  0  0  0  0  0  0  0  0
   -3.7100  -10.6390  -20.1610 O   0  0  0  0  0  0  0  0  0  0  0  0
   -4.2150   -9.8440  -18.9170 P   0  0  0  0  0  0  0  0  0  0  0  0
   -5.6020   -9.2940  -19.3390 O   0  0  0  0  0  1  0  0  0  0  0  0
   -4.4080  -10.9170  -17.8160 O   0  0  0  0  0  1  0  0  0  0  0  0
   -3.2660   -8.7570  -18.5030 O   0  0  0  0  0  0  0  0  0  0  0  0
   -1.3200  -13.4650  -20.6960 C   0  0  0  0  0  0  0  0  0  0  0  0
   -0.6500  -13.4370  -19.6630 O   0  0  0  0  0  0  0  0  0  0  0  0
   -0.9200  -14.1520  -21.7820 N   0  0  0  0  0  0  0  0  0  0  0  0
    0.3350  -14.9130  -21.8140 C   0  0  2  0  0  0  0  0  0  0  0  0
    1.5610  -14.0100  -21.7340 C   0  0  0  0  0  0  0  0  0  0  0  0
    2.0820  -13.5610  -22.7560 O   0  0  0  0  0  0  0  0  0  0  0  0
    0.2850  -15.6340  -23.1640 C   0  0  0  0  0  0  0  0  0  0  0  0
   -0.6340  -14.8160  -24.0010 C   0  0  0  0  0  0  0  0  0  0  0  0
   -1.6530  -14.2430  -23.0580 C   0  0  0  0  0  0  0  0  0  0  0  0
    2.0210  -13.7500  -20.5150 N   0  0  0  0  0  0  0  0  0  0  0  0
    3.1870  -12.9020  -20.3010 C   0  0  2  0  0  0  0  0  0  0  0  0
    4.4770  -13.6870  -20.5140 C   0  0  0  0  0  0  0  0  0  0  0  0
    4.7080  -14.7080  -19.8670 O   0  0  0  0  0  0  0  0  0  0  0  0
    3.1640  -12.3130  -18.8900 C   0  0  2  0  0  0  0  0  0  0  0  0
    1.9390  -11.6440  -18.6460 O   0  0  0  0  0  0  0  0  0  0  0  0
    4.2850  -11.3270  -18.6340 C   0  0  0  0  0  0  0  0  0  0  0  0
    5.3160  -13.2030  -21.4250 N   0  0  0  0  0  0  0  0  0  0  0  0
    6.5820  -13.8610  -21.7220 C   0  0  2  0  0  0  0  0  0  0  0  0
    7.4650  -13.9300  -20.4750 C   0  0  0  0  0  0  0  0  0  0  0  0
    7.7160  -12.9130  -19.8300 O   0  0  0  0  0  0  0  0  0  0  0  0
    7.3160  -13.1150  -22.8390 C   0  0  0  0  0  0  0  0  0  0  0  0
    6.6530  -13.2980  -24.1890 C   0  0  0  0  0  0  0  0  0  0  0  0
    6.2360  -14.4340  -24.4970 O   0  5  0  0  0  0  0  0  0  0  0  0
    6.5500  -12.3040  -24.9390 O   0  0  0  0  0  0  0  0  0  0  0  0
    7.9500  -15.1340  -20.1170 N   0  0  0  0  0  0  0  0  0  0  0  0
    8.8050  -15.3160  -18.9390 C   0  0  2  0  0  0  0  0  0  0  0  0
   10.0120  -14.3850  -18.9520 C   0  0  0  0  0  0  0  0  0  0  0  0
   10.9520  -14.5830  -19.7220 O   0  0  0  0  0  0  0  0  0  0  0  0
    9.2560  -16.7750  -19.0460 C   0  0  0  0  0  0  0  0  0  0  0  0
    8.1980  -17.4430  -19.8560 C   0  0  0  0  0  0  0  0  0  0  0  0
    7.7070  -16.4040  -20.8250 C   0  0  0  0  0  0  0  0  0  0  0  0
    9.9800  -13.3710  -18.0940 N   0  0  0  0  0  0  0  0  0  0  0  0
   11.0720  -12.4080  -18.0070 C   0  0  2  0  0  0  0  0  0  0  0  0
   10.8610  -11.4480  -16.8410 C   0  0  0  0  0  0  0  0  0  0  0  0
    9.8760  -11.5480  -16.1110 O   0  0  0  0  0  0  0  0  0  0  0  0
   11.1910  -11.6220  -19.3140 C   0  0  0  0  0  0  0  0  0  0  0  0
    9.9790  -10.7550  -19.6620 C   0  0  0  0  0  0  0  0  0  0  0  0
   10.1850   -9.3280  -19.1740 C   0  0  0  0  0  0  0  0  0  0  0  0
    9.7200  -10.7740  -21.1610 C   0  0  0  0  0  0  0  0  0  0  0  0
   11.7930  -10.5150  -16.6740 N   0  0  0  0  0  0  0  0  0  0  0  0
   11.7080   -9.5350  -15.5970 C   0  0  2  0  0  0  0  0  0  0  0  0
   12.2250   -8.1760  -16.0570 C   0  0  0  0  0  0  0  0  0  0  0  0
   13.3560   -8.1210  -16.5850 O   0  5  0  0  0  0  0  0  0  0  0  0
   12.5060  -10.0130  -14.3810 C   0  0  0  0  0  0  0  0  0  0  0  0
   11.6620  -10.7490  -13.3530 C   0  0  0  0  0  0  0  0  0  0  0  0
   11.2920   -9.8790  -12.1680 C   0  0  0  0  0  0  0  0  0  0  0  0
   12.1680   -9.1260  -11.6880 O   0  5  0  0  0  0  0  0  0  0  0  0
   10.1280   -9.9470  -11.7220 O   0  0  0  0  0  0  0  0  0  0  0  0
   11.4940   -7.1780  -15.8860 O   0  0  0  0  0  0  0  0  0  0  0  0
  -10.0490  -26.6146   -9.3982 H   0  0  0  0  0  0  0  0  0  0  0  0
   -8.4905  -26.3142   -9.8343 H   0  0  0  0  0  0  0  0  0  0  0  0
   -9.2296  -27.7009  -10.3244 H   0  0  0  0  0  0  0  0  0  0  0  0
  -10.7916  -26.4845  -11.6786 H   0  0  0  0  0  0  0  0  0  0  0  0
   -9.8172  -23.9583  -11.9196 H   0  0  0  0  0  0  0  0  0  0  0  0
   -9.4096  -24.2768  -10.1994 H   0  0  0  0  0  0  0  0  0  0  0  0
  -11.8549  -25.0023   -9.9240 H   0  0  0  0  0  0  0  0  0  0  0  0
  -12.1371  -24.2561  -11.5334 H   0  0  0  0  0  0  0  0  0  0  0  0
  -10.7359  -22.2690  -10.2670 H   0  0  0  0  0  0  0  0  0  0  0  0
  -11.6282  -22.9969   -8.8884 H   0  0  0  0  0  0  0  0  0  0  0  0
  -13.7056  -22.4619   -9.7693 H   0  0  0  0  0  0  0  0  0  0  0  0
  -13.0958  -22.4092  -11.4580 H   0  0  0  0  0  0  0  0  0  0  0  0
  -13.5793  -20.2205  -10.6089 H   0  0  0  0  0  0  0  0  0  0  0  0
  -11.9666  -20.3628  -10.9065 H   0  0  0  0  0  0  0  0  0  0  0  0
  -12.5254  -20.4111   -9.3589 H   0  0  0  0  0  0  0  0  0  0  0  0
  -10.2698  -25.7717  -13.8481 H   0  0  0  0  0  0  0  0  0  0  0  0
   -7.4431  -25.7071  -14.6308 H   0  0  0  0  0  0  0  0  0  0  0  0
   -8.2300  -27.5838  -16.4249 H   0  0  0  0  0  0  0  0  0  0  0  0
   -9.2061  -28.0934  -15.0056 H   0  0  0  0  0  0  0  0  0  0  0  0
   -7.4192  -29.1459  -14.1965 H   0  0  0  0  0  0  0  0  0  0  0  0
   -6.5824  -27.5635  -14.0470 H   0  0  0  0  0  0  0  0  0  0  0  0
   -6.3246  -28.1009  -16.7424 H   0  0  0  0  0  0  0  0  0  0  0  0
   -6.2258  -29.7428  -16.0206 H   0  0  0  0  0  0  0  0  0  0  0  0
   -4.0423  -29.2456  -15.7262 H   0  0  0  0  0  0  0  0  0  0  0  0
   -4.6264  -28.2998  -14.3152 H   0  0  0  0  0  0  0  0  0  0  0  0
   -3.1839  -27.0098  -15.7261 H   0  0  0  0  0  0  0  0  0  0  0  0
   -4.6994  -26.3677  -15.7363 H   0  0  0  0  0  0  0  0  0  0  0  0
   -4.1642  -27.2344  -17.0292 H   0  0  0  0  0  0  0  0  0  0  0  0
   -7.4089  -24.0070  -15.9229 H   0  0  0  0  0  0  0  0  0  0  0  0
   -9.2852  -23.9057  -18.2008 H   0  0  0  0  0  0  0  0  0  0  0  0
   -8.8968  -21.2656  -16.9168 H   0  0  0  0  0  0  0  0  0  0  0  0
   -9.8504  -22.4287  -15.9345 H   0  0  0  0  0  0  0  0  0  0  0  0
  -11.6473  -22.1637  -17.2234 H   0  0  0  0  0  0  0  0  0  0  0  0
  -10.6982  -22.4623  -18.7189 H   0  0  0  0  0  0  0  0  0  0  0  0
  -12.5488  -18.5856  -17.4462 H   0  0  0  0  0  0  0  0  0  0  0  0
  -12.1374  -19.8212  -16.2090 H   0  0  0  0  0  0  0  0  0  0  0  0
  -13.1971  -20.2543  -17.5933 H   0  0  0  0  0  0  0  0  0  0  0  0
   -8.6710  -21.8377  -19.5554 H   0  0  0  0  0  0  0  0  0  0  0  0
   -5.7552  -22.0589  -20.0030 H   0  0  0  0  0  0  0  0  0  0  0  0
   -7.6380  -20.4518  -21.7278 H   0  0  0  0  0  0  0  0  0  0  0  0
   -8.0962  -22.4344  -22.8316 H   0  0  0  0  0  0  0  0  0  0  0  0
   -6.2313  -21.3112  -23.5556 H   0  0  0  0  0  0  0  0  0  0  0  0
   -5.2694  -22.2593  -22.3713 H   0  0  0  0  0  0  0  0  0  0  0  0
   -5.2525  -20.4642  -22.3102 H   0  0  0  0  0  0  0  0  0  0  0  0
   -4.3856  -20.2779  -20.1603 H   0  0  0  0  0  0  0  0  0  0  0  0
   -4.8702  -18.1919  -18.2586 H   0  0  0  0  0  0  0  0  0  0  0  0
   -2.6173  -18.8389  -18.6097 H   0  0  0  0  0  0  0  0  0  0  0  0
   -2.7670  -17.1841  -19.2923 H   0  0  0  0  0  0  0  0  0  0  0  0
   -3.4408  -17.1824  -21.8847 H   0  0  0  0  0  0  0  0  0  0  0  0
   -1.4714  -20.3842  -19.8664 H   0  0  0  0  0  0  0  0  0  0  0  0
   -2.5514  -17.9880  -24.0332 H   0  0  0  0  0  0  0  0  0  0  0  0
   -0.5770  -21.1900  -22.0142 H   0  0  0  0  0  0  0  0  0  0  0  0
   -1.1198  -19.9943  -24.1025 H   0  0  0  0  0  0  0  0  0  0  0  0
   -4.7181  -15.8587  -18.7534 H   0  0  0  0  0  0  0  0  0  0  0  0
   -6.4549  -15.2306  -21.0871 H   0  0  0  0  0  0  0  0  0  0  0  0
   -5.7985  -13.3575  -18.7904 H   0  0  0  0  0  0  0  0  0  0  0  0
   -7.0608  -14.6266  -18.6394 H   0  0  0  0  0  0  0  0  0  0  0  0
   -7.9055  -13.5427  -20.9222 H   0  0  0  0  0  0  0  0  0  0  0  0
   -7.0227  -12.1148  -20.2830 H   0  0  0  0  0  0  0  0  0  0  0  0
  -10.2161  -13.6035  -18.0909 H   0  0  0  0  0  0  0  0  0  0  0  0
   -9.1836  -14.6865  -18.9634 H   0  0  0  0  0  0  0  0  0  0  0  0
   -3.7770  -13.6786  -19.2572 H   0  0  0  0  0  0  0  0  0  0  0  0
   -2.8634  -12.5059  -21.8434 H   0  0  0  0  0  0  0  0  0  0  0  0
   -2.3310  -11.5728  -18.9745 H   0  0  0  0  0  0  0  0  0  0  0  0
   -1.2962   -9.5936  -20.0392 H   0  0  0  0  0  0  0  0  0  0  0  0
   -1.5342  -10.3391  -21.6561 H   0  0  0  0  0  0  0  0  0  0  0  0
   -0.4236  -11.1036  -20.4692 H   0  0  0  0  0  0  0  0  0  0  0  0
    0.3667  -15.6364  -20.9860 H   0  0  0  0  0  0  0  0  0  0  0  0
   -0.1068  -16.6547  -23.0434 H   0  0  0  0  0  0  0  0  0  0  0  0
    1.2863  -15.6768  -23.6173 H   0  0  0  0  0  0  0  0  0  0  0  0
   -1.1249  -15.4461  -24.7573 H   0  0  0  0  0  0  0  0  0  0  0  0
   -0.0790  -14.0084  -24.5007 H   0  0  0  0  0  0  0  0  0  0  0  0
   -1.9855  -13.2495  -23.3933 H   0  0  0  0  0  0  0  0  0  0  0  0
   -2.5234  -14.9093  -22.9659 H   0  0  0  0  0  0  0  0  0  0  0  0
    1.5552  -14.1464  -19.7238 H   0  0  0  0  0  0  0  0  0  0  0  0
    3.1555  -12.0767  -21.0275 H   0  0  0  0  0  0  0  0  0  0  0  0
    3.2641  -13.1446  -18.1770 H   0  0  0  0  0  0  0  0  0  0  0  0
    1.2205  -12.2592  -18.7341 H   0  0  0  0  0  0  0  0  0  0  0  0
    4.2088  -10.9441  -17.6056 H   0  0  0  0  0  0  0  0  0  0  0  0
    4.2064  -10.4901  -19.3435 H   0  0  0  0  0  0  0  0  0  0  0  0
    5.2538  -11.8307  -18.7669 H   0  0  0  0  0  0  0  0  0  0  0  0
    5.0725  -12.3677  -21.9180 H   0  0  0  0  0  0  0  0  0  0  0  0
    6.3723  -14.8863  -22.0606 H   0  0  0  0  0  0  0  0  0  0  0  0
    8.3473  -13.4932  -22.8979 H   0  0  0  0  0  0  0  0  0  0  0  0
    7.3321  -12.0423  -22.5960 H   0  0  0  0  0  0  0  0  0  0  0  0
    8.2302  -15.1495  -18.0160 H   0  0  0  0  0  0  0  0  0  0  0  0
    9.3268  -17.2327  -18.0483 H   0  0  0  0  0  0  0  0  0  0  0  0
   10.2310  -16.8430  -19.5507 H   0  0  0  0  0  0  0  0  0  0  0  0
    7.3760  -17.7814  -19.2081 H   0  0  0  0  0  0  0  0  0  0  0  0
    8.6165  -18.3042  -20.3974 H   0  0  0  0  0  0  0  0  0  0  0  0
    8.2745  -16.4446  -21.7664 H   0  0  0  0  0  0  0  0  0  0  0  0
    6.6359  -16.5380  -21.0364 H   0  0  0  0  0  0  0  0  0  0  0  0
    9.1877  -13.2655  -17.4931 H   0  0  0  0  0  0  0  0  0  0  0  0
   12.0096  -12.9588  -17.8410 H   0  0  0  0  0  0  0  0  0  0  0  0
   11.3414  -12.3417  -20.1321 H   0  0  0  0  0  0  0  0  0  0  0  0
   12.0697  -10.9647  -19.2377 H   0  0  0  0  0  0  0  0  0  0  0  0
    9.0974  -11.1716  -19.1528 H   0  0  0  0  0  0  0  0  0  0  0  0
    9.3048   -8.7213  -19.4330 H   0  0  0  0  0  0  0  0  0  0  0  0
   11.0782   -8.9017  -19.6540 H   0  0  0  0  0  0  0  0  0  0  0  0
   10.3208   -9.3297  -18.0824 H   0  0  0  0  0  0  0  0  0  0  0  0
    9.5738  -11.8119  -21.4947 H   0  0  0  0  0  0  0  0  0  0  0  0
   10.5815  -10.3375  -21.6875 H   0  0  0  0  0  0  0  0  0  0  0  0
    8.8174  -10.1864  -21.3847 H   0  0  0  0  0  0  0  0  0  0  0  0
   12.5709  -10.4843  -17.3017 H   0  0  0  0  0  0  0  0  0  0  0  0
   10.6528   -9.4276  -15.3056 H   0  0  0  0  0  0  0  0  0  0  0  0
   12.9596   -9.1363  -13.8957 H   0  0  0  0  0  0  0  0  0  0  0  0
   13.2993  -10.6906  -14.7296 H   0  0  0  0  0  0  0  0  0  0  0  0
   12.2301  -11.6174  -12.9881 H   0  0  0  0  0  0  0  0  0  0  0  0
   10.7372  -11.0936  -13.8387 H   0  0  0  0  0  0  0  0  0  0  0  0
  1  2  1  0  0  0  0
  1112  1  0  0  0  0
  1113  1  0  0  0  0
  1114  1  0  0  0  0
  2  3  1  0  0  0  0
  2  5  1  0  0  0  0
  2115  1  6  0  0  0
  3  4  2  0  0  0  0
  3 10  1  0  0  0  0
  5  6  1  0  0  0  0
  5116  1  0  0  0  0
  5117  1  0  0  0  0
  6  7  1  0  0  0  0
  6118  1  0  0  0  0
  6119  1  0  0  0  0
  7  8  1  0  0  0  0
  7120  1  0  0  0  0
  7121  1  0  0  0  0
  8  9  1  0  0  0  0
  8122  1  0  0  0  0
  8123  1  0  0  0  0
  9124  1  0  0  0  0
  9125  1  0  0  0  0
  9126  1  0  0  0  0
 10 11  1  0  0  0  0
 10127  1  0  0  0  0
 11 12  1  0  0  0  0
 11 14  1  0  0  0  0
 11128  1  1  0  0  0
 12 13  2  0  0  0  0
 12 19  1  0  0  0  0
 14 15  1  0  0  0  0
 14129  1  0  0  0  0
 14130  1  0  0  0  0
 15 16  1  0  0  0  0
 15131  1  0  0  0  0
 15132  1  0  0  0  0
 16 17  1  0  0  0  0
 16133  1  0  0  0  0
 16134  1  0  0  0  0
 17 18  1  0  0  0  0
 17135  1  0  0  0  0
 17136  1  0  0  0  0
 18137  1  0  0  0  0
 18138  1  0  0  0  0
 18139  1  0  0  0  0
 19 20  1  0  0  0  0
 19140  1  0  0  0  0
 20 21  1  0  0  0  0
 20 23  1  0  0  0  0
 20141  1  6  0  0  0
 21 22  2  0  0  0  0
 21 27  1  0  0  0  0
 23 24  1  0  0  0  0
 23142  1  0  0  0  0
 23143  1  0  0  0  0
 24 25  1  0  0  0  0
 24144  1  0  0  0  0
 24145  1  0  0  0  0
 25 26  1  0  0  0  0
 26146  1  0  0  0  0
 26147  1  0  0  0  0
 26148  1  0  0  0  0
 27 28  1  0  0  0  0
 27149  1  0  0  0  0
 28 29  1  0  0  0  0
 28 31  1  0  0  0  0
 28150  1  1  0  0  0
 29 30  2  0  0  0  0
 29 34  1  0  0  0  0
 31 32  1  0  0  0  0
 31 33  1  0  0  0  0
 31151  1  6  0  0  0
 32152  1  0  0  0  0
 33153  1  0  0  0  0
 33154  1  0  0  0  0
 33155  1  0  0  0  0
 34 35  1  0  0  0  0
 34156  1  0  0  0  0
 35 36  1  0  0  0  0
 35 38  1  0  0  0  0
 35157  1  1  0  0  0
 36 37  2  0  0  0  0
 36 45  1  0  0  0  0
 38 39  1  0  0  0  0
 38158  1  0  0  0  0
 38159  1  0  0  0  0
 39 40  2  0  0  0  0
 39 41  1  0  0  0  0
 40 42  1  0  0  0  0
 40160  1  0  0  0  0
 41 43  2  0  0  0  0
 41161  1  0  0  0  0
 42 44  2  0  0  0  0
 42162  1  0  0  0  0
 43 44  1  0  0  0  0
 43163  1  0  0  0  0
 44164  1  0  0  0  0
 45 46  1  0  0  0  0
 45165  1  0  0  0  0
 46 47  1  0  0  0  0
 46 49  1  0  0  0  0
 46166  1  6  0  0  0
 47 48  2  0  0  0  0
 47 54  1  0  0  0  0
 49 50  1  0  0  0  0
 49167  1  0  0  0  0
 49168  1  0  0  0  0
 50 51  1  0  0  0  0
 50169  1  0  0  0  0
 50170  1  0  0  0  0
 51 52  2  0  0  0  0
 51 53  1  0  0  0  0
 53171  1  0  0  0  0
 53172  1  0  0  0  0
 54 55  1  0  0  0  0
 54173  1  0  0  0  0
 55 56  1  0  0  0  0
 55 63  1  0  0  0  0
 55174  1  6  0  0  0
 56 57  1  0  0  0  0
 56 58  1  0  0  0  0
 56175  1  1  0  0  0
 57176  1  0  0  0  0
 57177  1  0  0  0  0
 57178  1  0  0  0  0
 58 59  1  0  0  0  0
 59 60  1  0  0  0  0
 59 61  1  0  0  0  0
 59 62  2  0  0  0  0
 63 64  2  0  0  0  0
 63 65  1  0  0  0  0
 65 66  1  0  0  0  0
 65 71  1  0  0  0  0
 66 67  1  0  0  0  0
 66 69  1  0  0  0  0
 66179  1  1  0  0  0
 67 68  2  0  0  0  0
 67 72  1  0  0  0  0
 69 70  1  0  0  0  0
 69180  1  0  0  0  0
 69181  1  0  0  0  0
 70 71  1  0  0  0  0
 70182  1  0  0  0  0
 70183  1  0  0  0  0
 71184  1  0  0  0  0
 71185  1  0  0  0  0
 72 73  1  0  0  0  0
 72186  1  0  0  0  0
 73 74  1  0  0  0  0
 73 76  1  0  0  0  0
 73187  1  6  0  0  0
 74 75  2  0  0  0  0
 74 79  1  0  0  0  0
 76 77  1  0  0  0  0
 76 78  1  0  0  0  0
 76188  1  1  0  0  0
 77189  1  0  0  0  0
 78190  1  0  0  0  0
 78191  1  0  0  0  0
 78192  1  0  0  0  0
 79 80  1  0  0  0  0
 79193  1  0  0  0  0
 80 81  1  0  0  0  0
 80 83  1  0  0  0  0
 80194  1  6  0  0  0
 81 82  2  0  0  0  0
 81 87  1  0  0  0  0
 83 84  1  0  0  0  0
 83195  1  0  0  0  0
 83196  1  0  0  0  0
 84 85  1  0  0  0  0
 84 86  2  0  0  0  0
 87 88  1  0  0  0  0
 87 93  1  0  0  0  0
 88 89  1  0  0  0  0
 88 91  1  0  0  0  0
 88197  1  1  0  0  0
 89 90  2  0  0  0  0
 89 94  1  0  0  0  0
 91 92  1  0  0  0  0
 91198  1  0  0  0  0
 91199  1  0  0  0  0
 92 93  1  0  0  0  0
 92200  1  0  0  0  0
 92201  1  0  0  0  0
 93202  1  0  0  0  0
 93203  1  0  0  0  0
 94 95  1  0  0  0  0
 94204  1  0  0  0  0
 95 96  1  0  0  0  0
 95 98  1  0  0  0  0
 95205  1  1  0  0  0
 96 97  2  0  0  0  0
 96102  1  0  0  0  0
 98 99  1  0  0  0  0
 98206  1  0  0  0  0
 98207  1  0  0  0  0
 99100  1  0  0  0  0
 99101  1  0  0  0  0
 99208  1  0  0  0  0
100209  1  0  0  0  0
100210  1  0  0  0  0
100211  1  0  0  0  0
101212  1  0  0  0  0
101213  1  0  0  0  0
101214  1  0  0  0  0
102103  1  0  0  0  0
102215  1  0  0  0  0
103104  1  0  0  0  0
103106  1  0  0  0  0
103216  1  1  0  0  0
104105  1  0  0  0  0
104111  2  0  0  0  0
106107  1  0  0  0  0
106217  1  0  0  0  0
106218  1  0  0  0  0
107108  1  0  0  0  0
107219  1  0  0  0  0
107220  1  0  0  0  0
108109  1  0  0  0  0
108110  2  0  0  0  0
M  CHG  6   1   1   9   1  18   1  85  -1 105  -1 109  -1
M  END
