1k3q_ligand
 OpenBabel08222323343D

195195  0  0  1  0  0  0  0  0999 V2000
   -1.5670  -21.1210  -13.0870 N   0  3  0  0  0  0  0  0  0  0  0  0
   -2.9850  -21.2020  -13.5280 C   0  0  2  0  0  0  0  0  0  0  0  0
   -3.0840  -21.6070  -14.9950 C   0  0  0  0  0  0  0  0  0  0  0  0
   -2.3150  -21.1370  -15.8320 O   0  0  0  0  0  0  0  0  0  0  0  0
   -3.6410  -19.8380  -13.3100 C   0  0  0  0  0  0  0  0  0  0  0  0
   -4.9200  -19.7830  -13.9200 O   0  0  0  0  0  0  0  0  0  0  0  0
   -4.0380  -22.4810  -15.3000 N   0  0  0  0  0  0  0  0  0  0  0  0
   -4.2380  -22.9480  -16.6670 C   0  0  2  0  0  0  0  0  0  0  0  0
   -5.7090  -23.2570  -16.9250 C   0  0  0  0  0  0  0  0  0  0  0  0
   -6.2760  -24.1750  -16.3310 O   0  0  0  0  0  0  0  0  0  0  0  0
   -3.3840  -24.1910  -16.9320 C   0  0  0  0  0  0  0  0  0  0  0  0
   -2.4530  -24.0900  -18.1410 C   0  0  0  0  0  0  0  0  0  0  0  0
   -1.2010  -24.9240  -17.9230 C   0  0  0  0  0  0  0  0  0  0  0  0
   -3.1740  -24.5270  -19.4070 C   0  0  0  0  0  0  0  0  0  0  0  0
   -6.3220  -22.4850  -17.8170 N   0  0  0  0  0  0  0  0  0  0  0  0
   -7.7280  -22.6750  -18.1550 C   0  0  2  0  0  0  0  0  0  0  0  0
   -8.1200  -21.8080  -19.3470 C   0  0  0  0  0  0  0  0  0  0  0  0
   -8.5370  -22.3170  -20.3880 O   0  0  0  0  0  0  0  0  0  0  0  0
   -8.6140  -22.3430  -16.9530 C   0  0  0  0  0  0  0  0  0  0  0  0
   -9.8270  -23.2490  -16.8230 C   0  0  0  0  0  0  0  0  0  0  0  0
   -9.4900  -24.5850  -16.1900 C   0  0  0  0  0  0  0  0  0  0  0  0
   -9.1500  -24.6040  -14.9880 O   0  5  0  0  0  0  0  0  0  0  0  0
   -9.5670  -25.6120  -16.8960 O   0  0  0  0  0  0  0  0  0  0  0  0
   -7.9830  -20.4960  -19.1880 N   0  0  0  0  0  0  0  0  0  0  0  0
   -8.3210  -19.5580  -20.2510 C   0  0  2  0  0  0  0  0  0  0  0  0
   -7.0640  -18.9820  -20.8930 C   0  0  0  0  0  0  0  0  0  0  0  0
   -5.9900  -18.9890  -20.2920 O   0  0  0  0  0  0  0  0  0  0  0  0
   -9.1930  -18.4010  -19.7250 C   0  0  0  0  0  0  0  0  0  0  0  0
   -9.6550  -17.5120  -20.8700 C   0  0  0  0  0  0  0  0  0  0  0  0
  -10.3840  -18.9390  -18.9450 C   0  0  0  0  0  0  0  0  0  0  0  0
   -7.2050  -18.4850  -22.1170 N   0  0  0  0  0  0  0  0  0  0  0  0
   -6.0820  -17.9050  -22.8420 C   0  0  1  0  0  0  0  0  0  0  0  0
   -5.4580  -16.7300  -22.0610 C   0  0  1  0  0  0  0  0  0  0  0  0
   -4.2650  -16.1460  -22.8070 C   0  0  0  0  0  0  0  0  0  0  0  0
   -6.4170  -15.7280  -21.8590 O   0  0  0  0  0  0  0  0  0  0  0  0
   -6.5810  -15.1500  -20.4200 P   0  0  0  0  0  0  0  0  0  0  0  0
   -6.8780  -16.3860  -19.5310 O   0  0  0  0  0  1  0  0  0  0  0  0
   -5.1800  -14.5920  -20.0590 O   0  0  0  0  0  1  0  0  0  0  0  0
   -7.6570  -14.1080  -20.3340 O   0  0  0  0  0  0  0  0  0  0  0  0
   -5.0080  -18.9550  -23.1110 C   0  0  0  0  0  0  0  0  0  0  0  0
   -4.4770  -19.5680  -22.1850 O   0  0  0  0  0  0  0  0  0  0  0  0
   -4.6910  -19.1570  -24.3870 N   0  0  0  0  0  0  0  0  0  0  0  0
   -3.6810  -20.1320  -24.7780 C   0  0  2  0  0  0  0  0  0  0  0  0
   -2.3160  -19.7590  -24.2090 C   0  0  0  0  0  0  0  0  0  0  0  0
   -1.9460  -18.5850  -24.1760 O   0  0  0  0  0  0  0  0  0  0  0  0
   -3.6000  -20.2330  -26.3020 C   0  0  0  0  0  0  0  0  0  0  0  0
   -4.5940  -21.2130  -26.9010 C   0  0  0  0  0  0  0  0  0  0  0  0
   -4.3440  -21.4700  -28.3750 C   0  0  0  0  0  0  0  0  0  0  0  0
   -4.4890  -20.5220  -29.1740 O   0  5  0  0  0  0  0  0  0  0  0  0
   -4.0020  -22.6180  -28.7270 O   0  0  0  0  0  0  0  0  0  0  0  0
   -1.5710  -20.7640  -23.7610 N   0  0  0  0  0  0  0  0  0  0  0  0
   -0.2470  -20.5410  -23.1940 C   0  0  2  0  0  0  0  0  0  0  0  0
    0.7510  -21.5750  -23.7030 C   0  0  0  0  0  0  0  0  0  0  0  0
    0.3690  -22.5770  -24.3070 O   0  0  0  0  0  0  0  0  0  0  0  0
   -0.3130  -20.5740  -21.6750 C   0  0  0  0  0  0  0  0  0  0  0  0
    2.0330  -21.3240  -23.4560 N   0  0  0  0  0  0  0  0  0  0  0  0
    3.0880  -22.2330  -23.8890 C   0  0  2  0  0  0  0  0  0  0  0  0
    4.0680  -22.5090  -22.7540 C   0  0  0  0  0  0  0  0  0  0  0  0
    4.0570  -21.8240  -21.7310 O   0  0  0  0  0  0  0  0  0  0  0  0
    3.8310  -21.6500  -25.0920 C   0  0  0  0  0  0  0  0  0  0  0  0
    2.8910  -21.2380  -26.2080 C   0  0  0  0  0  0  0  0  0  0  0  0
    2.4720  -22.1200  -26.9870 O   0  5  0  0  0  0  0  0  0  0  0  0
    2.5750  -20.0340  -26.3040 O   0  0  0  0  0  0  0  0  0  0  0  0
    4.9150  -23.5160  -22.9420 N   0  0  0  0  0  0  0  0  0  0  0  0
    5.9030  -23.8810  -21.9340 C   0  0  2  0  0  0  0  0  0  0  0  0
    6.8330  -24.9750  -22.4470 C   0  0  0  0  0  0  0  0  0  0  0  0
    6.3810  -26.0270  -22.8990 O   0  0  0  0  0  0  0  0  0  0  0  0
    5.2110  -24.3310  -20.6570 C   0  0  0  0  0  0  0  0  0  0  0  0
    8.1350  -24.7200  -22.3750 N   0  0  0  0  0  0  0  0  0  0  0  0
    9.1300  -25.6840  -22.8330 C   0  0  2  0  0  0  0  0  0  0  0  0
    9.4340  -26.7090  -21.7460 C   0  0  0  0  0  0  0  0  0  0  0  0
    9.4260  -26.3900  -20.5560 O   0  0  0  0  0  0  0  0  0  0  0  0
   10.4150  -24.9630  -23.2450 C   0  0  2  0  0  0  0  0  0  0  0  0
   10.9330  -24.2030  -22.1680 O   0  0  0  0  0  0  0  0  0  0  0  0
   10.2260  -24.0270  -24.4180 C   0  0  0  0  0  0  0  0  0  0  0  0
    9.7010  -27.9420  -22.1610 N   0  0  0  0  0  0  0  0  0  0  0  0
   10.0060  -29.0150  -21.2230 C   0  0  2  0  0  0  0  0  0  0  0  0
   11.4960  -29.3480  -21.2410 C   0  0  0  0  0  0  0  0  0  0  0  0
   11.8820  -30.5130  -21.3420 O   0  0  0  0  0  0  0  0  0  0  0  0
    9.1870  -30.2620  -21.5590 C   0  0  0  0  0  0  0  0  0  0  0  0
    8.9000  -31.1330  -20.3690 C   0  0  0  0  0  0  0  0  0  0  0  0
    7.8400  -30.8470  -19.5240 C   0  0  0  0  0  0  0  0  0  0  0  0
    9.6920  -32.2380  -20.0960 C   0  0  0  0  0  0  0  0  0  0  0  0
    7.5750  -31.6460  -18.4280 C   0  0  0  0  0  0  0  0  0  0  0  0
    9.4300  -33.0400  -19.0020 C   0  0  0  0  0  0  0  0  0  0  0  0
    8.3710  -32.7440  -18.1670 C   0  0  0  0  0  0  0  0  0  0  0  0
   12.3290  -28.3170  -21.1430 N   0  0  0  0  0  0  0  0  0  0  0  0
   13.7750  -28.5000  -21.1480 C   0  0  2  0  0  0  0  0  0  0  0  0
   14.4510  -27.5610  -20.1550 C   0  0  0  0  0  0  0  0  0  0  0  0
   14.6970  -26.3930  -20.4570 O   0  0  0  0  0  0  0  0  0  0  0  0
   14.3670  -28.2580  -22.5480 C   0  0  0  0  0  0  0  0  0  0  0  0
   14.0070  -29.4000  -23.4850 C   0  0  0  0  0  0  0  0  0  0  0  0
   13.8870  -26.9280  -23.1090 C   0  0  0  0  0  0  0  0  0  0  0  0
   14.7500  -28.0800  -18.9680 N   0  0  0  0  0  0  0  0  0  0  0  0
   15.3990  -27.2890  -17.9290 C   0  0  2  0  0  0  0  0  0  0  0  0
   16.2390  -28.1750  -17.0150 C   0  0  0  0  0  0  0  0  0  0  0  0
   17.3590  -27.7570  -16.6520 O   0  5  0  0  0  0  0  0  0  0  0  0
   14.3550  -26.5330  -17.1060 C   0  0  0  0  0  0  0  0  0  0  0  0
   13.2180  -27.4120  -16.6110 C   0  0  0  0  0  0  0  0  0  0  0  0
   12.1110  -26.6150  -15.9490 C   0  0  0  0  0  0  0  0  0  0  0  0
   11.6410  -25.6140  -16.4890 O   0  0  0  0  0  0  0  0  0  0  0  0
   11.6890  -27.0550  -14.7690 N   0  0  0  0  0  0  0  0  0  0  0  0
   15.7700  -29.2800  -16.6700 O   0  0  0  0  0  0  0  0  0  0  0  0
   -1.5319  -20.8521  -12.1162 H   0  0  0  0  0  0  0  0  0  0  0  0
   -1.0807  -20.4354  -13.6433 H   0  0  0  0  0  0  0  0  0  0  0  0
   -1.1273  -22.0206  -13.2025 H   0  0  0  0  0  0  0  0  0  0  0  0
   -3.5066  -21.9551  -12.9192 H   0  0  0  0  0  0  0  0  0  0  0  0
   -3.0008  -19.0575  -13.7470 H   0  0  0  0  0  0  0  0  0  0  0  0
   -3.7503  -19.6604  -12.2299 H   0  0  0  0  0  0  0  0  0  0  0  0
   -5.3046  -18.9274  -13.7700 H   0  0  0  0  0  0  0  0  0  0  0  0
   -4.6330  -22.8267  -14.5744 H   0  0  0  0  0  0  0  0  0  0  0  0
   -3.9225  -22.1516  -17.3571 H   0  0  0  0  0  0  0  0  0  0  0  0
   -4.0615  -25.0424  -17.0933 H   0  0  0  0  0  0  0  0  0  0  0  0
   -2.7668  -24.3773  -16.0408 H   0  0  0  0  0  0  0  0  0  0  0  0
   -2.1520  -23.0386  -18.2594 H   0  0  0  0  0  0  0  0  0  0  0  0
   -0.5456  -24.8381  -18.8022 H   0  0  0  0  0  0  0  0  0  0  0  0
   -1.4828  -25.9772  -17.7772 H   0  0  0  0  0  0  0  0  0  0  0  0
   -0.6686  -24.5601  -17.0319 H   0  0  0  0  0  0  0  0  0  0  0  0
   -4.0755  -23.9123  -19.5463 H   0  0  0  0  0  0  0  0  0  0  0  0
   -3.4618  -25.5850  -19.3185 H   0  0  0  0  0  0  0  0  0  0  0  0
   -2.5062  -24.3997  -20.2718 H   0  0  0  0  0  0  0  0  0  0  0  0
   -5.8064  -21.7561  -18.2673 H   0  0  0  0  0  0  0  0  0  0  0  0
   -7.8822  -23.7303  -18.4242 H   0  0  0  0  0  0  0  0  0  0  0  0
   -8.9644  -21.3053  -17.0552 H   0  0  0  0  0  0  0  0  0  0  0  0
   -8.0097  -22.4376  -16.0388 H   0  0  0  0  0  0  0  0  0  0  0  0
  -10.2420  -23.4287  -17.8257 H   0  0  0  0  0  0  0  0  0  0  0  0
  -10.5795  -22.7435  -16.1999 H   0  0  0  0  0  0  0  0  0  0  0  0
   -7.6395  -20.1435  -18.3175 H   0  0  0  0  0  0  0  0  0  0  0  0
   -8.8895  -20.1022  -21.0196 H   0  0  0  0  0  0  0  0  0  0  0  0
   -8.5818  -17.7922  -19.0425 H   0  0  0  0  0  0  0  0  0  0  0  0
  -10.2745  -16.6946  -20.4725 H   0  0  0  0  0  0  0  0  0  0  0  0
  -10.2462  -18.1076  -21.5812 H   0  0  0  0  0  0  0  0  0  0  0  0
   -8.7784  -17.0910  -21.3841 H   0  0  0  0  0  0  0  0  0  0  0  0
  -10.0263  -19.5777  -18.1239 H   0  0  0  0  0  0  0  0  0  0  0  0
  -11.0253  -19.5293  -19.6159 H   0  0  0  0  0  0  0  0  0  0  0  0
  -10.9611  -18.0989  -18.5313 H   0  0  0  0  0  0  0  0  0  0  0  0
   -8.1051  -18.5096  -22.5520 H   0  0  0  0  0  0  0  0  0  0  0  0
   -6.4532  -17.5268  -23.8059 H   0  0  0  0  0  0  0  0  0  0  0  0
   -5.1163  -17.1002  -21.0832 H   0  0  0  0  0  0  0  0  0  0  0  0
   -3.8423  -15.3123  -22.2271 H   0  0  0  0  0  0  0  0  0  0  0  0
   -4.5917  -15.7794  -23.7913 H   0  0  0  0  0  0  0  0  0  0  0  0
   -3.4995  -16.9245  -22.9412 H   0  0  0  0  0  0  0  0  0  0  0  0
   -5.1572  -18.6268  -25.0952 H   0  0  0  0  0  0  0  0  0  0  0  0
   -3.9711  -21.1138  -24.3757 H   0  0  0  0  0  0  0  0  0  0  0  0
   -2.5849  -20.5568  -26.5755 H   0  0  0  0  0  0  0  0  0  0  0  0
   -3.7944  -19.2373  -26.7272 H   0  0  0  0  0  0  0  0  0  0  0  0
   -5.6079  -20.8034  -26.7819 H   0  0  0  0  0  0  0  0  0  0  0  0
   -4.5180  -22.1673  -26.3592 H   0  0  0  0  0  0  0  0  0  0  0  0
   -1.9277  -21.6967  -23.8142 H   0  0  0  0  0  0  0  0  0  0  0  0
    0.0990  -19.5446  -23.5061 H   0  0  0  0  0  0  0  0  0  0  0  0
    0.6918  -20.4045  -21.2606 H   0  0  0  0  0  0  0  0  0  0  0  0
   -0.6848  -21.5553  -21.3453 H   0  0  0  0  0  0  0  0  0  0  0  0
   -0.9936  -19.7860  -21.3203 H   0  0  0  0  0  0  0  0  0  0  0  0
    2.2801  -20.4910  -22.9609 H   0  0  0  0  0  0  0  0  0  0  0  0
    2.6254  -23.1846  -24.1897 H   0  0  0  0  0  0  0  0  0  0  0  0
    4.5273  -22.4087  -25.4787 H   0  0  0  0  0  0  0  0  0  0  0  0
    4.3974  -20.7663  -24.7630 H   0  0  0  0  0  0  0  0  0  0  0  0
    4.8735  -24.0357  -23.7953 H   0  0  0  0  0  0  0  0  0  0  0  0
    6.5091  -22.9916  -21.7066 H   0  0  0  0  0  0  0  0  0  0  0  0
    5.9676  -24.6030  -19.9063 H   0  0  0  0  0  0  0  0  0  0  0  0
    4.5770  -25.2040  -20.8715 H   0  0  0  0  0  0  0  0  0  0  0  0
    4.5878  -23.5116  -20.2693 H   0  0  0  0  0  0  0  0  0  0  0  0
    8.4406  -23.8458  -21.9976 H   0  0  0  0  0  0  0  0  0  0  0  0
    8.7263  -26.2125  -23.7092 H   0  0  0  0  0  0  0  0  0  0  0  0
   11.1530  -25.7282  -23.5277 H   0  0  0  0  0  0  0  0  0  0  0  0
   11.1256  -24.7802  -21.4384 H   0  0  0  0  0  0  0  0  0  0  0  0
   11.1844  -23.5444  -24.6601 H   0  0  0  0  0  0  0  0  0  0  0  0
    9.4837  -23.2581  -24.1577 H   0  0  0  0  0  0  0  0  0  0  0  0
    9.8726  -24.5978  -25.2894 H   0  0  0  0  0  0  0  0  0  0  0  0
    9.6926  -28.1391  -23.1414 H   0  0  0  0  0  0  0  0  0  0  0  0
    9.7357  -28.6796  -20.2109 H   0  0  0  0  0  0  0  0  0  0  0  0
    9.7452  -30.8558  -22.2977 H   0  0  0  0  0  0  0  0  0  0  0  0
    8.2290  -29.9417  -21.9944 H   0  0  0  0  0  0  0  0  0  0  0  0
    7.2115  -29.9869  -19.7248 H   0  0  0  0  0  0  0  0  0  0  0  0
   10.5252  -32.4750  -20.7476 H   0  0  0  0  0  0  0  0  0  0  0  0
    6.7432  -31.4111  -17.7738 H   0  0  0  0  0  0  0  0  0  0  0  0
   10.0558  -33.9016  -18.7992 H   0  0  0  0  0  0  0  0  0  0  0  0
    8.1647  -33.3723  -17.3081 H   0  0  0  0  0  0  0  0  0  0  0  0
   11.9545  -27.3931  -21.0639 H   0  0  0  0  0  0  0  0  0  0  0  0
   13.9896  -29.5374  -20.8520 H   0  0  0  0  0  0  0  0  0  0  0  0
   15.4626  -28.2186  -22.4576 H   0  0  0  0  0  0  0  0  0  0  0  0
   14.4384  -29.2088  -24.4786 H   0  0  0  0  0  0  0  0  0  0  0  0
   12.9127  -29.4747  -23.5686 H   0  0  0  0  0  0  0  0  0  0  0  0
   14.4094  -30.3427  -23.0857 H   0  0  0  0  0  0  0  0  0  0  0  0
   14.1581  -26.1183  -22.4155 H   0  0  0  0  0  0  0  0  0  0  0  0
   12.7942  -26.9549  -23.2320 H   0  0  0  0  0  0  0  0  0  0  0  0
   14.3616  -26.7490  -24.0851 H   0  0  0  0  0  0  0  0  0  0  0  0
   14.5242  -29.0365  -18.7832 H   0  0  0  0  0  0  0  0  0  0  0  0
   16.0627  -26.5571  -18.4125 H   0  0  0  0  0  0  0  0  0  0  0  0
   13.9301  -25.7345  -17.7320 H   0  0  0  0  0  0  0  0  0  0  0  0
   14.8556  -26.0878  -16.2335 H   0  0  0  0  0  0  0  0  0  0  0  0
   13.6199  -28.1302  -15.8812 H   0  0  0  0  0  0  0  0  0  0  0  0
   12.7955  -27.9574  -17.4678 H   0  0  0  0  0  0  0  0  0  0  0  0
   10.9608  -26.5692  -14.2855 H   0  0  0  0  0  0  0  0  0  0  0  0
   12.0995  -27.8720  -14.3641 H   0  0  0  0  0  0  0  0  0  0  0  0
  1  2  1  0  0  0  0
  1104  1  0  0  0  0
  1105  1  0  0  0  0
  1106  1  0  0  0  0
  2  3  1  0  0  0  0
  2  5  1  0  0  0  0
  2107  1  1  0  0  0
  3  4  2  0  0  0  0
  3  7  1  0  0  0  0
  5  6  1  0  0  0  0
  5108  1  0  0  0  0
  5109  1  0  0  0  0
  6110  1  0  0  0  0
  7  8  1  0  0  0  0
  7111  1  0  0  0  0
  8  9  1  0  0  0  0
  8 11  1  0  0  0  0
  8112  1  6  0  0  0
  9 10  2  0  0  0  0
  9 15  1  0  0  0  0
 11 12  1  0  0  0  0
 11113  1  0  0  0  0
 11114  1  0  0  0  0
 12 13  1  0  0  0  0
 12 14  1  0  0  0  0
 12115  1  0  0  0  0
 13116  1  0  0  0  0
 13117  1  0  0  0  0
 13118  1  0  0  0  0
 14119  1  0  0  0  0
 14120  1  0  0  0  0
 14121  1  0  0  0  0
 15 16  1  0  0  0  0
 15122  1  0  0  0  0
 16 17  1  0  0  0  0
 16 19  1  0  0  0  0
 16123  1  6  0  0  0
 17 18  2  0  0  0  0
 17 24  1  0  0  0  0
 19 20  1  0  0  0  0
 19124  1  0  0  0  0
 19125  1  0  0  0  0
 20 21  1  0  0  0  0
 20126  1  0  0  0  0
 20127  1  0  0  0  0
 21 22  1  0  0  0  0
 21 23  2  0  0  0  0
 24 25  1  0  0  0  0
 24128  1  0  0  0  0
 25 26  1  0  0  0  0
 25 28  1  0  0  0  0
 25129  1  6  0  0  0
 26 27  2  0  0  0  0
 26 31  1  0  0  0  0
 28 29  1  0  0  0  0
 28 30  1  0  0  0  0
 28130  1  0  0  0  0
 29131  1  0  0  0  0
 29132  1  0  0  0  0
 29133  1  0  0  0  0
 30134  1  0  0  0  0
 30135  1  0  0  0  0
 30136  1  0  0  0  0
 31 32  1  0  0  0  0
 31137  1  0  0  0  0
 32 33  1  0  0  0  0
 32 40  1  0  0  0  0
 32138  1  6  0  0  0
 33 34  1  0  0  0  0
 33 35  1  0  0  0  0
 33139  1  1  0  0  0
 34140  1  0  0  0  0
 34141  1  0  0  0  0
 34142  1  0  0  0  0
 35 36  1  0  0  0  0
 36 37  1  0  0  0  0
 36 38  1  0  0  0  0
 36 39  2  0  0  0  0
 40 41  2  0  0  0  0
 40 42  1  0  0  0  0
 42 43  1  0  0  0  0
 42143  1  0  0  0  0
 43 44  1  0  0  0  0
 43 46  1  0  0  0  0
 43144  1  1  0  0  0
 44 45  2  0  0  0  0
 44 51  1  0  0  0  0
 46 47  1  0  0  0  0
 46145  1  0  0  0  0
 46146  1  0  0  0  0
 47 48  1  0  0  0  0
 47147  1  0  0  0  0
 47148  1  0  0  0  0
 48 49  1  0  0  0  0
 48 50  2  0  0  0  0
 51 52  1  0  0  0  0
 51149  1  0  0  0  0
 52 53  1  0  0  0  0
 52 55  1  0  0  0  0
 52150  1  6  0  0  0
 53 54  2  0  0  0  0
 53 56  1  0  0  0  0
 55151  1  0  0  0  0
 55152  1  0  0  0  0
 55153  1  0  0  0  0
 56 57  1  0  0  0  0
 56154  1  0  0  0  0
 57 58  1  0  0  0  0
 57 60  1  0  0  0  0
 57155  1  6  0  0  0
 58 59  2  0  0  0  0
 58 64  1  0  0  0  0
 60 61  1  0  0  0  0
 60156  1  0  0  0  0
 60157  1  0  0  0  0
 61 62  1  0  0  0  0
 61 63  2  0  0  0  0
 64 65  1  0  0  0  0
 64158  1  0  0  0  0
 65 66  1  0  0  0  0
 65 68  1  0  0  0  0
 65159  1  1  0  0  0
 66 67  2  0  0  0  0
 66 69  1  0  0  0  0
 68160  1  0  0  0  0
 68161  1  0  0  0  0
 68162  1  0  0  0  0
 69 70  1  0  0  0  0
 69163  1  0  0  0  0
 70 71  1  0  0  0  0
 70 73  1  0  0  0  0
 70164  1  6  0  0  0
 71 72  2  0  0  0  0
 71 76  1  0  0  0  0
 73 74  1  0  0  0  0
 73 75  1  0  0  0  0
 73165  1  6  0  0  0
 74166  1  0  0  0  0
 75167  1  0  0  0  0
 75168  1  0  0  0  0
 75169  1  0  0  0  0
 76 77  1  0  0  0  0
 76170  1  0  0  0  0
 77 78  1  0  0  0  0
 77 80  1  0  0  0  0
 77171  1  1  0  0  0
 78 79  2  0  0  0  0
 78 87  1  0  0  0  0
 80 81  1  0  0  0  0
 80172  1  0  0  0  0
 80173  1  0  0  0  0
 81 82  2  0  0  0  0
 81 83  1  0  0  0  0
 82 84  1  0  0  0  0
 82174  1  0  0  0  0
 83 85  2  0  0  0  0
 83175  1  0  0  0  0
 84 86  2  0  0  0  0
 84176  1  0  0  0  0
 85 86  1  0  0  0  0
 85177  1  0  0  0  0
 86178  1  0  0  0  0
 87 88  1  0  0  0  0
 87179  1  0  0  0  0
 88 89  1  0  0  0  0
 88 91  1  0  0  0  0
 88180  1  1  0  0  0
 89 90  2  0  0  0  0
 89 94  1  0  0  0  0
 91 92  1  0  0  0  0
 91 93  1  0  0  0  0
 91181  1  0  0  0  0
 92182  1  0  0  0  0
 92183  1  0  0  0  0
 92184  1  0  0  0  0
 93185  1  0  0  0  0
 93186  1  0  0  0  0
 93187  1  0  0  0  0
 94 95  1  0  0  0  0
 94188  1  0  0  0  0
 95 96  1  0  0  0  0
 95 98  1  0  0  0  0
 95189  1  6  0  0  0
 96 97  1  0  0  0  0
 96103  2  0  0  0  0
 98 99  1  0  0  0  0
 98190  1  0  0  0  0
 98191  1  0  0  0  0
 99100  1  0  0  0  0
 99192  1  0  0  0  0
 99193  1  0  0  0  0
100101  2  0  0  0  0
100102  1  0  0  0  0
102194  1  0  0  0  0
102195  1  0  0  0  0
M  CHG  5   1   1  22  -1  49  -1  62  -1  97  -1
M  END
