1kak_ligand
 OpenBabel08222323343D

 30 31  0  0  0  0  0  0  0  0999 V2000
   24.3900   19.7530    2.6170 C   0  0  0  0  0  0  0  0  0  0  0  0
   25.6650   24.4690   -0.9010 C   0  0  0  0  0  0  0  0  0  0  0  0
   24.9950   25.3620   -0.0790 C   0  0  0  0  0  0  0  0  0  0  0  0
   24.2770   24.9530    1.0290 C   0  0  0  0  0  0  0  0  0  0  0  0
   24.2100   23.5910    1.3590 C   0  0  0  0  0  0  0  0  0  0  0  0
   23.4860   23.1550    2.4800 C   0  0  0  0  0  0  0  0  0  0  0  0
   23.4310   21.8190    2.7900 C   0  0  0  0  0  0  0  0  0  0  0  0
   24.0700   20.8850    2.0330 C   0  0  0  0  0  0  0  0  0  0  0  0
   24.8090   21.2850    0.8900 C   0  0  0  0  0  0  0  0  0  0  0  0
   24.8810   22.6450    0.5480 C   0  0  0  0  0  0  0  0  0  0  0  0
   25.6000   23.0980   -0.5750 C   0  0  0  0  0  0  0  0  0  0  0  0
   26.0350   24.8820   -2.1030 C   0  0  0  0  0  0  0  0  0  0  0  0
   24.4480   18.6470    1.6530 F   0  0  0  0  0  0  0  0  0  0  0  0
   25.5390   19.8510    3.2220 F   0  0  0  0  0  0  0  0  0  0  0  0
   23.1690   18.7770    3.6410 P   0  0  0  0  0  0  0  0  0  0  0  0
   21.9600   19.5730    3.9280 O   0  0  0  0  0  1  0  0  0  0  0  0
   23.7820   18.3720    4.9380 O   0  0  0  0  0  1  0  0  0  0  0  0
   22.7350   17.5330    2.9410 O   0  0  0  0  0  0  0  0  0  0  0  0
   25.0570   25.8290   -2.6910 F   0  0  0  0  0  0  0  0  0  0  0  0
   26.2180   23.8890   -2.9310 F   0  0  0  0  0  0  0  0  0  0  0  0
   27.3090   26.2060   -2.3260 P   0  0  0  0  0  0  0  0  0  0  0  0
   27.0810   27.3110   -1.3590 O   0  0  0  0  0  1  0  0  0  0  0  0
   27.2460   26.7780   -3.6940 O   0  0  0  0  0  1  0  0  0  0  0  0
   28.6760   25.6620   -2.1210 O   0  0  0  0  0  0  0  0  0  0  0  0
   25.0357   26.4195   -0.3138 H   0  0  0  0  0  0  0  0  0  0  0  0
   23.7654   25.6850    1.6434 H   0  0  0  0  0  0  0  0  0  0  0  0
   22.9687   23.8758    3.1028 H   0  0  0  0  0  0  0  0  0  0  0  0
   22.8655   21.5000    3.6580 H   0  0  0  0  0  0  0  0  0  0  0  0
   25.3161   20.5437    0.2830 H   0  0  0  0  0  0  0  0  0  0  0  0
   26.1141   22.3784   -1.2018 H   0  0  0  0  0  0  0  0  0  0  0  0
  1 15  1  0  0  0  0
  1 14  1  0  0  0  0
  1 13  1  0  0  0  0
  1  8  1  0  0  0  0
  2 12  1  0  0  0  0
  2 11  1  0  0  0  0
  3  2  2  0  0  0  0
  3 25  1  0  0  0  0
  4  3  1  0  0  0  0
  4 26  1  0  0  0  0
  5 10  1  0  0  0  0
  5  4  2  0  0  0  0
  6  5  1  0  0  0  0
  6 27  1  0  0  0  0
  7  6  2  0  0  0  0
  7 28  1  0  0  0  0
  8  9  2  0  0  0  0
  8  7  1  0  0  0  0
  9 29  1  0  0  0  0
 10  9  1  0  0  0  0
 11 10  2  0  0  0  0
 11 30  1  0  0  0  0
 12 21  1  0  0  0  0
 12 20  1  0  0  0  0
 12 19  1  0  0  0  0
 15 18  2  0  0  0  0
 15 17  1  0  0  0  0
 15 16  1  0  0  0  0
 21 24  2  0  0  0  0
 21 23  1  0  0  0  0
 21 22  1  0  0  0  0
M  END
