1kdy_ligand
 OpenBabel08222323343D

 62 63  0  0  1  0  0  0  0  0999 V2000
   23.1740   13.2770    5.3780 C   0  0  0  0  0  0  0  0  0  0  0  0
   22.0490   13.9040    5.3760 O   0  0  0  0  0  0  0  0  0  0  0  0
   24.0250   13.1850    4.2620 C   0  0  0  0  0  0  0  0  0  0  0  0
   23.4830   12.6210    6.4790 N   0  0  0  0  0  0  0  0  0  0  0  0
   22.6730   12.5640    7.6990 C   0  0  2  0  0  0  0  0  0  0  0  0
   23.5190   13.1140    8.8320 C   0  0  0  0  0  0  0  0  0  0  0  0
   24.7390   12.9350    8.8580 O   0  0  0  0  0  0  0  0  0  0  0  0
   22.2490   11.1540    8.0130 C   0  0  2  0  0  0  0  0  0  0  0  0
   21.3100   10.5640    6.9010 C   0  0  0  0  0  0  0  0  0  0  0  0
   21.6180   10.9040    9.3550 C   0  0  0  0  0  0  0  0  0  0  0  0
   21.9650    9.3060    6.3900 C   0  0  0  0  0  0  0  0  0  0  0  0
   22.9280   13.8520    9.7490 N   0  0  0  0  0  0  0  0  0  0  0  0
   23.7370   14.4420   10.8220 C   0  0  2  0  0  0  0  0  0  0  0  0
   24.4690   13.4110   11.6530 C   0  0  0  0  0  0  0  0  0  0  0  0
   23.9570   12.3420   11.9600 O   0  0  0  0  0  0  0  0  0  0  0  0
   22.6920   15.2250   11.6620 C   0  0  0  0  0  0  0  0  0  0  0  0
   21.6350   15.5630   10.7400 C   0  0  0  0  0  0  0  0  0  0  0  0
   21.5330   14.3410    9.8210 C   0  0  0  0  0  0  0  0  0  0  0  0
   25.6700   13.8140   12.0530 N   0  0  0  0  0  0  0  0  0  0  0  0
   26.4990   13.0710   12.9900 C   0  0  2  0  0  0  0  0  0  0  0  0
   26.6270   13.7940   14.2930 C   0  0  0  0  0  0  0  0  0  0  0  0
   27.2720   13.1410   15.3350 O   0  0  0  0  0  0  0  0  0  0  0  0
   27.9150   12.8970   12.4110 C   0  0  0  0  0  0  0  0  0  0  0  0
   28.0590   11.9440   11.2400 C   0  0  0  0  0  0  0  0  0  0  0  0
   29.0390   12.2000   10.2800 C   0  0  0  0  0  0  0  0  0  0  0  0
   27.3180   10.7580   11.1540 C   0  0  0  0  0  0  0  0  0  0  0  0
   29.2420   11.2870    9.2540 C   0  0  0  0  0  0  0  0  0  0  0  0
   27.5040    9.8710   10.0860 C   0  0  0  0  0  0  0  0  0  0  0  0
   28.4740   10.1550    9.1360 C   0  0  0  0  0  0  0  0  0  0  0  0
   24.9163   12.5978    4.5280 H   0  0  0  0  0  0  0  0  0  0  0  0
   24.3308   14.1945    3.9498 H   0  0  0  0  0  0  0  0  0  0  0  0
   23.4936   12.6907    3.4354 H   0  0  0  0  0  0  0  0  0  0  0  0
   24.3470   12.1175    6.4819 H   0  0  0  0  0  0  0  0  0  0  0  0
   21.7749   13.1861    7.5708 H   0  0  0  0  0  0  0  0  0  0  0  0
   23.1760   10.5620    8.0000 H   0  0  0  0  0  0  0  0  0  0  0  0
   21.1939   11.2886    6.0816 H   0  0  0  0  0  0  0  0  0  0  0  0
   20.3228   10.3296    7.3259 H   0  0  0  0  0  0  0  0  0  0  0  0
   22.2646   11.3120   10.1459 H   0  0  0  0  0  0  0  0  0  0  0  0
   21.4932    9.8215    9.5056 H   0  0  0  0  0  0  0  0  0  0  0  0
   20.6348   11.3956    9.3952 H   0  0  0  0  0  0  0  0  0  0  0  0
   21.3371    8.8584    5.6055 H   0  0  0  0  0  0  0  0  0  0  0  0
   22.0823    8.5913    7.2179 H   0  0  0  0  0  0  0  0  0  0  0  0
   22.9534    9.5503    5.9736 H   0  0  0  0  0  0  0  0  0  0  0  0
   24.4795   15.1332   10.3966 H   0  0  0  0  0  0  0  0  0  0  0  0
   23.1415   16.1364   12.0830 H   0  0  0  0  0  0  0  0  0  0  0  0
   22.3049   14.5966   12.4776 H   0  0  0  0  0  0  0  0  0  0  0  0
   21.8930   16.4639   10.1639 H   0  0  0  0  0  0  0  0  0  0  0  0
   20.6884   15.7286   11.2753 H   0  0  0  0  0  0  0  0  0  0  0  0
   20.8695   13.5774   10.2530 H   0  0  0  0  0  0  0  0  0  0  0  0
   21.1636   14.6267    8.8250 H   0  0  0  0  0  0  0  0  0  0  0  0
   26.0240   14.6759   11.6900 H   0  0  0  0  0  0  0  0  0  0  0  0
   26.0458   12.0838   13.1631 H   0  0  0  0  0  0  0  0  0  0  0  0
   25.6099   14.0345   14.6361 H   0  0  0  0  0  0  0  0  0  0  0  0
   27.1783   14.7258   14.0985 H   0  0  0  0  0  0  0  0  0  0  0  0
   27.2865   13.7035   16.1005 H   0  0  0  0  0  0  0  0  0  0  0  0
   28.5636   12.5309   13.2205 H   0  0  0  0  0  0  0  0  0  0  0  0
   28.2640   13.8864   12.0805 H   0  0  0  0  0  0  0  0  0  0  0  0
   29.6360   13.1031   10.3349 H   0  0  0  0  0  0  0  0  0  0  0  0
   26.5915   10.5239   11.9237 H   0  0  0  0  0  0  0  0  0  0  0  0
   30.0258   11.4723    8.5285 H   0  0  0  0  0  0  0  0  0  0  0  0
   26.8987    8.9756   10.0031 H   0  0  0  0  0  0  0  0  0  0  0  0
   28.6259    9.4825    8.2995 H   0  0  0  0  0  0  0  0  0  0  0  0
  1  2  2  0  0  0  0
  1  3  1  0  0  0  0
  1  4  1  0  0  0  0
  3 30  1  0  0  0  0
  3 31  1  0  0  0  0
  3 32  1  0  0  0  0
  4  5  1  0  0  0  0
  4 33  1  0  0  0  0
  5  6  1  0  0  0  0
  5  8  1  0  0  0  0
  5 34  1  6  0  0  0
  6  7  2  0  0  0  0
  6 12  1  0  0  0  0
  8  9  1  0  0  0  0
  8 10  1  0  0  0  0
  8 35  1  6  0  0  0
  9 11  1  0  0  0  0
  9 36  1  0  0  0  0
  9 37  1  0  0  0  0
 10 38  1  0  0  0  0
 10 39  1  0  0  0  0
 10 40  1  0  0  0  0
 11 41  1  0  0  0  0
 11 42  1  0  0  0  0
 11 43  1  0  0  0  0
 12 13  1  0  0  0  0
 12 18  1  0  0  0  0
 13 14  1  0  0  0  0
 13 16  1  0  0  0  0
 13 44  1  6  0  0  0
 14 15  2  0  0  0  0
 14 19  1  0  0  0  0
 16 17  1  0  0  0  0
 16 45  1  0  0  0  0
 16 46  1  0  0  0  0
 17 18  1  0  0  0  0
 17 47  1  0  0  0  0
 17 48  1  0  0  0  0
 18 49  1  0  0  0  0
 18 50  1  0  0  0  0
 19 20  1  0  0  0  0
 19 51  1  0  0  0  0
 20 21  1  0  0  0  0
 20 23  1  0  0  0  0
 20 52  1  1  0  0  0
 21 22  1  0  0  0  0
 21 53  1  0  0  0  0
 21 54  1  0  0  0  0
 22 55  1  0  0  0  0
 23 24  1  0  0  0  0
 23 56  1  0  0  0  0
 23 57  1  0  0  0  0
 24 25  2  0  0  0  0
 24 26  1  0  0  0  0
 25 27  1  0  0  0  0
 25 58  1  0  0  0  0
 26 28  2  0  0  0  0
 26 59  1  0  0  0  0
 27 29  2  0  0  0  0
 27 60  1  0  0  0  0
 28 29  1  0  0  0  0
 28 61  1  0  0  0  0
 29 62  1  0  0  0  0
M  END
