1ke2_ligand
 OpenBabel08222323343D

 66 67  0  0  1  0  0  0  0  0999 V2000
   23.4560   12.9670    3.5140 N   0  0  0  0  0  0  0  0  0  0  0  0
   23.1620   11.7020    4.0460 C   0  0  2  0  0  3  0  0  0  0  0  0
   23.8220   14.0920    4.4400 C   0  0  0  0  0  0  0  0  0  0  0  0
   22.6550   10.8510    3.1140 N   0  0  0  0  0  0  0  0  0  0  0  0
   22.9440   12.5700    6.1200 C   0  0  1  0  0  0  0  0  0  0  0  0
   24.0970   13.5670    5.8440 C   0  0  0  0  0  0  0  0  0  0  0  0
   22.7460   11.4720    5.3230 N   0  0  0  0  0  0  0  0  0  0  0  0
   22.0260   11.2550    7.9990 N   0  3  0  0  0  0  0  0  0  0  0  0
   23.2530   11.8580    7.4710 C   0  0  2  0  0  0  0  0  0  0  0  0
   23.8740   12.7900    8.5000 C   0  0  0  0  0  0  0  0  0  0  0  0
   25.0520   13.1380    8.4380 O   0  0  0  0  0  0  0  0  0  0  0  0
   23.0610   13.1800    9.4810 N   0  0  0  0  0  0  0  0  0  0  0  0
   23.4980   14.0280   10.5830 C   0  0  2  0  0  0  0  0  0  0  0  0
   24.4700   13.2720   11.4810 C   0  0  0  0  0  0  0  0  0  0  0  0
   24.1980   12.1470   11.9060 O   0  0  0  0  0  0  0  0  0  0  0  0
   22.3050   14.5050   11.4060 C   0  0  0  0  0  0  0  0  0  0  0  0
   21.5810   15.7940   11.0340 C   0  0  0  0  0  0  0  0  0  0  0  0
   21.6390   16.0970    9.5470 C   0  0  0  0  0  0  0  0  0  0  0  0
   20.1240   15.7210   11.4740 C   0  0  0  0  0  0  0  0  0  0  0  0
   25.6190   13.8590   11.8030 N   0  0  0  0  0  0  0  0  0  0  0  0
   26.5250   13.1470   12.7050 C   0  0  2  0  0  0  0  0  0  0  0  0
   26.4730   13.7580   14.1020 C   0  0  0  0  0  0  0  0  0  0  0  0
   27.1580   12.9280   15.0600 O   0  0  0  0  0  0  0  0  0  0  0  0
   27.9360   13.1720   12.1300 C   0  0  0  0  0  0  0  0  0  0  0  0
   28.2050   12.0260   11.1630 C   0  0  0  0  0  0  0  0  0  0  0  0
   29.1820   12.1440   10.1850 C   0  0  0  0  0  0  0  0  0  0  0  0
   27.4670   10.8550   11.2620 C   0  0  0  0  0  0  0  0  0  0  0  0
   29.4240   11.0970    9.3100 C   0  0  0  0  0  0  0  0  0  0  0  0
   27.7070    9.8090   10.3870 C   0  0  0  0  0  0  0  0  0  0  0  0
   28.6850    9.9280    9.4090 C   0  0  0  0  0  0  0  0  0  0  0  0
   23.4211   13.1229    2.4965 H   0  0  0  0  0  0  0  0  0  0  0  0
   22.9909   14.8115    4.4801 H   0  0  0  0  0  0  0  0  0  0  0  0
   24.7237   14.5941    4.0594 H   0  0  0  0  0  0  0  0  0  0  0  0
   22.3984    9.8896    3.3799 H   0  0  0  0  0  0  0  0  0  0  0  0
   22.5277   11.1680    2.1423 H   0  0  0  0  0  0  0  0  0  0  0  0
   22.0103   13.1497    6.1666 H   0  0  0  0  0  0  0  0  0  0  0  0
   24.0837   14.3884    6.5755 H   0  0  0  0  0  0  0  0  0  0  0  0
   25.0703   13.0560    5.8840 H   0  0  0  0  0  0  0  0  0  0  0  0
   22.3348   10.5855    5.6484 H   0  0  0  0  0  0  0  0  0  0  0  0
   22.2270   10.7947    8.8729 H   0  0  0  0  0  0  0  0  0  0  0  0
   21.6713   10.5814    7.3383 H   0  0  0  0  0  0  0  0  0  0  0  0
   21.3358   11.9741    8.1490 H   0  0  0  0  0  0  0  0  0  0  0  0
   23.9754   11.0530    7.2707 H   0  0  0  0  0  0  0  0  0  0  0  0
   22.1081   12.8773    9.4602 H   0  0  0  0  0  0  0  0  0  0  0  0
   24.0119   14.9065   10.1657 H   0  0  0  0  0  0  0  0  0  0  0  0
   22.6628   14.6300   12.4386 H   0  0  0  0  0  0  0  0  0  0  0  0
   21.5556   13.7004   11.3724 H   0  0  0  0  0  0  0  0  0  0  0  0
   22.0685   16.6218   11.5697 H   0  0  0  0  0  0  0  0  0  0  0  0
   21.1015   17.0347    9.3427 H   0  0  0  0  0  0  0  0  0  0  0  0
   21.1689   15.2754    8.9867 H   0  0  0  0  0  0  0  0  0  0  0  0
   22.6886   16.2005    9.2345 H   0  0  0  0  0  0  0  0  0  0  0  0
   20.0768   15.5016   12.5509 H   0  0  0  0  0  0  0  0  0  0  0  0
   19.6115   14.9244   10.9147 H   0  0  0  0  0  0  0  0  0  0  0  0
   19.6319   16.6843   11.2741 H   0  0  0  0  0  0  0  0  0  0  0  0
   25.8567   14.7598   11.4397 H   0  0  0  0  0  0  0  0  0  0  0  0
   26.1983   12.0991   12.7763 H   0  0  0  0  0  0  0  0  0  0  0  0
   25.4218   13.8657   14.4075 H   0  0  0  0  0  0  0  0  0  0  0  0
   26.9514   14.7483   14.0785 H   0  0  0  0  0  0  0  0  0  0  0  0
   27.1105   13.3307   15.9191 H   0  0  0  0  0  0  0  0  0  0  0  0
   28.6542   13.1057   12.9605 H   0  0  0  0  0  0  0  0  0  0  0  0
   28.0800   14.1226   11.5956 H   0  0  0  0  0  0  0  0  0  0  0  0
   29.7582   13.0587   10.1050 H   0  0  0  0  0  0  0  0  0  0  0  0
   26.7025   10.7591   12.0245 H   0  0  0  0  0  0  0  0  0  0  0  0
   30.1902   11.1918    8.5490 H   0  0  0  0  0  0  0  0  0  0  0  0
   27.1297    8.8949   10.4659 H   0  0  0  0  0  0  0  0  0  0  0  0
   28.8706    9.1086    8.7240 H   0  0  0  0  0  0  0  0  0  0  0  0
  1  2  1  0  0  0  0
  1  3  1  0  0  0  0
  1 31  1  0  0  0  0
  2  4  1  6  0  0  0
  2  7  1  0  0  0  0
  3  6  1  0  0  0  0
  3 32  1  0  0  0  0
  3 33  1  0  0  0  0
  4 34  1  0  0  0  0
  4 35  1  0  0  0  0
  5  7  1  0  0  0  0
  5  9  1  0  0  0  0
  5 36  1  1  0  0  0
  6  5  1  0  0  0  0
  6 37  1  0  0  0  0
  6 38  1  0  0  0  0
  7 39  1  0  0  0  0
  8 40  1  0  0  0  0
  8 41  1  0  0  0  0
  8 42  1  0  0  0  0
  9  8  1  0  0  0  0
  9 10  1  0  0  0  0
  9 43  1  6  0  0  0
 10 11  2  0  0  0  0
 10 12  1  0  0  0  0
 12 13  1  0  0  0  0
 12 44  1  0  0  0  0
 13 14  1  0  0  0  0
 13 16  1  0  0  0  0
 13 45  1  6  0  0  0
 14 15  2  0  0  0  0
 14 20  1  0  0  0  0
 16 17  1  0  0  0  0
 16 46  1  0  0  0  0
 16 47  1  0  0  0  0
 17 18  1  0  0  0  0
 17 19  1  0  0  0  0
 17 48  1  0  0  0  0
 18 49  1  0  0  0  0
 18 50  1  0  0  0  0
 18 51  1  0  0  0  0
 19 52  1  0  0  0  0
 19 53  1  0  0  0  0
 19 54  1  0  0  0  0
 20 21  1  0  0  0  0
 20 55  1  0  0  0  0
 21 22  1  0  0  0  0
 21 24  1  0  0  0  0
 21 56  1  1  0  0  0
 22 23  1  0  0  0  0
 22 57  1  0  0  0  0
 22 58  1  0  0  0  0
 23 59  1  0  0  0  0
 24 25  1  0  0  0  0
 24 60  1  0  0  0  0
 24 61  1  0  0  0  0
 25 26  2  0  0  0  0
 25 27  1  0  0  0  0
 26 28  1  0  0  0  0
 26 62  1  0  0  0  0
 27 29  2  0  0  0  0
 27 63  1  0  0  0  0
 28 30  2  0  0  0  0
 28 64  1  0  0  0  0
 29 30  1  0  0  0  0
 29 65  1  0  0  0  0
 30 66  1  0  0  0  0
M  CHG  1   8   1
M  END
