1ke5_ligand
 OpenBabel08222323343D

 38 40  0  0  0  0  0  0  0  0999 V2000
   -9.5330   52.7730   40.6960 N   0  0  0  0  0  0  0  0  0  0  0  0
   -9.9690   51.9100   39.7440 C   0  0  0  0  0  0  0  0  0  0  0  0
   -9.3390   50.5690   39.9840 C   0  0  0  0  0  0  0  0  0  0  0  0
   -7.5730   49.8180   41.8530 C   0  0  0  0  0  0  0  0  0  0  0  0
   -6.8050   50.3380   43.0180 C   0  0  0  0  0  0  0  0  0  0  0  0
   -6.9720   51.7510   43.4380 C   0  0  0  0  0  0  0  0  0  0  0  0
   -7.8640   52.6690   42.6680 C   0  0  0  0  0  0  0  0  0  0  0  0
   -8.6350   52.1420   41.5260 C   0  0  0  0  0  0  0  0  0  0  0  0
   -8.4880   50.7530   41.1260 C   0  0  0  0  0  0  0  0  0  0  0  0
  -10.7110   52.1550   38.7830 O   0  0  0  0  0  0  0  0  0  0  0  0
   -9.4920   49.4720   39.2340 C   0  0  0  0  0  0  0  0  0  0  0  0
  -10.2290   49.4510   37.9610 N   0  0  0  0  0  0  0  0  0  0  0  0
  -10.2480   48.4250   37.0840 C   0  0  0  0  0  0  0  0  0  0  0  0
   -9.1600   47.3970   36.9390 C   0  0  0  0  0  0  0  0  0  0  0  0
   -9.2920   46.3320   35.9690 C   0  0  0  0  0  0  0  0  0  0  0  0
  -10.4960   46.2570   35.1340 C   0  0  0  0  0  0  0  0  0  0  0  0
  -11.5720   47.2770   35.2400 C   0  0  0  0  0  0  0  0  0  0  0  0
  -11.4480   48.3620   36.2220 C   0  0  0  0  0  0  0  0  0  0  0  0
  -10.4970   45.1020   33.8130 S   0  0  0  0  0  0  0  0  0  0  0  0
   -9.4930   45.5150   32.8900 O   0  0  0  0  0  0  0  0  0  0  0  0
  -11.8370   44.9790   33.3220 O   0  0  0  0  0  0  0  0  0  0  0  0
  -10.1440   43.5980   34.3930 N   0  0  0  0  0  0  0  0  0  0  0  0
   -8.9430   43.1360   35.0740 C   0  0  0  0  0  0  0  0  0  0  0  0
   -9.8216   53.7266   40.7817 H   0  0  0  0  0  0  0  0  0  0  0  0
   -7.4716   48.7856   41.5386 H   0  0  0  0  0  0  0  0  0  0  0  0
   -6.1266   49.6866   43.5570 H   0  0  0  0  0  0  0  0  0  0  0  0
   -6.4432   52.1197   44.3095 H   0  0  0  0  0  0  0  0  0  0  0  0
   -7.9441   53.7137   42.9460 H   0  0  0  0  0  0  0  0  0  0  0  0
   -9.0461   48.5427   39.5854 H   0  0  0  0  0  0  0  0  0  0  0  0
  -10.7763   50.2892   37.7186 H   0  0  0  0  0  0  0  0  0  0  0  0
   -8.2751   47.4542   37.5626 H   0  0  0  0  0  0  0  0  0  0  0  0
   -8.5059   45.5936   35.8597 H   0  0  0  0  0  0  0  0  0  0  0  0
  -12.4426   47.2204   34.5966 H   0  0  0  0  0  0  0  0  0  0  0  0
  -12.2281   49.1090   36.3140 H   0  0  0  0  0  0  0  0  0  0  0  0
  -10.8544   42.9073   34.2578 H   0  0  0  0  0  0  0  0  0  0  0  0
   -9.0491   42.0694   35.3213 H   0  0  0  0  0  0  0  0  0  0  0  0
   -8.8004   43.7143   35.9988 H   0  0  0  0  0  0  0  0  0  0  0  0
   -8.0722   43.2751   34.4165 H   0  0  0  0  0  0  0  0  0  0  0  0
  1  8  1  0  0  0  0
  1  2  1  0  0  0  0
  1 24  1  0  0  0  0
  2 10  2  0  0  0  0
  2  3  1  0  0  0  0
  3 11  2  0  0  0  0
  3  9  1  0  0  0  0
  4  5  1  0  0  0  0
  4 25  1  0  0  0  0
  5  6  2  0  0  0  0
  5 26  1  0  0  0  0
  6  7  1  0  0  0  0
  6 27  1  0  0  0  0
  7  8  2  0  0  0  0
  7 28  1  0  0  0  0
  9  8  1  0  0  0  0
  9  4  2  0  0  0  0
 11 12  1  0  0  0  0
 11 29  1  0  0  0  0
 12 13  1  0  0  0  0
 12 30  1  0  0  0  0
 13 18  2  0  0  0  0
 13 14  1  0  0  0  0
 14 15  2  0  0  0  0
 14 31  1  0  0  0  0
 15 16  1  0  0  0  0
 15 32  1  0  0  0  0
 16 19  1  0  0  0  0
 16 17  2  0  0  0  0
 17 18  1  0  0  0  0
 17 33  1  0  0  0  0
 18 34  1  0  0  0  0
 19 22  1  0  0  0  0
 19 21  2  0  0  0  0
 19 20  2  0  0  0  0
 22 23  1  0  0  0  0
 22 35  1  0  0  0  0
 23 36  1  0  0  0  0
 23 37  1  0  0  0  0
 23 38  1  0  0  0  0
M  END
