1ke8_ligand
 OpenBabel08222323343D

 41 44  0  0  0  0  0  0  0  0999 V2000
  -10.8190   52.1550   11.8230 O   0  0  0  0  0  0  0  0  0  0  0  0
  -10.0070   51.9120   12.7190 C   0  0  0  0  0  0  0  0  0  0  0  0
   -9.5010   52.7810   13.6290 N   0  0  0  0  0  0  0  0  0  0  0  0
   -8.6060   52.1330   14.4470 C   0  0  0  0  0  0  0  0  0  0  0  0
   -7.8120   52.6600   15.5750 C   0  0  0  0  0  0  0  0  0  0  0  0
   -6.9680   51.7230   16.3700 C   0  0  0  0  0  0  0  0  0  0  0  0
   -6.9040   50.2770   16.0150 C   0  0  0  0  0  0  0  0  0  0  0  0
   -7.6760   49.7610   14.8490 C   0  0  0  0  0  0  0  0  0  0  0  0
   -8.5240   50.7210   14.0790 C   0  0  0  0  0  0  0  0  0  0  0  0
   -9.3810   50.5430   12.9320 C   0  0  0  0  0  0  0  0  0  0  0  0
   -9.5920   49.4490   12.1800 C   0  0  0  0  0  0  0  0  0  0  0  0
  -10.3110   49.4570   10.8820 N   0  0  0  0  0  0  0  0  0  0  0  0
  -10.2960   48.4740    9.9550 C   0  0  0  0  0  0  0  0  0  0  0  0
   -9.1870   47.4670    9.7740 C   0  0  0  0  0  0  0  0  0  0  0  0
   -9.2960   46.4410    8.7540 C   0  0  0  0  0  0  0  0  0  0  0  0
  -10.4760   46.4250    7.8570 C   0  0  0  0  0  0  0  0  0  0  0  0
  -11.5790   47.3970    8.0280 C   0  0  0  0  0  0  0  0  0  0  0  0
  -11.4850   48.4260    9.0790 C   0  0  0  0  0  0  0  0  0  0  0  0
  -10.5600   45.1590    6.6180 S   0  0  0  0  0  0  0  0  0  0  0  0
  -11.6480   45.3940    5.7120 O   0  0  0  0  0  0  0  0  0  0  0  0
   -9.2440   45.0910    6.0680 O   0  0  0  0  0  0  0  0  0  0  0  0
  -10.8840   43.7170    7.4040 N   0  0  0  0  0  0  0  0  0  0  0  0
  -12.1880   43.4200    8.0910 C   0  0  0  0  0  0  0  0  0  0  0  0
  -12.3050   42.4420    9.4760 S   0  0  0  0  0  0  0  0  0  0  0  0
  -13.9770   42.6840    9.6300 C   0  0  0  0  0  0  0  0  0  0  0  0
  -14.4510   43.4440    8.5470 C   0  0  0  0  0  0  0  0  0  0  0  0
  -13.4300   43.8560    7.7220 N   0  0  0  0  0  0  0  0  0  0  0  0
   -9.7429   53.7490   13.6951 H   0  0  0  0  0  0  0  0  0  0  0  0
   -7.8425   53.7151   15.8219 H   0  0  0  0  0  0  0  0  0  0  0  0
   -6.3967   52.0961   17.2123 H   0  0  0  0  0  0  0  0  0  0  0  0
   -6.2960   49.6005   16.6047 H   0  0  0  0  0  0  0  0  0  0  0  0
   -7.6237   48.7157   14.5666 H   0  0  0  0  0  0  0  0  0  0  0  0
   -9.2113   48.4968   12.5465 H   0  0  0  0  0  0  0  0  0  0  0  0
  -10.8753   50.2914   10.6671 H   0  0  0  0  0  0  0  0  0  0  0  0
   -8.3079   47.5102   10.4067 H   0  0  0  0  0  0  0  0  0  0  0  0
   -8.5200   45.6914    8.6486 H   0  0  0  0  0  0  0  0  0  0  0  0
  -12.4502   47.3524    7.3845 H   0  0  0  0  0  0  0  0  0  0  0  0
  -12.2855   49.1453    9.2089 H   0  0  0  0  0  0  0  0  0  0  0  0
  -10.1718   43.0152    7.4173 H   0  0  0  0  0  0  0  0  0  0  0  0
  -14.5913   42.3068   10.4462 H   0  0  0  0  0  0  0  0  0  0  0  0
  -15.5013   43.6788    8.3807 H   0  0  0  0  0  0  0  0  0  0  0  0
  1  2  2  0  0  0  0
  2 10  1  0  0  0  0
  2  3  1  0  0  0  0
  3  4  1  0  0  0  0
  3 28  1  0  0  0  0
  4  9  2  0  0  0  0
  4  5  1  0  0  0  0
  5  6  2  0  0  0  0
  5 29  1  0  0  0  0
  6  7  1  0  0  0  0
  6 30  1  0  0  0  0
  7  8  2  0  0  0  0
  7 31  1  0  0  0  0
  8  9  1  0  0  0  0
  8 32  1  0  0  0  0
  9 10  1  0  0  0  0
 10 11  2  0  0  0  0
 11 12  1  0  0  0  0
 11 33  1  0  0  0  0
 12 13  1  0  0  0  0
 12 34  1  0  0  0  0
 13 18  2  0  0  0  0
 13 14  1  0  0  0  0
 14 15  2  0  0  0  0
 14 35  1  0  0  0  0
 15 16  1  0  0  0  0
 15 36  1  0  0  0  0
 16 19  1  0  0  0  0
 16 17  2  0  0  0  0
 17 18  1  0  0  0  0
 17 37  1  0  0  0  0
 18 38  1  0  0  0  0
 19 22  1  0  0  0  0
 19 21  2  0  0  0  0
 19 20  2  0  0  0  0
 22 23  1  0  0  0  0
 22 39  1  0  0  0  0
 23 27  2  0  0  0  0
 23 24  1  0  0  0  0
 24 25  1  0  0  0  0
 25 26  2  0  0  0  0
 25 40  1  0  0  0  0
 26 27  1  0  0  0  0
 26 41  1  0  0  0  0
M  END
