1kf0_ligand
 OpenBabel08222323343D

 45 47  0  0  1  0  0  0  0  0999 V2000
    9.5650   -0.7210   24.4990 P   0  0  0  0  0  0  0  0  0  0  0  0
    9.5580   -1.9430   25.3310 O   0  0  0  0  0  1  0  0  0  0  0  0
    8.2190   -0.1530   24.2760 O   0  0  0  0  0  1  0  0  0  0  0  0
   10.5680    0.2770   24.9220 O   0  0  0  0  0  0  0  0  0  0  0  0
    9.7390   -0.1940   21.4120 P   0  0  2  0  0  0  0  0  0  0  0  0
    8.6580   -0.8620   20.6200 O   0  0  0  0  0  1  0  0  0  0  0  0
   11.0430    0.1630   20.7530 O   0  0  0  0  0  0  0  0  0  0  0  0
   10.1320   -1.2880   22.8410 C   0  0  0  0  0  0  0  0  0  0  0  0
    9.4590    2.6690   21.9500 P   0  0  1  0  0  0  0  0  0  0  0  0
   10.7040    2.9020   22.6890 O   0  0  0  0  0  1  0  0  0  0  0  0
    9.3130    3.1580   20.5720 O   0  0  0  0  0  0  0  0  0  0  0  0
    9.1310    1.1160   21.9790 O   0  0  0  0  0  0  0  0  0  0  0  0
    8.2720    3.2090   22.8060 O   0  0  0  0  0  0  0  0  0  0  0  0
    6.8950    3.1420   22.3850 C   0  0  0  0  0  0  0  0  0  0  0  0
    6.0380    2.8650   23.5820 C   0  0  1  0  0  0  0  0  0  0  0  0
    6.1960    3.9950   24.4600 O   0  0  0  0  0  0  0  0  0  0  0  0
    4.5590    2.7680   23.2980 C   0  0  1  0  0  0  0  0  0  0  0  0
    4.1120    1.4180   23.5260 O   0  0  0  0  0  0  0  0  0  0  0  0
    3.9210    3.7810   24.2320 C   0  0  1  0  0  0  0  0  0  0  0  0
    2.8200    3.2690   24.9720 O   0  0  0  0  0  0  0  0  0  0  0  0
    5.0270    4.1220   25.2540 C   0  0  2  0  0  0  0  0  0  0  0  0
    4.9600    5.5180   25.7800 N   0  0  0  0  0  0  0  0  0  0  0  0
    4.8440    6.7060   25.0930 C   0  0  0  0  0  0  0  0  0  0  0  0
    4.8110    7.7710   25.8340 N   0  0  0  0  0  0  0  0  0  0  0  0
    4.9120    7.2540   27.1120 C   0  0  0  0  0  0  0  0  0  0  0  0
    4.9370    7.8660   28.4010 C   0  0  0  0  0  0  0  0  0  0  0  0
    4.8530    9.1810   28.5340 N   0  0  0  0  0  0  0  0  0  0  0  0
    5.0480    7.0740   29.5010 N   0  0  0  0  0  0  0  0  0  0  0  0
    5.1320    5.7460   29.3510 C   0  0  0  0  0  0  0  0  0  0  0  0
    5.1200    5.0430   28.2000 N   0  0  0  0  0  0  0  0  0  0  0  0
    5.0060    5.8800   27.0980 C   0  0  0  0  0  0  0  0  0  0  0  0
    9.6697   -2.2672   22.6478 H   0  0  0  0  0  0  0  0  0  0  0  0
   11.2254   -1.4006   22.8834 H   0  0  0  0  0  0  0  0  0  0  0  0
    6.7725    2.3349   21.6477 H   0  0  0  0  0  0  0  0  0  0  0  0
    6.5996    4.1000   21.9324 H   0  0  0  0  0  0  0  0  0  0  0  0
    6.3778    1.9369   24.0648 H   0  0  0  0  0  0  0  0  0  0  0  0
    4.3473    3.0402   22.2535 H   0  0  0  0  0  0  0  0  0  0  0  0
    3.1809    1.3593   23.3466 H   0  0  0  0  0  0  0  0  0  0  0  0
    3.6055    4.6701   23.6664 H   0  0  0  0  0  0  0  0  0  0  0  0
    2.1451    2.9756   24.3712 H   0  0  0  0  0  0  0  0  0  0  0  0
    5.0182    3.4114   26.0936 H   0  0  0  0  0  0  0  0  0  0  0  0
    4.7843    6.7487   24.0065 H   0  0  0  0  0  0  0  0  0  0  0  0
    4.8726    9.6061   29.4720 H   0  0  0  0  0  0  0  0  0  0  0  0
    4.7681    9.7787   27.6994 H   0  0  0  0  0  0  0  0  0  0  0  0
    5.2201    5.1671   30.2632 H   0  0  0  0  0  0  0  0  0  0  0  0
  1  2  1  0  0  0  0
  1  3  1  0  0  0  0
  1  4  2  0  0  0  0
  5  6  1  6  0  0  0
  5  7  2  0  0  0  0
  5  8  1  0  0  0  0
  8  1  1  0  0  0  0
  8 32  1  0  0  0  0
  8 33  1  0  0  0  0
  9 10  1  1  0  0  0
  9 11  2  0  0  0  0
  9 12  1  0  0  0  0
  9 13  1  0  0  0  0
 12  5  1  0  0  0  0
 13 14  1  0  0  0  0
 14 15  1  0  0  0  0
 14 34  1  0  0  0  0
 14 35  1  0  0  0  0
 15 16  1  0  0  0  0
 15 17  1  0  0  0  0
 15 36  1  1  0  0  0
 16 21  1  0  0  0  0
 17 18  1  0  0  0  0
 17 19  1  0  0  0  0
 17 37  1  6  0  0  0
 18 38  1  0  0  0  0
 19 20  1  0  0  0  0
 19 21  1  0  0  0  0
 19 39  1  6  0  0  0
 20 40  1  0  0  0  0
 21 22  1  0  0  0  0
 21 41  1  1  0  0  0
 22 23  1  0  0  0  0
 22 31  1  0  0  0  0
 23 24  2  0  0  0  0
 23 42  1  0  0  0  0
 24 25  1  0  0  0  0
 25 26  2  0  0  0  0
 25 31  1  0  0  0  0
 26 27  1  0  0  0  0
 26 28  1  0  0  0  0
 27 43  1  0  0  0  0
 27 44  1  0  0  0  0
 28 29  2  0  0  0  0
 29 30  1  0  0  0  0
 29 45  1  0  0  0  0
 30 31  2  0  0  0  0
M  END
