1kl3_ligand
 OpenBabel08222323343D

 97 99  0  0  1  0  0  0  0  0999 V2000
   11.7480   -0.0020   34.0530 N   0  3  0  0  0  0  0  0  0  0  0  0
   11.6390    1.4920   34.1360 C   0  0  2  0  0  0  0  0  0  0  0  0
   12.7950    2.1520   33.3880 C   0  0  0  0  0  0  0  0  0  0  0  0
   13.8410    2.4190   33.9460 O   0  0  0  0  0  0  0  0  0  0  0  0
   11.6190    1.9930   35.5860 C   0  0  0  0  0  0  0  0  0  0  0  0
   12.8820    1.9400   36.2520 O   0  0  0  0  0  0  0  0  0  0  0  0
   12.6650    2.4310   32.1060 N   0  0  0  0  0  0  0  0  0  0  0  0
   13.7990    3.0940   31.4670 C   0  0  2  0  0  0  0  0  0  0  0  0
   13.6270    4.6080   31.5290 C   0  0  0  0  0  0  0  0  0  0  0  0
   12.5060    5.1180   31.4120 O   0  0  0  0  0  0  0  0  0  0  0  0
   13.8020    2.5630   30.0380 C   0  0  0  0  0  0  0  0  0  0  0  0
   15.0120    2.9680   29.2720 C   0  0  0  0  0  0  0  0  0  0  0  0
   15.1420    4.2430   28.7610 N   0  0  0  0  0  0  0  0  0  0  0  0
   16.1380    2.2850   28.9460 C   0  0  0  0  0  0  0  0  0  0  0  0
   16.3240    4.3250   28.1710 C   0  0  0  0  0  0  0  0  0  0  0  0
   16.9470    3.1540   28.2630 N   0  0  0  0  0  0  0  0  0  0  0  0
   14.7300    5.3410   31.6740 N   0  0  0  0  0  0  0  0  0  0  0  0
   14.6360    6.7940   31.7520 C   0  0  2  0  0  0  0  0  0  0  0  0
   13.9090    7.3890   30.5630 C   0  0  0  0  0  0  0  0  0  0  0  0
   13.1600    8.3510   30.7290 O   0  0  0  0  0  0  0  0  0  0  0  0
   16.0970    7.2570   31.7370 C   0  0  0  0  0  0  0  0  0  0  0  0
   16.9330    6.0750   31.8530 C   0  0  0  0  0  0  0  0  0  0  0  0
   16.1280    4.8800   31.7040 C   0  0  0  0  0  0  0  0  0  0  0  0
   14.0330    6.8510   29.3530 N   0  0  0  0  0  0  0  0  0  0  0  0
   13.3680    7.5680   28.2550 C   0  0  2  0  0  0  0  0  0  0  0  0
   11.8610    7.7470   28.4710 C   0  0  0  0  0  0  0  0  0  0  0  0
   11.2480    8.7040   27.9820 O   0  0  0  0  0  0  0  0  0  0  0  0
   13.5160    6.7470   26.9660 C   0  0  0  0  0  0  0  0  0  0  0  0
   13.1820    7.4450   25.7360 C   0  0  0  0  0  0  0  0  0  0  0  0
   13.5500    6.6790   24.4470 C   0  0  0  0  0  0  0  0  0  0  0  0
   12.9460    6.8250   23.3770 O   0  0  0  0  0  0  0  0  0  0  0  0
   14.5750    5.9160   24.5660 N   0  0  0  0  0  0  0  0  0  0  0  0
   11.2610    6.8700   29.2630 N   0  0  0  0  0  0  0  0  0  0  0  0
    9.8070    6.8630   29.3740 C   0  0  2  0  0  0  0  0  0  0  0  0
    9.2910    7.1030   30.7810 C   0  0  0  0  0  0  0  0  0  0  0  0
    8.1300    6.8160   31.0450 O   0  0  0  0  0  0  0  0  0  0  0  0
    9.2740    5.4980   28.9930 C   0  0  0  0  0  0  0  0  0  0  0  0
    9.8920    4.9660   27.7160 C   0  0  0  0  0  0  0  0  0  0  0  0
    9.6370    5.6230   26.5240 C   0  0  0  0  0  0  0  0  0  0  0  0
   10.7200    3.8790   27.7240 C   0  0  0  0  0  0  0  0  0  0  0  0
   10.1930    5.1940   25.3240 C   0  0  0  0  0  0  0  0  0  0  0  0
   11.2940    3.4420   26.4980 C   0  0  0  0  0  0  0  0  0  0  0  0
   11.0210    4.1220   25.3210 C   0  0  0  0  0  0  0  0  0  0  0  0
   10.1330    7.6580   31.6270 N   0  0  0  0  0  0  0  0  0  0  0  0
    9.7960    7.7870   33.0470 C   0  0  2  0  0  0  0  0  0  0  0  0
    8.8910    8.9960   33.2880 C   0  0  0  0  0  0  0  0  0  0  0  0
    8.7860    9.8140   32.3740 O   0  0  0  0  0  0  0  0  0  0  0  0
   11.0930    7.8780   33.8350 C   0  0  0  0  0  0  0  0  0  0  0  0
   11.7620    9.2360   33.8850 C   0  0  0  0  0  0  0  0  0  0  0  0
   13.1030    9.1090   34.5930 C   0  0  0  0  0  0  0  0  0  0  0  0
   13.9250   10.0500   34.4680 O   0  5  0  0  0  0  0  0  0  0  0  0
   13.3350    8.0380   35.2330 O   0  0  0  0  0  0  0  0  0  0  0  0
   10.9792   -0.4231   34.5506 H   0  0  0  0  0  0  0  0  0  0  0  0
   12.6183   -0.2989   34.4659 H   0  0  0  0  0  0  0  0  0  0  0  0
   11.7197   -0.2878   33.0868 H   0  0  0  0  0  0  0  0  0  0  0  0
   10.6954    1.7911   33.6563 H   0  0  0  0  0  0  0  0  0  0  0  0
   10.9065    1.3754   36.1524 H   0  0  0  0  0  0  0  0  0  0  0  0
   11.2766    3.0383   35.5830 H   0  0  0  0  0  0  0  0  0  0  0  0
   13.5089    2.4781   35.7830 H   0  0  0  0  0  0  0  0  0  0  0  0
   11.8347    2.2011   31.5983 H   0  0  0  0  0  0  0  0  0  0  0  0
   14.7379    2.8213   31.9710 H   0  0  0  0  0  0  0  0  0  0  0  0
   12.9124    2.9486   29.5184 H   0  0  0  0  0  0  0  0  0  0  0  0
   13.7595    1.4644   30.0717 H   0  0  0  0  0  0  0  0  0  0  0  0
   14.4434    4.9970   28.8269 H   0  0  0  0  0  0  0  0  0  0  0  0
   16.3568    1.2447   29.1822 H   0  0  0  0  0  0  0  0  0  0  0  0
   16.7242    5.2138   27.6855 H   0  0  0  0  0  0  0  0  0  0  0  0
   14.1317    7.0992   32.6807 H   0  0  0  0  0  0  0  0  0  0  0  0
   16.2848    7.9338   32.5835 H   0  0  0  0  0  0  0  0  0  0  0  0
   16.3153    7.7798   30.7941 H   0  0  0  0  0  0  0  0  0  0  0  0
   17.4168    6.0670   32.8408 H   0  0  0  0  0  0  0  0  0  0  0  0
   17.7030    6.0953   31.0677 H   0  0  0  0  0  0  0  0  0  0  0  0
   16.3809    4.3618   30.7672 H   0  0  0  0  0  0  0  0  0  0  0  0
   16.2895    4.2007   32.5540 H   0  0  0  0  0  0  0  0  0  0  0  0
   14.5484    6.0080   29.1990 H   0  0  0  0  0  0  0  0  0  0  0  0
   13.8403    8.5544   28.1366 H   0  0  0  0  0  0  0  0  0  0  0  0
   12.8582    5.8691   27.0463 H   0  0  0  0  0  0  0  0  0  0  0  0
   14.5624    6.4158   26.8938 H   0  0  0  0  0  0  0  0  0  0  0  0
   13.7173    8.4059   25.7296 H   0  0  0  0  0  0  0  0  0  0  0  0
   12.0976    7.6293   25.7287 H   0  0  0  0  0  0  0  0  0  0  0  0
   14.8914    5.3782   23.7846 H   0  0  0  0  0  0  0  0  0  0  0  0
   15.0573    5.8593   25.4402 H   0  0  0  0  0  0  0  0  0  0  0  0
   11.8054    6.2130   29.7845 H   0  0  0  0  0  0  0  0  0  0  0  0
    9.4024    7.6327   28.7003 H   0  0  0  0  0  0  0  0  0  0  0  0
    8.1854    5.5714   28.8534 H   0  0  0  0  0  0  0  0  0  0  0  0
    9.4923    4.7942   29.8097 H   0  0  0  0  0  0  0  0  0  0  0  0
    8.9889    6.4919   26.5265 H   0  0  0  0  0  0  0  0  0  0  0  0
   10.9360    3.3581   28.6498 H   0  0  0  0  0  0  0  0  0  0  0  0
    9.9660    5.7125   24.3995 H   0  0  0  0  0  0  0  0  0  0  0  0
   11.9459    2.5760   26.4840 H   0  0  0  0  0  0  0  0  0  0  0  0
   11.4732    3.7936   24.3922 H   0  0  0  0  0  0  0  0  0  0  0  0
   11.0141    7.9960   31.2962 H   0  0  0  0  0  0  0  0  0  0  0  0
    9.2531    6.8853   33.3667 H   0  0  0  0  0  0  0  0  0  0  0  0
    8.3609    9.1280   34.2301 H   0  0  0  0  0  0  0  0  0  0  0  0
   11.8063    7.1709   33.3866 H   0  0  0  0  0  0  0  0  0  0  0  0
   10.8769    7.5741   34.8699 H   0  0  0  0  0  0  0  0  0  0  0  0
   11.1215    9.9414   34.4346 H   0  0  0  0  0  0  0  0  0  0  0  0
   11.9204    9.6057   32.8612 H   0  0  0  0  0  0  0  0  0  0  0  0
  1  2  1  0  0  0  0
  1 53  1  0  0  0  0
  1 54  1  0  0  0  0
  1 55  1  0  0  0  0
  2  3  1  0  0  0  0
  2  5  1  0  0  0  0
  2 56  1  6  0  0  0
  3  4  2  0  0  0  0
  3  7  1  0  0  0  0
  5  6  1  0  0  0  0
  5 57  1  0  0  0  0
  5 58  1  0  0  0  0
  6 59  1  0  0  0  0
  7  8  1  0  0  0  0
  7 60  1  0  0  0  0
  8  9  1  0  0  0  0
  8 11  1  0  0  0  0
  8 61  1  1  0  0  0
  9 10  2  0  0  0  0
  9 17  1  0  0  0  0
 11 12  1  0  0  0  0
 11 62  1  0  0  0  0
 11 63  1  0  0  0  0
 12 13  1  0  0  0  0
 12 14  2  0  0  0  0
 13 15  1  0  0  0  0
 13 64  1  0  0  0  0
 14 16  1  0  0  0  0
 14 65  1  0  0  0  0
 15 16  2  0  0  0  0
 15 66  1  0  0  0  0
 17 18  1  0  0  0  0
 17 23  1  0  0  0  0
 18 19  1  0  0  0  0
 18 21  1  0  0  0  0
 18 67  1  1  0  0  0
 19 20  2  0  0  0  0
 19 24  1  0  0  0  0
 21 22  1  0  0  0  0
 21 68  1  0  0  0  0
 21 69  1  0  0  0  0
 22 23  1  0  0  0  0
 22 70  1  0  0  0  0
 22 71  1  0  0  0  0
 23 72  1  0  0  0  0
 23 73  1  0  0  0  0
 24 25  1  0  0  0  0
 24 74  1  0  0  0  0
 25 26  1  0  0  0  0
 25 28  1  0  0  0  0
 25 75  1  6  0  0  0
 26 27  2  0  0  0  0
 26 33  1  0  0  0  0
 28 29  1  0  0  0  0
 28 76  1  0  0  0  0
 28 77  1  0  0  0  0
 29 30  1  0  0  0  0
 29 78  1  0  0  0  0
 29 79  1  0  0  0  0
 30 31  2  0  0  0  0
 30 32  1  0  0  0  0
 32 80  1  0  0  0  0
 32 81  1  0  0  0  0
 33 34  1  0  0  0  0
 33 82  1  0  0  0  0
 34 35  1  0  0  0  0
 34 37  1  0  0  0  0
 34 83  1  6  0  0  0
 35 36  2  0  0  0  0
 35 44  1  0  0  0  0
 37 38  1  0  0  0  0
 37 84  1  0  0  0  0
 37 85  1  0  0  0  0
 38 39  2  0  0  0  0
 38 40  1  0  0  0  0
 39 41  1  0  0  0  0
 39 86  1  0  0  0  0
 40 42  2  0  0  0  0
 40 87  1  0  0  0  0
 41 43  2  0  0  0  0
 41 88  1  0  0  0  0
 42 43  1  0  0  0  0
 42 89  1  0  0  0  0
 43 90  1  0  0  0  0
 44 45  1  0  0  0  0
 44 91  1  0  0  0  0
 45 46  1  0  0  0  0
 45 48  1  0  0  0  0
 45 92  1  1  0  0  0
 46 47  2  0  0  0  0
 46 93  1  0  0  0  0
 48 49  1  0  0  0  0
 48 94  1  0  0  0  0
 48 95  1  0  0  0  0
 49 50  1  0  0  0  0
 49 96  1  0  0  0  0
 49 97  1  0  0  0  0
 50 51  1  0  0  0  0
 50 52  2  0  0  0  0
M  CHG  2   1   1  51  -1
M  END
