1kl5_ligand
 OpenBabel08222323343D

 82 84  0  0  1  0  0  0  0  0999 V2000
   11.5330    0.3250   34.0670 N   0  3  0  0  0  0  0  0  0  0  0  0
   11.5370    1.8240   34.1380 C   0  0  2  0  0  0  0  0  0  0  0  0
   12.7320    2.4260   33.3920 C   0  0  0  0  0  0  0  0  0  0  0  0
   13.8220    2.5500   33.9280 O   0  0  0  0  0  0  0  0  0  0  0  0
   11.6100    2.3360   35.5780 C   0  0  0  0  0  0  0  0  0  0  0  0
   12.9430    2.1940   36.0450 O   0  0  0  0  0  0  0  0  0  0  0  0
   12.5810    2.7670   32.1270 N   0  0  0  0  0  0  0  0  0  0  0  0
   13.6590    3.4450   31.4150 C   0  0  2  0  0  0  0  0  0  0  0  0
   13.5460    4.9750   31.4110 C   0  0  0  0  0  0  0  0  0  0  0  0
   12.4530    5.5460   31.2940 O   0  0  0  0  0  0  0  0  0  0  0  0
   13.5930    2.9100   30.0040 C   0  0  0  0  0  0  0  0  0  0  0  0
   14.7960    3.2450   29.1830 C   0  0  0  0  0  0  0  0  0  0  0  0
   14.9630    4.4830   28.6020 N   0  0  0  0  0  0  0  0  0  0  0  0
   15.8710    2.4960   28.8330 C   0  0  0  0  0  0  0  0  0  0  0  0
   16.1070    4.4870   27.9450 C   0  0  0  0  0  0  0  0  0  0  0  0
   16.6820    3.3000   28.0720 N   0  0  0  0  0  0  0  0  0  0  0  0
   14.6790    5.6720   31.5000 N   0  0  0  0  0  0  0  0  0  0  0  0
   14.6570    7.1400   31.5420 C   0  0  2  0  0  0  0  0  0  0  0  0
   14.0300    7.8020   30.3250 C   0  0  0  0  0  0  0  0  0  0  0  0
   13.5740    8.9220   30.4820 O   0  0  0  0  0  0  0  0  0  0  0  0
   16.1210    7.5520   31.5070 C   0  0  0  0  0  0  0  0  0  0  0  0
   16.8870    6.3370   31.6880 C   0  0  0  0  0  0  0  0  0  0  0  0
   16.0530    5.1360   31.5340 C   0  0  0  0  0  0  0  0  0  0  0  0
   14.0150    7.2070   29.1430 N   0  0  0  0  0  0  0  0  0  0  0  0
   13.3190    7.8620   28.0330 C   0  0  2  0  0  0  0  0  0  0  0  0
   11.8200    8.0350   28.3270 C   0  0  0  0  0  0  0  0  0  0  0  0
   11.1940    8.9550   27.7750 O   0  0  0  0  0  0  0  0  0  0  0  0
   13.4280    7.0220   26.7540 C   0  0  0  0  0  0  0  0  0  0  0  0
   12.9670    7.7140   25.4960 C   0  0  0  0  0  0  0  0  0  0  0  0
   13.3060    6.8750   24.2520 C   0  0  0  0  0  0  0  0  0  0  0  0
   12.6210    6.8810   23.2180 O   0  0  0  0  0  0  0  0  0  0  0  0
   14.3380    6.1310   24.3830 N   0  0  0  0  0  0  0  0  0  0  0  0
   11.2610    7.1800   29.1940 N   0  0  0  0  0  0  0  0  0  0  0  0
    9.8290    7.2140   29.5000 C   0  0  2  0  0  0  0  0  0  0  0  0
    9.5290    7.4700   30.9770 C   0  0  0  0  0  0  0  0  0  0  0  0
    8.4290    7.1090   31.3880 O   0  0  0  0  0  0  0  0  0  0  0  0
    9.1770    5.8920   29.0840 C   0  0  0  0  0  0  0  0  0  0  0  0
    9.6880    5.3960   27.7690 C   0  0  0  0  0  0  0  0  0  0  0  0
    9.4040    6.1200   26.6290 C   0  0  0  0  0  0  0  0  0  0  0  0
   10.4510    4.2450   27.6770 C   0  0  0  0  0  0  0  0  0  0  0  0
    9.8760    5.6900   25.4070 C   0  0  0  0  0  0  0  0  0  0  0  0
   10.9220    3.8150   26.4540 C   0  0  0  0  0  0  0  0  0  0  0  0
   10.6400    4.5350   25.3100 C   0  0  0  0  0  0  0  0  0  0  0  0
   10.7346   -0.0329   34.5676 H   0  0  0  0  0  0  0  0  0  0  0  0
   12.3785   -0.0334   34.4827 H   0  0  0  0  0  0  0  0  0  0  0  0
   11.4831    0.0344   33.1031 H   0  0  0  0  0  0  0  0  0  0  0  0
   10.6068    2.1876   33.6771 H   0  0  0  0  0  0  0  0  0  0  0  0
   10.9306    1.7497   36.2141 H   0  0  0  0  0  0  0  0  0  0  0  0
   11.3180    3.3961   35.6091 H   0  0  0  0  0  0  0  0  0  0  0  0
   13.5267    2.7002   35.4922 H   0  0  0  0  0  0  0  0  0  0  0  0
   11.7245    2.5601   31.6541 H   0  0  0  0  0  0  0  0  0  0  0  0
   14.6211    3.1742   31.8744 H   0  0  0  0  0  0  0  0  0  0  0  0
   12.7060    3.3350   29.5115 H   0  0  0  0  0  0  0  0  0  0  0  0
   13.4972    1.8152   30.0508 H   0  0  0  0  0  0  0  0  0  0  0  0
   14.3052    5.2727   28.6693 H   0  0  0  0  0  0  0  0  0  0  0  0
   16.0551    1.4573   29.1035 H   0  0  0  0  0  0  0  0  0  0  0  0
   16.5133    5.3300   27.3880 H   0  0  0  0  0  0  0  0  0  0  0  0
   14.1536    7.4833   32.4578 H   0  0  0  0  0  0  0  0  0  0  0  0
   16.3365    8.2630   32.3182 H   0  0  0  0  0  0  0  0  0  0  0  0
   16.3638    8.0152   30.5393 H   0  0  0  0  0  0  0  0  0  0  0  0
   17.3245    6.3392   32.6972 H   0  0  0  0  0  0  0  0  0  0  0  0
   17.6923    6.3092   30.9392 H   0  0  0  0  0  0  0  0  0  0  0  0
   16.2924    4.6085   30.5989 H   0  0  0  0  0  0  0  0  0  0  0  0
   16.1873    4.4525   32.3853 H   0  0  0  0  0  0  0  0  0  0  0  0
   14.4703    6.3266   29.0101 H   0  0  0  0  0  0  0  0  0  0  0  0
   13.7747    8.8491   27.8657 H   0  0  0  0  0  0  0  0  0  0  0  0
   12.8188    6.1159   26.8878 H   0  0  0  0  0  0  0  0  0  0  0  0
   14.4824    6.7386   26.6207 H   0  0  0  0  0  0  0  0  0  0  0  0
   13.4667    8.6909   25.4186 H   0  0  0  0  0  0  0  0  0  0  0  0
   11.8781    7.8619   25.5447 H   0  0  0  0  0  0  0  0  0  0  0  0
   14.6347    5.5497   23.6254 H   0  0  0  0  0  0  0  0  0  0  0  0
   14.8482    6.1306   25.2431 H   0  0  0  0  0  0  0  0  0  0  0  0
   11.8380    6.4991   29.6451 H   0  0  0  0  0  0  0  0  0  0  0  0
    9.3788    8.0295   28.9150 H   0  0  0  0  0  0  0  0  0  0  0  0
   10.2548    7.9489   31.6326 H   0  0  0  0  0  0  0  0  0  0  0  0
    8.0901    6.0425   29.0070 H   0  0  0  0  0  0  0  0  0  0  0  0
    9.3889    5.1354   29.8539 H   0  0  0  0  0  0  0  0  0  0  0  0
    8.8110    7.0251   26.6942 H   0  0  0  0  0  0  0  0  0  0  0  0
   10.6799    3.6777   28.5719 H   0  0  0  0  0  0  0  0  0  0  0  0
    9.6483    6.2594   24.5132 H   0  0  0  0  0  0  0  0  0  0  0  0
   11.5149    2.9097   26.3908 H   0  0  0  0  0  0  0  0  0  0  0  0
   11.0109    4.2022   24.3473 H   0  0  0  0  0  0  0  0  0  0  0  0
  1  2  1  0  0  0  0
  1 44  1  0  0  0  0
  1 45  1  0  0  0  0
  1 46  1  0  0  0  0
  2  3  1  0  0  0  0
  2  5  1  0  0  0  0
  2 47  1  6  0  0  0
  3  4  2  0  0  0  0
  3  7  1  0  0  0  0
  5  6  1  0  0  0  0
  5 48  1  0  0  0  0
  5 49  1  0  0  0  0
  6 50  1  0  0  0  0
  7  8  1  0  0  0  0
  7 51  1  0  0  0  0
  8  9  1  0  0  0  0
  8 11  1  0  0  0  0
  8 52  1  1  0  0  0
  9 10  2  0  0  0  0
  9 17  1  0  0  0  0
 11 12  1  0  0  0  0
 11 53  1  0  0  0  0
 11 54  1  0  0  0  0
 12 13  1  0  0  0  0
 12 14  2  0  0  0  0
 13 15  1  0  0  0  0
 13 55  1  0  0  0  0
 14 16  1  0  0  0  0
 14 56  1  0  0  0  0
 15 16  2  0  0  0  0
 15 57  1  0  0  0  0
 17 18  1  0  0  0  0
 17 23  1  0  0  0  0
 18 19  1  0  0  0  0
 18 21  1  0  0  0  0
 18 58  1  1  0  0  0
 19 20  2  0  0  0  0
 19 24  1  0  0  0  0
 21 22  1  0  0  0  0
 21 59  1  0  0  0  0
 21 60  1  0  0  0  0
 22 23  1  0  0  0  0
 22 61  1  0  0  0  0
 22 62  1  0  0  0  0
 23 63  1  0  0  0  0
 23 64  1  0  0  0  0
 24 25  1  0  0  0  0
 24 65  1  0  0  0  0
 25 26  1  0  0  0  0
 25 28  1  0  0  0  0
 25 66  1  6  0  0  0
 26 27  2  0  0  0  0
 26 33  1  0  0  0  0
 28 29  1  0  0  0  0
 28 67  1  0  0  0  0
 28 68  1  0  0  0  0
 29 30  1  0  0  0  0
 29 69  1  0  0  0  0
 29 70  1  0  0  0  0
 30 31  2  0  0  0  0
 30 32  1  0  0  0  0
 32 71  1  0  0  0  0
 32 72  1  0  0  0  0
 33 34  1  0  0  0  0
 33 73  1  0  0  0  0
 34 35  1  0  0  0  0
 34 37  1  0  0  0  0
 34 74  1  6  0  0  0
 35 36  2  0  0  0  0
 35 75  1  0  0  0  0
 37 38  1  0  0  0  0
 37 76  1  0  0  0  0
 37 77  1  0  0  0  0
 38 39  2  0  0  0  0
 38 40  1  0  0  0  0
 39 41  1  0  0  0  0
 39 78  1  0  0  0  0
 40 42  2  0  0  0  0
 40 79  1  0  0  0  0
 41 43  2  0  0  0  0
 41 80  1  0  0  0  0
 42 43  1  0  0  0  0
 42 81  1  0  0  0  0
 43 82  1  0  0  0  0
M  CHG  1   1   1
M  END
