1klg_ligand
 OpenBabel08222323343D

216216  0  0  1  0  0  0  0  0999 V2000
  123.5620   51.4380  -17.7730 N   0  3  0  0  0  0  0  0  0  0  0  0
  124.2760   52.5390  -18.4910 C   0  0  0  0  0  0  0  0  0  0  0  0
  125.7420   52.2350  -18.7720 C   0  0  0  0  0  0  0  0  0  0  0  0
  126.1860   51.0910  -18.6280 O   0  0  0  0  0  0  0  0  0  0  0  0
  126.4900   53.2650  -19.1740 N   0  0  0  0  0  0  0  0  0  0  0  0
  127.9230   53.1500  -19.4860 C   0  0  2  0  0  0  0  0  0  0  0  0
  128.7470   52.8300  -18.2310 C   0  0  0  0  0  0  0  0  0  0  0  0
  128.4480   53.3330  -17.1410 O   0  0  0  0  0  0  0  0  0  0  0  0
  128.4090   54.4480  -20.1420 C   0  0  0  0  0  0  0  0  0  0  0  0
  127.3310   55.5330  -20.2400 C   0  0  0  0  0  0  0  0  0  0  0  0
  127.7040   56.6630  -21.1930 C   0  0  0  0  0  0  0  0  0  0  0  0
  126.9000   57.6150  -21.3320 O   0  5  0  0  0  0  0  0  0  0  0  0
  128.7980   56.5970  -21.8030 O   0  0  0  0  0  0  0  0  0  0  0  0
  129.7900   52.0130  -18.3850 N   0  0  0  0  0  0  0  0  0  0  0  0
  130.5990   51.5950  -17.2390 C   0  0  2  0  0  0  0  0  0  0  0  0
  131.6810   52.5590  -16.7480 C   0  0  0  0  0  0  0  0  0  0  0  0
  132.5510   52.9940  -17.5050 O   0  0  0  0  0  0  0  0  0  0  0  0
  131.2450   50.2280  -17.5220 C   0  0  0  0  0  0  0  0  0  0  0  0
  131.7350   49.3940  -16.3270 C   0  0  0  0  0  0  0  0  0  0  0  0
  130.5450   48.7880  -15.6090 C   0  0  0  0  0  0  0  0  0  0  0  0
  132.6490   48.2750  -16.8030 C   0  0  0  0  0  0  0  0  0  0  0  0
  131.5990   52.8900  -15.4620 N   0  0  0  0  0  0  0  0  0  0  0  0
  132.5930   53.7420  -14.8320 C   0  0  2  0  0  0  0  0  0  0  0  0
  133.7350   52.8330  -14.4410 C   0  0  0  0  0  0  0  0  0  0  0  0
  133.5590   51.8440  -13.7230 O   0  0  0  0  0  0  0  0  0  0  0  0
  132.0680   54.4420  -13.5780 C   0  0  2  0  0  0  0  0  0  0  0  0
  131.0740   55.5410  -13.9800 C   0  0  0  0  0  0  0  0  0  0  0  0
  133.2330   55.0620  -12.8000 C   0  0  0  0  0  0  0  0  0  0  0  0
  131.6160   56.7300  -14.8240 C   0  0  0  0  0  0  0  0  0  0  0  0
  134.9200   53.1790  -14.9250 N   0  0  0  0  0  0  0  0  0  0  0  0
  136.0910   52.3640  -14.6550 C   0  0  0  0  0  0  0  0  0  0  0  0
  136.7140   52.6290  -13.2970 C   0  0  0  0  0  0  0  0  0  0  0  0
  136.6010   53.7120  -12.7160 O   0  0  0  0  0  0  0  0  0  0  0  0
  137.3570   51.4070  -12.5810 N   0  0  0  0  0  0  0  0  0  0  0  0
  137.9670   51.5830  -11.2950 C   0  0  2  0  0  0  0  0  0  0  0  0
  139.4890   51.6090  -11.4020 C   0  0  0  0  0  0  0  0  0  0  0  0
  140.0390   51.3970  -12.4760 O   0  0  0  0  0  0  0  0  0  0  0  0
  137.5620   50.4200  -10.3800 C   0  0  2  0  0  0  0  0  0  0  0  0
  137.4760   50.9190   -8.9530 C   0  0  0  0  0  0  0  0  0  0  0  0
  138.5550   49.2290  -10.5380 C   0  0  0  0  0  0  0  0  0  0  0  0
  137.1370   49.7940   -7.9540 C   0  0  0  0  0  0  0  0  0  0  0  0
  140.3130   51.9570  -10.6710 N   0  0  0  0  0  0  0  0  0  0  0  0
  141.7730   51.8630  -10.6670 C   0  0  2  0  0  0  0  0  0  0  0  0
  142.0550   50.9120   -9.5050 C   0  0  0  0  0  0  0  0  0  0  0  0
  141.5510   51.1140   -8.4040 O   0  0  0  0  0  0  0  0  0  0  0  0
  142.3860   53.2500  -10.4200 C   0  0  0  0  0  0  0  0  0  0  0  0
  143.5520   53.6340  -11.3410 C   0  0  0  0  0  0  0  0  0  0  0  0
  143.1650   53.3270  -12.7810 C   0  0  0  0  0  0  0  0  0  0  0  0
  143.9000   55.1180  -11.1880 C   0  0  0  0  0  0  0  0  0  0  0  0
  142.8340   49.8680   -9.7480 N   0  0  0  0  0  0  0  0  0  0  0  0
  143.1260   48.8910   -8.7020 C   0  0  2  0  0  0  0  0  0  0  0  0
  144.1030   49.3710   -7.6460 C   0  0  0  0  0  0  0  0  0  0  0  0
  145.1050   50.0050   -7.9600 O   0  0  0  0  0  0  0  0  0  0  0  0
  143.6520   47.5950   -9.3220 C   0  0  0  0  0  0  0  0  0  0  0  0
  142.6250   46.9190  -10.2270 C   0  0  0  0  0  0  0  0  0  0  0  0
  141.4700   46.7190   -9.8410 O   0  0  0  0  0  0  0  0  0  0  0  0
  143.0490   46.5530  -11.4290 N   0  0  0  0  0  0  0  0  0  0  0  0
  143.8020   49.0630   -6.3880 N   0  0  0  0  0  0  0  0  0  0  0  0
  144.6690   49.4580   -5.2770 C   0  0  2  0  0  0  0  0  0  0  0  0
  145.9990   48.7220   -5.3900 C   0  0  0  0  0  0  0  0  0  0  0  0
  146.0350   47.5440   -5.7560 O   0  0  0  0  0  0  0  0  0  0  0  0
  143.9980   49.1340   -3.9330 C   0  0  0  0  0  0  0  0  0  0  0  0
  147.0910   49.4110   -5.0800 N   0  0  0  0  0  0  0  0  0  0  0  0
  148.4170   48.8030   -5.1520 C   0  0  2  0  0  0  0  0  0  0  0  0
  148.8130   48.2470   -3.7890 C   0  0  0  0  0  0  0  0  0  0  0  0
  148.7030   48.9410   -2.7850 O   0  0  0  0  0  0  0  0  0  0  0  0
  149.4430   49.8380   -5.6040 C   0  0  0  0  0  0  0  0  0  0  0  0
  149.2710   47.0000   -3.7560 N   0  0  0  0  0  0  0  0  0  0  0  0
  149.6950   46.3740   -2.5070 C   0  0  2  0  0  0  0  0  0  0  0  0
  151.0400   46.9760   -2.0810 C   0  0  0  0  0  0  0  0  0  0  0  0
  151.9550   47.0570   -2.9040 O   0  0  0  0  0  0  0  0  0  0  0  0
  149.8580   44.8560   -2.7050 C   0  0  0  0  0  0  0  0  0  0  0  0
  148.6200   44.1280   -3.2470 C   0  0  0  0  0  0  0  0  0  0  0  0
  148.7880   42.6050   -3.2450 C   0  0  0  0  0  0  0  0  0  0  0  0
  149.1130   42.0490   -1.8440 C   0  0  0  0  0  0  0  0  0  0  0  0
  148.0850   42.3320   -0.7880 N   0  3  0  0  0  0  0  0  0  0  0  0
  151.1750   47.4080   -0.8220 N   0  0  0  0  0  0  0  0  0  0  0  0
  152.4570   47.9680   -0.3820 C   0  0  2  0  0  0  0  0  0  0  0  0
  153.3970   46.7890   -0.0980 C   0  0  0  0  0  0  0  0  0  0  0  0
  152.9370   45.6590    0.1000 O   0  0  0  0  0  0  0  0  0  0  0  0
  152.3320   48.8320    0.9130 C   0  0  0  0  0  0  0  0  0  0  0  0
  151.1220   49.7410    0.8320 C   0  0  0  0  0  0  0  0  0  0  0  0
  152.2650   47.9470    2.1400 C   0  0  0  0  0  0  0  0  0  0  0  0
  154.7180   47.0330   -0.0690 N   0  0  0  0  0  0  0  0  0  0  0  0
  155.6820   45.9560    0.1950 C   0  0  2  0  0  0  0  0  0  0  0  0
  155.4390   45.2450    1.5310 C   0  0  0  0  0  0  0  0  0  0  0  0
  155.1710   45.8860    2.5370 O   0  0  0  0  0  0  0  0  0  0  0  0
  157.0240   46.6790    0.1410 C   0  0  0  0  0  0  0  0  0  0  0  0
  156.6880   48.0730    0.5960 C   0  0  0  0  0  0  0  0  0  0  0  0
  155.3870   48.3460   -0.1310 C   0  0  0  0  0  0  0  0  0  0  0  0
  155.5490   43.9190    1.5180 N   0  0  0  0  0  0  0  0  0  0  0  0
  155.3270   43.0820    2.7000 C   0  0  2  0  0  0  0  0  0  0  0  0
  156.3170   43.3230    3.8320 C   0  0  0  0  0  0  0  0  0  0  0  0
  157.4040   43.8410    3.6090 O   0  0  0  0  0  0  0  0  0  0  0  0
  155.3560   41.6060    2.3130 C   0  0  0  0  0  0  0  0  0  0  0  0
  155.9560   42.9300    5.0550 N   0  0  0  0  0  0  0  0  0  0  0  0
  156.8340   43.1010    6.2400 C   0  0  2  0  0  0  0  0  0  0  0  0
  158.0470   42.1730    6.1820 C   0  0  0  0  0  0  0  0  0  0  0  0
  159.1560   42.6650    6.4580 O   0  5  0  0  0  0  0  0  0  0  0  0
  156.0790   42.7930    7.5520 C   0  0  0  0  0  0  0  0  0  0  0  0
  155.0210   43.8230    7.8900 C   0  0  0  0  0  0  0  0  0  0  0  0
  155.2390   45.0230    7.6260 O   0  5  0  0  0  0  0  0  0  0  0  0
  153.9740   43.4190    8.4330 O   0  0  0  0  0  0  0  0  0  0  0  0
  157.8550   40.9680    5.9010 O   0  0  0  0  0  0  0  0  0  0  0  0
  122.6018   51.7040  -17.6201 H   0  0  0  0  0  0  0  0  0  0  0  0
  124.0095   51.2700  -16.8856 H   0  0  0  0  0  0  0  0  0  0  0  0
  123.5934   50.5982  -18.3295 H   0  0  0  0  0  0  0  0  0  0  0  0
  124.2216   53.4484  -17.8746 H   0  0  0  0  0  0  0  0  0  0  0  0
  123.7676   52.7153  -19.4504 H   0  0  0  0  0  0  0  0  0  0  0  0
  126.0541   54.1601  -19.2678 H   0  0  0  0  0  0  0  0  0  0  0  0
  128.0569   52.3258  -20.2021 H   0  0  0  0  0  0  0  0  0  0  0  0
  128.7581   54.2133  -21.1584 H   0  0  0  0  0  0  0  0  0  0  0  0
  129.2465   54.8439  -19.5488 H   0  0  0  0  0  0  0  0  0  0  0  0
  127.1706   55.9585  -19.2384 H   0  0  0  0  0  0  0  0  0  0  0  0
  126.3989   55.0692  -20.5950 H   0  0  0  0  0  0  0  0  0  0  0  0
  130.0232   51.6804  -19.2988 H   0  0  0  0  0  0  0  0  0  0  0  0
  129.8970   51.4677  -16.4018 H   0  0  0  0  0  0  0  0  0  0  0  0
  132.1135   50.4063  -18.1731 H   0  0  0  0  0  0  0  0  0  0  0  0
  130.5018   49.6213  -18.0601 H   0  0  0  0  0  0  0  0  0  0  0  0
  132.2881   50.0452  -15.6342 H   0  0  0  0  0  0  0  0  0  0  0  0
  130.8972   48.1917  -14.7544 H   0  0  0  0  0  0  0  0  0  0  0  0
  129.9885   48.1410  -16.3030 H   0  0  0  0  0  0  0  0  0  0  0  0
  129.8860   49.5916  -15.2486 H   0  0  0  0  0  0  0  0  0  0  0  0
  133.5155   48.7066  -17.3254 H   0  0  0  0  0  0  0  0  0  0  0  0
  132.0965   47.6177  -17.4905 H   0  0  0  0  0  0  0  0  0  0  0  0
  132.9960   47.6917  -15.9374 H   0  0  0  0  0  0  0  0  0  0  0  0
  130.8355   52.5444  -14.9164 H   0  0  0  0  0  0  0  0  0  0  0  0
  132.9357   54.5016  -15.5500 H   0  0  0  0  0  0  0  0  0  0  0  0
  131.5573   53.7062  -12.9395 H   0  0  0  0  0  0  0  0  0  0  0  0
  130.6542   55.9598  -13.0535 H   0  0  0  0  0  0  0  0  0  0  0  0
  130.2726   55.0627  -14.5623 H   0  0  0  0  0  0  0  0  0  0  0  0
  133.9436   54.2728  -12.5132 H   0  0  0  0  0  0  0  0  0  0  0  0
  132.8484   55.5555  -11.8953 H   0  0  0  0  0  0  0  0  0  0  0  0
  133.7436   55.8028  -13.4329 H   0  0  0  0  0  0  0  0  0  0  0  0
  130.7969   57.4333  -15.0350 H   0  0  0  0  0  0  0  0  0  0  0  0
  132.0263   56.3503  -15.7713 H   0  0  0  0  0  0  0  0  0  0  0  0
  132.4079   57.2473  -14.2625 H   0  0  0  0  0  0  0  0  0  0  0  0
  135.0078   54.0065  -15.4795 H   0  0  0  0  0  0  0  0  0  0  0  0
  136.8444   52.5698  -15.4296 H   0  0  0  0  0  0  0  0  0  0  0  0
  135.7965   51.3052  -14.7021 H   0  0  0  0  0  0  0  0  0  0  0  0
  137.3452   50.5057  -13.0140 H   0  0  0  0  0  0  0  0  0  0  0  0
  137.6196   52.5319  -10.8604 H   0  0  0  0  0  0  0  0  0  0  0  0
  136.5638   50.0692  -10.6809 H   0  0  0  0  0  0  0  0  0  0  0  0
  136.6934   51.6898   -8.8952 H   0  0  0  0  0  0  0  0  0  0  0  0
  138.4449   51.3586   -8.6739 H   0  0  0  0  0  0  0  0  0  0  0  0
  138.5780   48.9079  -11.5898 H   0  0  0  0  0  0  0  0  0  0  0  0
  138.2261   48.3910   -9.9059 H   0  0  0  0  0  0  0  0  0  0  0  0
  139.5617   49.5476  -10.2299 H   0  0  0  0  0  0  0  0  0  0  0  0
  137.0870   50.2097   -6.9368 H   0  0  0  0  0  0  0  0  0  0  0  0
  137.9169   49.0194   -7.9956 H   0  0  0  0  0  0  0  0  0  0  0  0
  136.1653   49.3506   -8.2170 H   0  0  0  0  0  0  0  0  0  0  0  0
  139.9491   52.4244   -9.8653 H   0  0  0  0  0  0  0  0  0  0  0  0
  142.1517   51.4529  -11.6149 H   0  0  0  0  0  0  0  0  0  0  0  0
  142.7507   53.2788   -9.3826 H   0  0  0  0  0  0  0  0  0  0  0  0
  141.5912   53.9992  -10.5502 H   0  0  0  0  0  0  0  0  0  0  0  0
  144.4341   53.0352  -11.0703 H   0  0  0  0  0  0  0  0  0  0  0  0
  143.9950   53.5990  -13.4497 H   0  0  0  0  0  0  0  0  0  0  0  0
  142.2706   53.9072  -13.0520 H   0  0  0  0  0  0  0  0  0  0  0  0
  142.9498   52.2530  -12.8819 H   0  0  0  0  0  0  0  0  0  0  0  0
  144.1771   55.3238  -10.1436 H   0  0  0  0  0  0  0  0  0  0  0  0
  143.0280   55.7294  -11.4632 H   0  0  0  0  0  0  0  0  0  0  0  0
  144.7448   55.3664  -11.8472 H   0  0  0  0  0  0  0  0  0  0  0  0
  143.2272   49.7473  -10.6595 H   0  0  0  0  0  0  0  0  0  0  0  0
  142.1768   48.6678   -8.1929 H   0  0  0  0  0  0  0  0  0  0  0  0
  143.9197   46.9002   -8.5123 H   0  0  0  0  0  0  0  0  0  0  0  0
  144.5475   47.8271   -9.9171 H   0  0  0  0  0  0  0  0  0  0  0  0
  142.4211   46.1055  -12.0658 H   0  0  0  0  0  0  0  0  0  0  0  0
  143.9966   46.7245  -11.6986 H   0  0  0  0  0  0  0  0  0  0  0  0
  142.9650   48.5503   -6.1968 H   0  0  0  0  0  0  0  0  0  0  0  0
  144.8514   50.5414   -5.3317 H   0  0  0  0  0  0  0  0  0  0  0  0
  144.6616   49.4366   -3.1095 H   0  0  0  0  0  0  0  0  0  0  0  0
  143.8056   48.0528   -3.8704 H   0  0  0  0  0  0  0  0  0  0  0  0
  143.0466   49.6808   -3.8569 H   0  0  0  0  0  0  0  0  0  0  0  0
  147.0038   50.3646   -4.7917 H   0  0  0  0  0  0  0  0  0  0  0  0
  148.3932   47.9799   -5.8814 H   0  0  0  0  0  0  0  0  0  0  0  0
  150.4374   49.3705   -5.6550 H   0  0  0  0  0  0  0  0  0  0  0  0
  149.4655   50.6702   -4.8851 H   0  0  0  0  0  0  0  0  0  0  0  0
  149.1658   50.2194   -6.5978 H   0  0  0  0  0  0  0  0  0  0  0  0
  149.3266   46.4778   -4.6070 H   0  0  0  0  0  0  0  0  0  0  0  0
  148.9418   46.5624   -1.7278 H   0  0  0  0  0  0  0  0  0  0  0  0
  150.1142   44.4120   -1.7318 H   0  0  0  0  0  0  0  0  0  0  0  0
  150.6848   44.6924   -3.4118 H   0  0  0  0  0  0  0  0  0  0  0  0
  148.4382   44.4616   -4.2793 H   0  0  0  0  0  0  0  0  0  0  0  0
  147.7547   44.3883   -2.6197 H   0  0  0  0  0  0  0  0  0  0  0  0
  149.6077   42.3395   -3.9288 H   0  0  0  0  0  0  0  0  0  0  0  0
  147.8527   42.1464   -3.5983 H   0  0  0  0  0  0  0  0  0  0  0  0
  150.0666   42.4887   -1.5165 H   0  0  0  0  0  0  0  0  0  0  0  0
  149.2222   40.9577   -1.9283 H   0  0  0  0  0  0  0  0  0  0  0  0
  148.3838   41.9318    0.0876 H   0  0  0  0  0  0  0  0  0  0  0  0
  147.2035   41.9256   -1.0597 H   0  0  0  0  0  0  0  0  0  0  0  0
  147.9773   43.3286   -0.6824 H   0  0  0  0  0  0  0  0  0  0  0  0
  150.4064   47.3494   -0.1849 H   0  0  0  0  0  0  0  0  0  0  0  0
  152.8715   48.5930   -1.1867 H   0  0  0  0  0  0  0  0  0  0  0  0
  153.2296   49.4626    0.9941 H   0  0  0  0  0  0  0  0  0  0  0  0
  151.0514   50.3403    1.7517 H   0  0  0  0  0  0  0  0  0  0  0  0
  150.2127   49.1321    0.7205 H   0  0  0  0  0  0  0  0  0  0  0  0
  151.2237   50.4105   -0.0349 H   0  0  0  0  0  0  0  0  0  0  0  0
  153.1534   47.2992    2.1737 H   0  0  0  0  0  0  0  0  0  0  0  0
  151.3590   47.3248    2.0943 H   0  0  0  0  0  0  0  0  0  0  0  0
  152.2340   48.5741    3.0432 H   0  0  0  0  0  0  0  0  0  0  0  0
  155.6297   45.2023   -0.6045 H   0  0  0  0  0  0  0  0  0  0  0  0
  157.4266   46.6855   -0.8826 H   0  0  0  0  0  0  0  0  0  0  0  0
  157.7520   46.2087    0.8184 H   0  0  0  0  0  0  0  0  0  0  0  0
  157.4686   48.7883    0.2976 H   0  0  0  0  0  0  0  0  0  0  0  0
  156.5508   48.1137    1.6866 H   0  0  0  0  0  0  0  0  0  0  0  0
  154.7972   49.1195    0.3826 H   0  0  0  0  0  0  0  0  0  0  0  0
  155.5679   48.6534   -1.1716 H   0  0  0  0  0  0  0  0  0  0  0  0
  155.7955   43.4713    0.6585 H   0  0  0  0  0  0  0  0  0  0  0  0
  154.3234   43.3182    3.0835 H   0  0  0  0  0  0  0  0  0  0  0  0
  155.1883   40.9889    3.2080 H   0  0  0  0  0  0  0  0  0  0  0  0
  156.3354   41.3605    1.8767 H   0  0  0  0  0  0  0  0  0  0  0  0
  154.5651   41.4047    1.5755 H   0  0  0  0  0  0  0  0  0  0  0  0
  155.0597   42.5040    5.1781 H   0  0  0  0  0  0  0  0  0  0  0  0
  157.1818   44.1443    6.2624 H   0  0  0  0  0  0  0  0  0  0  0  0
  156.8083   42.7586    8.3748 H   0  0  0  0  0  0  0  0  0  0  0  0
  155.5919   41.8118    7.4525 H   0  0  0  0  0  0  0  0  0  0  0  0
  1  2  1  0  0  0  0
  1105  1  0  0  0  0
  1106  1  0  0  0  0
  1107  1  0  0  0  0
  2  3  1  0  0  0  0
  2108  1  0  0  0  0
  2109  1  0  0  0  0
  3  4  2  0  0  0  0
  3  5  1  0  0  0  0
  5  6  1  0  0  0  0
  5110  1  0  0  0  0
  6  7  1  0  0  0  0
  6  9  1  0  0  0  0
  6111  1  6  0  0  0
  7  8  2  0  0  0  0
  7 14  1  0  0  0  0
  9 10  1  0  0  0  0
  9112  1  0  0  0  0
  9113  1  0  0  0  0
 10 11  1  0  0  0  0
 10114  1  0  0  0  0
 10115  1  0  0  0  0
 11 12  1  0  0  0  0
 11 13  2  0  0  0  0
 14 15  1  0  0  0  0
 14116  1  0  0  0  0
 15 16  1  0  0  0  0
 15 18  1  0  0  0  0
 15117  1  1  0  0  0
 16 17  2  0  0  0  0
 16 22  1  0  0  0  0
 18 19  1  0  0  0  0
 18118  1  0  0  0  0
 18119  1  0  0  0  0
 19 20  1  0  0  0  0
 19 21  1  0  0  0  0
 19120  1  0  0  0  0
 20121  1  0  0  0  0
 20122  1  0  0  0  0
 20123  1  0  0  0  0
 21124  1  0  0  0  0
 21125  1  0  0  0  0
 21126  1  0  0  0  0
 22 23  1  0  0  0  0
 22127  1  0  0  0  0
 23 24  1  0  0  0  0
 23 26  1  0  0  0  0
 23128  1  6  0  0  0
 24 25  2  0  0  0  0
 24 30  1  0  0  0  0
 26 27  1  0  0  0  0
 26 28  1  0  0  0  0
 26129  1  1  0  0  0
 27 29  1  0  0  0  0
 27130  1  0  0  0  0
 27131  1  0  0  0  0
 28132  1  0  0  0  0
 28133  1  0  0  0  0
 28134  1  0  0  0  0
 29135  1  0  0  0  0
 29136  1  0  0  0  0
 29137  1  0  0  0  0
 30 31  1  0  0  0  0
 30138  1  0  0  0  0
 31 32  1  0  0  0  0
 31139  1  0  0  0  0
 31140  1  0  0  0  0
 32 33  2  0  0  0  0
 32 34  1  0  0  0  0
 34 35  1  0  0  0  0
 34141  1  0  0  0  0
 35 36  1  0  0  0  0
 35 38  1  0  0  0  0
 35142  1  1  0  0  0
 36 37  2  0  0  0  0
 36 42  1  0  0  0  0
 38 39  1  0  0  0  0
 38 40  1  0  0  0  0
 38143  1  6  0  0  0
 39 41  1  0  0  0  0
 39144  1  0  0  0  0
 39145  1  0  0  0  0
 40146  1  0  0  0  0
 40147  1  0  0  0  0
 40148  1  0  0  0  0
 41149  1  0  0  0  0
 41150  1  0  0  0  0
 41151  1  0  0  0  0
 42 43  1  0  0  0  0
 42152  1  0  0  0  0
 43 44  1  0  0  0  0
 43 46  1  0  0  0  0
 43153  1  6  0  0  0
 44 45  2  0  0  0  0
 44 50  1  0  0  0  0
 46 47  1  0  0  0  0
 46154  1  0  0  0  0
 46155  1  0  0  0  0
 47 48  1  0  0  0  0
 47 49  1  0  0  0  0
 47156  1  0  0  0  0
 48157  1  0  0  0  0
 48158  1  0  0  0  0
 48159  1  0  0  0  0
 49160  1  0  0  0  0
 49161  1  0  0  0  0
 49162  1  0  0  0  0
 50 51  1  0  0  0  0
 50163  1  0  0  0  0
 51 52  1  0  0  0  0
 51 54  1  0  0  0  0
 51164  1  1  0  0  0
 52 53  2  0  0  0  0
 52 58  1  0  0  0  0
 54 55  1  0  0  0  0
 54165  1  0  0  0  0
 54166  1  0  0  0  0
 55 56  2  0  0  0  0
 55 57  1  0  0  0  0
 57167  1  0  0  0  0
 57168  1  0  0  0  0
 58 59  1  0  0  0  0
 58169  1  0  0  0  0
 59 60  1  0  0  0  0
 59 62  1  0  0  0  0
 59170  1  6  0  0  0
 60 61  2  0  0  0  0
 60 63  1  0  0  0  0
 62171  1  0  0  0  0
 62172  1  0  0  0  0
 62173  1  0  0  0  0
 63 64  1  0  0  0  0
 63174  1  0  0  0  0
 64 65  1  0  0  0  0
 64 67  1  0  0  0  0
 64175  1  6  0  0  0
 65 66  2  0  0  0  0
 65 68  1  0  0  0  0
 67176  1  0  0  0  0
 67177  1  0  0  0  0
 67178  1  0  0  0  0
 68 69  1  0  0  0  0
 68179  1  0  0  0  0
 69 70  1  0  0  0  0
 69 72  1  0  0  0  0
 69180  1  1  0  0  0
 70 71  2  0  0  0  0
 70 77  1  0  0  0  0
 72 73  1  0  0  0  0
 72181  1  0  0  0  0
 72182  1  0  0  0  0
 73 74  1  0  0  0  0
 73183  1  0  0  0  0
 73184  1  0  0  0  0
 74 75  1  0  0  0  0
 74185  1  0  0  0  0
 74186  1  0  0  0  0
 75 76  1  0  0  0  0
 75187  1  0  0  0  0
 75188  1  0  0  0  0
 76189  1  0  0  0  0
 76190  1  0  0  0  0
 76191  1  0  0  0  0
 77 78  1  0  0  0  0
 77192  1  0  0  0  0
 78 79  1  0  0  0  0
 78 81  1  0  0  0  0
 78193  1  6  0  0  0
 79 80  2  0  0  0  0
 79 84  1  0  0  0  0
 81 82  1  0  0  0  0
 81 83  1  0  0  0  0
 81194  1  0  0  0  0
 82195  1  0  0  0  0
 82196  1  0  0  0  0
 82197  1  0  0  0  0
 83198  1  0  0  0  0
 83199  1  0  0  0  0
 83200  1  0  0  0  0
 84 85  1  0  0  0  0
 84 90  1  0  0  0  0
 85 86  1  0  0  0  0
 85 88  1  0  0  0  0
 85201  1  6  0  0  0
 86 87  2  0  0  0  0
 86 91  1  0  0  0  0
 88 89  1  0  0  0  0
 88202  1  0  0  0  0
 88203  1  0  0  0  0
 89 90  1  0  0  0  0
 89204  1  0  0  0  0
 89205  1  0  0  0  0
 90206  1  0  0  0  0
 90207  1  0  0  0  0
 91 92  1  0  0  0  0
 91208  1  0  0  0  0
 92 93  1  0  0  0  0
 92 95  1  0  0  0  0
 92209  1  1  0  0  0
 93 94  2  0  0  0  0
 93 96  1  0  0  0  0
 95210  1  0  0  0  0
 95211  1  0  0  0  0
 95212  1  0  0  0  0
 96 97  1  0  0  0  0
 96213  1  0  0  0  0
 97 98  1  0  0  0  0
 97100  1  0  0  0  0
 97214  1  1  0  0  0
 98 99  1  0  0  0  0
 98104  2  0  0  0  0
100101  1  0  0  0  0
100215  1  0  0  0  0
100216  1  0  0  0  0
101102  1  0  0  0  0
101103  2  0  0  0  0
M  CHG  5   1   1  12  -1  76   1  99  -1 102  -1
M  END
