1kmv_ligand
 OpenBabel08222323343D

 44 46  0  0  0  0  0  0  0  0999 V2000
   13.7320   24.1770   32.2440 C   0  0  0  0  0  0  0  0  0  0  0  0
   15.0590   24.2740   31.7180 C   0  0  0  0  0  0  0  0  0  0  0  0
   14.6820   22.5230   30.2630 C   0  0  0  0  0  0  0  0  0  0  0  0
   12.8780   23.3290   31.5750 C   0  0  0  0  0  0  0  0  0  0  0  0
   13.1900   24.9470   33.3790 C   0  0  0  0  0  0  0  0  0  0  0  0
   11.8790   24.9590   33.5350 C   0  0  0  0  0  0  0  0  0  0  0  0
   11.0050   23.9870   32.7670 C   0  0  0  0  0  0  0  0  0  0  0  0
   14.0540   25.6400   34.3650 C   0  0  0  0  0  0  0  0  0  0  0  0
   11.0920   25.9000   34.4630 C   0  0  0  0  0  0  0  0  0  0  0  0
    9.6990   24.1260   35.8350 C   0  0  0  0  0  0  0  0  0  0  0  0
   10.5750   23.1020   36.1780 C   0  0  0  0  0  0  0  0  0  0  0  0
   10.0870   21.8830   36.5780 C   0  0  0  0  0  0  0  0  0  0  0  0
    8.7060   21.6770   36.6270 C   0  0  0  0  0  0  0  0  0  0  0  0
    7.8140   22.6790   36.2890 C   0  0  0  0  0  0  0  0  0  0  0  0
    8.3300   23.8990   35.8950 C   0  0  0  0  0  0  0  0  0  0  0  0
   10.1650   25.5060   35.3870 C   0  0  0  0  0  0  0  0  0  0  0  0
   12.6970   22.2420   36.0020 C   0  0  0  0  0  0  0  0  0  0  0  0
    5.6270   23.6940   36.2150 C   0  0  0  0  0  0  0  0  0  0  0  0
   15.5040   23.4370   30.7740 N   0  0  0  0  0  0  0  0  0  0  0  0
   13.3990   22.4420   30.6080 N   0  0  0  0  0  0  0  0  0  0  0  0
   11.5550   23.2240   31.8130 N   0  0  0  0  0  0  0  0  0  0  0  0
   15.9540   25.1520   32.1230 N   0  0  0  0  0  0  0  0  0  0  0  0
   15.1430   21.6620   29.3730 N   0  0  0  0  0  0  0  0  0  0  0  0
   11.9030   23.4250   36.0890 O   0  0  0  0  0  0  0  0  0  0  0  0
    6.4510   22.5660   36.3120 O   0  0  0  0  0  0  0  0  0  0  0  0
    9.9464   23.9102   32.9874 H   0  0  0  0  0  0  0  0  0  0  0  0
   15.1084   25.5238   34.0741 H   0  0  0  0  0  0  0  0  0  0  0  0
   13.8981   25.2011   35.3615 H   0  0  0  0  0  0  0  0  0  0  0  0
   13.7964   26.7091   34.3908 H   0  0  0  0  0  0  0  0  0  0  0  0
   11.2895   26.9675   34.3768 H   0  0  0  0  0  0  0  0  0  0  0  0
   10.7681   21.0860   36.8538 H   0  0  0  0  0  0  0  0  0  0  0  0
    8.3250   20.7106   36.9367 H   0  0  0  0  0  0  0  0  0  0  0  0
    7.6494   24.6987   35.6261 H   0  0  0  0  0  0  0  0  0  0  0  0
    9.6680   26.3300   35.8969 H   0  0  0  0  0  0  0  0  0  0  0  0
   13.7595   22.5179   35.9312 H   0  0  0  0  0  0  0  0  0  0  0  0
   12.4064   21.6702   35.1084 H   0  0  0  0  0  0  0  0  0  0  0  0
   12.5371   21.6262   36.8994 H   0  0  0  0  0  0  0  0  0  0  0  0
    4.5728   23.3823   36.2536 H   0  0  0  0  0  0  0  0  0  0  0  0
    5.8222   24.2100   35.2633 H   0  0  0  0  0  0  0  0  0  0  0  0
    5.8386   24.3758   37.0519 H   0  0  0  0  0  0  0  0  0  0  0  0
   16.8923   25.1642   31.6984 H   0  0  0  0  0  0  0  0  0  0  0  0
   15.7154   25.8262   32.8643 H   0  0  0  0  0  0  0  0  0  0  0  0
   16.1312   21.6985   29.0850 H   0  0  0  0  0  0  0  0  0  0  0  0
   14.5141   20.9543   28.9673 H   0  0  0  0  0  0  0  0  0  0  0  0
  1  2  2  0  0  0  0
  1  4  1  0  0  0  0
  2 19  1  0  0  0  0
  2 22  1  0  0  0  0
  3 23  1  0  0  0  0
  4 20  2  0  0  0  0
  5  1  1  0  0  0  0
  5  8  1  0  0  0  0
  6  5  2  0  0  0  0
  6  7  1  0  0  0  0
  7 21  2  0  0  0  0
  7 26  1  0  0  0  0
  8 27  1  0  0  0  0
  8 28  1  0  0  0  0
  8 29  1  0  0  0  0
  9  6  1  0  0  0  0
  9 30  1  0  0  0  0
 10 11  2  0  0  0  0
 10 15  1  0  0  0  0
 10 16  1  0  0  0  0
 11 12  1  0  0  0  0
 11 24  1  0  0  0  0
 12 13  2  0  0  0  0
 12 31  1  0  0  0  0
 13 14  1  0  0  0  0
 13 32  1  0  0  0  0
 14 15  2  0  0  0  0
 14 25  1  0  0  0  0
 15 33  1  0  0  0  0
 16  9  2  0  0  0  0
 16 34  1  0  0  0  0
 17 35  1  0  0  0  0
 17 36  1  0  0  0  0
 17 37  1  0  0  0  0
 18 38  1  0  0  0  0
 18 39  1  0  0  0  0
 18 40  1  0  0  0  0
 19  3  2  0  0  0  0
 20  3  1  0  0  0  0
 21  4  1  0  0  0  0
 22 41  1  0  0  0  0
 22 42  1  0  0  0  0
 23 43  1  0  0  0  0
 23 44  1  0  0  0  0
 24 17  1  0  0  0  0
 25 18  1  0  0  0  0
M  END
