1l0a_ligand
 OpenBabel08222323343D

290291  0  0  1  0  0  0  0  0999 V2000
  -24.2190   31.9500   36.2950 N   0  3  0  0  0  0  0  0  0  0  0  0
  -22.8070   31.9770   35.8310 C   0  0  2  0  0  0  0  0  0  0  0  0
  -22.4070   30.6520   35.1830 C   0  0  0  0  0  0  0  0  0  0  0  0
  -21.5210   29.9550   35.6890 O   0  0  0  0  0  0  0  0  0  0  0  0
  -21.8570   32.2710   37.0040 C   0  0  0  0  0  0  0  0  0  0  0  0
  -21.7320   31.1530   37.8780 O   0  0  0  0  0  0  0  0  0  0  0  0
  -23.0670   30.2970   34.0830 N   0  0  0  0  0  0  0  0  0  0  0  0
  -22.7510   29.0680   33.3550 C   0  0  2  0  0  0  0  0  0  0  0  0
  -23.0640   29.3270   31.8930 C   0  0  0  0  0  0  0  0  0  0  0  0
  -24.2190   29.4070   31.4980 O   0  0  0  0  0  0  0  0  0  0  0  0
  -23.5810   27.8500   33.8370 C   0  0  0  0  0  0  0  0  0  0  0  0
  -23.0900   26.5810   33.1350 C   0  0  0  0  0  0  0  0  0  0  0  0
  -23.4690   27.6950   35.3560 C   0  0  0  0  0  0  0  0  0  0  0  0
  -22.0280   29.4530   31.0670 N   0  0  0  0  0  0  0  0  0  0  0  0
  -22.1560   29.7160   29.6370 C   0  0  2  0  0  0  0  0  0  0  0  0
  -22.9910   28.7170   28.8630 C   0  0  0  0  0  0  0  0  0  0  0  0
  -22.7760   27.5100   28.9460 O   0  0  0  0  0  0  0  0  0  0  0  0
  -20.7080   29.7190   29.1500 C   0  0  0  0  0  0  0  0  0  0  0  0
  -19.9270   30.0430   30.3600 C   0  0  0  0  0  0  0  0  0  0  0  0
  -20.6190   29.2580   31.4290 C   0  0  0  0  0  0  0  0  0  0  0  0
  -23.9320   29.2500   28.0950 N   0  0  0  0  0  0  0  0  0  0  0  0
  -24.8020   28.4570   27.2400 C   0  0  2  0  0  0  0  0  0  0  0  0
  -24.1460   28.5100   25.8700 C   0  0  0  0  0  0  0  0  0  0  0  0
  -23.8560   29.5990   25.3830 O   0  0  0  0  0  0  0  0  0  0  0  0
  -26.2010   29.1010   27.0750 C   0  0  2  0  0  0  0  0  0  0  0  0
  -26.9090   29.2180   28.4220 C   0  0  0  0  0  0  0  0  0  0  0  0
  -27.0310   28.2740   26.1230 C   0  0  0  0  0  0  0  0  0  0  0  0
  -27.1740   27.8960   29.0670 C   0  0  0  0  0  0  0  0  0  0  0  0
  -23.9140   27.3550   25.2490 N   0  0  0  0  0  0  0  0  0  0  0  0
  -23.3140   27.3040   23.9120 C   0  0  2  0  0  0  0  0  0  0  0  0
  -24.0610   28.2430   22.9620 C   0  0  0  0  0  0  0  0  0  0  0  0
  -24.7510   29.1620   23.3870 O   0  0  0  0  0  0  0  0  0  0  0  0
  -23.3890   25.8870   23.3450 C   0  0  0  0  0  0  0  0  0  0  0  0
  -22.5610   24.8370   24.0680 C   0  0  0  0  0  0  0  0  0  0  0  0
  -21.1490   24.7570   23.5370 C   0  0  0  0  0  0  0  0  0  0  0  0
  -20.9290   24.4950   22.3510 O   0  0  0  0  0  0  0  0  0  0  0  0
  -20.1780   24.9860   24.4100 N   0  0  0  0  0  0  0  0  0  0  0  0
  -23.9350   27.9950   21.6690 N   0  0  0  0  0  0  0  0  0  0  0  0
  -24.5840   28.8210   20.6630 C   0  0  2  0  0  0  0  0  0  0  0  0
  -25.1240   27.8500   19.6270 C   0  0  0  0  0  0  0  0  0  0  0  0
  -24.3740   27.0710   19.0500 O   0  0  0  0  0  0  0  0  0  0  0  0
  -23.5510   29.7880   20.0630 C   0  0  0  0  0  0  0  0  0  0  0  0
  -23.8330   30.3710   18.3700 S   0  0  0  0  0  0  0  0  0  0  0  0
  -26.4310   27.8790   19.4060 N   0  0  0  0  0  0  0  0  0  0  0  0
  -27.0580   26.9630   18.4600 C   0  0  2  0  0  0  0  0  0  0  0  0
  -26.5890   27.1570   17.0220 C   0  0  0  0  0  0  0  0  0  0  0  0
  -26.3180   26.1850   16.3120 O   0  0  0  0  0  0  0  0  0  0  0  0
  -28.5920   27.0840   18.5130 C   0  0  2  0  0  0  0  0  0  0  0  0
  -28.9830   28.4300   18.2130 O   0  0  0  0  0  0  0  0  0  0  0  0
  -29.1010   26.7070   19.8920 C   0  0  0  0  0  0  0  0  0  0  0  0
  -26.4870   28.4130   16.5990 N   0  0  0  0  0  0  0  0  0  0  0  0
  -26.0430   28.7450   15.2460 C   0  0  2  0  0  0  0  0  0  0  0  0
  -24.6120   28.2470   14.9830 C   0  0  0  0  0  0  0  0  0  0  0  0
  -23.9760   28.6420   14.0010 O   0  0  0  0  0  0  0  0  0  0  0  0
  -26.1280   30.2640   15.0410 C   0  0  0  0  0  0  0  0  0  0  0  0
  -25.8120   30.6840   13.6230 C   0  0  0  0  0  0  0  0  0  0  0  0
  -26.4190   30.1130   12.7000 O   0  5  0  0  0  0  0  0  0  0  0  0
  -24.9700   31.5870   13.4320 O   0  0  0  0  0  0  0  0  0  0  0  0
  -24.1020   27.3900   15.8680 N   0  0  0  0  0  0  0  0  0  0  0  0
  -22.7680   26.8220   15.6950 C   0  0  2  0  0  0  0  0  0  0  0  0
  -22.8200   25.9310   14.4490 C   0  0  0  0  0  0  0  0  0  0  0  0
  -21.8670   25.1850   14.1570 O   0  0  0  0  0  0  0  0  0  0  0  0
  -22.3740   25.9660   16.9100 C   0  0  0  0  0  0  0  0  0  0  0  0
  -23.2890   24.7550   17.1790 C   0  0  0  0  0  0  0  0  0  0  0  0
  -22.7600   23.8980   18.3400 C   0  0  0  0  0  0  0  0  0  0  0  0
  -23.8450   23.0290   18.9850 C   0  0  0  0  0  0  0  0  0  0  0  0
  -24.8360   23.8210   19.7760 N   0  3  0  0  0  0  0  0  0  0  0  0
  -23.9470   26.0230   13.7280 N   0  0  0  0  0  0  0  0  0  0  0  0
  -24.2060   25.2430   12.5120 C   0  0  2  0  0  0  0  0  0  0  0  0
  -24.2770   26.0740   11.2100 C   0  0  0  0  0  0  0  0  0  0  0  0
  -23.7870   25.6310   10.1640 O   0  0  0  0  0  0  0  0  0  0  0  0
  -25.5130   24.4400   12.6750 C   0  0  2  0  0  0  0  0  0  0  0  0
  -26.5490   25.3180   13.1310 O   0  0  0  0  0  0  0  0  0  0  0  0
  -25.3240   23.3130   13.6880 C   0  0  0  0  0  0  0  0  0  0  0  0
  -24.8760   27.2660   11.2700 N   0  0  0  0  0  0  0  0  0  0  0  0
  -24.9790   28.1400   10.0910 C   0  0  2  0  0  0  0  0  0  0  0  0
  -23.8430   29.1690    9.9890 C   0  0  0  0  0  0  0  0  0  0  0  0
  -23.4260   29.7590   10.9920 O   0  0  0  0  0  0  0  0  0  0  0  0
  -26.3050   28.8960   10.0930 C   0  0  0  0  0  0  0  0  0  0  0  0
  -26.1500   30.3320    9.6140 C   0  0  0  0  0  0  0  0  0  0  0  0
  -25.8470   30.5290    8.4180 O   0  5  0  0  0  0  0  0  0  0  0  0
  -26.3160   31.2590   10.4380 O   0  0  0  0  0  0  0  0  0  0  0  0
  -23.3750   29.4080    8.7640 N   0  0  0  0  0  0  0  0  0  0  0  0
  -22.2850   30.3490    8.5350 C   0  0  2  0  0  0  0  0  0  0  0  0
  -22.7080   31.7300    8.0390 C   0  0  0  0  0  0  0  0  0  0  0  0
  -22.1100   32.2740    7.1040 O   0  0  0  0  0  0  0  0  0  0  0  0
  -21.2500   29.7310    7.5710 C   0  0  0  0  0  0  0  0  0  0  0  0
  -21.8020   29.1330    6.2660 C   0  0  0  0  0  0  0  0  0  0  0  0
  -21.9580   30.1620    5.1430 C   0  0  0  0  0  0  0  0  0  0  0  0
  -23.3400   30.7850    5.1260 C   0  0  0  0  0  0  0  0  0  0  0  0
  -23.4210   31.8230    4.0740 N   0  3  0  0  0  0  0  0  0  0  0  0
  -23.7330   32.2990    8.6720 N   0  0  0  0  0  0  0  0  0  0  0  0
  -24.2190   33.6340    8.3120 C   0  0  2  0  0  0  0  0  0  0  0  0
  -23.5690   34.6040    9.3040 C   0  0  0  0  0  0  0  0  0  0  0  0
  -24.1200   34.8910   10.3670 O   0  0  0  0  0  0  0  0  0  0  0  0
  -25.7430   33.6900    8.4340 C   0  0  0  0  0  0  0  0  0  0  0  0
  -26.4640   34.3290    7.2550 C   0  0  0  0  0  0  0  0  0  0  0  0
  -26.4380   33.4680    6.0020 C   0  0  0  0  0  0  0  0  0  0  0  0
  -26.6170   32.2520    6.0730 O   0  0  0  0  0  0  0  0  0  0  0  0
  -26.2330   34.0990    4.8440 N   0  0  0  0  0  0  0  0  0  0  0  0
  -22.3820   35.0880    8.9580 N   0  0  0  0  0  0  0  0  0  0  0  0
  -21.6410   35.9920    9.8300 C   0  0  2  0  0  0  0  0  0  0  0  0
  -20.7780   36.9910    9.0530 C   0  0  0  0  0  0  0  0  0  0  0  0
  -20.2760   36.6850    7.9630 O   0  0  0  0  0  0  0  0  0  0  0  0
  -20.7470   35.1790   10.7610 C   0  0  0  0  0  0  0  0  0  0  0  0
  -19.6320   34.4600   10.0390 C   0  0  0  0  0  0  0  0  0  0  0  0
  -18.5950   33.8970   10.9880 C   0  0  0  0  0  0  0  0  0  0  0  0
  -17.5680   33.3860   10.5010 O   0  5  0  0  0  0  0  0  0  0  0  0
  -18.7990   33.9630   12.2230 O   0  0  0  0  0  0  0  0  0  0  0  0
  -20.6060   38.1860    9.6150 N   0  0  0  0  0  0  0  0  0  0  0  0
  -19.7980   39.2130    8.9680 C   0  0  2  0  0  0  0  0  0  0  0  0
  -18.7250   39.7420    9.9110 C   0  0  0  0  0  0  0  0  0  0  0  0
  -18.9540   39.9220   11.1130 O   0  0  0  0  0  0  0  0  0  0  0  0
  -20.6810   40.3670    8.4740 C   0  0  0  0  0  0  0  0  0  0  0  0
  -17.5440   39.9690    9.3510 N   0  0  0  0  0  0  0  0  0  0  0  0
  -16.4170   40.4960   10.1040 C   0  0  2  0  0  0  0  0  0  0  0  0
  -16.7840   41.8950   10.5750 C   0  0  0  0  0  0  0  0  0  0  0  0
  -17.5050   42.6240    9.8900 O   0  0  0  0  0  0  0  0  0  0  0  0
  -15.1730   40.5530    9.1980 C   0  0  0  0  0  0  0  0  0  0  0  0
  -15.2970   41.2070    7.7990 C   0  0  0  0  0  0  0  0  0  0  0  0
  -15.1560   42.7340    7.9100 C   0  0  0  0  0  0  0  0  0  0  0  0
  -14.2190   40.6470    6.8610 C   0  0  0  0  0  0  0  0  0  0  0  0
  -16.3140   42.2780   11.7490 N   0  0  0  0  0  0  0  0  0  0  0  0
  -16.6130   43.6190   12.2160 C   0  0  2  0  0  0  0  0  0  0  0  0
  -15.6610   44.0980   13.3060 C   0  0  0  0  0  0  0  0  0  0  0  0
  -15.8340   43.7900   14.4860 O   0  0  0  0  0  0  0  0  0  0  0  0
  -18.0460   43.7100   12.6980 C   0  0  0  0  0  0  0  0  0  0  0  0
  -18.4990   45.0950   12.8360 C   0  0  0  0  0  0  0  0  0  0  0  0
  -18.7640   45.8490   11.7140 C   0  0  0  0  0  0  0  0  0  0  0  0
  -18.5450   45.6950   14.0750 C   0  0  0  0  0  0  0  0  0  0  0  0
  -19.0670   47.2020   11.8200 C   0  0  0  0  0  0  0  0  0  0  0  0
  -18.8460   47.0440   14.1980 C   0  0  0  0  0  0  0  0  0  0  0  0
  -19.1070   47.8040   13.0650 C   0  0  0  0  0  0  0  0  0  0  0  0
  -14.6680   44.8770   12.8890 N   0  0  0  0  0  0  0  0  0  0  0  0
  -13.6320   45.3830   13.7780 C   0  0  2  0  0  0  0  0  0  0  0  0
  -13.8340   46.8480   14.2030 C   0  0  0  0  0  0  0  0  0  0  0  0
  -13.6640   47.7470   13.3490 O   0  5  0  0  0  0  0  0  0  0  0  0
  -12.2740   45.2100   13.0870 C   0  0  0  0  0  0  0  0  0  0  0  0
  -12.1770   43.9520   12.2110 C   0  0  0  0  0  0  0  0  0  0  0  0
  -12.2690   42.6710   13.0340 C   0  0  0  0  0  0  0  0  0  0  0  0
  -12.6410   41.4660   12.1710 C   0  0  0  0  0  0  0  0  0  0  0  0
  -11.7700   41.3240   10.9770 N   0  3  0  0  0  0  0  0  0  0  0  0
  -14.1620   47.0870   15.3920 O   0  0  0  0  0  0  0  0  0  0  0  0
  -24.4512   32.8358   36.7164 H   0  0  0  0  0  0  0  0  0  0  0  0
  -24.3356   31.2142   36.9740 H   0  0  0  0  0  0  0  0  0  0  0  0
  -24.8277   31.7819   35.5094 H   0  0  0  0  0  0  0  0  0  0  0  0
  -22.7044   32.7777   35.0838 H   0  0  0  0  0  0  0  0  0  0  0  0
  -22.2494   33.1261   37.5740 H   0  0  0  0  0  0  0  0  0  0  0  0
  -20.8639   32.5221   36.6033 H   0  0  0  0  0  0  0  0  0  0  0  0
  -21.3882   30.4112   37.3943 H   0  0  0  0  0  0  0  0  0  0  0  0
  -23.7998   30.8872   33.7445 H   0  0  0  0  0  0  0  0  0  0  0  0
  -21.6819   28.8398   33.4769 H   0  0  0  0  0  0  0  0  0  0  0  0
  -24.6369   28.0144   33.5763 H   0  0  0  0  0  0  0  0  0  0  0  0
  -23.6809   25.7195   33.4794 H   0  0  0  0  0  0  0  0  0  0  0  0
  -22.0289   26.4169   33.3741 H   0  0  0  0  0  0  0  0  0  0  0  0
  -23.2074   26.6949   32.0472 H   0  0  0  0  0  0  0  0  0  0  0  0
  -23.8250   28.6135   35.8455 H   0  0  0  0  0  0  0  0  0  0  0  0
  -22.4187   27.5170   35.6300 H   0  0  0  0  0  0  0  0  0  0  0  0
  -24.0829   26.8432   35.6839 H   0  0  0  0  0  0  0  0  0  0  0  0
  -22.6050   30.7096   29.4915 H   0  0  0  0  0  0  0  0  0  0  0  0
  -20.5584   30.4819   28.3718 H   0  0  0  0  0  0  0  0  0  0  0  0
  -20.4259   28.7319   28.7549 H   0  0  0  0  0  0  0  0  0  0  0  0
  -19.9621   31.1210   30.5760 H   0  0  0  0  0  0  0  0  0  0  0  0
  -18.8797   29.7247   30.2513 H   0  0  0  0  0  0  0  0  0  0  0  0
  -20.3379   28.1951   31.3931 H   0  0  0  0  0  0  0  0  0  0  0  0
  -20.4011   29.6614   32.4289 H   0  0  0  0  0  0  0  0  0  0  0  0
  -24.0489   30.2431   28.1041 H   0  0  0  0  0  0  0  0  0  0  0  0
  -24.8916   27.4276   27.6173 H   0  0  0  0  0  0  0  0  0  0  0  0
  -26.0774   30.1099   26.6546 H   0  0  0  0  0  0  0  0  0  0  0  0
  -27.8702   29.7303   28.2680 H   0  0  0  0  0  0  0  0  0  0  0  0
  -26.2789   29.8158   29.0970 H   0  0  0  0  0  0  0  0  0  0  0  0
  -26.5118   28.1963   25.1564 H   0  0  0  0  0  0  0  0  0  0  0  0
  -28.0091   28.7554   25.9761 H   0  0  0  0  0  0  0  0  0  0  0  0
  -27.1768   27.2678   26.5428 H   0  0  0  0  0  0  0  0  0  0  0  0
  -27.6836   28.0530   30.0291 H   0  0  0  0  0  0  0  0  0  0  0  0
  -26.2211   27.3738   29.2378 H   0  0  0  0  0  0  0  0  0  0  0  0
  -27.8124   27.2883   28.4089 H   0  0  0  0  0  0  0  0  0  0  0  0
  -24.1555   26.4994   25.7068 H   0  0  0  0  0  0  0  0  0  0  0  0
  -22.2609   27.6142   23.9800 H   0  0  0  0  0  0  0  0  0  0  0  0
  -23.0480   25.9239   22.2999 H   0  0  0  0  0  0  0  0  0  0  0  0
  -24.4409   25.5668   23.3765 H   0  0  0  0  0  0  0  0  0  0  0  0
  -23.0431   23.8565   23.9407 H   0  0  0  0  0  0  0  0  0  0  0  0
  -22.5231   25.0908   25.1376 H   0  0  0  0  0  0  0  0  0  0  0  0
  -19.2227   24.9471   24.1169 H   0  0  0  0  0  0  0  0  0  0  0  0
  -20.4008   25.1977   25.3616 H   0  0  0  0  0  0  0  0  0  0  0  0
  -23.3782   27.2182   21.3749 H   0  0  0  0  0  0  0  0  0  0  0  0
  -25.4090   29.3975   21.1067 H   0  0  0  0  0  0  0  0  0  0  0  0
  -22.5760   29.2790   20.0778 H   0  0  0  0  0  0  0  0  0  0  0  0
  -23.5121   30.6738   20.7140 H   0  0  0  0  0  0  0  0  0  0  0  0
  -23.0873   30.9938   18.1018 H   0  0  0  0  0  0  0  0  0  0  0  0
  -26.9972   28.5411   19.8970 H   0  0  0  0  0  0  0  0  0  0  0  0
  -26.7846   25.9419   18.7641 H   0  0  0  0  0  0  0  0  0  0  0  0
  -29.0318   26.4045   17.7682 H   0  0  0  0  0  0  0  0  0  0  0  0
  -28.5985   29.0199   18.8507 H   0  0  0  0  0  0  0  0  0  0  0  0
  -30.1970   26.7978   19.9157 H   0  0  0  0  0  0  0  0  0  0  0  0
  -28.6610   27.3806   20.6421 H   0  0  0  0  0  0  0  0  0  0  0  0
  -28.8141   25.6694   20.1178 H   0  0  0  0  0  0  0  0  0  0  0  0
  -26.7216   29.1552   17.2267 H   0  0  0  0  0  0  0  0  0  0  0  0
  -26.7163   28.2541   14.5279 H   0  0  0  0  0  0  0  0  0  0  0  0
  -25.4116   30.7506   15.7192 H   0  0  0  0  0  0  0  0  0  0  0  0
  -27.1480   30.5950   15.2862 H   0  0  0  0  0  0  0  0  0  0  0  0
  -24.6445   27.1308   16.6671 H   0  0  0  0  0  0  0  0  0  0  0  0
  -22.0316   27.6276   15.5583 H   0  0  0  0  0  0  0  0  0  0  0  0
  -22.3906   26.6106   17.8012 H   0  0  0  0  0  0  0  0  0  0  0  0
  -21.3525   25.5920   16.7469 H   0  0  0  0  0  0  0  0  0  0  0  0
  -23.3390   24.1358   16.2712 H   0  0  0  0  0  0  0  0  0  0  0  0
  -24.2965   25.1170   17.4318 H   0  0  0  0  0  0  0  0  0  0  0  0
  -22.3438   24.5665   19.1080 H   0  0  0  0  0  0  0  0  0  0  0  0
  -21.9659   23.2403   17.9569 H   0  0  0  0  0  0  0  0  0  0  0  0
  -23.3605   22.3042   19.6558 H   0  0  0  0  0  0  0  0  0  0  0  0
  -24.3815   22.4909   18.1897 H   0  0  0  0  0  0  0  0  0  0  0  0
  -25.5219   23.1990   20.1745 H   0  0  0  0  0  0  0  0  0  0  0  0
  -25.2950   24.4845   19.1717 H   0  0  0  0  0  0  0  0  0  0  0  0
  -24.3594   24.3134   20.5152 H   0  0  0  0  0  0  0  0  0  0  0  0
  -24.6526   26.6607   14.0371 H   0  0  0  0  0  0  0  0  0  0  0  0
  -23.3752   24.5308   12.4000 H   0  0  0  0  0  0  0  0  0  0  0  0
  -25.7979   24.0096   11.7036 H   0  0  0  0  0  0  0  0  0  0  0  0
  -26.2985   25.6946   13.9664 H   0  0  0  0  0  0  0  0  0  0  0  0
  -26.2643   22.7517   13.7916 H   0  0  0  0  0  0  0  0  0  0  0  0
  -25.0421   23.7390   14.6622 H   0  0  0  0  0  0  0  0  0  0  0  0
  -24.5296   22.6365   13.3399 H   0  0  0  0  0  0  0  0  0  0  0  0
  -25.2647   27.5725   12.1389 H   0  0  0  0  0  0  0  0  0  0  0  0
  -24.9407   27.4991    9.1978 H   0  0  0  0  0  0  0  0  0  0  0  0
  -26.7054   28.9058   11.1175 H   0  0  0  0  0  0  0  0  0  0  0  0
  -27.0104   28.3754    9.4286 H   0  0  0  0  0  0  0  0  0  0  0  0
  -23.7807   28.9311    7.9843 H   0  0  0  0  0  0  0  0  0  0  0  0
  -21.7896   30.5008    9.5053 H   0  0  0  0  0  0  0  0  0  0  0  0
  -20.7267   28.9286    8.1116 H   0  0  0  0  0  0  0  0  0  0  0  0
  -20.5323   30.5194    7.3004 H   0  0  0  0  0  0  0  0  0  0  0  0
  -22.7881   28.6923    6.4743 H   0  0  0  0  0  0  0  0  0  0  0  0
  -21.1134   28.3461    5.9245 H   0  0  0  0  0  0  0  0  0  0  0  0
  -21.7823   29.6633    4.1784 H   0  0  0  0  0  0  0  0  0  0  0  0
  -21.2123   30.9579    5.2855 H   0  0  0  0  0  0  0  0  0  0  0  0
  -23.5438   31.2435    6.1049 H   0  0  0  0  0  0  0  0  0  0  0  0
  -24.0879   30.0041    4.9240 H   0  0  0  0  0  0  0  0  0  0  0  0
  -24.3436   32.2290    4.0730 H   0  0  0  0  0  0  0  0  0  0  0  0
  -23.2367   31.4056    3.1752 H   0  0  0  0  0  0  0  0  0  0  0  0
  -22.7380   32.5413    4.2574 H   0  0  0  0  0  0  0  0  0  0  0  0
  -24.1833   31.8014    9.4134 H   0  0  0  0  0  0  0  0  0  0  0  0
  -23.9231   33.8847    7.2826 H   0  0  0  0  0  0  0  0  0  0  0  0
  -25.9913   34.2661    9.3376 H   0  0  0  0  0  0  0  0  0  0  0  0
  -26.1140   32.6601    8.5422 H   0  0  0  0  0  0  0  0  0  0  0  0
  -25.9808   35.2909    7.0288 H   0  0  0  0  0  0  0  0  0  0  0  0
  -27.5125   34.5030    7.5384 H   0  0  0  0  0  0  0  0  0  0  0  0
  -26.2066   33.5800    3.9896 H   0  0  0  0  0  0  0  0  0  0  0  0
  -26.1058   35.0908    4.8307 H   0  0  0  0  0  0  0  0  0  0  0  0
  -21.9864   34.8262    8.0777 H   0  0  0  0  0  0  0  0  0  0  0  0
  -22.3653   36.5581   10.4341 H   0  0  0  0  0  0  0  0  0  0  0  0
  -21.3678   34.4319   11.2772 H   0  0  0  0  0  0  0  0  0  0  0  0
  -20.3018   35.8603   11.5010 H   0  0  0  0  0  0  0  0  0  0  0  0
  -19.1386   35.1685    9.3574 H   0  0  0  0  0  0  0  0  0  0  0  0
  -20.0643   33.6323    9.4576 H   0  0  0  0  0  0  0  0  0  0  0  0
  -21.0381   38.3823   10.4952 H   0  0  0  0  0  0  0  0  0  0  0  0
  -19.3002   38.7603    8.0978 H   0  0  0  0  0  0  0  0  0  0  0  0
  -20.0520   41.1288    7.9902 H   0  0  0  0  0  0  0  0  0  0  0  0
  -21.2092   40.8161    9.3280 H   0  0  0  0  0  0  0  0  0  0  0  0
  -21.4146   39.9833    7.7497 H   0  0  0  0  0  0  0  0  0  0  0  0
  -17.4247   39.7710    8.3781 H   0  0  0  0  0  0  0  0  0  0  0  0
  -16.2107   39.8518   10.9714 H   0  0  0  0  0  0  0  0  0  0  0  0
  -14.8393   39.5166    9.0417 H   0  0  0  0  0  0  0  0  0  0  0  0
  -14.3986   41.1088    9.7470 H   0  0  0  0  0  0  0  0  0  0  0  0
  -16.2878   40.9713    7.3835 H   0  0  0  0  0  0  0  0  0  0  0  0
  -15.2460   43.1841    6.9104 H   0  0  0  0  0  0  0  0  0  0  0  0
  -14.1726   42.9814    8.3363 H   0  0  0  0  0  0  0  0  0  0  0  0
  -15.9485   43.1290    8.5627 H   0  0  0  0  0  0  0  0  0  0  0  0
  -14.3279   39.5548    6.7880 H   0  0  0  0  0  0  0  0  0  0  0  0
  -13.2233   40.8903    7.2601 H   0  0  0  0  0  0  0  0  0  0  0  0
  -14.3332   41.0944    5.8626 H   0  0  0  0  0  0  0  0  0  0  0  0
  -15.7629   41.6558   12.3050 H   0  0  0  0  0  0  0  0  0  0  0  0
  -16.5006   44.2980   11.3579 H   0  0  0  0  0  0  0  0  0  0  0  0
  -18.1222   43.2138   13.6768 H   0  0  0  0  0  0  0  0  0  0  0  0
  -18.6958   43.1958   11.9746 H   0  0  0  0  0  0  0  0  0  0  0  0
  -18.7360   45.3818   10.7363 H   0  0  0  0  0  0  0  0  0  0  0  0
  -18.3440   45.1072   14.9633 H   0  0  0  0  0  0  0  0  0  0  0  0
  -19.2715   47.7840   10.9287 H   0  0  0  0  0  0  0  0  0  0  0  0
  -18.8775   47.5049   15.1786 H   0  0  0  0  0  0  0  0  0  0  0  0
  -19.3398   48.8588   13.1554 H   0  0  0  0  0  0  0  0  0  0  0  0
  -14.6309   45.1267   11.9214 H   0  0  0  0  0  0  0  0  0  0  0  0
  -13.6415   44.7696   14.6910 H   0  0  0  0  0  0  0  0  0  0  0  0
  -11.4957   45.1530   13.8622 H   0  0  0  0  0  0  0  0  0  0  0  0
  -12.0944   46.0894   12.4511 H   0  0  0  0  0  0  0  0  0  0  0  0
  -11.2142   43.9635   11.6792 H   0  0  0  0  0  0  0  0  0  0  0  0
  -12.9994   43.9641   11.4806 H   0  0  0  0  0  0  0  0  0  0  0  0
  -13.0359   42.8020   13.8117 H   0  0  0  0  0  0  0  0  0  0  0  0
  -11.2946   42.4819   13.5080 H   0  0  0  0  0  0  0  0  0  0  0  0
  -13.6820   41.5820   11.8351 H   0  0  0  0  0  0  0  0  0  0  0  0
  -12.5520   40.5553   12.7815 H   0  0  0  0  0  0  0  0  0  0  0  0
  -12.0576   40.5173   10.4454 H   0  0  0  0  0  0  0  0  0  0  0  0
  -10.8128   41.2087   11.2711 H   0  0  0  0  0  0  0  0  0  0  0  0
  -11.8483   42.1495   10.4039 H   0  0  0  0  0  0  0  0  0  0  0  0
  1  2  1  0  0  0  0
  1144  1  0  0  0  0
  1145  1  0  0  0  0
  1146  1  0  0  0  0
  2  3  1  0  0  0  0
  2  5  1  0  0  0  0
  2147  1  6  0  0  0
  3  4  2  0  0  0  0
  3  7  1  0  0  0  0
  5  6  1  0  0  0  0
  5148  1  0  0  0  0
  5149  1  0  0  0  0
  6150  1  0  0  0  0
  7  8  1  0  0  0  0
  7151  1  0  0  0  0
  8  9  1  0  0  0  0
  8 11  1  0  0  0  0
  8152  1  1  0  0  0
  9 10  2  0  0  0  0
  9 14  1  0  0  0  0
 11 12  1  0  0  0  0
 11 13  1  0  0  0  0
 11153  1  0  0  0  0
 12154  1  0  0  0  0
 12155  1  0  0  0  0
 12156  1  0  0  0  0
 13157  1  0  0  0  0
 13158  1  0  0  0  0
 13159  1  0  0  0  0
 14 15  1  0  0  0  0
 14 20  1  0  0  0  0
 15 16  1  0  0  0  0
 15 18  1  0  0  0  0
 15160  1  6  0  0  0
 16 17  2  0  0  0  0
 16 21  1  0  0  0  0
 18 19  1  0  0  0  0
 18161  1  0  0  0  0
 18162  1  0  0  0  0
 19 20  1  0  0  0  0
 19163  1  0  0  0  0
 19164  1  0  0  0  0
 20165  1  0  0  0  0
 20166  1  0  0  0  0
 21 22  1  0  0  0  0
 21167  1  0  0  0  0
 22 23  1  0  0  0  0
 22 25  1  0  0  0  0
 22168  1  1  0  0  0
 23 24  2  0  0  0  0
 23 29  1  0  0  0  0
 25 26  1  0  0  0  0
 25 27  1  0  0  0  0
 25169  1  6  0  0  0
 26 28  1  0  0  0  0
 26170  1  0  0  0  0
 26171  1  0  0  0  0
 27172  1  0  0  0  0
 27173  1  0  0  0  0
 27174  1  0  0  0  0
 28175  1  0  0  0  0
 28176  1  0  0  0  0
 28177  1  0  0  0  0
 29 30  1  0  0  0  0
 29178  1  0  0  0  0
 30 31  1  0  0  0  0
 30 33  1  0  0  0  0
 30179  1  1  0  0  0
 31 32  2  0  0  0  0
 31 38  1  0  0  0  0
 33 34  1  0  0  0  0
 33180  1  0  0  0  0
 33181  1  0  0  0  0
 34 35  1  0  0  0  0
 34182  1  0  0  0  0
 34183  1  0  0  0  0
 35 36  2  0  0  0  0
 35 37  1  0  0  0  0
 37184  1  0  0  0  0
 37185  1  0  0  0  0
 38 39  1  0  0  0  0
 38186  1  0  0  0  0
 39 40  1  0  0  0  0
 39 42  1  0  0  0  0
 39187  1  1  0  0  0
 40 41  2  0  0  0  0
 40 44  1  0  0  0  0
 42 43  1  0  0  0  0
 42188  1  0  0  0  0
 42189  1  0  0  0  0
 43190  1  0  0  0  0
 44 45  1  0  0  0  0
 44191  1  0  0  0  0
 45 46  1  0  0  0  0
 45 48  1  0  0  0  0
 45192  1  1  0  0  0
 46 47  2  0  0  0  0
 46 51  1  0  0  0  0
 48 49  1  0  0  0  0
 48 50  1  0  0  0  0
 48193  1  6  0  0  0
 49194  1  0  0  0  0
 50195  1  0  0  0  0
 50196  1  0  0  0  0
 50197  1  0  0  0  0
 51 52  1  0  0  0  0
 51198  1  0  0  0  0
 52 53  1  0  0  0  0
 52 55  1  0  0  0  0
 52199  1  6  0  0  0
 53 54  2  0  0  0  0
 53 59  1  0  0  0  0
 55 56  1  0  0  0  0
 55200  1  0  0  0  0
 55201  1  0  0  0  0
 56 57  1  0  0  0  0
 56 58  2  0  0  0  0
 59 60  1  0  0  0  0
 59202  1  0  0  0  0
 60 61  1  0  0  0  0
 60 63  1  0  0  0  0
 60203  1  6  0  0  0
 61 62  2  0  0  0  0
 61 68  1  0  0  0  0
 63 64  1  0  0  0  0
 63204  1  0  0  0  0
 63205  1  0  0  0  0
 64 65  1  0  0  0  0
 64206  1  0  0  0  0
 64207  1  0  0  0  0
 65 66  1  0  0  0  0
 65208  1  0  0  0  0
 65209  1  0  0  0  0
 66 67  1  0  0  0  0
 66210  1  0  0  0  0
 66211  1  0  0  0  0
 67212  1  0  0  0  0
 67213  1  0  0  0  0
 67214  1  0  0  0  0
 68 69  1  0  0  0  0
 68215  1  0  0  0  0
 69 70  1  0  0  0  0
 69 72  1  0  0  0  0
 69216  1  6  0  0  0
 70 71  2  0  0  0  0
 70 75  1  0  0  0  0
 72 73  1  0  0  0  0
 72 74  1  0  0  0  0
 72217  1  6  0  0  0
 73218  1  0  0  0  0
 74219  1  0  0  0  0
 74220  1  0  0  0  0
 74221  1  0  0  0  0
 75 76  1  0  0  0  0
 75222  1  0  0  0  0
 76 77  1  0  0  0  0
 76 79  1  0  0  0  0
 76223  1  6  0  0  0
 77 78  2  0  0  0  0
 77 83  1  0  0  0  0
 79 80  1  0  0  0  0
 79224  1  0  0  0  0
 79225  1  0  0  0  0
 80 81  1  0  0  0  0
 80 82  2  0  0  0  0
 83 84  1  0  0  0  0
 83226  1  0  0  0  0
 84 85  1  0  0  0  0
 84 87  1  0  0  0  0
 84227  1  1  0  0  0
 85 86  2  0  0  0  0
 85 92  1  0  0  0  0
 87 88  1  0  0  0  0
 87228  1  0  0  0  0
 87229  1  0  0  0  0
 88 89  1  0  0  0  0
 88230  1  0  0  0  0
 88231  1  0  0  0  0
 89 90  1  0  0  0  0
 89232  1  0  0  0  0
 89233  1  0  0  0  0
 90 91  1  0  0  0  0
 90234  1  0  0  0  0
 90235  1  0  0  0  0
 91236  1  0  0  0  0
 91237  1  0  0  0  0
 91238  1  0  0  0  0
 92 93  1  0  0  0  0
 92239  1  0  0  0  0
 93 94  1  0  0  0  0
 93 96  1  0  0  0  0
 93240  1  6  0  0  0
 94 95  2  0  0  0  0
 94101  1  0  0  0  0
 96 97  1  0  0  0  0
 96241  1  0  0  0  0
 96242  1  0  0  0  0
 97 98  1  0  0  0  0
 97243  1  0  0  0  0
 97244  1  0  0  0  0
 98 99  2  0  0  0  0
 98100  1  0  0  0  0
100245  1  0  0  0  0
100246  1  0  0  0  0
101102  1  0  0  0  0
101247  1  0  0  0  0
102103  1  0  0  0  0
102105  1  0  0  0  0
102248  1  1  0  0  0
103104  2  0  0  0  0
103110  1  0  0  0  0
105106  1  0  0  0  0
105249  1  0  0  0  0
105250  1  0  0  0  0
106107  1  0  0  0  0
106251  1  0  0  0  0
106252  1  0  0  0  0
107108  1  0  0  0  0
107109  2  0  0  0  0
110111  1  0  0  0  0
110253  1  0  0  0  0
111112  1  0  0  0  0
111114  1  0  0  0  0
111254  1  6  0  0  0
112113  2  0  0  0  0
112115  1  0  0  0  0
114255  1  0  0  0  0
114256  1  0  0  0  0
114257  1  0  0  0  0
115116  1  0  0  0  0
115258  1  0  0  0  0
116117  1  0  0  0  0
116119  1  0  0  0  0
116259  1  1  0  0  0
117118  2  0  0  0  0
117123  1  0  0  0  0
119120  1  0  0  0  0
119260  1  0  0  0  0
119261  1  0  0  0  0
120121  1  0  0  0  0
120122  1  0  0  0  0
120262  1  0  0  0  0
121263  1  0  0  0  0
121264  1  0  0  0  0
121265  1  0  0  0  0
122266  1  0  0  0  0
122267  1  0  0  0  0
122268  1  0  0  0  0
123124  1  0  0  0  0
123269  1  0  0  0  0
124125  1  0  0  0  0
124127  1  0  0  0  0
124270  1  6  0  0  0
125126  2  0  0  0  0
125134  1  0  0  0  0
127128  1  0  0  0  0
127271  1  0  0  0  0
127272  1  0  0  0  0
128129  2  0  0  0  0
128130  1  0  0  0  0
129131  1  0  0  0  0
129273  1  0  0  0  0
130132  2  0  0  0  0
130274  1  0  0  0  0
131133  2  0  0  0  0
131275  1  0  0  0  0
132133  1  0  0  0  0
132276  1  0  0  0  0
133277  1  0  0  0  0
134135  1  0  0  0  0
134278  1  0  0  0  0
135136  1  0  0  0  0
135138  1  0  0  0  0
135279  1  1  0  0  0
136137  1  0  0  0  0
136143  2  0  0  0  0
138139  1  0  0  0  0
138280  1  0  0  0  0
138281  1  0  0  0  0
139140  1  0  0  0  0
139282  1  0  0  0  0
139283  1  0  0  0  0
140141  1  0  0  0  0
140284  1  0  0  0  0
140285  1  0  0  0  0
141142  1  0  0  0  0
141286  1  0  0  0  0
141287  1  0  0  0  0
142288  1  0  0  0  0
142289  1  0  0  0  0
142290  1  0  0  0  0
M  CHG  8   1   1  57  -1  67   1  81  -1  91   1 108  -1 137  -1 142   1
M  END
