1l5r_ligand
 OpenBabel08222323343D

 48 50  0  0  1  0  0  0  0  0999 V2000
   36.1500  -58.7290   99.8420 N   0  0  0  0  0  0  0  0  0  0  0  0
   36.3280  -59.3000   98.5780 C   0  0  0  0  0  0  0  0  0  0  0  0
   35.4650  -59.4820   97.7700 O   0  0  0  0  0  0  0  0  0  0  0  0
   37.6190  -59.6860   98.2520 N   0  0  0  0  0  0  0  0  0  0  0  0
   38.6810  -59.5260   99.1340 C   0  0  0  0  0  0  0  0  0  0  0  0
   39.8390  -59.8560   98.8920 O   0  0  0  0  0  0  0  0  0  0  0  0
   38.4490  -58.9190  100.5060 C   0  0  0  0  0  0  0  0  0  0  0  0
   39.4540  -58.7990  101.3140 N   0  0  0  0  0  0  0  0  0  0  0  0
   39.1960  -58.2390  102.5770 C   0  0  0  0  0  0  0  0  0  0  0  0
   40.2820  -58.1150  103.4790 C   0  0  0  0  0  3  0  0  0  0  0  0
   40.0800  -57.5650  104.7510 C   0  0  0  0  0  0  0  0  0  0  0  0
   41.1860  -57.3970  105.8000 C   0  0  0  0  0  0  0  0  0  0  0  0
   38.7280  -57.1150  105.1280 C   0  0  0  0  0  0  0  0  0  0  0  0
   38.4780  -56.4970  106.5430 C   0  0  0  0  0  0  0  0  0  0  0  0
   37.6550  -57.2180  104.2780 C   0  0  0  0  0  0  0  0  0  0  0  0
   37.9050  -57.7940  102.9870 C   0  0  0  0  0  0  0  0  0  0  0  0
   36.8840  -57.9670  102.0180 N   0  0  0  0  0  0  0  0  0  0  0  0
   37.1050  -58.5270  100.7840 C   0  0  0  0  0  0  0  0  0  0  0  0
   35.4500  -57.5220  102.3080 C   0  0  0  0  0  0  0  0  0  0  0  0
   34.7090  -58.6060  103.1460 C   0  0  2  0  0  0  0  0  0  0  0  0
   34.5180  -59.8210  102.3570 O   0  0  0  0  0  0  0  0  0  0  0  0
   33.3120  -58.1390  103.5260 C   0  0  2  0  0  0  0  0  0  0  0  0
   32.6690  -57.9220  102.2940 O   0  0  0  0  0  0  0  0  0  0  0  0
   33.3070  -56.9020  104.3570 C   0  0  2  0  0  0  0  0  0  0  0  0
   34.2490  -56.7170  105.4080 O   0  0  0  0  0  0  0  0  0  0  0  0
   31.9130  -56.7320  105.0840 C   0  0  0  0  0  0  0  0  0  0  0  0
   31.9860  -55.3330  105.3570 O   0  0  0  0  0  0  0  0  0  0  0  0
   35.2219  -58.4394  100.0759 H   0  0  0  0  0  0  0  0  0  0  0  0
   37.7914  -60.0921   97.3546 H   0  0  0  0  0  0  0  0  0  0  0  0
   41.2710  -58.4465  103.1838 H   0  0  0  0  0  0  0  0  0  0  0  0
   42.1374  -57.7698  105.3926 H   0  0  0  0  0  0  0  0  0  0  0  0
   40.9248  -57.9684  106.7029 H   0  0  0  0  0  0  0  0  0  0  0  0
   41.2892  -56.3324  106.0568 H   0  0  0  0  0  0  0  0  0  0  0  0
   37.4173  -56.2226  106.6410 H   0  0  0  0  0  0  0  0  0  0  0  0
   39.1018  -55.5995  106.6666 H   0  0  0  0  0  0  0  0  0  0  0  0
   38.7389  -57.2343  107.3165 H   0  0  0  0  0  0  0  0  0  0  0  0
   36.6664  -56.8806  104.5677 H   0  0  0  0  0  0  0  0  0  0  0  0
   34.9173  -57.3707  101.3576 H   0  0  0  0  0  0  0  0  0  0  0  0
   35.4696  -56.5777  102.8717 H   0  0  0  0  0  0  0  0  0  0  0  0
   35.2943  -58.8272  104.0507 H   0  0  0  0  0  0  0  0  0  0  0  0
   34.0005  -59.6188  101.5864 H   0  0  0  0  0  0  0  0  0  0  0  0
   32.7971  -58.9334  104.0861 H   0  0  0  0  0  0  0  0  0  0  0  0
   32.6507  -58.7335  101.8004 H   0  0  0  0  0  0  0  0  0  0  0  0
   33.4489  -56.0708  103.6506 H   0  0  0  0  0  0  0  0  0  0  0  0
   34.0958  -55.8772  105.8249 H   0  0  0  0  0  0  0  0  0  0  0  0
   31.8498  -57.3311  106.0044 H   0  0  0  0  0  0  0  0  0  0  0  0
   31.0686  -56.9821  104.4249 H   0  0  0  0  0  0  0  0  0  0  0  0
   32.7424  -55.1573  105.9043 H   0  0  0  0  0  0  0  0  0  0  0  0
  1  2  1  0  0  0  0
  1 18  1  0  0  0  0
  1 28  1  0  0  0  0
  2  3  2  0  0  0  0
  2  4  1  0  0  0  0
  4  5  1  0  0  0  0
  4 29  1  0  0  0  0
  5  6  2  0  0  0  0
  5  7  1  0  0  0  0
  7  8  1  0  0  0  0
  7 18  2  0  0  0  0
  8  9  2  0  0  0  0
  9 10  1  0  0  0  0
  9 16  1  0  0  0  0
 10 11  1  0  0  0  0
 10 30  1  0  0  0  0
 11 12  1  0  0  0  0
 11 13  2  0  0  0  0
 12 31  1  0  0  0  0
 12 32  1  0  0  0  0
 12 33  1  0  0  0  0
 13 14  1  0  0  0  0
 13 15  1  0  0  0  0
 14 34  1  0  0  0  0
 14 35  1  0  0  0  0
 14 36  1  0  0  0  0
 15 16  2  0  0  0  0
 15 37  1  0  0  0  0
 16 17  1  0  0  0  0
 17 18  1  0  0  0  0
 17 19  1  0  0  0  0
 19 20  1  0  0  0  0
 19 38  1  0  0  0  0
 19 39  1  0  0  0  0
 20 21  1  0  0  0  0
 20 22  1  0  0  0  0
 20 40  1  1  0  0  0
 21 41  1  0  0  0  0
 22 23  1  0  0  0  0
 22 24  1  0  0  0  0
 22 42  1  1  0  0  0
 23 43  1  0  0  0  0
 24 25  1  0  0  0  0
 24 26  1  0  0  0  0
 24 44  1  6  0  0  0
 25 45  1  0  0  0  0
 26 27  1  0  0  0  0
 26 46  1  0  0  0  0
 26 47  1  0  0  0  0
 27 48  1  0  0  0  0
M  END
