1lb6_ligand
 OpenBabel08222323343D

154155  0  0  1  0  0  0  0  0999 V2000
   25.0230   20.8220   15.9910 N   0  3  0  0  0  0  0  0  0  0  0  0
   23.7190   20.1800   16.3280 C   0  0  2  0  0  0  0  0  0  0  0  0
   22.6340   20.6080   15.3550 C   0  0  0  0  0  0  0  0  0  0  0  0
   22.3820   21.8040   15.1750 O   0  0  0  0  0  0  0  0  0  0  0  0
   23.3010   20.5550   17.7500 C   0  0  0  0  0  0  0  0  0  0  0  0
   21.9800   19.9430   18.1830 C   0  0  0  0  0  0  0  0  0  0  0  0
   21.6390   20.3420   19.6040 C   0  0  0  0  0  0  0  0  0  0  0  0
   20.3430   19.7010   20.0590 C   0  0  0  0  0  0  0  0  0  0  0  0
   20.0370   20.0430   21.4740 N   0  3  0  0  0  0  0  0  0  0  0  0
   21.9840   19.6330   14.7290 N   0  0  0  0  0  0  0  0  0  0  0  0
   20.9200   19.9260   13.7740 C   0  0  2  0  0  0  0  0  0  0  0  0
   19.7780   20.6890   14.4370 C   0  0  0  0  0  0  0  0  0  0  0  0
   19.2920   20.3020   15.5010 O   0  0  0  0  0  0  0  0  0  0  0  0
   20.3950   18.6230   13.1540 C   0  0  0  0  0  0  0  0  0  0  0  0
   19.2570   18.8460   12.1840 C   0  0  0  0  0  0  0  0  0  0  0  0
   19.0270   17.6720   11.2540 C   0  0  0  0  0  0  0  0  0  0  0  0
   18.9740   17.8570   10.0330 O   0  0  0  0  0  0  0  0  0  0  0  0
   18.8950   16.4790   11.8030 N   0  0  0  0  0  0  0  0  0  0  0  0
   19.3640   21.7780   13.7970 N   0  0  0  0  0  0  0  0  0  0  0  0
   18.2820   22.6260   14.2990 C   0  0  2  0  0  0  0  0  0  0  0  0
   17.0030   22.5040   13.4730 C   0  0  0  0  0  0  0  0  0  0  0  0
   17.0360   22.5970   12.2480 O   0  0  0  0  0  0  0  0  0  0  0  0
   18.7200   24.0940   14.3000 C   0  0  0  0  0  0  0  0  0  0  0  0
   19.8200   24.4390   15.2890 C   0  0  0  0  0  0  0  0  0  0  0  0
   19.4060   24.1780   16.7200 C   0  0  0  0  0  0  0  0  0  0  0  0
   18.3180   24.6470   17.1140 O   0  5  0  0  0  0  0  0  0  0  0  0
   20.1700   23.5150   17.4540 O   0  0  0  0  0  0  0  0  0  0  0  0
   15.8580   22.2910   14.1390 N   0  0  0  0  0  0  0  0  0  0  0  0
   14.5600   22.1620   13.4670 C   0  0  2  0  0  0  0  0  0  0  0  0
   14.1200   23.4990   12.8670 C   0  0  0  0  0  0  0  0  0  0  0  0
   14.6420   24.5490   13.2320 O   0  0  0  0  0  0  0  0  0  0  0  0
   13.6460   21.7130   14.6050 C   0  0  0  0  0  0  0  0  0  0  0  0
   14.2390   22.4740   15.7800 C   0  0  0  0  0  0  0  0  0  0  0  0
   15.6910   22.0970   15.5910 C   0  0  0  0  0  0  0  0  0  0  0  0
   13.1620   23.4610   11.9490 N   0  0  0  0  0  0  0  0  0  0  0  0
   12.6710   24.6810   11.3220 C   0  0  2  0  0  0  0  0  0  0  0  0
   11.1880   24.5640   11.0020 C   0  0  0  0  0  0  0  0  0  0  0  0
   10.6480   23.4620   10.8950 O   0  0  0  0  0  0  0  0  0  0  0  0
   13.4380   24.9760   10.0290 C   0  0  0  0  0  0  0  0  0  0  0  0
   13.2060   23.9660    8.9160 C   0  0  0  0  0  0  0  0  0  0  0  0
   13.9330   24.3280    7.6280 C   0  0  0  0  0  0  0  0  0  0  0  0
   13.8340   23.6230    6.6270 O   0  0  0  0  0  0  0  0  0  0  0  0
   14.6610   25.4350    7.6510 N   0  0  0  0  0  0  0  0  0  0  0  0
   10.5340   25.7070   10.8520 N   0  0  0  0  0  0  0  0  0  0  0  0
    9.1190   25.7200   10.5240 C   0  0  2  0  0  0  0  0  0  0  0  0
    8.9480   25.7630    9.0170 C   0  0  0  0  0  0  0  0  0  0  0  0
    9.6400   26.5130    8.3260 O   0  0  0  0  0  0  0  0  0  0  0  0
    8.4320   26.9430   11.1330 C   0  0  0  0  0  0  0  0  0  0  0  0
    6.9430   27.0350   10.8040 C   0  0  0  0  0  0  0  0  0  0  0  0
    6.2970   28.2870   11.3660 C   0  0  0  0  0  0  0  0  0  0  0  0
    6.6580   29.3970   10.9200 O   0  5  0  0  0  0  0  0  0  0  0  0
    5.4340   28.1630   12.2620 O   0  0  0  0  0  0  0  0  0  0  0  0
    8.0370   24.9430    8.5090 N   0  0  0  0  0  0  0  0  0  0  0  0
    7.7400   24.9190    7.0820 C   0  0  2  0  0  0  0  0  0  0  0  0
    6.2290   24.9900    6.9090 C   0  0  0  0  0  0  0  0  0  0  0  0
    5.4780   24.2960    7.5940 O   0  0  0  0  0  0  0  0  0  0  0  0
    8.2750   23.6410    6.3830 C   0  0  2  0  0  0  0  0  0  0  0  0
    9.8080   23.6610    6.3700 C   0  0  0  0  0  0  0  0  0  0  0  0
    7.7260   23.5520    4.9560 C   0  0  0  0  0  0  0  0  0  0  0  0
   10.4380   22.5120    5.6060 C   0  0  0  0  0  0  0  0  0  0  0  0
    5.7910   25.8610    6.0110 N   0  0  0  0  0  0  0  0  0  0  0  0
    4.3740   26.0230    5.7360 C   0  0  2  0  0  0  0  0  0  0  0  0
    4.0810   25.1240    4.5450 C   0  0  0  0  0  0  0  0  0  0  0  0
    4.5600   25.3790    3.4380 O   0  0  0  0  0  0  0  0  0  0  0  0
    4.0710   27.4770    5.3700 C   0  0  0  0  0  0  0  0  0  0  0  0
    2.5870   27.7550    5.2680 C   0  0  0  0  0  0  0  0  0  0  0  0
    1.8830   27.0210    4.5400 O   0  5  0  0  0  0  0  0  0  0  0  0
    2.1250   28.7170    5.9170 O   0  0  0  0  0  0  0  0  0  0  0  0
    3.3140   24.0650    4.7710 N   0  0  0  0  0  0  0  0  0  0  0  0
    2.9850   23.1490    3.6930 C   0  0  2  0  0  0  0  0  0  0  0  0
    1.6750   23.5410    3.0250 C   0  0  0  0  0  0  0  0  0  0  0  0
    1.1040   24.5830    3.4150 O   0  5  0  0  0  0  0  0  0  0  0  0
    2.9030   21.7110    4.2190 C   0  0  0  0  0  0  0  0  0  0  0  0
    4.1680   21.2380    4.8870 C   0  0  0  0  0  0  0  0  0  0  0  0
    4.4480   21.5800    6.2090 C   0  0  0  0  0  0  0  0  0  0  0  0
    5.0950   20.4750    4.1830 C   0  0  0  0  0  0  0  0  0  0  0  0
    5.6320   21.1670    6.8200 C   0  0  0  0  0  0  0  0  0  0  0  0
    6.2810   20.0590    4.7800 C   0  0  0  0  0  0  0  0  0  0  0  0
    6.5520   20.4040    6.1030 C   0  0  0  0  0  0  0  0  0  0  0  0
    1.2420   22.8110    2.1120 O   0  0  0  0  0  0  0  0  0  0  0  0
   25.7250   20.5227   16.6496 H   0  0  0  0  0  0  0  0  0  0  0  0
   24.9257   21.8243   16.0360 H   0  0  0  0  0  0  0  0  0  0  0  0
   25.2994   20.5527   15.0598 H   0  0  0  0  0  0  0  0  0  0  0  0
   23.8387   19.0882   16.2670 H   0  0  0  0  0  0  0  0  0  0  0  0
   23.2112   21.6498   17.8076 H   0  0  0  0  0  0  0  0  0  0  0  0
   24.0845   20.2143   18.4429 H   0  0  0  0  0  0  0  0  0  0  0  0
   22.0546   18.8471   18.1248 H   0  0  0  0  0  0  0  0  0  0  0  0
   21.1833   20.2926   17.5099 H   0  0  0  0  0  0  0  0  0  0  0  0
   21.5348   21.4359   19.6540 H   0  0  0  0  0  0  0  0  0  0  0  0
   22.4518   20.0202   20.2716 H   0  0  0  0  0  0  0  0  0  0  0  0
   20.4318   18.6086   19.9659 H   0  0  0  0  0  0  0  0  0  0  0  0
   19.5228   20.0582   19.4189 H   0  0  0  0  0  0  0  0  0  0  0  0
   19.1718   19.6033   21.7464 H   0  0  0  0  0  0  0  0  0  0  0  0
   19.9494   21.0429   21.5666 H   0  0  0  0  0  0  0  0  0  0  0  0
   20.7823   19.7145   22.0678 H   0  0  0  0  0  0  0  0  0  0  0  0
   22.2281   18.6814   14.9155 H   0  0  0  0  0  0  0  0  0  0  0  0
   21.3366   20.5532   12.9721 H   0  0  0  0  0  0  0  0  0  0  0  0
   20.0419   17.9672   13.9634 H   0  0  0  0  0  0  0  0  0  0  0  0
   21.2209   18.1322   12.6183 H   0  0  0  0  0  0  0  0  0  0  0  0
   19.4846   19.7341   11.5762 H   0  0  0  0  0  0  0  0  0  0  0  0
   18.3362   19.0217   12.7596 H   0  0  0  0  0  0  0  0  0  0  0  0
   18.7418   15.6771   11.2256 H   0  0  0  0  0  0  0  0  0  0  0  0
   18.9482   16.3771   12.7964 H   0  0  0  0  0  0  0  0  0  0  0  0
   19.8100   22.0280   12.9376 H   0  0  0  0  0  0  0  0  0  0  0  0
   18.0591   22.3193   15.3316 H   0  0  0  0  0  0  0  0  0  0  0  0
   17.8415   24.7113   14.5389 H   0  0  0  0  0  0  0  0  0  0  0  0
   19.0794   24.3428   13.2906 H   0  0  0  0  0  0  0  0  0  0  0  0
   20.0709   25.5046   15.1819 H   0  0  0  0  0  0  0  0  0  0  0  0
   20.7061   23.8288   15.0600 H   0  0  0  0  0  0  0  0  0  0  0  0
   14.5982   21.4031   12.6717 H   0  0  0  0  0  0  0  0  0  0  0  0
   13.7008   20.6254   14.7605 H   0  0  0  0  0  0  0  0  0  0  0  0
   12.6014   22.0051   14.4219 H   0  0  0  0  0  0  0  0  0  0  0  0
   13.8425   22.1211   16.7434 H   0  0  0  0  0  0  0  0  0  0  0  0
   14.0790   23.5588   15.6929 H   0  0  0  0  0  0  0  0  0  0  0  0
   16.3561   22.7597   16.1641 H   0  0  0  0  0  0  0  0  0  0  0  0
   15.8759   21.0521   15.8808 H   0  0  0  0  0  0  0  0  0  0  0  0
   12.7706   22.5800   11.6832 H   0  0  0  0  0  0  0  0  0  0  0  0
   12.8190   25.5169   12.0216 H   0  0  0  0  0  0  0  0  0  0  0  0
   14.5129   24.9899   10.2622 H   0  0  0  0  0  0  0  0  0  0  0  0
   13.1291   25.9667    9.6642 H   0  0  0  0  0  0  0  0  0  0  0  0
   12.1271   23.9145    8.7077 H   0  0  0  0  0  0  0  0  0  0  0  0
   13.5614   22.9818    9.2551 H   0  0  0  0  0  0  0  0  0  0  0  0
   15.1605   25.7220    6.8336 H   0  0  0  0  0  0  0  0  0  0  0  0
   14.7109   25.9834    8.4857 H   0  0  0  0  0  0  0  0  0  0  0  0
   11.0215   26.5726   10.9662 H   0  0  0  0  0  0  0  0  0  0  0  0
    8.6501   24.8071   10.9200 H   0  0  0  0  0  0  0  0  0  0  0  0
    8.9289   27.8471   10.7513 H   0  0  0  0  0  0  0  0  0  0  0  0
    8.5443   26.8966   12.2263 H   0  0  0  0  0  0  0  0  0  0  0  0
    6.4340   26.1561   11.2265 H   0  0  0  0  0  0  0  0  0  0  0  0
    6.8234   27.0376    9.7105 H   0  0  0  0  0  0  0  0  0  0  0  0
    7.5416   24.3259    9.1204 H   0  0  0  0  0  0  0  0  0  0  0  0
    8.2043   25.7970    6.6092 H   0  0  0  0  0  0  0  0  0  0  0  0
    7.9370   22.7590    6.9467 H   0  0  0  0  0  0  0  0  0  0  0  0
   10.1625   23.6190    7.4105 H   0  0  0  0  0  0  0  0  0  0  0  0
   10.1369   24.6037    5.9084 H   0  0  0  0  0  0  0  0  0  0  0  0
    6.6265   23.5389    4.9863 H   0  0  0  0  0  0  0  0  0  0  0  0
    8.0907   22.6300    4.4796 H   0  0  0  0  0  0  0  0  0  0  0  0
    8.0664   24.4232    4.3771 H   0  0  0  0  0  0  0  0  0  0  0  0
   11.5336   22.6019    5.6463 H   0  0  0  0  0  0  0  0  0  0  0  0
   10.1059   22.5428    4.5578 H   0  0  0  0  0  0  0  0  0  0  0  0
   10.1315   21.5581    6.0599 H   0  0  0  0  0  0  0  0  0  0  0  0
    6.4521   26.4201    5.5107 H   0  0  0  0  0  0  0  0  0  0  0  0
    3.7730   25.7239    6.6074 H   0  0  0  0  0  0  0  0  0  0  0  0
    4.5387   27.7008    4.3998 H   0  0  0  0  0  0  0  0  0  0  0  0
    4.4995   28.1315    6.1433 H   0  0  0  0  0  0  0  0  0  0  0  0
    2.9597   23.8963    5.6908 H   0  0  0  0  0  0  0  0  0  0  0  0
    3.7858   23.1992    2.9405 H   0  0  0  0  0  0  0  0  0  0  0  0
    2.6867   21.0431    3.3722 H   0  0  0  0  0  0  0  0  0  0  0  0
    2.0825   21.6545    4.9494 H   0  0  0  0  0  0  0  0  0  0  0  0
    3.7361   22.1749    6.7697 H   0  0  0  0  0  0  0  0  0  0  0  0
    4.8900   20.2008    3.1545 H   0  0  0  0  0  0  0  0  0  0  0  0
    5.8360   21.4387    7.8494 H   0  0  0  0  0  0  0  0  0  0  0  0
    6.9935   19.4672    4.2168 H   0  0  0  0  0  0  0  0  0  0  0  0
    7.4741   20.0804    6.5721 H   0  0  0  0  0  0  0  0  0  0  0  0
  1  2  1  0  0  0  0
  1 81  1  0  0  0  0
  1 82  1  0  0  0  0
  1 83  1  0  0  0  0
  2  3  1  0  0  0  0
  2  5  1  0  0  0  0
  2 84  1  6  0  0  0
  3  4  2  0  0  0  0
  3 10  1  0  0  0  0
  5  6  1  0  0  0  0
  5 85  1  0  0  0  0
  5 86  1  0  0  0  0
  6  7  1  0  0  0  0
  6 87  1  0  0  0  0
  6 88  1  0  0  0  0
  7  8  1  0  0  0  0
  7 89  1  0  0  0  0
  7 90  1  0  0  0  0
  8  9  1  0  0  0  0
  8 91  1  0  0  0  0
  8 92  1  0  0  0  0
  9 93  1  0  0  0  0
  9 94  1  0  0  0  0
  9 95  1  0  0  0  0
 10 11  1  0  0  0  0
 10 96  1  0  0  0  0
 11 12  1  0  0  0  0
 11 14  1  0  0  0  0
 11 97  1  6  0  0  0
 12 13  2  0  0  0  0
 12 19  1  0  0  0  0
 14 15  1  0  0  0  0
 14 98  1  0  0  0  0
 14 99  1  0  0  0  0
 15 16  1  0  0  0  0
 15100  1  0  0  0  0
 15101  1  0  0  0  0
 16 17  2  0  0  0  0
 16 18  1  0  0  0  0
 18102  1  0  0  0  0
 18103  1  0  0  0  0
 19 20  1  0  0  0  0
 19104  1  0  0  0  0
 20 21  1  0  0  0  0
 20 23  1  0  0  0  0
 20105  1  1  0  0  0
 21 22  2  0  0  0  0
 21 28  1  0  0  0  0
 23 24  1  0  0  0  0
 23106  1  0  0  0  0
 23107  1  0  0  0  0
 24 25  1  0  0  0  0
 24108  1  0  0  0  0
 24109  1  0  0  0  0
 25 26  1  0  0  0  0
 25 27  2  0  0  0  0
 28 29  1  0  0  0  0
 28 34  1  0  0  0  0
 29 30  1  0  0  0  0
 29 32  1  0  0  0  0
 29110  1  6  0  0  0
 30 31  2  0  0  0  0
 30 35  1  0  0  0  0
 32 33  1  0  0  0  0
 32111  1  0  0  0  0
 32112  1  0  0  0  0
 33 34  1  0  0  0  0
 33113  1  0  0  0  0
 33114  1  0  0  0  0
 34115  1  0  0  0  0
 34116  1  0  0  0  0
 35 36  1  0  0  0  0
 35117  1  0  0  0  0
 36 37  1  0  0  0  0
 36 39  1  0  0  0  0
 36118  1  1  0  0  0
 37 38  2  0  0  0  0
 37 44  1  0  0  0  0
 39 40  1  0  0  0  0
 39119  1  0  0  0  0
 39120  1  0  0  0  0
 40 41  1  0  0  0  0
 40121  1  0  0  0  0
 40122  1  0  0  0  0
 41 42  2  0  0  0  0
 41 43  1  0  0  0  0
 43123  1  0  0  0  0
 43124  1  0  0  0  0
 44 45  1  0  0  0  0
 44125  1  0  0  0  0
 45 46  1  0  0  0  0
 45 48  1  0  0  0  0
 45126  1  1  0  0  0
 46 47  2  0  0  0  0
 46 53  1  0  0  0  0
 48 49  1  0  0  0  0
 48127  1  0  0  0  0
 48128  1  0  0  0  0
 49 50  1  0  0  0  0
 49129  1  0  0  0  0
 49130  1  0  0  0  0
 50 51  1  0  0  0  0
 50 52  2  0  0  0  0
 53 54  1  0  0  0  0
 53131  1  0  0  0  0
 54 55  1  0  0  0  0
 54 57  1  0  0  0  0
 54132  1  6  0  0  0
 55 56  2  0  0  0  0
 55 61  1  0  0  0  0
 57 58  1  0  0  0  0
 57 59  1  0  0  0  0
 57133  1  1  0  0  0
 58 60  1  0  0  0  0
 58134  1  0  0  0  0
 58135  1  0  0  0  0
 59136  1  0  0  0  0
 59137  1  0  0  0  0
 59138  1  0  0  0  0
 60139  1  0  0  0  0
 60140  1  0  0  0  0
 60141  1  0  0  0  0
 61 62  1  0  0  0  0
 61142  1  0  0  0  0
 62 63  1  0  0  0  0
 62 65  1  0  0  0  0
 62143  1  1  0  0  0
 63 64  2  0  0  0  0
 63 69  1  0  0  0  0
 65 66  1  0  0  0  0
 65144  1  0  0  0  0
 65145  1  0  0  0  0
 66 67  1  0  0  0  0
 66 68  2  0  0  0  0
 69 70  1  0  0  0  0
 69146  1  0  0  0  0
 70 71  1  0  0  0  0
 70 73  1  0  0  0  0
 70147  1  6  0  0  0
 71 72  1  0  0  0  0
 71 80  2  0  0  0  0
 73 74  1  0  0  0  0
 73148  1  0  0  0  0
 73149  1  0  0  0  0
 74 75  2  0  0  0  0
 74 76  1  0  0  0  0
 75 77  1  0  0  0  0
 75150  1  0  0  0  0
 76 78  2  0  0  0  0
 76151  1  0  0  0  0
 77 79  2  0  0  0  0
 77152  1  0  0  0  0
 78 79  1  0  0  0  0
 78153  1  0  0  0  0
 79154  1  0  0  0  0
M  CHG  6   1   1   9   1  26  -1  51  -1  67  -1  72  -1
M  END
