1lcj_ligand
 OpenBabel08222323343D

192195  0  0  1  0  0  0  0  0999 V2000
   31.9300   50.7070   -8.7010 N   0  3  0  0  0  0  0  0  0  0  0  0
   31.9180   50.2280  -10.1210 C   0  0  2  0  0  0  0  0  0  0  0  0
   32.9400   49.0790  -10.3710 C   0  0  0  0  0  0  0  0  0  0  0  0
   32.5500   48.0180  -10.8660 O   0  0  0  0  0  0  0  0  0  0  0  0
   32.1260   51.4130  -11.1100 C   0  0  0  0  0  0  0  0  0  0  0  0
   31.6930   51.1260  -12.5890 C   0  0  0  0  0  0  0  0  0  0  0  0
   31.8130   52.3430  -13.5580 C   0  0  0  0  0  0  0  0  0  0  0  0
   32.9240   52.9420  -13.6640 O   0  5  0  0  0  0  0  0  0  0  0  0
   30.8130   52.6340  -14.2870 O   0  0  0  0  0  0  0  0  0  0  0  0
   34.1890   49.2050   -9.8540 N   0  0  0  0  0  0  0  0  0  0  0  0
   35.1550   48.0970   -9.9120 C   0  0  2  0  0  0  0  0  0  0  0  0
   34.8340   46.9940   -8.9090 C   0  0  0  0  0  0  0  0  0  0  0  0
   34.4360   47.2970   -7.7880 O   0  0  0  0  0  0  0  0  0  0  0  0
   36.4740   48.7640   -9.5640 C   0  0  0  0  0  0  0  0  0  0  0  0
   36.0780   49.8250   -8.5980 C   0  0  0  0  0  0  0  0  0  0  0  0
   34.7910   50.3920   -9.2080 C   0  0  0  0  0  0  0  0  0  0  0  0
   34.9700   45.7350   -9.3350 N   0  0  0  0  0  0  0  0  0  0  0  0
   34.6710   44.5590   -8.5070 C   0  0  2  0  0  0  0  0  0  0  0  0
   35.4760   44.3520   -7.2210 C   0  0  0  0  0  0  0  0  0  0  0  0
   36.7060   44.1940   -7.2500 O   0  0  0  0  0  0  0  0  0  0  0  0
   34.7640   43.2800   -9.3610 C   0  0  0  0  0  0  0  0  0  0  0  0
   34.4670   41.9560   -8.6160 C   0  0  0  0  0  0  0  0  0  0  0  0
   33.1080   41.3120   -8.9650 C   0  0  0  0  0  0  0  0  0  0  0  0
   32.6990   41.2720  -10.1330 O   0  0  0  0  0  0  0  0  0  0  0  0
   32.4530   40.7180   -7.9530 N   0  0  0  0  0  0  0  0  0  0  0  0
   34.7490   44.2760   -6.1050 N   0  0  0  0  0  0  0  0  0  0  0  0
   35.3120   43.8430   -4.8180 C   0  0  2  0  0  0  0  0  0  0  0  0
   34.7510   42.5050   -4.2970 C   0  0  0  0  0  0  0  0  0  0  0  0
   33.5550   42.2100   -4.4260 O   0  0  0  0  0  0  0  0  0  0  0  0
   35.1070   44.9140   -3.7520 C   0  0  0  0  0  0  0  0  0  0  0  0
   35.9560   46.1560   -3.9540 C   0  0  0  0  0  0  0  0  0  0  0  0
   37.2150   46.2630   -3.3770 C   0  0  0  0  0  0  0  0  0  0  0  0
   35.4530   47.2580   -4.6350 C   0  0  0  0  0  0  0  0  0  0  0  0
   37.9420   47.4180   -3.4690 C   0  0  0  0  0  0  0  0  0  0  0  0
   36.1690   48.4350   -4.7130 C   0  0  0  0  0  0  0  0  0  0  0  0
   37.4160   48.5130   -4.1300 C   0  0  0  0  0  0  0  0  0  0  0  0
   38.1040   49.7160   -4.1510 O   0  0  0  0  0  0  0  0  0  0  0  0
   35.6040   41.7190   -3.6510 N   0  0  0  0  0  0  0  0  0  0  0  0
   35.1270   40.5280   -2.9340 C   0  0  2  0  0  0  0  0  0  0  0  0
   34.5090   40.8270   -1.5540 C   0  0  0  0  0  0  0  0  0  0  0  0
   34.8970   41.7590   -0.8530 O   0  0  0  0  0  0  0  0  0  0  0  0
   36.2580   39.5010   -2.7320 C   0  0  0  0  0  0  0  0  0  0  0  0
   37.1700   39.3480   -3.9050 C   0  0  0  0  0  0  0  0  0  0  0  0
   36.4160   38.9220   -5.1370 C   0  0  0  0  0  0  0  0  0  0  0  0
   35.6350   37.9490   -5.0370 O   0  5  0  0  0  0  0  0  0  0  0  0
   36.5510   39.5700   -6.2000 O   0  0  0  0  0  0  0  0  0  0  0  0
   33.6290   39.9310   -1.1200 N   0  0  0  0  0  0  0  0  0  0  0  0
   33.1300   39.9210    0.2540 C   0  0  2  0  0  0  0  0  0  0  0  0
   33.4370   38.6010    0.9230 C   0  0  0  0  0  0  0  0  0  0  0  0
   33.5050   37.5600    0.2710 O   0  0  0  0  0  0  0  0  0  0  0  0
   31.6190   40.1160    0.2790 C   0  0  0  0  0  0  0  0  0  0  0  0
   31.1370   41.1440   -0.6880 C   0  0  0  0  0  0  0  0  0  0  0  0
   29.7030   41.5170   -0.4450 C   0  0  0  0  0  0  0  0  0  0  0  0
   29.3730   41.8700    0.7090 O   0  5  0  0  0  0  0  0  0  0  0  0
   28.9160   41.4640   -1.4170 O   0  0  0  0  0  0  0  0  0  0  0  0
   33.4860   38.6340    2.2410 N   0  0  0  0  0  0  0  0  0  0  0  0
   33.5470   37.4290    3.0320 C   0  0  2  0  0  0  0  0  0  0  0  0
   32.1330   36.8840    3.1990 C   0  0  0  0  0  0  0  0  0  0  0  0
   31.2090   37.6260    3.5220 O   0  0  0  0  0  0  0  0  0  0  0  0
   34.1870   37.7140    4.3890 C   0  0  2  0  0  0  0  0  0  0  0  0
   35.6440   38.1520    4.1700 C   0  0  0  0  0  0  0  0  0  0  0  0
   34.1620   36.4690    5.2520 C   0  0  0  0  0  0  0  0  0  0  0  0
   36.3840   38.4850    5.4030 C   0  0  0  0  0  0  0  0  0  0  0  0
   31.9080   35.6520    2.7530 N   0  0  0  0  0  0  0  0  0  0  0  0
   30.5510   35.1070    2.7650 C   0  0  2  0  0  0  0  0  0  0  0  0
   30.0400   34.8430    4.1680 C   0  0  0  0  0  0  0  0  0  0  0  0
   30.7820   34.9200    5.1390 O   0  0  0  0  0  0  0  0  0  0  0  0
   30.6600   33.8180    1.9510 C   0  0  0  0  0  0  0  0  0  0  0  0
   32.0670   33.3750    2.1420 C   0  0  0  0  0  0  0  0  0  0  0  0
   32.9050   34.6490    2.3130 C   0  0  0  0  0  0  0  0  0  0  0  0
   28.7440   34.6250    4.2990 N   0  0  0  0  0  0  0  0  0  0  0  0
   28.2380   34.0820    5.5610 C   0  0  2  0  0  0  0  0  0  0  0  0
   28.0440   32.5830    5.3390 C   0  0  0  0  0  0  0  0  0  0  0  0
   27.8710   32.1490    4.1950 O   0  0  0  0  0  0  0  0  0  0  0  0
   26.8740   34.7200    5.9800 C   0  0  2  0  0  0  0  0  0  0  0  0
   26.1090   35.2330    4.7600 C   0  0  0  0  0  0  0  0  0  0  0  0
   27.0980   35.8150    7.0240 C   0  0  0  0  0  0  0  0  0  0  0  0
   24.5900   35.2010    4.9480 C   0  0  0  0  0  0  0  0  0  0  0  0
   28.1170   31.7810    6.3960 N   0  0  0  0  0  0  0  0  0  0  0  0
   27.7130   30.3800    6.2550 C   0  0  2  0  0  0  0  0  0  0  0  0
   26.1880   30.1540    6.4590 C   0  0  0  0  0  0  0  0  0  0  0  0
   25.6230   30.5520    7.4880 O   0  0  0  0  0  0  0  0  0  0  0  0
   28.4970   29.5020    7.2220 C   0  0  0  0  0  0  0  0  0  0  0  0
   28.3170   28.0250    6.9670 C   0  0  0  0  0  0  0  0  0  0  0  0
   28.8030   27.4400    5.8020 C   0  0  0  0  0  0  0  0  0  0  0  0
   27.6060   27.2250    7.8570 C   0  0  0  0  0  0  0  0  0  0  0  0
   28.5880   26.1090    5.5310 C   0  0  0  0  0  0  0  0  0  0  0  0
   27.3860   25.8800    7.5910 C   0  0  0  0  0  0  0  0  0  0  0  0
   27.8910   25.3330    6.4320 C   0  0  0  0  0  0  0  0  0  0  0  0
   27.8040   23.9870    6.2040 O   0  0  0  0  0  0  0  0  0  0  0  0
   25.5360   29.5590    5.4570 N   0  0  0  0  0  0  0  0  0  0  0  0
   24.0790   29.3550    5.4600 C   0  0  2  0  0  0  0  0  0  0  0  0
   23.6800   27.8830    5.5130 C   0  0  0  0  0  0  0  0  0  0  0  0
   23.5400   27.2270    4.4490 O   0  5  0  0  0  0  0  0  0  0  0  0
   23.4430   30.0280    4.2430 C   0  0  0  0  0  0  0  0  0  0  0  0
   22.7930   31.3690    4.5700 C   0  0  0  0  0  0  0  0  0  0  0  0
   22.3090   32.0670    3.2840 C   0  0  0  0  0  0  0  0  0  0  0  0
   21.6440   31.0930    5.5290 C   0  0  0  0  0  0  0  0  0  0  0  0
   23.5940   27.3670    6.6450 O   0  0  0  0  0  0  0  0  0  0  0  0
   31.2548   51.4472   -8.5904 H   0  0  0  0  0  0  0  0  0  0  0  0
   32.8484   51.0528   -8.4708 H   0  0  0  0  0  0  0  0  0  0  0  0
   31.6948   49.9432   -8.0867 H   0  0  0  0  0  0  0  0  0  0  0  0
   30.9173   49.8142  -10.3143 H   0  0  0  0  0  0  0  0  0  0  0  0
   33.1950   51.6723  -11.1118 H   0  0  0  0  0  0  0  0  0  0  0  0
   31.5415   52.2698  -10.7436 H   0  0  0  0  0  0  0  0  0  0  0  0
   30.6428   50.7990  -12.5800 H   0  0  0  0  0  0  0  0  0  0  0  0
   32.3261   50.3154  -12.9790 H   0  0  0  0  0  0  0  0  0  0  0  0
   35.1875   47.6661  -10.9236 H   0  0  0  0  0  0  0  0  0  0  0  0
   36.9426   49.2006  -10.4583 H   0  0  0  0  0  0  0  0  0  0  0  0
   37.1673   48.0474   -9.0995 H   0  0  0  0  0  0  0  0  0  0  0  0
   36.8544   50.6007   -8.5240 H   0  0  0  0  0  0  0  0  0  0  0  0
   35.8881   49.4000   -7.6014 H   0  0  0  0  0  0  0  0  0  0  0  0
   34.1287   50.7991   -8.4298 H   0  0  0  0  0  0  0  0  0  0  0  0
   35.0138   51.1759   -9.9468 H   0  0  0  0  0  0  0  0  0  0  0  0
   35.2933   45.5849  -10.2693 H   0  0  0  0  0  0  0  0  0  0  0  0
   33.6233   44.6743   -8.1924 H   0  0  0  0  0  0  0  0  0  0  0  0
   35.7841   43.2180   -9.7679 H   0  0  0  0  0  0  0  0  0  0  0  0
   34.0444   43.3719  -10.1878 H   0  0  0  0  0  0  0  0  0  0  0  0
   34.4824   42.1598   -7.5352 H   0  0  0  0  0  0  0  0  0  0  0  0
   35.2612   41.2368   -8.8649 H   0  0  0  0  0  0  0  0  0  0  0  0
   31.5676   40.2832   -8.1173 H   0  0  0  0  0  0  0  0  0  0  0  0
   32.8510   40.7107   -7.0357 H   0  0  0  0  0  0  0  0  0  0  0  0
   33.7810   44.5238   -6.1457 H   0  0  0  0  0  0  0  0  0  0  0  0
   36.3938   43.7107   -4.9669 H   0  0  0  0  0  0  0  0  0  0  0  0
   35.3568   44.4797   -2.7727 H   0  0  0  0  0  0  0  0  0  0  0  0
   34.0485   45.2132   -3.7612 H   0  0  0  0  0  0  0  0  0  0  0  0
   37.6293   45.4151   -2.8437 H   0  0  0  0  0  0  0  0  0  0  0  0
   34.4822   47.1919   -5.1128 H   0  0  0  0  0  0  0  0  0  0  0  0
   38.9290   47.4750   -3.0244 H   0  0  0  0  0  0  0  0  0  0  0  0
   35.7537   49.2929   -5.2294 H   0  0  0  0  0  0  0  0  0  0  0  0
   38.9402   49.6090   -3.7130 H   0  0  0  0  0  0  0  0  0  0  0  0
   36.5794   41.9392   -3.6523 H   0  0  0  0  0  0  0  0  0  0  0  0
   34.3477   40.0660   -3.5579 H   0  0  0  0  0  0  0  0  0  0  0  0
   35.8009   38.5228   -2.5219 H   0  0  0  0  0  0  0  0  0  0  0  0
   36.8599   39.8178   -1.8675 H   0  0  0  0  0  0  0  0  0  0  0  0
   37.9301   38.5883   -3.6704 H   0  0  0  0  0  0  0  0  0  0  0  0
   37.6631   40.3112   -4.1027 H   0  0  0  0  0  0  0  0  0  0  0  0
   33.2953   39.2369   -1.7578 H   0  0  0  0  0  0  0  0  0  0  0  0
   33.6130   40.7356    0.8135 H   0  0  0  0  0  0  0  0  0  0  0  0
   31.3244   40.4258    1.2925 H   0  0  0  0  0  0  0  0  0  0  0  0
   31.1398   39.1564    0.0350 H   0  0  0  0  0  0  0  0  0  0  0  0
   31.2317   40.7438   -1.7082 H   0  0  0  0  0  0  0  0  0  0  0  0
   31.7600   42.0451   -0.5882 H   0  0  0  0  0  0  0  0  0  0  0  0
   33.4807   39.5198    2.7051 H   0  0  0  0  0  0  0  0  0  0  0  0
   34.1587   36.6823    2.5045 H   0  0  0  0  0  0  0  0  0  0  0  0
   33.6317   38.5182    4.8937 H   0  0  0  0  0  0  0  0  0  0  0  0
   35.6400   39.0415    3.5230 H   0  0  0  0  0  0  0  0  0  0  0  0
   36.1749   37.3325    3.6635 H   0  0  0  0  0  0  0  0  0  0  0  0
   33.1202   36.1534    5.4102 H   0  0  0  0  0  0  0  0  0  0  0  0
   34.6307   36.6865    6.2231 H   0  0  0  0  0  0  0  0  0  0  0  0
   34.7168   35.6631    4.7493 H   0  0  0  0  0  0  0  0  0  0  0  0
   37.4103   38.7850    5.1449 H   0  0  0  0  0  0  0  0  0  0  0  0
   36.4141   37.6046    6.0617 H   0  0  0  0  0  0  0  0  0  0  0  0
   35.8792   39.3136    5.9212 H   0  0  0  0  0  0  0  0  0  0  0  0
   29.8621   35.8081    2.2711 H   0  0  0  0  0  0  0  0  0  0  0  0
   30.4541   34.0109    0.8878 H   0  0  0  0  0  0  0  0  0  0  0  0
   29.9588   33.0592    2.3286 H   0  0  0  0  0  0  0  0  0  0  0  0
   32.4101   32.8095    1.2631 H   0  0  0  0  0  0  0  0  0  0  0  0
   32.1482   32.7434    3.0389 H   0  0  0  0  0  0  0  0  0  0  0  0
   33.6859   34.5083    3.0748 H   0  0  0  0  0  0  0  0  0  0  0  0
   33.3701   34.9460    1.3615 H   0  0  0  0  0  0  0  0  0  0  0  0
   28.1171   34.8280    3.5468 H   0  0  0  0  0  0  0  0  0  0  0  0
   28.9751   34.2560    6.3587 H   0  0  0  0  0  0  0  0  0  0  0  0
   26.2628   33.9338    6.4472 H   0  0  0  0  0  0  0  0  0  0  0  0
   26.3681   34.6053    3.8946 H   0  0  0  0  0  0  0  0  0  0  0  0
   26.4160   36.2711    4.5651 H   0  0  0  0  0  0  0  0  0  0  0  0
   27.6503   35.3986    7.8793 H   0  0  0  0  0  0  0  0  0  0  0  0
   26.1260   36.1990    7.3670 H   0  0  0  0  0  0  0  0  0  0  0  0
   27.6789   36.6349    6.5766 H   0  0  0  0  0  0  0  0  0  0  0  0
   24.1000   35.5808    4.0393 H   0  0  0  0  0  0  0  0  0  0  0  0
   24.3132   35.8325    5.8050 H   0  0  0  0  0  0  0  0  0  0  0  0
   24.2653   34.1667    5.1346 H   0  0  0  0  0  0  0  0  0  0  0  0
   28.4430   32.1288    7.2750 H   0  0  0  0  0  0  0  0  0  0  0  0
   27.9607   30.0670    5.2300 H   0  0  0  0  0  0  0  0  0  0  0  0
   28.1606   29.7231    8.2457 H   0  0  0  0  0  0  0  0  0  0  0  0
   29.5655   29.7451    7.1266 H   0  0  0  0  0  0  0  0  0  0  0  0
   29.3609   28.0439    5.0955 H   0  0  0  0  0  0  0  0  0  0  0  0
   27.2181   27.6586    8.7717 H   0  0  0  0  0  0  0  0  0  0  0  0
   28.9649   25.6723    4.6132 H   0  0  0  0  0  0  0  0  0  0  0  0
   26.8237   25.2679    8.2869 H   0  0  0  0  0  0  0  0  0  0  0  0
   28.1988   23.7830    5.3644 H   0  0  0  0  0  0  0  0  0  0  0  0
   26.0616   29.2377    4.6693 H   0  0  0  0  0  0  0  0  0  0  0  0
   23.6803   29.8387    6.3639 H   0  0  0  0  0  0  0  0  0  0  0  0
   22.6733   29.3567    3.8345 H   0  0  0  0  0  0  0  0  0  0  0  0
   24.2243   30.1933    3.4866 H   0  0  0  0  0  0  0  0  0  0  0  0
   23.5283   32.0202    5.0652 H   0  0  0  0  0  0  0  0  0  0  0  0
   21.8445   33.0301    3.5422 H   0  0  0  0  0  0  0  0  0  0  0  0
   21.5713   31.4287    2.7757 H   0  0  0  0  0  0  0  0  0  0  0  0
   23.1657   32.2405    2.6162 H   0  0  0  0  0  0  0  0  0  0  0  0
   22.0306   30.5958    6.4309 H   0  0  0  0  0  0  0  0  0  0  0  0
   20.9058   30.4412    5.0389 H   0  0  0  0  0  0  0  0  0  0  0  0
   21.1652   32.0425    5.8105 H   0  0  0  0  0  0  0  0  0  0  0  0
  1  2  1  0  0  0  0
  1100  1  0  0  0  0
  1101  1  0  0  0  0
  1102  1  0  0  0  0
  2  3  1  0  0  0  0
  2  5  1  0  0  0  0
  2103  1  6  0  0  0
  3  4  2  0  0  0  0
  3 10  1  0  0  0  0
  5  6  1  0  0  0  0
  5104  1  0  0  0  0
  5105  1  0  0  0  0
  6  7  1  0  0  0  0
  6106  1  0  0  0  0
  6107  1  0  0  0  0
  7  8  1  0  0  0  0
  7  9  2  0  0  0  0
 10 11  1  0  0  0  0
 10 16  1  0  0  0  0
 11 12  1  0  0  0  0
 11 14  1  0  0  0  0
 11108  1  6  0  0  0
 12 13  2  0  0  0  0
 12 17  1  0  0  0  0
 14 15  1  0  0  0  0
 14109  1  0  0  0  0
 14110  1  0  0  0  0
 15 16  1  0  0  0  0
 15111  1  0  0  0  0
 15112  1  0  0  0  0
 16113  1  0  0  0  0
 16114  1  0  0  0  0
 17 18  1  0  0  0  0
 17115  1  0  0  0  0
 18 19  1  0  0  0  0
 18 21  1  0  0  0  0
 18116  1  1  0  0  0
 19 20  2  0  0  0  0
 19 26  1  0  0  0  0
 21 22  1  0  0  0  0
 21117  1  0  0  0  0
 21118  1  0  0  0  0
 22 23  1  0  0  0  0
 22119  1  0  0  0  0
 22120  1  0  0  0  0
 23 24  2  0  0  0  0
 23 25  1  0  0  0  0
 25121  1  0  0  0  0
 25122  1  0  0  0  0
 26 27  1  0  0  0  0
 26123  1  0  0  0  0
 27 28  1  0  0  0  0
 27 30  1  0  0  0  0
 27124  1  6  0  0  0
 28 29  2  0  0  0  0
 28 38  1  0  0  0  0
 30 31  1  0  0  0  0
 30125  1  0  0  0  0
 30126  1  0  0  0  0
 31 32  2  0  0  0  0
 31 33  1  0  0  0  0
 32 34  1  0  0  0  0
 32127  1  0  0  0  0
 33 35  2  0  0  0  0
 33128  1  0  0  0  0
 34 36  2  0  0  0  0
 34129  1  0  0  0  0
 35 36  1  0  0  0  0
 35130  1  0  0  0  0
 36 37  1  0  0  0  0
 37131  1  0  0  0  0
 38 39  1  0  0  0  0
 38132  1  0  0  0  0
 39 40  1  0  0  0  0
 39 42  1  0  0  0  0
 39133  1  6  0  0  0
 40 41  2  0  0  0  0
 40 47  1  0  0  0  0
 42 43  1  0  0  0  0
 42134  1  0  0  0  0
 42135  1  0  0  0  0
 43 44  1  0  0  0  0
 43136  1  0  0  0  0
 43137  1  0  0  0  0
 44 45  1  0  0  0  0
 44 46  2  0  0  0  0
 47 48  1  0  0  0  0
 47138  1  0  0  0  0
 48 49  1  0  0  0  0
 48 51  1  0  0  0  0
 48139  1  1  0  0  0
 49 50  2  0  0  0  0
 49 56  1  0  0  0  0
 51 52  1  0  0  0  0
 51140  1  0  0  0  0
 51141  1  0  0  0  0
 52 53  1  0  0  0  0
 52142  1  0  0  0  0
 52143  1  0  0  0  0
 53 54  1  0  0  0  0
 53 55  2  0  0  0  0
 56 57  1  0  0  0  0
 56144  1  0  0  0  0
 57 58  1  0  0  0  0
 57 60  1  0  0  0  0
 57145  1  6  0  0  0
 58 59  2  0  0  0  0
 58 64  1  0  0  0  0
 60 61  1  0  0  0  0
 60 62  1  0  0  0  0
 60146  1  1  0  0  0
 61 63  1  0  0  0  0
 61147  1  0  0  0  0
 61148  1  0  0  0  0
 62149  1  0  0  0  0
 62150  1  0  0  0  0
 62151  1  0  0  0  0
 63152  1  0  0  0  0
 63153  1  0  0  0  0
 63154  1  0  0  0  0
 64 65  1  0  0  0  0
 64 70  1  0  0  0  0
 65 66  1  0  0  0  0
 65 68  1  0  0  0  0
 65155  1  6  0  0  0
 66 67  2  0  0  0  0
 66 71  1  0  0  0  0
 68 69  1  0  0  0  0
 68156  1  0  0  0  0
 68157  1  0  0  0  0
 69 70  1  0  0  0  0
 69158  1  0  0  0  0
 69159  1  0  0  0  0
 70160  1  0  0  0  0
 70161  1  0  0  0  0
 71 72  1  0  0  0  0
 71162  1  0  0  0  0
 72 73  1  0  0  0  0
 72 75  1  0  0  0  0
 72163  1  1  0  0  0
 73 74  2  0  0  0  0
 73 79  1  0  0  0  0
 75 76  1  0  0  0  0
 75 77  1  0  0  0  0
 75164  1  1  0  0  0
 76 78  1  0  0  0  0
 76165  1  0  0  0  0
 76166  1  0  0  0  0
 77167  1  0  0  0  0
 77168  1  0  0  0  0
 77169  1  0  0  0  0
 78170  1  0  0  0  0
 78171  1  0  0  0  0
 78172  1  0  0  0  0
 79 80  1  0  0  0  0
 79173  1  0  0  0  0
 80 81  1  0  0  0  0
 80 83  1  0  0  0  0
 80174  1  6  0  0  0
 81 82  2  0  0  0  0
 81 91  1  0  0  0  0
 83 84  1  0  0  0  0
 83175  1  0  0  0  0
 83176  1  0  0  0  0
 84 85  2  0  0  0  0
 84 86  1  0  0  0  0
 85 87  1  0  0  0  0
 85177  1  0  0  0  0
 86 88  2  0  0  0  0
 86178  1  0  0  0  0
 87 89  2  0  0  0  0
 87179  1  0  0  0  0
 88 89  1  0  0  0  0
 88180  1  0  0  0  0
 89 90  1  0  0  0  0
 90181  1  0  0  0  0
 91 92  1  0  0  0  0
 91182  1  0  0  0  0
 92 93  1  0  0  0  0
 92 95  1  0  0  0  0
 92183  1  1  0  0  0
 93 94  1  0  0  0  0
 93 99  2  0  0  0  0
 95 96  1  0  0  0  0
 95184  1  0  0  0  0
 95185  1  0  0  0  0
 96 97  1  0  0  0  0
 96 98  1  0  0  0  0
 96186  1  0  0  0  0
 97187  1  0  0  0  0
 97188  1  0  0  0  0
 97189  1  0  0  0  0
 98190  1  0  0  0  0
 98191  1  0  0  0  0
 98192  1  0  0  0  0
M  CHG  5   1   1   8  -1  45  -1  54  -1  94  -1
M  END
