1leg_ligand
 OpenBabel08222323343D

146148  0  0  1  0  0  0  0  0999 V2000
   49.7140   56.6420    4.6090 N   0  3  0  0  0  0  0  0  0  0  0  0
   48.4610   57.3230    4.1650 C   0  0  2  0  0  0  0  0  0  0  0  0
   48.0650   56.9230    2.7550 C   0  0  0  0  0  0  0  0  0  0  0  0
   48.9150   56.6810    1.8880 O   0  0  0  0  0  0  0  0  0  0  0  0
   48.6210   58.8390    4.2150 C   0  0  0  0  0  0  0  0  0  0  0  0
   48.5630   59.3670    5.6080 C   0  0  0  0  0  0  0  0  0  0  0  0
   47.9900   60.7570    5.6700 C   0  0  0  0  0  0  0  0  0  0  0  0
   48.2150   61.5460    4.7240 O   0  5  0  0  0  0  0  0  0  0  0  0
   47.3100   61.0520    6.6730 O   0  0  0  0  0  0  0  0  0  0  0  0
   46.7570   56.8930    2.5380 N   0  0  0  0  0  0  0  0  0  0  0  0
   46.1770   56.5150    1.2640 C   0  0  2  0  0  0  0  0  0  0  0  0
   46.1680   57.6660    0.2610 C   0  0  0  0  0  0  0  0  0  0  0  0
   46.2880   58.8390    0.6140 O   0  0  0  0  0  0  0  0  0  0  0  0
   44.7490   56.0090    1.5230 C   0  0  0  0  0  0  0  0  0  0  0  0
   43.8990   55.7190    0.2910 C   0  0  0  0  0  0  0  0  0  0  0  0
   44.3600   54.5000   -0.4410 C   0  0  0  0  0  0  0  0  0  0  0  0
   43.7520   53.4280   -0.3470 O   0  0  0  0  0  0  0  0  0  0  0  0
   45.4530   54.6450   -1.1830 N   0  0  0  0  0  0  0  0  0  0  0  0
   46.0170   57.3060   -1.0050 N   0  0  0  0  0  0  0  0  0  0  0  0
   45.9430   58.2700   -2.0930 C   0  0  2  0  0  0  0  0  0  0  0  0
   44.4870   58.7440   -2.2620 C   0  0  0  0  0  0  0  0  0  0  0  0
   43.5590   58.0100   -1.9400 O   0  0  0  0  0  0  0  0  0  0  0  0
   46.4060   57.5770   -3.3710 C   0  0  0  0  0  0  0  0  0  0  0  0
   46.4970   58.4690   -4.5850 C   0  0  0  0  0  0  0  0  0  0  0  0
   47.3050   59.6090   -4.5860 C   0  0  0  0  0  0  0  0  0  0  0  0
   45.8080   58.1450   -5.7550 C   0  0  0  0  0  0  0  0  0  0  0  0
   47.4230   60.4020   -5.7280 C   0  0  0  0  0  0  0  0  0  0  0  0
   45.9180   58.9280   -6.8980 C   0  0  0  0  0  0  0  0  0  0  0  0
   46.7300   60.0540   -6.8880 C   0  0  0  0  0  0  0  0  0  0  0  0
   46.8590   60.8070   -8.0430 O   0  0  0  0  0  0  0  0  0  0  0  0
   44.2860   59.9740   -2.7340 N   0  0  0  0  0  0  0  0  0  0  0  0
   42.9340   60.4820   -3.0010 C   0  0  2  0  0  0  0  0  0  0  0  0
   42.6290   60.0740   -4.4410 C   0  0  0  0  0  0  0  0  0  0  0  0
   43.2050   60.6050   -5.3800 O   0  0  0  0  0  0  0  0  0  0  0  0
   42.8480   61.9740   -2.6720 C   0  0  0  0  0  0  0  0  0  0  0  0
   42.8440   62.2820   -1.1840 C   0  0  0  0  0  0  0  0  0  0  0  0
   42.9370   63.7780   -0.9290 C   0  0  0  0  0  0  0  0  0  0  0  0
   42.1330   64.5630   -1.9530 C   0  0  0  0  0  0  0  0  0  0  0  0
   40.8150   64.9940   -1.4110 N   0  3  0  0  0  0  0  0  0  0  0  0
   41.7460   59.1080   -4.6330 N   0  0  0  0  0  0  0  0  0  0  0  0
   41.4290   58.6720   -5.9950 C   0  0  2  0  0  0  0  0  0  0  0  0
   40.3660   59.5550   -6.6260 C   0  0  0  0  0  0  0  0  0  0  0  0
   39.4450   60.0310   -5.9500 O   0  0  0  0  0  0  0  0  0  0  0  0
   40.9200   57.2170   -5.9990 C   0  0  0  0  0  0  0  0  0  0  0  0
   41.9530   56.2180   -5.6030 C   0  0  0  0  0  0  0  0  0  0  0  0
   42.1690   55.9120   -4.2590 C   0  0  0  0  0  0  0  0  0  0  0  0
   42.7450   55.6070   -6.5690 C   0  0  0  0  0  0  0  0  0  0  0  0
   43.1820   55.0090   -3.8880 C   0  0  0  0  0  0  0  0  0  0  0  0
   43.7470   54.7160   -6.2110 C   0  0  0  0  0  0  0  0  0  0  0  0
   43.9670   54.4180   -4.8700 C   0  0  0  0  0  0  0  0  0  0  0  0
   40.4970   59.7890   -7.9230 N   0  0  0  0  0  0  0  0  0  0  0  0
   39.4880   60.5650   -8.6420 C   0  0  2  0  0  0  0  0  0  0  0  0
   38.7480   59.6150   -9.5460 C   0  0  0  0  0  0  0  0  0  0  0  0
   38.2780   58.5860   -9.0350 O   0  0  0  0  0  0  0  0  0  0  0  0
   40.1110   61.7730   -9.3230 C   0  0  0  0  0  0  0  0  0  0  0  0
   40.5540   62.8400   -8.3220 C   0  0  0  0  0  0  0  0  0  0  0  0
   40.1760   62.7600   -6.9790 C   0  0  0  0  0  0  0  0  0  0  0  0
   41.3540   63.9150   -8.7100 C   0  0  0  0  0  0  0  0  0  0  0  0
   40.5790   63.7150   -6.0520 C   0  0  0  0  0  0  0  0  0  0  0  0
   41.7670   64.8870   -7.7800 C   0  0  0  0  0  0  0  0  0  0  0  0
   41.3720   64.7800   -6.4550 C   0  0  0  0  0  0  0  0  0  0  0  0
   41.7740   65.7160   -5.5380 O   0  0  0  0  0  0  0  0  0  0  0  0
   38.5800   59.8680  -10.7910 N   0  0  0  0  0  0  0  0  0  0  0  0
   37.7690   58.8880  -11.3650 C   0  0  2  0  0  0  0  0  0  0  0  0
   38.2370   58.4930  -12.7050 C   0  0  0  0  0  0  0  0  0  0  0  0
   39.0100   59.1760  -13.3690 O   0  0  0  0  0  0  0  0  0  0  0  0
   36.3330   59.3880  -11.5050 C   0  0  0  0  0  0  0  0  0  0  0  0
   36.2470   60.4880  -12.3930 O   0  0  0  0  0  0  0  0  0  0  0  0
   37.7460   57.3510  -13.1460 N   0  0  0  0  0  0  0  0  0  0  0  0
   38.0590   56.8120  -14.4550 C   0  0  2  0  0  0  0  0  0  0  0  0
   37.0590   57.3160  -15.4840 C   0  0  0  0  0  0  0  0  0  0  0  0
   36.5410   58.0890  -15.6750 O   0  5  0  0  0  0  0  0  0  0  0  0
   38.0530   55.2840  -14.4640 C   0  0  0  0  0  0  0  0  0  0  0  0
   38.4760   54.7460  -13.1000 C   0  0  0  0  0  0  0  0  0  0  0  0
   36.6700   54.7540  -14.8410 C   0  0  0  0  0  0  0  0  0  0  0  0
   38.3540   57.3020  -16.6310 O   0  0  0  0  0  0  0  0  0  0  0  0
   49.9409   56.9341    5.5467 H   0  0  0  0  0  0  0  0  0  0  0  0
   50.4688   56.8890    3.9882 H   0  0  0  0  0  0  0  0  0  0  0  0
   49.5779   55.6434    4.5918 H   0  0  0  0  0  0  0  0  0  0  0  0
   47.6523   57.0304    4.8508 H   0  0  0  0  0  0  0  0  0  0  0  0
   47.8130   59.2998    3.6279 H   0  0  0  0  0  0  0  0  0  0  0  0
   49.5928   59.1071    3.7750 H   0  0  0  0  0  0  0  0  0  0  0  0
   49.5821   59.3861    6.0215 H   0  0  0  0  0  0  0  0  0  0  0  0
   47.9340   58.6981    6.2137 H   0  0  0  0  0  0  0  0  0  0  0  0
   46.1430   57.1423    3.2869 H   0  0  0  0  0  0  0  0  0  0  0  0
   46.7738   55.6957    0.8369 H   0  0  0  0  0  0  0  0  0  0  0  0
   44.2262   56.7722    2.1182 H   0  0  0  0  0  0  0  0  0  0  0  0
   44.8240   55.0783    2.1045 H   0  0  0  0  0  0  0  0  0  0  0  0
   43.9548   56.5821   -0.3886 H   0  0  0  0  0  0  0  0  0  0  0  0
   42.8564   55.5684    0.6078 H   0  0  0  0  0  0  0  0  0  0  0  0
   45.8142   53.8678   -1.6983 H   0  0  0  0  0  0  0  0  0  0  0  0
   45.9142   55.5313   -1.2260 H   0  0  0  0  0  0  0  0  0  0  0  0
   45.9512   56.3320   -1.2220 H   0  0  0  0  0  0  0  0  0  0  0  0
   46.5910   59.1321   -1.8767 H   0  0  0  0  0  0  0  0  0  0  0  0
   45.6967   56.7668   -3.5957 H   0  0  0  0  0  0  0  0  0  0  0  0
   47.4030   57.1507   -3.1857 H   0  0  0  0  0  0  0  0  0  0  0  0
   47.8473   59.8809   -3.6877 H   0  0  0  0  0  0  0  0  0  0  0  0
   45.1747   57.2654   -5.7724 H   0  0  0  0  0  0  0  0  0  0  0  0
   48.0510   61.2855   -5.7141 H   0  0  0  0  0  0  0  0  0  0  0  0
   45.3712   58.6602   -7.7949 H   0  0  0  0  0  0  0  0  0  0  0  0
   47.4426   61.5385   -7.8792 H   0  0  0  0  0  0  0  0  0  0  0  0
   45.0736   60.5645   -2.9104 H   0  0  0  0  0  0  0  0  0  0  0  0
   42.2172   59.9674   -2.3443 H   0  0  0  0  0  0  0  0  0  0  0  0
   41.9202   62.3713   -3.1094 H   0  0  0  0  0  0  0  0  0  0  0  0
   43.7132   62.4785   -3.1268 H   0  0  0  0  0  0  0  0  0  0  0  0
   43.7042   61.7841   -0.7127 H   0  0  0  0  0  0  0  0  0  0  0  0
   41.9119   61.9005   -0.7416 H   0  0  0  0  0  0  0  0  0  0  0  0
   43.9911   64.0868   -0.9877 H   0  0  0  0  0  0  0  0  0  0  0  0
   42.5467   63.9953    0.0762 H   0  0  0  0  0  0  0  0  0  0  0  0
   41.9644   63.9282   -2.8354 H   0  0  0  0  0  0  0  0  0  0  0  0
   42.7056   65.4550   -2.2470 H   0  0  0  0  0  0  0  0  0  0  0  0
   40.3136   65.5096   -2.1173 H   0  0  0  0  0  0  0  0  0  0  0  0
   40.9591   65.5817   -0.6048 H   0  0  0  0  0  0  0  0  0  0  0  0
   40.2799   64.1826   -1.1440 H   0  0  0  0  0  0  0  0  0  0  0  0
   41.2963   58.6767   -3.8508 H   0  0  0  0  0  0  0  0  0  0  0  0
   42.3455   58.7316   -6.6004 H   0  0  0  0  0  0  0  0  0  0  0  0
   40.5731   56.9735   -7.0141 H   0  0  0  0  0  0  0  0  0  0  0  0
   40.0775   57.1422   -5.2958 H   0  0  0  0  0  0  0  0  0  0  0  0
   41.5524   56.3729   -3.4958 H   0  0  0  0  0  0  0  0  0  0  0  0
   42.5774   55.8298   -7.6165 H   0  0  0  0  0  0  0  0  0  0  0  0
   43.3489   54.7759   -2.8426 H   0  0  0  0  0  0  0  0  0  0  0  0
   44.3584   54.2521   -6.9765 H   0  0  0  0  0  0  0  0  0  0  0  0
   44.7517   53.7240   -4.5911 H   0  0  0  0  0  0  0  0  0  0  0  0
   41.2918   59.4323   -8.4140 H   0  0  0  0  0  0  0  0  0  0  0  0
   38.7642   60.9533   -7.9103 H   0  0  0  0  0  0  0  0  0  0  0  0
   39.3706   62.2148  -10.0061 H   0  0  0  0  0  0  0  0  0  0  0  0
   40.9883   61.4415   -9.8978 H   0  0  0  0  0  0  0  0  0  0  0  0
   39.5542   61.9343   -6.6523 H   0  0  0  0  0  0  0  0  0  0  0  0
   41.6627   64.0031   -9.7454 H   0  0  0  0  0  0  0  0  0  0  0  0
   40.2739   63.6275   -5.0155 H   0  0  0  0  0  0  0  0  0  0  0  0
   42.3905   65.7149   -8.0976 H   0  0  0  0  0  0  0  0  0  0  0  0
   41.4183   65.4954   -4.6852 H   0  0  0  0  0  0  0  0  0  0  0  0
   38.9709   60.6494  -11.2775 H   0  0  0  0  0  0  0  0  0  0  0  0
   37.7808   58.0045  -10.7099 H   0  0  0  0  0  0  0  0  0  0  0  0
   35.9653   59.6985  -10.5159 H   0  0  0  0  0  0  0  0  0  0  0  0
   35.7061   58.5697  -11.8890 H   0  0  0  0  0  0  0  0  0  0  0  0
   36.7823   61.2010  -12.0649 H   0  0  0  0  0  0  0  0  0  0  0  0
   37.1305   56.8340  -12.5511 H   0  0  0  0  0  0  0  0  0  0  0  0
   39.0642   57.1579  -14.7377 H   0  0  0  0  0  0  0  0  0  0  0  0
   38.7762   54.9365  -15.2165 H   0  0  0  0  0  0  0  0  0  0  0  0
   38.4672   53.6462  -13.1209 H   0  0  0  0  0  0  0  0  0  0  0  0
   37.7752   55.1037  -12.3313 H   0  0  0  0  0  0  0  0  0  0  0  0
   39.4905   55.1001  -12.8647 H   0  0  0  0  0  0  0  0  0  0  0  0
   36.3810   55.1510  -15.8253 H   0  0  0  0  0  0  0  0  0  0  0  0
   35.9363   55.0745  -14.0867 H   0  0  0  0  0  0  0  0  0  0  0  0
   36.6972   53.6551  -14.8825 H   0  0  0  0  0  0  0  0  0  0  0  0
  1  2  1  0  0  0  0
  1 77  1  0  0  0  0
  1 78  1  0  0  0  0
  1 79  1  0  0  0  0
  2  3  1  0  0  0  0
  2  5  1  0  0  0  0
  2 80  1  1  0  0  0
  3  4  2  0  0  0  0
  3 10  1  0  0  0  0
  5  6  1  0  0  0  0
  5 81  1  0  0  0  0
  5 82  1  0  0  0  0
  6  7  1  0  0  0  0
  6 83  1  0  0  0  0
  6 84  1  0  0  0  0
  7  8  1  0  0  0  0
  7  9  2  0  0  0  0
 10 11  1  0  0  0  0
 10 85  1  0  0  0  0
 11 12  1  0  0  0  0
 11 14  1  0  0  0  0
 11 86  1  6  0  0  0
 12 13  2  0  0  0  0
 12 19  1  0  0  0  0
 14 15  1  0  0  0  0
 14 87  1  0  0  0  0
 14 88  1  0  0  0  0
 15 16  1  0  0  0  0
 15 89  1  0  0  0  0
 15 90  1  0  0  0  0
 16 17  2  0  0  0  0
 16 18  1  0  0  0  0
 18 91  1  0  0  0  0
 18 92  1  0  0  0  0
 19 20  1  0  0  0  0
 19 93  1  0  0  0  0
 20 21  1  0  0  0  0
 20 23  1  0  0  0  0
 20 94  1  1  0  0  0
 21 22  2  0  0  0  0
 21 31  1  0  0  0  0
 23 24  1  0  0  0  0
 23 95  1  0  0  0  0
 23 96  1  0  0  0  0
 24 25  2  0  0  0  0
 24 26  1  0  0  0  0
 25 27  1  0  0  0  0
 25 97  1  0  0  0  0
 26 28  2  0  0  0  0
 26 98  1  0  0  0  0
 27 29  2  0  0  0  0
 27 99  1  0  0  0  0
 28 29  1  0  0  0  0
 28100  1  0  0  0  0
 29 30  1  0  0  0  0
 30101  1  0  0  0  0
 31 32  1  0  0  0  0
 31102  1  0  0  0  0
 32 33  1  0  0  0  0
 32 35  1  0  0  0  0
 32103  1  1  0  0  0
 33 34  2  0  0  0  0
 33 40  1  0  0  0  0
 35 36  1  0  0  0  0
 35104  1  0  0  0  0
 35105  1  0  0  0  0
 36 37  1  0  0  0  0
 36106  1  0  0  0  0
 36107  1  0  0  0  0
 37 38  1  0  0  0  0
 37108  1  0  0  0  0
 37109  1  0  0  0  0
 38 39  1  0  0  0  0
 38110  1  0  0  0  0
 38111  1  0  0  0  0
 39112  1  0  0  0  0
 39113  1  0  0  0  0
 39114  1  0  0  0  0
 40 41  1  0  0  0  0
 40115  1  0  0  0  0
 41 42  1  0  0  0  0
 41 44  1  0  0  0  0
 41116  1  6  0  0  0
 42 43  2  0  0  0  0
 42 51  1  0  0  0  0
 44 45  1  0  0  0  0
 44117  1  0  0  0  0
 44118  1  0  0  0  0
 45 46  2  0  0  0  0
 45 47  1  0  0  0  0
 46 48  1  0  0  0  0
 46119  1  0  0  0  0
 47 49  2  0  0  0  0
 47120  1  0  0  0  0
 48 50  2  0  0  0  0
 48121  1  0  0  0  0
 49 50  1  0  0  0  0
 49122  1  0  0  0  0
 50123  1  0  0  0  0
 51 52  1  0  0  0  0
 51124  1  0  0  0  0
 52 53  1  0  0  0  0
 52 55  1  0  0  0  0
 52125  1  1  0  0  0
 53 54  2  0  0  0  0
 53 63  1  0  0  0  0
 55 56  1  0  0  0  0
 55126  1  0  0  0  0
 55127  1  0  0  0  0
 56 57  2  0  0  0  0
 56 58  1  0  0  0  0
 57 59  1  0  0  0  0
 57128  1  0  0  0  0
 58 60  2  0  0  0  0
 58129  1  0  0  0  0
 59 61  2  0  0  0  0
 59130  1  0  0  0  0
 60 61  1  0  0  0  0
 60131  1  0  0  0  0
 61 62  1  0  0  0  0
 62132  1  0  0  0  0
 63 64  1  0  0  0  0
 63133  1  0  0  0  0
 64 65  1  0  0  0  0
 64 67  1  0  0  0  0
 64134  1  1  0  0  0
 65 66  2  0  0  0  0
 65 69  1  0  0  0  0
 67 68  1  0  0  0  0
 67135  1  0  0  0  0
 67136  1  0  0  0  0
 68137  1  0  0  0  0
 69 70  1  0  0  0  0
 69138  1  0  0  0  0
 70 71  1  0  0  0  0
 70 73  1  0  0  0  0
 70139  1  6  0  0  0
 71 72  1  0  0  0  0
 71 76  2  0  0  0  0
 73 74  1  0  0  0  0
 73 75  1  0  0  0  0
 73140  1  0  0  0  0
 74141  1  0  0  0  0
 74142  1  0  0  0  0
 74143  1  0  0  0  0
 75144  1  0  0  0  0
 75145  1  0  0  0  0
 75146  1  0  0  0  0
M  CHG  4   1   1   8  -1  39   1  72  -1
M  END
