1lev_ligand
 OpenBabel08222323343D

 26 27  0  0  0  0  0  0  0  0999 V2000
    9.3360  -33.7580    6.1590 O   0  5  0  0  0  0  0  0  0  0  0  0
    8.2580  -33.1600    5.9410 C   0  0  0  0  0  0  0  0  0  0  0  0
    7.1440  -33.7300    6.4420 O   0  0  0  0  0  0  0  0  0  0  0  0
    8.0980  -31.8580    5.1190 C   0  0  0  0  0  0  0  0  0  0  0  0
    9.0700  -30.7220    5.3160 C   0  0  0  0  0  0  0  0  0  0  0  0
    8.5720  -29.4500    4.6720 C   0  0  0  0  0  0  0  0  0  0  0  0
    9.3440  -28.2070    4.5300 C   0  0  0  0  0  0  0  0  0  0  0  0
    7.3840  -29.1950    4.1100 C   0  0  0  0  0  0  0  0  0  0  0  0
    6.1790  -30.0400    3.9150 C   0  0  0  0  0  0  0  0  0  0  0  0
    6.0600  -31.2790    4.3500 O   0  5  0  0  0  0  0  0  0  0  0  0
    5.2050  -29.5040    3.3860 O   0  0  0  0  0  0  0  0  0  0  0  0
    7.3230  -27.9130    3.6460 N   0  0  0  0  0  0  0  0  0  0  0  0
    8.5290  -27.2690    3.8940 C   0  0  0  0  0  0  0  0  0  0  0  0
    8.9300  -25.9420    3.6580 C   0  0  0  0  0  0  0  0  0  0  0  0
   10.2190  -25.5980    4.0380 C   0  0  0  0  0  0  0  0  0  0  0  0
   10.7770  -23.9810    3.7890 Cl  0  0  0  0  0  0  0  0  0  0  0  0
   11.0700  -26.5120    4.7050 C   0  0  0  0  0  0  0  0  0  0  0  0
   10.6110  -27.8050    4.9540 C   0  0  0  0  0  0  0  0  0  0  0  0
   11.6120  -28.9760    5.7510 Cl  0  0  0  0  0  0  0  0  0  0  0  0
    7.0962  -31.4620    5.3418 H   0  0  0  0  0  0  0  0  0  0  0  0
    8.1521  -32.1428    4.0579 H   0  0  0  0  0  0  0  0  0  0  0  0
   10.0359  -30.9959    4.8664 H   0  0  0  0  0  0  0  0  0  0  0  0
    9.2033  -30.5484    6.3940 H   0  0  0  0  0  0  0  0  0  0  0  0
    6.5073  -27.4877    3.1826 H   0  0  0  0  0  0  0  0  0  0  0  0
    8.2625  -25.2210    3.2001 H   0  0  0  0  0  0  0  0  0  0  0  0
   12.0635  -26.2112    5.0174 H   0  0  0  0  0  0  0  0  0  0  0  0
  1  2  1  0  0  0  0
  2  3  2  0  0  0  0
  2  4  1  0  0  0  0
  4  5  1  0  0  0  0
  4 20  1  0  0  0  0
  4 21  1  0  0  0  0
  5  6  1  0  0  0  0
  5 22  1  0  0  0  0
  5 23  1  0  0  0  0
  6  7  1  0  0  0  0
  6  8  2  0  0  0  0
  7 13  2  0  0  0  0
  7 18  1  0  0  0  0
  8  9  1  0  0  0  0
  8 12  1  0  0  0  0
  9 10  1  0  0  0  0
  9 11  2  0  0  0  0
 12 13  1  0  0  0  0
 12 24  1  0  0  0  0
 13 14  1  0  0  0  0
 14 15  2  0  0  0  0
 14 25  1  0  0  0  0
 15 16  1  0  0  0  0
 15 17  1  0  0  0  0
 17 18  2  0  0  0  0
 17 26  1  0  0  0  0
 18 19  1  0  0  0  0
M  CHG  2   1  -1  10  -1
M  END
