1lhv_ligand
 OpenBabel08222323343D

 51 54  0  0  1  0  0  0  0  0999 V2000
   24.3870    9.8500   30.6970 C   0  0  0  0  0  0  0  0  0  0  0  0
   25.8070   10.2680   30.3260 C   0  0  0  0  0  0  0  0  0  0  0  0
   26.1390   11.7200   30.5610 C   0  0  0  0  0  0  0  0  0  0  0  0
   25.3140   12.4880   31.5200 C   0  0  0  0  0  0  0  0  0  0  0  0
   24.2440   11.9660   32.1810 C   0  0  0  0  0  0  0  0  0  0  0  0
   23.4550   12.8040   33.1720 C   0  0  0  0  0  0  0  0  0  0  0  0
   21.9170   12.7020   32.9620 C   0  0  0  0  0  0  0  0  0  0  0  0
   21.4160   11.2390   32.8990 C   0  0  2  0  0  0  0  0  0  0  0  0
   22.1820   10.4840   31.7820 C   0  0  1  0  0  0  0  0  0  0  0  0
   23.7460   10.5010   31.9740 C   0  0  1  0  0  0  0  0  0  0  0  0
   21.6630    9.0100   31.6260 C   0  0  0  0  0  0  0  0  0  0  0  0
   20.1190    8.9350   31.4350 C   0  0  0  0  0  0  0  0  0  0  0  0
   19.3660    9.6410   32.5950 C   0  0  1  0  0  0  0  0  0  0  0  0
   19.8930   11.1350   32.6490 C   0  0  1  0  0  0  0  0  0  0  0  0
   18.8980   11.8080   33.6140 C   0  0  0  0  0  0  0  0  0  0  0  0
   17.5640   11.0280   33.4140 C   0  0  0  0  0  0  0  0  0  0  0  0
   17.8360    9.9190   32.3720 C   0  0  1  0  0  0  0  0  0  0  0  0
   19.5690    8.8630   33.9500 C   0  0  0  0  0  0  0  0  0  0  0  0
   19.5490    7.3340   33.9450 C   0  0  0  0  0  0  0  0  0  0  0  0
   17.5150   10.4140   30.9880 C   0  0  0  0  0  0  0  0  0  0  0  0
   17.2360   10.7760   29.9140 C   0  0  0  0  0  0  0  0  0  0  0  0
   27.0740   12.2190   29.9750 O   0  0  0  0  0  0  0  0  0  0  0  0
   17.0130    8.7790   32.6010 O   0  0  0  0  0  0  0  0  0  0  0  0
   24.3947    8.7610   30.8518 H   0  0  0  0  0  0  0  0  0  0  0  0
   23.7385   10.0944   29.8427 H   0  0  0  0  0  0  0  0  0  0  0  0
   25.9543   10.0555   29.2568 H   0  0  0  0  0  0  0  0  0  0  0  0
   26.5053    9.6603   30.9203 H   0  0  0  0  0  0  0  0  0  0  0  0
   25.5771   13.5280   31.7074 H   0  0  0  0  0  0  0  0  0  0  0  0
   23.7555   13.8561   33.0594 H   0  0  0  0  0  0  0  0  0  0  0  0
   23.6937   12.4613   34.1896 H   0  0  0  0  0  0  0  0  0  0  0  0
   21.6571   13.2034   32.0180 H   0  0  0  0  0  0  0  0  0  0  0  0
   21.4137   13.2101   33.7978 H   0  0  0  0  0  0  0  0  0  0  0  0
   21.6360   10.7601   33.8645 H   0  0  0  0  0  0  0  0  0  0  0  0
   21.9683   11.0089   30.8392 H   0  0  0  0  0  0  0  0  0  0  0  0
   24.0154    9.9064   32.8594 H   0  0  0  0  0  0  0  0  0  0  0  0
   21.9340    8.4437   32.5293 H   0  0  0  0  0  0  0  0  0  0  0  0
   22.1487    8.5565   30.7494 H   0  0  0  0  0  0  0  0  0  0  0  0
   19.8140    7.8787   31.4018 H   0  0  0  0  0  0  0  0  0  0  0  0
   19.8522    9.4237   30.4863 H   0  0  0  0  0  0  0  0  0  0  0  0
   19.7375   11.5923   31.6607 H   0  0  0  0  0  0  0  0  0  0  0  0
   18.7683   12.8701   33.3589 H   0  0  0  0  0  0  0  0  0  0  0  0
   19.2464   11.7204   34.6537 H   0  0  0  0  0  0  0  0  0  0  0  0
   16.7814   11.7076   33.0457 H   0  0  0  0  0  0  0  0  0  0  0  0
   17.2426   10.5803   34.3660 H   0  0  0  0  0  0  0  0  0  0  0  0
   18.7710    9.1921   34.6318 H   0  0  0  0  0  0  0  0  0  0  0  0
   20.5454    9.1698   34.3531 H   0  0  0  0  0  0  0  0  0  0  0  0
   19.7050    6.9619   34.9683 H   0  0  0  0  0  0  0  0  0  0  0  0
   20.3510    6.9589   33.2923 H   0  0  0  0  0  0  0  0  0  0  0  0
   18.5766    6.9812   33.5709 H   0  0  0  0  0  0  0  0  0  0  0  0
   16.9836   11.1035   28.9423 H   0  0  0  0  0  0  0  0  0  0  0  0
   16.0993    9.0323   32.5415 H   0  0  0  0  0  0  0  0  0  0  0  0
  1  2  1  0  0  0  0
  1 10  1  0  0  0  0
  1 24  1  0  0  0  0
  1 25  1  0  0  0  0
  2  3  1  0  0  0  0
  2 26  1  0  0  0  0
  2 27  1  0  0  0  0
  3  4  1  0  0  0  0
  3 22  2  0  0  0  0
  4  5  2  0  0  0  0
  4 28  1  0  0  0  0
  5  6  1  0  0  0  0
  5 10  1  0  0  0  0
  6  7  1  0  0  0  0
  6 29  1  0  0  0  0
  6 30  1  0  0  0  0
  7  8  1  0  0  0  0
  7 31  1  0  0  0  0
  7 32  1  0  0  0  0
  8  9  1  0  0  0  0
  8 14  1  0  0  0  0
  8 33  1  1  0  0  0
  9 10  1  0  0  0  0
  9 11  1  0  0  0  0
  9 34  1  6  0  0  0
 10 35  1  1  0  0  0
 11 12  1  0  0  0  0
 11 36  1  0  0  0  0
 11 37  1  0  0  0  0
 12 13  1  0  0  0  0
 12 38  1  0  0  0  0
 12 39  1  0  0  0  0
 13 14  1  0  0  0  0
 13 17  1  0  0  0  0
 13 18  1  1  0  0  0
 14 15  1  0  0  0  0
 14 40  1  6  0  0  0
 15 16  1  0  0  0  0
 15 41  1  0  0  0  0
 15 42  1  0  0  0  0
 16 17  1  0  0  0  0
 16 43  1  0  0  0  0
 16 44  1  0  0  0  0
 17 20  1  6  0  0  0
 17 23  1  0  0  0  0
 18 19  1  0  0  0  0
 18 45  1  0  0  0  0
 18 46  1  0  0  0  0
 19 47  1  0  0  0  0
 19 48  1  0  0  0  0
 19 49  1  0  0  0  0
 20 21  3  0  0  0  0
 21 50  1  0  0  0  0
 23 51  1  0  0  0  0
M  END
