1lhw_ligand
 OpenBabel08222323343D

 48 51  0  0  1  0  0  0  0  0999 V2000
   20.5540    9.0130   33.4050 C   0  0  0  0  0  0  0  0  0  0  0  0
   20.9210   10.3670   33.4410 C   0  0  0  0  0  0  0  0  0  0  0  0
   23.1460    9.8710   32.3250 C   0  0  0  0  0  0  0  0  0  0  0  0
   24.5870   10.3250   32.1460 C   0  0  0  0  0  0  0  0  0  0  0  0
   24.7000   11.7870   31.6690 C   0  0  1  0  0  0  0  0  0  0  0  0
   23.9390   12.6610   32.6610 C   0  0  1  0  0  0  0  0  0  0  0  0
   24.3180   14.0970   32.2300 C   0  0  0  0  0  0  0  0  0  0  0  0
   25.7490   13.9280   31.6970 C   0  0  0  0  0  0  0  0  0  0  0  0
   26.0630   12.4400   31.7880 C   0  0  2  0  0  0  0  0  0  0  0  0
   24.1420   11.8940   30.2190 C   0  0  0  0  0  0  0  0  0  0  0  0
   19.2630    8.5960   33.5510 C   0  0  0  0  0  0  0  0  0  0  0  0
   18.2560    9.5210   33.7390 C   0  0  0  0  0  0  0  0  0  0  0  0
   18.5920   10.8680   33.7950 C   0  0  0  0  0  0  0  0  0  0  0  0
   19.8940   11.3040   33.6540 C   0  0  0  0  0  0  0  0  0  0  0  0
   20.1630   12.8100   33.7270 C   0  0  0  0  0  0  0  0  0  0  0  0
   21.6490   13.1860   33.7010 C   0  0  0  0  0  0  0  0  0  0  0  0
   22.4460   12.2860   32.7540 C   0  0  2  0  0  0  0  0  0  0  0  0
   22.3650   10.7990   33.2610 C   0  0  1  0  0  0  0  0  0  0  0  0
   26.9810   12.0830   30.7200 O   0  0  0  0  0  0  0  0  0  0  0  0
   16.9710    9.0850   33.8630 O   0  0  0  0  0  0  0  0  0  0  0  0
   18.8040    7.2760   33.5290 O   0  0  0  0  0  0  0  0  0  0  0  0
   19.7890    6.2700   33.3550 C   0  0  0  0  0  0  0  0  0  0  0  0
   21.3273    8.2683   33.2552 H   0  0  0  0  0  0  0  0  0  0  0  0
   23.1433    8.8556   32.7480 H   0  0  0  0  0  0  0  0  0  0  0  0
   22.6522    9.8602   31.3422 H   0  0  0  0  0  0  0  0  0  0  0  0
   25.0702    9.6747   31.4020 H   0  0  0  0  0  0  0  0  0  0  0  0
   25.1077   10.2291   33.1102 H   0  0  0  0  0  0  0  0  0  0  0  0
   24.3518   12.4973   33.6674 H   0  0  0  0  0  0  0  0  0  0  0  0
   24.2935   14.7869   33.0864 H   0  0  0  0  0  0  0  0  0  0  0  0
   23.6434   14.4652   31.4431 H   0  0  0  0  0  0  0  0  0  0  0  0
   26.4556   14.5051   32.3116 H   0  0  0  0  0  0  0  0  0  0  0  0
   25.8095   14.2673   30.6524 H   0  0  0  0  0  0  0  0  0  0  0  0
   26.5215   12.1885   32.7557 H   0  0  0  0  0  0  0  0  0  0  0  0
   23.1548   11.4113   30.1695 H   0  0  0  0  0  0  0  0  0  0  0  0
   24.8307   11.3925   29.5231 H   0  0  0  0  0  0  0  0  0  0  0  0
   24.0463   12.9538   29.9402 H   0  0  0  0  0  0  0  0  0  0  0  0
   17.8075   11.5990   33.9543 H   0  0  0  0  0  0  0  0  0  0  0  0
   19.7267   13.1933   34.6612 H   0  0  0  0  0  0  0  0  0  0  0  0
   19.6709   13.2902   32.8684 H   0  0  0  0  0  0  0  0  0  0  0  0
   22.0594   13.0863   34.7167 H   0  0  0  0  0  0  0  0  0  0  0  0
   21.7466   14.2295   33.3669 H   0  0  0  0  0  0  0  0  0  0  0  0
   22.0007   12.3581   31.7508 H   0  0  0  0  0  0  0  0  0  0  0  0
   22.8471   10.7535   34.2486 H   0  0  0  0  0  0  0  0  0  0  0  0
   27.7819   12.5858   30.8111 H   0  0  0  0  0  0  0  0  0  0  0  0
   16.6272    9.3522   34.7073 H   0  0  0  0  0  0  0  0  0  0  0  0
   19.3071    5.2812   33.3548 H   0  0  0  0  0  0  0  0  0  0  0  0
   20.5167    6.3230   34.1782 H   0  0  0  0  0  0  0  0  0  0  0  0
   20.3069    6.4257   32.3971 H   0  0  0  0  0  0  0  0  0  0  0  0
  1 11  1  0  0  0  0
  1 23  1  0  0  0  0
  2  1  2  0  0  0  0
  2 14  1  0  0  0  0
  3  4  1  0  0  0  0
  3 18  1  0  0  0  0
  3 24  1  0  0  0  0
  3 25  1  0  0  0  0
  4  5  1  0  0  0  0
  4 26  1  0  0  0  0
  4 27  1  0  0  0  0
  5  6  1  0  0  0  0
  5  9  1  0  0  0  0
  5 10  1  6  0  0  0
  6  7  1  0  0  0  0
  6 17  1  0  0  0  0
  6 28  1  1  0  0  0
  7  8  1  0  0  0  0
  7 29  1  0  0  0  0
  7 30  1  0  0  0  0
  8  9  1  0  0  0  0
  8 31  1  0  0  0  0
  8 32  1  0  0  0  0
  9 19  1  0  0  0  0
  9 33  1  1  0  0  0
 10 34  1  0  0  0  0
 10 35  1  0  0  0  0
 10 36  1  0  0  0  0
 11 12  2  0  0  0  0
 11 21  1  0  0  0  0
 12 13  1  0  0  0  0
 12 20  1  0  0  0  0
 13 14  2  0  0  0  0
 13 37  1  0  0  0  0
 14 15  1  0  0  0  0
 15 16  1  0  0  0  0
 15 38  1  0  0  0  0
 15 39  1  0  0  0  0
 16 17  1  0  0  0  0
 16 40  1  0  0  0  0
 16 41  1  0  0  0  0
 17 18  1  0  0  0  0
 17 42  1  6  0  0  0
 18  2  1  0  0  0  0
 18 43  1  1  0  0  0
 19 44  1  0  0  0  0
 20 45  1  0  0  0  0
 21 22  1  0  0  0  0
 22 46  1  0  0  0  0
 22 47  1  0  0  0  0
 22 48  1  0  0  0  0
M  END
