1lq2_ligand
 OpenBabel08222323343D

 36 38  0  0  1  0  0  0  0  0999 V2000
   27.0460   29.5630   35.8810 C   0  0  0  0  0  0  0  0  0  0  0  0
   27.5870   29.9620   37.1400 C   0  0  0  0  0  0  0  0  0  0  0  0
   28.3160   31.1800   37.2430 C   0  0  0  0  0  0  0  0  0  0  0  0
   28.4970   31.9890   36.0980 C   0  0  0  0  0  0  0  0  0  0  0  0
   27.9580   31.5960   34.8520 C   0  0  0  0  0  0  0  0  0  0  0  0
   27.2380   30.3860   34.7450 C   0  0  0  0  0  0  0  0  0  0  0  0
   25.3490   26.3270   36.3640 C   0  0  0  0  0  0  0  0  0  0  0  0
   24.8550   25.1600   37.1860 C   0  0  1  0  0  0  0  0  0  0  0  0
   24.0990   24.1090   36.3310 C   0  0  2  0  0  0  0  0  0  0  0  0
   23.3960   24.7700   35.0930 C   0  0  1  0  0  0  0  0  0  0  0  0
   24.4300   25.4400   34.1790 C   0  0  1  0  0  0  0  0  0  0  0  0
   23.8720   26.1050   32.8640 C   0  0  0  0  0  0  0  0  0  0  0  0
   25.9450   24.5620   37.8940 O   0  0  0  0  0  0  0  0  0  0  0  0
   23.1870   23.4890   37.1860 O   0  0  0  0  0  0  0  0  0  0  0  0
   22.6930   23.7450   34.3350 O   0  0  0  0  0  0  0  0  0  0  0  0
   25.1580   26.4640   35.0260 N   0  0  0  0  0  0  0  0  0  0  0  0
   23.0100   27.2450   33.1410 O   0  0  0  0  0  0  0  0  0  0  0  0
   26.0280   27.3800   36.8150 N   0  0  0  0  0  0  0  0  0  0  0  0
   26.2930   28.2460   35.7640 C   0  0  0  0  0  0  0  0  0  0  0  0
   25.7480   27.6690   34.6640 C   0  0  0  0  0  0  0  0  0  0  0  0
   27.4431   29.3391   38.0154 H   0  0  0  0  0  0  0  0  0  0  0  0
   28.7311   31.4863   38.1964 H   0  0  0  0  0  0  0  0  0  0  0  0
   29.0526   32.9165   36.1761 H   0  0  0  0  0  0  0  0  0  0  0  0
   28.0972   32.2232   33.9789 H   0  0  0  0  0  0  0  0  0  0  0  0
   26.8296   30.0853   33.7869 H   0  0  0  0  0  0  0  0  0  0  0  0
   24.1447   25.5527   37.9285 H   0  0  0  0  0  0  0  0  0  0  0  0
   24.8137   23.3596   35.9600 H   0  0  0  0  0  0  0  0  0  0  0  0
   22.6780   25.5254   35.4450 H   0  0  0  0  0  0  0  0  0  0  0  0
   25.1468   24.6668   33.8654 H   0  0  0  0  0  0  0  0  0  0  0  0
   23.2949   25.3533   32.3055 H   0  0  0  0  0  0  0  0  0  0  0  0
   24.7208   26.4445   32.2522 H   0  0  0  0  0  0  0  0  0  0  0  0
   26.5539   24.1809   37.2723 H   0  0  0  0  0  0  0  0  0  0  0  0
   23.6530   23.1037   37.9187 H   0  0  0  0  0  0  0  0  0  0  0  0
   22.2555   24.1456   33.5930 H   0  0  0  0  0  0  0  0  0  0  0  0
   22.2693   26.9609   33.6637 H   0  0  0  0  0  0  0  0  0  0  0  0
   25.7694   28.0840   33.6574 H   0  0  0  0  0  0  0  0  0  0  0  0
  1  2  2  0  0  0  0
  1  6  1  0  0  0  0
  2  3  1  0  0  0  0
  2 21  1  0  0  0  0
  3  4  2  0  0  0  0
  3 22  1  0  0  0  0
  4 23  1  0  0  0  0
  5  4  1  0  0  0  0
  5 24  1  0  0  0  0
  6  5  2  0  0  0  0
  6 25  1  0  0  0  0
  7  8  1  0  0  0  0
  7 16  1  0  0  0  0
  8  9  1  0  0  0  0
  8 13  1  0  0  0  0
  8 26  1  1  0  0  0
  9 10  1  0  0  0  0
  9 14  1  0  0  0  0
  9 27  1  6  0  0  0
 10 15  1  0  0  0  0
 10 28  1  1  0  0  0
 11 10  1  0  0  0  0
 11 12  1  0  0  0  0
 11 29  1  6  0  0  0
 12 17  1  0  0  0  0
 12 30  1  0  0  0  0
 12 31  1  0  0  0  0
 13 32  1  0  0  0  0
 14 33  1  0  0  0  0
 15 34  1  0  0  0  0
 16 11  1  0  0  0  0
 16 20  1  0  0  0  0
 17 35  1  0  0  0  0
 18  7  2  0  0  0  0
 18 19  1  0  0  0  0
 19  1  1  0  0  0  0
 19 20  2  0  0  0  0
 20 36  1  0  0  0  0
M  END
