1lt6_ligand
 OpenBabel08222323343D

 36 37  0  0  1  0  0  0  0  0999 V2000
   11.1940   23.2410   -4.1540 C   0  0  1  0  0  0  0  0  0  0  0  0
   10.0240   24.0030   -3.4650 C   0  0  1  0  0  0  0  0  0  0  0  0
   10.0330   23.8170   -1.9450 C   0  0  2  0  0  0  0  0  0  0  0  0
   10.1110   22.3190   -1.5860 C   0  0  2  0  0  0  0  0  0  0  0  0
   11.3440   21.7020   -2.2930 C   0  0  1  0  0  0  0  0  0  0  0  0
   11.4570   20.2600   -1.9690 C   0  0  0  0  0  0  0  0  0  0  0  0
   13.5350   23.5560   -4.4850 C   0  0  0  0  0  0  0  0  0  0  0  0
   14.2390   22.5180   -3.9040 C   0  0  0  0  0  0  0  0  0  0  0  0
   15.4070   22.0830   -4.5400 C   0  0  0  0  0  0  0  0  0  0  0  0
   15.7980   22.7370   -5.7470 C   0  0  0  0  0  0  0  0  0  0  0  0
   15.0490   23.7920   -6.2940 C   0  0  0  0  0  0  0  0  0  0  0  0
   13.8850   24.2080   -5.6490 C   0  0  0  0  0  0  0  0  0  0  0  0
   16.1910   20.9800   -3.9890 N   0  0  0  0  0  0  0  0  0  0  0  0
   12.3550   23.9760   -3.8220 O   0  0  0  0  0  0  0  0  0  0  0  0
   10.0340   25.4040   -3.6830 O   0  0  0  0  0  0  0  0  0  0  0  0
    8.8350   24.3640   -1.5150 O   0  0  0  0  0  0  0  0  0  0  0  0
    8.9200   21.6210   -1.9280 O   0  0  0  0  0  0  0  0  0  0  0  0
   11.2540   21.8450   -3.7610 O   0  0  0  0  0  0  0  0  0  0  0  0
   12.6120   19.7720   -2.6080 O   0  0  0  0  0  0  0  0  0  0  0  0
   17.2260   20.5600   -4.5470 O   0  0  0  0  0  0  0  0  0  0  0  0
   15.8550   20.4080   -2.9320 O   0  0  0  0  0  0  0  0  0  0  0  0
   11.0524   23.2713   -5.2444 H   0  0  0  0  0  0  0  0  0  0  0  0
    9.0859   23.5943   -3.8685 H   0  0  0  0  0  0  0  0  0  0  0  0
   10.8847   24.3472   -1.4938 H   0  0  0  0  0  0  0  0  0  0  0  0
   10.2519   22.2314   -0.4986 H   0  0  0  0  0  0  0  0  0  0  0  0
   12.2461   22.2224   -1.9391 H   0  0  0  0  0  0  0  0  0  0  0  0
   10.5699   19.7222   -2.3348 H   0  0  0  0  0  0  0  0  0  0  0  0
   11.5446   20.1253   -0.8808 H   0  0  0  0  0  0  0  0  0  0  0  0
   13.8972   22.0557   -2.9850 H   0  0  0  0  0  0  0  0  0  0  0  0
   16.6979   22.4105   -6.2556 H   0  0  0  0  0  0  0  0  0  0  0  0
   15.3725   24.2774   -7.2077 H   0  0  0  0  0  0  0  0  0  0  0  0
   13.2782   25.0132   -6.0472 H   0  0  0  0  0  0  0  0  0  0  0  0
   10.8429   25.7702   -3.3452 H   0  0  0  0  0  0  0  0  0  0  0  0
    8.8020   25.2818   -1.7579 H   0  0  0  0  0  0  0  0  0  0  0  0
    8.1864   21.9995   -1.4579 H   0  0  0  0  0  0  0  0  0  0  0  0
   12.5300   19.8965   -3.5462 H   0  0  0  0  0  0  0  0  0  0  0  0
  1 18  1  0  0  0  0
  1 14  1  0  0  0  0
  1  2  1  0  0  0  0
  1 22  1  6  0  0  0
  2 15  1  0  0  0  0
  2  3  1  0  0  0  0
  2 23  1  6  0  0  0
  3 16  1  0  0  0  0
  3  4  1  0  0  0  0
  3 24  1  1  0  0  0
  4 17  1  0  0  0  0
  4  5  1  0  0  0  0
  4 25  1  1  0  0  0
  5 18  1  0  0  0  0
  5  6  1  0  0  0  0
  5 26  1  1  0  0  0
  6 19  1  0  0  0  0
  6 27  1  0  0  0  0
  6 28  1  0  0  0  0
  7 12  2  0  0  0  0
  7  8  1  0  0  0  0
  8  9  2  0  0  0  0
  8 29  1  0  0  0  0
  9 13  1  0  0  0  0
  9 10  1  0  0  0  0
 10 11  2  0  0  0  0
 10 30  1  0  0  0  0
 11 12  1  0  0  0  0
 11 31  1  0  0  0  0
 12 32  1  0  0  0  0
 13 21  2  0  0  0  0
 13 20  2  0  0  0  0
 14  7  1  0  0  0  0
 15 33  1  0  0  0  0
 16 34  1  0  0  0  0
 17 35  1  0  0  0  0
 19 36  1  0  0  0  0
M  END
