1lxf_ligand
 OpenBabel08222323343D

 62 64  0  0  1  0  0  0  0  0999 V2000
   90.7040    3.1330   -0.0780 C   0  0  0  0  0  0  0  0  0  0  0  0
   90.1600    2.1200   -1.0890 C   0  0  2  0  0  0  0  0  0  0  0  0
   89.0790    1.1960   -0.4220 C   0  0  0  0  0  0  0  0  0  0  0  0
   92.1100    2.8750    0.1660 O   0  0  0  0  0  0  0  0  0  0  0  0
   91.2680    1.2990   -1.6540 N   0  3  0  0  0  0  0  0  0  0  0  0
   87.7150    1.7930   -0.5160 N   0  0  0  0  0  0  0  0  0  0  0  0
   92.9480    4.0560    0.2400 C   0  0  0  0  0  0  0  0  0  0  0  0
   93.8870    3.9380    1.4430 C   0  0  0  0  0  0  0  0  0  0  0  0
   95.2620    4.4970    1.0720 C   0  0  0  0  0  0  0  0  0  0  0  0
   94.0250    2.4670    1.8440 C   0  0  0  0  0  0  0  0  0  0  0  0
   92.3640    1.9960   -2.3810 C   0  0  0  0  0  0  0  0  0  0  0  0
   93.6490    1.2360   -2.0080 C   0  0  0  0  0  0  0  0  0  0  0  0
   93.1440   -0.1190   -1.4920 C   0  0  0  0  0  0  0  0  0  0  0  0
   91.8310    0.2180   -0.8120 C   0  0  0  0  0  0  0  0  0  0  0  0
   86.8460    1.7290    0.6920 C   0  0  0  0  0  0  0  0  0  0  0  0
   87.1300    2.7650    1.8090 C   0  0  0  0  0  0  0  0  0  0  0  0
   87.4250    2.3320    3.1080 C   0  0  0  0  0  0  0  0  0  0  0  0
   87.6820    3.2680    4.1170 C   0  0  0  0  0  0  0  0  0  0  0  0
   87.6440    4.6380    3.8270 C   0  0  0  0  0  0  0  0  0  0  0  0
   87.3490    5.0720    2.5280 C   0  0  0  0  0  0  0  0  0  0  0  0
   87.0910    4.1350    1.5190 C   0  0  0  0  0  0  0  0  0  0  0  0
   87.0290    1.6650   -1.8220 C   0  0  0  0  0  0  0  0  0  0  0  0
   87.3110    2.5710   -2.8540 C   0  0  0  0  0  0  0  0  0  0  0  0
   86.6610    2.4500   -4.0890 C   0  0  0  0  0  0  0  0  0  0  0  0
   85.7310    1.4230   -4.2920 C   0  0  0  0  0  0  0  0  0  0  0  0
   85.4490    0.5170   -3.2620 C   0  0  0  0  0  0  0  0  0  0  0  0
   86.0990    0.6370   -2.0270 C   0  0  0  0  0  0  0  0  0  0  0  0
   90.1467    3.0424    0.8660 H   0  0  0  0  0  0  0  0  0  0  0  0
   90.5834    4.1502   -0.4789 H   0  0  0  0  0  0  0  0  0  0  0  0
   89.6834    2.6734   -1.9116 H   0  0  0  0  0  0  0  0  0  0  0  0
   89.3348    1.0548    0.6385 H   0  0  0  0  0  0  0  0  0  0  0  0
   89.0783    0.2214   -0.9320 H   0  0  0  0  0  0  0  0  0  0  0  0
   90.7926    0.7953   -2.3864 H   0  0  0  0  0  0  0  0  0  0  0  0
   92.3153    4.9485    0.3544 H   0  0  0  0  0  0  0  0  0  0  0  0
   93.5417    4.1432   -0.6819 H   0  0  0  0  0  0  0  0  0  0  0  0
   93.4744    4.5101    2.2870 H   0  0  0  0  0  0  0  0  0  0  0  0
   95.9374    4.4125    1.9361 H   0  0  0  0  0  0  0  0  0  0  0  0
   95.1629    5.5546    0.7861 H   0  0  0  0  0  0  0  0  0  0  0  0
   95.6743    3.9258    0.2272 H   0  0  0  0  0  0  0  0  0  0  0  0
   93.0363    2.0654    2.1107 H   0  0  0  0  0  0  0  0  0  0  0  0
   94.6997    2.3844    2.7088 H   0  0  0  0  0  0  0  0  0  0  0  0
   94.4381    1.8942    1.0006 H   0  0  0  0  0  0  0  0  0  0  0  0
   92.4313    3.0462   -2.0609 H   0  0  0  0  0  0  0  0  0  0  0  0
   92.1934    1.9539   -3.4669 H   0  0  0  0  0  0  0  0  0  0  0  0
   94.2053    1.7701   -1.2236 H   0  0  0  0  0  0  0  0  0  0  0  0
   94.2940    1.1029   -2.8890 H   0  0  0  0  0  0  0  0  0  0  0  0
   93.8555   -0.5551   -0.7754 H   0  0  0  0  0  0  0  0  0  0  0  0
   92.9853   -0.8206   -2.3242 H   0  0  0  0  0  0  0  0  0  0  0  0
   91.1622   -0.6552   -0.7954 H   0  0  0  0  0  0  0  0  0  0  0  0
   92.0006    0.5696    0.2164 H   0  0  0  0  0  0  0  0  0  0  0  0
   86.9583    0.7266    1.1307 H   0  0  0  0  0  0  0  0  0  0  0  0
   85.8061    1.8707    0.3625 H   0  0  0  0  0  0  0  0  0  0  0  0
   87.4543    1.2718    3.3322 H   0  0  0  0  0  0  0  0  0  0  0  0
   87.9103    2.9327    5.1222 H   0  0  0  0  0  0  0  0  0  0  0  0
   87.8430    5.3628    4.6082 H   0  0  0  0  0  0  0  0  0  0  0  0
   87.3204    6.1322    2.3038 H   0  0  0  0  0  0  0  0  0  0  0  0
   86.8612    4.4700    0.5140 H   0  0  0  0  0  0  0  0  0  0  0  0
   88.0319    3.3650   -2.6963 H   0  0  0  0  0  0  0  0  0  0  0  0
   86.8778    3.1509   -4.8870 H   0  0  0  0  0  0  0  0  0  0  0  0
   85.2285    1.3291   -5.2479 H   0  0  0  0  0  0  0  0  0  0  0  0
   84.7280   -0.2768   -3.4204 H   0  0  0  0  0  0  0  0  0  0  0  0
   85.8827   -0.0652   -1.2300 H   0  0  0  0  0  0  0  0  0  0  0  0
  1  2  1  0  0  0  0
  1  4  1  0  0  0  0
  1 28  1  0  0  0  0
  1 29  1  0  0  0  0
  2  3  1  0  0  0  0
  2  5  1  0  0  0  0
  2 30  1  6  0  0  0
  3  6  1  0  0  0  0
  3 31  1  0  0  0  0
  3 32  1  0  0  0  0
  4  7  1  0  0  0  0
  5 11  1  0  0  0  0
  5 14  1  0  0  0  0
  5 33  1  0  0  0  0
  6 15  1  0  0  0  0
  6 22  1  0  0  0  0
  7  8  1  0  0  0  0
  7 34  1  0  0  0  0
  7 35  1  0  0  0  0
  8  9  1  0  0  0  0
  8 10  1  0  0  0  0
  8 36  1  0  0  0  0
  9 37  1  0  0  0  0
  9 38  1  0  0  0  0
  9 39  1  0  0  0  0
 10 40  1  0  0  0  0
 10 41  1  0  0  0  0
 10 42  1  0  0  0  0
 11 12  1  0  0  0  0
 11 43  1  0  0  0  0
 11 44  1  0  0  0  0
 12 13  1  0  0  0  0
 12 45  1  0  0  0  0
 12 46  1  0  0  0  0
 13 14  1  0  0  0  0
 13 47  1  0  0  0  0
 13 48  1  0  0  0  0
 14 49  1  0  0  0  0
 14 50  1  0  0  0  0
 15 16  1  0  0  0  0
 15 51  1  0  0  0  0
 15 52  1  0  0  0  0
 16 17  2  0  0  0  0
 16 21  1  0  0  0  0
 17 18  1  0  0  0  0
 17 53  1  0  0  0  0
 18 19  2  0  0  0  0
 18 54  1  0  0  0  0
 19 20  1  0  0  0  0
 19 55  1  0  0  0  0
 20 21  2  0  0  0  0
 20 56  1  0  0  0  0
 21 57  1  0  0  0  0
 22 23  2  0  0  0  0
 22 27  1  0  0  0  0
 23 24  1  0  0  0  0
 23 58  1  0  0  0  0
 24 25  2  0  0  0  0
 24 59  1  0  0  0  0
 25 26  1  0  0  0  0
 25 60  1  0  0  0  0
 26 27  2  0  0  0  0
 26 61  1  0  0  0  0
 27 62  1  0  0  0  0
M  CHG  1   5   1
M  END
