1lxh_ligand
 OpenBabel08222323343D

310321  0  0  1  0  0  0  0  0999 V2000
  -28.6760   -8.0080   -0.3030 N   0  3  0  0  0  0  0  0  0  0  0  0
  -28.4520   -6.5020   -0.1690 C   0  0  2  0  0  0  0  0  0  0  0  0
  -27.8570   -6.0340    1.1570 C   0  0  0  0  0  0  0  0  0  0  0  0
  -27.5570   -6.8150    2.0420 O   0  0  0  0  0  0  0  0  0  0  0  0
  -29.7720   -5.7440   -0.3100 C   0  0  0  0  0  0  0  0  0  0  0  0
  -30.8730   -6.4060    0.4630 C   0  0  0  0  0  0  0  0  0  0  0  0
  -30.9190   -6.3900    1.8580 C   0  0  0  0  0  0  0  0  0  0  0  0
  -31.8350   -7.1070   -0.2130 C   0  0  0  0  0  0  0  0  0  0  0  0
  -31.9200   -7.0610    2.5390 C   0  0  0  0  0  0  0  0  0  0  0  0
  -32.8330   -7.7690    0.4600 C   0  0  0  0  0  0  0  0  0  0  0  0
  -32.8680   -7.7460    1.8350 C   0  0  0  0  0  0  0  0  0  0  0  0
  -33.8600   -8.4060    2.5110 O   0  0  0  0  0  0  0  0  0  0  0  0
  -29.0693   -8.2099   -1.2089 H   0  0  0  0  0  0  0  0  0  0  0  0
  -29.3109   -8.3185    0.4157 H   0  0  0  0  0  0  0  0  0  0  0  0
  -27.7956   -8.4888   -0.2042 H   0  0  0  0  0  0  0  0  0  0  0  0
  -27.7708   -6.2003   -0.9783 H   0  0  0  0  0  0  0  0  0  0  0  0
  -30.0525   -5.7100   -1.3731 H   0  0  0  0  0  0  0  0  0  0  0  0
  -29.6374   -4.7193    0.0667 H   0  0  0  0  0  0  0  0  0  0  0  0
  -30.1632   -5.8467    2.4136 H   0  0  0  0  0  0  0  0  0  0  0  0
  -31.8089   -7.1403   -1.2962 H   0  0  0  0  0  0  0  0  0  0  0  0
  -31.9509   -7.0427    3.6224 H   0  0  0  0  0  0  0  0  0  0  0  0
  -33.5930   -8.3096   -0.0925 H   0  0  0  0  0  0  0  0  0  0  0  0
  -33.7367   -8.2890    3.4457 H   0  0  0  0  0  0  0  0  0  0  0  0
  -27.6970   -4.6960    1.2420 N   0  0  0  0  0  0  0  0  0  0  0  0
  -27.1120   -4.0690    2.4170 C   0  0  2  0  0  0  0  0  0  0  0  0
  -25.6200   -4.5520    2.3530 C   0  0  0  0  0  0  0  0  0  0  0  0
  -24.9870   -4.1510    1.3680 O   0  0  0  0  0  0  0  0  0  0  0  0
  -28.0880   -4.2910    3.6680 C   0  0  0  0  0  0  0  0  0  0  0  0
  -27.6260   -5.0180    4.9530 C   0  0  0  0  0  0  0  0  0  0  0  0
  -28.6150   -6.1370    5.2360 C   0  0  0  0  0  0  0  0  0  0  0  0
  -28.1530   -7.2870    6.0600 N   0  0  0  0  0  0  0  0  0  0  0  0
  -29.0410   -8.0890    6.6510 C   0  0  0  0  0  3  0  0  0  0  0  0
  -30.2530   -7.6170    6.8490 N   0  0  0  0  0  0  0  0  0  0  0  0
  -28.7280   -9.2910    7.1450 N   0  0  0  0  0  0  0  0  0  0  0  0
  -27.9882   -4.1211    0.4773 H   0  0  0  0  0  0  0  0  0  0  0  0
  -27.0845   -2.9791    2.2711 H   0  0  0  0  0  0  0  0  0  0  0  0
  -28.9509   -4.8575    3.2879 H   0  0  0  0  0  0  0  0  0  0  0  0
  -28.4167   -3.2896    3.9828 H   0  0  0  0  0  0  0  0  0  0  0  0
  -27.6086   -4.3121    5.7964 H   0  0  0  0  0  0  0  0  0  0  0  0
  -26.6198   -5.4369    4.8046 H   0  0  0  0  0  0  0  0  0  0  0  0
  -28.9395   -6.5399    4.2652 H   0  0  0  0  0  0  0  0  0  0  0  0
  -29.4762   -5.6891    5.7535 H   0  0  0  0  0  0  0  0  0  0  0  0
  -27.1449   -7.4644    6.1745 H   0  0  0  0  0  0  0  0  0  0  0  0
  -30.9670   -8.2050    7.3021 H   0  0  0  0  0  0  0  0  0  0  0  0
  -30.4878   -6.6595    6.5509 H   0  0  0  0  0  0  0  0  0  0  0  0
  -27.7843   -9.6774    7.0004 H   0  0  0  0  0  0  0  0  0  0  0  0
  -29.4306   -9.8308    7.6703 H   0  0  0  0  0  0  0  0  0  0  0  0
  -25.0260   -5.4150    3.2190 N   0  0  0  0  0  0  0  0  0  0  0  0
  -23.6040   -5.8660    3.0180 C   0  0  0  0  0  0  0  0  0  0  0  0
  -22.9130   -5.4440    1.7390 C   0  0  0  0  0  0  0  0  0  0  0  0
  -22.6900   -6.2470    0.8250 O   0  0  0  0  0  0  0  0  0  0  0  0
  -25.5430   -5.7565    4.0039 H   0  0  0  0  0  0  0  0  0  0  0  0
  -23.5993   -6.9656    3.0481 H   0  0  0  0  0  0  0  0  0  0  0  0
  -23.0117   -5.4737    3.8578 H   0  0  0  0  0  0  0  0  0  0  0  0
  -22.4900   -4.2020    1.7300 N   0  0  0  0  0  0  0  0  0  0  0  0
  -21.7230   -3.6660    0.6410 C   0  0  2  0  0  0  0  0  0  0  0  0
  -20.3180   -4.2530    0.8500 C   0  0  0  0  0  0  0  0  0  0  0  0
  -20.1850   -5.4660    1.0750 O   0  0  0  0  0  0  0  0  0  0  0  0
  -21.7400   -2.1220    0.7460 C   0  0  0  0  0  0  0  0  0  0  0  0
  -22.9780   -1.4840    1.3950 C   0  0  0  0  0  0  0  0  0  0  0  0
  -23.0600   -0.8640    2.6250 C   0  0  0  0  0  0  0  0  0  0  0  0
  -24.2870   -1.3470    0.8160 C   0  0  0  0  0  0  0  0  0  0  0  0
  -24.3300   -0.3600    2.8230 N   0  0  0  0  0  0  0  0  0  0  0  0
  -25.0940   -0.6410    1.7310 C   0  0  0  0  0  0  0  0  0  0  0  0
  -24.8500   -1.7530   -0.3890 C   0  0  0  0  0  0  0  0  0  0  0  0
  -26.4190   -0.3310    1.4800 C   0  0  0  0  0  0  0  0  0  0  0  0
  -26.1730   -1.4460   -0.6390 C   0  0  0  0  0  0  0  0  0  0  0  0
  -26.9420   -0.7290    0.2870 C   0  0  0  0  0  0  0  0  0  0  0  0
  -22.7087   -3.6102    2.5059 H   0  0  0  0  0  0  0  0  0  0  0  0
  -22.1322   -3.9774   -0.3314 H   0  0  0  0  0  0  0  0  0  0  0  0
  -21.6539   -1.7184   -0.2736 H   0  0  0  0  0  0  0  0  0  0  0  0
  -20.8622   -1.8191    1.3356 H   0  0  0  0  0  0  0  0  0  0  0  0
  -22.2404   -0.7837    3.3375 H   0  0  0  0  0  0  0  0  0  0  0  0
  -24.6484    0.1468    3.6613 H   0  0  0  0  0  0  0  0  0  0  0  0
  -24.2621   -2.2995   -1.1175 H   0  0  0  0  0  0  0  0  0  0  0  0
  -27.0179    0.2080    2.2052 H   0  0  0  0  0  0  0  0  0  0  0  0
  -26.6256   -1.7662   -1.5705 H   0  0  0  0  0  0  0  0  0  0  0  0
  -27.9716   -0.4867    0.0498 H   0  0  0  0  0  0  0  0  0  0  0  0
  -19.2910   -3.4310    0.9020 N   0  0  0  0  0  0  0  0  0  0  0  0
  -17.9920   -3.9550    1.2510 C   0  0  2  0  0  0  0  0  0  0  0  0
  -17.2430   -3.0700    2.2110 C   0  0  0  0  0  0  0  0  0  0  0  0
  -17.3930   -1.8540    2.2630 O   0  0  0  0  0  0  0  0  0  0  0  0
  -17.0110   -4.2860    0.1100 C   0  0  0  0  0  0  0  0  0  0  0  0
  -17.0180   -3.3980   -1.1030 C   0  0  0  0  0  0  0  0  0  0  0  0
  -17.3840   -1.9640   -0.8080 C   0  0  0  0  0  0  0  0  0  0  0  0
  -16.2830   -1.0070   -1.2340 C   0  0  0  0  0  0  0  0  0  0  0  0
  -16.7070    0.4070   -1.0560 N   0  3  0  0  0  0  0  0  0  0  0  0
  -19.4090   -2.4582    0.7027 H   0  0  0  0  0  0  0  0  0  0  0  0
  -18.1955   -4.9039    1.7688 H   0  0  0  0  0  0  0  0  0  0  0  0
  -17.2369   -5.3073   -0.2304 H   0  0  0  0  0  0  0  0  0  0  0  0
  -15.9956   -4.2562    0.5319 H   0  0  0  0  0  0  0  0  0  0  0  0
  -17.7460   -3.8003   -1.8228 H   0  0  0  0  0  0  0  0  0  0  0  0
  -16.0131   -3.4141   -1.5500 H   0  0  0  0  0  0  0  0  0  0  0  0
  -17.5540   -1.8540    0.2732 H   0  0  0  0  0  0  0  0  0  0  0  0
  -18.3063   -1.7118   -1.3517 H   0  0  0  0  0  0  0  0  0  0  0  0
  -16.0459   -1.1806   -2.2940 H   0  0  0  0  0  0  0  0  0  0  0  0
  -15.3878   -1.1936   -0.6226 H   0  0  0  0  0  0  0  0  0  0  0  0
  -15.9611    1.0203   -1.3449 H   0  0  0  0  0  0  0  0  0  0  0  0
  -16.9221    0.5737   -0.0854 H   0  0  0  0  0  0  0  0  0  0  0  0
  -17.5252    0.5856   -1.6170 H   0  0  0  0  0  0  0  0  0  0  0  0
  -16.3500   -3.7950    2.8370 N   0  0  0  0  0  0  0  0  0  0  0  0
  -15.3260   -3.3310    3.7550 C   0  0  2  0  0  0  0  0  0  0  0  0
  -14.0670   -3.7670    2.9870 C   0  0  0  0  0  0  0  0  0  0  0  0
  -13.1600   -4.4330    3.4660 O   0  0  0  0  0  0  0  0  0  0  0  0
  -15.5450   -4.0010    5.1190 C   0  0  0  0  0  0  0  0  0  0  0  0
  -16.2610   -5.2690    4.9210 C   0  0  0  0  0  0  0  0  0  0  0  0
  -15.7820   -6.1860    4.0390 N   0  0  0  0  0  0  0  0  0  0  0  0
  -17.4860   -5.6700    5.2940 C   0  0  0  0  0  0  0  0  0  0  0  0
  -16.6860   -7.1150    3.8560 C   0  0  0  0  0  0  0  0  0  0  0  0
  -17.7440   -6.8240    4.6100 N   0  0  0  0  0  0  0  0  0  0  0  0
  -16.3766   -4.7794    2.6629 H   0  0  0  0  0  0  0  0  0  0  0  0
  -15.3452   -2.2388    3.8840 H   0  0  0  0  0  0  0  0  0  0  0  0
  -16.1407   -3.3382    5.7639 H   0  0  0  0  0  0  0  0  0  0  0  0
  -14.5723   -4.1972    5.5937 H   0  0  0  0  0  0  0  0  0  0  0  0
  -18.1457   -5.1726    6.0035 H   0  0  0  0  0  0  0  0  0  0  0  0
  -16.5892   -7.9783    3.1993 H   0  0  0  0  0  0  0  0  0  0  0  0
  -18.6115   -7.3763    4.6679 H   0  0  0  0  0  0  0  0  0  0  0  0
  -14.9725   -2.9155    1.3865 H   0  0  0  0  0  0  0  0  0  0  0  0
  -14.1690   -3.4400    1.6680 N   0  0  0  0  0  0  0  0  0  0  0  0
  -13.2130   -3.7880    0.6430 C   0  0  2  0  0  0  0  0  0  0  0  0
  -12.9230   -2.6300   -0.3040 C   0  0  0  0  0  0  0  0  0  0  0  0
  -13.7720   -2.1760   -1.0620 O   0  0  0  0  0  0  0  0  0  0  0  0
  -13.7600   -4.9670   -0.1610 C   0  0  0  0  0  0  0  0  0  0  0  0
  -13.0690   -6.2200    0.1550 C   0  0  0  0  0  0  0  0  0  0  0  0
  -12.1250   -6.3780    1.1120 C   0  0  0  0  0  0  0  0  0  0  0  0
  -13.2440   -7.4890   -0.4740 C   0  0  0  0  0  0  0  0  0  0  0  0
  -11.6390   -7.6440    1.0760 N   0  0  0  0  0  0  0  0  0  0  0  0
  -12.3120   -8.3510    0.1220 C   0  0  0  0  0  0  0  0  0  0  0  0
  -14.0810   -7.9780   -1.4860 C   0  0  0  0  0  0  0  0  0  0  0  0
  -12.1720   -9.6670   -0.2650 C   0  0  0  0  0  0  0  0  0  0  0  0
  -13.9520   -9.3000   -1.8630 C   0  0  0  0  0  0  0  0  0  0  0  0
  -13.0000  -10.1300   -1.2520 C   0  0  0  0  0  0  0  0  0  0  0  0
  -12.2719   -4.0856    1.1286 H   0  0  0  0  0  0  0  0  0  0  0  0
  -13.6344   -4.7537   -1.2328 H   0  0  0  0  0  0  0  0  0  0  0  0
  -14.8297   -5.0852    0.0665 H   0  0  0  0  0  0  0  0  0  0  0  0
  -11.8035   -5.6040    1.8074 H   0  0  0  0  0  0  0  0  0  0  0  0
  -10.8841   -8.0122    1.6722 H   0  0  0  0  0  0  0  0  0  0  0  0
  -14.8120   -7.3340   -1.9613 H   0  0  0  0  0  0  0  0  0  0  0  0
  -11.4326  -10.3120    0.1959 H   0  0  0  0  0  0  0  0  0  0  0  0
  -14.5933   -9.7010   -2.6395 H   0  0  0  0  0  0  0  0  0  0  0  0
  -12.9181  -11.1633   -1.5693 H   0  0  0  0  0  0  0  0  0  0  0  0
  -11.0455   -2.6573    0.3511 H   0  0  0  0  0  0  0  0  0  0  0  0
  -11.6830   -2.2330   -0.2920 N   0  0  0  0  0  0  0  0  0  0  0  0
  -11.2010   -1.2060   -1.1720 C   0  0  2  0  0  0  0  0  0  0  0  0
   -9.7190   -1.4040   -1.3640 C   0  0  0  0  0  0  0  0  0  0  0  0
   -9.2990   -1.7930   -2.4470 O   0  0  0  0  0  0  0  0  0  0  0  0
  -11.4510    0.2580   -0.7170 C   0  0  0  0  0  0  0  0  0  0  0  0
  -10.9180    1.1730   -1.8020 C   0  0  0  0  0  0  0  0  0  0  0  0
  -12.9260    0.5650   -0.4800 C   0  0  0  0  0  0  0  0  0  0  0  0
  -11.7064   -1.3389   -2.1399 H   0  0  0  0  0  0  0  0  0  0  0  0
  -10.9021    0.4374    0.2192 H   0  0  0  0  0  0  0  0  0  0  0  0
  -11.0800    2.2211   -1.5100 H   0  0  0  0  0  0  0  0  0  0  0  0
  -11.4458    0.9694   -2.7454 H   0  0  0  0  0  0  0  0  0  0  0  0
   -9.8415    0.9924   -1.9378 H   0  0  0  0  0  0  0  0  0  0  0  0
  -13.3165   -0.0971    0.3069 H   0  0  0  0  0  0  0  0  0  0  0  0
  -13.4890    0.4002   -1.4105 H   0  0  0  0  0  0  0  0  0  0  0  0
  -13.0364    1.6132   -0.1653 H   0  0  0  0  0  0  0  0  0  0  0  0
   -9.4190   -0.8394    0.5479 H   0  0  0  0  0  0  0  0  0  0  0  0
   -8.9610   -1.1420   -0.2880 N   0  0  0  0  0  0  0  0  0  0  0  0
   -7.5040   -1.2730   -0.2660 C   0  0  2  0  0  0  0  0  0  0  0  0
   -6.8490   -0.8840   -1.5960 C   0  0  0  0  0  0  0  0  0  0  0  0
   -6.9920   -1.5820   -2.5980 O   0  0  0  0  0  0  0  0  0  0  0  0
   -7.0810   -2.6820    0.1320 C   0  0  0  0  0  0  0  0  0  0  0  0
   -5.5810   -2.8630    0.0680 C   0  0  0  0  0  0  0  0  0  0  0  0
   -4.7320   -1.8400    0.4620 C   0  0  0  0  0  0  0  0  0  0  0  0
   -5.0080   -4.0340   -0.3950 C   0  0  0  0  0  0  0  0  0  0  0  0
   -3.3560   -1.9770    0.4030 C   0  0  0  0  0  0  0  0  0  0  0  0
   -3.6290   -4.1800   -0.4570 C   0  0  0  0  0  0  0  0  0  0  0  0
   -2.8120   -3.1510   -0.0570 C   0  0  0  0  0  0  0  0  0  0  0  0
   -1.4550   -3.3010   -0.1160 O   0  0  0  0  0  0  0  0  0  0  0  0
   -7.1273   -0.5806    0.5013 H   0  0  0  0  0  0  0  0  0  0  0  0
   -7.5549   -3.4015   -0.5519 H   0  0  0  0  0  0  0  0  0  0  0  0
   -7.4185   -2.8768    1.1606 H   0  0  0  0  0  0  0  0  0  0  0  0
   -5.1561   -0.9107    0.8249 H   0  0  0  0  0  0  0  0  0  0  0  0
   -5.6459   -4.8502   -0.7143 H   0  0  0  0  0  0  0  0  0  0  0  0
   -2.7124   -1.1635    0.7176 H   0  0  0  0  0  0  0  0  0  0  0  0
   -3.1973   -5.1054   -0.8208 H   0  0  0  0  0  0  0  0  0  0  0  0
   -1.0360   -2.5064    0.1930 H   0  0  0  0  0  0  0  0  0  0  0  0
   -6.0570    0.7281   -0.6935 H   0  0  0  0  0  0  0  0  0  0  0  0
   -6.1240    0.2370   -1.5620 N   0  0  0  0  0  0  0  0  0  0  0  0
   -5.4190    0.7910   -2.7260 C   0  0  2  0  0  0  0  0  0  0  0  0
   -6.1200    2.0710   -3.2190 C   0  0  0  0  0  0  0  0  0  0  0  0
   -5.7710    2.6270   -4.2600 O   0  0  0  0  0  0  0  0  0  0  0  0
   -5.3240   -0.2500   -3.8340 C   0  0  0  0  0  0  0  0  0  0  0  0
   -4.3520    0.0550   -4.9350 C   0  0  0  0  0  0  0  0  0  0  0  0
   -3.1070    0.6360   -4.7110 C   0  0  0  0  0  0  0  0  0  0  0  0
   -4.6860   -0.2820   -6.2220 C   0  0  0  0  0  0  0  0  0  0  0  0
   -2.2240    0.8610   -5.7590 C   0  0  0  0  0  0  0  0  0  0  0  0
   -3.8190   -0.0560   -7.2720 C   0  0  0  0  0  0  0  0  0  0  0  0
   -2.5840    0.5160   -7.0360 C   0  0  0  0  0  0  0  0  0  0  0  0
   -1.6940    0.7190   -8.0650 O   0  0  0  0  0  0  0  0  0  0  0  0
   -4.3973    1.0571   -2.4173 H   0  0  0  0  0  0  0  0  0  0  0  0
   -6.3219   -0.3554   -4.2845 H   0  0  0  0  0  0  0  0  0  0  0  0
   -5.0260   -1.2045   -3.3756 H   0  0  0  0  0  0  0  0  0  0  0  0
   -2.8225    0.9170   -3.7035 H   0  0  0  0  0  0  0  0  0  0  0  0
   -5.6509   -0.7352   -6.4186 H   0  0  0  0  0  0  0  0  0  0  0  0
   -1.2547    1.3073   -5.5682 H   0  0  0  0  0  0  0  0  0  0  0  0
   -4.1071   -0.3272   -8.2812 H   0  0  0  0  0  0  0  0  0  0  0  0
   -2.0860    1.2930   -8.7126 H   0  0  0  0  0  0  0  0  0  0  0  0
   -7.3003    2.0111   -1.5889 H   0  0  0  0  0  0  0  0  0  0  0  0
   -7.0870    2.5390   -2.4110 N   0  0  0  0  0  0  0  0  0  0  0  0
   -7.8550    3.7730   -2.6490 C   0  0  2  0  0  0  0  0  0  0  0  0
   -8.9140    3.6730   -3.7530 C   0  0  0  0  0  0  0  0  0  0  0  0
   -8.7610    2.9770   -4.7570 O   0  0  0  0  0  0  0  0  0  0  0  0
   -6.9380    4.9870   -2.8820 C   0  0  2  0  0  0  0  0  0  0  0  0
   -7.0050    5.4470   -4.2180 O   0  0  0  0  0  0  0  0  0  0  0  0
   -5.4830    4.7330   -2.5600 C   0  0  0  0  0  0  0  0  0  0  0  0
   -8.4051    3.9681   -1.7167 H   0  0  0  0  0  0  0  0  0  0  0  0
   -7.2941    5.7911   -2.2213 H   0  0  0  0  0  0  0  0  0  0  0  0
   -6.6471    4.7851   -4.7980 H   0  0  0  0  0  0  0  0  0  0  0  0
   -4.9001    5.6457   -2.7528 H   0  0  0  0  0  0  0  0  0  0  0  0
   -5.1048    3.9160   -3.1920 H   0  0  0  0  0  0  0  0  0  0  0  0
   -5.3854    4.4526   -1.5009 H   0  0  0  0  0  0  0  0  0  0  0  0
  -10.0150    4.9422   -2.6685 H   0  0  0  0  0  0  0  0  0  0  0  0
   -9.9950    4.4150   -3.5180 N   0  0  0  0  0  0  0  0  0  0  0  0
  -11.1700    4.5220   -4.4140 C   0  0  2  0  0  0  0  0  0  0  0  0
  -12.2760    5.2210   -3.6790 C   0  0  0  0  0  0  0  0  0  0  0  0
  -13.0320    6.0150   -4.2330 O   0  0  0  0  0  0  0  0  0  0  0  0
  -11.7570    3.1660   -4.8380 C   0  0  0  0  0  0  0  0  0  0  0  0
  -12.9430    2.4260   -3.6160 S   0  0  0  0  0  0  0  0  0  0  0  0
  -10.8818    5.0923   -5.3094 H   0  0  0  0  0  0  0  0  0  0  0  0
  -10.9251    2.4605   -4.9801 H   0  0  0  0  0  0  0  0  0  0  0  0
  -12.2876    3.3041   -5.7916 H   0  0  0  0  0  0  0  0  0  0  0  0
  -11.7220    4.1698   -2.0731 H   0  0  0  0  0  0  0  0  0  0  0  0
  -12.3880    4.8270   -2.4260 N   0  0  0  0  0  0  0  0  0  0  0  0
  -13.4130    5.2920   -1.5480 C   0  0  2  0  0  0  0  0  0  0  0  0
  -12.8730    5.2330   -0.1040 C   0  0  0  0  0  0  0  0  0  0  0  0
  -11.6550    5.3470    0.0660 O   0  0  0  0  0  0  0  0  0  0  0  0
  -14.6320    4.4100   -1.8290 C   0  0  0  0  0  0  0  0  0  0  0  0
  -14.6050    3.6400   -3.5180 S   0  0  0  0  0  0  0  0  0  0  0  0
  -13.6694    6.3363   -1.7796 H   0  0  0  0  0  0  0  0  0  0  0  0
  -15.5380    5.0276   -1.7410 H   0  0  0  0  0  0  0  0  0  0  0  0
  -14.6620    3.6060   -1.0789 H   0  0  0  0  0  0  0  0  0  0  0  0
  -12.6096    6.0283    2.4765 H   0  0  0  0  0  0  0  0  0  0  0  0
  -13.7040    5.0980    0.9590 N   0  0  0  0  0  0  0  0  0  0  0  0
  -13.1700    5.0930    2.3310 C   0  0  2  0  0  0  0  0  0  0  0  0
  -12.1770    3.9390    2.6600 C   0  0  0  0  0  0  0  0  0  0  0  0
  -11.4280    3.4850    1.7890 O   0  0  0  0  0  0  0  0  0  0  0  0
  -14.4030    5.1300    3.2410 C   0  0  0  0  0  0  0  0  0  0  0  0
  -15.6120    5.0470    2.3610 C   0  0  0  0  0  0  0  0  0  0  0  0
  -15.1690    4.9980    0.9190 C   0  0  0  0  0  0  0  0  0  0  0  0
  -14.4191    6.0686    3.8143 H   0  0  0  0  0  0  0  0  0  0  0  0
  -14.3839    4.2767    3.9349 H   0  0  0  0  0  0  0  0  0  0  0  0
  -16.1820    4.1378    2.6026 H   0  0  0  0  0  0  0  0  0  0  0  0
  -16.2464    5.9311    2.5219 H   0  0  0  0  0  0  0  0  0  0  0  0
  -15.4778    4.0505    0.4533 H   0  0  0  0  0  0  0  0  0  0  0  0
  -15.5973    5.8402    0.3557 H   0  0  0  0  0  0  0  0  0  0  0  0
  -12.7237    3.9517    4.6030 H   0  0  0  0  0  0  0  0  0  0  0  0
  -12.0880    3.5580    3.9390 N   0  0  0  0  0  0  0  0  0  0  0  0
  -11.0870    2.5780    4.4090 C   0  0  2  0  0  0  0  0  0  0  0  0
  -11.4840    1.0730    4.3780 C   0  0  0  0  0  0  0  0  0  0  0  0
  -12.6450    0.6950    4.2280 O   0  0  0  0  0  0  0  0  0  0  0  0
  -10.6910    2.9330    5.8620 C   0  0  0  0  0  0  0  0  0  0  0  0
  -10.8640    4.3810    6.2720 C   0  0  0  0  0  0  0  0  0  0  0  0
  -11.9750    4.9330    6.1070 O   0  5  0  0  0  0  0  0  0  0  0  0
   -9.8880    4.9500    6.7980 O   0  0  0  0  0  0  0  0  0  0  0  0
  -10.2035    2.6907    3.7635 H   0  0  0  0  0  0  0  0  0  0  0  0
   -9.6304    2.6724    5.9931 H   0  0  0  0  0  0  0  0  0  0  0  0
  -11.3057    2.3185    6.5362 H   0  0  0  0  0  0  0  0  0  0  0  0
   -9.5365    0.6447    4.7111 H   0  0  0  0  0  0  0  0  0  0  0  0
  -10.4410    0.2330    4.6000 N   0  0  0  0  0  0  0  0  0  0  0  0
  -10.5310   -1.2370    4.6910 C   0  0  2  0  0  0  0  0  0  0  0  0
  -10.0010   -1.7630    6.0310 C   0  0  0  0  0  0  0  0  0  0  0  0
   -9.5150   -2.8980    6.1050 O   0  0  0  0  0  0  0  0  0  0  0  0
   -9.7060   -1.8950    3.5940 C   0  0  2  0  0  0  0  0  0  0  0  0
   -8.4980   -1.1990    3.3450 O   0  0  0  0  0  0  0  0  0  0  0  0
  -10.4420   -1.9700    2.3120 C   0  0  0  0  0  0  0  0  0  0  0  0
  -11.5858   -1.5288    4.5804 H   0  0  0  0  0  0  0  0  0  0  0  0
   -9.4639   -2.9164    3.9226 H   0  0  0  0  0  0  0  0  0  0  0  0
   -7.9998   -1.1332    4.1512 H   0  0  0  0  0  0  0  0  0  0  0  0
   -9.8079   -2.4512    1.5528 H   0  0  0  0  0  0  0  0  0  0  0  0
  -10.7049   -0.9547    1.9802 H   0  0  0  0  0  0  0  0  0  0  0  0
  -11.3601   -2.5599    2.4502 H   0  0  0  0  0  0  0  0  0  0  0  0
   -8.7528   -2.0535    8.3401 H   0  0  0  0  0  0  0  0  0  0  0  0
  -10.0770   -0.9630    7.1050 N   0  0  0  0  0  0  0  0  0  0  0  0
   -9.6050   -1.3620    8.4150 C   0  0  2  0  0  0  0  0  0  0  0  0
  -10.7010   -1.9860    9.2670 C   0  0  0  0  0  0  0  0  0  0  0  0
  -10.4280   -2.4500   10.3740 O   0  0  0  0  0  0  0  0  0  0  0  0
   -9.2020   -0.0250    9.0080 C   0  0  0  0  0  0  0  0  0  0  0  0
  -10.2570    0.8960    8.5100 C   0  0  0  0  0  0  0  0  0  0  0  0
  -10.6260    0.3960    7.1480 C   0  0  0  0  0  0  0  0  0  0  0  0
   -8.2083    0.2824    8.6501 H   0  0  0  0  0  0  0  0  0  0  0  0
   -9.1996   -0.0651   10.1073 H   0  0  0  0  0  0  0  0  0  0  0  0
  -11.1317    0.8724    9.1766 H   0  0  0  0  0  0  0  0  0  0  0  0
   -9.8702    1.9239    8.4488 H   0  0  0  0  0  0  0  0  0  0  0  0
  -11.7185    0.3800    7.0207 H   0  0  0  0  0  0  0  0  0  0  0  0
  -10.1748    1.0243    6.3660 H   0  0  0  0  0  0  0  0  0  0  0  0
  -12.1028   -1.5761    7.8666 H   0  0  0  0  0  0  0  0  0  0  0  0
  -11.9370   -1.9760    8.7680 N   0  0  0  0  0  0  0  0  0  0  0  0
  -13.0510   -2.5420    9.5220 C   0  0  2  0  0  0  0  0  0  0  0  0
  -13.1180   -4.0630    9.3230 C   0  0  0  0  0  0  0  0  0  0  0  0
  -12.4750   -4.5790    8.3770 O   0  0  0  0  0  0  0  0  0  0  0  0
  -14.3890   -1.9080    9.1130 C   0  0  0  0  0  0  0  0  0  0  0  0
  -14.8780   -0.7630    9.9920 C   0  0  0  0  0  0  0  0  0  0  0  0
  -14.0260    0.2270   10.4870 C   0  0  0  0  0  0  0  0  0  0  0  0
  -16.2260   -0.6690   10.2980 C   0  0  0  0  0  0  0  0  0  0  0  0
  -14.5180    1.2720   11.2610 C   0  0  0  0  0  0  0  0  0  0  0  0
  -16.7230    0.3670   11.0710 C   0  0  0  0  0  0  0  0  0  0  0  0
  -15.8640    1.3360   11.5490 C   0  0  0  0  0  0  0  0  0  0  0  0
  -16.3440    2.3710   12.3180 O   0  0  0  0  0  0  0  0  0  0  0  0
  -12.8825   -2.3361   10.5893 H   0  0  0  0  0  0  0  0  0  0  0  0
  -15.1552   -2.6970    9.1299 H   0  0  0  0  0  0  0  0  0  0  0  0
  -14.2808   -1.5238    8.0880 H   0  0  0  0  0  0  0  0  0  0  0  0
  -12.9661    0.1799   10.2645 H   0  0  0  0  0  0  0  0  0  0  0  0
  -16.9077   -1.4241    9.9236 H   0  0  0  0  0  0  0  0  0  0  0  0
  -13.8448    2.0340   11.6367 H   0  0  0  0  0  0  0  0  0  0  0  0
  -17.7815    0.4167   11.2996 H   0  0  0  0  0  0  0  0  0  0  0  0
  -15.6256    2.9430   12.5611 H   0  0  0  0  0  0  0  0  0  0  0  0
  -13.2812   -5.4531   10.5688 H   0  0  0  0  0  0  0  0  0  0  0  0
  -13.8451   -4.8206   10.1393 O   0  0  0  0  0  0  0  0  0  0  0  0
  1 13  1  0  0  0  0
  1 14  1  0  0  0  0
  1 15  1  0  0  0  0
  2  1  1  0  0  0  0
  2  5  1  0  0  0  0
  2 16  1  6  0  0  0
  3  2  1  0  0  0  0
  3  4  2  0  0  0  0
  5  6  1  0  0  0  0
  5 17  1  0  0  0  0
  5 18  1  0  0  0  0
  6  7  2  0  0  0  0
  6  8  1  0  0  0  0
  7  9  1  0  0  0  0
  7 19  1  0  0  0  0
  8 10  2  0  0  0  0
  8 20  1  0  0  0  0
  9 11  2  0  0  0  0
  9 21  1  0  0  0  0
 10 11  1  0  0  0  0
 10 22  1  0  0  0  0
 11 12  1  0  0  0  0
 12 23  1  0  0  0  0
 24 35  1  0  0  0  0
 24  3  1  0  0  0  0
 25 24  1  0  0  0  0
 25 28  1  0  0  0  0
 25 36  1  6  0  0  0
 26 25  1  0  0  0  0
 26 27  2  0  0  0  0
 28 29  1  0  0  0  0
 28 37  1  0  0  0  0
 28 38  1  0  0  0  0
 29 30  1  0  0  0  0
 29 39  1  0  0  0  0
 29 40  1  0  0  0  0
 30 31  1  0  0  0  0
 30 41  1  0  0  0  0
 30 42  1  0  0  0  0
 31 32  1  0  0  0  0
 31 43  1  0  0  0  0
 32 34  1  0  0  0  0
 32 33  1  0  0  0  0
 33 44  1  0  0  0  0
 33 45  1  0  0  0  0
 34 46  1  0  0  0  0
 34 47  1  0  0  0  0
 48 52  1  0  0  0  0
 48 26  1  0  0  0  0
 49 48  1  0  0  0  0
 49 53  1  0  0  0  0
 49 54  1  0  0  0  0
 50 49  1  0  0  0  0
 50 51  2  0  0  0  0
 55 69  1  0  0  0  0
 55 50  1  0  0  0  0
 56 55  1  0  0  0  0
 56 59  1  0  0  0  0
 56 70  1  6  0  0  0
 57 56  1  0  0  0  0
 57 58  2  0  0  0  0
 59 60  1  0  0  0  0
 59 71  1  0  0  0  0
 59 72  1  0  0  0  0
 60 61  2  0  0  0  0
 60 62  1  0  0  0  0
 61 63  1  0  0  0  0
 61 73  1  0  0  0  0
 62 65  2  0  0  0  0
 62 64  1  0  0  0  0
 63 74  1  0  0  0  0
 64 66  2  0  0  0  0
 64 63  1  0  0  0  0
 65 67  1  0  0  0  0
 65 75  1  0  0  0  0
 66 68  1  0  0  0  0
 66 76  1  0  0  0  0
 67 68  2  0  0  0  0
 67 77  1  0  0  0  0
 68 78  1  0  0  0  0
 79 88  1  0  0  0  0
 79 57  1  0  0  0  0
 80 79  1  0  0  0  0
 80 83  1  0  0  0  0
 80 89  1  1  0  0  0
 81 80  1  0  0  0  0
 81 82  2  0  0  0  0
 83 84  1  0  0  0  0
 83 90  1  0  0  0  0
 83 91  1  0  0  0  0
 84 85  1  0  0  0  0
 84 92  1  0  0  0  0
 84 93  1  0  0  0  0
 85 86  1  0  0  0  0
 85 94  1  0  0  0  0
 85 95  1  0  0  0  0
 86 87  1  0  0  0  0
 86 96  1  0  0  0  0
 86 97  1  0  0  0  0
 87 98  1  0  0  0  0
 87 99  1  0  0  0  0
 87100  1  0  0  0  0
101111  1  0  0  0  0
101 81  1  0  0  0  0
102101  1  0  0  0  0
102105  1  0  0  0  0
102112  1  1  0  0  0
103102  1  0  0  0  0
103104  2  0  0  0  0
105106  1  0  0  0  0
105113  1  0  0  0  0
105114  1  0  0  0  0
106107  1  0  0  0  0
106108  2  0  0  0  0
107109  2  0  0  0  0
108110  1  0  0  0  0
108115  1  0  0  0  0
109116  1  0  0  0  0
110109  1  0  0  0  0
110117  1  0  0  0  0
119118  1  0  0  0  0
119103  1  0  0  0  0
120119  1  0  0  0  0
120123  1  0  0  0  0
120133  1  1  0  0  0
121120  1  0  0  0  0
121122  2  0  0  0  0
123124  1  0  0  0  0
123134  1  0  0  0  0
123135  1  0  0  0  0
124125  2  0  0  0  0
124126  1  0  0  0  0
125127  1  0  0  0  0
125136  1  0  0  0  0
126129  2  0  0  0  0
126128  1  0  0  0  0
127137  1  0  0  0  0
128130  2  0  0  0  0
128127  1  0  0  0  0
129131  1  0  0  0  0
129138  1  0  0  0  0
130132  1  0  0  0  0
130139  1  0  0  0  0
131132  2  0  0  0  0
131140  1  0  0  0  0
132141  1  0  0  0  0
143142  1  0  0  0  0
143121  1  0  0  0  0
144143  1  0  0  0  0
144147  1  0  0  0  0
144150  1  6  0  0  0
145144  1  0  0  0  0
145146  2  0  0  0  0
147149  1  0  0  0  0
147148  1  0  0  0  0
147151  1  0  0  0  0
148152  1  0  0  0  0
148153  1  0  0  0  0
148154  1  0  0  0  0
149155  1  0  0  0  0
149156  1  0  0  0  0
149157  1  0  0  0  0
159158  1  0  0  0  0
159145  1  0  0  0  0
160159  1  0  0  0  0
160163  1  0  0  0  0
160171  1  1  0  0  0
161160  1  0  0  0  0
161162  2  0  0  0  0
163164  1  0  0  0  0
163172  1  0  0  0  0
163173  1  0  0  0  0
164165  2  0  0  0  0
164166  1  0  0  0  0
165167  1  0  0  0  0
165174  1  0  0  0  0
166168  2  0  0  0  0
166175  1  0  0  0  0
167169  2  0  0  0  0
167176  1  0  0  0  0
168169  1  0  0  0  0
168177  1  0  0  0  0
169170  1  0  0  0  0
170178  1  0  0  0  0
180179  1  0  0  0  0
180161  1  0  0  0  0
181180  1  0  0  0  0
181184  1  0  0  0  0
181192  1  1  0  0  0
182181  1  0  0  0  0
182183  2  0  0  0  0
184185  1  0  0  0  0
184193  1  0  0  0  0
184194  1  0  0  0  0
185186  2  0  0  0  0
185187  1  0  0  0  0
186188  1  0  0  0  0
186195  1  0  0  0  0
187189  2  0  0  0  0
187196  1  0  0  0  0
188190  2  0  0  0  0
188197  1  0  0  0  0
189190  1  0  0  0  0
189198  1  0  0  0  0
190191  1  0  0  0  0
191199  1  0  0  0  0
201200  1  0  0  0  0
201182  1  0  0  0  0
202201  1  0  0  0  0
202205  1  0  0  0  0
202208  1  1  0  0  0
203202  1  0  0  0  0
203204  2  0  0  0  0
205207  1  0  0  0  0
205206  1  0  0  0  0
205209  1  1  0  0  0
206210  1  0  0  0  0
207211  1  0  0  0  0
207212  1  0  0  0  0
207213  1  0  0  0  0
215214  1  0  0  0  0
215203  1  0  0  0  0
216215  1  0  0  0  0
216219  1  0  0  0  0
216221  1  6  0  0  0
217216  1  0  0  0  0
217218  2  0  0  0  0
219220  1  0  0  0  0
219222  1  0  0  0  0
219223  1  0  0  0  0
220230  1  0  0  0  0
225224  1  0  0  0  0
225217  1  0  0  0  0
226225  1  0  0  0  0
226229  1  0  0  0  0
226231  1  6  0  0  0
227226  1  0  0  0  0
227228  2  0  0  0  0
229230  1  0  0  0  0
229232  1  0  0  0  0
229233  1  0  0  0  0
235241  1  0  0  0  0
235227  1  0  0  0  0
236234  1  1  0  0  0
236239  1  0  0  0  0
236235  1  0  0  0  0
237236  1  0  0  0  0
237238  2  0  0  0  0
239240  1  0  0  0  0
239242  1  0  0  0  0
239243  1  0  0  0  0
240244  1  0  0  0  0
240245  1  0  0  0  0
241240  1  0  0  0  0
241246  1  0  0  0  0
241247  1  0  0  0  0
249248  1  0  0  0  0
249237  1  0  0  0  0
250249  1  0  0  0  0
250253  1  0  0  0  0
250257  1  6  0  0  0
251250  1  0  0  0  0
251252  2  0  0  0  0
253254  1  0  0  0  0
253258  1  0  0  0  0
253259  1  0  0  0  0
254255  1  0  0  0  0
254256  2  0  0  0  0
261260  1  0  0  0  0
261251  1  0  0  0  0
262261  1  0  0  0  0
262265  1  0  0  0  0
262268  1  6  0  0  0
263262  1  0  0  0  0
263264  2  0  0  0  0
265267  1  0  0  0  0
265266  1  0  0  0  0
265269  1  1  0  0  0
266270  1  0  0  0  0
267271  1  0  0  0  0
267272  1  0  0  0  0
267273  1  0  0  0  0
275281  1  0  0  0  0
275263  1  0  0  0  0
276274  1  6  0  0  0
276279  1  0  0  0  0
276275  1  0  0  0  0
277276  1  0  0  0  0
277278  2  0  0  0  0
277289  1  0  0  0  0
279280  1  0  0  0  0
279282  1  0  0  0  0
279283  1  0  0  0  0
280284  1  0  0  0  0
280285  1  0  0  0  0
281280  1  0  0  0  0
281286  1  0  0  0  0
281287  1  0  0  0  0
289288  1  0  0  0  0
289290  1  0  0  0  0
290293  1  0  0  0  0
290291  1  0  0  0  0
290301  1  1  0  0  0
291292  2  0  0  0  0
291310  1  0  0  0  0
293294  1  0  0  0  0
293302  1  0  0  0  0
293303  1  0  0  0  0
294295  2  0  0  0  0
294296  1  0  0  0  0
295297  1  0  0  0  0
295304  1  0  0  0  0
296298  2  0  0  0  0
296305  1  0  0  0  0
297299  2  0  0  0  0
297306  1  0  0  0  0
298299  1  0  0  0  0
298307  1  0  0  0  0
299300  1  0  0  0  0
300308  1  0  0  0  0
310309  1  0  0  0  0
M  CHG  3   1   1  87   1 255  -1
M  END
