1lzo_ligand
 OpenBabel08222323343D

 11 10  0  0  0  0  0  0  0  0999 V2000
   42.1160   18.9080   20.1850 P   0  0  0  0  0  0  0  0  0  0  0  0
   40.6350   19.2690   20.7920 O   0  0  0  0  0  0  0  0  0  0  0  0
   42.0940   19.6060   18.8620 O   0  0  0  0  0  1  0  0  0  0  0  0
   42.0830   17.4170   20.1170 O   0  0  0  0  0  1  0  0  0  0  0  0
   43.0490   19.4720   21.2230 O   0  0  0  0  0  0  0  0  0  0  0  0
   39.9760   20.5520   20.7570 C   0  0  0  0  0  0  0  0  0  0  0  0
   38.7070   20.2210   21.4360 C   0  0  0  0  0  0  0  0  0  0  0  0
   37.4930   19.9600   20.8440 O   0  5  0  0  0  0  0  0  0  0  0  0
   38.4990   20.1380   22.7810 O   0  0  0  0  0  0  0  0  0  0  0  0
   39.8073   20.8940   19.7252 H   0  0  0  0  0  0  0  0  0  0  0  0
   40.5443   21.3157   21.3082 H   0  0  0  0  0  0  0  0  0  0  0  0
  1  2  1  0  0  0  0
  1  3  1  0  0  0  0
  1  4  1  0  0  0  0
  1  5  2  0  0  0  0
  2  6  1  0  0  0  0
  6  7  1  0  0  0  0
  6 10  1  0  0  0  0
  6 11  1  0  0  0  0
  7  8  1  0  0  0  0
  7  9  2  0  0  0  0
M  CHG  1   8  -1
M  END
