1m5e_ligand
 OpenBabel08222323343D

 24 24  0  0  1  0  0  0  0  0999 V2000
   61.8200   66.3810   47.8210 O   0  5  0  0  0  0  0  0  0  0  0  0
   62.4220   66.6670   48.8940 C   0  0  0  0  0  0  0  0  0  0  0  0
   62.0550   66.2640   50.0650 O   0  0  0  0  0  0  0  0  0  0  0  0
   63.6410   67.5560   48.8180 C   0  0  0  0  0  0  0  0  0  0  0  0
   64.1100   68.0520   47.6600 N   0  0  0  0  0  0  0  0  0  0  0  0
   65.2120   68.8120   47.9830 O   0  0  0  0  0  0  0  0  0  0  0  0
   65.4180   68.7830   49.3210 C   0  0  0  0  0  0  0  0  0  0  0  0
   64.4580   67.9980   49.9300 C   0  0  0  0  0  0  0  0  0  0  0  0
   64.3150   67.7010   51.4000 C   0  0  0  0  0  0  0  0  0  0  0  0
   63.2840   68.5750   52.1300 C   0  0  2  0  0  0  0  0  0  0  0  0
   63.6390   70.0330   51.9890 N   0  3  0  0  0  0  0  0  0  0  0  0
   63.1600   68.1700   53.6260 C   0  0  0  0  0  0  0  0  0  0  0  0
   63.3660   69.1300   54.4350 O   0  5  0  0  0  0  0  0  0  0  0  0
   62.8690   66.9800   53.8450 O   0  0  0  0  0  0  0  0  0  0  0  0
   66.5660   69.5620   49.8120 C   0  0  0  0  0  0  0  0  0  0  0  0
   65.2940   67.8532   51.8779 H   0  0  0  0  0  0  0  0  0  0  0  0
   64.0128   66.6491   51.5100 H   0  0  0  0  0  0  0  0  0  0  0  0
   62.3049   68.4152   51.6548 H   0  0  0  0  0  0  0  0  0  0  0  0
   62.9548   70.5936   52.4723 H   0  0  0  0  0  0  0  0  0  0  0  0
   63.6495   70.2834   51.0127 H   0  0  0  0  0  0  0  0  0  0  0  0
   64.5501   70.1971   52.3878 H   0  0  0  0  0  0  0  0  0  0  0  0
   66.6343   69.4647   50.9056 H   0  0  0  0  0  0  0  0  0  0  0  0
   66.4314   70.6208   49.5459 H   0  0  0  0  0  0  0  0  0  0  0  0
   67.4903   69.1828   49.3517 H   0  0  0  0  0  0  0  0  0  0  0  0
  2  1  1  0  0  0  0
  2  4  1  0  0  0  0
  2  3  2  0  0  0  0
  4  8  1  0  0  0  0
  4  5  2  0  0  0  0
  5  6  1  0  0  0  0
  6  7  1  0  0  0  0
  7 15  1  0  0  0  0
  8  7  2  0  0  0  0
  8  9  1  0  0  0  0
  9 10  1  0  0  0  0
  9 16  1  0  0  0  0
  9 17  1  0  0  0  0
 10 12  1  0  0  0  0
 10 11  1  0  0  0  0
 10 18  1  6  0  0  0
 11 19  1  0  0  0  0
 11 20  1  0  0  0  0
 11 21  1  0  0  0  0
 12 14  2  0  0  0  0
 12 13  1  0  0  0  0
 15 22  1  0  0  0  0
 15 23  1  0  0  0  0
 15 24  1  0  0  0  0
M  CHG  3   1  -1  11   1  13  -1
M  END
