1m5f_ligand
 OpenBabel08222323343D

 24 24  0  0  1  0  0  0  0  0999 V2000
   61.7370   66.3490   48.1020 O   0  5  0  0  0  0  0  0  0  0  0  0
   62.2960   66.6200   49.2060 C   0  0  0  0  0  0  0  0  0  0  0  0
   61.9050   66.1690   50.3560 O   0  0  0  0  0  0  0  0  0  0  0  0
   63.5120   67.5050   49.1900 C   0  0  0  0  0  0  0  0  0  0  0  0
   64.0350   68.0000   48.0520 N   0  0  0  0  0  0  0  0  0  0  0  0
   65.1250   68.7590   48.4210 O   0  0  0  0  0  0  0  0  0  0  0  0
   65.2720   68.7340   49.7670 C   0  0  0  0  0  0  0  0  0  0  0  0
   64.2790   67.9490   50.3400 C   0  0  0  0  0  0  0  0  0  0  0  0
   64.0810   67.6630   51.8050 C   0  0  0  0  0  0  0  0  0  0  0  0
   63.0640   68.5700   52.5170 C   0  0  2  0  0  0  0  0  0  0  0  0
   63.4570   70.0130   52.3740 N   0  3  0  0  0  0  0  0  0  0  0  0
   62.9190   68.1760   54.0220 C   0  0  0  0  0  0  0  0  0  0  0  0
   63.1590   69.1450   54.8210 O   0  5  0  0  0  0  0  0  0  0  0  0
   62.5920   66.9980   54.2540 O   0  0  0  0  0  0  0  0  0  0  0  0
   66.4020   69.5160   50.2960 C   0  0  0  0  0  0  0  0  0  0  0  0
   65.0519   67.7793   52.3088 H   0  0  0  0  0  0  0  0  0  0  0  0
   63.7380   66.6227   51.9054 H   0  0  0  0  0  0  0  0  0  0  0  0
   62.0856   68.4323   52.0335 H   0  0  0  0  0  0  0  0  0  0  0  0
   62.7812   70.5936   52.8455 H   0  0  0  0  0  0  0  0  0  0  0  0
   63.4867   70.2579   51.3967 H   0  0  0  0  0  0  0  0  0  0  0  0
   64.3667   70.1557   52.7839 H   0  0  0  0  0  0  0  0  0  0  0  0
   66.4284   69.4268   51.3921 H   0  0  0  0  0  0  0  0  0  0  0  0
   66.2790   70.5729   50.0171 H   0  0  0  0  0  0  0  0  0  0  0  0
   67.3427   69.1325   49.8742 H   0  0  0  0  0  0  0  0  0  0  0  0
  2  1  1  0  0  0  0
  2  4  1  0  0  0  0
  2  3  2  0  0  0  0
  4  8  1  0  0  0  0
  4  5  2  0  0  0  0
  5  6  1  0  0  0  0
  6  7  1  0  0  0  0
  7 15  1  0  0  0  0
  8  7  2  0  0  0  0
  8  9  1  0  0  0  0
  9 10  1  0  0  0  0
  9 16  1  0  0  0  0
  9 17  1  0  0  0  0
 10 12  1  0  0  0  0
 10 11  1  0  0  0  0
 10 18  1  6  0  0  0
 11 19  1  0  0  0  0
 11 20  1  0  0  0  0
 11 21  1  0  0  0  0
 12 14  2  0  0  0  0
 12 13  1  0  0  0  0
 15 22  1  0  0  0  0
 15 23  1  0  0  0  0
 15 24  1  0  0  0  0
M  CHG  3   1  -1  11   1  13  -1
M  END
