1m74_ligand
 OpenBabel08222323343D

 39 41  0  0  1  0  0  0  0  0999 V2000
   38.4390   88.5820   48.7110 P   0  0  0  0  0  0  0  0  0  0  0  0
   38.5850   87.4220   49.6490 O   0  0  0  0  0  1  0  0  0  0  0  0
   39.8780   89.2740   48.3780 O   0  0  0  0  0  1  0  0  0  0  0  0
   37.7740   88.1150   47.4650 O   0  0  0  0  0  0  0  0  0  0  0  0
   37.8050   90.9050   50.2870 P   0  0  2  0  0  0  0  0  0  0  0  0
   39.2310   91.0010   50.6860 O   0  0  0  0  0  1  0  0  0  0  0  0
   36.8960   90.8110   51.4230 O   0  0  0  0  0  0  0  0  0  0  0  0
   37.5610   89.6870   49.3490 O   0  0  0  0  0  0  0  0  0  0  0  0
   37.3620   92.0630   49.3550 O   0  0  0  0  0  0  0  0  0  0  0  0
   38.0730   92.4010   48.1910 C   0  0  0  0  0  0  0  0  0  0  0  0
   38.2100   93.9310   48.2550 C   0  0  1  0  0  0  0  0  0  0  0  0
   37.2740   94.5590   47.3570 O   0  0  0  0  0  0  0  0  0  0  0  0
   37.9570   94.5390   49.6520 C   0  0  1  0  0  0  0  0  0  0  0  0
   39.1220   95.1630   50.1970 O   0  0  0  0  0  0  0  0  0  0  0  0
   36.8350   95.5630   49.5290 C   0  0  1  0  0  0  0  0  0  0  0  0
   37.2240   96.8600   50.0410 O   0  0  0  0  0  0  0  0  0  0  0  0
   36.4730   95.5530   48.0500 C   0  0  2  0  0  0  0  0  0  0  0  0
   34.9960   95.3340   47.7930 N   0  0  0  0  0  0  0  0  0  0  0  0
   34.2810   94.2390   48.1550 C   0  0  0  0  0  0  0  0  0  0  0  0
   33.0030   94.4120   47.7680 N   0  0  0  0  0  0  0  0  0  0  0  0
   32.8630   95.6100   47.1980 C   0  0  0  0  0  0  0  0  0  0  0  0
   31.8090   96.3480   46.6150 C   0  0  0  0  0  0  0  0  0  0  0  0
   30.5490   95.8580   46.5540 N   0  0  0  0  0  0  0  0  0  0  0  0
   32.0660   97.6010   46.0970 N   0  0  0  0  0  0  0  0  0  0  0  0
   33.3070   98.1370   46.1310 C   0  0  0  0  0  0  0  0  0  0  0  0
   34.3250   97.4400   46.6800 N   0  0  0  0  0  0  0  0  0  0  0  0
   34.1580   96.1970   47.2290 C   0  0  0  0  0  0  0  0  0  0  0  0
   37.5152   92.0978   47.2927 H   0  0  0  0  0  0  0  0  0  0  0  0
   39.0631   91.9217   48.1871 H   0  0  0  0  0  0  0  0  0  0  0  0
   39.2343   94.1867   47.9462 H   0  0  0  0  0  0  0  0  0  0  0  0
   37.6420   93.7358   50.3344 H   0  0  0  0  0  0  0  0  0  0  0  0
   39.8157   94.5191   50.2790 H   0  0  0  0  0  0  0  0  0  0  0  0
   35.9655   95.2250   50.1118 H   0  0  0  0  0  0  0  0  0  0  0  0
   37.9730   97.1805   49.5524 H   0  0  0  0  0  0  0  0  0  0  0  0
   36.7310   96.5409   47.6409 H   0  0  0  0  0  0  0  0  0  0  0  0
   34.6752   93.3656   48.6724 H   0  0  0  0  0  0  0  0  0  0  0  0
   29.7991   96.4175   46.1233 H   0  0  0  0  0  0  0  0  0  0  0  0
   30.3399   94.9255   46.9383 H   0  0  0  0  0  0  0  0  0  0  0  0
   33.4842   99.1237   45.7186 H   0  0  0  0  0  0  0  0  0  0  0  0
  1  2  1  0  0  0  0
  1  3  1  0  0  0  0
  1  4  2  0  0  0  0
  5  6  1  1  0  0  0
  5  7  2  0  0  0  0
  5  8  1  0  0  0  0
  5  9  1  0  0  0  0
  8  1  1  0  0  0  0
  9 10  1  0  0  0  0
 10 11  1  0  0  0  0
 10 28  1  0  0  0  0
 10 29  1  0  0  0  0
 11 12  1  0  0  0  0
 11 13  1  0  0  0  0
 11 30  1  6  0  0  0
 12 17  1  0  0  0  0
 13 14  1  0  0  0  0
 13 15  1  0  0  0  0
 13 31  1  1  0  0  0
 14 32  1  0  0  0  0
 15 16  1  0  0  0  0
 15 17  1  0  0  0  0
 15 33  1  1  0  0  0
 16 34  1  0  0  0  0
 17 18  1  0  0  0  0
 17 35  1  6  0  0  0
 18 19  1  0  0  0  0
 18 27  1  0  0  0  0
 19 20  2  0  0  0  0
 19 36  1  0  0  0  0
 20 21  1  0  0  0  0
 21 22  2  0  0  0  0
 21 27  1  0  0  0  0
 22 23  1  0  0  0  0
 22 24  1  0  0  0  0
 23 37  1  0  0  0  0
 23 38  1  0  0  0  0
 24 25  2  0  0  0  0
 25 26  1  0  0  0  0
 25 39  1  0  0  0  0
 26 27  2  0  0  0  0
M  END
