1m7q_ligand
 OpenBabel08222323343D

 52 56  0  0  0  0  0  0  0  0999 V2000
   43.9700   33.1090   31.4590 C   0  0  0  0  0  0  0  0  0  0  0  0
   43.1590   31.9130   31.3160 C   0  0  0  0  0  0  0  0  0  0  0  0
   43.8110   30.6620   31.0680 C   0  0  0  0  0  0  0  0  0  0  0  0
   45.2260   30.5790   30.9530 C   0  0  0  0  0  0  0  0  0  0  0  0
   46.0080   31.7440   31.0740 C   0  0  0  0  0  0  0  0  0  0  0  0
   45.4100   33.0490   31.3300 C   0  0  0  0  0  0  0  0  0  0  0  0
   45.9420   29.5640   30.7570 N   0  0  0  0  0  0  0  0  0  0  0  0
   41.6580   31.9160   31.4240 C   0  0  0  0  0  0  0  0  0  0  0  0
   46.1960   34.2930   31.4760 N   0  0  0  0  0  0  0  0  0  0  0  0
   45.5900   35.5440   31.7460 C   0  0  0  0  0  0  0  0  0  0  0  0
   44.2620   35.5890   31.8680 N   0  0  0  0  0  0  0  0  0  0  0  0
   43.3460   34.4680   31.7410 C   0  0  0  0  0  0  0  0  0  0  0  0
   46.2070   36.5930   31.8800 O   0  0  0  0  0  0  0  0  0  0  0  0
   47.3830   34.2240   31.3460 C   0  0  0  0  0  0  0  0  0  0  0  0
   41.0130   31.4150   32.5910 C   0  0  0  0  0  0  0  0  0  0  0  0
   39.5880   31.4310   32.7000 C   0  0  0  0  0  0  0  0  0  0  0  0
   38.8120   31.9600   31.6220 C   0  0  0  0  0  0  0  0  0  0  0  0
   39.4250   32.4610   30.4440 C   0  0  0  0  0  0  0  0  0  0  0  0
   40.8340   32.4370   30.3490 C   0  0  0  0  0  0  0  0  0  0  0  0
   48.3920   33.8600   32.3530 C   0  0  0  0  0  0  0  0  0  0  0  0
   49.7750   33.8300   32.0280 C   0  0  0  0  0  0  0  0  0  0  0  0
   50.2240   34.1480   30.7010 C   0  0  0  0  0  0  0  0  0  0  0  0
   49.2970   34.4980   29.6720 C   0  0  0  0  0  0  0  0  0  0  0  0
   47.9020   34.5410   29.9590 C   0  0  0  0  0  0  0  0  0  0  0  0
   41.3250   32.9390   29.1860 F   0  0  0  0  0  0  0  0  0  0  0  0
   37.4810   31.9890   31.7250 F   0  0  0  0  0  0  0  0  0  0  0  0
   46.8400   34.9750   28.5960 Cl  0  0  0  0  0  0  0  0  0  0  0  0
   47.9630   33.4370   33.9810 Cl  0  0  0  0  0  0  0  0  0  0  0  0
   46.1520   28.9520   29.4020 C   0  0  0  0  0  0  0  0  0  0  0  0
   45.9120   27.4140   29.5260 C   0  0  0  0  0  0  0  0  0  0  0  0
   46.6400   26.7970   30.6970 N   0  3  0  0  0  0  0  0  0  0  0  0
   46.3320   27.4280   32.0110 C   0  0  0  0  0  0  0  0  0  0  0  0
   46.5970   28.9550   31.9860 C   0  0  0  0  0  0  0  0  0  0  0  0
   43.2151   29.7622   30.9661 H   0  0  0  0  0  0  0  0  0  0  0  0
   47.0847   31.6684   30.9740 H   0  0  0  0  0  0  0  0  0  0  0  0
   42.2691   34.5939   31.8424 H   0  0  0  0  0  0  0  0  0  0  0  0
   41.6089   31.0176   33.4046 H   0  0  0  0  0  0  0  0  0  0  0  0
   39.1015   31.0467   33.5892 H   0  0  0  0  0  0  0  0  0  0  0  0
   38.8233   32.8545   29.6327 H   0  0  0  0  0  0  0  0  0  0  0  0
   50.4991   33.5643   32.7897 H   0  0  0  0  0  0  0  0  0  0  0  0
   51.2842   34.1219   30.4767 H   0  0  0  0  0  0  0  0  0  0  0  0
   49.6540   34.7303   28.6752 H   0  0  0  0  0  0  0  0  0  0  0  0
   47.1802   29.1432   29.0611 H   0  0  0  0  0  0  0  0  0  0  0  0
   45.4408   29.3841   28.6827 H   0  0  0  0  0  0  0  0  0  0  0  0
   46.2596   26.9291   28.6019 H   0  0  0  0  0  0  0  0  0  0  0  0
   44.8336   27.2361   29.6502 H   0  0  0  0  0  0  0  0  0  0  0  0
   47.6309   26.8793   30.5317 H   0  0  0  0  0  0  0  0  0  0  0  0
   46.3876   25.8224   30.7478 H   0  0  0  0  0  0  0  0  0  0  0  0
   46.9645   26.9685   32.7848 H   0  0  0  0  0  0  0  0  0  0  0  0
   45.2730   27.2533   32.2516 H   0  0  0  0  0  0  0  0  0  0  0  0
   46.1753   29.4149   32.8919 H   0  0  0  0  0  0  0  0  0  0  0  0
   47.6811   29.1382   31.9523 H   0  0  0  0  0  0  0  0  0  0  0  0
  1 12  1  0  0  0  0
  1  6  2  0  0  0  0
  1  2  1  0  0  0  0
  2  8  1  0  0  0  0
  2  3  2  0  0  0  0
  3  4  1  0  0  0  0
  3 34  1  0  0  0  0
  4  7  1  0  0  0  0
  4  5  2  0  0  0  0
  5 35  1  0  0  0  0
  6  5  1  0  0  0  0
  6  9  1  0  0  0  0
  7 33  1  0  0  0  0
  7 29  1  0  0  0  0
  8 19  2  0  0  0  0
  8 15  1  0  0  0  0
  9 14  1  0  0  0  0
  9 10  1  0  0  0  0
 10 13  2  0  0  0  0
 10 11  1  0  0  0  0
 12 11  2  0  0  0  0
 12 36  1  0  0  0  0
 14 24  2  0  0  0  0
 14 20  1  0  0  0  0
 15 16  2  0  0  0  0
 15 37  1  0  0  0  0
 16 17  1  0  0  0  0
 16 38  1  0  0  0  0
 17 26  1  0  0  0  0
 17 18  2  0  0  0  0
 18 19  1  0  0  0  0
 18 39  1  0  0  0  0
 19 25  1  0  0  0  0
 20 28  1  0  0  0  0
 20 21  2  0  0  0  0
 21 22  1  0  0  0  0
 21 40  1  0  0  0  0
 22 23  2  0  0  0  0
 22 41  1  0  0  0  0
 23 42  1  0  0  0  0
 24 23  1  0  0  0  0
 24 27  1  0  0  0  0
 29 30  1  0  0  0  0
 29 43  1  0  0  0  0
 29 44  1  0  0  0  0
 30 31  1  0  0  0  0
 30 45  1  0  0  0  0
 30 46  1  0  0  0  0
 31 32  1  0  0  0  0
 31 47  1  0  0  0  0
 31 48  1  0  0  0  0
 32 49  1  0  0  0  0
 32 50  1  0  0  0  0
 33 32  1  0  0  0  0
 33 51  1  0  0  0  0
 33 52  1  0  0  0  0
M  CHG  1  31   1
M  END
