1me3_ligand
 OpenBabel08222323343D

 64 66  0  0  1  0  0  0  0  0999 V2000
    5.8690   11.5780    9.0670 C   0  0  0  0  0  0  0  0  0  0  0  0
    5.1390   10.8090    9.9830 C   0  0  0  0  0  0  0  0  0  0  0  0
    5.9130   10.6730   11.1820 O   0  0  0  0  0  0  0  0  0  0  0  0
    7.0960   11.6420    9.1550 O   0  0  0  0  0  0  0  0  0  0  0  0
    5.0260   12.2840    8.0750 C   0  0  2  0  0  0  0  0  0  0  0  0
    4.9810   13.7480    8.4310 C   0  0  0  0  0  0  0  0  0  0  0  0
    4.4400   14.4970    7.1890 C   0  0  0  0  0  0  0  0  0  0  0  0
    4.2390   15.9670    7.4800 C   0  0  0  0  0  0  0  0  0  0  0  0
    5.3310   16.8290    7.2980 C   0  0  0  0  0  0  0  0  0  0  0  0
    5.2290   18.2100    7.4870 C   0  0  0  0  0  0  0  0  0  0  0  0
    4.0200   18.7260    7.9970 C   0  0  0  0  0  0  0  0  0  0  0  0
    2.9040   17.8820    8.1720 C   0  0  0  0  0  0  0  0  0  0  0  0
    3.0140   16.5040    7.9210 C   0  0  0  0  0  0  0  0  0  0  0  0
    3.6400   11.7770    7.8780 N   0  0  0  0  0  0  0  0  0  0  0  0
    3.2770   11.0980    6.7410 C   0  0  0  0  0  0  0  0  0  0  0  0
    4.0950   10.7790    5.8720 O   0  0  0  0  0  0  0  0  0  0  0  0
    1.8050   10.6980    6.6530 C   0  0  2  0  0  0  0  0  0  0  0  0
    1.6220    9.2260    7.0950 C   0  0  0  0  0  0  0  0  0  0  0  0
    0.2650    8.6130    6.7630 C   0  0  0  0  0  0  0  0  0  0  0  0
    0.2480    7.4030    6.0160 C   0  0  0  0  0  0  0  0  0  0  0  0
   -0.9860    6.8210    5.6330 C   0  0  0  0  0  0  0  0  0  0  0  0
   -2.1970    7.3880    6.1020 C   0  0  0  0  0  0  0  0  0  0  0  0
   -2.1640    8.6160    6.8020 C   0  0  0  0  0  0  0  0  0  0  0  0
   -0.9300    9.1680    7.1890 C   0  0  0  0  0  0  0  0  0  0  0  0
    1.3330   10.7910    5.2220 N   0  0  0  0  0  0  0  0  0  0  0  0
    1.0350   12.0050    4.6750 C   0  0  0  0  0  0  0  0  0  0  0  0
    0.9490   13.0560    5.3210 O   0  0  0  0  0  0  0  0  0  0  0  0
    0.8760   11.8610    3.3340 O   0  0  0  0  0  0  0  0  0  0  0  0
    0.4620   13.0530    2.5900 C   0  0  0  0  0  0  0  0  0  0  0  0
    0.6310   12.7150    1.1320 C   0  0  0  0  0  0  0  0  0  0  0  0
   -0.3280   12.0020    0.4000 C   0  0  0  0  0  0  0  0  0  0  0  0
   -0.0570   11.6730   -0.9370 C   0  0  0  0  0  0  0  0  0  0  0  0
    1.0920   12.1750   -1.5610 C   0  0  0  0  0  0  0  0  0  0  0  0
    2.0020   12.8780   -0.8250 N   0  0  0  0  0  0  0  0  0  0  0  0
    1.7980   13.1490    0.4950 C   0  0  0  0  0  0  0  0  0  0  0  0
    4.9383    9.8152    9.5563 H   0  0  0  0  0  0  0  0  0  0  0  0
    4.1863   11.3092   10.2112 H   0  0  0  0  0  0  0  0  0  0  0  0
    5.4290   10.1529   11.8127 H   0  0  0  0  0  0  0  0  0  0  0  0
    5.5341   12.1842    7.1045 H   0  0  0  0  0  0  0  0  0  0  0  0
    5.9902   14.1079    8.6797 H   0  0  0  0  0  0  0  0  0  0  0  0
    4.3126   13.9080    9.2899 H   0  0  0  0  0  0  0  0  0  0  0  0
    3.4767   14.0547    6.8950 H   0  0  0  0  0  0  0  0  0  0  0  0
    5.1597   14.3900    6.3640 H   0  0  0  0  0  0  0  0  0  0  0  0
    6.2855   16.4099    7.0009 H   0  0  0  0  0  0  0  0  0  0  0  0
    6.0574   18.8670    7.2478 H   0  0  0  0  0  0  0  0  0  0  0  0
    3.9481   19.7762    8.2557 H   0  0  0  0  0  0  0  0  0  0  0  0
    1.9585   18.2976    8.5011 H   0  0  0  0  0  0  0  0  0  0  0  0
    2.1577   15.8554    8.0665 H   0  0  0  0  0  0  0  0  0  0  0  0
    2.9569   11.9348    8.5910 H   0  0  0  0  0  0  0  0  0  0  0  0
    1.2054   11.3616    7.2934 H   0  0  0  0  0  0  0  0  0  0  0  0
    1.7595    9.1783    8.1853 H   0  0  0  0  0  0  0  0  0  0  0  0
    2.3980    8.6231    6.6007 H   0  0  0  0  0  0  0  0  0  0  0  0
    1.1807    6.9250    5.7391 H   0  0  0  0  0  0  0  0  0  0  0  0
   -1.0034    5.9504    4.9874 H   0  0  0  0  0  0  0  0  0  0  0  0
   -3.1407    6.8845    5.9256 H   0  0  0  0  0  0  0  0  0  0  0  0
   -3.0879    9.1308    7.0398 H   0  0  0  0  0  0  0  0  0  0  0  0
   -0.9139   10.0415    7.8307 H   0  0  0  0  0  0  0  0  0  0  0  0
    1.2385    9.9603    4.6733 H   0  0  0  0  0  0  0  0  0  0  0  0
    1.0963   13.9104    2.8591 H   0  0  0  0  0  0  0  0  0  0  0  0
   -0.5895   13.2924    2.8069 H   0  0  0  0  0  0  0  0  0  0  0  0
   -1.2650   11.7090    0.8596 H   0  0  0  0  0  0  0  0  0  0  0  0
   -0.7362   11.0310   -1.4862 H   0  0  0  0  0  0  0  0  0  0  0  0
    1.2573   12.0068   -2.6190 H   0  0  0  0  0  0  0  0  0  0  0  0
    2.5435   13.7033    1.0536 H   0  0  0  0  0  0  0  0  0  0  0  0
  1  2  1  0  0  0  0
  1  4  2  0  0  0  0
  1  5  1  0  0  0  0
  2  3  1  0  0  0  0
  2 36  1  0  0  0  0
  2 37  1  0  0  0  0
  3 38  1  0  0  0  0
  5  6  1  0  0  0  0
  5 14  1  0  0  0  0
  5 39  1  6  0  0  0
  6  7  1  0  0  0  0
  6 40  1  0  0  0  0
  6 41  1  0  0  0  0
  7  8  1  0  0  0  0
  7 42  1  0  0  0  0
  7 43  1  0  0  0  0
  8  9  2  0  0  0  0
  8 13  1  0  0  0  0
  9 10  1  0  0  0  0
  9 44  1  0  0  0  0
 10 11  2  0  0  0  0
 10 45  1  0  0  0  0
 11 12  1  0  0  0  0
 11 46  1  0  0  0  0
 12 13  2  0  0  0  0
 12 47  1  0  0  0  0
 13 48  1  0  0  0  0
 14 15  1  0  0  0  0
 14 49  1  0  0  0  0
 15 16  2  0  0  0  0
 15 17  1  0  0  0  0
 17 18  1  0  0  0  0
 17 25  1  0  0  0  0
 17 50  1  1  0  0  0
 18 19  1  0  0  0  0
 18 51  1  0  0  0  0
 18 52  1  0  0  0  0
 19 20  2  0  0  0  0
 19 24  1  0  0  0  0
 20 21  1  0  0  0  0
 20 53  1  0  0  0  0
 21 22  2  0  0  0  0
 21 54  1  0  0  0  0
 22 23  1  0  0  0  0
 22 55  1  0  0  0  0
 23 24  2  0  0  0  0
 23 56  1  0  0  0  0
 24 57  1  0  0  0  0
 25 26  1  0  0  0  0
 25 58  1  0  0  0  0
 26 27  2  0  0  0  0
 26 28  1  0  0  0  0
 28 29  1  0  0  0  0
 29 30  1  0  0  0  0
 29 59  1  0  0  0  0
 29 60  1  0  0  0  0
 30 31  2  0  0  0  0
 30 35  1  0  0  0  0
 31 32  1  0  0  0  0
 31 61  1  0  0  0  0
 32 33  2  0  0  0  0
 32 62  1  0  0  0  0
 33 34  1  0  0  0  0
 33 63  1  0  0  0  0
 34 35  2  0  0  0  0
 35 64  1  0  0  0  0
M  END
