1mns_ligand
 OpenBabel08222323343D

 21 21  0  0  1  0  0  0  0  0999 V2000
   32.4760    3.3490   15.6260 C   0  0  0  0  0  0  0  0  0  0  0  0
   31.2440    3.4670   16.2920 C   0  0  0  0  0  0  0  0  0  0  0  0
   31.0520    4.4560   17.2520 C   0  0  0  0  0  0  0  0  0  0  0  0
   32.1040    5.3350   17.5590 C   0  0  0  0  0  0  0  0  0  0  0  0
   33.3280    5.2160   16.8990 C   0  0  0  0  0  0  0  0  0  0  0  0
   33.5170    4.2270   15.9350 C   0  0  0  0  0  0  0  0  0  0  0  0
   29.7020    4.4770   18.0160 C   0  0  2  0  0  0  0  0  0  0  0  0
   28.6810    3.6440   17.4700 O   0  0  0  0  0  0  0  0  0  0  0  0
   29.1240    5.8820   18.3470 C   0  0  0  0  0  0  0  0  0  0  0  0
   30.1620    3.8860   19.3610 C   0  0  0  0  0  0  0  0  0  0  0  0
   29.8350    6.7730   18.8070 O   0  5  0  0  0  0  0  0  0  0  0  0
   27.9190    6.0570   18.1780 O   0  0  0  0  0  0  0  0  0  0  0  0
   32.6175    2.5796   14.8756 H   0  0  0  0  0  0  0  0  0  0  0  0
   30.4373    2.7825   16.0561 H   0  0  0  0  0  0  0  0  0  0  0  0
   31.9651    6.1057   18.3085 H   0  0  0  0  0  0  0  0  0  0  0  0
   34.1369    5.8971   17.1376 H   0  0  0  0  0  0  0  0  0  0  0  0
   34.4702    4.1396   15.4262 H   0  0  0  0  0  0  0  0  0  0  0  0
   28.4926    3.9179   16.5800 H   0  0  0  0  0  0  0  0  0  0  0  0
   29.3046    3.8261   20.0475 H   0  0  0  0  0  0  0  0  0  0  0  0
   30.9379    4.5312   19.7988 H   0  0  0  0  0  0  0  0  0  0  0  0
   30.5720    2.8784   19.1977 H   0  0  0  0  0  0  0  0  0  0  0  0
  1  2  2  0  0  0  0
  1  6  1  0  0  0  0
  1 13  1  0  0  0  0
  2  3  1  0  0  0  0
  2 14  1  0  0  0  0
  3  4  2  0  0  0  0
  3  7  1  0  0  0  0
  4  5  1  0  0  0  0
  4 15  1  0  0  0  0
  5  6  2  0  0  0  0
  5 16  1  0  0  0  0
  6 17  1  0  0  0  0
  7  8  1  6  0  0  0
  7  9  1  0  0  0  0
  7 10  1  0  0  0  0
  8 18  1  0  0  0  0
  9 11  1  0  0  0  0
  9 12  2  0  0  0  0
 10 19  1  0  0  0  0
 10 20  1  0  0  0  0
 10 21  1  0  0  0  0
M  CHG  1  11  -1
M  END
