1mpa_ligand
 OpenBabel08222323343D

186189  0  0  1  0  0  0  0  0999 V2000
  -14.3250   10.1160   48.1960 N   0  0  0  0  0  0  0  0  0  0  0  0
  -15.0860   10.8480   47.3940 C   0  0  0  0  0  0  0  0  0  0  0  0
  -14.6370   11.4500   46.4090 O   0  0  0  0  0  0  0  0  0  0  0  0
  -16.5600   10.9660   47.7840 C   0  0  0  0  0  0  0  0  0  0  0  0
  -12.9170    9.8920   47.9350 C   0  0  1  0  0  0  0  0  0  0  0  0
  -12.2730    9.3710   49.2120 C   0  0  2  0  0  0  0  0  0  0  0  0
  -11.8800   10.4860   50.0130 O   0  0  0  0  0  0  0  0  0  0  0  0
  -11.0850    8.4780   48.9430 C   0  0  0  0  0  0  0  0  0  0  0  0
  -12.8190    8.8700   46.8020 C   0  0  0  0  0  0  0  0  0  0  0  0
  -13.8160    8.1950   46.4850 O   0  0  0  0  0  0  0  0  0  0  0  0
  -14.7367    9.7043   49.0090 H   0  0  0  0  0  0  0  0  0  0  0  0
  -17.0849   11.5930   47.0482 H   0  0  0  0  0  0  0  0  0  0  0  0
  -11.6600    8.8170   46.1420 N   0  0  0  0  0  0  0  0  0  0  0  0
  -11.4280    7.8620   45.0580 C   0  0  2  0  0  0  0  0  0  0  0  0
  -10.0960    7.1030   45.1960 C   0  0  0  0  0  0  0  0  0  0  0  0
   -9.1370    7.6310   45.7640 O   0  0  0  0  0  0  0  0  0  0  0  0
  -11.5130    8.5570   43.6950 C   0  0  0  0  0  0  0  0  0  0  0  0
  -10.3800    9.5130   43.3680 C   0  0  0  0  0  0  0  0  0  0  0  0
  -10.5000   10.0370   41.9420 C   0  0  0  0  0  0  0  0  0  0  0  0
  -11.6050   11.0620   41.8050 C   0  0  0  0  0  0  0  0  0  0  0  0
  -11.1740   12.4030   42.3150 N   0  3  0  0  0  0  0  0  0  0  0  0
  -16.6401   11.4250   48.7804 H   0  0  0  0  0  0  0  0  0  0  0  0
  -17.0154    9.9649   47.8038 H   0  0  0  0  0  0  0  0  0  0  0  0
  -12.4291   10.8302   47.6323 H   0  0  0  0  0  0  0  0  0  0  0  0
  -13.0225    8.7841   49.7632 H   0  0  0  0  0  0  0  0  0  0  0  0
  -10.0650    5.8570   44.7120 N   0  0  0  0  0  0  0  0  0  0  0  0
   -8.8750    4.9730   44.7400 C   0  0  2  0  0  0  0  0  0  0  0  0
   -7.6820    5.5180   43.9690 C   0  0  0  0  0  0  0  0  0  0  0  0
   -7.8130    6.4920   43.2210 O   0  0  0  0  0  0  0  0  0  0  0  0
   -9.1720    3.6680   43.9960 C   0  0  0  0  0  0  0  0  0  0  0  0
  -10.2390    2.8560   44.6270 C   0  0  0  0  0  0  0  0  0  0  0  0
  -10.5110    3.0290   45.8320 O   0  5  0  0  0  0  0  0  0  0  0  0
  -10.7900    2.0190   43.8940 O   0  0  0  0  0  0  0  0  0  0  0  0
  -11.4763   10.1726   50.8138 H   0  0  0  0  0  0  0  0  0  0  0  0
   -6.6040    4.7260   43.9720 N   0  0  0  0  0  0  0  0  0  0  0  0
   -5.4040    5.0360   43.2090 C   0  0  2  0  0  0  0  0  0  0  0  0
   -5.6980    4.8390   41.7140 C   0  0  0  0  0  0  0  0  0  0  0  0
   -4.8890    5.2180   40.8760 O   0  0  0  0  0  0  0  0  0  0  0  0
   -4.2370    4.1460   43.5960 C   0  0  2  0  0  0  0  0  0  0  0  0
   -3.8430    4.4620   44.9300 O   0  0  0  0  0  0  0  0  0  0  0  0
   -3.0390    4.3660   42.6730 C   0  0  0  0  0  0  0  0  0  0  0  0
  -10.6621    8.1328   49.8980 H   0  0  0  0  0  0  0  0  0  0  0  0
  -10.3216    9.0411   48.3862 H   0  0  0  0  0  0  0  0  0  0  0  0
   -6.8540    4.2630   41.3810 N   0  0  0  0  0  0  0  0  0  0  0  0
   -7.2250    4.0610   39.9830 C   0  0  2  0  0  0  0  0  0  0  0  0
   -8.4130    4.9370   39.6390 C   0  0  0  0  0  0  0  0  0  0  0  0
   -9.0960    4.7070   38.6360 O   0  0  0  0  0  0  0  0  0  0  0  0
   -7.5570    2.5890   39.6730 C   0  0  0  0  0  0  0  0  0  0  0  0
   -6.3740    1.6360   39.9200 C   0  0  0  0  0  0  0  0  0  0  0  0
   -5.2170    1.9400   39.5930 O   0  0  0  0  0  0  0  0  0  0  0  0
   -6.6650    0.4880   40.5110 N   0  0  0  0  0  0  0  0  0  0  0  0
  -11.4061    7.6096   48.3490 H   0  0  0  0  0  0  0  0  0  0  0  0
   -8.6800    5.9150   40.5010 N   0  0  0  0  0  0  0  0  0  0  0  0
   -9.7670    6.8750   40.3160 C   0  0  2  0  0  0  0  0  0  0  0  0
  -11.1680    6.2820   40.3810 C   0  0  0  0  0  0  0  0  0  0  0  0
  -12.0440    6.6130   39.5850 O   0  0  0  0  0  0  0  0  0  0  0  0
   -9.5640    7.6290   39.0030 C   0  0  0  0  0  0  0  0  0  0  0  0
   -8.1700    8.1930   38.8830 C   0  0  0  0  0  0  0  0  0  0  0  0
   -7.6600    8.8230   39.8220 O   0  0  0  0  0  0  0  0  0  0  0  0
   -7.5090    7.9110   37.7590 N   0  0  0  0  0  0  0  0  0  0  0  0
  -10.9280    9.4492   46.3961 H   0  0  0  0  0  0  0  0  0  0  0  0
  -11.3810    5.4090   41.3510 N   0  0  0  0  0  0  0  0  0  0  0  0
  -12.6870    4.7660   41.5140 C   0  0  2  0  0  0  0  0  0  0  0  0
  -13.3170    5.3380   42.7790 C   0  0  0  0  0  0  0  0  0  0  0  0
  -12.6180    5.7180   43.7280 O   0  0  0  0  0  0  0  0  0  0  0  0
  -12.5630    3.2270   41.6740 C   0  0  0  0  0  0  0  0  0  0  0  0
  -11.8640    2.5130   40.4740 C   0  0  0  0  0  0  0  0  0  0  0  0
  -12.1950    2.7120   39.2930 O   0  0  0  0  0  0  0  0  0  0  0  0
  -10.9520    1.6050   40.8090 N   0  0  0  0  0  0  0  0  0  0  0  0
  -12.2347    7.1156   45.1038 H   0  0  0  0  0  0  0  0  0  0  0  0
  -14.6350    5.3610   42.8370 N   0  0  0  0  0  0  0  0  0  0  0  0
  -15.2510    5.8930   44.0330 C   0  0  2  0  0  0  0  0  0  0  0  0
  -15.1610    4.9450   45.2350 C   0  0  0  0  0  0  0  0  0  0  0  0
  -15.5770    3.7880   45.1870 O   0  0  0  0  0  0  0  0  0  0  0  0
  -16.6630    6.3640   43.7330 C   0  0  0  0  0  0  0  0  0  0  0  0
  -16.5610    7.8400   43.3400 C   0  0  0  0  0  0  0  0  0  0  0  0
  -17.7930    8.3030   42.5920 C   0  0  0  0  0  0  0  0  0  0  0  0
  -16.3290    8.6610   44.6080 C   0  0  0  0  0  0  0  0  0  0  0  0
  -12.4538    9.1261   43.6646 H   0  0  0  0  0  0  0  0  0  0  0  0
   -2.2560    5.8630   52.2040 C   0  0  0  0  0  0  0  0  0  0  0  0
   -1.6230    6.6990   52.8550 O   0  0  0  0  0  0  0  0  0  0  0  0
   -1.5640    4.8110   51.6470 C   0  0  0  0  0  0  0  0  0  0  0  0
   -2.2270    3.8740   50.8670 C   0  0  0  0  0  0  0  0  0  0  0  0
   -1.3820    2.8270   50.3410 O   0  0  0  0  0  0  0  0  0  0  0  0
   -2.1300    1.9350   49.5740 C   0  0  0  0  0  0  0  0  0  0  0  0
   -1.3500    0.9190   49.0810 C   0  0  0  0  0  0  0  0  0  0  0  0
   -1.9350   -0.0740   48.3160 C   0  0  0  0  0  0  0  0  0  0  0  0
   -1.2560   -1.0350   47.9190 O   0  0  0  0  0  0  0  0  0  0  0  0
   -3.2970   -0.0220   48.0400 C   0  0  0  0  0  0  0  0  0  0  0  0
   -4.0680    1.0100   48.5390 C   0  0  0  0  0  0  0  0  0  0  0  0
   -3.4970    1.9880   49.3100 C   0  0  0  0  0  0  0  0  0  0  0  0
   -4.2440    3.0010   49.8710 C   0  0  0  0  0  0  0  0  0  0  0  0
   -3.6040    3.9800   50.6460 C   0  0  0  0  0  0  0  0  0  0  0  0
   -4.2990    5.0560   51.2190 C   0  0  0  0  0  0  0  0  0  0  0  0
   -3.6250    5.9880   51.9900 C   0  0  0  0  0  0  0  0  0  0  0  0
   -5.6560    2.9980   49.8060 C   0  0  0  0  0  0  0  0  0  0  0  0
   -6.3710    2.9050   50.9990 C   0  0  0  0  0  0  0  0  0  0  0  0
   -7.7540    2.9830   51.0020 C   0  0  0  0  0  0  0  0  0  0  0  0
   -8.4800    3.1400   49.8310 C   0  0  0  0  0  0  0  0  0  0  0  0
   -7.7840    3.2130   48.6260 C   0  0  0  0  0  0  0  0  0  0  0  0
   -6.3750    3.1570   48.5710 C   0  0  0  0  0  0  0  0  0  0  0  0
   -5.7870    3.4240   47.3370 C   0  0  0  0  0  0  0  0  0  0  0  0
   -4.6350    3.9020   47.2760 O   0  5  0  0  0  0  0  0  0  0  0  0
   -6.4080    3.2140   46.2610 O   0  0  0  0  0  0  0  0  0  0  0  0
   -9.8090    3.1790   49.8490 N   0  0  0  0  0  0  0  0  0  0  0  0
  -10.8860    3.8890   49.5300 C   0  0  0  0  0  0  0  0  0  0  0  0
  -10.9300    4.9800   48.9670 O   0  0  0  0  0  0  0  0  0  0  0  0
  -12.1720    3.2280   49.8780 C   0  0  0  0  0  0  0  0  0  0  0  0
  -12.8470    2.4950   48.4130 S   0  0  0  0  0  0  0  0  0  0  0  0
  -13.0290    3.9390   47.3940 C   0  0  0  0  0  0  0  0  0  0  0  0
  -14.3800    4.6180   47.4840 C   0  0  2  0  0  0  0  0  0  0  0  0
  -14.5520    5.4290   46.3040 N   0  0  0  0  0  0  0  0  0  0  0  0
  -13.6650    6.4220   48.8860 O   0  0  0  0  0  0  0  0  0  0  0  0
  -14.4390    5.4710   48.7460 C   0  0  0  0  0  0  0  0  0  0  0  0
  -15.3270    5.1130   49.6880 N   0  0  0  0  0  0  0  0  0  0  0  0
  -11.5309    7.7773   42.9193 H   0  0  0  0  0  0  0  0  0  0  0  0
   -9.4213    8.9850   43.4774 H   0  0  0  0  0  0  0  0  0  0  0  0
  -10.4129   10.3619   44.0668 H   0  0  0  0  0  0  0  0  0  0  0  0
  -10.7139    9.1926   41.2703 H   0  0  0  0  0  0  0  0  0  0  0  0
   -9.5461   10.5027   41.6534 H   0  0  0  0  0  0  0  0  0  0  0  0
  -12.4794   10.7245   42.3807 H   0  0  0  0  0  0  0  0  0  0  0  0
  -11.8781   11.1539   40.7434 H   0  0  0  0  0  0  0  0  0  0  0  0
  -11.9301   13.0613   42.2100 H   0  0  0  0  0  0  0  0  0  0  0  0
  -10.3755   12.7218   41.7889 H   0  0  0  0  0  0  0  0  0  0  0  0
  -10.9265   12.3283   43.2893 H   0  0  0  0  0  0  0  0  0  0  0  0
  -10.9029    5.4961   44.3025 H   0  0  0  0  0  0  0  0  0  0  0  0
   -8.5992    4.7804   45.7873 H   0  0  0  0  0  0  0  0  0  0  0  0
   -8.2507    3.0679   43.9647 H   0  0  0  0  0  0  0  0  0  0  0  0
   -9.4836    3.9153   42.9705 H   0  0  0  0  0  0  0  0  0  0  0  0
   -6.6234    3.8892   44.5192 H   0  0  0  0  0  0  0  0  0  0  0  0
   -5.1277    6.0846   43.3934 H   0  0  0  0  0  0  0  0  0  0  0  0
   -4.5503    3.0931   43.5394 H   0  0  0  0  0  0  0  0  0  0  0  0
   -4.5732    4.3115   45.5188 H   0  0  0  0  0  0  0  0  0  0  0  0
   -2.2134    3.7074   42.9805 H   0  0  0  0  0  0  0  0  0  0  0  0
   -2.7145    5.4151   42.7371 H   0  0  0  0  0  0  0  0  0  0  0  0
   -3.3268    4.1338   41.6370 H   0  0  0  0  0  0  0  0  0  0  0  0
   -7.4786    3.9638   42.1024 H   0  0  0  0  0  0  0  0  0  0  0  0
   -6.3728    4.3600   39.3550 H   0  0  0  0  0  0  0  0  0  0  0  0
   -7.8530    2.5123   38.6164 H   0  0  0  0  0  0  0  0  0  0  0  0
   -8.3962    2.2777   40.3124 H   0  0  0  0  0  0  0  0  0  0  0  0
   -5.9405   -0.1750   40.6997 H   0  0  0  0  0  0  0  0  0  0  0  0
   -7.6093    0.2836   40.7688 H   0  0  0  0  0  0  0  0  0  0  0  0
   -8.1079    5.9975   41.3170 H   0  0  0  0  0  0  0  0  0  0  0  0
   -9.6936    7.6035   41.1369 H   0  0  0  0  0  0  0  0  0  0  0  0
  -10.2870    8.4565   38.9536 H   0  0  0  0  0  0  0  0  0  0  0  0
   -9.7403    6.9376   38.1658 H   0  0  0  0  0  0  0  0  0  0  0  0
   -6.5810    8.2582   37.6242 H   0  0  0  0  0  0  0  0  0  0  0  0
   -7.9416    7.3524   37.0513 H   0  0  0  0  0  0  0  0  0  0  0  0
  -10.6392    5.1843   41.9829 H   0  0  0  0  0  0  0  0  0  0  0  0
  -13.3179    4.9896   40.6411 H   0  0  0  0  0  0  0  0  0  0  0  0
  -13.5746    2.8088   41.7824 H   0  0  0  0  0  0  0  0  0  0  0  0
  -11.9813    3.0206   42.5845 H   0  0  0  0  0  0  0  0  0  0  0  0
  -10.4600    1.1041   40.0969 H   0  0  0  0  0  0  0  0  0  0  0  0
  -10.7582    1.4231   41.7730 H   0  0  0  0  0  0  0  0  0  0  0  0
  -15.1906    5.0214   42.0781 H   0  0  0  0  0  0  0  0  0  0  0  0
  -14.6754    6.7882   44.3109 H   0  0  0  0  0  0  0  0  0  0  0  0
  -17.2973    6.2523   44.6247 H   0  0  0  0  0  0  0  0  0  0  0  0
  -17.0893    5.7798   42.9042 H   0  0  0  0  0  0  0  0  0  0  0  0
  -15.6932    7.9674   42.6761 H   0  0  0  0  0  0  0  0  0  0  0  0
  -17.6835    9.3650   42.3271 H   0  0  0  0  0  0  0  0  0  0  0  0
  -18.6796    8.1738   43.2302 H   0  0  0  0  0  0  0  0  0  0  0  0
  -17.9111    7.7067   41.6752 H   0  0  0  0  0  0  0  0  0  0  0  0
  -15.4277    8.2953   45.1218 H   0  0  0  0  0  0  0  0  0  0  0  0
  -17.1979    8.5592   45.2748 H   0  0  0  0  0  0  0  0  0  0  0  0
  -16.1943    9.7193   44.3401 H   0  0  0  0  0  0  0  0  0  0  0  0
   -2.2191    7.3639   53.1791 H   0  0  0  0  0  0  0  0  0  0  0  0
   -0.4980    4.7144   51.8183 H   0  0  0  0  0  0  0  0  0  0  0  0
   -0.2864    0.8950   49.2890 H   0  0  0  0  0  0  0  0  0  0  0  0
   -1.8050   -1.6210   47.4114 H   0  0  0  0  0  0  0  0  0  0  0  0
   -3.7550   -0.7934   47.4316 H   0  0  0  0  0  0  0  0  0  0  0  0
   -5.1290    1.0461   48.3196 H   0  0  0  0  0  0  0  0  0  0  0  0
   -4.1670    3.6100   48.9582 H   0  0  0  0  0  0  0  0  0  0  0  0
   -5.3661    5.1578   51.0577 H   0  0  0  0  0  0  0  0  0  0  0  0
   -4.1663    6.8185   52.4287 H   0  0  0  0  0  0  0  0  0  0  0  0
   -5.8393    2.7703   51.9340 H   0  0  0  0  0  0  0  0  0  0  0  0
   -8.2834    2.9196   51.9458 H   0  0  0  0  0  0  0  0  0  0  0  0
   -8.3421    3.3160   47.7024 H   0  0  0  0  0  0  0  0  0  0  0  0
  -10.1262    2.3315   50.2746 H   0  0  0  0  0  0  0  0  0  0  0  0
  -12.8756    3.9735   50.2770 H   0  0  0  0  0  0  0  0  0  0  0  0
  -11.9953    2.4490   50.6342 H   0  0  0  0  0  0  0  0  0  0  0  0
  -12.8654    3.6415   46.3477 H   0  0  0  0  0  0  0  0  0  0  0  0
  -12.2604    4.6670   47.6928 H   0  0  0  0  0  0  0  0  0  0  0  0
  -15.1748    3.8587   47.5249 H   0  0  0  0  0  0  0  0  0  0  0  0
  -14.2069    6.3675   46.2942 H   0  0  0  0  0  0  0  0  0  0  0  0
  -15.4010    5.6432   50.5326 H   0  0  0  0  0  0  0  0  0  0  0  0
  -15.9141    4.3163   49.5447 H   0  0  0  0  0  0  0  0  0  0  0  0
  1  2  1  0  0  0  0
  1 11  1  0  0  0  0
  2  3  2  0  0  0  0
  2  4  1  0  0  0  0
  4 12  1  0  0  0  0
  4 22  1  0  0  0  0
  4 23  1  0  0  0  0
  5  1  1  0  0  0  0
  5  6  1  0  0  0  0
  5 24  1  6  0  0  0
  6  7  1  0  0  0  0
  6  8  1  0  0  0  0
  6 25  1  1  0  0  0
  7 34  1  0  0  0  0
  8 42  1  0  0  0  0
  8 43  1  0  0  0  0
  8 52  1  0  0  0  0
  9  5  1  0  0  0  0
  9 10  2  0  0  0  0
 13  9  1  0  0  0  0
 13 61  1  0  0  0  0
 14 13  1  0  0  0  0
 14 17  1  0  0  0  0
 14 70  1  1  0  0  0
 15 14  1  0  0  0  0
 15 16  2  0  0  0  0
 17 18  1  0  0  0  0
 17 79  1  0  0  0  0
 17116  1  0  0  0  0
 18 19  1  0  0  0  0
 18117  1  0  0  0  0
 18118  1  0  0  0  0
 19 20  1  0  0  0  0
 19119  1  0  0  0  0
 19120  1  0  0  0  0
 20 21  1  0  0  0  0
 20121  1  0  0  0  0
 20122  1  0  0  0  0
 21123  1  0  0  0  0
 21124  1  0  0  0  0
 21125  1  0  0  0  0
 26 15  1  0  0  0  0
 26126  1  0  0  0  0
 27 26  1  0  0  0  0
 27 30  1  0  0  0  0
 27127  1  1  0  0  0
 28 27  1  0  0  0  0
 28 29  2  0  0  0  0
 30 31  1  0  0  0  0
 30128  1  0  0  0  0
 30129  1  0  0  0  0
 31 32  1  0  0  0  0
 31 33  2  0  0  0  0
 35 28  1  0  0  0  0
 35130  1  0  0  0  0
 36 35  1  0  0  0  0
 36 39  1  0  0  0  0
 36131  1  1  0  0  0
 37 36  1  0  0  0  0
 37 38  2  0  0  0  0
 39 40  1  0  0  0  0
 39 41  1  0  0  0  0
 39132  1  6  0  0  0
 40133  1  0  0  0  0
 41134  1  0  0  0  0
 41135  1  0  0  0  0
 41136  1  0  0  0  0
 44 37  1  0  0  0  0
 44137  1  0  0  0  0
 45 44  1  0  0  0  0
 45 48  1  0  0  0  0
 45138  1  6  0  0  0
 46 45  1  0  0  0  0
 46 47  2  0  0  0  0
 48 49  1  0  0  0  0
 48139  1  0  0  0  0
 48140  1  0  0  0  0
 49 50  2  0  0  0  0
 49 51  1  0  0  0  0
 51141  1  0  0  0  0
 51142  1  0  0  0  0
 53 46  1  0  0  0  0
 53143  1  0  0  0  0
 54 53  1  0  0  0  0
 54 57  1  0  0  0  0
 54144  1  1  0  0  0
 55 54  1  0  0  0  0
 55 56  2  0  0  0  0
 57 58  1  0  0  0  0
 57145  1  0  0  0  0
 57146  1  0  0  0  0
 58 59  2  0  0  0  0
 58 60  1  0  0  0  0
 60147  1  0  0  0  0
 60148  1  0  0  0  0
 62 55  1  0  0  0  0
 62149  1  0  0  0  0
 63 62  1  0  0  0  0
 63 66  1  0  0  0  0
 63150  1  6  0  0  0
 64 63  1  0  0  0  0
 64 65  2  0  0  0  0
 66 67  1  0  0  0  0
 66151  1  0  0  0  0
 66152  1  0  0  0  0
 67 68  2  0  0  0  0
 67 69  1  0  0  0  0
 69153  1  0  0  0  0
 69154  1  0  0  0  0
 71 64  1  0  0  0  0
 71155  1  0  0  0  0
 72 71  1  0  0  0  0
 72 75  1  0  0  0  0
 72156  1  1  0  0  0
 73 72  1  0  0  0  0
 73 74  2  0  0  0  0
 75 76  1  0  0  0  0
 75157  1  0  0  0  0
 75158  1  0  0  0  0
 76 77  1  0  0  0  0
 76 78  1  0  0  0  0
 76159  1  0  0  0  0
 77160  1  0  0  0  0
 77161  1  0  0  0  0
 77162  1  0  0  0  0
 78163  1  0  0  0  0
 78164  1  0  0  0  0
 78165  1  0  0  0  0
 80 81  1  0  0  0  0
 81166  1  0  0  0  0
 82 80  2  0  0  0  0
 82167  1  0  0  0  0
 83 82  1  0  0  0  0
 83 84  1  0  0  0  0
 85 84  1  0  0  0  0
 85 86  2  0  0  0  0
 86 87  1  0  0  0  0
 86168  1  0  0  0  0
 87 88  1  0  0  0  0
 88169  1  0  0  0  0
 89 87  2  0  0  0  0
 89170  1  0  0  0  0
 90 89  1  0  0  0  0
 90171  1  0  0  0  0
 91 85  1  0  0  0  0
 91 90  2  0  0  0  0
 92 91  1  0  0  0  0
 92 93  1  0  0  0  0
 92172  1  0  0  0  0
 93 83  2  0  0  0  0
 93 94  1  0  0  0  0
 94 95  2  0  0  0  0
 94173  1  0  0  0  0
 95 80  1  0  0  0  0
 95174  1  0  0  0  0
 96 92  1  0  0  0  0
 97 96  2  0  0  0  0
 97175  1  0  0  0  0
 98 97  1  0  0  0  0
 98176  1  0  0  0  0
 99 98  2  0  0  0  0
 99100  1  0  0  0  0
100101  2  0  0  0  0
100177  1  0  0  0  0
101 96  1  0  0  0  0
101102  1  0  0  0  0
102103  1  0  0  0  0
102104  2  0  0  0  0
105 99  1  0  0  0  0
105178  1  0  0  0  0
106105  1  0  0  0  0
106107  2  0  0  0  0
108106  1  0  0  0  0
108179  1  0  0  0  0
108180  1  0  0  0  0
109108  1  0  0  0  0
110109  1  0  0  0  0
110181  1  0  0  0  0
110182  1  0  0  0  0
111110  1  0  0  0  0
111112  1  0  0  0  0
111114  1  0  0  0  0
111183  1  1  0  0  0
112 73  1  0  0  0  0
112184  1  0  0  0  0
114113  2  0  0  0  0
114115  1  0  0  0  0
115185  1  0  0  0  0
115186  1  0  0  0  0
M  CHG  3  21   1  32  -1 103  -1
M  END
