1mpl_ligand
 OpenBabel08222323343D

 42 41  0  0  1  0  0  0  0  0999 V2000
   25.9390  -19.0030   39.5930 N   0  3  0  0  0  0  0  0  0  0  0  0
   25.3040  -17.6030   39.5320 C   0  0  0  0  0  0  0  0  0  0  0  0
   24.6200  -17.4960   38.1570 C   0  0  0  0  0  0  0  0  0  0  0  0
   24.2120  -16.2480   37.8540 N   0  0  0  0  0  0  0  0  0  0  0  0
   23.4880  -15.8720   36.6450 C   0  0  1  0  0  0  0  0  0  0  0  0
   22.0810  -15.3450   36.9370 C   0  0  0  0  0  0  0  0  0  0  0  0
   21.1890  -16.3060   37.7450 C   0  0  0  0  0  0  0  0  0  0  0  0
   19.7620  -15.6290   37.7520 C   0  0  0  0  0  0  0  0  0  0  0  0
   19.6300  -14.3000   38.4860 C   0  0  0  0  0  0  0  0  0  0  0  0
   18.1720  -13.9100   38.6880 C   0  0  0  0  0  0  0  0  0  0  0  0
   17.6430  -13.1560   37.7310 N   0  0  0  0  0  0  0  0  0  0  0  0
   16.2350  -12.6980   37.8010 C   0  0  1  0  0  0  0  0  0  0  0  0
   16.3130  -10.9150   38.1530 P   0  0  1  0  0  0  0  0  0  0  0  0
   24.4750  -18.4380   37.4300 O   0  0  0  0  0  0  0  0  0  0  0  0
   24.2780  -14.7670   35.9400 C   0  0  0  0  0  0  0  0  0  0  0  0
   24.9820  -13.9420   36.5820 O   0  5  0  0  0  0  0  0  0  0  0  0
   24.0680  -14.7580   34.7190 O   0  0  0  0  0  0  0  0  0  0  0  0
   17.5670  -14.3060   39.6410 O   0  0  0  0  0  0  0  0  0  0  0  0
   15.4860  -12.9790   36.4740 C   0  0  0  0  0  0  0  0  0  0  0  0
   16.7700  -10.6740   39.5420 O   0  0  0  0  0  1  0  0  0  0  0  0
   16.9810  -10.1990   37.0360 O   0  0  0  0  0  0  0  0  0  0  0  0
   26.4025  -19.1233   40.4800 H   0  0  0  0  0  0  0  0  0  0  0  0
   26.6102  -19.1003   38.8473 H   0  0  0  0  0  0  0  0  0  0  0  0
   25.2204  -19.7026   39.4918 H   0  0  0  0  0  0  0  0  0  0  0  0
   26.0790  -16.8289   39.6327 H   0  0  0  0  0  0  0  0  0  0  0  0
   24.5624  -17.4862   40.3360 H   0  0  0  0  0  0  0  0  0  0  0  0
   24.4221  -15.5227   38.5096 H   0  0  0  0  0  0  0  0  0  0  0  0
   23.4097  -16.7511   35.9885 H   0  0  0  0  0  0  0  0  0  0  0  0
   21.5846  -15.1427   35.9765 H   0  0  0  0  0  0  0  0  0  0  0  0
   22.1771  -14.4077   37.5047 H   0  0  0  0  0  0  0  0  0  0  0  0
   21.5697  -16.4165   38.7711 H   0  0  0  0  0  0  0  0  0  0  0  0
   21.1464  -17.2930   37.2614 H   0  0  0  0  0  0  0  0  0  0  0  0
   19.0612  -16.3368   38.2188 H   0  0  0  0  0  0  0  0  0  0  0  0
   19.4697  -15.4602   36.7051 H   0  0  0  0  0  0  0  0  0  0  0  0
   20.1302  -13.5167   37.8976 H   0  0  0  0  0  0  0  0  0  0  0  0
   20.1153  -14.3862   39.4694 H   0  0  0  0  0  0  0  0  0  0  0  0
   18.2058  -12.8921   36.9477 H   0  0  0  0  0  0  0  0  0  0  0  0
   15.7133  -13.2174   38.6183 H   0  0  0  0  0  0  0  0  0  0  0  0
   15.3621  -10.5810   38.1374 H   0  0  0  0  0  0  0  0  0  0  0  0
   15.4571  -14.0634   36.2919 H   0  0  0  0  0  0  0  0  0  0  0  0
   16.0103  -12.4818   35.6446 H   0  0  0  0  0  0  0  0  0  0  0  0
   14.4589  -12.5914   36.5435 H   0  0  0  0  0  0  0  0  0  0  0  0
  1  2  1  0  0  0  0
  1 22  1  0  0  0  0
  1 23  1  0  0  0  0
  1 24  1  0  0  0  0
  2  3  1  0  0  0  0
  2 25  1  0  0  0  0
  2 26  1  0  0  0  0
  3  4  1  0  0  0  0
  3 14  2  0  0  0  0
  4  5  1  0  0  0  0
  4 27  1  0  0  0  0
  5  6  1  0  0  0  0
  5 15  1  0  0  0  0
  5 28  1  6  0  0  0
  6  7  1  0  0  0  0
  6 29  1  0  0  0  0
  6 30  1  0  0  0  0
  7  8  1  0  0  0  0
  7 31  1  0  0  0  0
  7 32  1  0  0  0  0
  8  9  1  0  0  0  0
  8 33  1  0  0  0  0
  8 34  1  0  0  0  0
  9 10  1  0  0  0  0
  9 35  1  0  0  0  0
  9 36  1  0  0  0  0
 10 11  1  0  0  0  0
 10 18  2  0  0  0  0
 11 12  1  0  0  0  0
 11 37  1  0  0  0  0
 12 13  1  0  0  0  0
 12 19  1  0  0  0  0
 12 38  1  1  0  0  0
 13 20  1  0  0  0  0
 13 21  2  0  0  0  0
 13 39  1  6  0  0  0
 15 16  1  0  0  0  0
 15 17  2  0  0  0  0
 19 40  1  0  0  0  0
 19 41  1  0  0  0  0
 19 42  1  0  0  0  0
M  CHG  2   1   1  16  -1
M  END
