1mqh_ligand
 OpenBabel08222323343D

 23 23  0  0  1  0  0  0  0  0999 V2000
   15.7260   43.9930   15.3850 N   0  0  0  0  0  0  0  0  0  0  0  0
   15.4890   45.2560   14.7790 C   0  0  0  0  0  0  0  0  0  0  0  0
   15.3010   46.2820   15.3870 O   0  0  0  0  0  0  0  0  0  0  0  0
   15.4900   45.2160   13.3620 N   0  0  0  0  0  0  0  0  0  0  0  0
   15.6990   44.1270   12.5440 C   0  0  0  0  0  0  0  0  0  0  0  0
   15.6630   44.1960   11.3240 O   0  0  0  0  0  0  0  0  0  0  0  0
   15.9490   42.8430   13.3120 C   0  0  0  0  0  0  0  0  0  0  0  0
   16.3090   41.2560   12.3810 Br  0  0  0  0  0  0  0  0  0  0  0  0
   15.9640   42.8790   14.6610 C   0  0  0  0  0  0  0  0  0  0  0  0
   15.8190   43.8800   16.8520 C   0  0  0  0  0  0  0  0  0  0  0  0
   17.0620   44.5400   17.4280 C   0  0  2  0  0  0  0  0  0  0  0  0
   18.2470   43.6520   17.1660 N   0  3  0  0  0  0  0  0  0  0  0  0
   16.9770   44.9090   18.9130 C   0  0  0  0  0  0  0  0  0  0  0  0
   17.8250   44.4850   19.6570 O   0  5  0  0  0  0  0  0  0  0  0  0
   15.9590   45.6300   19.2350 O   0  0  0  0  0  0  0  0  0  0  0  0
   15.3178   46.0854   12.8989 H   0  0  0  0  0  0  0  0  0  0  0  0
   16.1807   41.9558   15.1964 H   0  0  0  0  0  0  0  0  0  0  0  0
   15.8341   42.8132   17.1199 H   0  0  0  0  0  0  0  0  0  0  0  0
   14.9328   44.3570   17.2959 H   0  0  0  0  0  0  0  0  0  0  0  0
   17.2136   45.4799   16.8770 H   0  0  0  0  0  0  0  0  0  0  0  0
   19.0777   44.0800   17.5440 H   0  0  0  0  0  0  0  0  0  0  0  0
   18.3576   43.5237   16.1723 H   0  0  0  0  0  0  0  0  0  0  0  0
   18.1002   42.7571   17.6061 H   0  0  0  0  0  0  0  0  0  0  0  0
  1  2  1  0  0  0  0
  1  9  1  0  0  0  0
  1 10  1  0  0  0  0
  2  3  2  0  0  0  0
  2  4  1  0  0  0  0
  4  5  1  0  0  0  0
  4 16  1  0  0  0  0
  5  6  2  0  0  0  0
  5  7  1  0  0  0  0
  7  8  1  0  0  0  0
  7  9  2  0  0  0  0
  9 17  1  0  0  0  0
 10 11  1  0  0  0  0
 10 18  1  0  0  0  0
 10 19  1  0  0  0  0
 11 12  1  0  0  0  0
 11 13  1  0  0  0  0
 11 20  1  6  0  0  0
 12 21  1  0  0  0  0
 12 22  1  0  0  0  0
 12 23  1  0  0  0  0
 13 14  1  0  0  0  0
 13 15  2  0  0  0  0
M  CHG  2  12   1  14  -1
M  END
