1ms0_ligand
 OpenBabel08222323343D

 38 38  0  0  1  0  0  0  0  0999 V2000
   34.6050  -15.8460    9.5840 C   0  0  0  0  0  0  0  0  0  0  0  0
   33.7160  -16.1120   10.6570 C   0  0  1  0  0  0  0  0  0  0  0  0
   34.2630  -16.3080   12.0560 C   0  0  0  0  0  0  0  0  0  0  0  0
   33.2400  -16.9410   12.9940 C   0  0  1  0  0  0  0  0  0  0  0  0
   32.3650  -17.8500   12.1730 C   0  0  2  0  0  0  0  0  0  0  0  0
   31.6040  -16.9760   11.1970 C   0  0  2  0  0  0  0  0  0  0  0  0
   30.6760  -17.8780   10.3660 C   0  0  1  0  0  0  0  0  0  0  0  0
   29.6120  -17.0800    9.6470 C   0  0  1  0  0  0  0  0  0  0  0  0
   28.7460  -18.0500    8.8490 C   0  0  0  0  0  0  0  0  0  0  0  0
   31.2740  -19.9490   12.7040 C   0  0  0  0  0  0  0  0  0  0  0  0
   32.3290  -20.5910   11.8400 C   0  0  0  0  0  0  0  0  0  0  0  0
   31.4590  -18.6500   12.9840 N   0  0  0  0  0  0  0  0  0  0  0  0
   34.8930  -16.8120    8.5800 O   0  5  0  0  0  0  0  0  0  0  0  0
   35.2100  -14.6830    9.4650 O   0  0  0  0  0  0  0  0  0  0  0  0
   33.8740  -17.7210   13.9740 O   0  0  0  0  0  0  0  0  0  0  0  0
   32.4720  -16.1560   10.4120 O   0  0  0  0  0  0  0  0  0  0  0  0
   31.3590  -18.6980    9.4310 O   0  0  0  0  0  0  0  0  0  0  0  0
   28.8660  -16.3770   10.6120 O   0  0  0  0  0  0  0  0  0  0  0  0
   29.3810  -18.3560    7.6270 O   0  0  0  0  0  0  0  0  0  0  0  0
   30.1670  -20.6860   13.1810 O   0  0  0  0  0  0  0  0  0  0  0  0
   33.7962  -17.1937   10.4738 H   0  0  0  0  0  0  0  0  0  0  0  0
   34.5563  -15.3285   12.4616 H   0  0  0  0  0  0  0  0  0  0  0  0
   35.1459  -16.9620   12.0023 H   0  0  0  0  0  0  0  0  0  0  0  0
   32.6368  -16.1563   13.4739 H   0  0  0  0  0  0  0  0  0  0  0  0
   33.0085  -18.5401   11.6076 H   0  0  0  0  0  0  0  0  0  0  0  0
   30.9674  -16.2946   11.7805 H   0  0  0  0  0  0  0  0  0  0  0  0
   30.1674  -18.5475   11.0753 H   0  0  0  0  0  0  0  0  0  0  0  0
   30.0810  -16.3623    8.9579 H   0  0  0  0  0  0  0  0  0  0  0  0
   27.7685  -17.5875    8.6478 H   0  0  0  0  0  0  0  0  0  0  0  0
   28.6023  -18.9740    9.4282 H   0  0  0  0  0  0  0  0  0  0  0  0
   32.0755  -21.6489   11.6770 H   0  0  0  0  0  0  0  0  0  0  0  0
   33.3058  -20.5210   12.3410 H   0  0  0  0  0  0  0  0  0  0  0  0
   32.3756  -20.0717   10.8714 H   0  0  0  0  0  0  0  0  0  0  0  0
   30.9736  -18.2307   13.7512 H   0  0  0  0  0  0  0  0  0  0  0  0
   34.3992  -18.3913   13.5528 H   0  0  0  0  0  0  0  0  0  0  0  0
   30.7404  -19.2900    9.0194 H   0  0  0  0  0  0  0  0  0  0  0  0
   29.4397  -15.7860   11.0853 H   0  0  0  0  0  0  0  0  0  0  0  0
   30.2250  -18.7556    7.8014 H   0  0  0  0  0  0  0  0  0  0  0  0
  1 13  1  0  0  0  0
  1 14  2  0  0  0  0
  2  1  1  0  0  0  0
  2 21  1  6  0  0  0
  3  2  1  0  0  0  0
  3 22  1  0  0  0  0
  3 23  1  0  0  0  0
  4  3  1  0  0  0  0
  4 15  1  0  0  0  0
  4 24  1  1  0  0  0
  5  4  1  0  0  0  0
  5  6  1  0  0  0  0
  5 25  1  6  0  0  0
  6  7  1  0  0  0  0
  6 16  1  0  0  0  0
  6 26  1  1  0  0  0
  7  8  1  0  0  0  0
  7 17  1  0  0  0  0
  7 27  1  1  0  0  0
  8  9  1  0  0  0  0
  8 18  1  0  0  0  0
  8 28  1  6  0  0  0
  9 19  1  0  0  0  0
  9 29  1  0  0  0  0
  9 30  1  0  0  0  0
 10 11  1  0  0  0  0
 10 12  1  0  0  0  0
 10 20  2  0  0  0  0
 11 31  1  0  0  0  0
 11 32  1  0  0  0  0
 11 33  1  0  0  0  0
 12  5  1  0  0  0  0
 12 34  1  0  0  0  0
 15 35  1  0  0  0  0
 16  2  1  0  0  0  0
 17 36  1  0  0  0  0
 18 37  1  0  0  0  0
 19 38  1  0  0  0  0
M  CHG  1  13  -1
M  END
