1ms7_ligand
 OpenBabel08222323343D

 20 20  0  0  1  0  0  0  0  0999 V2000
   11.1980   24.9750    8.4310 O   0  0  0  0  0  0  0  0  0  0  0  0
   11.4760   26.3750    8.5270 N   0  0  0  0  0  0  0  0  0  0  0  0
   11.2160   24.6430    7.1180 C   0  0  0  0  0  0  0  0  0  0  0  0
   11.4710   25.7030    6.3330 C   0  0  0  0  0  0  0  0  0  0  0  0
   11.6730   26.7960    7.2770 C   0  0  0  0  0  0  0  0  0  0  0  0
   11.9940   27.9860    7.0250 O   0  0  0  0  0  0  0  0  0  0  0  0
   11.5530   25.8350    4.8320 C   0  0  0  0  0  0  0  0  0  0  0  0
   10.2310   26.2520    4.1260 C   0  0  2  0  0  0  0  0  0  0  0  0
    9.1760   25.1970    4.3250 N   0  3  0  0  0  0  0  0  0  0  0  0
   10.5620   26.5230    2.6110 C   0  0  0  0  0  0  0  0  0  0  0  0
    9.8850   25.8630    1.7630 O   0  5  0  0  0  0  0  0  0  0  0  0
   11.4500   27.3790    2.3200 O   0  0  0  0  0  0  0  0  0  0  0  0
   11.5147   26.9255    9.3610 H   0  0  0  0  0  0  0  0  0  0  0  0
   11.0440   23.6353    6.7427 H   0  0  0  0  0  0  0  0  0  0  0  0
   11.8645   24.8629    4.4223 H   0  0  0  0  0  0  0  0  0  0  0  0
   12.3157   26.5926    4.5990 H   0  0  0  0  0  0  0  0  0  0  0  0
    9.8640   27.1869    4.5746 H   0  0  0  0  0  0  0  0  0  0  0  0
    8.3262   25.4803    3.8628 H   0  0  0  0  0  0  0  0  0  0  0  0
    8.9995   25.0800    5.3105 H   0  0  0  0  0  0  0  0  0  0  0  0
    9.4957   24.3243    3.9349 H   0  0  0  0  0  0  0  0  0  0  0  0
  1  2  1  0  0  0  0
  1  3  1  0  0  0  0
  2  5  1  0  0  0  0
  2 13  1  0  0  0  0
  3  4  2  0  0  0  0
  3 14  1  0  0  0  0
  4  5  1  0  0  0  0
  4  7  1  0  0  0  0
  5  6  2  0  0  0  0
  7  8  1  0  0  0  0
  7 15  1  0  0  0  0
  7 16  1  0  0  0  0
  8  9  1  0  0  0  0
  8 10  1  0  0  0  0
  8 17  1  1  0  0  0
  9 18  1  0  0  0  0
  9 19  1  0  0  0  0
  9 20  1  0  0  0  0
 10 11  1  0  0  0  0
 10 12  2  0  0  0  0
M  CHG  2   9   1  11  -1
M  END
