1mxl_ligand
 OpenBabel08222323343D

261260  0  0  1  0  0  0  0  0999 V2000
   53.7630    4.3340    6.7510 N   0  3  0  0  0  0  0  0  0  0  0  0
   54.3680    5.6860    6.9270 C   0  0  2  0  0  0  0  0  0  0  0  0
   54.9360    6.1850    5.5950 C   0  0  0  0  0  0  0  0  0  0  0  0
   55.7340    7.1000    5.5550 O   0  0  0  0  0  0  0  0  0  0  0  0
   55.4870    5.4910    7.9490 C   0  0  0  0  0  0  0  0  0  0  0  0
   55.7350    6.8050    8.6940 C   0  0  0  0  0  0  0  0  0  0  0  0
   56.8850    7.5640    8.0280 C   0  0  0  0  0  0  0  0  0  0  0  0
   57.4680    8.4050    9.1100 N   0  0  0  0  0  0  0  0  0  0  0  0
   57.9210    9.5980    8.8400 C   0  0  0  0  0  3  0  0  0  0  0  0
   59.1390    9.7510    8.3980 N   0  0  0  0  0  0  0  0  0  0  0  0
   57.1560   10.6410    9.0140 N   0  0  0  0  0  0  0  0  0  0  0  0
   54.5320    5.5890    4.5070 N   0  0  0  0  0  0  0  0  0  0  0  0
   55.0500    6.0280    3.1790 C   0  0  2  0  0  0  0  0  0  0  0  0
   53.9170    6.6300    2.3430 C   0  0  0  0  0  0  0  0  0  0  0  0
   53.8840    6.4940    1.1370 O   0  0  0  0  0  0  0  0  0  0  0  0
   55.5830    4.7540    2.5220 C   0  0  2  0  0  0  0  0  0  0  0  0
   56.4830    4.0100    3.5110 C   0  0  0  0  0  0  0  0  0  0  0  0
   56.3920    5.1200    1.2760 C   0  0  0  0  0  0  0  0  0  0  0  0
   57.7740    4.8040    3.7220 C   0  0  0  0  0  0  0  0  0  0  0  0
   52.9890    7.2940    2.9760 N   0  0  0  0  0  0  0  0  0  0  0  0
   51.8610    7.9030    2.2150 C   0  0  2  0  0  0  0  0  0  0  0  0
   51.3270    6.9080    1.1810 C   0  0  0  0  0  0  0  0  0  0  0  0
   51.4880    7.0860   -0.0100 O   0  0  0  0  0  0  0  0  0  0  0  0
   52.4630    9.1250    1.5240 C   0  0  0  0  0  0  0  0  0  0  0  0
   51.6330   10.2540    1.7610 O   0  0  0  0  0  0  0  0  0  0  0  0
   50.6940    5.8590    1.6300 N   0  0  0  0  0  0  0  0  0  0  0  0
   50.1510    4.8480    0.6770 C   0  0  2  0  0  0  0  0  0  0  0  0
   49.2990    5.5280   -0.3990 C   0  0  0  0  0  0  0  0  0  0  0  0
   49.2590    5.0980   -1.5340 O   0  0  0  0  0  0  0  0  0  0  0  0
   49.2880    3.9230    1.5370 C   0  0  0  0  0  0  0  0  0  0  0  0
   48.6140    6.5830   -0.0500 N   0  0  0  0  0  0  0  0  0  0  0  0
   47.7620    7.2840   -1.0540 C   0  0  2  0  0  0  0  0  0  0  0  0
   48.6180    8.1760   -1.9580 C   0  0  0  0  0  0  0  0  0  0  0  0
   48.4100    8.2460   -3.1530 O   0  0  0  0  0  0  0  0  0  0  0  0
   46.7950    8.1320   -0.2260 C   0  0  0  0  0  0  0  0  0  0  0  0
   47.5890    9.0330    0.7210 C   0  0  0  0  0  0  0  0  0  0  0  0
   48.3330    8.5010    1.5290 O   0  5  0  0  0  0  0  0  0  0  0  0
   47.4370   10.2400    0.6260 O   0  0  0  0  0  0  0  0  0  0  0  0
   49.5760    8.8590   -1.3970 N   0  0  0  0  0  0  0  0  0  0  0  0
   50.4400    9.7490   -2.2260 C   0  0  2  0  0  0  0  0  0  0  0  0
   51.5710    8.9450   -2.8750 C   0  0  0  0  0  0  0  0  0  0  0  0
   52.3390    9.4620   -3.6610 O   0  0  0  0  0  0  0  0  0  0  0  0
   51.0060   10.7760   -1.2450 C   0  0  0  0  0  0  0  0  0  0  0  0
   51.6820    7.6860   -2.5510 N   0  0  0  0  0  0  0  0  0  0  0  0
   52.7670    6.8560   -3.1520 C   0  0  2  0  0  0  0  0  0  0  0  0
   52.4520    6.5510   -4.6190 C   0  0  0  0  0  0  0  0  0  0  0  0
   53.2520    6.7990   -5.5000 O   0  0  0  0  0  0  0  0  0  0  0  0
   52.7860    5.5690   -2.3280 C   0  0  0  0  0  0  0  0  0  0  0  0
   54.2290    5.2250   -1.9530 C   0  0  0  0  0  0  0  0  0  0  0  0
   54.6890    3.6440   -2.7060 S   0  0  0  0  0  0  0  0  0  0  0  0
   55.9990    4.2740   -3.7840 C   0  0  0  0  0  0  0  0  0  0  0  0
   51.2950    6.0090   -4.8890 N   0  0  0  0  0  0  0  0  0  0  0  0
   50.9350    5.6850   -6.3000 C   0  0  2  0  0  0  0  0  0  0  0  0
   50.5160    6.9550   -7.0470 C   0  0  0  0  0  0  0  0  0  0  0  0
   50.6910    7.0680   -8.2440 O   0  0  0  0  0  0  0  0  0  0  0  0
   49.7600    4.7110   -6.1960 C   0  0  0  0  0  0  0  0  0  0  0  0
   50.2880    3.2780   -6.1300 C   0  0  0  0  0  0  0  0  0  0  0  0
   50.9940    2.9720   -4.4930 S   0  0  0  0  0  0  0  0  0  0  0  0
   52.7240    3.2590   -4.9380 C   0  0  0  0  0  0  0  0  0  0  0  0
   49.9610    7.9100   -6.3520 N   0  0  0  0  0  0  0  0  0  0  0  0
   49.5280    9.1680   -7.0240 C   0  0  2  0  0  0  0  0  0  0  0  0
   50.7440    9.9430   -7.5430 C   0  0  0  0  0  0  0  0  0  0  0  0
   50.6750   10.6240   -8.5460 O   0  0  0  0  0  0  0  0  0  0  0  0
   48.8070    9.9690   -5.9390 C   0  0  0  0  0  0  0  0  0  0  0  0
   47.4550   10.4490   -6.4700 C   0  0  0  0  0  0  0  0  0  0  0  0
   46.3570   10.0950   -5.4650 C   0  0  0  0  0  0  0  0  0  0  0  0
   45.8460   10.9580   -4.7780 O   0  0  0  0  0  0  0  0  0  0  0  0
   45.9680    8.8540   -5.3490 N   0  0  0  0  0  0  0  0  0  0  0  0
   51.8570    9.8460   -6.8660 N   0  0  0  0  0  0  0  0  0  0  0  0
   53.0720   10.5820   -7.3220 C   0  0  2  0  0  0  0  0  0  0  0  0
   53.8280    9.7620   -8.3730 C   0  0  0  0  0  0  0  0  0  0  0  0
   54.0870   10.2260   -9.4650 O   0  0  0  0  0  0  0  0  0  0  0  0
   53.9230   10.7600   -6.0650 C   0  0  0  0  0  0  0  0  0  0  0  0
   54.1830    8.5480   -8.0520 N   0  0  0  0  0  0  0  0  0  0  0  0
   54.9210    7.7030   -9.0370 C   0  0  2  0  0  0  0  0  0  0  0  0
   54.1990    6.3690   -9.2320 C   0  0  0  0  0  0  0  0  0  0  0  0
   53.0550    6.2100   -8.8560 O   0  0  0  0  0  0  0  0  0  0  0  0
   56.3110    7.4800   -8.4280 C   0  0  0  0  0  0  0  0  0  0  0  0
   56.1930    7.2560   -6.9180 C   0  0  0  0  0  0  0  0  0  0  0  0
   57.4190    6.4900   -6.4160 C   0  0  0  0  0  0  0  0  0  0  0  0
   56.1180    8.6100   -6.2110 C   0  0  0  0  0  0  0  0  0  0  0  0
   54.8570    5.4080   -9.8230 N   0  0  0  0  0  0  0  0  0  0  0  0
   54.2030    4.0870  -10.0450 C   0  0  2  0  0  0  0  0  0  0  0  0
   52.8790    4.2760  -10.7890 C   0  0  0  0  0  0  0  0  0  0  0  0
   51.9450    3.5160  -10.6210 O   0  0  0  0  0  0  0  0  0  0  0  0
   53.9610    3.5250   -8.6440 C   0  0  0  0  0  0  0  0  0  0  0  0
   55.2950    3.1050   -8.0260 C   0  0  0  0  0  0  0  0  0  0  0  0
   55.9050    4.2900   -7.2750 C   0  0  0  0  0  0  0  0  0  0  0  0
   55.0650    1.9500   -7.0510 C   0  0  0  0  0  0  0  0  0  0  0  0
   52.7910    5.2870  -11.6090 N   0  0  0  0  0  0  0  0  0  0  0  0
   51.5290    5.5320  -12.3650 C   0  0  0  0  0  0  0  0  0  0  0  0
   51.2240    7.0300  -12.3730 C   0  0  0  0  0  0  0  0  0  0  0  0
   50.5950    7.5500  -11.4720 O   0  0  0  0  0  0  0  0  0  0  0  0
   51.6660    7.7310  -13.3800 N   0  0  0  0  0  0  0  0  0  0  0  0
   51.4030    9.1970  -13.4400 C   0  0  2  0  0  0  0  0  0  0  0  0
   51.2610    9.6560  -14.8940 C   0  0  0  0  0  0  0  0  0  0  0  0
   51.4940   10.8030  -15.2190 O   0  0  0  0  0  0  0  0  0  0  0  0
   52.6280    9.8430  -12.7910 C   0  0  0  0  0  0  0  0  0  0  0  0
   50.8780    8.7680  -15.7710 N   0  0  0  0  0  0  0  0  0  0  0  0
   50.7220    9.1560  -17.2030 C   0  0  2  0  0  0  0  0  0  0  0  0
   49.4250    9.9450  -17.3990 C   0  0  0  0  0  0  0  0  0  0  0  0
   48.3410    9.4380  -17.1850 O   0  0  0  0  0  0  0  0  0  0  0  0
   50.6650    7.8330  -17.9670 C   0  0  0  0  0  0  0  0  0  0  0  0
   50.7300    8.1070  -19.4700 C   0  0  0  0  0  0  0  0  0  0  0  0
   49.7970    7.1420  -20.2050 C   0  0  0  0  0  0  0  0  0  0  0  0
   50.3940    6.9900  -21.5600 N   0  0  0  0  0  0  0  0  0  0  0  0
   50.1360    5.9280  -22.2720 C   0  0  0  0  0  3  0  0  0  0  0  0
   48.9050    5.5170  -22.4080 N   0  0  0  0  0  0  0  0  0  0  0  0
   51.1090    5.2750  -22.8470 N   0  0  0  0  0  0  0  0  0  0  0  0
   49.5260   11.1810  -17.8040 N   0  0  0  0  0  0  0  0  0  0  0  0
   48.2980   11.9990  -18.0120 C   0  0  2  0  0  0  0  0  0  0  0  0
   48.4860   12.9410  -19.2050 C   0  0  0  0  0  0  0  0  0  0  0  0
   48.1230   14.0990  -19.1580 O   0  0  0  0  0  0  0  0  0  0  0  0
   48.1290   12.7960  -16.7190 C   0  0  0  0  0  0  0  0  0  0  0  0
   49.0520   12.4520  -20.2760 N   0  0  0  0  0  0  0  0  0  0  0  0
   49.2630   13.3190  -21.4710 C   0  0  2  0  0  0  0  0  0  0  0  0
   50.0970   14.5470  -21.0920 C   0  0  0  0  0  0  0  0  0  0  0  0
   50.6000   14.5770  -19.9810 O   0  5  0  0  0  0  0  0  0  0  0  0
   47.8600   13.7390  -21.9080 C   0  0  0  0  0  0  0  0  0  0  0  0
   47.7710   13.7190  -23.4350 C   0  0  0  0  0  0  0  0  0  0  0  0
   46.3340   14.0200  -23.8690 C   0  0  0  0  0  0  0  0  0  0  0  0
   46.3500   14.7910  -25.1910 C   0  0  0  0  0  0  0  0  0  0  0  0
   45.1980   14.2500  -25.9630 N   0  3  0  0  0  0  0  0  0  0  0  0
   50.2200   15.4340  -21.9200 O   0  0  0  0  0  0  0  0  0  0  0  0
   53.3923    4.0145    7.6322 H   0  0  0  0  0  0  0  0  0  0  0  0
   54.4683    3.6895    6.4297 H   0  0  0  0  0  0  0  0  0  0  0  0
   53.0195    4.3843    6.0722 H   0  0  0  0  0  0  0  0  0  0  0  0
   53.6211    6.4013    7.3018 H   0  0  0  0  0  0  0  0  0  0  0  0
   56.4074    5.1846    7.4304 H   0  0  0  0  0  0  0  0  0  0  0  0
   55.1946    4.7118    8.6682 H   0  0  0  0  0  0  0  0  0  0  0  0
   55.9966    6.5888    9.7403 H   0  0  0  0  0  0  0  0  0  0  0  0
   54.8240    7.4207    8.6635 H   0  0  0  0  0  0  0  0  0  0  0  0
   56.5093    8.1941    7.2084 H   0  0  0  0  0  0  0  0  0  0  0  0
   57.6361    6.8623    7.6364 H   0  0  0  0  0  0  0  0  0  0  0  0
   57.5136    8.0438   10.0735 H   0  0  0  0  0  0  0  0  0  0  0  0
   59.4950   10.6938    8.1853 H   0  0  0  0  0  0  0  0  0  0  0  0
   59.7445    8.9290    8.2618 H   0  0  0  0  0  0  0  0  0  0  0  0
   56.1942   10.5218    9.3629 H   0  0  0  0  0  0  0  0  0  0  0  0
   57.5140   11.5833    8.8025 H   0  0  0  0  0  0  0  0  0  0  0  0
   53.8747    4.8375    4.5635 H   0  0  0  0  0  0  0  0  0  0  0  0
   55.8544    6.7685    3.2997 H   0  0  0  0  0  0  0  0  0  0  0  0
   54.7396    4.1086    2.2354 H   0  0  0  0  0  0  0  0  0  0  0  0
   56.7258    3.0152    3.1092 H   0  0  0  0  0  0  0  0  0  0  0  0
   55.9593    3.8995    4.4720 H   0  0  0  0  0  0  0  0  0  0  0  0
   55.7465    5.6550    0.5638 H   0  0  0  0  0  0  0  0  0  0  0  0
   56.7757    4.2028    0.8055 H   0  0  0  0  0  0  0  0  0  0  0  0
   57.2353    5.7654    1.5628 H   0  0  0  0  0  0  0  0  0  0  0  0
   58.4212    4.2694    4.4329 H   0  0  0  0  0  0  0  0  0  0  0  0
   57.5312    5.7988    4.1238 H   0  0  0  0  0  0  0  0  0  0  0  0
   58.2977    4.9145    2.7610 H   0  0  0  0  0  0  0  0  0  0  0  0
   53.0344    7.3942    3.9699 H   0  0  0  0  0  0  0  0  0  0  0  0
   51.0491    8.2022    2.8942 H   0  0  0  0  0  0  0  0  0  0  0  0
   52.5307    8.9393    0.4419 H   0  0  0  0  0  0  0  0  0  0  0  0
   53.4684    9.3170    1.9268 H   0  0  0  0  0  0  0  0  0  0  0  0
   52.0057   11.0152    1.3320 H   0  0  0  0  0  0  0  0  0  0  0  0
   50.5727    5.7326    2.6145 H   0  0  0  0  0  0  0  0  0  0  0  0
   50.9673    4.2858    0.1999 H   0  0  0  0  0  0  0  0  0  0  0  0
   48.8456    3.1403    0.9033 H   0  0  0  0  0  0  0  0  0  0  0  0
   48.4859    4.5068    2.0123 H   0  0  0  0  0  0  0  0  0  0  0  0
   49.9119    3.4567    2.3138 H   0  0  0  0  0  0  0  0  0  0  0  0
   48.6604    6.9211    0.8900 H   0  0  0  0  0  0  0  0  0  0  0  0
   47.2113    6.5576   -1.6696 H   0  0  0  0  0  0  0  0  0  0  0  0
   46.1384    7.4722    0.3602 H   0  0  0  0  0  0  0  0  0  0  0  0
   46.1849    8.7536   -0.8978 H   0  0  0  0  0  0  0  0  0  0  0  0
   49.7317    8.7865   -0.4119 H   0  0  0  0  0  0  0  0  0  0  0  0
   49.8470   10.2462   -3.0077 H   0  0  0  0  0  0  0  0  0  0  0  0
   51.6607   11.4763   -1.7844 H   0  0  0  0  0  0  0  0  0  0  0  0
   51.5852   10.2586   -0.4660 H   0  0  0  0  0  0  0  0  0  0  0  0
   50.1794   11.3321   -0.7788 H   0  0  0  0  0  0  0  0  0  0  0  0
   51.0410    7.2778   -1.9010 H   0  0  0  0  0  0  0  0  0  0  0  0
   53.7350    7.3739   -3.0831 H   0  0  0  0  0  0  0  0  0  0  0  0
   52.3554    4.7481   -2.9201 H   0  0  0  0  0  0  0  0  0  0  0  0
   52.1931    5.7110   -1.4124 H   0  0  0  0  0  0  0  0  0  0  0  0
   54.3151    5.1487   -0.8590 H   0  0  0  0  0  0  0  0  0  0  0  0
   54.9012    6.0148   -2.3196 H   0  0  0  0  0  0  0  0  0  0  0  0
   56.4334    3.4421   -4.3578 H   0  0  0  0  0  0  0  0  0  0  0  0
   56.7821    4.7458   -3.1723 H   0  0  0  0  0  0  0  0  0  0  0  0
   55.5778    5.0169   -4.4773 H   0  0  0  0  0  0  0  0  0  0  0  0
   50.6506    5.8112   -4.1503 H   0  0  0  0  0  0  0  0  0  0  0  0
   51.7832    5.2149   -6.8191 H   0  0  0  0  0  0  0  0  0  0  0  0
   49.1125    4.8225   -7.0782 H   0  0  0  0  0  0  0  0  0  0  0  0
   49.1816    4.9305   -5.2865 H   0  0  0  0  0  0  0  0  0  0  0  0
   51.0644    3.1373   -6.8965 H   0  0  0  0  0  0  0  0  0  0  0  0
   49.4623    2.5740   -6.3109 H   0  0  0  0  0  0  0  0  0  0  0  0
   53.3588    3.1198   -4.0505 H   0  0  0  0  0  0  0  0  0  0  0  0
   52.8403    4.2860   -5.3145 H   0  0  0  0  0  0  0  0  0  0  0  0
   53.0248    2.5457   -5.7194 H   0  0  0  0  0  0  0  0  0  0  0  0
   49.8261    7.7977   -5.3675 H   0  0  0  0  0  0  0  0  0  0  0  0
   48.8476    8.9471   -7.8596 H   0  0  0  0  0  0  0  0  0  0  0  0
   49.4194   10.8383   -5.6575 H   0  0  0  0  0  0  0  0  0  0  0  0
   48.6485    9.3310   -5.0571 H   0  0  0  0  0  0  0  0  0  0  0  0
   47.2437    9.9585   -7.4316 H   0  0  0  0  0  0  0  0  0  0  0  0
   47.4834   11.5393   -6.6129 H   0  0  0  0  0  0  0  0  0  0  0  0
   45.2510    8.6139   -4.6946 H   0  0  0  0  0  0  0  0  0  0  0  0
   46.3871    8.1437   -5.9145 H   0  0  0  0  0  0  0  0  0  0  0  0
   51.8946    9.2791   -6.0431 H   0  0  0  0  0  0  0  0  0  0  0  0
   52.7976   11.5595   -7.7452 H   0  0  0  0  0  0  0  0  0  0  0  0
   54.8465   11.3000   -6.3209 H   0  0  0  0  0  0  0  0  0  0  0  0
   54.1780    9.7729   -5.6520 H   0  0  0  0  0  0  0  0  0  0  0  0
   53.3571   11.3353   -5.3175 H   0  0  0  0  0  0  0  0  0  0  0  0
   53.9610    8.1841   -7.1474 H   0  0  0  0  0  0  0  0  0  0  0  0
   55.0039    8.2210  -10.0039 H   0  0  0  0  0  0  0  0  0  0  0  0
   56.9373    8.3643   -8.6169 H   0  0  0  0  0  0  0  0  0  0  0  0
   56.7742    6.5967   -8.8919 H   0  0  0  0  0  0  0  0  0  0  0  0
   55.2834    6.6764   -6.7020 H   0  0  0  0  0  0  0  0  0  0  0  0
   57.3325    6.3300   -5.3311 H   0  0  0  0  0  0  0  0  0  0  0  0
   58.3277    7.0719   -6.6294 H   0  0  0  0  0  0  0  0  0  0  0  0
   57.4781    5.5174   -6.9265 H   0  0  0  0  0  0  0  0  0  0  0  0
   55.2374    9.1628   -6.5701 H   0  0  0  0  0  0  0  0  0  0  0  0
   57.0279    9.1884   -6.4289 H   0  0  0  0  0  0  0  0  0  0  0  0
   56.0346    8.4528   -5.1255 H   0  0  0  0  0  0  0  0  0  0  0  0
   55.7981    5.5581  -10.1261 H   0  0  0  0  0  0  0  0  0  0  0  0
   54.8591    3.4190  -10.6223 H   0  0  0  0  0  0  0  0  0  0  0  0
   53.2959    2.6513   -8.7092 H   0  0  0  0  0  0  0  0  0  0  0  0
   53.4924    4.2965   -8.0153 H   0  0  0  0  0  0  0  0  0  0  0  0
   55.9821    2.7819   -8.8219 H   0  0  0  0  0  0  0  0  0  0  0  0
   56.8647    3.9876   -6.8305 H   0  0  0  0  0  0  0  0  0  0  0  0
   55.2178    4.6127   -6.4790 H   0  0  0  0  0  0  0  0  0  0  0  0
   56.0713    5.1217   -7.9754 H   0  0  0  0  0  0  0  0  0  0  0  0
   54.6264    1.0972   -7.5898 H   0  0  0  0  0  0  0  0  0  0  0  0
   54.3781    2.2733   -6.2550 H   0  0  0  0  0  0  0  0  0  0  0  0
   56.0250    1.6484   -6.6068 H   0  0  0  0  0  0  0  0  0  0  0  0
   53.5721    5.8994  -11.7309 H   0  0  0  0  0  0  0  0  0  0  0  0
   50.7013    4.9917  -11.8823 H   0  0  0  0  0  0  0  0  0  0  0  0
   51.6458    5.1759  -13.3992 H   0  0  0  0  0  0  0  0  0  0  0  0
   52.1813    7.2851  -14.1118 H   0  0  0  0  0  0  0  0  0  0  0  0
   50.4893    9.4509  -12.8827 H   0  0  0  0  0  0  0  0  0  0  0  0
   52.5114   10.9368  -12.7957 H   0  0  0  0  0  0  0  0  0  0  0  0
   53.5305    9.5681  -13.3566 H   0  0  0  0  0  0  0  0  0  0  0  0
   52.7232    9.4889  -11.7539 H   0  0  0  0  0  0  0  0  0  0  0  0
   50.6895    7.8290  -15.4833 H   0  0  0  0  0  0  0  0  0  0  0  0
   51.5772    9.7613  -17.5380 H   0  0  0  0  0  0  0  0  0  0  0  0
   49.7251    7.3131  -17.7298 H   0  0  0  0  0  0  0  0  0  0  0  0
   51.5171    7.2028  -17.6724 H   0  0  0  0  0  0  0  0  0  0  0  0
   51.7610    7.9620  -19.8250 H   0  0  0  0  0  0  0  0  0  0  0  0
   50.4162    9.1426  -19.6679 H   0  0  0  0  0  0  0  0  0  0  0  0
   48.7825    7.5615  -20.2739 H   0  0  0  0  0  0  0  0  0  0  0  0
   49.7583    6.1718  -19.6881 H   0  0  0  0  0  0  0  0  0  0  0  0
   51.0113    7.7240  -21.9357 H   0  0  0  0  0  0  0  0  0  0  0  0
   48.7012    4.6784  -22.9702 H   0  0  0  0  0  0  0  0  0  0  0  0
   48.1371    6.0312  -21.9531 H   0  0  0  0  0  0  0  0  0  0  0  0
   52.0808    5.5992  -22.7398 H   0  0  0  0  0  0  0  0  0  0  0  0
   50.9050    4.4355  -23.4079 H   0  0  0  0  0  0  0  0  0  0  0  0
   50.4272   11.5793  -17.9748 H   0  0  0  0  0  0  0  0  0  0  0  0
   47.4249   11.3529  -18.1859 H   0  0  0  0  0  0  0  0  0  0  0  0
   47.2343   13.4315  -16.7943 H   0  0  0  0  0  0  0  0  0  0  0  0
   49.0151   13.4279  -16.5593 H   0  0  0  0  0  0  0  0  0  0  0  0
   48.0159   12.1024  -15.8728 H   0  0  0  0  0  0  0  0  0  0  0  0
   49.3440   11.4957  -20.2946 H   0  0  0  0  0  0  0  0  0  0  0  0
   49.7689   12.7612  -22.2728 H   0  0  0  0  0  0  0  0  0  0  0  0
   47.6515   14.7553  -21.5424 H   0  0  0  0  0  0  0  0  0  0  0  0
   47.1213   13.0398  -21.4890 H   0  0  0  0  0  0  0  0  0  0  0  0
   48.0652   12.7261  -23.8060 H   0  0  0  0  0  0  0  0  0  0  0  0
   48.4464   14.4809  -23.8512 H   0  0  0  0  0  0  0  0  0  0  0  0
   45.8375   14.6264  -23.0972 H   0  0  0  0  0  0  0  0  0  0  0  0
   45.7860   13.0756  -24.0022 H   0  0  0  0  0  0  0  0  0  0  0  0
   47.2931   14.6164  -25.7296 H   0  0  0  0  0  0  0  0  0  0  0  0
   46.2240   15.8690  -25.0120 H   0  0  0  0  0  0  0  0  0  0  0  0
   45.1437   14.7150  -26.8557 H   0  0  0  0  0  0  0  0  0  0  0  0
   44.3453   14.4082  -25.4493 H   0  0  0  0  0  0  0  0  0  0  0  0
   45.3249   13.2604  -26.1069 H   0  0  0  0  0  0  0  0  0  0  0  0
  1  2  1  0  0  0  0
  1125  1  0  0  0  0
  1126  1  0  0  0  0
  1127  1  0  0  0  0
  2  3  1  0  0  0  0
  2  5  1  0  0  0  0
  2128  1  1  0  0  0
  3  4  2  0  0  0  0
  3 12  1  0  0  0  0
  5  6  1  0  0  0  0
  5129  1  0  0  0  0
  5130  1  0  0  0  0
  6  7  1  0  0  0  0
  6131  1  0  0  0  0
  6132  1  0  0  0  0
  7  8  1  0  0  0  0
  7133  1  0  0  0  0
  7134  1  0  0  0  0
  8  9  1  0  0  0  0
  8135  1  0  0  0  0
  9 10  1  0  0  0  0
  9 11  1  0  0  0  0
 10136  1  0  0  0  0
 10137  1  0  0  0  0
 11138  1  0  0  0  0
 11139  1  0  0  0  0
 12 13  1  0  0  0  0
 12140  1  0  0  0  0
 13 14  1  0  0  0  0
 13 16  1  0  0  0  0
 13141  1  1  0  0  0
 14 15  2  0  0  0  0
 14 20  1  0  0  0  0
 16 17  1  0  0  0  0
 16 18  1  0  0  0  0
 16142  1  6  0  0  0
 17 19  1  0  0  0  0
 17143  1  0  0  0  0
 17144  1  0  0  0  0
 18145  1  0  0  0  0
 18146  1  0  0  0  0
 18147  1  0  0  0  0
 19148  1  0  0  0  0
 19149  1  0  0  0  0
 19150  1  0  0  0  0
 20 21  1  0  0  0  0
 20151  1  0  0  0  0
 21 22  1  0  0  0  0
 21 24  1  0  0  0  0
 21152  1  1  0  0  0
 22 23  2  0  0  0  0
 22 26  1  0  0  0  0
 24 25  1  0  0  0  0
 24153  1  0  0  0  0
 24154  1  0  0  0  0
 25155  1  0  0  0  0
 26 27  1  0  0  0  0
 26156  1  0  0  0  0
 27 28  1  0  0  0  0
 27 30  1  0  0  0  0
 27157  1  6  0  0  0
 28 29  2  0  0  0  0
 28 31  1  0  0  0  0
 30158  1  0  0  0  0
 30159  1  0  0  0  0
 30160  1  0  0  0  0
 31 32  1  0  0  0  0
 31161  1  0  0  0  0
 32 33  1  0  0  0  0
 32 35  1  0  0  0  0
 32162  1  6  0  0  0
 33 34  2  0  0  0  0
 33 39  1  0  0  0  0
 35 36  1  0  0  0  0
 35163  1  0  0  0  0
 35164  1  0  0  0  0
 36 37  1  0  0  0  0
 36 38  2  0  0  0  0
 39 40  1  0  0  0  0
 39165  1  0  0  0  0
 40 41  1  0  0  0  0
 40 43  1  0  0  0  0
 40166  1  6  0  0  0
 41 42  2  0  0  0  0
 41 44  1  0  0  0  0
 43167  1  0  0  0  0
 43168  1  0  0  0  0
 43169  1  0  0  0  0
 44 45  1  0  0  0  0
 44170  1  0  0  0  0
 45 46  1  0  0  0  0
 45 48  1  0  0  0  0
 45171  1  1  0  0  0
 46 47  2  0  0  0  0
 46 52  1  0  0  0  0
 48 49  1  0  0  0  0
 48172  1  0  0  0  0
 48173  1  0  0  0  0
 49 50  1  0  0  0  0
 49174  1  0  0  0  0
 49175  1  0  0  0  0
 50 51  1  0  0  0  0
 51176  1  0  0  0  0
 51177  1  0  0  0  0
 51178  1  0  0  0  0
 52 53  1  0  0  0  0
 52179  1  0  0  0  0
 53 54  1  0  0  0  0
 53 56  1  0  0  0  0
 53180  1  6  0  0  0
 54 55  2  0  0  0  0
 54 60  1  0  0  0  0
 56 57  1  0  0  0  0
 56181  1  0  0  0  0
 56182  1  0  0  0  0
 57 58  1  0  0  0  0
 57183  1  0  0  0  0
 57184  1  0  0  0  0
 58 59  1  0  0  0  0
 59185  1  0  0  0  0
 59186  1  0  0  0  0
 59187  1  0  0  0  0
 60 61  1  0  0  0  0
 60188  1  0  0  0  0
 61 62  1  0  0  0  0
 61 64  1  0  0  0  0
 61189  1  6  0  0  0
 62 63  2  0  0  0  0
 62 69  1  0  0  0  0
 64 65  1  0  0  0  0
 64190  1  0  0  0  0
 64191  1  0  0  0  0
 65 66  1  0  0  0  0
 65192  1  0  0  0  0
 65193  1  0  0  0  0
 66 67  2  0  0  0  0
 66 68  1  0  0  0  0
 68194  1  0  0  0  0
 68195  1  0  0  0  0
 69 70  1  0  0  0  0
 69196  1  0  0  0  0
 70 71  1  0  0  0  0
 70 73  1  0  0  0  0
 70197  1  6  0  0  0
 71 72  2  0  0  0  0
 71 74  1  0  0  0  0
 73198  1  0  0  0  0
 73199  1  0  0  0  0
 73200  1  0  0  0  0
 74 75  1  0  0  0  0
 74201  1  0  0  0  0
 75 76  1  0  0  0  0
 75 78  1  0  0  0  0
 75202  1  6  0  0  0
 76 77  2  0  0  0  0
 76 82  1  0  0  0  0
 78 79  1  0  0  0  0
 78203  1  0  0  0  0
 78204  1  0  0  0  0
 79 80  1  0  0  0  0
 79 81  1  0  0  0  0
 79205  1  0  0  0  0
 80206  1  0  0  0  0
 80207  1  0  0  0  0
 80208  1  0  0  0  0
 81209  1  0  0  0  0
 81210  1  0  0  0  0
 81211  1  0  0  0  0
 82 83  1  0  0  0  0
 82212  1  0  0  0  0
 83 84  1  0  0  0  0
 83 86  1  0  0  0  0
 83213  1  6  0  0  0
 84 85  2  0  0  0  0
 84 90  1  0  0  0  0
 86 87  1  0  0  0  0
 86214  1  0  0  0  0
 86215  1  0  0  0  0
 87 88  1  0  0  0  0
 87 89  1  0  0  0  0
 87216  1  0  0  0  0
 88217  1  0  0  0  0
 88218  1  0  0  0  0
 88219  1  0  0  0  0
 89220  1  0  0  0  0
 89221  1  0  0  0  0
 89222  1  0  0  0  0
 90 91  1  0  0  0  0
 90223  1  0  0  0  0
 91 92  1  0  0  0  0
 91224  1  0  0  0  0
 91225  1  0  0  0  0
 92 93  2  0  0  0  0
 92 94  1  0  0  0  0
 94 95  1  0  0  0  0
 94226  1  0  0  0  0
 95 96  1  0  0  0  0
 95 98  1  0  0  0  0
 95227  1  1  0  0  0
 96 97  2  0  0  0  0
 96 99  1  0  0  0  0
 98228  1  0  0  0  0
 98229  1  0  0  0  0
 98230  1  0  0  0  0
 99100  1  0  0  0  0
 99231  1  0  0  0  0
100101  1  0  0  0  0
100103  1  0  0  0  0
100232  1  6  0  0  0
101102  2  0  0  0  0
101110  1  0  0  0  0
103104  1  0  0  0  0
103233  1  0  0  0  0
103234  1  0  0  0  0
104105  1  0  0  0  0
104235  1  0  0  0  0
104236  1  0  0  0  0
105106  1  0  0  0  0
105237  1  0  0  0  0
105238  1  0  0  0  0
106107  1  0  0  0  0
106239  1  0  0  0  0
107108  1  0  0  0  0
107109  1  0  0  0  0
108240  1  0  0  0  0
108241  1  0  0  0  0
109242  1  0  0  0  0
109243  1  0  0  0  0
110111  1  0  0  0  0
110244  1  0  0  0  0
111112  1  0  0  0  0
111114  1  0  0  0  0
111245  1  6  0  0  0
112113  2  0  0  0  0
112115  1  0  0  0  0
114246  1  0  0  0  0
114247  1  0  0  0  0
114248  1  0  0  0  0
115116  1  0  0  0  0
115249  1  0  0  0  0
116117  1  0  0  0  0
116119  1  0  0  0  0
116250  1  6  0  0  0
117118  1  0  0  0  0
117124  2  0  0  0  0
119120  1  0  0  0  0
119251  1  0  0  0  0
119252  1  0  0  0  0
120121  1  0  0  0  0
120253  1  0  0  0  0
120254  1  0  0  0  0
121122  1  0  0  0  0
121255  1  0  0  0  0
121256  1  0  0  0  0
122123  1  0  0  0  0
122257  1  0  0  0  0
122258  1  0  0  0  0
123259  1  0  0  0  0
123260  1  0  0  0  0
123261  1  0  0  0  0
M  CHG  4   1   1  37  -1 118  -1 123   1
M  END
