1mxo_ligand
 OpenBabel08222323343D

 35 36  0  0  1  0  0  0  0  0999 V2000
   22.0080    4.7220   10.7950 C   0  0  0  0  0  0  0  0  0  0  0  0
   20.7600    5.4040   10.9430 C   0  0  0  0  0  0  0  0  0  0  0  0
   20.5650    5.9240   12.1790 C   0  0  0  0  0  0  0  0  0  0  0  0
   21.8790    5.6140   13.2200 S   0  0  0  0  0  0  0  0  0  0  0  0
   22.7380    4.7620   11.9850 C   0  0  0  0  0  0  0  0  0  0  0  0
   24.1110    4.1630   12.2860 C   0  0  0  0  0  0  0  0  0  0  0  0
   24.9890    5.2250   12.9510 C   0  0  0  0  0  0  0  0  0  0  0  0
   25.3250    6.2360   12.3190 O   0  0  0  0  0  0  0  0  0  0  0  0
   25.3560    5.0080   14.2470 N   0  0  0  0  0  0  0  0  0  0  0  0
   26.1670    5.9170   15.0590 C   0  0  2  0  0  0  0  0  0  0  0  0
   26.7870    5.1490   16.3560 B   0  0  0  0  0  0  0  0  0  0  0  0
   25.7820    4.1740   16.9060 O   0  0  0  0  0  0  0  0  0  0  0  0
   27.1450    6.1380   17.4150 O   0  0  0  0  0  0  0  0  0  0  0  0
   25.2810    7.1340   15.4190 C   0  0  0  0  0  0  0  0  0  0  0  0
   24.2220    7.0080   16.3390 C   0  0  0  0  0  0  0  0  0  0  0  0
   25.4900    8.3820   14.7510 C   0  0  0  0  0  0  0  0  0  0  0  0
   24.6020    9.4610   15.0120 C   0  0  0  0  0  0  0  0  0  0  0  0
   23.5310    9.3130   15.9330 C   0  0  0  0  0  0  0  0  0  0  0  0
   23.3420    8.0750   16.6030 C   0  0  0  0  0  0  0  0  0  0  0  0
   22.2260    7.8620   17.5950 C   0  0  0  0  0  0  0  0  0  0  0  0
   21.1330    7.3920   17.1530 O   0  5  0  0  0  0  0  0  0  0  0  0
   22.4800    8.1360   18.7930 O   0  0  0  0  0  0  0  0  0  0  0  0
   22.3435    4.2375    9.8793 H   0  0  0  0  0  0  0  0  0  0  0  0
   20.0335    5.4969   10.1371 H   0  0  0  0  0  0  0  0  0  0  0  0
   19.6732    6.4755   12.4730 H   0  0  0  0  0  0  0  0  0  0  0  0
   24.5812    3.8315   11.3485 H   0  0  0  0  0  0  0  0  0  0  0  0
   23.9970    3.3035   12.9630 H   0  0  0  0  0  0  0  0  0  0  0  0
   25.0461    4.1599   14.6768 H   0  0  0  0  0  0  0  0  0  0  0  0
   27.0115    6.2749   14.4519 H   0  0  0  0  0  0  0  0  0  0  0  0
   26.1576    3.7206   17.6516 H   0  0  0  0  0  0  0  0  0  0  0  0
   27.5184    5.6816   18.1598 H   0  0  0  0  0  0  0  0  0  0  0  0
   24.0809    6.0661   16.8567 H   0  0  0  0  0  0  0  0  0  0  0  0
   26.3132    8.5029   14.0562 H   0  0  0  0  0  0  0  0  0  0  0  0
   24.7439   10.4072   14.5024 H   0  0  0  0  0  0  0  0  0  0  0  0
   22.8598   10.1425   16.1240 H   0  0  0  0  0  0  0  0  0  0  0  0
  1  2  1  0  0  0  0
  1  5  2  0  0  0  0
  1 23  1  0  0  0  0
  2  3  2  0  0  0  0
  2 24  1  0  0  0  0
  3  4  1  0  0  0  0
  3 25  1  0  0  0  0
  4  5  1  0  0  0  0
  5  6  1  0  0  0  0
  6  7  1  0  0  0  0
  6 26  1  0  0  0  0
  6 27  1  0  0  0  0
  7  8  2  0  0  0  0
  7  9  1  0  0  0  0
  9 10  1  0  0  0  0
  9 28  1  0  0  0  0
 10 11  1  0  0  0  0
 10 14  1  0  0  0  0
 10 29  1  6  0  0  0
 11 12  1  0  0  0  0
 11 13  1  0  0  0  0
 12 30  1  0  0  0  0
 13 31  1  0  0  0  0
 14 15  2  0  0  0  0
 14 16  1  0  0  0  0
 15 19  1  0  0  0  0
 15 32  1  0  0  0  0
 16 17  2  0  0  0  0
 16 33  1  0  0  0  0
 17 18  1  0  0  0  0
 17 34  1  0  0  0  0
 18 19  2  0  0  0  0
 18 35  1  0  0  0  0
 19 20  1  0  0  0  0
 20 21  1  0  0  0  0
 20 22  2  0  0  0  0
M  CHG  1  21  -1
M  END
