1n0t_ligand
 OpenBabel08222323343D

 38 38  0  0  1  0  0  0  0  0999 V2000
    8.0150   32.9430   -2.9770 N   0  3  0  0  0  0  0  0  0  0  0  0
    6.8140   30.7370   -2.6580 C   0  0  0  0  0  0  0  0  0  0  0  0
    8.4400   32.1850   -5.4490 O   0  5  0  0  0  0  0  0  0  0  0  0
    8.0960   31.4250   -3.1610 C   0  0  1  0  0  0  0  0  0  0  0  0
    8.3520   31.1560   -4.6900 C   0  0  0  0  0  0  0  0  0  0  0  0
    8.4580   29.9620   -5.0600 O   0  0  0  0  0  0  0  0  0  0  0  0
    6.2840   30.7320    1.0260 O   0  0  0  0  0  0  0  0  0  0  0  0
    8.3920   28.9040   -1.0120 O   0  0  0  0  0  0  0  0  0  0  0  0
    7.2870   29.7450    0.8810 N   0  0  0  0  0  0  0  0  0  0  0  0
    4.8570   32.3230   -0.0980 C   0  0  0  0  0  0  0  0  0  0  0  0
    9.1760   27.9820   -0.1920 C   0  0  0  0  0  0  0  0  0  0  0  0
    7.5080   29.7090   -0.4080 C   0  0  0  0  0  0  0  0  0  0  0  0
    6.7050   30.6280   -1.1620 C   0  0  0  0  0  0  0  0  0  0  0  0
    5.9460   31.2470   -0.1910 C   0  0  0  0  0  0  0  0  0  0  0  0
    3.5040   31.5980    0.0510 C   0  0  0  0  0  0  0  0  0  0  0  0
    5.0920   33.2060    1.1300 C   0  0  0  0  0  0  0  0  0  0  0  0
    4.7750   33.2270   -1.3290 C   0  0  0  0  0  0  0  0  0  0  0  0
   10.8860   28.5520   -0.1840 P   0  0  0  0  0  0  0  0  0  0  0  0
   10.9570   29.9690    0.2740 O   0  0  0  0  0  1  0  0  0  0  0  0
   11.6020   27.5460    0.6740 O   0  0  0  0  0  1  0  0  0  0  0  0
   11.3900   28.3560   -1.6550 O   0  0  0  0  0  0  0  0  0  0  0  0
    7.8509   33.1554   -2.0054 H   0  0  0  0  0  0  0  0  0  0  0  0
    7.2583   33.3090   -3.5333 H   0  0  0  0  0  0  0  0  0  0  0  0
    8.8824   33.3639   -3.2711 H   0  0  0  0  0  0  0  0  0  0  0  0
    5.9505   31.3121   -3.0235 H   0  0  0  0  0  0  0  0  0  0  0  0
    6.7826   29.7212   -3.0788 H   0  0  0  0  0  0  0  0  0  0  0  0
    8.9458   31.0350   -2.5816 H   0  0  0  0  0  0  0  0  0  0  0  0
    8.7824   27.9702    0.8351 H   0  0  0  0  0  0  0  0  0  0  0  0
    9.1230   26.9687   -0.6167 H   0  0  0  0  0  0  0  0  0  0  0  0
    2.6957   32.3408    0.1209 H   0  0  0  0  0  0  0  0  0  0  0  0
    3.5162   30.9826    0.9626 H   0  0  0  0  0  0  0  0  0  0  0  0
    3.3349   30.9536   -0.8243 H   0  0  0  0  0  0  0  0  0  0  0  0
    6.0562   33.7257    1.0288 H   0  0  0  0  0  0  0  0  0  0  0  0
    5.1060   32.5801    2.0344 H   0  0  0  0  0  0  0  0  0  0  0  0
    4.2828   33.9468    1.2092 H   0  0  0  0  0  0  0  0  0  0  0  0
    5.7299   33.7574   -1.4586 H   0  0  0  0  0  0  0  0  0  0  0  0
    3.9648   33.9585   -1.1934 H   0  0  0  0  0  0  0  0  0  0  0  0
    4.5714   32.6153   -2.2203 H   0  0  0  0  0  0  0  0  0  0  0  0
  1 22  1  0  0  0  0
  1 23  1  0  0  0  0
  1 24  1  0  0  0  0
  2 13  1  0  0  0  0
  2 25  1  0  0  0  0
  2 26  1  0  0  0  0
  4  1  1  0  0  0  0
  4  5  1  0  0  0  0
  4  2  1  0  0  0  0
  4 27  1  1  0  0  0
  5  6  2  0  0  0  0
  5  3  1  0  0  0  0
  7  9  1  0  0  0  0
  8 11  1  0  0  0  0
 10 17  1  0  0  0  0
 10 16  1  0  0  0  0
 10 15  1  0  0  0  0
 11 18  1  0  0  0  0
 11 28  1  0  0  0  0
 11 29  1  0  0  0  0
 12  9  2  0  0  0  0
 12  8  1  0  0  0  0
 13 12  1  0  0  0  0
 13 14  2  0  0  0  0
 14  7  1  0  0  0  0
 14 10  1  0  0  0  0
 15 30  1  0  0  0  0
 15 31  1  0  0  0  0
 15 32  1  0  0  0  0
 16 33  1  0  0  0  0
 16 34  1  0  0  0  0
 16 35  1  0  0  0  0
 17 36  1  0  0  0  0
 17 37  1  0  0  0  0
 17 38  1  0  0  0  0
 18 19  1  0  0  0  0
 18 20  1  0  0  0  0
 18 21  2  0  0  0  0
M  CHG  2   1   1   3  -1
M  END
