1n3w_ligand
 OpenBabel08222323343D

 45 46  0  0  1  0  0  0  0  0999 V2000
  113.0970   31.5320   22.6810 C   0  0  1  0  0  0  0  0  0  0  0  0
  113.9960   30.4370   22.0870 C   0  0  1  0  0  0  0  0  0  0  0  0
  115.4480   30.9430   22.1000 C   0  0  2  0  0  0  0  0  0  0  0  0
  115.5440   32.2230   21.2760 C   0  0  1  0  0  0  0  0  0  0  0  0
  114.5600   33.2570   21.8170 C   0  0  1  0  0  0  0  0  0  0  0  0
  114.5100   34.4890   20.9370 C   0  0  0  0  0  0  0  0  0  0  0  0
  113.4690   31.7870   24.0220 O   0  0  0  0  0  0  0  0  0  0  0  0
  113.8760   29.2370   22.8370 O   0  0  0  0  0  0  0  0  0  0  0  0
  116.3250   29.9670   21.5730 O   0  0  0  0  0  0  0  0  0  0  0  0
  116.8630   32.7370   21.3430 O   0  0  0  0  0  0  0  0  0  0  0  0
  113.2210   32.6980   21.8660 O   0  0  0  0  0  0  0  0  0  0  0  0
  113.8560   35.5660   21.5940 O   0  0  0  0  0  0  0  0  0  0  0  0
  111.8420   31.5770   27.8970 C   0  0  1  0  0  0  0  0  0  0  0  0
  111.5170   30.4090   26.9570 C   0  0  1  0  0  0  0  0  0  0  0  0
  112.4320   30.4220   25.7250 C   0  0  2  0  0  0  0  0  0  0  0  0
  112.4390   31.7840   25.0380 C   0  0  1  0  0  0  0  0  0  0  0  0
  112.7400   32.8800   26.0840 C   0  0  1  0  0  0  0  0  0  0  0  0
  112.6580   34.2900   25.5140 C   0  0  0  0  0  0  0  0  0  0  0  0
  113.1140   31.4280   28.4040 O   0  0  0  0  0  0  0  0  0  0  0  0
  111.6790   29.1820   27.6570 O   0  0  0  0  0  0  0  0  0  0  0  0
  112.0080   29.4350   24.7980 O   0  0  0  0  0  0  0  0  0  0  0  0
  111.7960   32.8180   27.1870 O   0  0  0  0  0  0  0  0  0  0  0  0
  113.4460   35.2010   26.2730 O   0  0  0  0  0  0  0  0  0  0  0  0
  112.0505   31.1935   22.6648 H   0  0  0  0  0  0  0  0  0  0  0  0
  113.6904   30.2390   21.0490 H   0  0  0  0  0  0  0  0  0  0  0  0
  115.7408   31.1598   23.1379 H   0  0  0  0  0  0  0  0  0  0  0  0
  115.2952   31.9992   20.2282 H   0  0  0  0  0  0  0  0  0  0  0  0
  114.8741   33.5475   22.8304 H   0  0  0  0  0  0  0  0  0  0  0  0
  113.9635   34.2478   20.0133 H   0  0  0  0  0  0  0  0  0  0  0  0
  115.5372   34.7926   20.6867 H   0  0  0  0  0  0  0  0  0  0  0  0
  114.4374   28.5707   22.4583 H   0  0  0  0  0  0  0  0  0  0  0  0
  116.0853   29.7804   20.6729 H   0  0  0  0  0  0  0  0  0  0  0  0
  117.4713   32.0901   21.0053 H   0  0  0  0  0  0  0  0  0  0  0  0
  114.3261   35.7818   22.3908 H   0  0  0  0  0  0  0  0  0  0  0  0
  111.1125   31.5944   28.7201 H   0  0  0  0  0  0  0  0  0  0  0  0
  110.4724   30.4999   26.6245 H   0  0  0  0  0  0  0  0  0  0  0  0
  113.4565   30.1891   26.0508 H   0  0  0  0  0  0  0  0  0  0  0  0
  111.4594   31.9734   24.5750 H   0  0  0  0  0  0  0  0  0  0  0  0
  113.7570   32.7122   26.4681 H   0  0  0  0  0  0  0  0  0  0  0  0
  111.6097   34.6229   25.5306 H   0  0  0  0  0  0  0  0  0  0  0  0
  113.0229   34.2789   24.4763 H   0  0  0  0  0  0  0  0  0  0  0  0
  113.3068   32.1505   28.9898 H   0  0  0  0  0  0  0  0  0  0  0  0
  111.4495   28.4595   27.0846 H   0  0  0  0  0  0  0  0  0  0  0  0
  112.6059   29.4177   24.0599 H   0  0  0  0  0  0  0  0  0  0  0  0
  113.3756   36.0698   25.8952 H   0  0  0  0  0  0  0  0  0  0  0  0
  1  2  1  0  0  0  0
  1 11  1  0  0  0  0
  1 24  1  6  0  0  0
  2  3  1  0  0  0  0
  2  8  1  0  0  0  0
  2 25  1  6  0  0  0
  3  4  1  0  0  0  0
  3  9  1  0  0  0  0
  3 26  1  1  0  0  0
  4 10  1  0  0  0  0
  4 27  1  6  0  0  0
  5  4  1  0  0  0  0
  5  6  1  0  0  0  0
  5 28  1  1  0  0  0
  6 12  1  0  0  0  0
  6 29  1  0  0  0  0
  6 30  1  0  0  0  0
  7  1  1  0  0  0  0
  8 31  1  0  0  0  0
  9 32  1  0  0  0  0
 10 33  1  0  0  0  0
 11  5  1  0  0  0  0
 12 34  1  0  0  0  0
 13 19  1  0  0  0  0
 13 22  1  0  0  0  0
 13 35  1  1  0  0  0
 14 13  1  0  0  0  0
 14 20  1  0  0  0  0
 14 36  1  6  0  0  0
 15 14  1  0  0  0  0
 15 16  1  0  0  0  0
 15 21  1  0  0  0  0
 15 37  1  1  0  0  0
 16  7  1  0  0  0  0
 16 17  1  0  0  0  0
 16 38  1  6  0  0  0
 17 18  1  0  0  0  0
 17 22  1  0  0  0  0
 17 39  1  1  0  0  0
 18 23  1  0  0  0  0
 18 40  1  0  0  0  0
 18 41  1  0  0  0  0
 19 42  1  0  0  0  0
 20 43  1  0  0  0  0
 21 44  1  0  0  0  0
 23 45  1  0  0  0  0
M  END
