1n43_ligand
 OpenBabel08222323343D

 31 32  0  0  1  0  0  0  0  0999 V2000
    6.4620  -16.3600   24.7060 C   0  0  0  0  0  0  0  0  0  0  0  0
    5.9640  -15.2510   25.0220 O   0  5  0  0  0  0  0  0  0  0  0  0
    5.9560  -17.0760   23.8040 O   0  0  0  0  0  0  0  0  0  0  0  0
    7.6700  -16.7890   25.4510 C   0  0  0  0  0  0  0  0  0  0  0  0
    8.5460  -15.6250   25.9020 C   0  0  0  0  0  0  0  0  0  0  0  0
    8.9690  -14.7510   24.7220 C   0  0  0  0  0  0  0  0  0  0  0  0
   10.1490  -13.8000   25.0530 C   0  0  0  0  0  0  0  0  0  0  0  0
   10.7860  -13.0660   23.8940 C   0  0  2  0  0  0  0  0  0  0  0  0
   11.9910  -14.0020   22.8870 S   0  0  0  0  0  0  0  0  0  0  0  0
   12.3740  -12.4820   21.9520 C   0  0  0  0  0  0  0  0  0  0  0  0
   12.4060  -11.3560   22.9710 C   0  0  2  0  0  0  0  0  0  0  0  0
   13.6860  -11.1820   23.6210 N   0  0  0  0  0  0  0  0  0  0  0  0
   13.6230  -11.4040   24.9380 C   0  0  0  0  0  0  0  0  0  0  0  0
   14.5770  -11.3060   25.7460 O   0  0  0  0  0  0  0  0  0  0  0  0
   12.3540  -11.7180   25.2760 N   0  0  0  0  0  0  0  0  0  0  0  0
   11.4590  -11.7300   24.1320 C   0  0  2  0  0  0  0  0  0  0  0  0
    8.2676  -17.4437   24.7997 H   0  0  0  0  0  0  0  0  0  0  0  0
    7.3501  -17.3504   26.3412 H   0  0  0  0  0  0  0  0  0  0  0  0
    9.4465  -16.0243   26.3916 H   0  0  0  0  0  0  0  0  0  0  0  0
    7.9816  -15.0096   26.6180 H   0  0  0  0  0  0  0  0  0  0  0  0
    8.1068  -14.1423   24.4119 H   0  0  0  0  0  0  0  0  0  0  0  0
    9.2719  -15.4072   23.8927 H   0  0  0  0  0  0  0  0  0  0  0  0
   10.9335  -14.4006   25.5367 H   0  0  0  0  0  0  0  0  0  0  0  0
    9.7774  -13.0440   25.7604 H   0  0  0  0  0  0  0  0  0  0  0  0
    9.9336  -12.8534   23.2321 H   0  0  0  0  0  0  0  0  0  0  0  0
   11.5963  -12.2919   21.1977 H   0  0  0  0  0  0  0  0  0  0  0  0
   13.3512  -12.5753   21.4557 H   0  0  0  0  0  0  0  0  0  0  0  0
   12.0963  -10.4185   22.4861 H   0  0  0  0  0  0  0  0  0  0  0  0
   14.5239  -10.9246   23.1397 H   0  0  0  0  0  0  0  0  0  0  0  0
   12.0624  -11.9200   26.2110 H   0  0  0  0  0  0  0  0  0  0  0  0
   10.6772  -10.9661   24.2552 H   0  0  0  0  0  0  0  0  0  0  0  0
  1  2  1  0  0  0  0
  1  3  2  0  0  0  0
  1  4  1  0  0  0  0
  4  5  1  0  0  0  0
  4 17  1  0  0  0  0
  4 18  1  0  0  0  0
  5  6  1  0  0  0  0
  5 19  1  0  0  0  0
  5 20  1  0  0  0  0
  6  7  1  0  0  0  0
  6 21  1  0  0  0  0
  6 22  1  0  0  0  0
  7  8  1  0  0  0  0
  7 23  1  0  0  0  0
  7 24  1  0  0  0  0
  8  9  1  0  0  0  0
  8 16  1  0  0  0  0
  8 25  1  6  0  0  0
  9 10  1  0  0  0  0
 10 11  1  0  0  0  0
 10 26  1  0  0  0  0
 10 27  1  0  0  0  0
 11 12  1  0  0  0  0
 11 16  1  0  0  0  0
 11 28  1  6  0  0  0
 12 13  1  0  0  0  0
 12 29  1  0  0  0  0
 13 14  2  0  0  0  0
 13 15  1  0  0  0  0
 15 16  1  0  0  0  0
 15 30  1  0  0  0  0
 16 31  1  1  0  0  0
M  CHG  1   2  -1
M  END
