1n4m_ligand
 OpenBabel08222323343D

264267  0  0  1  0  0  0  0  0999 V2000
   -7.0680    7.2190  -15.5900 N   0  3  0  0  0  0  0  0  0  0  0  0
   -6.0740    6.4980  -14.7330 C   0  0  2  0  0  0  0  0  0  0  0  0
   -6.7410    5.3900  -13.9100 C   0  0  0  0  0  0  0  0  0  0  0  0
   -7.8950    5.5220  -13.4980 O   0  0  0  0  0  0  0  0  0  0  0  0
   -5.3860    7.4940  -13.8060 C   0  0  0  0  0  0  0  0  0  0  0  0
   -4.3860    6.8380  -12.8960 C   0  0  0  0  0  0  0  0  0  0  0  0
   -4.7850    5.9600  -12.1090 O   0  5  0  0  0  0  0  0  0  0  0  0
   -3.1980    7.2000  -12.9660 O   0  0  0  0  0  0  0  0  0  0  0  0
   -6.0060    4.3120  -13.6520 N   0  0  0  0  0  0  0  0  0  0  0  0
   -6.5440    3.1720  -12.9060 C   0  0  2  0  0  0  0  0  0  0  0  0
   -6.8010    3.3560  -11.4040 C   0  0  0  0  0  0  0  0  0  0  0  0
   -7.4910    2.5380  -10.7920 O   0  0  0  0  0  0  0  0  0  0  0  0
   -5.6460    1.9400  -13.1170 C   0  0  0  0  0  0  0  0  0  0  0  0
   -4.2080    2.1540  -12.6380 C   0  0  0  0  0  0  0  0  0  0  0  0
   -3.3550    1.2920  -12.9400 O   0  5  0  0  0  0  0  0  0  0  0  0
   -3.9260    3.1690  -11.9620 O   0  0  0  0  0  0  0  0  0  0  0  0
   -6.2730    4.4250  -10.8110 N   0  0  0  0  0  0  0  0  0  0  0  0
   -6.4400    4.6710   -9.3760 C   0  0  2  0  0  0  0  0  0  0  0  0
   -7.8730    4.6630   -8.8580 C   0  0  0  0  0  0  0  0  0  0  0  0
   -8.7790    5.2680   -9.4450 O   0  0  0  0  0  0  0  0  0  0  0  0
   -5.8070    5.9960   -8.9750 C   0  0  0  0  0  0  0  0  0  0  0  0
   -5.6690    6.1700   -7.4810 C   0  0  0  0  0  0  0  0  0  0  0  0
   -4.7640    5.3900   -6.7530 C   0  0  0  0  0  0  0  0  0  0  0  0
   -6.3980    7.1530   -6.7980 C   0  0  0  0  0  0  0  0  0  0  0  0
   -4.5730    5.5880   -5.3860 C   0  0  0  0  0  0  0  0  0  0  0  0
   -6.2190    7.3630   -5.4190 C   0  0  0  0  0  0  0  0  0  0  0  0
   -5.2980    6.5780   -4.7210 C   0  0  0  0  0  0  0  0  0  0  0  0
   -5.0730    6.7940   -3.3740 O   0  0  0  0  0  0  0  0  0  0  0  0
   -8.0560    3.9850   -7.7310 N   0  0  0  0  0  0  0  0  0  0  0  0
   -9.3570    3.8840   -7.1060 C   0  0  2  0  0  0  0  0  0  0  0  0
   -9.4920    4.8050   -5.9050 C   0  0  0  0  0  0  0  0  0  0  0  0
   -8.8670    4.5850   -4.8600 O   0  0  0  0  0  0  0  0  0  0  0  0
   -9.6320    2.4570   -6.6420 C   0  0  0  0  0  0  0  0  0  0  0  0
  -10.9700    2.3830   -5.9050 C   0  0  0  0  0  0  0  0  0  0  0  0
  -12.0970    2.4370   -6.9220 C   0  0  0  0  0  0  0  0  0  0  0  0
  -11.0580    1.1300   -5.0920 C   0  0  0  0  0  0  0  0  0  0  0  0
  -10.3040    5.8440   -6.0600 N   0  0  0  0  0  0  0  0  0  0  0  0
  -10.5510    6.7590   -4.9580 C   0  0  2  0  0  0  0  0  0  0  0  0
  -11.5060    5.9690   -4.0690 C   0  0  0  0  0  0  0  0  0  0  0  0
  -12.7100    5.9240   -4.3060 O   0  0  0  0  0  0  0  0  0  0  0  0
  -11.1840    8.0470   -5.4810 C   0  0  0  0  0  0  0  0  0  0  0  0
  -10.2900    8.7430   -6.4500 C   0  0  0  0  0  0  0  0  0  0  0  0
  -10.2720    8.5930   -7.8160 C   0  0  0  0  0  0  0  0  0  0  0  0
   -9.2110    9.6350   -6.1310 C   0  0  0  0  0  0  0  0  0  0  0  0
   -9.2480    9.3350   -8.3580 N   0  0  0  0  0  0  0  0  0  0  0  0
   -8.5790    9.9800   -7.3510 C   0  0  0  0  0  0  0  0  0  0  0  0
   -8.7150   10.1750   -4.9350 C   0  0  0  0  0  0  0  0  0  0  0  0
   -7.4740   10.8420   -7.4070 C   0  0  0  0  0  0  0  0  0  0  0  0
   -7.6140   11.0360   -4.9910 C   0  0  0  0  0  0  0  0  0  0  0  0
   -7.0090   11.3580   -6.2200 C   0  0  0  0  0  0  0  0  0  0  0  0
  -10.9390    5.3190   -3.0610 N   0  0  0  0  0  0  0  0  0  0  0  0
  -11.7240    4.4820   -2.1760 C   0  0  0  0  0  0  0  0  0  0  0  0
  -12.5310    5.1010   -1.0580 C   0  0  0  0  0  0  0  0  0  0  0  0
  -13.4840    4.4770   -0.5870 O   0  0  0  0  0  0  0  0  0  0  0  0
  -12.1690    6.3010   -0.6110 N   0  0  0  0  0  0  0  0  0  0  0  0
  -12.9220    6.9160    0.4770 C   0  0  2  0  0  0  0  0  0  0  0  0
  -14.3240    7.2820    0.0410 C   0  0  0  0  0  0  0  0  0  0  0  0
  -14.5110    8.0860   -0.8630 O   0  0  0  0  0  0  0  0  0  0  0  0
  -12.2020    8.1530    1.0230 C   0  0  0  0  0  0  0  0  0  0  0  0
  -10.9450    7.8300    1.8330 C   0  0  0  0  0  0  0  0  0  0  0  0
  -10.4650    9.0730    2.5760 C   0  0  0  0  0  0  0  0  0  0  0  0
  -11.2600    6.7200    2.8230 C   0  0  0  0  0  0  0  0  0  0  0  0
  -15.3130    6.6800    0.6850 N   0  0  0  0  0  0  0  0  0  0  0  0
  -16.7020    6.9560    0.3530 C   0  0  2  0  0  0  0  0  0  0  0  0
  -17.0010    8.4120    0.7350 C   0  0  0  0  0  0  0  0  0  0  0  0
  -16.1570    9.0870    1.3230 O   0  0  0  0  0  0  0  0  0  0  0  0
  -17.6150    5.9760    1.1050 C   0  0  0  0  0  0  0  0  0  0  0  0
  -18.8680    5.5620    0.3300 C   0  0  0  0  0  0  0  0  0  0  0  0
  -18.5500    5.0580   -1.0750 C   0  0  0  0  0  0  0  0  0  0  0  0
  -17.6520    4.1950   -1.2070 O   0  5  0  0  0  0  0  0  0  0  0  0
  -19.2000    5.5240   -2.0430 O   0  0  0  0  0  0  0  0  0  0  0  0
  -18.1880    8.9010    0.4000 N   0  0  0  0  0  0  0  0  0  0  0  0
  -18.5320   10.2830    0.7180 C   0  0  2  0  0  0  0  0  0  0  0  0
  -18.2350   10.5880    2.1760 C   0  0  0  0  0  0  0  0  0  0  0  0
  -18.6010    9.8300    3.0740 O   0  0  0  0  0  0  0  0  0  0  0  0
  -20.0020   10.5500    0.4170 C   0  0  0  0  0  0  0  0  0  0  0  0
  -17.5620   11.7050    2.4050 N   0  0  0  0  0  0  0  0  0  0  0  0
  -17.2260   12.0980    3.7580 C   0  0  0  0  0  0  0  0  0  0  0  0
  -16.5790   11.0400    4.6360 C   0  0  0  0  0  0  0  0  0  0  0  0
  -17.1660   10.6470    5.6410 O   0  0  0  0  0  0  0  0  0  0  0  0
  -15.3840   10.5720    4.2780 N   0  0  0  0  0  0  0  0  0  0  0  0
  -14.6980    9.5840    5.1060 C   0  0  2  0  0  0  0  0  0  0  0  0
  -13.4020   10.1180    5.7300 C   0  0  0  0  0  0  0  0  0  0  0  0
  -12.9920    9.6690    6.7990 O   0  0  0  0  0  0  0  0  0  0  0  0
  -14.4250    8.2970    4.3210 C   0  0  0  0  0  0  0  0  0  0  0  0
  -15.5440    7.2690    4.4760 C   0  0  0  0  0  0  0  0  0  0  0  0
  -15.2030    5.9110    3.8870 C   0  0  0  0  0  0  0  0  0  0  0  0
  -15.5890    4.8830    4.4930 O   0  5  0  0  0  0  0  0  0  0  0  0
  -14.5480    5.8680    2.8220 O   0  0  0  0  0  0  0  0  0  0  0  0
  -12.7650   11.0780    5.0730 N   0  0  0  0  0  0  0  0  0  0  0  0
  -11.5490   11.6720    5.6100 C   0  0  0  0  0  0  0  0  0  0  0  0
  -10.4730   10.8130    6.2570 C   0  0  0  0  0  0  0  0  0  0  0  0
  -10.6930    9.6810    6.6700 O   0  0  0  0  0  0  0  0  0  0  0  0
   -9.2870   11.3940    6.3610 N   0  0  0  0  0  0  0  0  0  0  0  0
   -8.1300   10.7260    6.9390 C   0  0  2  0  0  0  0  0  0  0  0  0
   -8.3490   10.2930    8.3970 C   0  0  0  0  0  0  0  0  0  0  0  0
   -7.7820    9.2970    8.8430 O   0  0  0  0  0  0  0  0  0  0  0  0
   -6.8820   11.6550    6.8460 C   0  0  2  0  0  0  0  0  0  0  0  0
   -5.6110   10.8940    7.2340 C   0  0  0  0  0  0  0  0  0  0  0  0
   -7.0580   12.8580    7.7660 C   0  0  0  0  0  0  0  0  0  0  0  0
   -5.2520    9.7630    6.2950 C   0  0  0  0  0  0  0  0  0  0  0  0
   -9.1790   11.0340    9.1300 N   0  0  0  0  0  0  0  0  0  0  0  0
   -9.4580   10.7310   10.5340 C   0  0  2  0  0  0  0  0  0  0  0  0
  -10.0820    9.3770   10.7490 C   0  0  0  0  0  0  0  0  0  0  0  0
   -9.9930    8.8130   11.8300 O   0  0  0  0  0  0  0  0  0  0  0  0
  -10.3870   11.7780   11.1460 C   0  0  0  0  0  0  0  0  0  0  0  0
   -9.7020   12.9930   11.3600 O   0  0  0  0  0  0  0  0  0  0  0  0
  -10.7370    8.8630    9.7250 N   0  0  0  0  0  0  0  0  0  0  0  0
  -11.3680    7.5770    9.8420 C   0  0  2  0  0  0  0  0  0  0  0  0
  -10.3860    6.4720    9.5130 C   0  0  0  0  0  0  0  0  0  0  0  0
  -10.7790    5.3240    9.3720 O   0  0  0  0  0  0  0  0  0  0  0  0
  -12.5570    7.5130    8.9040 C   0  0  0  0  0  0  0  0  0  0  0  0
  -13.6010    8.5650    9.2210 C   0  0  0  0  0  0  0  0  0  0  0  0
  -14.3860    8.9090    8.3180 O   0  5  0  0  0  0  0  0  0  0  0  0
  -13.6490    9.0400   10.3740 O   0  0  0  0  0  0  0  0  0  0  0  0
   -9.1080    6.8160    9.4020 N   0  0  0  0  0  0  0  0  0  0  0  0
   -8.0810    5.8280    9.0710 C   0  0  2  0  0  0  0  0  0  0  0  0
   -7.0340    5.6800   10.1590 C   0  0  0  0  0  0  0  0  0  0  0  0
   -6.2690    4.7180   10.1740 O   0  0  0  0  0  0  0  0  0  0  0  0
   -7.4070    6.2090    7.7680 C   0  0  0  0  0  0  0  0  0  0  0  0
   -8.4400    6.2460    6.6600 C   0  0  0  0  0  0  0  0  0  0  0  0
   -7.7910    6.6730    5.3750 C   0  0  0  0  0  0  0  0  0  0  0  0
   -9.0850    4.8820    6.5440 C   0  0  0  0  0  0  0  0  0  0  0  0
   -6.9940    6.6600   11.0510 N   0  0  0  0  0  0  0  0  0  0  0  0
   -6.0680    6.6510   12.1710 C   0  0  2  0  0  0  0  0  0  0  0  0
   -6.8580    6.8810   13.4580 C   0  0  0  0  0  0  0  0  0  0  0  0
   -7.8510    7.6060   13.4560 O   0  0  0  0  0  0  0  0  0  0  0  0
   -4.9950    7.7290   11.9830 C   0  0  0  0  0  0  0  0  0  0  0  0
   -4.0440    7.4460   10.8450 C   0  0  0  0  0  0  0  0  0  0  0  0
   -4.3670    7.8110    9.5420 C   0  0  0  0  0  0  0  0  0  0  0  0
   -2.8270    6.8030   11.0820 C   0  0  0  0  0  0  0  0  0  0  0  0
   -3.5020    7.5520    8.4970 C   0  0  0  0  0  0  0  0  0  0  0  0
   -1.9480    6.5330   10.0390 C   0  0  0  0  0  0  0  0  0  0  0  0
   -2.2820    6.9100    8.7380 C   0  0  0  0  0  0  0  0  0  0  0  0
   -6.4190    6.2430   14.5430 N   0  0  0  0  0  0  0  0  0  0  0  0
   -7.0670    6.3420   15.8570 C   0  0  2  0  0  0  0  0  0  0  0  0
   -6.7600    7.6400   16.5800 C   0  0  0  0  0  0  0  0  0  0  0  0
   -6.2550    7.5610   17.7210 O   0  5  0  0  0  0  0  0  0  0  0  0
   -6.6300    5.1760   16.7480 C   0  0  0  0  0  0  0  0  0  0  0  0
   -7.2980    3.8720   16.3720 C   0  0  0  0  0  0  0  0  0  0  0  0
   -6.8330    2.8080   16.8380 O   0  5  0  0  0  0  0  0  0  0  0  0
   -8.2940    3.9130   15.6170 O   0  0  0  0  0  0  0  0  0  0  0  0
   -7.0370    8.7120   16.0080 O   0  0  0  0  0  0  0  0  0  0  0  0
   -6.5981    7.9388  -16.1164 H   0  0  0  0  0  0  0  0  0  0  0  0
   -7.7747    7.6373  -15.0055 H   0  0  0  0  0  0  0  0  0  0  0  0
   -7.5002    6.5663  -16.2250 H   0  0  0  0  0  0  0  0  0  0  0  0
   -5.3170    6.0388  -15.3858 H   0  0  0  0  0  0  0  0  0  0  0  0
   -6.1512    7.9894  -13.1903 H   0  0  0  0  0  0  0  0  0  0  0  0
   -4.8657    8.2448  -14.4188 H   0  0  0  0  0  0  0  0  0  0  0  0
   -5.0605    4.2788  -13.9761 H   0  0  0  0  0  0  0  0  0  0  0  0
   -7.5229    2.9518  -13.3568 H   0  0  0  0  0  0  0  0  0  0  0  0
   -5.6252    1.7021  -14.1907 H   0  0  0  0  0  0  0  0  0  0  0  0
   -6.0772    1.0937  -12.5621 H   0  0  0  0  0  0  0  0  0  0  0  0
   -5.7489    5.0769  -11.3591 H   0  0  0  0  0  0  0  0  0  0  0  0
   -5.9035    3.8638   -8.8558 H   0  0  0  0  0  0  0  0  0  0  0  0
   -6.4326    6.8127   -9.3643 H   0  0  0  0  0  0  0  0  0  0  0  0
   -4.8055    6.0542   -9.4262 H   0  0  0  0  0  0  0  0  0  0  0  0
   -4.2002    4.6165   -7.2617 H   0  0  0  0  0  0  0  0  0  0  0  0
   -7.1116    7.7615   -7.3416 H   0  0  0  0  0  0  0  0  0  0  0  0
   -3.8638    4.9750   -4.8416 H   0  0  0  0  0  0  0  0  0  0  0  0
   -6.7899    8.1263   -4.9028 H   0  0  0  0  0  0  0  0  0  0  0  0
   -4.4222    6.1772   -3.0599 H   0  0  0  0  0  0  0  0  0  0  0  0
   -7.2739    3.5322   -7.3029 H   0  0  0  0  0  0  0  0  0  0  0  0
  -10.1149    4.1670   -7.8513 H   0  0  0  0  0  0  0  0  0  0  0  0
   -8.8273    2.1349   -5.9648 H   0  0  0  0  0  0  0  0  0  0  0  0
   -9.6633    1.7913   -7.5171 H   0  0  0  0  0  0  0  0  0  0  0  0
  -11.0547    3.2473   -5.2299 H   0  0  0  0  0  0  0  0  0  0  0  0
  -13.0642    2.3843   -6.4006 H   0  0  0  0  0  0  0  0  0  0  0  0
  -12.0070    1.5871   -7.6145 H   0  0  0  0  0  0  0  0  0  0  0  0
  -12.0360    3.3787   -7.4873 H   0  0  0  0  0  0  0  0  0  0  0  0
  -10.2354    1.1080   -4.3621 H   0  0  0  0  0  0  0  0  0  0  0  0
  -10.9826    0.2561   -5.7558 H   0  0  0  0  0  0  0  0  0  0  0  0
  -12.0207    1.1047   -4.5604 H   0  0  0  0  0  0  0  0  0  0  0  0
  -10.7492    5.9983   -6.9420 H   0  0  0  0  0  0  0  0  0  0  0  0
   -9.6218    6.9986   -4.4203 H   0  0  0  0  0  0  0  0  0  0  0  0
  -11.3817    8.7180   -4.6321 H   0  0  0  0  0  0  0  0  0  0  0  0
  -12.1316    7.8011   -5.9825 H   0  0  0  0  0  0  0  0  0  0  0  0
  -10.9663    7.9772   -8.3858 H   0  0  0  0  0  0  0  0  0  0  0  0
   -9.0206    9.3959   -9.3607 H   0  0  0  0  0  0  0  0  0  0  0  0
   -9.1763    9.9296   -3.9852 H   0  0  0  0  0  0  0  0  0  0  0  0
   -7.0038   11.0923   -8.3511 H   0  0  0  0  0  0  0  0  0  0  0  0
   -7.2212   11.4613   -4.0745 H   0  0  0  0  0  0  0  0  0  0  0  0
   -6.1570   12.0281   -6.2314 H   0  0  0  0  0  0  0  0  0  0  0  0
   -9.9545    5.4080   -2.9095 H   0  0  0  0  0  0  0  0  0  0  0  0
  -11.0244    3.7747   -1.7067 H   0  0  0  0  0  0  0  0  0  0  0  0
  -12.4336    3.9299   -2.8098 H   0  0  0  0  0  0  0  0  0  0  0  0
  -11.3885    6.7766   -1.0168 H   0  0  0  0  0  0  0  0  0  0  0  0
  -12.9994    6.1797    1.2905 H   0  0  0  0  0  0  0  0  0  0  0  0
  -12.9003    8.7025    1.6713 H   0  0  0  0  0  0  0  0  0  0  0  0
  -11.9128    8.7889    0.1733 H   0  0  0  0  0  0  0  0  0  0  0  0
  -10.1517    7.4917    1.1502 H   0  0  0  0  0  0  0  0  0  0  0  0
   -9.5617    8.8286    3.1542 H   0  0  0  0  0  0  0  0  0  0  0  0
  -11.2546    9.4199    3.2588 H   0  0  0  0  0  0  0  0  0  0  0  0
  -10.2325    9.8668    1.8508 H   0  0  0  0  0  0  0  0  0  0  0  0
  -11.6049    5.8292    2.2775 H   0  0  0  0  0  0  0  0  0  0  0  0
  -12.0488    7.0562    3.5121 H   0  0  0  0  0  0  0  0  0  0  0  0
  -10.3543    6.4714    3.3956 H   0  0  0  0  0  0  0  0  0  0  0  0
  -15.1012    6.0255    1.4108 H   0  0  0  0  0  0  0  0  0  0  0  0
  -16.8555    6.8271   -0.7286 H   0  0  0  0  0  0  0  0  0  0  0  0
  -17.9326    6.4525    2.0442 H   0  0  0  0  0  0  0  0  0  0  0  0
  -17.0349    5.0693    1.3316 H   0  0  0  0  0  0  0  0  0  0  0  0
  -19.5357    6.4324    0.2491 H   0  0  0  0  0  0  0  0  0  0  0  0
  -19.3765    4.7600    0.8851 H   0  0  0  0  0  0  0  0  0  0  0  0
  -18.8502    8.3196   -0.0728 H   0  0  0  0  0  0  0  0  0  0  0  0
  -17.9198   10.9472    0.0903 H   0  0  0  0  0  0  0  0  0  0  0  0
  -20.2426   11.5949    0.6625 H   0  0  0  0  0  0  0  0  0  0  0  0
  -20.6282    9.8778    1.0220 H   0  0  0  0  0  0  0  0  0  0  0  0
  -20.1962   10.3701   -0.6507 H   0  0  0  0  0  0  0  0  0  0  0  0
  -17.2833   12.2822    1.6374 H   0  0  0  0  0  0  0  0  0  0  0  0
  -18.1549   12.4185    4.2523 H   0  0  0  0  0  0  0  0  0  0  0  0
  -16.5317   12.9488    3.6951 H   0  0  0  0  0  0  0  0  0  0  0  0
  -14.9540   10.8995    3.4367 H   0  0  0  0  0  0  0  0  0  0  0  0
  -15.3765    9.3300    5.9337 H   0  0  0  0  0  0  0  0  0  0  0  0
  -13.4862    7.8541    4.6850 H   0  0  0  0  0  0  0  0  0  0  0  0
  -14.3225    8.5489    3.2551 H   0  0  0  0  0  0  0  0  0  0  0  0
  -16.4422    7.6526    3.9700 H   0  0  0  0  0  0  0  0  0  0  0  0
  -15.7536    7.1410    5.5482 H   0  0  0  0  0  0  0  0  0  0  0  0
  -13.1249   11.3983    4.1967 H   0  0  0  0  0  0  0  0  0  0  0  0
  -11.8670   12.3996    6.3712 H   0  0  0  0  0  0  0  0  0  0  0  0
  -11.0657   12.2016    4.7758 H   0  0  0  0  0  0  0  0  0  0  0  0
   -9.1821   12.3312    6.0283 H   0  0  0  0  0  0  0  0  0  0  0  0
   -7.9343    9.8206    6.3458 H   0  0  0  0  0  0  0  0  0  0  0  0
   -6.7813   12.0092    5.8095 H   0  0  0  0  0  0  0  0  0  0  0  0
   -5.7545   10.4739    8.2404 H   0  0  0  0  0  0  0  0  0  0  0  0
   -4.7737   11.6072    7.2503 H   0  0  0  0  0  0  0  0  0  0  0  0
   -7.9713   13.4033    7.4858 H   0  0  0  0  0  0  0  0  0  0  0  0
   -6.1885   13.5246    7.6684 H   0  0  0  0  0  0  0  0  0  0  0  0
   -7.1413   12.5141    8.8075 H   0  0  0  0  0  0  0  0  0  0  0  0
   -4.3317    9.2732    6.6460 H   0  0  0  0  0  0  0  0  0  0  0  0
   -5.0912   10.1635    5.2832 H   0  0  0  0  0  0  0  0  0  0  0  0
   -6.0720    9.0301    6.2733 H   0  0  0  0  0  0  0  0  0  0  0  0
   -9.6256   11.8225    8.7070 H   0  0  0  0  0  0  0  0  0  0  0  0
   -8.4996   10.7542   11.0733 H   0  0  0  0  0  0  0  0  0  0  0  0
  -10.7672   11.4043   12.1082 H   0  0  0  0  0  0  0  0  0  0  0  0
  -11.2304   11.9553   10.4624 H   0  0  0  0  0  0  0  0  0  0  0  0
   -9.3746   13.3210   10.5307 H   0  0  0  0  0  0  0  0  0  0  0  0
  -10.7944    9.3699    8.8649 H   0  0  0  0  0  0  0  0  0  0  0  0
  -11.7189    7.4437   10.8760 H   0  0  0  0  0  0  0  0  0  0  0  0
  -13.0204    6.5190    8.9885 H   0  0  0  0  0  0  0  0  0  0  0  0
  -12.2028    7.6661    7.8739 H   0  0  0  0  0  0  0  0  0  0  0  0
   -8.8425    7.7691    9.5475 H   0  0  0  0  0  0  0  0  0  0  0  0
   -8.5757    4.8543    8.9398 H   0  0  0  0  0  0  0  0  0  0  0  0
   -6.6333    5.4662    7.5239 H   0  0  0  0  0  0  0  0  0  0  0  0
   -6.9433    7.2012    7.8709 H   0  0  0  0  0  0  0  0  0  0  0  0
   -9.2171    6.9805    6.9180 H   0  0  0  0  0  0  0  0  0  0  0  0
   -8.5448    6.6982    4.5743 H   0  0  0  0  0  0  0  0  0  0  0  0
   -6.9979    5.9584    5.1096 H   0  0  0  0  0  0  0  0  0  0  0  0
   -7.3549    7.6751    5.4997 H   0  0  0  0  0  0  0  0  0  0  0  0
   -9.5460    4.6115    7.5054 H   0  0  0  0  0  0  0  0  0  0  0  0
   -8.3205    4.1360    6.2812 H   0  0  0  0  0  0  0  0  0  0  0  0
   -9.8574    4.9070    5.7612 H   0  0  0  0  0  0  0  0  0  0  0  0
   -7.6222    7.4314   10.9497 H   0  0  0  0  0  0  0  0  0  0  0  0
   -5.5750    5.6691   12.2239 H   0  0  0  0  0  0  0  0  0  0  0  0
   -4.4117    7.8044   12.9125 H   0  0  0  0  0  0  0  0  0  0  0  0
   -5.4967    8.6879   11.7861 H   0  0  0  0  0  0  0  0  0  0  0  0
   -5.3110    8.3057    9.3441 H   0  0  0  0  0  0  0  0  0  0  0  0
   -2.5643    6.5106   12.0922 H   0  0  0  0  0  0  0  0  0  0  0  0
   -3.7685    7.8465    7.4884 H   0  0  0  0  0  0  0  0  0  0  0  0
   -1.0072    6.0317   10.2359 H   0  0  0  0  0  0  0  0  0  0  0  0
   -1.6011    6.7070    7.9193 H   0  0  0  0  0  0  0  0  0  0  0  0
   -5.6060    5.6670   14.4577 H   0  0  0  0  0  0  0  0  0  0  0  0
   -8.1545    6.2832   15.7028 H   0  0  0  0  0  0  0  0  0  0  0  0
   -6.8861    5.4147   17.7908 H   0  0  0  0  0  0  0  0  0  0  0  0
   -5.5408    5.0525   16.6569 H   0  0  0  0  0  0  0  0  0  0  0  0
  1  2  1  0  0  0  0
  1144  1  0  0  0  0
  1145  1  0  0  0  0
  1146  1  0  0  0  0
  2  3  1  0  0  0  0
  2  5  1  0  0  0  0
  2147  1  6  0  0  0
  3  4  2  0  0  0  0
  3  9  1  0  0  0  0
  5  6  1  0  0  0  0
  5148  1  0  0  0  0
  5149  1  0  0  0  0
  6  7  1  0  0  0  0
  6  8  2  0  0  0  0
  9 10  1  0  0  0  0
  9150  1  0  0  0  0
 10 11  1  0  0  0  0
 10 13  1  0  0  0  0
 10151  1  6  0  0  0
 11 12  2  0  0  0  0
 11 17  1  0  0  0  0
 13 14  1  0  0  0  0
 13152  1  0  0  0  0
 13153  1  0  0  0  0
 14 15  1  0  0  0  0
 14 16  2  0  0  0  0
 17 18  1  0  0  0  0
 17154  1  0  0  0  0
 18 19  1  0  0  0  0
 18 21  1  0  0  0  0
 18155  1  1  0  0  0
 19 20  2  0  0  0  0
 19 29  1  0  0  0  0
 21 22  1  0  0  0  0
 21156  1  0  0  0  0
 21157  1  0  0  0  0
 22 23  2  0  0  0  0
 22 24  1  0  0  0  0
 23 25  1  0  0  0  0
 23158  1  0  0  0  0
 24 26  2  0  0  0  0
 24159  1  0  0  0  0
 25 27  2  0  0  0  0
 25160  1  0  0  0  0
 26 27  1  0  0  0  0
 26161  1  0  0  0  0
 27 28  1  0  0  0  0
 28162  1  0  0  0  0
 29 30  1  0  0  0  0
 29163  1  0  0  0  0
 30 31  1  0  0  0  0
 30 33  1  0  0  0  0
 30164  1  6  0  0  0
 31 32  2  0  0  0  0
 31 37  1  0  0  0  0
 33 34  1  0  0  0  0
 33165  1  0  0  0  0
 33166  1  0  0  0  0
 34 35  1  0  0  0  0
 34 36  1  0  0  0  0
 34167  1  0  0  0  0
 35168  1  0  0  0  0
 35169  1  0  0  0  0
 35170  1  0  0  0  0
 36171  1  0  0  0  0
 36172  1  0  0  0  0
 36173  1  0  0  0  0
 37 38  1  0  0  0  0
 37174  1  0  0  0  0
 38 39  1  0  0  0  0
 38 41  1  0  0  0  0
 38175  1  1  0  0  0
 39 40  2  0  0  0  0
 39 51  1  0  0  0  0
 41 42  1  0  0  0  0
 41176  1  0  0  0  0
 41177  1  0  0  0  0
 42 43  2  0  0  0  0
 42 44  1  0  0  0  0
 43 45  1  0  0  0  0
 43178  1  0  0  0  0
 44 46  2  0  0  0  0
 44 47  1  0  0  0  0
 45 46  1  0  0  0  0
 45179  1  0  0  0  0
 46 48  1  0  0  0  0
 47 49  2  0  0  0  0
 47180  1  0  0  0  0
 48 50  2  0  0  0  0
 48181  1  0  0  0  0
 49 50  1  0  0  0  0
 49182  1  0  0  0  0
 50183  1  0  0  0  0
 51 52  1  0  0  0  0
 51184  1  0  0  0  0
 52 53  1  0  0  0  0
 52185  1  0  0  0  0
 52186  1  0  0  0  0
 53 54  2  0  0  0  0
 53 55  1  0  0  0  0
 55 56  1  0  0  0  0
 55187  1  0  0  0  0
 56 57  1  0  0  0  0
 56 59  1  0  0  0  0
 56188  1  1  0  0  0
 57 58  2  0  0  0  0
 57 63  1  0  0  0  0
 59 60  1  0  0  0  0
 59189  1  0  0  0  0
 59190  1  0  0  0  0
 60 61  1  0  0  0  0
 60 62  1  0  0  0  0
 60191  1  0  0  0  0
 61192  1  0  0  0  0
 61193  1  0  0  0  0
 61194  1  0  0  0  0
 62195  1  0  0  0  0
 62196  1  0  0  0  0
 62197  1  0  0  0  0
 63 64  1  0  0  0  0
 63198  1  0  0  0  0
 64 65  1  0  0  0  0
 64 67  1  0  0  0  0
 64199  1  6  0  0  0
 65 66  2  0  0  0  0
 65 72  1  0  0  0  0
 67 68  1  0  0  0  0
 67200  1  0  0  0  0
 67201  1  0  0  0  0
 68 69  1  0  0  0  0
 68202  1  0  0  0  0
 68203  1  0  0  0  0
 69 70  1  0  0  0  0
 69 71  2  0  0  0  0
 72 73  1  0  0  0  0
 72204  1  0  0  0  0
 73 74  1  0  0  0  0
 73 76  1  0  0  0  0
 73205  1  6  0  0  0
 74 75  2  0  0  0  0
 74 77  1  0  0  0  0
 76206  1  0  0  0  0
 76207  1  0  0  0  0
 76208  1  0  0  0  0
 77 78  1  0  0  0  0
 77209  1  0  0  0  0
 78 79  1  0  0  0  0
 78210  1  0  0  0  0
 78211  1  0  0  0  0
 79 80  2  0  0  0  0
 79 81  1  0  0  0  0
 81 82  1  0  0  0  0
 81212  1  0  0  0  0
 82 83  1  0  0  0  0
 82 85  1  0  0  0  0
 82213  1  1  0  0  0
 83 84  2  0  0  0  0
 83 90  1  0  0  0  0
 85 86  1  0  0  0  0
 85214  1  0  0  0  0
 85215  1  0  0  0  0
 86 87  1  0  0  0  0
 86216  1  0  0  0  0
 86217  1  0  0  0  0
 87 88  1  0  0  0  0
 87 89  2  0  0  0  0
 90 91  1  0  0  0  0
 90218  1  0  0  0  0
 91 92  1  0  0  0  0
 91219  1  0  0  0  0
 91220  1  0  0  0  0
 92 93  2  0  0  0  0
 92 94  1  0  0  0  0
 94 95  1  0  0  0  0
 94221  1  0  0  0  0
 95 96  1  0  0  0  0
 95 98  1  0  0  0  0
 95222  1  6  0  0  0
 96 97  2  0  0  0  0
 96102  1  0  0  0  0
 98 99  1  0  0  0  0
 98100  1  0  0  0  0
 98223  1  6  0  0  0
 99101  1  0  0  0  0
 99224  1  0  0  0  0
 99225  1  0  0  0  0
100226  1  0  0  0  0
100227  1  0  0  0  0
100228  1  0  0  0  0
101229  1  0  0  0  0
101230  1  0  0  0  0
101231  1  0  0  0  0
102103  1  0  0  0  0
102232  1  0  0  0  0
103104  1  0  0  0  0
103106  1  0  0  0  0
103233  1  1  0  0  0
104105  2  0  0  0  0
104108  1  0  0  0  0
106107  1  0  0  0  0
106234  1  0  0  0  0
106235  1  0  0  0  0
107236  1  0  0  0  0
108109  1  0  0  0  0
108237  1  0  0  0  0
109110  1  0  0  0  0
109112  1  0  0  0  0
109238  1  1  0  0  0
110111  2  0  0  0  0
110116  1  0  0  0  0
112113  1  0  0  0  0
112239  1  0  0  0  0
112240  1  0  0  0  0
113114  1  0  0  0  0
113115  2  0  0  0  0
116117  1  0  0  0  0
116241  1  0  0  0  0
117118  1  0  0  0  0
117120  1  0  0  0  0
117242  1  6  0  0  0
118119  2  0  0  0  0
118124  1  0  0  0  0
120121  1  0  0  0  0
120243  1  0  0  0  0
120244  1  0  0  0  0
121122  1  0  0  0  0
121123  1  0  0  0  0
121245  1  0  0  0  0
122246  1  0  0  0  0
122247  1  0  0  0  0
122248  1  0  0  0  0
123249  1  0  0  0  0
123250  1  0  0  0  0
123251  1  0  0  0  0
124125  1  0  0  0  0
124252  1  0  0  0  0
125126  1  0  0  0  0
125128  1  0  0  0  0
125253  1  1  0  0  0
126127  2  0  0  0  0
126135  1  0  0  0  0
128129  1  0  0  0  0
128254  1  0  0  0  0
128255  1  0  0  0  0
129130  2  0  0  0  0
129131  1  0  0  0  0
130132  1  0  0  0  0
130256  1  0  0  0  0
131133  2  0  0  0  0
131257  1  0  0  0  0
132134  2  0  0  0  0
132258  1  0  0  0  0
133134  1  0  0  0  0
133259  1  0  0  0  0
134260  1  0  0  0  0
135136  1  0  0  0  0
135261  1  0  0  0  0
136137  1  0  0  0  0
136139  1  0  0  0  0
136262  1  6  0  0  0
137138  1  0  0  0  0
137143  2  0  0  0  0
139140  1  0  0  0  0
139263  1  0  0  0  0
139264  1  0  0  0  0
140141  1  0  0  0  0
140142  2  0  0  0  0
M  CHG  8   1   1   7  -1  15  -1  70  -1  88  -1 114  -1 138  -1 141  -1
M  END
