1n7m_ligand
 OpenBabel08222323343D

 95 99  0  0  1  0  0  0  0  0999 V2000
  -10.3560 -109.9990   10.3250 C   0  0  0  0  0  0  0  0  0  0  0  0
  -11.0950 -109.1940   11.4260 N   0  3  2  0  0  0  0  0  0  0  0  0
  -11.9490 -108.1050   11.0300 C   0  0  2  0  0  0  0  0  0  0  0  0
  -11.6970 -106.9430   11.8850 C   0  0  0  0  0  0  0  0  0  0  0  0
  -10.7060 -107.2990   12.8050 C   0  0  0  0  0  0  0  0  0  0  0  0
  -10.3280 -108.6810   12.5330 C   0  0  1  0  0  0  0  0  0  0  0  0
   -9.3310 -109.4340   13.2790 C   0  0  0  0  0  0  0  0  0  0  0  0
  -12.4300 -105.5560   11.7800 C   0  0  0  0  0  0  0  0  0  0  0  0
  -10.1080 -106.4250   13.9180 C   0  0  0  0  0  0  0  0  0  0  0  0
   -9.4360 -105.3000   13.7030 C   0  0  0  0  0  0  0  0  0  0  0  0
  -10.7220 -111.4910   13.3960 N   0  3  0  0  0  0  0  0  0  0  0  0
   -9.6400 -110.7290   13.8250 C   0  0  2  0  0  0  0  0  0  0  0  0
   -8.9250 -111.4540   14.8710 C   0  0  0  0  0  0  0  0  0  0  0  0
   -9.6030 -112.6670   15.0570 C   0  0  0  0  0  0  0  0  0  0  0  0
  -10.7290 -112.6720   14.1220 C   0  0  2  0  0  0  0  0  0  0  0  0
  -11.6930 -113.7190   13.9610 C   0  0  0  0  0  0  0  0  0  0  0  0
   -7.6550 -110.9700   15.6310 C   0  0  0  0  0  0  0  0  0  0  0  0
   -9.2400 -113.7820   16.0510 C   0  0  0  0  0  0  0  0  0  0  0  0
   -9.8010 -113.8310   17.2700 C   0  0  0  0  0  0  0  0  0  0  0  0
  -13.2030 -112.8140   12.2030 N   0  0  0  0  0  0  0  0  0  0  0  0
  -12.8210 -113.8040   13.0870 C   0  0  0  0  0  0  0  0  0  0  0  0
  -13.7410 -114.9370   12.9820 C   0  0  0  0  0  0  0  0  0  0  0  0
  -14.6860 -114.6070   12.0060 C   0  0  0  0  0  0  0  0  0  0  0  0
  -14.3260 -113.2600   11.5300 C   0  0  2  0  0  0  0  0  0  0  0  0
  -15.0190 -112.5170   10.5220 C   0  0  0  0  0  0  0  0  0  0  0  0
  -13.6760 -116.2630   13.8020 C   0  0  0  0  0  0  0  0  0  0  0  0
  -15.9070 -115.4960   11.5070 C   0  0  0  0  0  0  0  0  0  0  0  0
  -17.2360 -115.1950   12.2830 C   0  0  0  0  0  0  0  0  0  0  0  0
  -18.3850 -114.7790   11.3690 C   0  0  0  0  0  0  0  0  0  0  0  0
  -18.7720 -113.4600   11.3080 O   0  0  0  0  0  0  0  0  0  0  0  0
  -19.0380 -115.7230   10.6120 O   0  0  0  0  0  0  0  0  0  0  0  0
  -13.7820 -110.3610   10.4800 N   0  0  0  0  0  0  0  0  0  0  0  0
  -14.7700 -111.1990   10.0180 C   0  0  0  0  0  0  0  0  0  0  0  0
  -15.5260 -110.5310    8.9390 C   0  0  0  0  0  0  0  0  0  0  0  0
  -14.9390 -109.2600    8.7760 C   0  0  0  0  0  0  0  0  0  0  0  0
  -13.8520 -109.1640    9.7510 C   0  0  1  0  0  0  0  0  0  0  0  0
  -12.9570 -108.0400    9.9810 C   0  0  0  0  0  0  0  0  0  0  0  0
  -15.3740 -108.1570    7.7540 C   0  0  0  0  0  0  0  0  0  0  0  0
  -16.7540 -111.1270    8.1230 C   0  0  0  0  0  0  0  0  0  0  0  0
  -18.1340 -110.9130    8.8410 C   0  0  0  0  0  0  0  0  0  0  0  0
  -19.1900 -110.2830    7.9310 C   0  0  0  0  0  0  0  0  0  0  0  0
  -20.1010 -111.0840    7.2830 O   0  0  0  0  0  0  0  0  0  0  0  0
  -19.2330 -108.9160    7.7660 O   0  0  0  0  0  0  0  0  0  0  0  0
  -11.0768 -110.3175    9.5575 H   0  0  0  0  0  0  0  0  0  0  0  0
   -9.8827 -110.8848   10.7737 H   0  0  0  0  0  0  0  0  0  0  0  0
   -9.5845 -109.3655    9.8630 H   0  0  0  0  0  0  0  0  0  0  0  0
  -11.7124 -109.8825   11.8270 H   0  0  0  0  0  0  0  0  0  0  0  0
  -11.2035 -107.7805   10.2891 H   0  0  0  0  0  0  0  0  0  0  0  0
   -9.5255 -108.3535   11.8558 H   0  0  0  0  0  0  0  0  0  0  0  0
   -9.0292 -108.8007   14.1262 H   0  0  0  0  0  0  0  0  0  0  0  0
   -8.4746 -109.5751   12.6033 H   0  0  0  0  0  0  0  0  0  0  0  0
  -12.0368 -104.8744   12.5487 H   0  0  0  0  0  0  0  0  0  0  0  0
  -13.5096 -105.6992   11.9345 H   0  0  0  0  0  0  0  0  0  0  0  0
  -12.2563 -105.1240   10.7834 H   0  0  0  0  0  0  0  0  0  0  0  0
  -10.2438 -106.7487   14.9489 H   0  0  0  0  0  0  0  0  0  0  0  0
   -9.0407 -104.7326   14.5443 H   0  0  0  0  0  0  0  0  0  0  0  0
   -9.2802 -104.9448   12.6854 H   0  0  0  0  0  0  0  0  0  0  0  0
  -11.5801 -110.9866   13.5551 H   0  0  0  0  0  0  0  0  0  0  0  0
  -10.6289 -111.6942   12.4131 H   0  0  0  0  0  0  0  0  0  0  0  0
   -8.9852 -111.1662   13.0569 H   0  0  0  0  0  0  0  0  0  0  0  0
  -11.3899 -112.2324   14.8835 H   0  0  0  0  0  0  0  0  0  0  0  0
  -11.5434 -114.5848   14.6044 H   0  0  0  0  0  0  0  0  0  0  0  0
   -7.3500 -111.7353   16.3598 H   0  0  0  0  0  0  0  0  0  0  0  0
   -7.8786 -110.0306   16.1577 H   0  0  0  0  0  0  0  0  0  0  0  0
   -6.8393 -110.8023   14.9124 H   0  0  0  0  0  0  0  0  0  0  0  0
   -8.5171 -114.5435   15.7623 H   0  0  0  0  0  0  0  0  0  0  0  0
   -9.5321 -114.6281   17.9615 H   0  0  0  0  0  0  0  0  0  0  0  0
  -10.5249 -113.0736   17.5671 H   0  0  0  0  0  0  0  0  0  0  0  0
  -12.7353 -111.9061   12.0689 H   0  0  0  0  0  0  0  0  0  0  0  0
  -14.9883 -112.7964   12.2759 H   0  0  0  0  0  0  0  0  0  0  0  0
  -16.0567 -112.4748   10.8845 H   0  0  0  0  0  0  0  0  0  0  0  0
  -14.9678 -113.1599    9.6309 H   0  0  0  0  0  0  0  0  0  0  0  0
  -12.8200 -116.2259   14.4919 H   0  0  0  0  0  0  0  0  0  0  0  0
  -13.5564 -117.1136   13.1149 H   0  0  0  0  0  0  0  0  0  0  0  0
  -14.6056 -116.3843   14.3774 H   0  0  0  0  0  0  0  0  0  0  0  0
  -15.6503 -116.5563   11.6480 H   0  0  0  0  0  0  0  0  0  0  0  0
  -16.0720 -115.2977   10.4377 H   0  0  0  0  0  0  0  0  0  0  0  0
  -17.0464 -114.3813   12.9985 H   0  0  0  0  0  0  0  0  0  0  0  0
  -17.5348 -116.1017   12.8295 H   0  0  0  0  0  0  0  0  0  0  0  0
  -17.6731 -114.6102   10.5476 H   0  0  0  0  0  0  0  0  0  0  0  0
  -18.2237 -112.9432   11.8867 H   0  0  0  0  0  0  0  0  0  0  0  0
  -18.6510 -116.5763   10.7691 H   0  0  0  0  0  0  0  0  0  0  0  0
  -13.1322 -109.5355    9.0068 H   0  0  0  0  0  0  0  0  0  0  0  0
  -12.4198 -107.8657    9.0370 H   0  0  0  0  0  0  0  0  0  0  0  0
  -13.5927 -107.1712   10.2071 H   0  0  0  0  0  0  0  0  0  0  0  0
  -16.2211 -108.5246    7.1563 H   0  0  0  0  0  0  0  0  0  0  0  0
  -14.5307 -107.9208    7.0884 H   0  0  0  0  0  0  0  0  0  0  0  0
  -15.6759 -107.2506    8.2991 H   0  0  0  0  0  0  0  0  0  0  0  0
  -16.5935 -112.2068    7.9882 H   0  0  0  0  0  0  0  0  0  0  0  0
  -16.7916 -110.6363    7.1393 H   0  0  0  0  0  0  0  0  0  0  0  0
  -17.9797 -110.2534    9.7077 H   0  0  0  0  0  0  0  0  0  0  0  0
  -18.5054 -111.8896    9.1850 H   0  0  0  0  0  0  0  0  0  0  0  0
  -18.5046 -110.3660    7.0747 H   0  0  0  0  0  0  0  0  0  0  0  0
  -19.9343 -111.9931    7.5026 H   0  0  0  0  0  0  0  0  0  0  0  0
  -18.5409 -108.5144    8.2781 H   0  0  0  0  0  0  0  0  0  0  0  0
  1  2  1  0  0  0  0
  1 44  1  0  0  0  0
  1 45  1  0  0  0  0
  1 46  1  0  0  0  0
  2  3  1  0  0  0  0
  2  6  1  0  0  0  0
  2 47  1  1  0  0  0
  3  4  1  0  0  0  0
  3 37  1  0  0  0  0
  3 48  1  6  0  0  0
  4  5  2  0  0  0  0
  4  8  1  0  0  0  0
  5  6  1  0  0  0  0
  5  9  1  0  0  0  0
  6  7  1  0  0  0  0
  6 49  1  6  0  0  0
  7 12  1  0  0  0  0
  7 50  1  0  0  0  0
  7 51  1  0  0  0  0
  8 52  1  0  0  0  0
  8 53  1  0  0  0  0
  8 54  1  0  0  0  0
  9 10  2  0  0  0  0
  9 55  1  0  0  0  0
 10 56  1  0  0  0  0
 10 57  1  0  0  0  0
 11 58  1  0  0  0  0
 11 59  1  0  0  0  0
 12 13  1  0  0  0  0
 12 11  1  0  0  0  0
 12 60  1  6  0  0  0
 13 14  2  0  0  0  0
 13 17  1  0  0  0  0
 14 15  1  0  0  0  0
 14 18  1  0  0  0  0
 15 16  1  0  0  0  0
 15 11  1  0  0  0  0
 15 61  1  1  0  0  0
 16 21  2  0  0  0  0
 16 62  1  0  0  0  0
 17 63  1  0  0  0  0
 17 64  1  0  0  0  0
 17 65  1  0  0  0  0
 18 19  2  0  0  0  0
 18 66  1  0  0  0  0
 19 67  1  0  0  0  0
 19 68  1  0  0  0  0
 20 69  1  0  0  0  0
 21 22  1  0  0  0  0
 21 20  1  0  0  0  0
 22 23  2  0  0  0  0
 22 26  1  0  0  0  0
 23 24  1  0  0  0  0
 23 27  1  0  0  0  0
 24 25  1  0  0  0  0
 24 20  1  0  0  0  0
 24 70  1  1  0  0  0
 25 33  1  0  0  0  0
 25 71  1  0  0  0  0
 25 72  1  0  0  0  0
 26 73  1  0  0  0  0
 26 74  1  0  0  0  0
 26 75  1  0  0  0  0
 27 28  1  0  0  0  0
 27 76  1  0  0  0  0
 27 77  1  0  0  0  0
 28 29  1  0  0  0  0
 28 78  1  0  0  0  0
 28 79  1  0  0  0  0
 29 30  1  0  0  0  0
 29 31  1  0  0  0  0
 29 80  1  0  0  0  0
 30 81  1  0  0  0  0
 31 82  1  0  0  0  0
 33 34  1  0  0  0  0
 33 32  2  0  0  0  0
 34 35  2  0  0  0  0
 34 39  1  0  0  0  0
 35 36  1  0  0  0  0
 35 38  1  0  0  0  0
 36 37  1  0  0  0  0
 36 32  1  0  0  0  0
 36 83  1  6  0  0  0
 37 84  1  0  0  0  0
 37 85  1  0  0  0  0
 38 86  1  0  0  0  0
 38 87  1  0  0  0  0
 38 88  1  0  0  0  0
 39 40  1  0  0  0  0
 39 89  1  0  0  0  0
 39 90  1  0  0  0  0
 40 41  1  0  0  0  0
 40 91  1  0  0  0  0
 40 92  1  0  0  0  0
 41 42  1  0  0  0  0
 41 43  1  0  0  0  0
 41 93  1  0  0  0  0
 42 94  1  0  0  0  0
 43 95  1  0  0  0  0
M  CHG  2   2   1  11   1
M  END
