1n7t_ligand
 OpenBabel08222323343D

117120  0  0  1  0  0  0  0  0999 V2000
   -2.2440   -7.6330    5.3410 N   0  3  0  0  0  0  0  0  0  0  0  0
   -1.0530   -8.2790    4.7300 C   0  0  2  0  0  0  0  0  0  0  0  0
    0.1040   -7.2940    4.6020 C   0  0  0  0  0  0  0  0  0  0  0  0
    1.1520   -7.4670    5.2260 O   0  0  0  0  0  0  0  0  0  0  0  0
   -1.4430   -8.8200    3.3550 C   0  0  2  0  0  0  0  0  0  0  0  0
   -2.7430   -9.3820    3.3880 O   0  0  0  0  0  0  0  0  0  0  0  0
   -0.4970   -9.8860    2.8420 C   0  0  0  0  0  0  0  0  0  0  0  0
   -2.0008   -7.2711    6.2498 H   0  0  0  0  0  0  0  0  0  0  0  0
   -2.9827   -8.3121    5.4365 H   0  0  0  0  0  0  0  0  0  0  0  0
   -2.5562   -6.8776    4.7511 H   0  0  0  0  0  0  0  0  0  0  0  0
   -0.7331   -9.1153    5.3689 H   0  0  0  0  0  0  0  0  0  0  0  0
   -1.4355   -7.9781    2.6471 H   0  0  0  0  0  0  0  0  0  0  0  0
   -2.9662   -9.7119    2.5255 H   0  0  0  0  0  0  0  0  0  0  0  0
   -0.8341  -10.2302    1.8531 H   0  0  0  0  0  0  0  0  0  0  0  0
   -0.4867  -10.7347    3.5417 H   0  0  0  0  0  0  0  0  0  0  0  0
    0.5167   -9.4673    2.7585 H   0  0  0  0  0  0  0  0  0  0  0  0
   -0.0950   -6.2590    3.7900 N   0  0  0  0  0  0  0  0  0  0  0  0
    0.9370   -5.2570    3.5920 C   0  0  0  0  0  0  0  0  0  0  0  0
    2.0270   -5.7230    2.6460 C   0  0  0  0  0  0  0  0  0  0  0  0
    2.5680   -6.8160    2.8030 O   0  0  0  0  0  0  0  0  0  0  0  0
   -0.9674   -6.1699    3.3094 H   0  0  0  0  0  0  0  0  0  0  0  0
    1.3919   -5.0223    4.5656 H   0  0  0  0  0  0  0  0  0  0  0  0
    0.4731   -4.3505    3.1760 H   0  0  0  0  0  0  0  0  0  0  0  0
    2.3510   -4.8880    1.6620 N   0  0  0  0  0  0  0  0  0  0  0  0
    3.3880   -5.2180    0.6880 C   0  0  2  0  0  0  0  0  0  0  0  0
    3.7380   -4.0080   -0.1730 C   0  0  0  0  0  0  0  0  0  0  0  0
    4.9090   -3.7500   -0.4480 O   0  0  0  0  0  0  0  0  0  0  0  0
    2.9530   -6.3890   -0.2050 C   0  0  0  0  0  0  0  0  0  0  0  0
    1.5260   -6.3110   -0.6630 C   0  0  0  0  0  0  0  0  0  0  0  0
    0.4260   -6.7700    0.0030 C   0  0  0  0  0  0  0  0  0  0  0  0
    1.0460   -5.7520   -1.8920 C   0  0  0  0  0  0  0  0  0  0  0  0
   -0.7090   -6.5270   -0.7350 N   0  0  0  0  0  0  0  0  0  0  0  0
   -0.3540   -5.9030   -1.9020 C   0  0  0  0  0  0  0  0  0  0  0  0
    1.6630   -5.1370   -2.9860 C   0  0  0  0  0  0  0  0  0  0  0  0
   -1.1450   -5.4610   -2.9600 C   0  0  0  0  0  0  0  0  0  0  0  0
    0.8770   -4.6990   -4.0350 C   0  0  0  0  0  0  0  0  0  0  0  0
   -0.5130   -4.8620   -4.0150 C   0  0  0  0  0  0  0  0  0  0  0  0
    1.8727   -4.0130    1.5876 H   0  0  0  0  0  0  0  0  0  0  0  0
    4.2900   -5.5213    1.2397 H   0  0  0  0  0  0  0  0  0  0  0  0
    3.0837   -7.3229    0.3613 H   0  0  0  0  0  0  0  0  0  0  0  0
    3.6009   -6.4053   -1.0938 H   0  0  0  0  0  0  0  0  0  0  0  0
    0.4446   -7.2575    0.9766 H   0  0  0  0  0  0  0  0  0  0  0  0
   -1.6692   -6.7739   -0.4559 H   0  0  0  0  0  0  0  0  0  0  0  0
    2.7388   -5.0061   -3.0108 H   0  0  0  0  0  0  0  0  0  0  0  0
   -2.2216   -5.5871   -2.9478 H   0  0  0  0  0  0  0  0  0  0  0  0
    1.3451   -4.2210   -4.8879 H   0  0  0  0  0  0  0  0  0  0  0  0
   -1.1011   -4.5061   -4.8532 H   0  0  0  0  0  0  0  0  0  0  0  0
    2.7190   -3.2660   -0.5980 N   0  0  0  0  0  0  0  0  0  0  0  0
    2.9350   -2.0820   -1.4270 C   0  0  2  0  0  0  0  0  0  0  0  0
    3.5430   -0.9480   -0.6070 C   0  0  0  0  0  0  0  0  0  0  0  0
    3.0560   -0.6220    0.4760 O   0  0  0  0  0  0  0  0  0  0  0  0
    1.6190   -1.6180   -2.0530 C   0  0  0  0  0  0  0  0  0  0  0  0
    0.4980   -1.4420   -1.0420 C   0  0  0  0  0  0  0  0  0  0  0  0
   -0.4560   -2.6210   -1.0130 C   0  0  0  0  0  0  0  0  0  0  0  0
   -1.1370   -2.8580   -2.0320 O   0  5  0  0  0  0  0  0  0  0  0  0
   -0.5210   -3.3060    0.0290 O   0  0  0  0  0  0  0  0  0  0  0  0
    1.7864   -3.5236   -0.3451 H   0  0  0  0  0  0  0  0  0  0  0  0
    3.6347   -2.3454   -2.2339 H   0  0  0  0  0  0  0  0  0  0  0  0
    1.3039   -2.3653   -2.7962 H   0  0  0  0  0  0  0  0  0  0  0  0
    1.7918   -0.6537   -2.5532 H   0  0  0  0  0  0  0  0  0  0  0  0
   -0.0700   -0.5363   -1.3008 H   0  0  0  0  0  0  0  0  0  0  0  0
    0.9413   -1.3237   -0.0423 H   0  0  0  0  0  0  0  0  0  0  0  0
    4.6070   -0.3490   -1.1340 N   0  0  0  0  0  0  0  0  0  0  0  0
    5.2860    0.7530   -0.4590 C   0  0  2  0  0  0  0  0  0  0  0  0
    5.3230    1.9890   -1.3520 C   0  0  0  0  0  0  0  0  0  0  0  0
    5.8740    1.9550   -2.4520 O   0  0  0  0  0  0  0  0  0  0  0  0
    6.7090    0.3440   -0.0750 C   0  0  2  0  0  0  0  0  0  0  0  0
    6.7200   -0.9510    0.4990 O   0  0  0  0  0  0  0  0  0  0  0  0
    7.3560    1.2890    0.9140 C   0  0  0  0  0  0  0  0  0  0  0  0
    4.9521   -0.6627   -2.0186 H   0  0  0  0  0  0  0  0  0  0  0  0
    4.7299    0.9982    0.4579 H   0  0  0  0  0  0  0  0  0  0  0  0
    7.3153    0.3329   -0.9927 H   0  0  0  0  0  0  0  0  0  0  0  0
    7.6110   -1.1862    0.7302 H   0  0  0  0  0  0  0  0  0  0  0  0
    8.3723    0.9378    1.1457 H   0  0  0  0  0  0  0  0  0  0  0  0
    6.7589    1.3186    1.8374 H   0  0  0  0  0  0  0  0  0  0  0  0
    7.4072    2.2976    0.4779 H   0  0  0  0  0  0  0  0  0  0  0  0
    4.7310    3.0780   -0.8740 N   0  0  0  0  0  0  0  0  0  0  0  0
    4.6940    4.3220   -1.6320 C   0  0  2  0  0  0  0  0  0  0  0  0
    5.9650    5.1350   -1.4080 C   0  0  0  0  0  0  0  0  0  0  0  0
    6.2270    5.6040   -0.3000 O   0  0  0  0  0  0  0  0  0  0  0  0
    3.4660    5.1440   -1.2380 C   0  0  0  0  0  0  0  0  0  0  0  0
    2.1760    4.4940   -1.6350 C   0  0  0  0  0  0  0  0  0  0  0  0
    1.4240    3.6370   -0.8850 C   0  0  0  0  0  0  0  0  0  0  0  0
    1.4900    4.6440   -2.8840 C   0  0  0  0  0  0  0  0  0  0  0  0
    0.3120    3.2440   -1.5900 N   0  0  0  0  0  0  0  0  0  0  0  0
    0.3300    3.8490   -2.8200 C   0  0  0  0  0  0  0  0  0  0  0  0
    1.7440    5.3740   -4.0480 C   0  0  0  0  0  0  0  0  0  0  0  0
   -0.5720    3.7640   -3.8770 C   0  0  0  0  0  0  0  0  0  0  0  0
    0.8460    5.2880   -5.0970 C   0  0  0  0  0  0  0  0  0  0  0  0
   -0.3000    4.4890   -5.0050 C   0  0  0  0  0  0  0  0  0  0  0  0
    4.3003    3.0432    0.0278 H   0  0  0  0  0  0  0  0  0  0  0  0
    4.6225    4.0756   -2.7017 H   0  0  0  0  0  0  0  0  0  0  0  0
    3.5293    6.1264   -1.7288 H   0  0  0  0  0  0  0  0  0  0  0  0
    3.4695    5.2786   -0.1463 H   0  0  0  0  0  0  0  0  0  0  0  0
    1.6695    3.3120    0.1250 H   0  0  0  0  0  0  0  0  0  0  0  0
   -0.4163    2.5999   -1.2498 H   0  0  0  0  0  0  0  0  0  0  0  0
    2.6281    5.9961   -4.1277 H   0  0  0  0  0  0  0  0  0  0  0  0
   -1.4592    3.1448   -3.8087 H   0  0  0  0  0  0  0  0  0  0  0  0
    1.0329    5.8488   -6.0056 H   0  0  0  0  0  0  0  0  0  0  0  0
   -0.9851    4.4439   -5.8438 H   0  0  0  0  0  0  0  0  0  0  0  0
    6.7520    5.2930   -2.4680 N   0  0  0  0  0  0  0  0  0  0  0  0
    7.9980    6.0450   -2.3910 C   0  0  2  0  0  0  0  0  0  0  0  0
    7.7720    7.5200   -2.7100 C   0  0  0  0  0  0  0  0  0  0  0  0
    8.4120    8.3690   -2.0550 O   0  5  0  0  0  0  0  0  0  0  0  0
    9.0530    5.4760   -3.3600 C   0  0  0  0  0  0  0  0  0  0  0  0
    9.4740    4.0780   -2.9300 C   0  0  0  0  0  0  0  0  0  0  0  0
    8.5230    5.4650   -4.7860 C   0  0  0  0  0  0  0  0  0  0  0  0
    6.9580    7.8130   -3.6090 O   0  0  0  0  0  0  0  0  0  0  0  0
    6.4820    4.8854   -3.3404 H   0  0  0  0  0  0  0  0  0  0  0  0
    8.3849    5.9636   -1.3645 H   0  0  0  0  0  0  0  0  0  0  0  0
    9.9384    6.1279   -3.3272 H   0  0  0  0  0  0  0  0  0  0  0  0
   10.2260    3.6892   -3.6324 H   0  0  0  0  0  0  0  0  0  0  0  0
    8.5963    3.4149   -2.9285 H   0  0  0  0  0  0  0  0  0  0  0  0
    9.9040    4.1194   -1.9184 H   0  0  0  0  0  0  0  0  0  0  0  0
    8.2255    6.4840   -5.0744 H   0  0  0  0  0  0  0  0  0  0  0  0
    7.6512    4.7971   -4.8480 H   0  0  0  0  0  0  0  0  0  0  0  0
    9.3091    5.1061   -5.4666 H   0  0  0  0  0  0  0  0  0  0  0  0
  1  2  1  0  0  0  0
  1  8  1  0  0  0  0
  1  9  1  0  0  0  0
  1 10  1  0  0  0  0
  2  3  1  0  0  0  0
  2  5  1  0  0  0  0
  2 11  1  1  0  0  0
  3  4  2  0  0  0  0
  3 17  1  0  0  0  0
  5  6  1  0  0  0  0
  5  7  1  0  0  0  0
  5 12  1  6  0  0  0
  6 13  1  0  0  0  0
  7 14  1  0  0  0  0
  7 15  1  0  0  0  0
  7 16  1  0  0  0  0
 17 18  1  0  0  0  0
 17 21  1  0  0  0  0
 18 19  1  0  0  0  0
 18 22  1  0  0  0  0
 18 23  1  0  0  0  0
 19 20  2  0  0  0  0
 19 24  1  0  0  0  0
 24 25  1  0  0  0  0
 24 38  1  0  0  0  0
 25 26  1  0  0  0  0
 25 28  1  0  0  0  0
 25 39  1  1  0  0  0
 26 27  2  0  0  0  0
 26 48  1  0  0  0  0
 28 29  1  0  0  0  0
 28 40  1  0  0  0  0
 28 41  1  0  0  0  0
 29 30  2  0  0  0  0
 29 31  1  0  0  0  0
 30 32  1  0  0  0  0
 30 42  1  0  0  0  0
 31 33  2  0  0  0  0
 31 34  1  0  0  0  0
 32 33  1  0  0  0  0
 32 43  1  0  0  0  0
 33 35  1  0  0  0  0
 34 36  2  0  0  0  0
 34 44  1  0  0  0  0
 35 37  2  0  0  0  0
 35 45  1  0  0  0  0
 36 37  1  0  0  0  0
 36 46  1  0  0  0  0
 37 47  1  0  0  0  0
 48 49  1  0  0  0  0
 48 57  1  0  0  0  0
 49 50  1  0  0  0  0
 49 52  1  0  0  0  0
 49 58  1  6  0  0  0
 50 51  2  0  0  0  0
 50 63  1  0  0  0  0
 52 53  1  0  0  0  0
 52 59  1  0  0  0  0
 52 60  1  0  0  0  0
 53 54  1  0  0  0  0
 53 61  1  0  0  0  0
 53 62  1  0  0  0  0
 54 55  1  0  0  0  0
 54 56  2  0  0  0  0
 63 64  1  0  0  0  0
 63 70  1  0  0  0  0
 64 65  1  0  0  0  0
 64 67  1  0  0  0  0
 64 71  1  1  0  0  0
 65 66  2  0  0  0  0
 65 77  1  0  0  0  0
 67 68  1  0  0  0  0
 67 69  1  0  0  0  0
 67 72  1  6  0  0  0
 68 73  1  0  0  0  0
 69 74  1  0  0  0  0
 69 75  1  0  0  0  0
 69 76  1  0  0  0  0
 77 78  1  0  0  0  0
 77 91  1  0  0  0  0
 78 79  1  0  0  0  0
 78 81  1  0  0  0  0
 78 92  1  6  0  0  0
 79 80  2  0  0  0  0
 79101  1  0  0  0  0
 81 82  1  0  0  0  0
 81 93  1  0  0  0  0
 81 94  1  0  0  0  0
 82 83  2  0  0  0  0
 82 84  1  0  0  0  0
 83 85  1  0  0  0  0
 83 95  1  0  0  0  0
 84 86  2  0  0  0  0
 84 87  1  0  0  0  0
 85 86  1  0  0  0  0
 85 96  1  0  0  0  0
 86 88  1  0  0  0  0
 87 89  2  0  0  0  0
 87 97  1  0  0  0  0
 88 90  2  0  0  0  0
 88 98  1  0  0  0  0
 89 90  1  0  0  0  0
 89 99  1  0  0  0  0
 90100  1  0  0  0  0
101102  1  0  0  0  0
101109  1  0  0  0  0
102103  1  0  0  0  0
102105  1  0  0  0  0
102110  1  1  0  0  0
103104  1  0  0  0  0
103108  2  0  0  0  0
105106  1  0  0  0  0
105107  1  0  0  0  0
105111  1  0  0  0  0
106112  1  0  0  0  0
106113  1  0  0  0  0
106114  1  0  0  0  0
107115  1  0  0  0  0
107116  1  0  0  0  0
107117  1  0  0  0  0
M  CHG  3   1   1  55  -1 104  -1
M  END
