1n8u_ligand
 OpenBabel08222323343D

 39 38  0  0  0  0  0  0  0  0999 V2000
   15.5060    0.4920   -7.0240 O   0  0  0  0  0  0  0  0  0  0  0  0
   15.2670    0.3800   -5.6160 C   0  0  0  0  0  0  0  0  0  0  0  0
   16.4650    0.9730   -4.8880 C   0  0  0  0  0  0  0  0  0  0  0  0
   16.7210    0.3200   -3.5410 C   0  0  0  0  0  0  0  0  0  0  0  0
   18.1880    0.0880   -3.3740 C   0  0  0  0  0  0  0  0  0  0  0  0
   18.6120    0.0260   -1.9100 C   0  0  0  0  0  0  0  0  0  0  0  0
   18.1700   -1.2520   -1.2230 C   0  0  0  0  0  0  0  0  0  0  0  0
   18.8790   -1.4130    0.1190 C   0  0  0  0  0  0  0  0  0  0  0  0
   18.1810   -2.3990    1.0450 C   0  0  0  0  0  0  0  0  0  0  0  0
   18.8010   -2.3310    2.4370 C   0  0  0  0  0  0  0  0  0  0  0  0
   18.0880   -1.3300    3.3240 C   0  0  0  0  0  0  0  0  0  0  0  0
   18.2910   -1.5730    4.8090 C   0  0  0  0  0  0  0  0  0  0  0  0
   17.6030   -0.5430    5.6990 C   0  0  0  0  0  0  0  0  0  0  0  0
   18.1010    0.9010    5.3080 Br  0  0  0  0  0  0  0  0  0  0  0  0
   14.7688    0.1270   -7.4992 H   0  0  0  0  0  0  0  0  0  0  0  0
   15.1488   -0.6783   -5.3402 H   0  0  0  0  0  0  0  0  0  0  0  0
   14.3551    0.9332   -5.3468 H   0  0  0  0  0  0  0  0  0  0  0  0
   16.2830    2.0461   -4.7288 H   0  0  0  0  0  0  0  0  0  0  0  0
   17.3579    0.8419   -5.5169 H   0  0  0  0  0  0  0  0  0  0  0  0
   16.1893   -0.6417   -3.4921 H   0  0  0  0  0  0  0  0  0  0  0  0
   16.3599    0.9799   -2.7384 H   0  0  0  0  0  0  0  0  0  0  0  0
   18.7320    0.9094   -3.8633 H   0  0  0  0  0  0  0  0  0  0  0  0
   18.4507   -0.8648   -3.8569 H   0  0  0  0  0  0  0  0  0  0  0  0
   18.1687    0.8815   -1.3793 H   0  0  0  0  0  0  0  0  0  0  0  0
   19.7089    0.0911   -1.8588 H   0  0  0  0  0  0  0  0  0  0  0  0
   18.4134   -2.1108   -1.8658 H   0  0  0  0  0  0  0  0  0  0  0  0
   17.0834   -1.2154   -1.0557 H   0  0  0  0  0  0  0  0  0  0  0  0
   18.9168   -0.4322    0.6155 H   0  0  0  0  0  0  0  0  0  0  0  0
   19.9028   -1.7702   -0.0659 H   0  0  0  0  0  0  0  0  0  0  0  0
   18.2933   -3.4175    0.6450 H   0  0  0  0  0  0  0  0  0  0  0  0
   17.1124   -2.1459    1.1088 H   0  0  0  0  0  0  0  0  0  0  0  0
   19.8560   -2.0344    2.3425 H   0  0  0  0  0  0  0  0  0  0  0  0
   18.7400   -3.3257    2.9027 H   0  0  0  0  0  0  0  0  0  0  0  0
   17.0106   -1.3813    3.1084 H   0  0  0  0  0  0  0  0  0  0  0  0
   18.4627   -0.3243    3.0828 H   0  0  0  0  0  0  0  0  0  0  0  0
   19.3702   -1.5489    5.0204 H   0  0  0  0  0  0  0  0  0  0  0  0
   17.8911   -2.5675    5.0559 H   0  0  0  0  0  0  0  0  0  0  0  0
   17.8500   -0.7440    6.7519 H   0  0  0  0  0  0  0  0  0  0  0  0
   16.5137   -0.6061    5.5593 H   0  0  0  0  0  0  0  0  0  0  0  0
  1  2  1  0  0  0  0
  1 15  1  0  0  0  0
  2  3  1  0  0  0  0
  2 16  1  0  0  0  0
  2 17  1  0  0  0  0
  3  4  1  0  0  0  0
  3 18  1  0  0  0  0
  3 19  1  0  0  0  0
  4  5  1  0  0  0  0
  4 20  1  0  0  0  0
  4 21  1  0  0  0  0
  5  6  1  0  0  0  0
  5 22  1  0  0  0  0
  5 23  1  0  0  0  0
  6  7  1  0  0  0  0
  6 24  1  0  0  0  0
  6 25  1  0  0  0  0
  7  8  1  0  0  0  0
  7 26  1  0  0  0  0
  7 27  1  0  0  0  0
  8  9  1  0  0  0  0
  8 28  1  0  0  0  0
  8 29  1  0  0  0  0
  9 10  1  0  0  0  0
  9 30  1  0  0  0  0
  9 31  1  0  0  0  0
 10 11  1  0  0  0  0
 10 32  1  0  0  0  0
 10 33  1  0  0  0  0
 11 12  1  0  0  0  0
 11 34  1  0  0  0  0
 11 35  1  0  0  0  0
 12 13  1  0  0  0  0
 12 36  1  0  0  0  0
 12 37  1  0  0  0  0
 13 14  1  0  0  0  0
 13 38  1  0  0  0  0
 13 39  1  0  0  0  0
M  END
