1n94_ligand
 OpenBabel08222323343D

 84 86  0  0  1  0  0  0  0  0999 V2000
   47.6960   52.9350   -1.5700 C   0  0  0  0  0  0  0  0  0  0  0  0
   47.9690   51.4130   -1.6920 C   0  0  0  0  0  0  0  0  0  0  0  0
   49.4790   51.0980   -1.5290 C   0  0  0  0  0  0  0  0  0  0  0  0
   50.3400   51.8830   -2.5440 C   0  0  0  0  0  0  0  0  0  0  0  0
   50.0940   53.4070   -2.4240 C   0  0  0  0  0  0  0  0  0  0  0  0
   48.5870   53.7630   -2.5460 C   0  0  0  0  0  0  0  0  0  0  0  0
   49.7340   49.5860   -1.6560 C   0  0  0  0  0  0  0  0  0  0  0  0
   50.4210   48.9800   -0.4140 C   0  0  0  0  0  0  0  0  0  0  0  0
   51.0880   47.6990   -0.7830 N   0  3  2  0  0  0  0  0  0  0  0  0
   50.5450   46.5510    0.0000 C   0  0  0  0  0  0  0  0  0  0  0  0
   49.4630   45.8440   -0.8420 C   0  0  0  0  0  0  0  0  0  0  0  0
   48.8230   44.6440   -0.1410 C   0  0  0  0  0  0  0  0  0  0  0  0
   48.0000   43.7760   -1.1100 C   0  0  0  0  0  0  0  0  0  0  0  0
   52.6160   47.7450   -0.8390 C   0  0  0  0  0  0  0  0  0  0  0  0
   53.3460   48.3930    0.3360 C   0  0  0  0  0  0  0  0  0  0  0  0
   53.8740   47.5700    1.3900 C   0  0  0  0  0  0  0  0  0  0  0  0
   54.5420   48.1890    2.4960 C   0  0  0  0  0  0  0  0  0  0  0  0
   54.6680   49.6220    2.5340 C   0  0  0  0  0  0  0  0  0  0  0  0
   54.1390   50.4430    1.4620 C   0  0  0  0  0  0  0  0  0  0  0  0
   53.4810   49.8040    0.3750 C   0  0  0  0  0  0  0  0  0  0  0  0
   54.2180   51.9260    1.4090 C   0  0  0  0  0  0  0  0  0  0  0  0
   53.0910   52.7250    1.7800 C   0  0  0  0  0  0  0  0  0  0  0  0
   53.1940   54.1440    1.7270 C   0  0  0  0  0  0  0  0  0  0  0  0
   54.4050   54.7820    1.3070 C   0  0  0  0  0  0  0  0  0  0  0  0
   55.5320   53.9920    0.9310 C   0  0  0  0  0  0  0  0  0  0  0  0
   55.4270   52.5750    0.9870 C   0  0  0  0  0  0  0  0  0  0  0  0
   55.3630   50.1820    3.7340 C   0  0  0  0  0  0  0  0  0  0  0  0
   54.3100   51.5240    5.7660 C   0  0  1  0  0  0  0  0  0  0  0  0
   56.5560   50.4810    3.7010 O   0  0  0  0  0  0  0  0  0  0  0  0
   52.9250   51.5820    6.3730 C   0  0  0  0  0  0  0  0  0  0  0  0
   52.0520   50.8970    5.8700 O   0  5  0  0  0  0  0  0  0  0  0  0
   52.7130   52.3130    7.3310 O   0  0  0  0  0  0  0  0  0  0  0  0
   54.6550   50.3620    4.9050 N   0  0  0  0  0  0  0  0  0  0  0  0
   54.6460   52.8460    5.0700 C   0  0  0  0  0  0  0  0  0  0  0  0
   54.7710   54.0290    6.0200 C   0  0  0  0  0  0  0  0  0  0  0  0
   55.1420   55.5470    5.1620 S   0  0  0  0  0  0  0  0  0  0  0  0
   55.0830   56.6070    6.6160 C   0  0  0  0  0  0  0  0  0  0  0  0
   51.7570   52.2490    2.3720 C   0  0  0  0  0  0  0  0  0  0  0  0
   47.9072   53.2531   -0.5384 H   0  0  0  0  0  0  0  0  0  0  0  0
   46.6384   53.1270   -1.8037 H   0  0  0  0  0  0  0  0  0  0  0  0
   47.6353   51.0670   -2.6814 H   0  0  0  0  0  0  0  0  0  0  0  0
   47.4058   50.8838   -0.9093 H   0  0  0  0  0  0  0  0  0  0  0  0
   49.7810   51.4106   -0.5185 H   0  0  0  0  0  0  0  0  0  0  0  0
   50.0817   51.5567   -3.5622 H   0  0  0  0  0  0  0  0  0  0  0  0
   51.4026   51.6745   -2.3506 H   0  0  0  0  0  0  0  0  0  0  0  0
   50.6464   53.9203   -3.2248 H   0  0  0  0  0  0  0  0  0  0  0  0
   50.4623   53.7506   -1.4461 H   0  0  0  0  0  0  0  0  0  0  0  0
   48.4579   54.8319   -2.3206 H   0  0  0  0  0  0  0  0  0  0  0  0
   48.2600   53.5636   -3.5772 H   0  0  0  0  0  0  0  0  0  0  0  0
   50.3771   49.4120   -2.5313 H   0  0  0  0  0  0  0  0  0  0  0  0
   48.7687   49.0796   -1.8037 H   0  0  0  0  0  0  0  0  0  0  0  0
   49.6672   48.7887    0.3639 H   0  0  0  0  0  0  0  0  0  0  0  0
   51.1723   49.6861   -0.0308 H   0  0  0  0  0  0  0  0  0  0  0  0
   50.8068   47.5256   -1.7353 H   0  0  0  0  0  0  0  0  0  0  0  0
   50.1024   46.9189    0.9374 H   0  0  0  0  0  0  0  0  0  0  0  0
   51.3555   45.8437    0.2300 H   0  0  0  0  0  0  0  0  0  0  0  0
   49.9246   45.4940   -1.7771 H   0  0  0  0  0  0  0  0  0  0  0  0
   48.6723   46.5728   -1.0737 H   0  0  0  0  0  0  0  0  0  0  0  0
   48.1598   45.0115    0.6559 H   0  0  0  0  0  0  0  0  0  0  0  0
   49.6186   44.0256    0.3001 H   0  0  0  0  0  0  0  0  0  0  0  0
   47.5615   42.9293   -0.5616 H   0  0  0  0  0  0  0  0  0  0  0  0
   48.6546   43.3963   -1.9083 H   0  0  0  0  0  0  0  0  0  0  0  0
   47.1958   44.3821   -1.5525 H   0  0  0  0  0  0  0  0  0  0  0  0
   52.8958   48.2995   -1.7468 H   0  0  0  0  0  0  0  0  0  0  0  0
   52.9741   46.7079   -0.9177 H   0  0  0  0  0  0  0  0  0  0  0  0
   53.7678   46.4920    1.3483 H   0  0  0  0  0  0  0  0  0  0  0  0
   54.9490   47.5830    3.2974 H   0  0  0  0  0  0  0  0  0  0  0  0
   53.0778   50.4030   -0.4335 H   0  0  0  0  0  0  0  0  0  0  0  0
   52.3416   54.7513    2.0093 H   0  0  0  0  0  0  0  0  0  0  0  0
   54.4655   55.8638    1.2747 H   0  0  0  0  0  0  0  0  0  0  0  0
   56.4528   54.4641    0.6081 H   0  0  0  0  0  0  0  0  0  0  0  0
   56.2808   51.9700    0.7041 H   0  0  0  0  0  0  0  0  0  0  0  0
   54.9915   51.4467    6.6260 H   0  0  0  0  0  0  0  0  0  0  0  0
   54.2847   49.5036    5.2601 H   0  0  0  0  0  0  0  0  0  0  0  0
   53.8497   53.0674    4.3441 H   0  0  0  0  0  0  0  0  0  0  0  0
   55.6022   52.7251    4.5399 H   0  0  0  0  0  0  0  0  0  0  0  0
   55.5777   53.8223    6.7386 H   0  0  0  0  0  0  0  0  0  0  0  0
   53.8208   54.1510    6.5605 H   0  0  0  0  0  0  0  0  0  0  0  0
   55.2916   57.6460    6.3210 H   0  0  0  0  0  0  0  0  0  0  0  0
   55.8378   56.2738    7.3435 H   0  0  0  0  0  0  0  0  0  0  0  0
   54.0836   56.5490    7.0718 H   0  0  0  0  0  0  0  0  0  0  0  0
   51.7345   51.1493    2.3878 H   0  0  0  0  0  0  0  0  0  0  0  0
   50.9273   52.6239    1.7547 H   0  0  0  0  0  0  0  0  0  0  0  0
   51.6534   52.6326    3.3977 H   0  0  0  0  0  0  0  0  0  0  0  0
  1  6  1  0  0  0  0
  1 39  1  0  0  0  0
  1 40  1  0  0  0  0
  2  1  1  0  0  0  0
  2 41  1  0  0  0  0
  2 42  1  0  0  0  0
  3  2  1  0  0  0  0
  3  4  1  0  0  0  0
  3 43  1  0  0  0  0
  4  5  1  0  0  0  0
  4 44  1  0  0  0  0
  4 45  1  0  0  0  0
  5  6  1  0  0  0  0
  5 46  1  0  0  0  0
  5 47  1  0  0  0  0
  6 48  1  0  0  0  0
  6 49  1  0  0  0  0
  7  3  1  0  0  0  0
  7 50  1  0  0  0  0
  7 51  1  0  0  0  0
  8  7  1  0  0  0  0
  8 52  1  0  0  0  0
  8 53  1  0  0  0  0
  9  8  1  0  0  0  0
  9 10  1  0  0  0  0
  9 54  1  6  0  0  0
 10 11  1  0  0  0  0
 10 55  1  0  0  0  0
 10 56  1  0  0  0  0
 11 12  1  0  0  0  0
 11 57  1  0  0  0  0
 11 58  1  0  0  0  0
 12 13  1  0  0  0  0
 12 59  1  0  0  0  0
 12 60  1  0  0  0  0
 13 61  1  0  0  0  0
 13 62  1  0  0  0  0
 13 63  1  0  0  0  0
 14  9  1  0  0  0  0
 14 64  1  0  0  0  0
 14 65  1  0  0  0  0
 15 14  1  0  0  0  0
 16 15  2  0  0  0  0
 16 66  1  0  0  0  0
 17 16  1  0  0  0  0
 17 67  1  0  0  0  0
 18 17  2  0  0  0  0
 18 19  1  0  0  0  0
 19 20  2  0  0  0  0
 19 21  1  0  0  0  0
 20 15  1  0  0  0  0
 20 68  1  0  0  0  0
 21 22  2  0  0  0  0
 21 26  1  0  0  0  0
 22 23  1  0  0  0  0
 22 38  1  0  0  0  0
 23 24  2  0  0  0  0
 23 69  1  0  0  0  0
 24 70  1  0  0  0  0
 25 24  1  0  0  0  0
 25 71  1  0  0  0  0
 26 25  2  0  0  0  0
 26 72  1  0  0  0  0
 27 18  1  0  0  0  0
 27 29  2  0  0  0  0
 28 30  1  0  0  0  0
 28 33  1  0  0  0  0
 28 34  1  0  0  0  0
 28 73  1  1  0  0  0
 30 31  1  0  0  0  0
 30 32  2  0  0  0  0
 33 27  1  0  0  0  0
 33 74  1  0  0  0  0
 34 35  1  0  0  0  0
 34 75  1  0  0  0  0
 34 76  1  0  0  0  0
 35 36  1  0  0  0  0
 35 77  1  0  0  0  0
 35 78  1  0  0  0  0
 36 37  1  0  0  0  0
 37 79  1  0  0  0  0
 37 80  1  0  0  0  0
 37 81  1  0  0  0  0
 38 82  1  0  0  0  0
 38 83  1  0  0  0  0
 38 84  1  0  0  0  0
M  CHG  2   9   1  31  -1
M  END
