1n9m_ligand
 OpenBabel08222323343D

 31 32  0  0  1  0  0  0  0  0999 V2000
   17.5910   19.2890   32.1550 C   0  0  0  0  0  0  0  0  0  0  0  0
   18.3220   20.2080   31.6920 O   0  5  0  0  0  0  0  0  0  0  0  0
   16.3490   19.2480   31.9060 O   0  0  0  0  0  0  0  0  0  0  0  0
   18.2070   18.2580   33.0180 C   0  0  0  0  0  0  0  0  0  0  0  0
   19.7000   18.0010   32.7400 C   0  0  0  0  0  0  0  0  0  0  0  0
   19.8460   17.1860   31.4540 C   0  0  0  0  0  0  0  0  0  0  0  0
   21.2610   16.5720   31.2820 C   0  0  0  0  0  0  0  0  0  0  0  0
   21.3960   15.6170   30.0880 C   0  0  2  0  0  0  0  0  0  0  0  0
   20.7650   13.9110   30.3710 S   0  0  0  0  0  0  0  0  0  0  0  0
   21.4720   13.4010   28.7790 C   0  0  0  0  0  0  0  0  0  0  0  0
   22.8320   14.0730   28.6830 C   0  0  2  0  0  0  0  0  0  0  0  0
   23.9080   13.3210   29.3080 N   0  0  0  0  0  0  0  0  0  0  0  0
   24.4610   14.0040   30.3260 C   0  0  0  0  0  0  0  0  0  0  0  0
   25.3840   13.5830   31.0710 O   0  0  0  0  0  0  0  0  0  0  0  0
   23.8270   15.1890   30.4850 N   0  0  0  0  0  0  0  0  0  0  0  0
   22.7740   15.3920   29.4990 C   0  0  2  0  0  0  0  0  0  0  0  0
   17.6623   17.3142   32.8681 H   0  0  0  0  0  0  0  0  0  0  0  0
   18.1029   18.5792   34.0649 H   0  0  0  0  0  0  0  0  0  0  0  0
   20.1386   17.4423   33.5799 H   0  0  0  0  0  0  0  0  0  0  0  0
   20.2226   18.9622   32.6262 H   0  0  0  0  0  0  0  0  0  0  0  0
   19.6433   17.8447   30.5967 H   0  0  0  0  0  0  0  0  0  0  0  0
   19.1094   16.3693   31.4711 H   0  0  0  0  0  0  0  0  0  0  0  0
   21.5082   16.0151   32.1978 H   0  0  0  0  0  0  0  0  0  0  0  0
   21.9791   17.3944   31.1478 H   0  0  0  0  0  0  0  0  0  0  0  0
   20.7807   16.0708   29.2972 H   0  0  0  0  0  0  0  0  0  0  0  0
   20.8254   13.7296   27.9520 H   0  0  0  0  0  0  0  0  0  0  0  0
   21.5841   12.3073   28.7446 H   0  0  0  0  0  0  0  0  0  0  0  0
   23.0693   14.2657   27.6263 H   0  0  0  0  0  0  0  0  0  0  0  0
   24.2003   12.4099   29.0173 H   0  0  0  0  0  0  0  0  0  0  0  0
   24.0556   15.8508   31.1990 H   0  0  0  0  0  0  0  0  0  0  0  0
   23.0190   16.2535   28.8604 H   0  0  0  0  0  0  0  0  0  0  0  0
  1  2  1  0  0  0  0
  1  3  2  0  0  0  0
  1  4  1  0  0  0  0
  4  5  1  0  0  0  0
  4 17  1  0  0  0  0
  4 18  1  0  0  0  0
  5  6  1  0  0  0  0
  5 19  1  0  0  0  0
  5 20  1  0  0  0  0
  6  7  1  0  0  0  0
  6 21  1  0  0  0  0
  6 22  1  0  0  0  0
  7  8  1  0  0  0  0
  7 23  1  0  0  0  0
  7 24  1  0  0  0  0
  8  9  1  0  0  0  0
  8 16  1  0  0  0  0
  8 25  1  6  0  0  0
  9 10  1  0  0  0  0
 10 11  1  0  0  0  0
 10 26  1  0  0  0  0
 10 27  1  0  0  0  0
 11 12  1  0  0  0  0
 11 16  1  0  0  0  0
 11 28  1  6  0  0  0
 12 13  1  0  0  0  0
 12 29  1  0  0  0  0
 13 14  2  0  0  0  0
 13 15  1  0  0  0  0
 15 16  1  0  0  0  0
 15 30  1  0  0  0  0
 16 31  1  6  0  0  0
M  CHG  1   2  -1
M  END
