1nc6_ligand
 OpenBabel08222323343D

 63 65  0  0  1  0  0  0  0  0999 V2000
   42.9260   24.9830   51.9510 N   0  0  0  0  0  0  0  0  0  0  0  0
   42.1130   26.1700   51.9010 C   0  0  0  0  0  0  0  0  0  0  0  0
   42.6050   24.2470   50.7510 C   0  0  1  0  0  0  0  0  0  0  0  0
   41.6090   24.9950   49.8970 C   0  0  0  0  0  0  0  0  0  0  0  0
   41.2700   26.1940   50.6340 C   0  0  1  0  0  0  0  0  0  0  0  0
   43.8730   23.9470   49.9320 C   0  0  1  0  0  0  0  0  0  0  0  0
   44.9350   24.3180   50.3610 O   0  0  0  0  0  0  0  0  0  0  0  0
   43.8700   22.4760   49.5650 N   0  3  0  0  0  0  0  0  0  0  0  0
   44.9500   21.7580   48.7840 C   0  0  1  0  0  0  0  0  0  0  0  0
   44.9510   20.2810   49.3230 C   0  0  0  0  0  0  0  0  0  0  0  0
   45.2090   20.3250   50.8320 C   0  0  0  0  0  0  0  0  0  0  0  0
   45.2130   18.9730   51.4780 C   0  0  0  0  0  0  0  0  0  0  0  0
   45.4730   19.1640   52.9210 N   0  0  0  0  0  0  0  0  0  0  0  0
   45.6300   17.9970   53.8330 C   0  0  0  0  0  3  0  0  0  0  0  0
   46.2850   18.2900   55.1370 N   0  0  0  0  0  0  0  0  0  0  0  0
   45.4720   16.8200   53.0350 N   0  0  0  0  0  0  0  0  0  0  0  0
   45.7980   21.0240   46.6110 O   0  0  0  0  0  0  0  0  0  0  0  0
   43.5470   24.0540   46.8260 N   0  0  0  0  0  0  0  0  0  0  0  0
   44.6650   23.2600   46.8320 C   0  0  0  0  0  0  0  0  0  0  0  0
   46.0500   24.1250   46.2890 S   0  0  0  0  0  0  0  0  0  0  0  0
   43.7950   25.3430   46.3970 C   0  0  0  0  0  0  0  0  0  0  0  0
   45.1580   25.5940   46.0400 C   0  0  0  0  0  0  0  0  0  0  0  0
   45.5590   26.8770   45.5820 C   0  0  0  0  0  0  0  0  0  0  0  0
   44.5980   27.9330   45.4730 C   0  0  0  0  0  0  0  0  0  0  0  0
   43.2220   27.7050   45.8250 C   0  0  0  0  0  0  0  0  0  0  0  0
   42.8180   26.3890   46.2920 C   0  0  0  0  0  0  0  0  0  0  0  0
   39.8930   26.1590   50.9890 O   0  0  0  0  0  0  0  0  0  0  0  0
   42.8600   24.1170   53.0760 C   0  0  0  0  0  0  0  0  0  0  0  0
   42.4450   24.6250   54.4730 C   0  0  0  0  0  0  0  0  0  0  0  0
   43.1830   22.9060   53.0060 O   0  0  0  0  0  0  0  0  0  0  0  0
   44.6940   21.7730   47.2670 C   0  0  2  0  0  0  0  0  0  0  0  0
   42.7657   27.0553   51.9168 H   0  0  0  0  0  0  0  0  0  0  0  0
   41.4481   26.1890   52.7771 H   0  0  0  0  0  0  0  0  0  0  0  0
   42.1522   23.2901   51.0498 H   0  0  0  0  0  0  0  0  0  0  0  0
   40.7110   24.3816   49.7317 H   0  0  0  0  0  0  0  0  0  0  0  0
   42.0578   25.2568   48.9275 H   0  0  0  0  0  0  0  0  0  0  0  0
   41.4857   27.0926   50.0375 H   0  0  0  0  0  0  0  0  0  0  0  0
   43.7480   24.5024   48.9908 H   0  0  0  0  0  0  0  0  0  0  0  0
   44.8836   25.2422   50.5747 H   0  0  0  0  0  0  0  0  0  0  0  0
   43.0228   22.3357   49.0371 H   0  0  0  0  0  0  0  0  0  0  0  0
   43.8048   21.9836   50.4421 H   0  0  0  0  0  0  0  0  0  0  0  0
   45.9231   22.2316   48.9808 H   0  0  0  0  0  0  0  0  0  0  0  0
   45.7442   19.7033   48.8259 H   0  0  0  0  0  0  0  0  0  0  0  0
   43.9763   19.8112   49.1251 H   0  0  0  0  0  0  0  0  0  0  0  0
   44.4220   20.9330   51.3021 H   0  0  0  0  0  0  0  0  0  0  0  0
   46.1881   20.7958   51.0041 H   0  0  0  0  0  0  0  0  0  0  0  0
   46.0026   18.3485   51.0347 H   0  0  0  0  0  0  0  0  0  0  0  0
   44.2369   18.4865   51.3346 H   0  0  0  0  0  0  0  0  0  0  0  0
   45.5466   20.1184   53.3012 H   0  0  0  0  0  0  0  0  0  0  0  0
   46.4295   17.5345   55.8220 H   0  0  0  0  0  0  0  0  0  0  0  0
   46.5938   19.2483   55.3544 H   0  0  0  0  0  0  0  0  0  0  0  0
   44.9624   16.8684   52.1412 H   0  0  0  0  0  0  0  0  0  0  0  0
   45.8679   15.9243   53.3543 H   0  0  0  0  0  0  0  0  0  0  0  0
   45.6614   21.0196   45.6709 H   0  0  0  0  0  0  0  0  0  0  0  0
   46.5939   27.0572   45.3146 H   0  0  0  0  0  0  0  0  0  0  0  0
   44.9094   28.9105   45.1230 H   0  0  0  0  0  0  0  0  0  0  0  0
   42.4951   28.5049   45.7430 H   0  0  0  0  0  0  0  0  0  0  0  0
   41.7848   26.1988   46.5594 H   0  0  0  0  0  0  0  0  0  0  0  0
   39.3650   26.1113   50.2007 H   0  0  0  0  0  0  0  0  0  0  0  0
   42.4633   23.7889   55.1875 H   0  0  0  0  0  0  0  0  0  0  0  0
   41.4288   25.0434   54.4241 H   0  0  0  0  0  0  0  0  0  0  0  0
   43.1471   25.4048   54.8031 H   0  0  0  0  0  0  0  0  0  0  0  0
   43.7315   21.2958   47.0306 H   0  0  0  0  0  0  0  0  0  0  0  0
  1  2  1  0  0  0  0
  1 28  1  0  0  0  0
  2 32  1  0  0  0  0
  2 33  1  0  0  0  0
  3  1  1  0  0  0  0
  3  4  1  0  0  0  0
  3 34  1  1  0  0  0
  4  5  1  0  0  0  0
  4 35  1  0  0  0  0
  4 36  1  0  0  0  0
  5  2  1  0  0  0  0
  5 27  1  0  0  0  0
  5 37  1  6  0  0  0
  6  3  1  0  0  0  0
  6  7  1  0  0  0  0
  6 38  1  6  0  0  0
  7 39  1  0  0  0  0
  8  6  1  0  0  0  0
  8 40  1  0  0  0  0
  8 41  1  0  0  0  0
  9  8  1  0  0  0  0
  9 10  1  0  0  0  0
  9 42  1  1  0  0  0
 10 11  1  0  0  0  0
 10 43  1  0  0  0  0
 10 44  1  0  0  0  0
 11 12  1  0  0  0  0
 11 45  1  0  0  0  0
 11 46  1  0  0  0  0
 12 13  1  0  0  0  0
 12 47  1  0  0  0  0
 12 48  1  0  0  0  0
 13 14  1  0  0  0  0
 13 49  1  0  0  0  0
 14 15  1  0  0  0  0
 14 16  1  0  0  0  0
 15 50  1  0  0  0  0
 15 51  1  0  0  0  0
 16 52  1  0  0  0  0
 16 53  1  0  0  0  0
 17 54  1  0  0  0  0
 18 21  1  0  0  0  0
 19 18  2  0  0  0  0
 19 20  1  0  0  0  0
 19 31  1  0  0  0  0
 20 22  1  0  0  0  0
 21 22  2  0  0  0  0
 21 26  1  0  0  0  0
 22 23  1  0  0  0  0
 23 24  2  0  0  0  0
 23 55  1  0  0  0  0
 24 25  1  0  0  0  0
 24 56  1  0  0  0  0
 25 26  2  0  0  0  0
 25 57  1  0  0  0  0
 26 58  1  0  0  0  0
 27 59  1  0  0  0  0
 28 29  1  0  0  0  0
 28 30  2  0  0  0  0
 29 60  1  0  0  0  0
 29 61  1  0  0  0  0
 29 62  1  0  0  0  0
 31  9  1  0  0  0  0
 31 17  1  0  0  0  0
 31 63  1  6  0  0  0
M  CHG  1   8   1
M  END
