1nde_ligand
 OpenBabel08222323343D

 63 66  0  0  0  0  0  0  0  0999 V2000
  110.7370    5.5320 -105.3590 C   0  0  0  0  0  0  0  0  0  0  0  0
  110.9210    4.5570 -104.4530 N   0  0  0  0  0  0  0  0  0  0  0  0
  109.6060    6.2620 -105.4990 N   0  0  0  0  0  0  0  0  0  0  0  0
  111.6410    5.9560 -106.2990 N   0  0  0  0  0  0  0  0  0  0  0  0
  112.1510    3.7920 -104.3130 C   0  0  0  0  0  0  0  0  0  0  0  0
  109.9180    4.1440 -103.4700 C   0  0  0  0  0  0  0  0  0  0  0  0
  109.3710    7.2530 -106.3860 C   0  0  0  0  0  0  0  0  0  0  0  0
  111.4330    6.9410 -107.2020 C   0  0  0  0  0  0  0  0  0  0  0  0
  112.1770    2.3680 -103.6560 C   0  0  0  0  0  0  0  0  0  0  0  0
  109.8560    2.6970 -102.9320 C   0  0  0  0  0  0  0  0  0  0  0  0
  110.3030    7.5170 -107.1710 N   0  0  0  0  0  0  0  0  0  0  0  0
  108.3340    8.0500 -106.6270 N   0  0  0  0  0  0  0  0  0  0  0  0
  112.2390    7.7050 -108.4440 S   0  0  0  0  0  0  0  0  0  0  0  0
  111.1930    2.2550 -102.5700 N   0  3  0  0  0  0  0  0  0  0  0  0
  107.0840    8.1290 -106.0060 C   0  0  0  0  0  0  0  0  0  0  0  0
  113.6520    7.9070 -109.4800 C   0  0  0  0  0  0  0  0  0  0  0  0
  106.3950    9.3140 -106.7320 C   0  0  0  0  0  0  0  0  0  0  0  0
  112.5460    8.6530 -110.2420 C   0  0  0  0  0  0  0  0  0  0  0  0
  105.0900    9.5030 -106.1080 C   0  0  0  0  0  0  0  0  0  0  0  0
  112.5190    9.4020 -111.5480 C   0  0  0  0  0  0  0  0  0  0  0  0
  103.9240    9.4400 -106.8730 C   0  0  0  0  0  0  0  0  0  0  0  0
  105.0330    9.7310 -104.7160 C   0  0  0  0  0  0  0  0  0  0  0  0
  110.9910    9.8030 -111.5100 C   0  0  0  0  0  0  0  0  0  0  0  0
  102.6810    9.6030 -106.2350 C   0  0  0  0  0  0  0  0  0  0  0  0
  103.8050    9.8910 -104.0920 C   0  0  0  0  0  0  0  0  0  0  0  0
  110.5360   11.1320 -111.7190 C   0  0  0  0  0  0  0  0  0  0  0  0
  109.9960    8.7960 -111.2300 C   0  0  0  0  0  0  0  0  0  0  0  0
  102.6240    9.8210 -104.8370 C   0  0  0  0  0  0  0  0  0  0  0  0
  109.1400   11.4420 -111.6570 C   0  0  0  0  0  0  0  0  0  0  0  0
  108.6200    9.1160 -111.1700 C   0  0  0  0  0  0  0  0  0  0  0  0
  101.4320    9.9610 -104.2060 O   0  0  0  0  0  0  0  0  0  0  0  0
  108.1900   10.4320 -111.3820 C   0  0  0  0  0  0  0  0  0  0  0  0
  106.5190   10.8070 -111.3060 Cl  0  0  0  0  0  0  0  0  0  0  0  0
  112.8356    4.4165 -103.7202 H   0  0  0  0  0  0  0  0  0  0  0  0
  112.5538    3.6690 -105.3292 H   0  0  0  0  0  0  0  0  0  0  0  0
  108.9372    4.3472 -103.9247 H   0  0  0  0  0  0  0  0  0  0  0  0
  110.0577    4.7940 -102.5937 H   0  0  0  0  0  0  0  0  0  0  0  0
  113.1814    2.1812 -103.2484 H   0  0  0  0  0  0  0  0  0  0  0  0
  111.9477    1.6158 -104.4251 H   0  0  0  0  0  0  0  0  0  0  0  0
  109.4491    2.0341 -103.7098 H   0  0  0  0  0  0  0  0  0  0  0  0
  109.2064    2.6635 -102.0449 H   0  0  0  0  0  0  0  0  0  0  0  0
  108.4749    8.7188 -107.3976 H   0  0  0  0  0  0  0  0  0  0  0  0
  111.5120    2.8141 -101.7943 H   0  0  0  0  0  0  0  0  0  0  0  0
  111.1415    1.2884 -102.2888 H   0  0  0  0  0  0  0  0  0  0  0  0
  107.1911    8.3351 -104.9308 H   0  0  0  0  0  0  0  0  0  0  0  0
  106.5155    7.1978 -106.1460 H   0  0  0  0  0  0  0  0  0  0  0  0
  114.0571    6.9998 -109.9521 H   0  0  0  0  0  0  0  0  0  0  0  0
  114.4787    8.5137 -109.0820 H   0  0  0  0  0  0  0  0  0  0  0  0
  106.2717    9.0812 -107.8000 H   0  0  0  0  0  0  0  0  0  0  0  0
  107.0003   10.2260 -106.6230 H   0  0  0  0  0  0  0  0  0  0  0  0
  112.1996    9.4019 -109.5146 H   0  0  0  0  0  0  0  0  0  0  0  0
  111.7698    7.8852 -110.3756 H   0  0  0  0  0  0  0  0  0  0  0  0
  112.7640    8.7595 -112.4065 H   0  0  0  0  0  0  0  0  0  0  0  0
  113.1840   10.2782 -111.5442 H   0  0  0  0  0  0  0  0  0  0  0  0
  103.9757    9.2681 -107.9420 H   0  0  0  0  0  0  0  0  0  0  0  0
  105.9474    9.7809 -104.1360 H   0  0  0  0  0  0  0  0  0  0  0  0
  101.7657    9.5617 -106.8142 H   0  0  0  0  0  0  0  0  0  0  0  0
  103.7606   10.0708 -103.0239 H   0  0  0  0  0  0  0  0  0  0  0  0
  111.2522   11.9186 -111.9273 H   0  0  0  0  0  0  0  0  0  0  0  0
  110.3102    7.7722 -111.0621 H   0  0  0  0  0  0  0  0  0  0  0  0
  108.8082   12.4606 -111.8224 H   0  0  0  0  0  0  0  0  0  0  0  0
  107.8943    8.3389 -110.9589 H   0  0  0  0  0  0  0  0  0  0  0  0
  101.3393    9.2786 -103.5516 H   0  0  0  0  0  0  0  0  0  0  0  0
  1  2  1  0  0  0  0
  1  3  2  0  0  0  0
  2  5  1  0  0  0  0
  2  6  1  0  0  0  0
  4  1  1  0  0  0  0
  5  9  1  0  0  0  0
  5 34  1  0  0  0  0
  5 35  1  0  0  0  0
  6 10  1  0  0  0  0
  6 36  1  0  0  0  0
  6 37  1  0  0  0  0
  7  3  1  0  0  0  0
  7 12  1  0  0  0  0
  8  4  2  0  0  0  0
  8 11  1  0  0  0  0
  9 14  1  0  0  0  0
  9 38  1  0  0  0  0
  9 39  1  0  0  0  0
 10 14  1  0  0  0  0
 10 40  1  0  0  0  0
 10 41  1  0  0  0  0
 11  7  2  0  0  0  0
 12 15  1  0  0  0  0
 12 42  1  0  0  0  0
 13  8  1  0  0  0  0
 14 43  1  0  0  0  0
 14 44  1  0  0  0  0
 15 17  1  0  0  0  0
 15 45  1  0  0  0  0
 15 46  1  0  0  0  0
 16 13  1  0  0  0  0
 16 18  1  0  0  0  0
 16 47  1  0  0  0  0
 16 48  1  0  0  0  0
 17 19  1  0  0  0  0
 17 49  1  0  0  0  0
 17 50  1  0  0  0  0
 18 20  1  0  0  0  0
 18 51  1  0  0  0  0
 18 52  1  0  0  0  0
 19 21  2  0  0  0  0
 19 22  1  0  0  0  0
 20 23  1  0  0  0  0
 20 53  1  0  0  0  0
 20 54  1  0  0  0  0
 21 24  1  0  0  0  0
 21 55  1  0  0  0  0
 22 25  2  0  0  0  0
 22 56  1  0  0  0  0
 23 26  2  0  0  0  0
 23 27  1  0  0  0  0
 24 28  2  0  0  0  0
 24 57  1  0  0  0  0
 25 28  1  0  0  0  0
 25 58  1  0  0  0  0
 26 29  1  0  0  0  0
 26 59  1  0  0  0  0
 27 30  2  0  0  0  0
 27 60  1  0  0  0  0
 28 31  1  0  0  0  0
 29 32  2  0  0  0  0
 29 61  1  0  0  0  0
 30 32  1  0  0  0  0
 30 62  1  0  0  0  0
 31 63  1  0  0  0  0
 32 33  1  0  0  0  0
M  CHG  1  14   1
M  END
