1nfs_ligand
 OpenBabel08222323343D

 25 24  0  0  0  0  0  0  0  0999 V2000
   11.0840    2.4940   10.3280 O   0  0  0  0  0  1  0  0  0  0  0  0
   10.7230    2.2890   12.6210 O   0  0  0  0  0  1  0  0  0  0  0  0
    8.8570    2.0930   11.1060 O   0  0  0  0  0  0  0  0  0  0  0  0
   10.1960    2.7640   11.2820 P   0  0  0  0  0  0  0  0  0  0  0  0
    9.9230    4.2670   11.4440 O   0  0  0  0  0  0  0  0  0  0  0  0
   11.6080    5.9160   11.8150 O   0  0  0  0  0  1  0  0  0  0  0  0
   11.5470    3.8890   13.1840 O   0  0  0  0  0  0  0  0  0  0  0  0
   10.8440    4.9960   12.4350 P   0  0  2  0  0  0  0  0  0  0  0  0
    9.9300    5.6960   13.4220 O   0  0  0  0  0  0  0  0  0  0  0  0
    9.7930    7.0970   13.1880 C   0  0  0  0  0  0  0  0  0  0  0  0
    8.6410    7.6540   14.0590 C   0  0  0  0  0  0  0  0  0  0  0  0
    8.8850    9.0930   14.2480 N   0  3  0  0  0  0  0  0  0  0  0  0
    9.1490    9.3880   15.6600 C   0  0  0  0  0  0  0  0  0  0  0  0
   10.0470    9.4560   13.4130 C   0  0  0  0  0  0  0  0  0  0  0  0
    9.5670    7.2712   12.1257 H   0  0  0  0  0  0  0  0  0  0  0  0
   10.7316    7.6065   13.4516 H   0  0  0  0  0  0  0  0  0  0  0  0
    8.6269    7.1444   15.0337 H   0  0  0  0  0  0  0  0  0  0  0  0
    7.6777    7.5001   13.5508 H   0  0  0  0  0  0  0  0  0  0  0  0
    8.0769    9.6161   13.9491 H   0  0  0  0  0  0  0  0  0  0  0  0
    9.3288   10.4663   15.7819 H   0  0  0  0  0  0  0  0  0  0  0  0
   10.0361    8.8286   15.9918 H   0  0  0  0  0  0  0  0  0  0  0  0
    8.2802    9.0904   16.2654 H   0  0  0  0  0  0  0  0  0  0  0  0
    9.8275    9.2268   12.3598 H   0  0  0  0  0  0  0  0  0  0  0  0
   10.9262    8.8804   13.7380 H   0  0  0  0  0  0  0  0  0  0  0  0
   10.2531   10.5313   13.5189 H   0  0  0  0  0  0  0  0  0  0  0  0
  1  4  1  0  0  0  0
  4  5  1  0  0  0  0
  4  3  2  0  0  0  0
  4  2  1  0  0  0  0
  5  8  1  0  0  0  0
  8  9  1  0  0  0  0
  8  7  2  1  0  0  0
  8  6  1  0  0  0  0
  9 10  1  0  0  0  0
 10 11  1  0  0  0  0
 10 15  1  0  0  0  0
 10 16  1  0  0  0  0
 11 12  1  0  0  0  0
 11 17  1  0  0  0  0
 11 18  1  0  0  0  0
 12 13  1  0  0  0  0
 12 14  1  0  0  0  0
 12 19  1  0  0  0  0
 13 20  1  0  0  0  0
 13 21  1  0  0  0  0
 13 22  1  0  0  0  0
 14 23  1  0  0  0  0
 14 24  1  0  0  0  0
 14 25  1  0  0  0  0
M  CHG  1  12   1
M  END
