1nhx_ligand
 OpenBabel08222323343D

 60 63  0  0  0  0  0  0  0  0999 V2000
   35.8010   51.4460   34.0580 O   0  0  0  0  0  0  0  0  0  0  0  0
   36.0990   51.3690   35.2450 C   0  0  0  0  0  0  0  0  0  0  0  0
   35.5200   52.3910   36.1800 C   0  0  0  0  0  0  0  0  0  0  0  0
   36.9390   50.3870   35.7390 N   0  0  0  0  0  0  0  0  0  0  0  0
   37.6020   49.3190   35.0080 C   0  0  0  0  0  0  0  0  0  0  0  0
   38.5010   48.4660   35.6750 C   0  0  0  0  0  0  0  0  0  0  0  0
   39.1520   47.4290   34.9770 C   0  0  0  0  0  0  0  0  0  0  0  0
   37.3760   49.1210   33.6300 C   0  0  0  0  0  0  0  0  0  0  0  0
   38.0280   48.0880   32.9320 C   0  0  0  0  0  0  0  0  0  0  0  0
   38.9090   47.2310   33.6060 C   0  0  0  0  0  0  0  0  0  0  0  0
   39.6080   46.1290   32.8350 C   0  0  0  0  0  0  0  0  0  0  0  0
   38.8310   44.8400   32.8870 C   0  0  0  0  0  0  0  0  0  0  0  0
   39.1550   43.9000   33.8030 N   0  0  0  0  0  0  0  0  0  0  0  0
   38.2640   42.9240   33.5450 C   0  0  0  0  0  0  0  0  0  0  0  0
   38.2170   41.7490   34.2440 N   0  0  0  0  0  0  0  0  0  0  0  0
   39.1590   41.4440   35.3460 C   0  0  0  0  0  0  0  0  0  0  0  0
   40.2020   40.3990   34.8780 C   0  0  0  0  0  0  0  0  0  0  0  0
   41.1370   39.9680   36.0180 C   0  0  0  0  0  0  0  0  0  0  0  0
   41.9520   38.7370   35.6300 C   0  0  0  0  0  0  0  0  0  0  0  0
   37.4460   43.2730   32.5150 C   0  0  0  0  0  0  0  0  0  0  0  0
   37.7890   44.5060   32.0810 N   0  0  0  0  0  0  0  0  0  0  0  0
   36.4470   42.4000   32.0870 C   0  0  0  0  0  0  0  0  0  0  0  0
   35.6740   42.6810   31.1660 O   0  0  0  0  0  0  0  0  0  0  0  0
   36.3800   41.1860   32.7780 N   0  0  0  0  0  0  0  0  0  0  0  0
   37.2450   40.8590   33.8370 C   0  0  0  0  0  0  0  0  0  0  0  0
   37.1310   39.7930   34.4150 O   0  0  0  0  0  0  0  0  0  0  0  0
   35.6750   40.0310   32.1730 C   0  0  0  0  0  0  0  0  0  0  0  0
   34.2810   40.0170   32.7520 C   0  0  0  0  0  0  0  0  0  0  0  0
   34.0250   40.3500   34.1000 C   0  0  0  0  0  0  0  0  0  0  0  0
   32.7130   40.3340   34.6040 C   0  0  0  0  0  0  0  0  0  0  0  0
   31.6510   39.9680   33.7640 C   0  0  0  0  0  0  0  0  0  0  0  0
   31.8990   39.6340   32.4210 C   0  0  0  0  0  0  0  0  0  0  0  0
   33.2120   39.6650   31.9230 C   0  0  0  0  0  0  0  0  0  0  0  0
   33.4370   39.3320   30.6350 F   0  0  0  0  0  0  0  0  0  0  0  0
   35.8744   52.1947   37.2027 H   0  0  0  0  0  0  0  0  0  0  0  0
   34.4220   52.3308   36.1546 H   0  0  0  0  0  0  0  0  0  0  0  0
   35.8395   53.3962   35.8679 H   0  0  0  0  0  0  0  0  0  0  0  0
   37.1122   50.4152   36.7235 H   0  0  0  0  0  0  0  0  0  0  0  0
   38.6940   48.6075   36.7323 H   0  0  0  0  0  0  0  0  0  0  0  0
   39.8446   46.7797   35.5003 H   0  0  0  0  0  0  0  0  0  0  0  0
   36.6906   49.7736   33.1015 H   0  0  0  0  0  0  0  0  0  0  0  0
   37.8488   47.9546   31.8713 H   0  0  0  0  0  0  0  0  0  0  0  0
   40.6040   45.9637   33.2717 H   0  0  0  0  0  0  0  0  0  0  0  0
   39.7148   46.4397   31.7852 H   0  0  0  0  0  0  0  0  0  0  0  0
   39.8962   43.9243   34.5178 H   0  0  0  0  0  0  0  0  0  0  0  0
   38.5990   41.0411   36.2028 H   0  0  0  0  0  0  0  0  0  0  0  0
   39.6774   42.3661   35.6476 H   0  0  0  0  0  0  0  0  0  0  0  0
   40.8061   40.8375   34.0700 H   0  0  0  0  0  0  0  0  0  0  0  0
   39.6715   39.5127   34.4997 H   0  0  0  0  0  0  0  0  0  0  0  0
   40.5336   39.7328   36.9071 H   0  0  0  0  0  0  0  0  0  0  0  0
   41.8246   40.7947   36.2497 H   0  0  0  0  0  0  0  0  0  0  0  0
   42.6097   38.4545   36.4653 H   0  0  0  0  0  0  0  0  0  0  0  0
   42.5624   38.9657   34.7439 H   0  0  0  0  0  0  0  0  0  0  0  0
   41.2713   37.9037   35.4013 H   0  0  0  0  0  0  0  0  0  0  0  0
   36.1976   39.0958   32.4222 H   0  0  0  0  0  0  0  0  0  0  0  0
   35.6296   40.1456   31.0799 H   0  0  0  0  0  0  0  0  0  0  0  0
   34.8477   40.6204   34.7521 H   0  0  0  0  0  0  0  0  0  0  0  0
   32.5229   40.6032   35.6367 H   0  0  0  0  0  0  0  0  0  0  0  0
   30.6385   39.9426   34.1505 H   0  0  0  0  0  0  0  0  0  0  0  0
   31.0783   39.3530   31.7710 H   0  0  0  0  0  0  0  0  0  0  0  0
  1  2  2  0  0  0  0
  2  3  1  0  0  0  0
  2  4  1  0  0  0  0
  3 35  1  0  0  0  0
  3 36  1  0  0  0  0
  3 37  1  0  0  0  0
  4  5  1  0  0  0  0
  4 38  1  0  0  0  0
  5  6  2  0  0  0  0
  5  8  1  0  0  0  0
  6  7  1  0  0  0  0
  6 39  1  0  0  0  0
  7 10  2  0  0  0  0
  7 40  1  0  0  0  0
  8  9  2  0  0  0  0
  8 41  1  0  0  0  0
  9 10  1  0  0  0  0
  9 42  1  0  0  0  0
 10 11  1  0  0  0  0
 11 12  1  0  0  0  0
 11 43  1  0  0  0  0
 11 44  1  0  0  0  0
 12 13  1  0  0  0  0
 12 21  2  0  0  0  0
 13 14  1  0  0  0  0
 13 45  1  0  0  0  0
 14 15  1  0  0  0  0
 14 20  2  0  0  0  0
 15 16  1  0  0  0  0
 15 25  1  0  0  0  0
 16 17  1  0  0  0  0
 16 46  1  0  0  0  0
 16 47  1  0  0  0  0
 17 18  1  0  0  0  0
 17 48  1  0  0  0  0
 17 49  1  0  0  0  0
 18 19  1  0  0  0  0
 18 50  1  0  0  0  0
 18 51  1  0  0  0  0
 19 52  1  0  0  0  0
 19 53  1  0  0  0  0
 19 54  1  0  0  0  0
 20 21  1  0  0  0  0
 20 22  1  0  0  0  0
 22 23  2  0  0  0  0
 22 24  1  0  0  0  0
 24 25  1  0  0  0  0
 24 27  1  0  0  0  0
 25 26  2  0  0  0  0
 27 28  1  0  0  0  0
 27 55  1  0  0  0  0
 27 56  1  0  0  0  0
 28 29  2  0  0  0  0
 28 33  1  0  0  0  0
 29 30  1  0  0  0  0
 29 57  1  0  0  0  0
 30 31  2  0  0  0  0
 30 58  1  0  0  0  0
 31 32  1  0  0  0  0
 31 59  1  0  0  0  0
 32 33  2  0  0  0  0
 32 60  1  0  0  0  0
 33 34  1  0  0  0  0
M  END
