1njb_ligand
 OpenBabel08222323343D

 31 32  0  0  1  0  0  0  0  0999 V2000
   14.8350   48.6670  -53.7220 N   0  0  0  0  0  0  0  0  0  0  0  0
   14.0010   47.6040  -53.2930 C   0  0  0  0  0  0  0  0  0  0  0  0
   13.1350   47.8370  -52.2100 N   0  0  0  0  0  0  0  0  0  0  0  0
   13.0410   49.0460  -51.5290 C   0  0  0  0  0  0  0  0  0  0  0  0
   13.9550   50.0780  -52.0280 C   0  0  0  0  0  0  0  0  0  0  0  0
   14.8230   49.8340  -53.1130 C   0  0  0  0  0  0  0  0  0  0  0  0
   13.9930   46.4800  -53.7910 O   0  0  0  0  0  0  0  0  0  0  0  0
   12.2150   49.1940  -50.6280 O   0  0  0  0  0  0  0  0  0  0  0  0
   15.7010   48.5970  -54.9600 C   0  0  1  0  0  0  0  0  0  0  0  0
   15.2140   47.8970  -56.2300 C   0  0  0  0  0  0  0  0  0  0  0  0
   16.3680   48.1350  -57.1920 C   0  0  1  0  0  0  0  0  0  0  0  0
   16.7520   49.6130  -57.0540 C   0  0  2  0  0  0  0  0  0  0  0  0
   17.4610   47.3730  -56.7310 O   0  0  0  0  0  0  0  0  0  0  0  0
   16.4770   49.7800  -55.5790 O   0  0  0  0  0  0  0  0  0  0  0  0
   15.7890   50.4960  -57.8560 C   0  0  0  0  0  0  0  0  0  0  0  0
   15.9170   50.2850  -59.3180 O   0  0  0  0  0  0  0  0  0  0  0  0
   15.9820   51.5650  -60.2870 P   0  0  0  0  0  0  0  0  0  0  0  0
   16.2200   51.1250  -61.7030 O   0  0  0  0  0  1  0  0  0  0  0  0
   14.7690   52.3560  -60.0650 O   0  0  0  0  0  1  0  0  0  0  0  0
   17.0260   52.4010  -59.7760 O   0  0  0  0  0  0  0  0  0  0  0  0
   12.5486   47.0846  -51.9100 H   0  0  0  0  0  0  0  0  0  0  0  0
   13.9641   51.0563  -51.5497 H   0  0  0  0  0  0  0  0  0  0  0  0
   15.4931   50.6228  -53.4518 H   0  0  0  0  0  0  0  0  0  0  0  0
   16.5003   47.9421  -54.5830 H   0  0  0  0  0  0  0  0  0  0  0  0
   14.2839   48.3502  -56.6034 H   0  0  0  0  0  0  0  0  0  0  0  0
   15.0546   46.8225  -56.0568 H   0  0  0  0  0  0  0  0  0  0  0  0
   16.0991   47.8763  -58.2268 H   0  0  0  0  0  0  0  0  0  0  0  0
   17.7972   49.8167  -57.3299 H   0  0  0  0  0  0  0  0  0  0  0  0
   17.2542   46.4487  -56.8036 H   0  0  0  0  0  0  0  0  0  0  0  0
   16.0053   51.5507  -57.6306 H   0  0  0  0  0  0  0  0  0  0  0  0
   14.7580   50.2604  -57.5536 H   0  0  0  0  0  0  0  0  0  0  0  0
  1  2  1  0  0  0  0
  1  6  1  0  0  0  0
  1  9  1  0  0  0  0
  2  3  1  0  0  0  0
  2  7  2  0  0  0  0
  3  4  1  0  0  0  0
  3 21  1  0  0  0  0
  4  5  1  0  0  0  0
  4  8  2  0  0  0  0
  5  6  2  0  0  0  0
  5 22  1  0  0  0  0
  6 23  1  0  0  0  0
  9 10  1  0  0  0  0
  9 14  1  0  0  0  0
  9 24  1  1  0  0  0
 10 11  1  0  0  0  0
 10 25  1  0  0  0  0
 10 26  1  0  0  0  0
 11 12  1  0  0  0  0
 11 13  1  0  0  0  0
 11 27  1  6  0  0  0
 12 14  1  0  0  0  0
 12 15  1  0  0  0  0
 12 28  1  6  0  0  0
 13 29  1  0  0  0  0
 15 16  1  0  0  0  0
 15 30  1  0  0  0  0
 15 31  1  0  0  0  0
 16 17  1  0  0  0  0
 17 18  1  0  0  0  0
 17 19  1  0  0  0  0
 17 20  2  0  0  0  0
M  END
