1nju_ligand
 OpenBabel08222323343D

115115  0  0  1  0  0  0  0  0999 V2000
    1.2370   73.4000  -19.1380 C   0  0  0  0  0  0  0  0  0  0  0  0
    1.6510   72.0560  -18.5520 C   0  0  0  0  0  0  0  0  0  0  0  0
    0.9670   71.0460  -18.7510 O   0  0  0  0  0  0  0  0  0  0  0  0
    1.1250   74.4870  -18.0710 C   0  0  0  0  0  0  0  0  0  0  0  0
    0.4540   75.7490  -18.6370 C   0  0  0  0  0  0  0  0  0  0  0  0
    0.8570   75.9540  -20.1050 C   0  0  0  0  0  0  0  0  0  0  0  0
    0.0440   77.0340  -20.8000 C   0  0  0  0  0  0  0  0  0  0  0  0
    0.4510   77.1570  -22.2410 N   0  3  0  0  0  0  0  0  0  0  0  0
    2.7690   72.0350  -17.8360 N   0  0  0  0  0  0  0  0  0  0  0  0
    3.2580   70.7930  -17.2520 C   0  0  1  0  0  0  0  0  0  0  0  0
    4.6110   70.3770  -17.9060 C   0  0  0  0  0  0  0  0  0  0  0  0
    5.5850   71.5450  -17.8740 C   0  0  0  0  0  0  0  0  0  0  0  0
    5.2120   69.1930  -17.1490 C   0  0  0  0  0  0  0  0  0  0  0  0
    4.3760   69.9760  -19.3560 C   0  0  0  0  0  0  0  0  0  0  0  0
    3.4220   70.8860  -15.7380 C   0  0  0  0  0  0  0  0  0  0  0  0
    3.8260   71.9220  -15.2120 O   0  0  0  0  0  0  0  0  0  0  0  0
    3.0960   69.7990  -15.0410 N   0  0  0  0  0  0  0  0  0  0  0  0
    3.2200   69.7550  -13.5860 C   0  0  1  0  0  0  0  0  0  0  0  0
    1.8620   69.5130  -12.9130 C   0  0  0  0  0  0  0  0  0  0  0  0
    1.3570   68.1280  -13.2520 C   0  0  0  0  0  0  0  0  0  0  0  0
    2.0110   69.6510  -11.4170 C   0  0  0  0  0  0  0  0  0  0  0  0
    0.8700   70.5340  -13.3960 C   0  0  0  0  0  0  0  0  0  0  0  0
    4.1760   68.6450  -13.1680 C   0  0  0  0  0  0  0  0  0  0  0  0
    3.9930   67.4810  -13.5270 O   0  0  0  0  0  0  0  0  0  0  0  0
    5.2000   69.0120  -12.4070 N   0  0  0  0  0  0  0  0  0  0  0  0
    6.1940   68.0530  -11.9460 C   0  0  1  0  0  0  0  0  0  0  0  0
    7.6000   68.5530  -12.2880 C   0  0  0  0  0  0  0  0  0  0  0  0
    7.8160   68.6890  -13.7810 C   0  0  0  0  0  0  0  0  0  0  0  0
    7.0190   68.1770  -14.5760 O   0  0  0  0  0  0  0  0  0  0  0  0
    8.9060   69.3670  -14.1780 N   0  0  0  0  0  0  0  0  0  0  0  0
    9.8790   69.9720  -13.3120 C   0  0  0  0  0  0  0  0  0  0  0  0
    9.1790   69.5370  -15.5620 C   0  0  0  0  0  0  0  0  0  0  0  0
    6.1100   67.7820  -10.4500 C   0  0  0  0  0  0  0  0  0  0  0  0
    6.0010   68.7070   -9.6420 O   0  0  0  0  0  0  0  0  0  0  0  0
    6.1640   66.5010  -10.0890 N   0  0  0  0  0  0  0  0  0  0  0  0
    6.1170   66.0860   -8.6910 C   0  0  2  0  0  0  0  0  0  0  0  0
    7.4160   65.3310   -8.3070 C   0  0  2  0  0  0  0  0  0  0  0  0
    7.1330   64.5170   -7.2120 O   0  0  0  0  0  0  0  0  0  0  0  0
    4.9120   65.1930   -8.4650 C   0  0  0  0  0  0  0  0  0  0  0  0
    8.5720   66.3300   -7.9560 C   0  0  0  0  0  0  0  0  0  0  0  0
    8.8610   67.2680   -8.7220 O   0  0  0  0  0  0  0  0  0  0  0  0
    9.2300   66.1200   -6.8090 N   0  0  0  0  0  0  0  0  0  0  0  0
   10.3340   66.9550   -6.3150 C   0  0  2  0  0  0  0  0  0  0  0  0
   11.5550   66.1040   -5.9210 C   0  0  0  0  0  0  0  0  0  0  0  0
   12.4800   66.8450   -4.9460 C   0  0  0  0  0  0  0  0  0  0  0  0
    9.8920   67.7530   -5.1100 C   0  0  0  0  0  0  0  0  0  0  0  0
    9.8860   69.1390   -5.1450 C   0  0  0  0  0  0  0  0  0  0  0  0
    9.5000   69.8830   -4.0270 C   0  0  0  0  0  0  0  0  0  0  0  0
    9.1140   69.2340   -2.8600 C   0  0  0  0  0  0  0  0  0  0  0  0
    9.1150   67.8530   -2.8130 C   0  0  0  0  0  0  0  0  0  0  0  0
    9.5020   67.1180   -3.9350 C   0  0  0  0  0  0  0  0  0  0  0  0
    0.2601   73.2855  -19.6304 H   0  0  0  0  0  0  0  0  0  0  0  0
    1.9878   73.7088  -19.8802 H   0  0  0  0  0  0  0  0  0  0  0  0
    2.1328   74.7452  -17.7136 H   0  0  0  0  0  0  0  0  0  0  0  0
    0.5246   74.1064  -17.2316 H   0  0  0  0  0  0  0  0  0  0  0  0
    0.7699   76.6230  -18.0485 H   0  0  0  0  0  0  0  0  0  0  0  0
   -0.6386   75.6391  -18.5726 H   0  0  0  0  0  0  0  0  0  0  0  0
    0.7127   75.0058  -20.6436 H   0  0  0  0  0  0  0  0  0  0  0  0
    1.9191   76.2378  -20.1404 H   0  0  0  0  0  0  0  0  0  0  0  0
    0.2125   77.9957  -20.2934 H   0  0  0  0  0  0  0  0  0  0  0  0
   -1.0234   76.7736  -20.7468 H   0  0  0  0  0  0  0  0  0  0  0  0
   -0.0978   77.8766  -22.6849 H   0  0  0  0  0  0  0  0  0  0  0  0
    0.2956   76.2785  -22.7102 H   0  0  0  0  0  0  0  0  0  0  0  0
    1.4282   77.3984  -22.2947 H   0  0  0  0  0  0  0  0  0  0  0  0
    3.2817   72.8821  -17.6959 H   0  0  0  0  0  0  0  0  0  0  0  0
    2.5169   70.0082  -17.4639 H   0  0  0  0  0  0  0  0  0  0  0  0
    6.5358   71.2423  -18.3371 H   0  0  0  0  0  0  0  0  0  0  0  0
    5.7643   71.8445  -16.8309 H   0  0  0  0  0  0  0  0  0  0  0  0
    5.1594   72.3927  -18.4309 H   0  0  0  0  0  0  0  0  0  0  0  0
    4.5082   68.3479  -17.1717 H   0  0  0  0  0  0  0  0  0  0  0  0
    5.4024   69.4836  -16.1053 H   0  0  0  0  0  0  0  0  0  0  0  0
    6.1578   68.8953  -17.6252 H   0  0  0  0  0  0  0  0  0  0  0  0
    3.9433   70.8249  -19.9057 H   0  0  0  0  0  0  0  0  0  0  0  0
    3.6820   69.1234  -19.3928 H   0  0  0  0  0  0  0  0  0  0  0  0
    5.3329   69.6901  -19.8171 H   0  0  0  0  0  0  0  0  0  0  0  0
    2.7578   68.9925  -15.5259 H   0  0  0  0  0  0  0  0  0  0  0  0
    3.6192   70.7203  -13.2413 H   0  0  0  0  0  0  0  0  0  0  0  0
    0.3841   67.9633  -12.7659 H   0  0  0  0  0  0  0  0  0  0  0  0
    2.0772   67.3774  -12.8944 H   0  0  0  0  0  0  0  0  0  0  0  0
    1.2424   68.0361  -14.3421 H   0  0  0  0  0  0  0  0  0  0  0  0
    2.3783   70.6596  -11.1766 H   0  0  0  0  0  0  0  0  0  0  0  0
    2.7281   68.9024  -11.0493 H   0  0  0  0  0  0  0  0  0  0  0  0
    1.0351   69.4917  -10.9350 H   0  0  0  0  0  0  0  0  0  0  0  0
    0.7523   70.4438  -14.4860 H   0  0  0  0  0  0  0  0  0  0  0  0
    1.2321   71.5428  -13.1486 H   0  0  0  0  0  0  0  0  0  0  0  0
   -0.1003   70.3625  -12.9070 H   0  0  0  0  0  0  0  0  0  0  0  0
    5.2911   69.9723  -12.1434 H   0  0  0  0  0  0  0  0  0  0  0  0
    6.0194   67.1043  -12.4747 H   0  0  0  0  0  0  0  0  0  0  0  0
    8.3358   67.8399  -11.8880 H   0  0  0  0  0  0  0  0  0  0  0  0
    7.7495   69.5364  -11.8183 H   0  0  0  0  0  0  0  0  0  0  0  0
   10.6583   70.4568  -13.9183 H   0  0  0  0  0  0  0  0  0  0  0  0
   10.3363   69.1986  -12.6774 H   0  0  0  0  0  0  0  0  0  0  0  0
    9.3876   70.7240  -12.6771 H   0  0  0  0  0  0  0  0  0  0  0  0
    8.3916   69.0474  -16.1539 H   0  0  0  0  0  0  0  0  0  0  0  0
   10.1527   69.0849  -15.8019 H   0  0  0  0  0  0  0  0  0  0  0  0
    9.2040   70.6103  -15.8017 H   0  0  0  0  0  0  0  0  0  0  0  0
    6.2392   65.8010  -10.7992 H   0  0  0  0  0  0  0  0  0  0  0  0
    6.0246   66.9797   -8.0564 H   0  0  0  0  0  0  0  0  0  0  0  0
    7.7345   64.7058   -9.1541 H   0  0  0  0  0  0  0  0  0  0  0  0
    6.4507   63.8989   -7.4462 H   0  0  0  0  0  0  0  0  0  0  0  0
    4.8790   64.8817   -7.4105 H   0  0  0  0  0  0  0  0  0  0  0  0
    4.9890   64.3036   -9.1076 H   0  0  0  0  0  0  0  0  0  0  0  0
    3.9941   65.7461   -8.7129 H   0  0  0  0  0  0  0  0  0  0  0  0
    8.9506   65.3400   -6.2490 H   0  0  0  0  0  0  0  0  0  0  0  0
   10.6299   67.6492   -7.1153 H   0  0  0  0  0  0  0  0  0  0  0  0
   12.1227   65.8549   -6.8296 H   0  0  0  0  0  0  0  0  0  0  0  0
   11.2034   65.1779   -5.4429 H   0  0  0  0  0  0  0  0  0  0  0  0
   13.3359   66.2022   -4.6924 H   0  0  0  0  0  0  0  0  0  0  0  0
   11.9239   67.0934   -4.0300 H   0  0  0  0  0  0  0  0  0  0  0  0
   12.8433   67.7704   -5.4168 H   0  0  0  0  0  0  0  0  0  0  0  0
   10.1848   69.6523   -6.0518 H   0  0  0  0  0  0  0  0  0  0  0  0
    9.5016   70.9662   -4.0698 H   0  0  0  0  0  0  0  0  0  0  0  0
    8.8137   69.8084   -1.9911 H   0  0  0  0  0  0  0  0  0  0  0  0
    8.8156   67.3408   -1.9058 H   0  0  0  0  0  0  0  0  0  0  0  0
    9.4986   66.0349   -3.8901 H   0  0  0  0  0  0  0  0  0  0  0  0
  1  2  1  0  0  0  0
  1  4  1  0  0  0  0
  1 52  1  0  0  0  0
  1 53  1  0  0  0  0
  2  3  2  0  0  0  0
  2  9  1  0  0  0  0
  4  5  1  0  0  0  0
  4 54  1  0  0  0  0
  4 55  1  0  0  0  0
  5  6  1  0  0  0  0
  5 56  1  0  0  0  0
  5 57  1  0  0  0  0
  6  7  1  0  0  0  0
  6 58  1  0  0  0  0
  6 59  1  0  0  0  0
  7  8  1  0  0  0  0
  7 60  1  0  0  0  0
  7 61  1  0  0  0  0
  8 62  1  0  0  0  0
  8 63  1  0  0  0  0
  8 64  1  0  0  0  0
  9 10  1  0  0  0  0
  9 65  1  0  0  0  0
 10 11  1  0  0  0  0
 10 15  1  0  0  0  0
 10 66  1  6  0  0  0
 11 12  1  0  0  0  0
 11 13  1  0  0  0  0
 11 14  1  0  0  0  0
 12 67  1  0  0  0  0
 12 68  1  0  0  0  0
 12 69  1  0  0  0  0
 13 70  1  0  0  0  0
 13 71  1  0  0  0  0
 13 72  1  0  0  0  0
 14 73  1  0  0  0  0
 14 74  1  0  0  0  0
 14 75  1  0  0  0  0
 15 16  2  0  0  0  0
 15 17  1  0  0  0  0
 17 18  1  0  0  0  0
 17 76  1  0  0  0  0
 18 19  1  0  0  0  0
 18 23  1  0  0  0  0
 18 77  1  1  0  0  0
 19 20  1  0  0  0  0
 19 21  1  0  0  0  0
 19 22  1  0  0  0  0
 20 78  1  0  0  0  0
 20 79  1  0  0  0  0
 20 80  1  0  0  0  0
 21 81  1  0  0  0  0
 21 82  1  0  0  0  0
 21 83  1  0  0  0  0
 22 84  1  0  0  0  0
 22 85  1  0  0  0  0
 22 86  1  0  0  0  0
 23 24  2  0  0  0  0
 23 25  1  0  0  0  0
 25 26  1  0  0  0  0
 25 87  1  0  0  0  0
 26 27  1  0  0  0  0
 26 33  1  0  0  0  0
 26 88  1  6  0  0  0
 27 28  1  0  0  0  0
 27 89  1  0  0  0  0
 27 90  1  0  0  0  0
 28 29  2  0  0  0  0
 28 30  1  0  0  0  0
 30 31  1  0  0  0  0
 30 32  1  0  0  0  0
 31 91  1  0  0  0  0
 31 92  1  0  0  0  0
 31 93  1  0  0  0  0
 32 94  1  0  0  0  0
 32 95  1  0  0  0  0
 32 96  1  0  0  0  0
 33 34  2  0  0  0  0
 33 35  1  0  0  0  0
 35 36  1  0  0  0  0
 35 97  1  0  0  0  0
 36 37  1  0  0  0  0
 36 39  1  0  0  0  0
 36 98  1  1  0  0  0
 37 38  1  0  0  0  0
 37 40  1  0  0  0  0
 37 99  1  6  0  0  0
 38100  1  0  0  0  0
 39101  1  0  0  0  0
 39102  1  0  0  0  0
 39103  1  0  0  0  0
 40 41  2  0  0  0  0
 40 42  1  0  0  0  0
 42 43  1  0  0  0  0
 42104  1  0  0  0  0
 43 44  1  0  0  0  0
 43 46  1  0  0  0  0
 43105  1  6  0  0  0
 44 45  1  0  0  0  0
 44106  1  0  0  0  0
 44107  1  0  0  0  0
 45108  1  0  0  0  0
 45109  1  0  0  0  0
 45110  1  0  0  0  0
 46 47  2  0  0  0  0
 46 51  1  0  0  0  0
 47 48  1  0  0  0  0
 47111  1  0  0  0  0
 48 49  2  0  0  0  0
 48112  1  0  0  0  0
 49 50  1  0  0  0  0
 49113  1  0  0  0  0
 50 51  2  0  0  0  0
 50114  1  0  0  0  0
 51115  1  0  0  0  0
M  CHG  1   8   1
M  END
