1nlt_ligand
 OpenBabel08222323343D

119121  0  0  1  0  0  0  0  0999 V2000
   10.1800   37.1920   76.4600 N   0  3  0  0  0  0  0  0  0  0  0  0
   10.2410   36.1990   75.4070 C   0  0  0  0  0  0  0  0  0  0  0  0
   11.5820   36.1310   74.6980 C   0  0  0  0  0  0  0  0  0  0  0  0
   12.1500   37.1550   74.3550 O   0  0  0  0  0  0  0  0  0  0  0  0
   12.0720   34.9180   74.4430 N   0  0  0  0  0  0  0  0  0  0  0  0
   13.3400   34.7290   73.7460 C   0  0  2  0  0  0  0  0  0  0  0  0
   13.3240   33.4810   72.8830 C   0  0  0  0  0  0  0  0  0  0  0  0
   12.5270   32.5660   73.1230 O   0  0  0  0  0  0  0  0  0  0  0  0
   14.4750   34.6230   74.7360 C   0  0  0  0  0  0  0  0  0  0  0  0
   14.3600   33.4780   75.6610 C   0  0  0  0  0  0  0  0  0  0  0  0
   13.4970   33.3570   76.7050 C   0  0  0  0  0  0  0  0  0  0  0  0
   15.1540   32.2830   75.6430 C   0  0  0  0  0  0  0  0  0  0  0  0
   13.7040   32.1560   77.3430 N   0  0  0  0  0  0  0  0  0  0  0  0
   14.7090   31.4740   76.7060 C   0  0  0  0  0  0  0  0  0  0  0  0
   16.1910   31.8130   74.8200 C   0  0  0  0  0  0  0  0  0  0  0  0
   15.2690   30.2170   76.9830 C   0  0  0  0  0  0  0  0  0  0  0  0
   16.7500   30.5620   75.0940 C   0  0  0  0  0  0  0  0  0  0  0  0
   16.2800   29.7780   76.1660 C   0  0  0  0  0  0  0  0  0  0  0  0
   14.2170   33.4250   71.8930 N   0  0  0  0  0  0  0  0  0  0  0  0
   14.2290   32.2810   70.9930 C   0  0  2  0  0  0  0  0  0  0  0  0
   15.5890   31.6930   70.6580 C   0  0  0  0  0  0  0  0  0  0  0  0
   16.6230   32.2780   70.9530 O   0  0  0  0  0  0  0  0  0  0  0  0
   13.5430   32.6630   69.6770 C   0  0  0  0  0  0  0  0  0  0  0  0
   12.2750   33.5050   69.7530 C   0  0  0  0  0  0  0  0  0  0  0  0
   12.5550   34.8840   69.2180 C   0  0  0  0  0  0  0  0  0  0  0  0
   11.1760   32.8480   68.9150 C   0  0  0  0  0  0  0  0  0  0  0  0
   15.5590   30.5320   70.0100 N   0  0  0  0  0  0  0  0  0  0  0  0
   16.7550   29.8380   69.5540 C   0  0  2  0  0  0  0  0  0  0  0  0
   16.3360   28.8950   68.4210 C   0  0  0  0  0  0  0  0  0  0  0  0
   15.1780   28.4710   68.3600 O   0  0  0  0  0  0  0  0  0  0  0  0
   17.4140   29.0680   70.7050 C   0  0  0  0  0  0  0  0  0  0  0  0
   16.6250   27.9170   71.2750 C   0  0  0  0  0  0  0  0  0  0  0  0
   16.6470   26.6590   70.6710 C   0  0  0  0  0  0  0  0  0  0  0  0
   15.8820   28.0740   72.4490 C   0  0  0  0  0  0  0  0  0  0  0  0
   15.9530   25.5790   71.2300 C   0  0  0  0  0  0  0  0  0  0  0  0
   15.1800   27.0040   73.0120 C   0  0  0  0  0  0  0  0  0  0  0  0
   15.2240   25.7610   72.4010 C   0  0  0  0  0  0  0  0  0  0  0  0
   14.5650   24.7010   72.9820 O   0  0  0  0  0  0  0  0  0  0  0  0
   17.2690   28.5810   67.5260 N   0  0  0  0  0  0  0  0  0  0  0  0
   16.9910   27.6930   66.3960 C   0  0  2  0  0  0  0  0  0  0  0  0
   17.0620   26.2110   66.7370 C   0  0  0  0  0  0  0  0  0  0  0  0
   17.9330   25.7650   67.4830 O   0  0  0  0  0  0  0  0  0  0  0  0
   17.9580   27.9730   65.2530 C   0  0  0  0  0  0  0  0  0  0  0  0
   17.7910   29.3370   64.6350 C   0  0  0  0  0  0  0  0  0  0  0  0
   18.6800   29.5420   63.4350 C   0  0  0  0  0  0  0  0  0  0  0  0
   18.7070   28.6480   62.5560 O   0  5  0  0  0  0  0  0  0  0  0  0
   19.3390   30.6010   63.3700 O   0  0  0  0  0  0  0  0  0  0  0  0
   16.1520   25.4400   66.1660 N   0  0  0  0  0  0  0  0  0  0  0  0
   16.1280   24.0100   66.4320 C   0  0  2  0  0  0  0  0  0  0  0  0
   17.0480   23.2350   65.5010 C   0  0  0  0  0  0  0  0  0  0  0  0
   16.9890   23.3870   64.2770 O   0  0  0  0  0  0  0  0  0  0  0  0
   14.7060   23.4490   66.2960 C   0  0  2  0  0  0  0  0  0  0  0  0
   13.8380   23.9450   67.4510 C   0  0  0  0  0  0  0  0  0  0  0  0
   14.7430   21.9280   66.2480 C   0  0  0  0  0  0  0  0  0  0  0  0
   14.3030   23.4680   68.8010 C   0  0  0  0  0  0  0  0  0  0  0  0
   17.9040   22.4090   66.0950 N   0  0  0  0  0  0  0  0  0  0  0  0
   18.8430   21.5940   65.3380 C   0  0  2  0  0  0  0  0  0  0  0  0
   20.0880   22.3600   64.9440 C   0  0  0  0  0  0  0  0  0  0  0  0
   20.1120   22.8950   63.8180 O   0  0  0  0  0  0  0  0  0  0  0  0
   18.1710   21.0080   64.0860 C   0  0  0  0  0  0  0  0  0  0  0  0
   19.1020   20.2590   63.3230 O   0  0  0  0  0  0  0  0  0  0  0  0
    9.2647   37.1784   76.8820 H   0  0  0  0  0  0  0  0  0  0  0  0
   10.3573   38.1051   76.0715 H   0  0  0  0  0  0  0  0  0  0  0  0
   10.8755   36.9835   77.1592 H   0  0  0  0  0  0  0  0  0  0  0  0
    9.4677   36.4373   74.6619 H   0  0  0  0  0  0  0  0  0  0  0  0
   10.0332   35.2133   75.8488 H   0  0  0  0  0  0  0  0  0  0  0  0
   11.5556   34.1140   74.7379 H   0  0  0  0  0  0  0  0  0  0  0  0
   13.5124   35.6017   73.0989 H   0  0  0  0  0  0  0  0  0  0  0  0
   14.5020   35.5474   75.3316 H   0  0  0  0  0  0  0  0  0  0  0  0
   15.4154   34.5209   74.1745 H   0  0  0  0  0  0  0  0  0  0  0  0
   12.7538   34.0992   76.9927 H   0  0  0  0  0  0  0  0  0  0  0  0
   13.1862   31.8219   78.1684 H   0  0  0  0  0  0  0  0  0  0  0  0
   16.5504   32.4090   73.9889 H   0  0  0  0  0  0  0  0  0  0  0  0
   14.9155   29.6150   77.8123 H   0  0  0  0  0  0  0  0  0  0  0  0
   17.5566   30.1895   74.4730 H   0  0  0  0  0  0  0  0  0  0  0  0
   16.7266   28.8074   76.3492 H   0  0  0  0  0  0  0  0  0  0  0  0
   14.8761   34.1669   71.7697 H   0  0  0  0  0  0  0  0  0  0  0  0
   13.6422   31.4867   71.4776 H   0  0  0  0  0  0  0  0  0  0  0  0
   13.2848   31.7279   69.1585 H   0  0  0  0  0  0  0  0  0  0  0  0
   14.2741   33.2250   69.0773 H   0  0  0  0  0  0  0  0  0  0  0  0
   11.9448   33.5774   70.7998 H   0  0  0  0  0  0  0  0  0  0  0  0
   11.6396   35.4915   69.2730 H   0  0  0  0  0  0  0  0  0  0  0  0
   12.8844   34.8112   68.1710 H   0  0  0  0  0  0  0  0  0  0  0  0
   13.3455   35.3570   69.8191 H   0  0  0  0  0  0  0  0  0  0  0  0
   10.9705   31.8402   69.3051 H   0  0  0  0  0  0  0  0  0  0  0  0
   11.5067   32.7757   67.8684 H   0  0  0  0  0  0  0  0  0  0  0  0
   10.2607   33.4557   68.9692 H   0  0  0  0  0  0  0  0  0  0  0  0
   14.6692   30.1142   69.8265 H   0  0  0  0  0  0  0  0  0  0  0  0
   17.4762   30.5725   69.1662 H   0  0  0  0  0  0  0  0  0  0  0  0
   17.6033   29.7813   71.5207 H   0  0  0  0  0  0  0  0  0  0  0  0
   18.3709   28.6691   70.3372 H   0  0  0  0  0  0  0  0  0  0  0  0
   17.2097   26.5159   69.7556 H   0  0  0  0  0  0  0  0  0  0  0  0
   15.8496   29.0439   72.9319 H   0  0  0  0  0  0  0  0  0  0  0  0
   15.9835   24.6061   70.7529 H   0  0  0  0  0  0  0  0  0  0  0  0
   14.6053   27.1457   73.9201 H   0  0  0  0  0  0  0  0  0  0  0  0
   14.6872   23.9235   72.4499 H   0  0  0  0  0  0  0  0  0  0  0  0
   18.1875   28.9630   67.6283 H   0  0  0  0  0  0  0  0  0  0  0  0
   15.9693   27.9095   66.0506 H   0  0  0  0  0  0  0  0  0  0  0  0
   17.7988   27.2162   64.4708 H   0  0  0  0  0  0  0  0  0  0  0  0
   18.9846   27.8908   65.6393 H   0  0  0  0  0  0  0  0  0  0  0  0
   18.0369   30.0984   65.3898 H   0  0  0  0  0  0  0  0  0  0  0  0
   16.7433   29.4561   64.3218 H   0  0  0  0  0  0  0  0  0  0  0  0
   15.4766   25.8422   65.5479 H   0  0  0  0  0  0  0  0  0  0  0  0
   16.4696   23.8530   67.4658 H   0  0  0  0  0  0  0  0  0  0  0  0
   14.2727   23.8149   65.3535 H   0  0  0  0  0  0  0  0  0  0  0  0
   12.8096   23.5887   67.2914 H   0  0  0  0  0  0  0  0  0  0  0  0
   13.8497   25.0449   67.4477 H   0  0  0  0  0  0  0  0  0  0  0  0
   15.3743   21.6029   65.4079 H   0  0  0  0  0  0  0  0  0  0  0  0
   13.7227   21.5405   66.1112 H   0  0  0  0  0  0  0  0  0  0  0  0
   15.1588   21.5414   67.1901 H   0  0  0  0  0  0  0  0  0  0  0  0
   13.6337   23.8625   69.5798 H   0  0  0  0  0  0  0  0  0  0  0  0
   15.3275   23.8246   68.9830 H   0  0  0  0  0  0  0  0  0  0  0  0
   14.2875   22.3684   68.8267 H   0  0  0  0  0  0  0  0  0  0  0  0
   17.9027   22.3457   67.0930 H   0  0  0  0  0  0  0  0  0  0  0  0
   19.1529   20.7582   65.9826 H   0  0  0  0  0  0  0  0  0  0  0  0
   20.9358   22.4412   65.6226 H   0  0  0  0  0  0  0  0  0  0  0  0
   17.7766   21.8293   63.4697 H   0  0  0  0  0  0  0  0  0  0  0  0
   17.3443   20.3508   64.3937 H   0  0  0  0  0  0  0  0  0  0  0  0
   19.4427   19.5469   63.8515 H   0  0  0  0  0  0  0  0  0  0  0  0
  1  2  1  0  0  0  0
  1 62  1  0  0  0  0
  1 63  1  0  0  0  0
  1 64  1  0  0  0  0
  2  3  1  0  0  0  0
  2 65  1  0  0  0  0
  2 66  1  0  0  0  0
  3  4  2  0  0  0  0
  3  5  1  0  0  0  0
  5  6  1  0  0  0  0
  5 67  1  0  0  0  0
  6  7  1  0  0  0  0
  6  9  1  0  0  0  0
  6 68  1  6  0  0  0
  7  8  2  0  0  0  0
  7 19  1  0  0  0  0
  9 10  1  0  0  0  0
  9 69  1  0  0  0  0
  9 70  1  0  0  0  0
 10 11  2  0  0  0  0
 10 12  1  0  0  0  0
 11 13  1  0  0  0  0
 11 71  1  0  0  0  0
 12 14  2  0  0  0  0
 12 15  1  0  0  0  0
 13 14  1  0  0  0  0
 13 72  1  0  0  0  0
 14 16  1  0  0  0  0
 15 17  2  0  0  0  0
 15 73  1  0  0  0  0
 16 18  2  0  0  0  0
 16 74  1  0  0  0  0
 17 18  1  0  0  0  0
 17 75  1  0  0  0  0
 18 76  1  0  0  0  0
 19 20  1  0  0  0  0
 19 77  1  0  0  0  0
 20 21  1  0  0  0  0
 20 23  1  0  0  0  0
 20 78  1  1  0  0  0
 21 22  2  0  0  0  0
 21 27  1  0  0  0  0
 23 24  1  0  0  0  0
 23 79  1  0  0  0  0
 23 80  1  0  0  0  0
 24 25  1  0  0  0  0
 24 26  1  0  0  0  0
 24 81  1  0  0  0  0
 25 82  1  0  0  0  0
 25 83  1  0  0  0  0
 25 84  1  0  0  0  0
 26 85  1  0  0  0  0
 26 86  1  0  0  0  0
 26 87  1  0  0  0  0
 27 28  1  0  0  0  0
 27 88  1  0  0  0  0
 28 29  1  0  0  0  0
 28 31  1  0  0  0  0
 28 89  1  6  0  0  0
 29 30  2  0  0  0  0
 29 39  1  0  0  0  0
 31 32  1  0  0  0  0
 31 90  1  0  0  0  0
 31 91  1  0  0  0  0
 32 33  2  0  0  0  0
 32 34  1  0  0  0  0
 33 35  1  0  0  0  0
 33 92  1  0  0  0  0
 34 36  2  0  0  0  0
 34 93  1  0  0  0  0
 35 37  2  0  0  0  0
 35 94  1  0  0  0  0
 36 37  1  0  0  0  0
 36 95  1  0  0  0  0
 37 38  1  0  0  0  0
 38 96  1  0  0  0  0
 39 40  1  0  0  0  0
 39 97  1  0  0  0  0
 40 41  1  0  0  0  0
 40 43  1  0  0  0  0
 40 98  1  6  0  0  0
 41 42  2  0  0  0  0
 41 48  1  0  0  0  0
 43 44  1  0  0  0  0
 43 99  1  0  0  0  0
 43100  1  0  0  0  0
 44 45  1  0  0  0  0
 44101  1  0  0  0  0
 44102  1  0  0  0  0
 45 46  1  0  0  0  0
 45 47  2  0  0  0  0
 48 49  1  0  0  0  0
 48103  1  0  0  0  0
 49 50  1  0  0  0  0
 49 52  1  0  0  0  0
 49104  1  1  0  0  0
 50 51  2  0  0  0  0
 50 56  1  0  0  0  0
 52 53  1  0  0  0  0
 52 54  1  0  0  0  0
 52105  1  6  0  0  0
 53 55  1  0  0  0  0
 53106  1  0  0  0  0
 53107  1  0  0  0  0
 54108  1  0  0  0  0
 54109  1  0  0  0  0
 54110  1  0  0  0  0
 55111  1  0  0  0  0
 55112  1  0  0  0  0
 55113  1  0  0  0  0
 56 57  1  0  0  0  0
 56114  1  0  0  0  0
 57 58  1  0  0  0  0
 57 60  1  0  0  0  0
 57115  1  1  0  0  0
 58 59  2  0  0  0  0
 58116  1  0  0  0  0
 60 61  1  0  0  0  0
 60117  1  0  0  0  0
 60118  1  0  0  0  0
 61119  1  0  0  0  0
M  CHG  2   1   1  46  -1
M  END
