1nmk_ligand
 OpenBabel08222323343D

110112  0  0  1  0  0  0  0  0999 V2000
   27.8380    5.6340   32.7020 C   0  0  0  0  0  0  0  0  0  0  0  0
   27.5010    6.4410   33.9600 C   0  0  0  0  0  0  0  0  0  0  0  0
   27.1550    7.5980   33.7390 O   0  0  0  0  0  0  0  0  0  0  0  0
   27.6110    5.8630   35.3420 C   0  0  0  0  0  0  0  0  0  0  0  0
   28.1550    6.8620   36.3530 C   0  0  0  0  0  0  0  0  0  0  0  0
   28.1170    6.2850   37.7750 C   0  0  1  0  0  0  0  0  0  0  0  0
   29.0640    5.0850   37.7090 C   0  0  0  0  0  0  0  0  0  0  0  0
   28.5830    3.9800   37.6250 O   0  0  0  0  0  0  0  0  0  0  0  0
   30.3780    5.2470   37.7380 N   0  0  0  0  0  0  0  0  0  0  0  0
   31.2170    4.0640   37.7240 C   0  0  1  0  0  0  0  0  0  0  0  0
   32.3310    4.1370   36.6350 C   0  0  0  0  0  0  0  0  0  0  0  0
   31.7200    3.9290   35.2230 C   0  0  0  0  0  0  0  0  0  0  0  0
   33.3100    2.9780   36.8280 C   0  0  0  0  0  0  0  0  0  0  0  0
   31.8460    4.1150   39.1090 C   0  0  0  0  0  0  0  0  0  0  0  0
   31.5600    3.1610   39.9820 N   0  0  0  0  0  0  0  0  0  0  0  0
   31.9630    3.2470   41.3930 C   0  0  1  0  0  0  0  0  0  0  0  0
   30.7430    2.6800   42.1440 C   0  0  0  0  0  0  0  0  0  0  0  0
   30.8610    2.5490   43.6250 C   0  0  0  0  0  0  0  0  0  0  0  0
   30.4170    3.5690   44.4520 C   0  0  0  0  0  0  0  0  0  0  0  0
   30.5330    3.4920   45.8270 C   0  0  0  0  0  0  0  0  0  0  0  0
   31.0570    2.3450   46.4130 C   0  0  0  0  0  0  0  0  0  0  0  0
   31.4660    1.3070   45.5810 C   0  0  0  0  0  0  0  0  0  0  0  0
   31.9700    0.1660   46.1170 O   0  0  0  0  0  0  0  0  0  0  0  0
   31.3840    1.4030   44.2120 C   0  0  0  0  0  0  0  0  0  0  0  0
   33.2660    2.4810   41.7130 C   0  0  0  0  0  0  0  0  0  0  0  0
   33.4490    1.3730   41.2290 O   0  0  0  0  0  0  0  0  0  0  0  0
   34.1880    3.0900   42.5230 N   0  0  0  0  0  0  0  0  0  0  0  0
   35.3090    2.3480   43.1220 C   0  0  0  0  0  0  0  0  0  0  0  0
   35.2830    2.2460   44.6610 C   0  0  0  0  0  0  0  0  0  0  0  0
   34.9370    3.5910   45.2810 C   0  0  0  0  0  0  0  0  0  0  0  0
   33.7100    4.2440   44.6230 C   0  0  2  0  0  0  0  0  0  0  0  0
   33.8650    4.3080   43.1460 N   0  3  0  0  0  0  0  0  0  0  0  0
   33.5610    5.6340   45.1930 C   0  0  0  0  0  0  0  0  0  0  0  0
   34.0120    6.6090   44.6210 O   0  0  0  0  0  0  0  0  0  0  0  0
   32.9140    5.6220   46.3470 O   0  0  0  0  0  0  0  0  0  0  0  0
   32.6740    6.8870   46.9970 C   0  0  1  0  0  0  0  0  0  0  0  0
   31.2590    7.4410   46.6930 C   0  0  0  0  0  0  0  0  0  0  0  0
   31.0630    7.8560   45.2470 C   0  0  0  0  0  0  0  0  0  0  0  0
   29.9400    7.6140   44.6150 C   0  0  0  0  0  0  0  0  0  0  0  0
   29.7820    7.9770   43.3570 C   0  0  0  0  0  0  0  0  0  0  0  0
   28.6440    7.7250   42.7490 C   0  0  0  0  0  0  0  0  0  0  0  0
   28.5040    8.1460   41.2680 C   0  0  2  0  0  0  0  0  0  0  0  0
   27.4510    9.0860   41.0550 O   0  0  0  0  0  0  0  0  0  0  0  0
   28.3590    6.9060   40.3600 C   0  0  2  0  0  0  0  0  0  0  0  0
   29.4970    5.9620   40.7650 C   0  0  0  0  0  0  0  0  0  0  0  0
   28.5660    7.3500   38.8600 C   0  0  1  0  0  0  0  0  0  0  0  0
   29.9420    7.6940   38.6310 O   0  0  0  0  0  0  0  0  0  0  0  0
   32.8100    6.6060   48.4680 C   0  0  0  0  0  0  0  0  0  0  0  0
   32.3610    5.2380   48.9290 C   0  0  0  0  0  0  0  0  0  0  0  0
   33.2320    7.4770   49.3040 C   0  0  0  0  0  0  0  0  0  0  0  0
   33.2950    7.0770   50.7500 C   0  0  0  0  0  0  0  0  0  0  0  0
   33.8500    8.1390   51.4440 O   0  0  0  0  0  0  0  0  0  0  0  0
   32.6290    5.0190   39.4130 O   0  0  0  0  0  0  0  0  0  0  0  0
   28.1365    4.6150   32.9891 H   0  0  0  0  0  0  0  0  0  0  0  0
   28.6654    6.1207   32.1648 H   0  0  0  0  0  0  0  0  0  0  0  0
   26.9541    5.5868   32.0489 H   0  0  0  0  0  0  0  0  0  0  0  0
   28.2848    4.9942   35.3078 H   0  0  0  0  0  0  0  0  0  0  0  0
   26.6118    5.5396   35.6691 H   0  0  0  0  0  0  0  0  0  0  0  0
   27.5438    7.7759   36.3197 H   0  0  0  0  0  0  0  0  0  0  0  0
   29.1952    7.1068   36.0923 H   0  0  0  0  0  0  0  0  0  0  0  0
   27.0988    5.9481   38.0192 H   0  0  0  0  0  0  0  0  0  0  0  0
   30.7814    6.1615   37.7688 H   0  0  0  0  0  0  0  0  0  0  0  0
   30.6183    3.1524   37.5805 H   0  0  0  0  0  0  0  0  0  0  0  0
   32.8512    5.1043   36.6955 H   0  0  0  0  0  0  0  0  0  0  0  0
   32.5172    3.9832   34.4670 H   0  0  0  0  0  0  0  0  0  0  0  0
   30.9746    4.7138   35.0267 H   0  0  0  0  0  0  0  0  0  0  0  0
   31.2354    2.9427   35.1748 H   0  0  0  0  0  0  0  0  0  0  0  0
   33.7854    3.0604   37.8165 H   0  0  0  0  0  0  0  0  0  0  0  0
   34.0822    3.0160   36.0455 H   0  0  0  0  0  0  0  0  0  0  0  0
   32.7666    2.0240   36.7609 H   0  0  0  0  0  0  0  0  0  0  0  0
   31.0537    2.3565   39.6714 H   0  0  0  0  0  0  0  0  0  0  0  0
   32.1154    4.3005   41.6701 H   0  0  0  0  0  0  0  0  0  0  0  0
   30.5390    1.6785   41.7374 H   0  0  0  0  0  0  0  0  0  0  0  0
   29.8887    3.3411   41.9363 H   0  0  0  0  0  0  0  0  0  0  0  0
   29.9671    4.4500   44.0087 H   0  0  0  0  0  0  0  0  0  0  0  0
   30.2165    4.3232   46.4467 H   0  0  0  0  0  0  0  0  0  0  0  0
   31.1447    2.2615   47.4902 H   0  0  0  0  0  0  0  0  0  0  0  0
   32.1992   -0.4361   45.4189 H   0  0  0  0  0  0  0  0  0  0  0  0
   31.7275    0.5843   43.5901 H   0  0  0  0  0  0  0  0  0  0  0  0
   36.2434    2.8496   42.8302 H   0  0  0  0  0  0  0  0  0  0  0  0
   35.2979    1.3268   42.7133 H   0  0  0  0  0  0  0  0  0  0  0  0
   36.2730    1.9270   45.0189 H   0  0  0  0  0  0  0  0  0  0  0  0
   34.5280    1.5046   44.9615 H   0  0  0  0  0  0  0  0  0  0  0  0
   35.7991    4.2646   45.1665 H   0  0  0  0  0  0  0  0  0  0  0  0
   34.7268    3.4429   46.3505 H   0  0  0  0  0  0  0  0  0  0  0  0
   32.8132    3.6529   44.8603 H   0  0  0  0  0  0  0  0  0  0  0  0
   32.9958    4.6367   42.7556 H   0  0  0  0  0  0  0  0  0  0  0  0
   34.5978    4.9682   42.9381 H   0  0  0  0  0  0  0  0  0  0  0  0
   33.4250    7.6236   46.6754 H   0  0  0  0  0  0  0  0  0  0  0  0
   31.0852    8.3189   47.3326 H   0  0  0  0  0  0  0  0  0  0  0  0
   30.5218    6.6607   46.9330 H   0  0  0  0  0  0  0  0  0  0  0  0
   31.8710    8.3650   44.7236 H   0  0  0  0  0  0  0  0  0  0  0  0
   29.1283    7.1073   45.1349 H   0  0  0  0  0  0  0  0  0  0  0  0
   30.5879    8.4815   42.8261 H   0  0  0  0  0  0  0  0  0  0  0  0
   27.8247    7.2346   43.2727 H   0  0  0  0  0  0  0  0  0  0  0  0
   29.4409    8.6487   40.9860 H   0  0  0  0  0  0  0  0  0  0  0  0
   27.4093    9.3095   40.1326 H   0  0  0  0  0  0  0  0  0  0  0  0
   27.3776    6.4267   40.4906 H   0  0  0  0  0  0  0  0  0  0  0  0
   29.4525    5.0499   40.1517 H   0  0  0  0  0  0  0  0  0  0  0  0
   29.3918    5.6953   41.8270 H   0  0  0  0  0  0  0  0  0  0  0  0
   30.4632    6.4634   40.6068 H   0  0  0  0  0  0  0  0  0  0  0  0
   27.9553    8.2515   38.7043 H   0  0  0  0  0  0  0  0  0  0  0  0
   30.1880    8.4099   39.2050 H   0  0  0  0  0  0  0  0  0  0  0  0
   32.5077    5.1509   50.0157 H   0  0  0  0  0  0  0  0  0  0  0  0
   32.9529    4.4656   48.4160 H   0  0  0  0  0  0  0  0  0  0  0  0
   31.2957    5.1021   48.6908 H   0  0  0  0  0  0  0  0  0  0  0  0
   33.5343    8.4715   48.9793 H   0  0  0  0  0  0  0  0  0  0  0  0
   33.9228    6.1813   50.8664 H   0  0  0  0  0  0  0  0  0  0  0  0
   32.2834    6.8674   51.1276 H   0  0  0  0  0  0  0  0  0  0  0  0
   33.3040    8.9084   51.3328 H   0  0  0  0  0  0  0  0  0  0  0  0
  1  2  1  0  0  0  0
  1 54  1  0  0  0  0
  1 55  1  0  0  0  0
  1 56  1  0  0  0  0
  2  3  2  0  0  0  0
  2  4  1  0  0  0  0
  4  5  1  0  0  0  0
  4 57  1  0  0  0  0
  4 58  1  0  0  0  0
  5  6  1  0  0  0  0
  5 59  1  0  0  0  0
  5 60  1  0  0  0  0
  6  7  1  0  0  0  0
  6 46  1  0  0  0  0
  6 61  1  1  0  0  0
  7  8  2  0  0  0  0
  7  9  1  0  0  0  0
  9 10  1  0  0  0  0
  9 62  1  0  0  0  0
 10 11  1  0  0  0  0
 10 14  1  0  0  0  0
 10 63  1  6  0  0  0
 11 12  1  0  0  0  0
 11 13  1  0  0  0  0
 11 64  1  0  0  0  0
 12 65  1  0  0  0  0
 12 66  1  0  0  0  0
 12 67  1  0  0  0  0
 13 68  1  0  0  0  0
 13 69  1  0  0  0  0
 13 70  1  0  0  0  0
 14 15  1  0  0  0  0
 14 53  2  0  0  0  0
 15 16  1  0  0  0  0
 15 71  1  0  0  0  0
 16 17  1  0  0  0  0
 16 25  1  0  0  0  0
 16 72  1  1  0  0  0
 17 18  1  0  0  0  0
 17 73  1  0  0  0  0
 17 74  1  0  0  0  0
 18 19  2  0  0  0  0
 18 24  1  0  0  0  0
 19 20  1  0  0  0  0
 19 75  1  0  0  0  0
 20 21  2  0  0  0  0
 20 76  1  0  0  0  0
 21 22  1  0  0  0  0
 21 77  1  0  0  0  0
 22 23  1  0  0  0  0
 22 24  2  0  0  0  0
 23 78  1  0  0  0  0
 24 79  1  0  0  0  0
 25 26  2  0  0  0  0
 25 27  1  0  0  0  0
 27 28  1  0  0  0  0
 27 32  1  0  0  0  0
 28 29  1  0  0  0  0
 28 80  1  0  0  0  0
 28 81  1  0  0  0  0
 29 30  1  0  0  0  0
 29 82  1  0  0  0  0
 29 83  1  0  0  0  0
 30 31  1  0  0  0  0
 30 84  1  0  0  0  0
 30 85  1  0  0  0  0
 31 32  1  0  0  0  0
 31 33  1  0  0  0  0
 31 86  1  1  0  0  0
 32 87  1  0  0  0  0
 32 88  1  0  0  0  0
 33 34  2  0  0  0  0
 33 35  1  0  0  0  0
 35 36  1  0  0  0  0
 36 37  1  0  0  0  0
 36 48  1  0  0  0  0
 36 89  1  6  0  0  0
 37 38  1  0  0  0  0
 37 90  1  0  0  0  0
 37 91  1  0  0  0  0
 38 39  2  0  0  0  0
 38 92  1  0  0  0  0
 39 40  1  0  0  0  0
 39 93  1  0  0  0  0
 40 41  2  0  0  0  0
 40 94  1  0  0  0  0
 41 42  1  0  0  0  0
 41 95  1  0  0  0  0
 42 43  1  0  0  0  0
 42 44  1  0  0  0  0
 42 96  1  6  0  0  0
 43 97  1  0  0  0  0
 44 45  1  0  0  0  0
 44 46  1  0  0  0  0
 44 98  1  1  0  0  0
 45 99  1  0  0  0  0
 45100  1  0  0  0  0
 45101  1  0  0  0  0
 46 47  1  0  0  0  0
 46102  1  6  0  0  0
 47103  1  0  0  0  0
 48 49  1  0  0  0  0
 48 50  2  0  0  0  0
 49104  1  0  0  0  0
 49105  1  0  0  0  0
 49106  1  0  0  0  0
 50 51  1  0  0  0  0
 50107  1  0  0  0  0
 51 52  1  0  0  0  0
 51108  1  0  0  0  0
 51109  1  0  0  0  0
 52110  1  0  0  0  0
M  CHG  1  32   1
M  END
