1nnb_ligand
 OpenBabel08222323343D

 36 36  0  0  1  0  0  0  0  0999 V2000
   24.0190   20.0630   65.6820 C   0  0  0  0  0  0  0  0  0  0  0  0
   24.6550   18.9790   64.8050 C   0  0  0  0  0  0  0  0  0  0  0  0
   24.2020   17.5460   64.5910 C   0  0  0  0  0  0  0  0  0  0  0  0
   24.7070   16.8560   63.3620 C   0  0  1  0  0  0  0  0  0  0  0  0
   26.2460   17.0260   63.5020 C   0  0  2  0  0  0  0  0  0  0  0  0
   26.6180   18.4840   63.2660 C   0  0  2  0  0  0  0  0  0  0  0  0
   28.0300   18.7620   63.8170 C   0  0  1  0  0  0  0  0  0  0  0  0
   28.3280   20.2690   63.4890 C   0  0  1  0  0  0  0  0  0  0  0  0
   29.8090   20.7070   63.8860 C   0  0  0  0  0  0  0  0  0  0  0  0
   27.4130   14.9770   62.5940 C   0  0  0  0  0  0  0  0  0  0  0  0
   28.0820   14.3340   61.3760 C   0  0  0  0  0  0  0  0  0  0  0  0
   27.0090   16.2420   62.5280 N   0  0  0  0  0  0  0  0  0  0  0  0
   24.6110   21.1830   65.6650 O   0  5  0  0  0  0  0  0  0  0  0  0
   22.7940   19.9580   65.9750 O   0  0  0  0  0  0  0  0  0  0  0  0
   24.2850   15.5240   63.0100 O   0  0  0  0  0  0  0  0  0  0  0  0
   25.7110   19.4370   63.9400 O   0  0  0  0  0  0  0  0  0  0  0  0
   28.1170   18.4490   65.2350 O   0  0  0  0  0  0  0  0  0  0  0  0
   28.1600   20.2920   62.0880 O   0  0  0  0  0  0  0  0  0  0  0  0
   30.7360   19.9700   63.0690 O   0  0  0  0  0  0  0  0  0  0  0  0
   27.4470   14.3400   63.6480 O   0  0  0  0  0  0  0  0  0  0  0  0
   23.5419   17.0443   65.2970 H   0  0  0  0  0  0  0  0  0  0  0  0
   24.3791   17.4700   62.5103 H   0  0  0  0  0  0  0  0  0  0  0  0
   26.5402   16.7235   64.5178 H   0  0  0  0  0  0  0  0  0  0  0  0
   26.5980   18.6752   62.1829 H   0  0  0  0  0  0  0  0  0  0  0  0
   28.7588   18.1308   63.2874 H   0  0  0  0  0  0  0  0  0  0  0  0
   27.6077   20.9315   63.9912 H   0  0  0  0  0  0  0  0  0  0  0  0
   29.9904   20.4832   64.9476 H   0  0  0  0  0  0  0  0  0  0  0  0
   29.9366   21.7856   63.7116 H   0  0  0  0  0  0  0  0  0  0  0  0
   28.3477   13.2927   61.6108 H   0  0  0  0  0  0  0  0  0  0  0  0
   28.9922   14.8955   61.1185 H   0  0  0  0  0  0  0  0  0  0  0  0
   27.3868   14.3518   60.5238 H   0  0  0  0  0  0  0  0  0  0  0  0
   27.2629   16.7288   61.6922 H   0  0  0  0  0  0  0  0  0  0  0  0
   23.3377   15.5003   62.9436 H   0  0  0  0  0  0  0  0  0  0  0  0
   27.4870   18.9749   65.7135 H   0  0  0  0  0  0  0  0  0  0  0  0
   28.3175   21.1716   61.7657 H   0  0  0  0  0  0  0  0  0  0  0  0
   30.5737   20.1647   62.1534 H   0  0  0  0  0  0  0  0  0  0  0  0
  1 13  1  0  0  0  0
  1 14  2  0  0  0  0
  2  1  1  0  0  0  0
  3  2  2  0  0  0  0
  3 21  1  0  0  0  0
  4  3  1  0  0  0  0
  4 15  1  0  0  0  0
  4 22  1  6  0  0  0
  5  4  1  0  0  0  0
  5  6  1  0  0  0  0
  5 23  1  1  0  0  0
  6  7  1  0  0  0  0
  6 16  1  0  0  0  0
  6 24  1  6  0  0  0
  7  8  1  0  0  0  0
  7 17  1  0  0  0  0
  7 25  1  6  0  0  0
  8  9  1  0  0  0  0
  8 18  1  0  0  0  0
  8 26  1  1  0  0  0
  9 19  1  0  0  0  0
  9 27  1  0  0  0  0
  9 28  1  0  0  0  0
 10 11  1  0  0  0  0
 10 12  1  0  0  0  0
 10 20  2  0  0  0  0
 11 29  1  0  0  0  0
 11 30  1  0  0  0  0
 11 31  1  0  0  0  0
 12  5  1  0  0  0  0
 12 32  1  0  0  0  0
 15 33  1  0  0  0  0
 16  2  1  0  0  0  0
 17 34  1  0  0  0  0
 18 35  1  0  0  0  0
 19 36  1  0  0  0  0
M  CHG  1  13  -1
M  END
