1nnk_ligand
 OpenBabel08222323343D

 32 32  0  0  1  0  0  0  0  0999 V2000
   46.7080   12.6030   23.0670 C   0  0  0  0  0  0  0  0  0  0  0  0
   46.9580   13.8820   22.2800 C   0  0  0  0  0  0  0  0  0  0  0  0
   48.2890   14.5440   22.5000 C   0  0  0  0  0  0  0  0  0  0  0  0
   48.9800   14.9760   23.5960 C   0  0  0  0  0  0  0  0  0  0  0  0
   50.1910   15.6020   23.0880 C   0  0  0  0  0  0  0  0  0  0  0  0
   51.0840   16.1690   23.8090 O   0  0  0  0  0  0  0  0  0  0  0  0
   50.2520   15.5050   21.7490 N   0  0  0  0  0  0  0  0  0  0  0  0
   49.0160   14.8080   21.3580 O   0  0  0  0  0  0  0  0  0  0  0  0
   48.7770   14.9510   25.0720 C   0  0  0  0  0  0  0  0  0  0  0  0
   49.6540   13.8480   25.7050 C   0  0  1  0  0  0  0  0  0  0  0  0
   49.7480   14.1220   27.2180 C   0  0  0  0  0  0  0  0  0  0  0  0
   50.2260   15.2470   27.5410 O   0  5  0  0  0  0  0  0  0  0  0  0
   49.3940   13.2180   28.0080 O   0  0  0  0  0  0  0  0  0  0  0  0
   49.1210   12.4700   25.4670 N   0  3  0  0  0  0  0  0  0  0  0  0
   46.7330   13.5740   20.7940 C   0  0  0  0  0  0  0  0  0  0  0  0
   45.9030   14.9200   22.6680 C   0  0  0  0  0  0  0  0  0  0  0  0
   45.7084   12.2130   22.8249 H   0  0  0  0  0  0  0  0  0  0  0  0
   46.7667   12.8179   24.1442 H   0  0  0  0  0  0  0  0  0  0  0  0
   47.4682   11.8540   22.8005 H   0  0  0  0  0  0  0  0  0  0  0  0
   50.9800   15.8351   21.1481 H   0  0  0  0  0  0  0  0  0  0  0  0
   47.7187   14.7460   25.2912 H   0  0  0  0  0  0  0  0  0  0  0  0
   49.0568   15.9270   25.4952 H   0  0  0  0  0  0  0  0  0  0  0  0
   50.6605   13.9066   25.2651 H   0  0  0  0  0  0  0  0  0  0  0  0
   49.7307   11.7944   25.9005 H   0  0  0  0  0  0  0  0  0  0  0  0
   49.0754   12.2939   24.4756 H   0  0  0  0  0  0  0  0  0  0  0  0
   48.1979   12.3934   25.8647 H   0  0  0  0  0  0  0  0  0  0  0  0
   46.9075   14.4836   20.2005 H   0  0  0  0  0  0  0  0  0  0  0  0
   45.6989   13.2306   20.6432 H   0  0  0  0  0  0  0  0  0  0  0  0
   47.4313   12.7871   20.4728 H   0  0  0  0  0  0  0  0  0  0  0  0
   46.0178   15.1799   23.7307 H   0  0  0  0  0  0  0  0  0  0  0  0
   44.8991   14.5034   22.4988 H   0  0  0  0  0  0  0  0  0  0  0  0
   46.0336   15.8230   22.0536 H   0  0  0  0  0  0  0  0  0  0  0  0
  1  2  1  0  0  0  0
  1 17  1  0  0  0  0
  1 18  1  0  0  0  0
  1 19  1  0  0  0  0
  2  3  1  0  0  0  0
  2 15  1  0  0  0  0
  2 16  1  0  0  0  0
  3  4  2  0  0  0  0
  3  8  1  0  0  0  0
  4  5  1  0  0  0  0
  4  9  1  0  0  0  0
  5  6  2  0  0  0  0
  5  7  1  0  0  0  0
  7  8  1  0  0  0  0
  7 20  1  0  0  0  0
  9 10  1  0  0  0  0
  9 21  1  0  0  0  0
  9 22  1  0  0  0  0
 10 11  1  0  0  0  0
 10 14  1  0  0  0  0
 10 23  1  6  0  0  0
 11 12  1  0  0  0  0
 11 13  2  0  0  0  0
 14 24  1  0  0  0  0
 14 25  1  0  0  0  0
 14 26  1  0  0  0  0
 15 27  1  0  0  0  0
 15 28  1  0  0  0  0
 15 29  1  0  0  0  0
 16 30  1  0  0  0  0
 16 31  1  0  0  0  0
 16 32  1  0  0  0  0
M  CHG  2  12  -1  14   1
M  END
