1noi_ligand
 OpenBabel08222323343D

 24 25  0  0  1  0  0  0  0  0999 V2000
   44.7298    3.3930   18.4092 H   0  0  0  0  0  0  0  0  0  0  0  0
   43.0262    3.0539   20.9074 H   0  0  0  0  0  0  0  0  0  0  0  0
   44.1636    0.8839   19.0655 H   0  0  0  0  0  0  0  0  0  0  0  0
   44.3073    1.0971   22.1024 H   0  0  0  0  0  0  0  0  0  0  0  0
   44.6584   -1.1182   21.5372 H   0  0  0  0  0  0  0  0  0  0  0  0
   46.3153   -0.4358   21.6625 H   0  0  0  0  0  0  0  0  0  0  0  0
   43.3945    5.1177   19.0587 H   0  0  0  0  0  0  0  0  0  0  0  0
   42.0389    3.7274   18.9397 H   0  0  0  0  0  0  0  0  0  0  0  0
   42.2640    0.8085   21.2199 H   0  0  0  0  0  0  0  0  0  0  0  0
   46.2972   -0.2876   19.3441 H   0  0  0  0  0  0  0  0  0  0  0  0
   45.7870    3.1450   20.2780 C   0  0  0  0  0  0  0  0  0  0  0  0
   44.5270    3.5800   19.4740 C   0  0  1  0  0  0  0  0  0  0  0  0
   43.3610    2.7060   19.9190 C   0  0  2  0  0  0  0  0  0  0  0  0
   43.7660    1.2300   20.0310 C   0  0  1  0  0  0  0  0  0  0  0  0
   44.8010    0.9750   21.1270 C   0  0  1  0  0  0  0  0  0  0  0  0
   45.3810   -0.4250   21.0820 C   0  0  0  0  0  0  0  0  0  0  0  0
   45.8160    1.9690   21.0050 N   0  0  0  0  0  0  0  0  0  0  0  0
   47.0810    1.9990   21.5500 N   0  0  0  0  0  0  0  0  0  0  0  0
   47.7340    3.1270   21.1820 N   0  0  0  0  0  0  0  0  0  0  0  0
   46.9490    3.8420   20.3670 N   0  0  0  0  0  0  0  0  0  0  0  0
   44.1530    4.9450   19.6040 O   0  0  0  0  0  0  0  0  0  0  0  0
   42.2960    2.8160   19.0150 O   0  0  0  0  0  0  0  0  0  0  0  0
   42.5860    0.5030   20.3800 O   0  0  0  0  0  0  0  0  0  0  0  0
   45.6670   -0.8740   19.7460 O   0  0  0  0  0  0  0  0  0  0  0  0
 11 12  1  0  0  0  0
 11 20  2  0  0  0  0
 12  1  1  6  0  0  0
 12 21  1  0  0  0  0
 13  2  1  1  0  0  0
 13 12  1  0  0  0  0
 13 22  1  0  0  0  0
 14  3  1  6  0  0  0
 14 13  1  0  0  0  0
 14 23  1  0  0  0  0
 15  4  1  1  0  0  0
 15 14  1  0  0  0  0
 15 17  1  0  0  0  0
 16  5  1  0  0  0  0
 16  6  1  0  0  0  0
 16 15  1  0  0  0  0
 16 24  1  0  0  0  0
 17 11  1  0  0  0  0
 17 18  1  0  0  0  0
 18 19  2  0  0  0  0
 19 20  1  0  0  0  0
 21  7  1  0  0  0  0
 22  8  1  0  0  0  0
 23  9  1  0  0  0  0
 24 10  1  0  0  0  0
M  END
