1noj_ligand
 OpenBabel08222323343D

 24 25  0  0  1  0  0  0  0  0999 V2000
   35.0871   22.7274   25.5600 H   0  0  0  0  0  0  0  0  0  0  0  0
   32.0708   23.2750   25.7265 H   0  0  0  0  0  0  0  0  0  0  0  0
   33.5137   20.5912   25.5282 H   0  0  0  0  0  0  0  0  0  0  0  0
   31.4660   21.4917   27.6181 H   0  0  0  0  0  0  0  0  0  0  0  0
   31.4576   19.1703   27.6224 H   0  0  0  0  0  0  0  0  0  0  0  0
   32.6521   19.5802   28.8998 H   0  0  0  0  0  0  0  0  0  0  0  0
   34.3205   24.8065   24.9817 H   0  0  0  0  0  0  0  0  0  0  0  0
   33.2923   23.5785   23.7442 H   0  0  0  0  0  0  0  0  0  0  0  0
   30.7273   21.2152   25.4263 H   0  0  0  0  0  0  0  0  0  0  0  0
   34.2973   19.2346   27.3005 H   0  0  0  0  0  0  0  0  0  0  0  0
   34.2960   22.7680   27.5250 C   0  0  0  0  0  0  0  0  0  0  0  0
   34.2310   23.1820   26.0800 C   0  0  1  0  0  0  0  0  0  0  0  0
   32.9220   22.6430   25.4330 C   0  0  2  0  0  0  0  0  0  0  0  0
   32.6480   21.2010   25.8260 C   0  0  1  0  0  0  0  0  0  0  0  0
   32.4420   21.0550   27.3600 C   0  0  1  0  0  0  0  0  0  0  0  0
   32.4450   19.6130   27.8200 C   0  0  0  0  0  0  0  0  0  0  0  0
   33.4670   21.7860   28.0390 N   0  0  0  0  0  0  0  0  0  0  0  0
   33.8730   21.6990   29.3640 N   0  0  0  0  0  0  0  0  0  0  0  0
   34.9080   22.6060   29.6140 N   0  0  0  0  0  0  0  0  0  0  0  0
   35.1840   23.2940   28.4460 N   0  0  0  0  0  0  0  0  0  0  0  0
   34.3180   24.6000   25.9090 O   0  0  0  0  0  0  0  0  0  0  0  0
   33.1190   22.6840   24.0130 O   0  0  0  0  0  0  0  0  0  0  0  0
   31.4850   20.7110   25.1540 O   0  0  0  0  0  0  0  0  0  0  0  0
   33.4420   18.8580   27.1300 O   0  0  0  0  0  0  0  0  0  0  0  0
 11 12  1  0  0  0  0
 11 20  2  0  0  0  0
 12  1  1  6  0  0  0
 12 21  1  0  0  0  0
 13  2  1  1  0  0  0
 13 12  1  0  0  0  0
 13 22  1  0  0  0  0
 14  3  1  6  0  0  0
 14 13  1  0  0  0  0
 14 23  1  0  0  0  0
 15  4  1  1  0  0  0
 15 14  1  0  0  0  0
 15 17  1  0  0  0  0
 16  5  1  0  0  0  0
 16  6  1  0  0  0  0
 16 15  1  0  0  0  0
 16 24  1  0  0  0  0
 17 11  1  0  0  0  0
 17 18  1  0  0  0  0
 18 19  2  0  0  0  0
 19 20  1  0  0  0  0
 21  7  1  0  0  0  0
 22  8  1  0  0  0  0
 23  9  1  0  0  0  0
 24 10  1  0  0  0  0
M  END
