1nok_ligand
 OpenBabel08222323343D

 24 25  0  0  1  0  0  0  0  0999 V2000
   35.0326   22.6361   25.5929 H   0  0  0  0  0  0  0  0  0  0  0  0
   32.0622   23.2102   25.8598 H   0  0  0  0  0  0  0  0  0  0  0  0
   33.4779   20.4923   25.6921 H   0  0  0  0  0  0  0  0  0  0  0  0
   31.3486   21.5280   27.6655 H   0  0  0  0  0  0  0  0  0  0  0  0
   31.1877   19.1427   27.6908 H   0  0  0  0  0  0  0  0  0  0  0  0
   32.1719   19.6005   29.1221 H   0  0  0  0  0  0  0  0  0  0  0  0
   34.2946   24.7295   25.0274 H   0  0  0  0  0  0  0  0  0  0  0  0
   33.1148   23.4766   23.8007 H   0  0  0  0  0  0  0  0  0  0  0  0
   30.7424   21.2350   25.3719 H   0  0  0  0  0  0  0  0  0  0  0  0
   34.0583   19.0758   27.8395 H   0  0  0  0  0  0  0  0  0  0  0  0
   34.2220   22.6130   27.5810 C   0  0  0  0  0  0  0  0  0  0  0  0
   34.1850   23.0950   26.1230 C   0  0  1  0  0  0  0  0  0  0  0  0
   32.8880   22.5700   25.5160 C   0  0  2  0  0  0  0  0  0  0  0  0
   32.6040   21.1180   25.9260 C   0  0  1  0  0  0  0  0  0  0  0  0
   32.2920   20.9990   27.4650 C   0  0  1  0  0  0  0  0  0  0  0  0
   32.1480   19.5640   28.0230 C   0  0  0  0  0  0  0  0  0  0  0  0
   33.3500   21.6550   28.1260 N   0  0  0  0  0  0  0  0  0  0  0  0
   33.7280   21.5170   29.4530 N   0  0  0  0  0  0  0  0  0  0  0  0
   34.8110   22.3620   29.6840 N   0  0  0  0  0  0  0  0  0  0  0  0
   35.1390   23.0620   28.5180 N   0  0  0  0  0  0  0  0  0  0  0  0
   34.3020   24.5200   25.9540 O   0  0  0  0  0  0  0  0  0  0  0  0
   32.9400   22.5910   24.0970 O   0  0  0  0  0  0  0  0  0  0  0  0
   31.4940   20.6920   25.1650 O   0  0  0  0  0  0  0  0  0  0  0  0
   33.2270   18.7170   27.5520 O   0  0  0  0  0  0  0  0  0  0  0  0
 11 12  1  0  0  0  0
 11 20  2  0  0  0  0
 12  1  1  6  0  0  0
 12 21  1  0  0  0  0
 13  2  1  1  0  0  0
 13 12  1  0  0  0  0
 13 22  1  0  0  0  0
 14  3  1  6  0  0  0
 14 13  1  0  0  0  0
 14 23  1  0  0  0  0
 15  4  1  1  0  0  0
 15 14  1  0  0  0  0
 15 17  1  0  0  0  0
 16  5  1  0  0  0  0
 16  6  1  0  0  0  0
 16 15  1  0  0  0  0
 16 24  1  0  0  0  0
 17 11  1  0  0  0  0
 17 18  1  0  0  0  0
 18 19  2  0  0  0  0
 19 20  1  0  0  0  0
 21  7  1  0  0  0  0
 22  8  1  0  0  0  0
 23  9  1  0  0  0  0
 24 10  1  0  0  0  0
M  END
