1npw_ligand
 OpenBabel08222323343D

 85 90  0  0  1  0  0  0  0  0999 V2000
   16.3590   20.2300    4.8580 O   0  0  0  0  0  0  0  0  0  0  0  0
   15.2890   20.8480    5.2260 C   0  0  0  0  0  0  0  0  0  0  0  0
   14.2150   20.3330    5.1510 O   0  0  0  0  0  0  0  0  0  0  0  0
   15.5800   22.1280    5.6740 N   0  0  0  0  0  0  0  0  0  0  0  0
   14.6830   23.1010    6.3600 C   0  0  2  0  0  0  0  0  0  0  0  0
   13.9690   24.0870    5.4140 C   0  0  1  0  0  0  0  0  0  0  0  0
   14.9650   24.8220    4.6790 O   0  0  0  0  0  0  0  0  0  0  0  0
   13.2080   23.3510    4.2340 C   0  0  0  0  0  0  0  0  0  0  0  0
   11.9120   24.1240    3.8330 C   0  0  1  0  0  0  0  0  0  0  0  0
   11.2700   23.5450    2.5540 C   0  0  0  0  0  0  0  0  0  0  0  0
    9.8450   24.0490    2.3930 C   0  0  0  0  0  0  0  0  0  0  0  0
    9.6550   25.2680    1.7570 C   0  0  0  0  0  0  0  0  0  0  0  0
    8.4140   25.7910    1.5750 C   0  0  0  0  0  0  0  0  0  0  0  0
    7.3390   25.1140    2.0520 C   0  0  0  0  0  0  0  0  0  0  0  0
    7.5240   23.8880    2.6860 C   0  0  0  0  0  0  0  0  0  0  0  0
    8.7640   23.3480    2.8700 C   0  0  0  0  0  0  0  0  0  0  0  0
   10.9040   23.9890    4.9990 C   0  0  0  0  0  0  0  0  0  0  0  0
   10.5420   22.9290    5.4510 O   0  0  0  0  0  0  0  0  0  0  0  0
    9.5250   25.5000    6.5350 C   0  0  2  0  0  0  0  0  0  0  0  0
    8.1890   26.1200    6.0240 C   0  0  2  0  0  0  0  0  0  0  0  0
    8.5760   27.2840    5.2550 O   0  0  0  0  0  0  0  0  0  0  0  0
    7.4440   26.6540    7.2600 C   0  0  0  0  0  0  0  0  0  0  0  0
    8.6370   27.1610    8.0100 C   0  0  0  0  0  0  0  0  0  0  0  0
    8.6320   28.1110    9.0310 C   0  0  0  0  0  0  0  0  0  0  0  0
    9.8220   28.3700    9.6880 C   0  0  0  0  0  0  0  0  0  0  0  0
   11.0070   27.7100    9.3180 C   0  0  0  0  0  0  0  0  0  0  0  0
   11.0110   26.7750    8.2760 C   0  0  0  0  0  0  0  0  0  0  0  0
    9.8170   26.5070    7.6230 C   0  0  0  0  0  0  0  0  0  0  0  0
   12.1730   25.5640    3.8210 N   0  0  0  0  0  0  0  0  0  0  0  0
   11.2700   26.1570    4.7970 C   0  0  0  0  0  0  0  0  0  0  0  0
   10.5560   25.2870    5.4780 C   0  0  0  0  0  0  0  0  0  0  0  0
   15.4810   23.7500    7.4900 C   0  0  0  0  0  0  0  0  0  0  0  0
   16.0460   22.6460    8.4050 C   0  0  0  0  0  0  0  0  0  0  0  0
   15.1370   21.8960    9.1690 C   0  0  0  0  0  0  0  0  0  0  0  0
   15.5790   20.7920    9.9160 C   0  0  0  0  0  0  0  0  0  0  0  0
   16.9330   20.4340    9.9640 C   0  0  0  0  0  0  0  0  0  0  0  0
   17.8570   21.2140    9.2590 C   0  0  0  0  0  0  0  0  0  0  0  0
   17.4120   22.3100    8.4810 C   0  0  0  0  0  0  0  0  0  0  0  0
   16.3970   19.1880    3.9240 C   0  0  2  0  0  0  0  0  0  0  0  0
   17.5580   18.2690    3.8740 C   0  0  0  0  0  0  0  0  0  0  0  0
   17.8440   18.4280    2.5150 O   0  0  0  0  0  0  0  0  0  0  0  0
   16.6140   18.4100    1.7530 C   0  0  0  0  0  0  0  0  0  0  0  0
   15.5140   18.8350    2.7580 C   0  0  0  0  0  0  0  0  0  0  0  0
    7.8180   27.9180    4.3650 C   0  0  0  0  0  0  0  0  0  0  0  0
    6.5480   27.5570    4.3160 N   0  0  0  0  0  0  0  0  0  0  0  0
    8.2490   28.8630    3.7620 O   0  0  0  0  0  0  0  0  0  0  0  0
   16.5169   22.4398    5.5156 H   0  0  0  0  0  0  0  0  0  0  0  0
   13.8806   22.5165    6.8338 H   0  0  0  0  0  0  0  0  0  0  0  0
   13.2964   24.7434    5.9857 H   0  0  0  0  0  0  0  0  0  0  0  0
   15.5176   25.2991    5.2868 H   0  0  0  0  0  0  0  0  0  0  0  0
   12.9349   22.3366    4.5601 H   0  0  0  0  0  0  0  0  0  0  0  0
   13.8739   23.2886    3.3607 H   0  0  0  0  0  0  0  0  0  0  0  0
   11.2594   22.4471    2.6204 H   0  0  0  0  0  0  0  0  0  0  0  0
   11.8631   23.8538    1.6806 H   0  0  0  0  0  0  0  0  0  0  0  0
   10.5178   25.8164    1.3966 H   0  0  0  0  0  0  0  0  0  0  0  0
    8.2848   26.7343    1.0568 H   0  0  0  0  0  0  0  0  0  0  0  0
    6.3422   25.5251    1.9402 H   0  0  0  0  0  0  0  0  0  0  0  0
    6.6565   23.3458    3.0444 H   0  0  0  0  0  0  0  0  0  0  0  0
    8.8916   22.3977    3.3757 H   0  0  0  0  0  0  0  0  0  0  0  0
    9.3385   24.5150    6.9877 H   0  0  0  0  0  0  0  0  0  0  0  0
    7.5852   25.4067    5.4438 H   0  0  0  0  0  0  0  0  0  0  0  0
    6.9149   25.8584    7.8051 H   0  0  0  0  0  0  0  0  0  0  0  0
    6.7370   27.4578    7.0069 H   0  0  0  0  0  0  0  0  0  0  0  0
    7.7211   28.6321    9.3024 H   0  0  0  0  0  0  0  0  0  0  0  0
    9.8408   29.0905   10.4977 H   0  0  0  0  0  0  0  0  0  0  0  0
   11.9285   27.9277    9.8458 H   0  0  0  0  0  0  0  0  0  0  0  0
   11.9264   26.2719    7.9861 H   0  0  0  0  0  0  0  0  0  0  0  0
   12.8607   26.0605    3.2367 H   0  0  0  0  0  0  0  0  0  0  0  0
   11.1921   27.2323    4.9506 H   0  0  0  0  0  0  0  0  0  0  0  0
   14.8233   24.4112    8.0732 H   0  0  0  0  0  0  0  0  0  0  0  0
   16.3091   24.3372    7.0664 H   0  0  0  0  0  0  0  0  0  0  0  0
   14.0885   22.1708    9.1822 H   0  0  0  0  0  0  0  0  0  0  0  0
   14.8559   20.2030   10.4684 H   0  0  0  0  0  0  0  0  0  0  0  0
   17.2578   19.5716   10.5348 H   0  0  0  0  0  0  0  0  0  0  0  0
   18.9140   20.9788    9.3087 H   0  0  0  0  0  0  0  0  0  0  0  0
   18.1363   22.9020    7.9333 H   0  0  0  0  0  0  0  0  0  0  0  0
   15.8122   18.5593    4.6115 H   0  0  0  0  0  0  0  0  0  0  0  0
   17.2864   17.2339    4.1283 H   0  0  0  0  0  0  0  0  0  0  0  0
   18.3849   18.6003    4.5194 H   0  0  0  0  0  0  0  0  0  0  0  0
   16.4141   17.4003    1.3651 H   0  0  0  0  0  0  0  0  0  0  0  0
   16.6677   19.1207    0.9151 H   0  0  0  0  0  0  0  0  0  0  0  0
   14.9371   19.7000    2.3989 H   0  0  0  0  0  0  0  0  0  0  0  0
   14.8274   18.0087    2.9940 H   0  0  0  0  0  0  0  0  0  0  0  0
    5.9277   27.9975    3.6670 H   0  0  0  0  0  0  0  0  0  0  0  0
    6.2071   26.8433    4.9279 H   0  0  0  0  0  0  0  0  0  0  0  0
  1 39  1  0  0  0  0
  2  1  1  0  0  0  0
  2  3  2  0  0  0  0
  4  2  1  0  0  0  0
  4 47  1  0  0  0  0
  5  4  1  0  0  0  0
  5 32  1  0  0  0  0
  5 48  1  1  0  0  0
  6  5  1  0  0  0  0
  6  7  1  0  0  0  0
  6 49  1  1  0  0  0
  7 50  1  0  0  0  0
  8  6  1  0  0  0  0
  8 51  1  0  0  0  0
  8 52  1  0  0  0  0
  9  8  1  1  0  0  0
  9 10  1  0  0  0  0
  9 29  1  0  0  0  0
 10 11  1  0  0  0  0
 10 53  1  0  0  0  0
 10 54  1  0  0  0  0
 11 12  2  0  0  0  0
 11 16  1  0  0  0  0
 12 13  1  0  0  0  0
 12 55  1  0  0  0  0
 13 14  2  0  0  0  0
 13 56  1  0  0  0  0
 14 57  1  0  0  0  0
 15 14  1  0  0  0  0
 15 58  1  0  0  0  0
 16 15  2  0  0  0  0
 16 59  1  0  0  0  0
 17  9  1  0  0  0  0
 17 18  2  0  0  0  0
 19 20  1  0  0  0  0
 19 28  1  0  0  0  0
 19 60  1  1  0  0  0
 20 21  1  0  0  0  0
 20 22  1  0  0  0  0
 20 61  1  6  0  0  0
 21 44  1  0  0  0  0
 22 23  1  0  0  0  0
 22 62  1  0  0  0  0
 22 63  1  0  0  0  0
 23 24  2  0  0  0  0
 23 28  1  0  0  0  0
 24 25  1  0  0  0  0
 24 64  1  0  0  0  0
 25 26  2  0  0  0  0
 25 65  1  0  0  0  0
 26 27  1  0  0  0  0
 26 66  1  0  0  0  0
 27 28  2  0  0  0  0
 27 67  1  0  0  0  0
 29 30  1  0  0  0  0
 29 68  1  0  0  0  0
 30 31  2  0  0  0  0
 30 69  1  0  0  0  0
 31 17  1  0  0  0  0
 31 19  1  0  0  0  0
 32 33  1  0  0  0  0
 32 70  1  0  0  0  0
 32 71  1  0  0  0  0
 33 34  2  0  0  0  0
 33 38  1  0  0  0  0
 34 35  1  0  0  0  0
 34 72  1  0  0  0  0
 35 36  2  0  0  0  0
 35 73  1  0  0  0  0
 36 37  1  0  0  0  0
 36 74  1  0  0  0  0
 37 38  2  0  0  0  0
 37 75  1  0  0  0  0
 38 76  1  0  0  0  0
 39 40  1  0  0  0  0
 39 43  1  0  0  0  0
 39 77  1  1  0  0  0
 40 41  1  0  0  0  0
 40 78  1  0  0  0  0
 40 79  1  0  0  0  0
 41 42  1  0  0  0  0
 42 43  1  0  0  0  0
 42 80  1  0  0  0  0
 42 81  1  0  0  0  0
 43 82  1  0  0  0  0
 43 83  1  0  0  0  0
 44 45  1  0  0  0  0
 44 46  2  0  0  0  0
 45 84  1  0  0  0  0
 45 85  1  0  0  0  0
M  END
