1npz_ligand
 OpenBabel08222323343D

 76 78  0  0  1  0  0  0  0  0999 V2000
  -16.4930   62.0140  -37.5710 N   0  0  0  0  0  0  0  0  0  0  0  0
  -16.6420   62.7380  -38.7250 C   0  0  0  0  0  0  0  0  0  0  0  0
  -16.5370   62.1810  -39.8420 O   0  0  0  0  0  0  0  0  0  0  0  0
  -16.9200   64.0970  -38.7740 N   0  0  0  0  0  0  0  0  0  0  0  0
  -17.0790   64.7780  -40.1390 C   0  0  0  0  0  0  0  0  0  0  0  0
  -18.2170   65.7750  -40.2120 C   0  0  0  0  0  0  0  0  0  0  0  0
  -18.2550   66.6370  -38.9710 O   0  0  0  0  0  0  0  0  0  0  0  0
  -18.3040   65.8650  -37.7270 C   0  0  0  0  0  0  0  0  0  0  0  0
  -17.0920   64.9570  -37.5810 C   0  0  0  0  0  0  0  0  0  0  0  0
  -16.2230   60.5470  -37.6660 C   0  0  2  0  0  0  0  0  0  0  0  0
  -17.4470   59.9310  -38.2680 C   0  0  0  0  0  0  0  0  0  0  0  0
  -18.5540   60.2540  -37.8750 O   0  0  0  0  0  0  0  0  0  0  0  0
  -17.2290   59.0180  -39.2350 N   0  0  0  0  0  0  0  0  0  0  0  0
  -18.3090   58.3240  -39.9410 C   0  0  2  0  0  0  0  0  0  0  0  0
  -18.2340   56.8300  -39.6600 C   0  0  0  0  0  0  0  0  0  0  0  0
  -16.9430   56.1570  -40.2360 C   0  0  0  0  0  0  0  0  0  0  0  0
  -17.4540   55.0100  -41.5650 S   0  0  0  0  0  0  0  0  0  0  0  0
  -18.3860   55.6760  -42.5810 O   0  0  0  0  0  0  0  0  0  0  0  0
  -18.0690   53.7060  -41.0800 O   0  0  0  0  0  0  0  0  0  0  0  0
  -16.0010   54.5810  -42.5120 C   0  0  0  0  0  0  0  0  0  0  0  0
  -16.0870   53.7960  -43.7000 C   0  0  0  0  0  0  0  0  0  0  0  0
  -14.8920   53.3950  -44.4000 C   0  0  0  0  0  0  0  0  0  0  0  0
  -13.6230   53.7940  -43.9470 C   0  0  0  0  0  0  0  0  0  0  0  0
  -13.5140   54.6010  -42.8170 C   0  0  0  0  0  0  0  0  0  0  0  0
  -14.6860   55.0130  -42.1070 C   0  0  0  0  0  0  0  0  0  0  0  0
  -18.1690   58.6900  -41.4480 C   0  0  0  0  0  0  0  0  0  0  0  0
  -18.4830   60.1570  -41.7160 C   0  0  0  0  0  0  0  0  0  0  0  0
  -18.3070   60.5880  -43.1490 C   0  0  0  0  0  0  0  0  0  0  0  0
  -19.3920   60.5140  -44.0800 C   0  0  0  0  0  0  0  0  0  0  0  0
  -19.2210   60.9160  -45.4440 C   0  0  0  0  0  0  0  0  0  0  0  0
  -17.9640   61.3970  -45.8840 C   0  0  0  0  0  0  0  0  0  0  0  0
  -16.8630   61.4840  -44.9610 C   0  0  0  0  0  0  0  0  0  0  0  0
  -17.0330   61.0790  -43.5930 C   0  0  0  0  0  0  0  0  0  0  0  0
  -16.0200   59.8570  -36.3220 C   0  0  0  0  0  0  0  0  0  0  0  0
  -15.0320   60.4900  -35.3810 C   0  0  0  0  0  0  0  0  0  0  0  0
  -13.8410   60.9920  -36.1610 C   0  0  0  0  0  0  0  0  0  0  0  0
  -14.6910   59.6010  -34.2800 C   0  0  0  0  0  0  0  0  0  0  0  0
  -16.5638   62.4604  -36.6790 H   0  0  0  0  0  0  0  0  0  0  0  0
  -17.2560   63.9980  -40.8941 H   0  0  0  0  0  0  0  0  0  0  0  0
  -16.1428   65.3070  -40.3707 H   0  0  0  0  0  0  0  0  0  0  0  0
  -19.1685   65.2305  -40.3022 H   0  0  0  0  0  0  0  0  0  0  0  0
  -18.0774   66.4179  -41.0936 H   0  0  0  0  0  0  0  0  0  0  0  0
  -19.2143   65.2475  -37.7261 H   0  0  0  0  0  0  0  0  0  0  0  0
  -18.3324   66.5614  -36.8760 H   0  0  0  0  0  0  0  0  0  0  0  0
  -16.1925   65.5772  -37.4531 H   0  0  0  0  0  0  0  0  0  0  0  0
  -17.2265   64.3189  -36.6951 H   0  0  0  0  0  0  0  0  0  0  0  0
  -15.3412   60.3780  -38.3015 H   0  0  0  0  0  0  0  0  0  0  0  0
  -16.2841   58.8038  -39.4827 H   0  0  0  0  0  0  0  0  0  0  0  0
  -19.2803   58.6913  -39.5782 H   0  0  0  0  0  0  0  0  0  0  0  0
  -19.1120   56.3450  -40.1116 H   0  0  0  0  0  0  0  0  0  0  0  0
  -18.2509   56.6781  -38.5707 H   0  0  0  0  0  0  0  0  0  0  0  0
  -16.4247   55.6009  -39.4410 H   0  0  0  0  0  0  0  0  0  0  0  0
  -16.2706   56.9260  -40.6439 H   0  0  0  0  0  0  0  0  0  0  0  0
  -17.0580   53.4988  -44.0793 H   0  0  0  0  0  0  0  0  0  0  0  0
  -14.9735   52.7777  -45.2873 H   0  0  0  0  0  0  0  0  0  0  0  0
  -12.7319   53.4748  -44.4753 H   0  0  0  0  0  0  0  0  0  0  0  0
  -12.5361   54.9186  -42.4736 H   0  0  0  0  0  0  0  0  0  0  0  0
  -14.5833   55.6638  -41.2462 H   0  0  0  0  0  0  0  0  0  0  0  0
  -18.8642   58.0670  -42.0299 H   0  0  0  0  0  0  0  0  0  0  0  0
  -17.1368   58.4846  -41.7680 H   0  0  0  0  0  0  0  0  0  0  0  0
  -17.8175   60.7696  -41.0900 H   0  0  0  0  0  0  0  0  0  0  0  0
  -19.5288   60.3414  -41.4290 H   0  0  0  0  0  0  0  0  0  0  0  0
  -20.3569   60.1484  -43.7478 H   0  0  0  0  0  0  0  0  0  0  0  0
  -20.0516   60.8522  -46.1376 H   0  0  0  0  0  0  0  0  0  0  0  0
  -17.8309   61.6998  -46.9163 H   0  0  0  0  0  0  0  0  0  0  0  0
  -15.9026   61.8562  -45.2990 H   0  0  0  0  0  0  0  0  0  0  0  0
  -16.2028   61.1439  -42.8990 H   0  0  0  0  0  0  0  0  0  0  0  0
  -15.6792   58.8305  -36.5222 H   0  0  0  0  0  0  0  0  0  0  0  0
  -16.9942   59.8271  -35.8120 H   0  0  0  0  0  0  0  0  0  0  0  0
  -15.5180   61.3701  -34.9346 H   0  0  0  0  0  0  0  0  0  0  0  0
  -13.1196   61.4545  -35.4713 H   0  0  0  0  0  0  0  0  0  0  0  0
  -14.1733   61.7377  -36.8982 H   0  0  0  0  0  0  0  0  0  0  0  0
  -13.3622   60.1496  -36.6817 H   0  0  0  0  0  0  0  0  0  0  0  0
  -15.6107   59.2831  -33.7671 H   0  0  0  0  0  0  0  0  0  0  0  0
  -14.0393   60.1305  -33.5695 H   0  0  0  0  0  0  0  0  0  0  0  0
  -14.1654   58.7175  -34.6714 H   0  0  0  0  0  0  0  0  0  0  0  0
  1  2  1  0  0  0  0
  1 10  1  0  0  0  0
  1 38  1  0  0  0  0
  2  3  2  0  0  0  0
  2  4  1  0  0  0  0
  4  5  1  0  0  0  0
  4  9  1  0  0  0  0
  5  6  1  0  0  0  0
  5 39  1  0  0  0  0
  5 40  1  0  0  0  0
  6  7  1  0  0  0  0
  6 41  1  0  0  0  0
  6 42  1  0  0  0  0
  7  8  1  0  0  0  0
  8  9  1  0  0  0  0
  8 43  1  0  0  0  0
  8 44  1  0  0  0  0
  9 45  1  0  0  0  0
  9 46  1  0  0  0  0
 10 11  1  0  0  0  0
 10 34  1  0  0  0  0
 10 47  1  6  0  0  0
 11 12  2  0  0  0  0
 11 13  1  0  0  0  0
 13 14  1  0  0  0  0
 13 48  1  0  0  0  0
 14 15  1  0  0  0  0
 14 26  1  0  0  0  0
 14 49  1  1  0  0  0
 15 16  1  0  0  0  0
 15 50  1  0  0  0  0
 15 51  1  0  0  0  0
 16 17  1  0  0  0  0
 16 52  1  0  0  0  0
 16 53  1  0  0  0  0
 17 18  2  0  0  0  0
 17 19  2  0  0  0  0
 17 20  1  0  0  0  0
 20 21  2  0  0  0  0
 20 25  1  0  0  0  0
 21 22  1  0  0  0  0
 21 54  1  0  0  0  0
 22 23  2  0  0  0  0
 22 55  1  0  0  0  0
 23 24  1  0  0  0  0
 23 56  1  0  0  0  0
 24 25  2  0  0  0  0
 24 57  1  0  0  0  0
 25 58  1  0  0  0  0
 26 27  1  0  0  0  0
 26 59  1  0  0  0  0
 26 60  1  0  0  0  0
 27 28  1  0  0  0  0
 27 61  1  0  0  0  0
 27 62  1  0  0  0  0
 28 29  2  0  0  0  0
 28 33  1  0  0  0  0
 29 30  1  0  0  0  0
 29 63  1  0  0  0  0
 30 31  2  0  0  0  0
 30 64  1  0  0  0  0
 31 32  1  0  0  0  0
 31 65  1  0  0  0  0
 32 33  2  0  0  0  0
 32 66  1  0  0  0  0
 33 67  1  0  0  0  0
 34 35  1  0  0  0  0
 34 68  1  0  0  0  0
 34 69  1  0  0  0  0
 35 36  1  0  0  0  0
 35 37  1  0  0  0  0
 35 70  1  0  0  0  0
 36 71  1  0  0  0  0
 36 72  1  0  0  0  0
 36 73  1  0  0  0  0
 37 74  1  0  0  0  0
 37 75  1  0  0  0  0
 37 76  1  0  0  0  0
M  END
