1ntk_ligand
 OpenBabel08222323343D

 76 77  0  0  1  0  0  0  0  0999 V2000
   56.7790   67.7760  141.0210 C   0  0  0  0  0  0  0  0  0  0  0  0
   59.1030   68.6200  141.0450 C   0  0  0  0  0  0  0  0  0  0  0  0
   59.6250   67.9830  139.9210 C   0  0  0  0  0  0  0  0  0  0  0  0
   61.8200   69.0310  140.2770 C   0  0  0  0  0  0  0  0  0  0  0  0
   66.3670   73.8050  143.0130 O   0  0  0  0  0  0  0  0  0  0  0  0
   61.3330   69.6870  141.3860 C   0  0  0  0  0  0  0  0  0  0  0  0
   59.9560   69.4780  141.7840 C   0  0  0  0  0  0  0  0  0  0  0  0
   62.0890   70.6050  142.2640 C   0  0  0  0  0  0  0  0  0  0  0  0
   64.1650   71.9330  142.7510 C   0  0  1  0  0  0  0  0  0  0  0  0
   68.6450   73.2180  146.6380 O   0  0  0  0  0  0  0  0  0  0  0  0
   62.0560   73.5710  142.6060 C   0  0  0  0  0  0  0  0  0  0  0  0
   65.4880   74.1040  143.7880 C   0  0  0  0  0  0  0  0  0  0  0  0
   65.5800   74.3110  145.2600 C   0  0  1  0  0  0  0  0  0  0  0  0
   66.2800   73.0770  145.9100 C   0  0  2  0  0  0  0  0  0  0  0  0
   60.9660   68.1820  139.5580 C   0  0  0  0  0  0  0  0  0  0  0  0
   57.8480   68.5510  141.5600 N   0  0  0  0  0  0  0  0  0  0  0  0
   63.3630   70.9060  142.0660 N   0  0  0  0  0  0  0  0  0  0  0  0
   56.9790   67.1230  140.0400 O   0  0  0  0  0  0  0  0  0  0  0  0
   59.4680   70.0210  142.7640 O   0  0  0  0  0  0  0  0  0  0  0  0
   61.4510   71.0620  143.1960 O   0  0  0  0  0  0  0  0  0  0  0  0
   63.5600   73.3640  142.4150 C   0  0  1  0  0  0  0  0  0  0  0  0
   64.1790   74.3210  143.3750 O   0  0  0  0  0  0  0  0  0  0  0  0
   65.1080   71.4050  144.8300 O   0  0  0  0  0  0  0  0  0  0  0  0
   65.1890   71.9250  146.2560 C   0  0  1  0  0  0  0  0  0  0  0  0
   65.7860   70.8390  147.1440 C   0  0  0  0  0  0  0  0  0  0  0  0
   63.9270   71.6550  144.2260 C   0  0  0  0  0  0  0  0  0  0  0  0
   66.5370   75.5310  145.5050 C   0  0  0  0  0  0  0  0  0  0  0  0
   66.0660   76.7850  144.7520 C   0  0  0  0  0  0  0  0  0  0  0  0
   64.6430   77.1810  145.2010 C   0  0  0  0  0  0  0  0  0  0  0  0
   62.8850   71.7440  144.8350 O   0  0  0  0  0  0  0  0  0  0  0  0
   66.4950   73.5990  147.2880 O   0  0  0  0  0  0  0  0  0  0  0  0
   64.5680   78.5550  145.8830 C   0  0  0  0  0  0  0  0  0  0  0  0
   64.2750   78.4350  147.3830 C   0  0  0  0  0  0  0  0  0  0  0  0
   65.4420   78.9440  148.2390 C   0  0  0  0  0  0  0  0  0  0  0  0
   67.9040   73.5640  147.5470 C   0  0  0  0  0  0  0  0  0  0  0  0
   68.4230   73.9620  148.8870 C   0  0  0  0  0  0  0  0  0  0  0  0
   69.8960   73.5670  148.9350 C   0  0  0  0  0  0  0  0  0  0  0  0
   68.1940   75.4740  149.0480 C   0  0  0  0  0  0  0  0  0  0  0  0
   55.7984   67.7791  141.4946 H   0  0  0  0  0  0  0  0  0  0  0  0
   58.9913   67.3296  139.3232 H   0  0  0  0  0  0  0  0  0  0  0  0
   62.8535   69.1696  139.9630 H   0  0  0  0  0  0  0  0  0  0  0  0
   65.2300   71.8759  142.4817 H   0  0  0  0  0  0  0  0  0  0  0  0
   61.7906   74.6034  142.3346 H   0  0  0  0  0  0  0  0  0  0  0  0
   61.7915   73.3889  143.6581 H   0  0  0  0  0  0  0  0  0  0  0  0
   61.5047   72.8696  141.9626 H   0  0  0  0  0  0  0  0  0  0  0  0
   64.5851   74.4817  145.6970 H   0  0  0  0  0  0  0  0  0  0  0  0
   67.1680   72.7204  145.3676 H   0  0  0  0  0  0  0  0  0  0  0  0
   60.9506   68.5649  138.5269 H   0  0  0  0  0  0  0  0  0  0  0  0
   61.4380   67.1886  139.5732 H   0  0  0  0  0  0  0  0  0  0  0  0
   57.6585   69.0865  142.3830 H   0  0  0  0  0  0  0  0  0  0  0  0
   63.8377   70.3713  141.3669 H   0  0  0  0  0  0  0  0  0  0  0  0
   63.8234   73.6157  141.3771 H   0  0  0  0  0  0  0  0  0  0  0  0
   64.2417   72.3058  146.6654 H   0  0  0  0  0  0  0  0  0  0  0  0
   65.0209   70.0780  147.3572 H   0  0  0  0  0  0  0  0  0  0  0  0
   66.1316   71.2859  148.0878 H   0  0  0  0  0  0  0  0  0  0  0  0
   66.6362   70.3694  146.6277 H   0  0  0  0  0  0  0  0  0  0  0  0
   67.5472   75.2664  145.1593 H   0  0  0  0  0  0  0  0  0  0  0  0
   66.5642   75.7517  146.5823 H   0  0  0  0  0  0  0  0  0  0  0  0
   66.0605   76.5781  143.6717 H   0  0  0  0  0  0  0  0  0  0  0  0
   66.7564   77.6149  144.9629 H   0  0  0  0  0  0  0  0  0  0  0  0
   64.2790   76.4221  145.9092 H   0  0  0  0  0  0  0  0  0  0  0  0
   63.9918   77.1978  144.3147 H   0  0  0  0  0  0  0  0  0  0  0  0
   63.7674   79.1431  145.4105 H   0  0  0  0  0  0  0  0  0  0  0  0
   65.5301   79.0712  145.7491 H   0  0  0  0  0  0  0  0  0  0  0  0
   64.0913   77.3779  147.6255 H   0  0  0  0  0  0  0  0  0  0  0  0
   63.3778   79.0264  147.6181 H   0  0  0  0  0  0  0  0  0  0  0  0
   65.1884   78.8391  149.3042 H   0  0  0  0  0  0  0  0  0  0  0  0
   65.6304   80.0032  148.0096 H   0  0  0  0  0  0  0  0  0  0  0  0
   66.3439   78.3547  148.0171 H   0  0  0  0  0  0  0  0  0  0  0  0
   67.8794   73.4292  149.6811 H   0  0  0  0  0  0  0  0  0  0  0  0
   70.3184   73.8448  149.9119 H   0  0  0  0  0  0  0  0  0  0  0  0
   70.4424   74.0910  148.1370 H   0  0  0  0  0  0  0  0  0  0  0  0
   69.9892   72.4805  148.7908 H   0  0  0  0  0  0  0  0  0  0  0  0
   67.1160   75.6883  149.0042 H   0  0  0  0  0  0  0  0  0  0  0  0
   68.7078   76.0111  148.2371 H   0  0  0  0  0  0  0  0  0  0  0  0
   68.5943   75.8043  150.0179 H   0  0  0  0  0  0  0  0  0  0  0  0
  1 18  2  0  0  0  0
  1 39  1  0  0  0  0
  2  3  2  0  0  0  0
  2 16  1  0  0  0  0
  3 40  1  0  0  0  0
  4 15  1  0  0  0  0
  4 41  1  0  0  0  0
  6  4  2  0  0  0  0
  6  7  1  0  0  0  0
  7  2  1  0  0  0  0
  7 19  2  0  0  0  0
  8  6  1  0  0  0  0
  8 20  2  0  0  0  0
  9 17  1  0  0  0  0
  9 21  1  0  0  0  0
  9 42  1  6  0  0  0
 11 43  1  0  0  0  0
 11 44  1  0  0  0  0
 11 45  1  0  0  0  0
 12  5  2  0  0  0  0
 12 22  1  0  0  0  0
 13 12  1  0  0  0  0
 13 27  1  0  0  0  0
 13 46  1  1  0  0  0
 14 13  1  0  0  0  0
 14 24  1  0  0  0  0
 14 47  1  6  0  0  0
 15  3  1  0  0  0  0
 15 48  1  0  0  0  0
 15 49  1  0  0  0  0
 16  1  1  0  0  0  0
 16 50  1  0  0  0  0
 17  8  1  0  0  0  0
 17 51  1  0  0  0  0
 21 11  1  0  0  0  0
 21 52  1  6  0  0  0
 22 21  1  0  0  0  0
 23 26  1  0  0  0  0
 24 23  1  0  0  0  0
 24 25  1  0  0  0  0
 24 53  1  1  0  0  0
 25 54  1  0  0  0  0
 25 55  1  0  0  0  0
 25 56  1  0  0  0  0
 26  9  1  0  0  0  0
 26 30  2  0  0  0  0
 27 28  1  0  0  0  0
 27 57  1  0  0  0  0
 27 58  1  0  0  0  0
 28 29  1  0  0  0  0
 28 59  1  0  0  0  0
 28 60  1  0  0  0  0
 29 32  1  0  0  0  0
 29 61  1  0  0  0  0
 29 62  1  0  0  0  0
 31 14  1  0  0  0  0
 31 35  1  0  0  0  0
 32 33  1  0  0  0  0
 32 63  1  0  0  0  0
 32 64  1  0  0  0  0
 33 34  1  0  0  0  0
 33 65  1  0  0  0  0
 33 66  1  0  0  0  0
 34 67  1  0  0  0  0
 34 68  1  0  0  0  0
 34 69  1  0  0  0  0
 35 10  2  0  0  0  0
 35 36  1  0  0  0  0
 36 37  1  0  0  0  0
 36 38  1  0  0  0  0
 36 70  1  0  0  0  0
 37 71  1  0  0  0  0
 37 72  1  0  0  0  0
 37 73  1  0  0  0  0
 38 74  1  0  0  0  0
 38 75  1  0  0  0  0
 38 76  1  0  0  0  0
M  END
