1ntv_ligand
 OpenBabel08222323343D

174176  0  0  1  0  0  0  0  0999 V2000
   -1.5320    1.3350   22.2420 N   0  3  0  0  0  0  0  0  0  0  0  0
   -0.2780    0.5540   22.0210 C   0  0  2  0  0  0  0  0  0  0  0  0
   -0.5870   -0.9300   21.8950 C   0  0  0  0  0  0  0  0  0  0  0  0
   -1.4280   -1.4650   22.6210 O   0  0  0  0  0  0  0  0  0  0  0  0
    0.6900    0.7760   23.1850 C   0  0  0  0  0  0  0  0  0  0  0  0
    1.2180    2.1990   23.2430 C   0  0  0  0  0  0  0  0  0  0  0  0
    0.5140    3.1500   22.9040 O   0  0  0  0  0  0  0  0  0  0  0  0
    2.4580    2.3510   23.6930 N   0  0  0  0  0  0  0  0  0  0  0  0
    0.0990   -1.6000   20.9760 N   0  0  0  0  0  0  0  0  0  0  0  0
   -0.1300   -3.0200   20.7760 C   0  0  2  0  0  0  0  0  0  0  0  0
    0.9770   -3.7230   20.0010 C   0  0  0  0  0  0  0  0  0  0  0  0
    1.7570   -3.0900   19.2770 O   0  0  0  0  0  0  0  0  0  0  0  0
   -1.4740   -3.2270   20.0740 C   0  0  0  0  0  0  0  0  0  0  0  0
   -1.5960   -2.4940   18.7670 C   0  0  0  0  0  0  0  0  0  0  0  0
   -1.1160   -3.0560   17.5910 C   0  0  0  0  0  0  0  0  0  0  0  0
   -2.1850   -1.2360   18.7180 C   0  0  0  0  0  0  0  0  0  0  0  0
   -1.2220   -2.3740   16.3790 C   0  0  0  0  0  0  0  0  0  0  0  0
   -2.2950   -0.5440   17.5120 C   0  0  0  0  0  0  0  0  0  0  0  0
   -1.8130   -1.1170   16.3410 C   0  0  0  0  0  0  0  0  0  0  0  0
    1.0370   -5.0390   20.1850 N   0  0  0  0  0  0  0  0  0  0  0  0
    2.0090   -5.8970   19.5260 C   0  0  2  0  0  0  0  0  0  0  0  0
    1.4170   -6.3780   18.2040 C   0  0  0  0  0  0  0  0  0  0  0  0
    0.2080   -6.5920   18.0930 O   0  0  0  0  0  0  0  0  0  0  0  0
    2.3180   -7.1100   20.4110 C   0  0  0  0  0  0  0  0  0  0  0  0
    2.9670   -6.7260   21.7300 C   0  0  0  0  0  0  0  0  0  0  0  0
    4.1830   -6.4550   21.7410 O   0  5  0  0  0  0  0  0  0  0  0  0
    2.2620   -6.6900   22.7600 O   0  0  0  0  0  0  0  0  0  0  0  0
    2.2650   -6.5350   17.1960 N   0  0  0  0  0  0  0  0  0  0  0  0
    1.8030   -7.0130   15.9030 C   0  0  2  0  0  0  0  0  0  0  0  0
    1.8010   -8.5360   15.9330 C   0  0  0  0  0  0  0  0  0  0  0  0
    2.8530   -9.1580   16.0520 O   0  0  0  0  0  0  0  0  0  0  0  0
    2.7300   -6.5190   14.7910 C   0  0  0  0  0  0  0  0  0  0  0  0
    2.3840   -7.1140   13.4420 C   0  0  0  0  0  0  0  0  0  0  0  0
    1.3700   -7.7930   13.2900 O   0  0  0  0  0  0  0  0  0  0  0  0
    3.2290   -6.8590   12.4490 N   0  0  0  0  0  0  0  0  0  0  0  0
    0.6140   -9.1550   15.8260 N   0  0  0  0  0  0  0  0  0  0  0  0
    0.4990  -10.6160   15.8440 C   0  0  2  0  0  0  0  0  0  0  0  0
    1.2400  -11.3350   14.7180 C   0  0  0  0  0  0  0  0  0  0  0  0
    1.5220  -12.5300   14.8180 O   0  0  0  0  0  0  0  0  0  0  0  0
   -1.0140  -10.8420   15.7780 C   0  0  0  0  0  0  0  0  0  0  0  0
   -1.4960   -9.6540   15.0040 C   0  0  0  0  0  0  0  0  0  0  0  0
   -0.7070   -8.5320   15.6300 C   0  0  0  0  0  0  0  0  0  0  0  0
    1.5690  -10.6050   13.6560 N   0  0  0  0  0  0  0  0  0  0  0  0
    2.2470  -11.2000   12.5110 C   0  0  2  0  0  0  0  0  0  0  0  0
    3.7480  -10.9110   12.4570 C   0  0  0  0  0  0  0  0  0  0  0  0
    4.4230  -11.2780   11.4920 O   0  0  0  0  0  0  0  0  0  0  0  0
    1.5950  -10.7220   11.1910 C   0  0  0  0  0  0  0  0  0  0  0  0
    1.9750  -11.6490   10.0540 C   0  0  0  0  0  0  0  0  0  0  0  0
    0.0840  -10.6700   11.3480 C   0  0  0  0  0  0  0  0  0  0  0  0
    4.2710  -10.2630   13.4920 N   0  0  0  0  0  0  0  0  0  0  0  0
    5.6950   -9.9420   13.5480 C   0  0  2  0  0  0  0  0  0  0  0  0
    6.5380  -11.2120   13.5770 C   0  0  0  0  0  0  0  0  0  0  0  0
    6.1750  -12.1880   14.2360 O   0  0  0  0  0  0  0  0  0  0  0  0
    6.0060   -9.1020   14.7910 C   0  0  0  0  0  0  0  0  0  0  0  0
    7.4860   -8.8400   14.9930 C   0  0  0  0  0  0  0  0  0  0  0  0
    8.2190   -8.1030   14.0610 C   0  0  0  0  0  0  0  0  0  0  0  0
    8.1550   -9.3400   16.1100 C   0  0  0  0  0  0  0  0  0  0  0  0
    9.5800   -7.8720   14.2370 C   0  0  0  0  0  0  0  0  0  0  0  0
    9.5160   -9.1160   16.2950 C   0  0  0  0  0  0  0  0  0  0  0  0
   10.2220   -8.3810   15.3560 C   0  0  0  0  0  0  0  0  0  0  0  0
   11.5650   -8.1460   15.5390 O   0  0  0  0  0  0  0  0  0  0  0  0
    7.6550  -11.1880   12.8540 N   0  0  0  0  0  0  0  0  0  0  0  0
    8.5920  -12.3120   12.7830 C   0  0  2  0  0  0  0  0  0  0  0  0
    9.9350  -11.8210   13.3260 C   0  0  0  0  0  0  0  0  0  0  0  0
   10.5620  -10.9490   12.7300 O   0  0  0  0  0  0  0  0  0  0  0  0
    8.7720  -12.7620   11.3290 C   0  0  0  0  0  0  0  0  0  0  0  0
    7.5050  -13.2570   10.6450 C   0  0  0  0  0  0  0  0  0  0  0  0
    7.2250  -14.7200   10.9550 C   0  0  0  0  0  0  0  0  0  0  0  0
    7.0260  -14.9690   12.3800 N   0  0  0  0  0  0  0  0  0  0  0  0
    6.8110  -16.1720   12.9020 C   0  0  0  0  0  3  0  0  0  0  0  0
    6.7670  -17.2410   12.1170 N   0  0  0  0  0  0  0  0  0  0  0  0
    6.6390  -16.3090   14.2110 N   0  0  0  0  0  0  0  0  0  0  0  0
   10.3760  -12.3830   14.4480 N   0  0  0  0  0  0  0  0  0  0  0  0
   11.6390  -11.9810   15.0690 C   0  0  2  0  0  0  0  0  0  0  0  0
   12.8740  -12.2920   14.2250 C   0  0  0  0  0  0  0  0  0  0  0  0
   13.8580  -11.5520   14.2580 O   0  0  0  0  0  0  0  0  0  0  0  0
   11.7880  -12.6520   16.4390 C   0  0  0  0  0  0  0  0  0  0  0  0
   10.6900  -12.3050   17.4300 C   0  0  0  0  0  0  0  0  0  0  0  0
   10.9160  -13.0060   18.7620 C   0  0  0  0  0  0  0  0  0  0  0  0
    9.8190  -12.6670   19.7610 C   0  0  0  0  0  0  0  0  0  0  0  0
   10.0330  -13.3430   21.0730 N   0  3  0  0  0  0  0  0  0  0  0  0
   12.8240  -13.3880   13.4750 N   0  0  0  0  0  0  0  0  0  0  0  0
   13.9510  -13.7880   12.6380 C   0  0  2  0  0  0  0  0  0  0  0  0
   13.6140  -13.7380   11.1500 C   0  0  0  0  0  0  0  0  0  0  0  0
   12.4640  -13.3830   10.8140 O   0  5  0  0  0  0  0  0  0  0  0  0
   14.4180  -15.2150   12.9860 C   0  0  2  0  0  0  0  0  0  0  0  0
   13.3480  -16.1400   12.7540 O   0  0  0  0  0  0  0  0  0  0  0  0
   14.8400  -15.2940   14.4460 C   0  0  0  0  0  0  0  0  0  0  0  0
   14.5080  -14.0560   10.3370 O   0  0  0  0  0  0  0  0  0  0  0  0
   -1.3079    2.3144   22.3230 H   0  0  0  0  0  0  0  0  0  0  0  0
   -1.9783    1.0213   23.0896 H   0  0  0  0  0  0  0  0  0  0  0  0
   -2.1560    1.1964   21.4626 H   0  0  0  0  0  0  0  0  0  0  0  0
    0.1954    0.8998   21.0903 H   0  0  0  0  0  0  0  0  0  0  0  0
    1.5414    0.0889   23.0710 H   0  0  0  0  0  0  0  0  0  0  0  0
    0.1651    0.5565   24.1264 H   0  0  0  0  0  0  0  0  0  0  0  0
    2.8594    3.2649   23.7536 H   0  0  0  0  0  0  0  0  0  0  0  0
    2.9904    1.5516   23.9713 H   0  0  0  0  0  0  0  0  0  0  0  0
    0.7780   -1.1232   20.4178 H   0  0  0  0  0  0  0  0  0  0  0  0
   -0.1842   -3.4890   21.7695 H   0  0  0  0  0  0  0  0  0  0  0  0
   -2.2727   -2.8762   20.7440 H   0  0  0  0  0  0  0  0  0  0  0  0
   -1.6027   -4.3024   19.8816 H   0  0  0  0  0  0  0  0  0  0  0  0
   -0.6536   -4.0361   17.6155 H   0  0  0  0  0  0  0  0  0  0  0  0
   -2.5638   -0.7868   19.6289 H   0  0  0  0  0  0  0  0  0  0  0  0
   -0.8439   -2.8239   15.4681 H   0  0  0  0  0  0  0  0  0  0  0  0
   -2.7548    0.4373   17.4881 H   0  0  0  0  0  0  0  0  0  0  0  0
   -1.8979   -0.5847   15.4005 H   0  0  0  0  0  0  0  0  0  0  0  0
    0.3792   -5.4606   20.8092 H   0  0  0  0  0  0  0  0  0  0  0  0
    2.9343   -5.3328   19.3375 H   0  0  0  0  0  0  0  0  0  0  0  0
    2.9999   -7.7787   19.8653 H   0  0  0  0  0  0  0  0  0  0  0  0
    1.3773   -7.6392   20.6231 H   0  0  0  0  0  0  0  0  0  0  0  0
    3.2333   -6.3221   17.3270 H   0  0  0  0  0  0  0  0  0  0  0  0
    0.7836   -6.6443   15.7163 H   0  0  0  0  0  0  0  0  0  0  0  0
    3.7639   -6.7961   15.0442 H   0  0  0  0  0  0  0  0  0  0  0  0
    2.6496   -5.4240   14.7248 H   0  0  0  0  0  0  0  0  0  0  0  0
    3.0523   -7.2256   11.5355 H   0  0  0  0  0  0  0  0  0  0  0  0
    4.0417   -6.3005   12.6150 H   0  0  0  0  0  0  0  0  0  0  0  0
    0.8927  -10.9996   16.7968 H   0  0  0  0  0  0  0  0  0  0  0  0
   -1.4553  -10.8636   16.7854 H   0  0  0  0  0  0  0  0  0  0  0  0
   -1.2517  -11.7791   15.2533 H   0  0  0  0  0  0  0  0  0  0  0  0
   -2.5778   -9.5036   15.1349 H   0  0  0  0  0  0  0  0  0  0  0  0
   -1.2668   -9.7548   13.9329 H   0  0  0  0  0  0  0  0  0  0  0  0
   -0.6434   -7.6646   14.9565 H   0  0  0  0  0  0  0  0  0  0  0  0
   -1.1477   -8.2205   16.5885 H   0  0  0  0  0  0  0  0  0  0  0  0
    1.3471   -9.6300   13.6428 H   0  0  0  0  0  0  0  0  0  0  0  0
    2.1203  -12.2902   12.5849 H   0  0  0  0  0  0  0  0  0  0  0  0
    1.9619   -9.7110   10.9601 H   0  0  0  0  0  0  0  0  0  0  0  0
    1.5058  -11.2986    9.1228 H   0  0  0  0  0  0  0  0  0  0  0  0
    1.6265  -12.6677   10.2794 H   0  0  0  0  0  0  0  0  0  0  0  0
    3.0685  -11.6535    9.9344 H   0  0  0  0  0  0  0  0  0  0  0  0
   -0.1755   -9.9940   12.1760 H   0  0  0  0  0  0  0  0  0  0  0  0
   -0.2970  -11.6788   11.5651 H   0  0  0  0  0  0  0  0  0  0  0  0
   -0.3689  -10.2995   10.4166 H   0  0  0  0  0  0  0  0  0  0  0  0
    3.6774   -9.9892   14.2487 H   0  0  0  0  0  0  0  0  0  0  0  0
    5.9586   -9.3620   12.6513 H   0  0  0  0  0  0  0  0  0  0  0  0
    5.6234   -9.6338   15.6746 H   0  0  0  0  0  0  0  0  0  0  0  0
    5.4918   -8.1344   14.6943 H   0  0  0  0  0  0  0  0  0  0  0  0
    7.7196   -7.7040   13.1855 H   0  0  0  0  0  0  0  0  0  0  0  0
    7.6049   -9.9134   16.8473 H   0  0  0  0  0  0  0  0  0  0  0  0
   10.1349   -7.2977   13.5040 H   0  0  0  0  0  0  0  0  0  0  0  0
   10.0206   -9.5139   17.1680 H   0  0  0  0  0  0  0  0  0  0  0  0
   11.8973   -7.6320   14.8125 H   0  0  0  0  0  0  0  0  0  0  0  0
    7.8654  -10.3609   12.3328 H   0  0  0  0  0  0  0  0  0  0  0  0
    8.2201  -13.1521   13.3879 H   0  0  0  0  0  0  0  0  0  0  0  0
    9.5089  -13.5786   11.3136 H   0  0  0  0  0  0  0  0  0  0  0  0
    9.1587  -11.9082   10.7533 H   0  0  0  0  0  0  0  0  0  0  0  0
    7.6196  -13.1400    9.5573 H   0  0  0  0  0  0  0  0  0  0  0  0
    6.6545  -12.6515   10.9914 H   0  0  0  0  0  0  0  0  0  0  0  0
    8.0781  -15.3220   10.6090 H   0  0  0  0  0  0  0  0  0  0  0  0
    6.3170  -15.0261   10.4147 H   0  0  0  0  0  0  0  0  0  0  0  0
    7.0540  -14.1625   13.0200 H   0  0  0  0  0  0  0  0  0  0  0  0
    6.6002  -18.1723   12.5241 H   0  0  0  0  0  0  0  0  0  0  0  0
    6.8996  -17.1394   11.1006 H   0  0  0  0  0  0  0  0  0  0  0  0
    6.6723  -15.4821   14.8241 H   0  0  0  0  0  0  0  0  0  0  0  0
    6.4722  -17.2423   14.6136 H   0  0  0  0  0  0  0  0  0  0  0  0
    9.8292  -13.1005   14.8795 H   0  0  0  0  0  0  0  0  0  0  0  0
   11.6019  -10.8917   15.2171 H   0  0  0  0  0  0  0  0  0  0  0  0
   12.7514  -12.3429   16.8707 H   0  0  0  0  0  0  0  0  0  0  0  0
   11.7856  -13.7419   16.2905 H   0  0  0  0  0  0  0  0  0  0  0  0
    9.7203  -12.6204   17.0175 H   0  0  0  0  0  0  0  0  0  0  0  0
   10.6829  -11.2171   17.5927 H   0  0  0  0  0  0  0  0  0  0  0  0
   11.8854  -12.6885   19.1736 H   0  0  0  0  0  0  0  0  0  0  0  0
   10.9261  -14.0935   18.5970 H   0  0  0  0  0  0  0  0  0  0  0  0
    8.8511  -12.9886   19.3490 H   0  0  0  0  0  0  0  0  0  0  0  0
    9.8065  -11.5786   19.9197 H   0  0  0  0  0  0  0  0  0  0  0  0
    9.2881  -13.0939   21.7047 H   0  0  0  0  0  0  0  0  0  0  0  0
   10.9155  -13.0499   21.4620 H   0  0  0  0  0  0  0  0  0  0  0  0
   10.0400  -14.3420   20.9391 H   0  0  0  0  0  0  0  0  0  0  0  0
   11.9971  -13.9503   13.4843 H   0  0  0  0  0  0  0  0  0  0  0  0
   14.7793  -13.0901   12.8299 H   0  0  0  0  0  0  0  0  0  0  0  0
   15.2737  -15.4797   12.3476 H   0  0  0  0  0  0  0  0  0  0  0  0
   13.6382  -17.0186   12.9692 H   0  0  0  0  0  0  0  0  0  0  0  0
   15.1700  -16.3175   14.6774 H   0  0  0  0  0  0  0  0  0  0  0  0
   13.9876  -15.0294   15.0889 H   0  0  0  0  0  0  0  0  0  0  0  0
   15.6675  -14.5923   14.6270 H   0  0  0  0  0  0  0  0  0  0  0  0
  1  2  1  0  0  0  0
  1 90  1  0  0  0  0
  1 91  1  0  0  0  0
  1 92  1  0  0  0  0
  2  3  1  0  0  0  0
  2  5  1  0  0  0  0
  2 93  1  6  0  0  0
  3  4  2  0  0  0  0
  3  9  1  0  0  0  0
  5  6  1  0  0  0  0
  5 94  1  0  0  0  0
  5 95  1  0  0  0  0
  6  7  2  0  0  0  0
  6  8  1  0  0  0  0
  8 96  1  0  0  0  0
  8 97  1  0  0  0  0
  9 10  1  0  0  0  0
  9 98  1  0  0  0  0
 10 11  1  0  0  0  0
 10 13  1  0  0  0  0
 10 99  1  1  0  0  0
 11 12  2  0  0  0  0
 11 20  1  0  0  0  0
 13 14  1  0  0  0  0
 13100  1  0  0  0  0
 13101  1  0  0  0  0
 14 15  2  0  0  0  0
 14 16  1  0  0  0  0
 15 17  1  0  0  0  0
 15102  1  0  0  0  0
 16 18  2  0  0  0  0
 16103  1  0  0  0  0
 17 19  2  0  0  0  0
 17104  1  0  0  0  0
 18 19  1  0  0  0  0
 18105  1  0  0  0  0
 19106  1  0  0  0  0
 20 21  1  0  0  0  0
 20107  1  0  0  0  0
 21 22  1  0  0  0  0
 21 24  1  0  0  0  0
 21108  1  6  0  0  0
 22 23  2  0  0  0  0
 22 28  1  0  0  0  0
 24 25  1  0  0  0  0
 24109  1  0  0  0  0
 24110  1  0  0  0  0
 25 26  1  0  0  0  0
 25 27  2  0  0  0  0
 28 29  1  0  0  0  0
 28111  1  0  0  0  0
 29 30  1  0  0  0  0
 29 32  1  0  0  0  0
 29112  1  6  0  0  0
 30 31  2  0  0  0  0
 30 36  1  0  0  0  0
 32 33  1  0  0  0  0
 32113  1  0  0  0  0
 32114  1  0  0  0  0
 33 34  2  0  0  0  0
 33 35  1  0  0  0  0
 35115  1  0  0  0  0
 35116  1  0  0  0  0
 36 37  1  0  0  0  0
 36 42  1  0  0  0  0
 37 38  1  0  0  0  0
 37 40  1  0  0  0  0
 37117  1  1  0  0  0
 38 39  2  0  0  0  0
 38 43  1  0  0  0  0
 40 41  1  0  0  0  0
 40118  1  0  0  0  0
 40119  1  0  0  0  0
 41 42  1  0  0  0  0
 41120  1  0  0  0  0
 41121  1  0  0  0  0
 42122  1  0  0  0  0
 42123  1  0  0  0  0
 43 44  1  0  0  0  0
 43124  1  0  0  0  0
 44 45  1  0  0  0  0
 44 47  1  0  0  0  0
 44125  1  1  0  0  0
 45 46  2  0  0  0  0
 45 50  1  0  0  0  0
 47 48  1  0  0  0  0
 47 49  1  0  0  0  0
 47126  1  0  0  0  0
 48127  1  0  0  0  0
 48128  1  0  0  0  0
 48129  1  0  0  0  0
 49130  1  0  0  0  0
 49131  1  0  0  0  0
 49132  1  0  0  0  0
 50 51  1  0  0  0  0
 50133  1  0  0  0  0
 51 52  1  0  0  0  0
 51 54  1  0  0  0  0
 51134  1  6  0  0  0
 52 53  2  0  0  0  0
 52 62  1  0  0  0  0
 54 55  1  0  0  0  0
 54135  1  0  0  0  0
 54136  1  0  0  0  0
 55 56  2  0  0  0  0
 55 57  1  0  0  0  0
 56 58  1  0  0  0  0
 56137  1  0  0  0  0
 57 59  2  0  0  0  0
 57138  1  0  0  0  0
 58 60  2  0  0  0  0
 58139  1  0  0  0  0
 59 60  1  0  0  0  0
 59140  1  0  0  0  0
 60 61  1  0  0  0  0
 61141  1  0  0  0  0
 62 63  1  0  0  0  0
 62142  1  0  0  0  0
 63 64  1  0  0  0  0
 63 66  1  0  0  0  0
 63143  1  1  0  0  0
 64 65  2  0  0  0  0
 64 73  1  0  0  0  0
 66 67  1  0  0  0  0
 66144  1  0  0  0  0
 66145  1  0  0  0  0
 67 68  1  0  0  0  0
 67146  1  0  0  0  0
 67147  1  0  0  0  0
 68 69  1  0  0  0  0
 68148  1  0  0  0  0
 68149  1  0  0  0  0
 69 70  1  0  0  0  0
 69150  1  0  0  0  0
 70 71  1  0  0  0  0
 70 72  1  0  0  0  0
 71151  1  0  0  0  0
 71152  1  0  0  0  0
 72153  1  0  0  0  0
 72154  1  0  0  0  0
 73 74  1  0  0  0  0
 73155  1  0  0  0  0
 74 75  1  0  0  0  0
 74 77  1  0  0  0  0
 74156  1  1  0  0  0
 75 76  2  0  0  0  0
 75 82  1  0  0  0  0
 77 78  1  0  0  0  0
 77157  1  0  0  0  0
 77158  1  0  0  0  0
 78 79  1  0  0  0  0
 78159  1  0  0  0  0
 78160  1  0  0  0  0
 79 80  1  0  0  0  0
 79161  1  0  0  0  0
 79162  1  0  0  0  0
 80 81  1  0  0  0  0
 80163  1  0  0  0  0
 80164  1  0  0  0  0
 81165  1  0  0  0  0
 81166  1  0  0  0  0
 81167  1  0  0  0  0
 82 83  1  0  0  0  0
 82168  1  0  0  0  0
 83 84  1  0  0  0  0
 83 86  1  0  0  0  0
 83169  1  1  0  0  0
 84 85  1  0  0  0  0
 84 89  2  0  0  0  0
 86 87  1  0  0  0  0
 86 88  1  0  0  0  0
 86170  1  6  0  0  0
 87171  1  0  0  0  0
 88172  1  0  0  0  0
 88173  1  0  0  0  0
 88174  1  0  0  0  0
M  CHG  4   1   1  26  -1  81   1  85  -1
M  END
