1nu8_ligand
 OpenBabel08222323343D

 58 58  0  0  1  0  0  0  0  0999 V2000
   64.3840   73.9810   69.2100 N   0  3  0  0  0  0  0  0  0  0  0  0
   65.7640   73.4560   69.1910 C   0  0  2  0  0  0  0  0  0  0  0  0
   65.7780   72.0970   68.4740 C   0  0  0  0  0  0  0  0  0  0  0  0
   65.0510   71.1730   68.8830 O   0  0  0  0  0  0  0  0  0  0  0  0
   66.3130   73.2970   70.6330 C   0  0  2  0  0  0  0  0  0  0  0  0
   66.1200   74.5790   71.4490 C   0  0  0  0  0  0  0  0  0  0  0  0
   67.7790   72.8950   70.6060 C   0  0  0  0  0  0  0  0  0  0  0  0
   66.4390   74.4340   72.9500 C   0  0  0  0  0  0  0  0  0  0  0  0
   66.6090   71.9670   67.4380 N   0  0  0  0  0  0  0  0  0  0  0  0
   66.6670   70.7270   66.6340 C   0  0  2  0  0  0  0  0  0  0  0  0
   67.4330   69.4950   67.1130 C   0  0  1  0  0  0  0  0  0  0  0  0
   68.7420   69.5610   67.4480 O   0  0  0  0  0  0  0  0  0  0  0  0
   67.4580   71.1530   65.4180 C   0  0  0  0  0  0  0  0  0  0  0  0
   68.3930   72.2210   65.9390 C   0  0  0  0  0  0  0  0  0  0  0  0
   67.6510   72.9290   67.0220 C   0  0  0  0  0  0  0  0  0  0  0  0
   66.4960   69.0400   68.1510 N   0  3  0  0  0  0  0  0  0  0  0  0
   66.9020   67.9490   69.0320 C   0  0  2  0  0  0  0  0  0  0  0  0
   65.7190   67.0690   69.4870 C   0  0  0  0  0  0  0  0  0  0  0  0
   64.7620   67.5710   70.0860 O   0  5  0  0  0  0  0  0  0  0  0  0
   67.7540   68.4200   70.3030 C   0  0  2  0  0  0  0  0  0  0  0  0
   67.6310   67.4220   71.4840 C   0  0  0  0  0  0  0  0  0  0  0  0
   67.3350   69.7690   70.7880 C   0  0  0  0  0  0  0  0  0  0  0  0
   68.9270   67.2260   72.2750 C   0  0  0  0  0  0  0  0  0  0  0  0
   65.7170   65.8420   69.2880 O   0  0  0  0  0  0  0  0  0  0  0  0
   64.0477   74.0762   68.2645 H   0  0  0  0  0  0  0  0  0  0  0  0
   64.3733   74.8815   69.6627 H   0  0  0  0  0  0  0  0  0  0  0  0
   63.7889   73.3436   69.7156 H   0  0  0  0  0  0  0  0  0  0  0  0
   66.4067   74.1601   68.6422 H   0  0  0  0  0  0  0  0  0  0  0  0
   65.7466   72.4928   71.1253 H   0  0  0  0  0  0  0  0  0  0  0  0
   65.0712   74.8953   71.3495 H   0  0  0  0  0  0  0  0  0  0  0  0
   66.7782   75.3549   71.0311 H   0  0  0  0  0  0  0  0  0  0  0  0
   67.8958   71.9739   70.0161 H   0  0  0  0  0  0  0  0  0  0  0  0
   68.1300   72.7193   71.6336 H   0  0  0  0  0  0  0  0  0  0  0  0
   68.3718   73.7008   70.1487 H   0  0  0  0  0  0  0  0  0  0  0  0
   66.2737   75.3973   73.4547 H   0  0  0  0  0  0  0  0  0  0  0  0
   67.4890   74.1305   73.0741 H   0  0  0  0  0  0  0  0  0  0  0  0
   65.7819   73.6708   73.3925 H   0  0  0  0  0  0  0  0  0  0  0  0
   65.6394   70.4248   66.3837 H   0  0  0  0  0  0  0  0  0  0  0  0
   67.4119   68.7630   66.2922 H   0  0  0  0  0  0  0  0  0  0  0  0
   68.8522   70.1653   68.1727 H   0  0  0  0  0  0  0  0  0  0  0  0
   66.7925   71.5614   64.6431 H   0  0  0  0  0  0  0  0  0  0  0  0
   68.0251   70.3058   65.0050 H   0  0  0  0  0  0  0  0  0  0  0  0
   68.6561   72.9235   65.1345 H   0  0  0  0  0  0  0  0  0  0  0  0
   69.3092   71.7634   66.3404 H   0  0  0  0  0  0  0  0  0  0  0  0
   68.3202   73.1665   67.8621 H   0  0  0  0  0  0  0  0  0  0  0  0
   67.1966   73.8558   66.6417 H   0  0  0  0  0  0  0  0  0  0  0  0
   65.6540   68.7449   67.6820 H   0  0  0  0  0  0  0  0  0  0  0  0
   66.2934   69.8348   68.7369 H   0  0  0  0  0  0  0  0  0  0  0  0
   67.5632   67.3061   68.4324 H   0  0  0  0  0  0  0  0  0  0  0  0
   68.8097   68.4716   69.9984 H   0  0  0  0  0  0  0  0  0  0  0  0
   67.3216   66.4464   71.0809 H   0  0  0  0  0  0  0  0  0  0  0  0
   66.8592   67.7956   72.1729 H   0  0  0  0  0  0  0  0  0  0  0  0
   67.4141   70.4952   69.9656 H   0  0  0  0  0  0  0  0  0  0  0  0
   67.9887   70.0803   71.6161 H   0  0  0  0  0  0  0  0  0  0  0  0
   66.2936   69.7252   71.1395 H   0  0  0  0  0  0  0  0  0  0  0  0
   68.7542   66.5074   73.0897 H   0  0  0  0  0  0  0  0  0  0  0  0
   69.2478   68.1895   72.6979 H   0  0  0  0  0  0  0  0  0  0  0  0
   69.7102   66.8402   71.6059 H   0  0  0  0  0  0  0  0  0  0  0  0
  1  2  1  0  0  0  0
  1 25  1  0  0  0  0
  1 26  1  0  0  0  0
  1 27  1  0  0  0  0
  2  3  1  0  0  0  0
  2  5  1  0  0  0  0
  2 28  1  6  0  0  0
  3  4  2  0  0  0  0
  3  9  1  0  0  0  0
  5  6  1  0  0  0  0
  5  7  1  0  0  0  0
  5 29  1  1  0  0  0
  6  8  1  0  0  0  0
  6 30  1  0  0  0  0
  6 31  1  0  0  0  0
  7 32  1  0  0  0  0
  7 33  1  0  0  0  0
  7 34  1  0  0  0  0
  8 35  1  0  0  0  0
  8 36  1  0  0  0  0
  8 37  1  0  0  0  0
  9 10  1  0  0  0  0
  9 15  1  0  0  0  0
 10 11  1  0  0  0  0
 10 13  1  0  0  0  0
 10 38  1  6  0  0  0
 11 12  1  0  0  0  0
 11 16  1  0  0  0  0
 11 39  1  6  0  0  0
 12 40  1  0  0  0  0
 13 14  1  0  0  0  0
 13 41  1  0  0  0  0
 13 42  1  0  0  0  0
 14 15  1  0  0  0  0
 14 43  1  0  0  0  0
 14 44  1  0  0  0  0
 15 45  1  0  0  0  0
 15 46  1  0  0  0  0
 16 17  1  0  0  0  0
 16 47  1  0  0  0  0
 16 48  1  0  0  0  0
 17 18  1  0  0  0  0
 17 20  1  0  0  0  0
 17 49  1  6  0  0  0
 18 19  1  0  0  0  0
 18 24  2  0  0  0  0
 20 21  1  0  0  0  0
 20 22  1  0  0  0  0
 20 50  1  6  0  0  0
 21 23  1  0  0  0  0
 21 51  1  0  0  0  0
 21 52  1  0  0  0  0
 22 53  1  0  0  0  0
 22 54  1  0  0  0  0
 22 55  1  0  0  0  0
 23 56  1  0  0  0  0
 23 57  1  0  0  0  0
 23 58  1  0  0  0  0
M  CHG  3   1   1  16   1  19  -1
M  END
