1nxy_ligand
 OpenBabel08222323343D

 35 36  0  0  1  0  0  0  0  0999 V2000
   32.7700    6.1980   22.2480 C   0  0  0  0  0  0  0  0  0  0  0  0
   31.3800    6.4350   22.0450 C   0  0  0  0  0  0  0  0  0  0  0  0
   30.9840    7.6690   22.5300 C   0  0  0  0  0  0  0  0  0  0  0  0
   32.2980    8.5170   23.2260 S   0  0  0  0  0  0  0  0  0  0  0  0
   33.3780    7.2410   22.8710 C   0  0  0  0  0  0  0  0  0  0  0  0
   34.8700    7.2730   23.2140 C   0  0  0  0  0  0  0  0  0  0  0  0
   35.5380    8.5890   22.7550 C   0  0  0  0  0  0  0  0  0  0  0  0
   36.6010    8.9870   23.2150 O   0  0  0  0  0  0  0  0  0  0  0  0
   34.8470    9.2790   21.7930 N   0  0  0  0  0  0  0  0  0  0  0  0
   35.3570   10.5530   21.2690 C   0  0  2  0  0  0  0  0  0  0  0  0
   34.4390   11.7050   21.8790 B   0  0  0  0  0  0  0  0  0  0  0  0
   35.0520   12.8950   22.4930 O   0  0  0  0  0  0  0  0  0  0  0  0
   32.9660   11.5690   21.8750 O   0  0  0  0  0  0  0  0  0  0  0  0
   35.3020   10.5200   19.7470 C   0  0  0  0  0  0  0  0  0  0  0  0
   35.7760    9.3810   19.0330 C   0  0  0  0  0  0  0  0  0  0  0  0
   34.7640   11.6340   19.0350 C   0  0  0  0  0  0  0  0  0  0  0  0
   34.6980   11.6040   17.6090 C   0  0  0  0  0  0  0  0  0  0  0  0
   35.1720   10.4560   16.8930 C   0  0  0  0  0  0  0  0  0  0  0  0
   35.7150    9.3400   17.6080 C   0  0  0  0  0  0  0  0  0  0  0  0
   36.2230    8.1130   16.8640 C   0  0  0  0  0  0  0  0  0  0  0  0
   36.5550    7.0980   17.5260 O   0  5  0  0  0  0  0  0  0  0  0  0
   36.2880    8.1380   15.6100 O   0  0  0  0  0  0  0  0  0  0  0  0
   33.2842    5.2887   21.9403 H   0  0  0  0  0  0  0  0  0  0  0  0
   30.7069    5.7269   21.5638 H   0  0  0  0  0  0  0  0  0  0  0  0
   29.9660    8.0519   22.4758 H   0  0  0  0  0  0  0  0  0  0  0  0
   35.3679    6.4285   22.7152 H   0  0  0  0  0  0  0  0  0  0  0  0
   34.9868    7.1760   24.3035 H   0  0  0  0  0  0  0  0  0  0  0  0
   33.9854    8.9107   21.4437 H   0  0  0  0  0  0  0  0  0  0  0  0
   36.3985   10.7049   21.5885 H   0  0  0  0  0  0  0  0  0  0  0  0
   34.8086   12.9376   23.4103 H   0  0  0  0  0  0  0  0  0  0  0  0
   32.7254   10.7558   21.4470 H   0  0  0  0  0  0  0  0  0  0  0  0
   36.1865    8.5383   19.5775 H   0  0  0  0  0  0  0  0  0  0  0  0
   34.4058   12.5021   19.5765 H   0  0  0  0  0  0  0  0  0  0  0  0
   34.2893   12.4496   17.0676 H   0  0  0  0  0  0  0  0  0  0  0  0
   35.1195   10.4326   15.8105 H   0  0  0  0  0  0  0  0  0  0  0  0
  1  2  1  0  0  0  0
  1  5  2  0  0  0  0
  1 23  1  0  0  0  0
  2  3  2  0  0  0  0
  2 24  1  0  0  0  0
  3  4  1  0  0  0  0
  3 25  1  0  0  0  0
  4  5  1  0  0  0  0
  5  6  1  0  0  0  0
  6  7  1  0  0  0  0
  6 26  1  0  0  0  0
  6 27  1  0  0  0  0
  7  8  2  0  0  0  0
  7  9  1  0  0  0  0
  9 10  1  0  0  0  0
  9 28  1  0  0  0  0
 10 11  1  0  0  0  0
 10 14  1  0  0  0  0
 10 29  1  1  0  0  0
 11 12  1  0  0  0  0
 11 13  1  0  0  0  0
 12 30  1  0  0  0  0
 13 31  1  0  0  0  0
 14 15  2  0  0  0  0
 14 16  1  0  0  0  0
 15 19  1  0  0  0  0
 15 32  1  0  0  0  0
 16 17  2  0  0  0  0
 16 33  1  0  0  0  0
 17 18  1  0  0  0  0
 17 34  1  0  0  0  0
 18 19  2  0  0  0  0
 18 35  1  0  0  0  0
 19 20  1  0  0  0  0
 20 21  1  0  0  0  0
 20 22  2  0  0  0  0
M  CHG  1  21  -1
M  END
