1ny2_ligand
 OpenBabel08222323343D

 62 63  0  0  1  0  0  0  0  0999 V2000
   36.1170   36.3640    4.8030 N   0  3  0  0  0  0  0  0  0  0  0  0
   35.8490   37.7380    5.2290 C   0  0  2  0  0  0  0  0  0  0  0  0
   35.7220   38.7130    4.0620 C   0  0  0  0  0  0  0  0  0  0  0  0
   36.4200   39.8060    4.1540 O   0  0  0  0  0  0  0  0  0  0  0  0
   36.9400   38.2470    6.2070 C   0  0  0  0  0  0  0  0  0  0  0  0
   36.5200   38.5600    7.6140 C   0  0  0  0  0  0  0  0  0  0  0  0
   35.3070   39.3540    7.8150 C   0  0  0  0  0  0  0  0  0  0  0  0
   35.3310   40.7580    8.0730 N   0  0  0  0  0  0  0  0  0  0  0  0
   35.3360   41.6330    9.0630 C   0  0  0  0  0  3  0  0  0  0  0  0
   35.3160   41.3610   10.3820 N   0  0  0  0  0  0  0  0  0  0  0  0
   35.3690   42.9590    8.7740 N   0  0  0  0  0  0  0  0  0  0  0  0
   34.7900   38.4870    3.1250 N   0  0  0  0  0  0  0  0  0  0  0  0
   34.6230   39.3280    1.9390 C   0  0  2  0  0  0  0  0  0  0  0  0
   33.9030   40.6240    2.1560 C   0  0  0  0  0  0  0  0  0  0  0  0
   32.8600   40.6840    2.7630 O   0  0  0  0  0  0  0  0  0  0  0  0
   33.9550   38.4520    0.8680 C   0  0  0  0  0  0  0  0  0  0  0  0
   34.1710   37.0540    1.3990 C   0  0  0  0  0  0  0  0  0  0  0  0
   34.0210   37.2510    2.9350 C   0  0  0  0  0  0  0  0  0  0  0  0
   34.5050   41.6800    1.6430 N   0  0  0  0  0  0  0  0  0  0  0  0
   33.9040   43.0220    1.5980 C   0  0  2  0  0  0  0  0  0  0  0  0
   32.8600   43.0590    0.4340 C   0  0  0  0  0  0  0  0  0  0  0  0
   32.9680   42.4120   -0.6460 O   0  0  0  0  0  0  0  0  0  0  0  0
   35.1210   43.9260    1.3020 C   0  0  0  0  0  0  0  0  0  0  0  0
   35.8030   43.0820    0.2180 C   0  0  0  0  0  0  0  0  0  0  0  0
   35.8080   41.6790    0.8970 C   0  0  0  0  0  0  0  0  0  0  0  0
   31.8680   43.9370    0.6770 N   0  0  0  0  0  0  0  0  0  0  0  0
   30.7580   44.2180   -0.2360 C   0  0  0  0  0  0  0  0  0  0  0  0
   31.1530   45.4580   -1.0650 C   0  0  0  0  0  0  0  0  0  0  0  0
   32.1810   45.3900   -1.8350 O   0  5  0  0  0  0  0  0  0  0  0  0
   30.4793   46.5201   -0.9889 O   0  0  0  0  0  0  0  0  0  0  0  0
   36.1902   35.7692    5.6135 H   0  0  0  0  0  0  0  0  0  0  0  0
   36.9817   36.3351    4.2859 H   0  0  0  0  0  0  0  0  0  0  0  0
   35.3636   36.0411    4.2163 H   0  0  0  0  0  0  0  0  0  0  0  0
   34.8882   37.7322    5.7646 H   0  0  0  0  0  0  0  0  0  0  0  0
   37.3638   39.1668    5.7777 H   0  0  0  0  0  0  0  0  0  0  0  0
   37.7206   37.4739    6.2608 H   0  0  0  0  0  0  0  0  0  0  0  0
   37.3491   39.1062    8.0877 H   0  0  0  0  0  0  0  0  0  0  0  0
   36.3705   37.6004    8.1305 H   0  0  0  0  0  0  0  0  0  0  0  0
   34.7841   38.8979    8.6685 H   0  0  0  0  0  0  0  0  0  0  0  0
   34.7048   39.2235    6.9038 H   0  0  0  0  0  0  0  0  0  0  0  0
   35.3515   41.2645    7.1763 H   0  0  0  0  0  0  0  0  0  0  0  0
   35.3225   42.1305   11.0667 H   0  0  0  0  0  0  0  0  0  0  0  0
   35.2942   40.3835   10.7060 H   0  0  0  0  0  0  0  0  0  0  0  0
   35.3864   43.2720    7.7929 H   0  0  0  0  0  0  0  0  0  0  0  0
   35.3767   43.6521    9.5359 H   0  0  0  0  0  0  0  0  0  0  0  0
   35.6289   39.5927    1.5811 H   0  0  0  0  0  0  0  0  0  0  0  0
   34.4395   38.5836   -0.1107 H   0  0  0  0  0  0  0  0  0  0  0  0
   32.8828   38.6815    0.7802 H   0  0  0  0  0  0  0  0  0  0  0  0
   35.1736   36.6815    1.1420 H   0  0  0  0  0  0  0  0  0  0  0  0
   33.4112   36.3595    1.0112 H   0  0  0  0  0  0  0  0  0  0  0  0
   32.9682   37.3793    3.2266 H   0  0  0  0  0  0  0  0  0  0  0  0
   34.4572   36.4115    3.4961 H   0  0  0  0  0  0  0  0  0  0  0  0
   33.4238   43.2930    2.5498 H   0  0  0  0  0  0  0  0  0  0  0  0
   35.7622   44.0542    2.1866 H   0  0  0  0  0  0  0  0  0  0  0  0
   34.8170   44.9130    0.9233 H   0  0  0  0  0  0  0  0  0  0  0  0
   36.8242   43.4356    0.0129 H   0  0  0  0  0  0  0  0  0  0  0  0
   35.2220   43.0772   -0.7160 H   0  0  0  0  0  0  0  0  0  0  0  0
   35.8376   40.8741    0.1479 H   0  0  0  0  0  0  0  0  0  0  0  0
   36.6603   41.5720    1.5841 H   0  0  0  0  0  0  0  0  0  0  0  0
   31.8911   44.4335    1.5447 H   0  0  0  0  0  0  0  0  0  0  0  0
   29.8416   44.4236    0.3366 H   0  0  0  0  0  0  0  0  0  0  0  0
   30.5897   43.3580   -0.9009 H   0  0  0  0  0  0  0  0  0  0  0  0
  1  2  1  0  0  0  0
  1 31  1  0  0  0  0
  1 32  1  0  0  0  0
  1 33  1  0  0  0  0
  2  3  1  0  0  0  0
  2  5  1  0  0  0  0
  2 34  1  1  0  0  0
  3  4  2  0  0  0  0
  3 12  1  0  0  0  0
  5  6  1  0  0  0  0
  5 35  1  0  0  0  0
  5 36  1  0  0  0  0
  6  7  1  0  0  0  0
  6 37  1  0  0  0  0
  6 38  1  0  0  0  0
  7  8  1  0  0  0  0
  7 39  1  0  0  0  0
  7 40  1  0  0  0  0
  8  9  1  0  0  0  0
  8 41  1  0  0  0  0
  9 10  1  0  0  0  0
  9 11  1  0  0  0  0
 10 42  1  0  0  0  0
 10 43  1  0  0  0  0
 11 44  1  0  0  0  0
 11 45  1  0  0  0  0
 12 13  1  0  0  0  0
 12 18  1  0  0  0  0
 13 14  1  0  0  0  0
 13 16  1  0  0  0  0
 13 46  1  6  0  0  0
 14 15  2  0  0  0  0
 14 19  1  0  0  0  0
 16 17  1  0  0  0  0
 16 47  1  0  0  0  0
 16 48  1  0  0  0  0
 17 18  1  0  0  0  0
 17 49  1  0  0  0  0
 17 50  1  0  0  0  0
 18 51  1  0  0  0  0
 18 52  1  0  0  0  0
 19 20  1  0  0  0  0
 19 25  1  0  0  0  0
 20 21  1  0  0  0  0
 20 23  1  0  0  0  0
 20 53  1  1  0  0  0
 21 22  2  0  0  0  0
 21 26  1  0  0  0  0
 23 24  1  0  0  0  0
 23 54  1  0  0  0  0
 23 55  1  0  0  0  0
 24 25  1  0  0  0  0
 24 56  1  0  0  0  0
 24 57  1  0  0  0  0
 25 58  1  0  0  0  0
 25 59  1  0  0  0  0
 26 27  1  0  0  0  0
 26 60  1  0  0  0  0
 27 28  1  0  0  0  0
 27 61  1  0  0  0  0
 27 62  1  0  0  0  0
 28 29  1  0  0  0  0
 28 30  2  0  0  0  0
M  CHG  2   1   1  29  -1
M  END
