1nym_ligand
 OpenBabel08222323343D

 28 28  0  0  0  0  0  0  0  0999 V2000
   11.2940   13.0400   37.6420 C   0  0  0  0  0  0  0  0  0  0  0  0
   12.4410   12.2120   37.6320 O   0  0  0  0  0  0  0  0  0  0  0  0
   13.6050   11.9970   36.9950 N   0  0  0  0  0  0  0  0  0  0  0  0
   13.9000   10.7740   37.1970 C   0  0  0  0  0  0  0  0  0  0  0  0
   13.0300    9.7150   37.8180 C   0  0  0  0  0  0  0  0  0  0  0  0
   13.3210    9.3380   38.9290 O   0  0  0  0  0  0  0  0  0  0  0  0
   12.0730    9.2510   37.1080 N   0  0  0  0  0  0  0  0  0  0  0  0
   11.1490    8.2170   37.5760 C   0  0  0  0  0  0  0  0  0  0  0  0
   10.3560    7.6360   36.3000 B   0  0  0  0  0  0  0  0  0  0  0  0
   11.2450    7.1170   35.2320 O   0  0  0  0  0  0  0  0  0  0  0  0
    9.3900    8.5970   35.7140 O   0  0  0  0  0  0  0  0  0  0  0  0
   15.3080   10.3820   36.9080 C   0  0  0  0  0  0  0  0  0  0  0  0
   15.9100    9.2540   37.3880 C   0  0  0  0  0  0  0  0  0  0  0  0
   17.5650    9.1870   36.9100 S   0  0  0  0  0  0  0  0  0  0  0  0
   17.3300   10.6540   36.0700 C   0  0  0  0  0  0  0  0  0  0  0  0
   18.3910   11.2020   35.3630 N   0  0  0  0  0  0  0  0  0  0  0  0
   16.1150   11.1890   36.1320 N   0  0  0  0  0  0  0  0  0  0  0  0
   10.6206   12.7238   38.4523 H   0  0  0  0  0  0  0  0  0  0  0  0
   10.7721   12.9552   36.6774 H   0  0  0  0  0  0  0  0  0  0  0  0
   11.5974   14.0848   37.8042 H   0  0  0  0  0  0  0  0  0  0  0  0
   11.9495    9.6138   36.1843 H   0  0  0  0  0  0  0  0  0  0  0  0
   10.4355    8.6514   38.2917 H   0  0  0  0  0  0  0  0  0  0  0  0
   11.7119    7.4080   38.0646 H   0  0  0  0  0  0  0  0  0  0  0  0
   11.7170    7.8398   34.8354 H   0  0  0  0  0  0  0  0  0  0  0  0
    9.8639    9.3182   35.3169 H   0  0  0  0  0  0  0  0  0  0  0  0
   15.4111    8.4977   37.9922 H   0  0  0  0  0  0  0  0  0  0  0  0
   18.2662   12.0867   34.8506 H   0  0  0  0  0  0  0  0  0  0  0  0
   19.3033   10.7240   35.3507 H   0  0  0  0  0  0  0  0  0  0  0  0
  1  2  1  0  0  0  0
  1 18  1  0  0  0  0
  1 19  1  0  0  0  0
  1 20  1  0  0  0  0
  2  3  1  0  0  0  0
  3  4  2  0  0  0  0
  4  5  1  0  0  0  0
  4 12  1  0  0  0  0
  5  6  2  0  0  0  0
  5  7  1  0  0  0  0
  7  8  1  0  0  0  0
  7 21  1  0  0  0  0
  8  9  1  0  0  0  0
  8 22  1  0  0  0  0
  8 23  1  0  0  0  0
  9 10  1  0  0  0  0
  9 11  1  0  0  0  0
 10 24  1  0  0  0  0
 11 25  1  0  0  0  0
 12 13  2  0  0  0  0
 12 17  1  0  0  0  0
 13 14  1  0  0  0  0
 13 26  1  0  0  0  0
 14 15  1  0  0  0  0
 15 16  1  0  0  0  0
 15 17  2  0  0  0  0
 16 27  1  0  0  0  0
 16 28  1  0  0  0  0
M  END
