1nzv_ligand
 OpenBabel08222323343D

141144  0  0  1  0  0  0  0  0999 V2000
   17.8710   28.3870    4.5660 N   0  3  0  0  0  0  0  0  0  0  0  0
   19.3180   28.7090    4.6360 C   0  0  2  0  0  0  0  0  0  0  0  0
   19.4840   30.1550    5.1330 C   0  0  0  0  0  0  0  0  0  0  0  0
   20.3990   30.8660    4.7360 O   0  0  0  0  0  0  0  0  0  0  0  0
   19.8530   28.5460    3.2270 C   0  0  0  0  0  0  0  0  0  0  0  0
   18.6320   28.9440    2.4030 C   0  0  0  0  0  0  0  0  0  0  0  0
   17.4210   28.3790    3.1590 C   0  0  0  0  0  0  0  0  0  0  0  0
   18.5830   30.5750    6.0120 N   0  0  0  0  0  0  0  0  0  0  0  0
   18.6050   31.9220    6.5570 C   0  0  2  0  0  0  0  0  0  0  0  0
   18.7040   31.9630    8.0650 C   0  0  0  0  0  0  0  0  0  0  0  0
   18.3770   31.0060    8.7640 O   0  0  0  0  0  0  0  0  0  0  0  0
   17.3340   32.6660    6.1870 C   0  0  0  0  0  0  0  0  0  0  0  0
   17.1940   33.0550    4.7530 C   0  0  0  0  0  0  0  0  0  0  0  0
   15.7910   33.5060    4.4950 C   0  0  0  0  0  0  0  0  0  0  0  0
   15.2100   34.2300    5.3070 O   0  0  0  0  0  0  0  0  0  0  0  0
   15.2270   33.0840    3.3770 N   0  0  0  0  0  0  0  0  0  0  0  0
   19.1240   33.1140    8.5640 N   0  0  0  0  0  0  0  0  0  0  0  0
   19.2270   33.3020    9.9870 C   0  0  2  0  0  0  0  0  0  0  0  0
   18.1230   34.2920   10.3430 C   0  0  0  0  0  0  0  0  0  0  0  0
   17.4870   34.8670    9.4550 O   0  0  0  0  0  0  0  0  0  0  0  0
   20.6110   33.8380   10.3380 C   0  0  0  0  0  0  0  0  0  0  0  0
   21.7000   32.7790   10.3240 C   0  0  0  0  0  0  0  0  0  0  0  0
   21.9460   31.9980   11.4460 C   0  0  0  0  0  0  0  0  0  0  0  0
   22.5160   32.5980    9.2050 C   0  0  0  0  0  0  0  0  0  0  0  0
   22.9700   31.0840   11.4650 C   0  0  0  0  0  0  0  0  0  0  0  0
   23.5560   31.6740    9.2150 C   0  0  0  0  0  0  0  0  0  0  0  0
   23.7770   30.9310   10.3510 C   0  0  0  0  0  0  0  0  0  0  0  0
   24.8400   30.0750   10.4100 O   0  0  0  0  0  0  0  0  0  0  0  0
   24.6310   28.5610   10.0710 P   0  0  0  0  0  0  0  0  0  0  0  0
   24.9040   28.4840    8.6200 O   0  0  0  0  0  1  0  0  0  0  0  0
   23.2390   28.1060   10.3730 O   0  0  0  0  0  1  0  0  0  0  0  0
   25.5220   27.7330   10.9370 O   0  0  0  0  0  0  0  0  0  0  0  0
   17.8730   34.4880   11.6290 N   0  0  0  0  0  0  0  0  0  0  0  0
   16.8170   35.3990   12.0180 C   0  0  2  0  0  0  0  0  0  0  0  0
   17.3340   36.6610   12.6600 C   0  0  0  0  0  0  0  0  0  0  0  0
   18.3160   36.6560   13.4090 O   0  0  0  0  0  0  0  0  0  0  0  0
   15.8330   34.7270   12.9770 C   0  0  2  0  0  0  0  0  0  0  0  0
   15.4680   33.3530   12.4100 C   0  0  0  0  0  0  0  0  0  0  0  0
   14.6040   35.6270   13.1950 C   0  0  0  0  0  0  0  0  0  0  0  0
   13.9950   33.0540   12.3540 C   0  0  0  0  0  0  0  0  0  0  0  0
   16.6450   37.7500   12.3570 N   0  0  0  0  0  0  0  0  0  0  0  0
   16.9960   39.0400   12.8810 C   0  0  2  0  0  0  0  0  0  0  0  0
   15.9930   39.4630   13.9210 C   0  0  0  0  0  0  0  0  0  0  0  0
   14.7860   39.2140   13.7920 O   0  0  0  0  0  0  0  0  0  0  0  0
   17.0050   40.0850   11.7780 C   0  0  0  0  0  0  0  0  0  0  0  0
   18.0820   39.8890   10.7380 C   0  0  0  0  0  0  0  0  0  0  0  0
   19.3390   40.4650   10.8910 C   0  0  0  0  0  0  0  0  0  0  0  0
   17.8340   39.1400    9.5940 C   0  0  0  0  0  0  0  0  0  0  0  0
   20.3140   40.3060    9.9280 C   0  0  0  0  0  0  0  0  0  0  0  0
   18.8010   38.9730    8.6340 C   0  0  0  0  0  0  0  0  0  0  0  0
   20.0390   39.5570    8.7990 C   0  0  0  0  0  0  0  0  0  0  0  0
   20.9920   39.3770    7.8150 O   0  0  0  0  0  0  0  0  0  0  0  0
   22.5110   39.9860    7.8130 P   0  0  0  0  0  0  0  0  0  0  0  0
   23.1680   39.6710    6.5010 O   0  0  0  0  0  1  0  0  0  0  0  0
   23.2940   39.4030    8.9360 O   0  0  0  0  0  1  0  0  0  0  0  0
   22.4640   41.4730    8.0010 O   0  0  0  0  0  0  0  0  0  0  0  0
   16.5120   40.0970   14.9610 N   0  0  0  0  0  0  0  0  0  0  0  0
   15.6950   40.6380   16.0100 C   0  0  2  0  0  0  0  0  0  0  0  0
   15.1730   41.9320   15.3610 C   0  0  0  0  0  0  0  0  0  0  0  0
   15.9080   42.6280   14.6520 O   0  0  0  0  0  0  0  0  0  0  0  0
   16.5710   40.9080   17.2590 C   0  0  0  0  0  0  0  0  0  0  0  0
   15.7790   41.6280   18.3390 C   0  0  0  0  0  0  0  0  0  0  0  0
   17.0830   39.5860   17.7930 C   0  0  0  0  0  0  0  0  0  0  0  0
   13.8700   42.2140   15.5140 N   0  0  0  0  0  0  0  0  0  0  0  0
   13.2260   43.4070   14.9420 C   0  0  2  0  0  0  0  0  0  0  0  0
   13.6160   44.7540   15.4890 C   0  0  0  0  0  0  0  0  0  0  0  0
   13.8450   44.9190   16.7170 O   0  0  0  0  0  0  0  0  0  0  0  0
   11.7420   43.1230   15.1350 C   0  0  0  0  0  0  0  0  0  0  0  0
   11.6670   41.6230   15.0120 C   0  0  0  0  0  0  0  0  0  0  0  0
   12.8510   41.2070   15.8730 C   0  0  0  0  0  0  0  0  0  0  0  0
   13.6880   45.7340   14.5910 N   0  0  0  0  0  0  0  0  0  0  0  0
   14.0690   47.1090   14.8980 C   0  0  2  0  0  0  0  0  0  0  0  0
   15.5710   47.3110   14.7570 C   0  0  0  0  0  0  0  0  0  0  0  0
   15.9610   48.2040   13.9760 O   0  5  0  0  0  0  0  0  0  0  0  0
   13.5980   47.5140   16.3350 C   0  0  0  0  0  0  0  0  0  0  0  0
   16.3410   46.5530   15.4020 O   0  0  0  0  0  0  0  0  0  0  0  0
   17.3497   29.0807    5.0789 H   0  0  0  0  0  0  0  0  0  0  0  0
   17.7114   27.4784    4.9723 H   0  0  0  0  0  0  0  0  0  0  0  0
   19.8362   28.0214    5.3206 H   0  0  0  0  0  0  0  0  0  0  0  0
   20.1539   27.5070    3.0270 H   0  0  0  0  0  0  0  0  0  0  0  0
   20.7038   29.2170    3.0380 H   0  0  0  0  0  0  0  0  0  0  0  0
   18.6915   28.5096    1.3942 H   0  0  0  0  0  0  0  0  0  0  0  0
   18.5604   30.0390    2.3271 H   0  0  0  0  0  0  0  0  0  0  0  0
   16.5370   29.0194    3.0235 H   0  0  0  0  0  0  0  0  0  0  0  0
   17.1883   27.3572    2.8246 H   0  0  0  0  0  0  0  0  0  0  0  0
   17.8659   29.9444    6.3089 H   0  0  0  0  0  0  0  0  0  0  0  0
   19.4727   32.4469    6.1310 H   0  0  0  0  0  0  0  0  0  0  0  0
   17.2953   33.5853    6.7897 H   0  0  0  0  0  0  0  0  0  0  0  0
   16.4804   32.0220    6.4452 H   0  0  0  0  0  0  0  0  0  0  0  0
   17.4247   32.1900    4.1139 H   0  0  0  0  0  0  0  0  0  0  0  0
   17.8908   33.8752    4.5255 H   0  0  0  0  0  0  0  0  0  0  0  0
   14.2904   33.3560    3.1558 H   0  0  0  0  0  0  0  0  0  0  0  0
   15.7367   32.4927    2.7521 H   0  0  0  0  0  0  0  0  0  0  0  0
   19.3722   33.8604    7.9465 H   0  0  0  0  0  0  0  0  0  0  0  0
   19.0642   32.3504   10.5141 H   0  0  0  0  0  0  0  0  0  0  0  0
   20.5675   34.2775   11.3454 H   0  0  0  0  0  0  0  0  0  0  0  0
   20.8762   34.6178    9.6089 H   0  0  0  0  0  0  0  0  0  0  0  0
   21.3182   32.1123   12.3222 H   0  0  0  0  0  0  0  0  0  0  0  0
   22.3359   33.1876    8.3134 H   0  0  0  0  0  0  0  0  0  0  0  0
   23.1461   30.4836   12.3502 H   0  0  0  0  0  0  0  0  0  0  0  0
   24.1827   31.5417    8.3405 H   0  0  0  0  0  0  0  0  0  0  0  0
   18.4091   34.0108   12.3253 H   0  0  0  0  0  0  0  0  0  0  0  0
   16.2718   35.6817   11.1054 H   0  0  0  0  0  0  0  0  0  0  0  0
   16.3257   34.5816   13.9497 H   0  0  0  0  0  0  0  0  0  0  0  0
   15.9469   32.5875   13.0381 H   0  0  0  0  0  0  0  0  0  0  0  0
   15.8671   33.2901   11.3869 H   0  0  0  0  0  0  0  0  0  0  0  0
   14.9271   36.5965   13.6019 H   0  0  0  0  0  0  0  0  0  0  0  0
   13.9160   35.1429   13.9037 H   0  0  0  0  0  0  0  0  0  0  0  0
   14.0904   35.7851   12.2352 H   0  0  0  0  0  0  0  0  0  0  0  0
   13.8406   32.0492   11.9339 H   0  0  0  0  0  0  0  0  0  0  0  0
   13.4937   33.7983   11.7179 H   0  0  0  0  0  0  0  0  0  0  0  0
   13.5735   33.0957   13.3692 H   0  0  0  0  0  0  0  0  0  0  0  0
   15.8575   37.6720   11.7456 H   0  0  0  0  0  0  0  0  0  0  0  0
   17.9956   38.9819   13.3365 H   0  0  0  0  0  0  0  0  0  0  0  0
   17.1504   41.0721   12.2412 H   0  0  0  0  0  0  0  0  0  0  0  0
   16.0291   40.0579   11.2711 H   0  0  0  0  0  0  0  0  0  0  0  0
   19.5555   41.0470   11.7795 H   0  0  0  0  0  0  0  0  0  0  0  0
   16.8618   38.6804    9.4576 H   0  0  0  0  0  0  0  0  0  0  0  0
   21.2879   40.7647   10.0555 H   0  0  0  0  0  0  0  0  0  0  0  0
   18.5918   38.3836    7.7486 H   0  0  0  0  0  0  0  0  0  0  0  0
   17.5048   40.2023   15.0175 H   0  0  0  0  0  0  0  0  0  0  0  0
   14.8677   39.9635   16.2757 H   0  0  0  0  0  0  0  0  0  0  0  0
   17.4254   41.5366   16.9676 H   0  0  0  0  0  0  0  0  0  0  0  0
   16.4256   41.8055   19.2110 H   0  0  0  0  0  0  0  0  0  0  0  0
   14.9209   41.0086   18.6389 H   0  0  0  0  0  0  0  0  0  0  0  0
   15.4177   42.5908   17.9485 H   0  0  0  0  0  0  0  0  0  0  0  0
   17.6548   39.0701   17.0076 H   0  0  0  0  0  0  0  0  0  0  0  0
   16.2320   38.9595   18.0984 H   0  0  0  0  0  0  0  0  0  0  0  0
   17.7340   39.7684   18.6607 H   0  0  0  0  0  0  0  0  0  0  0  0
   13.4536   43.4328   13.8661 H   0  0  0  0  0  0  0  0  0  0  0  0
   11.1405   43.6144   14.3561 H   0  0  0  0  0  0  0  0  0  0  0  0
   11.4010   43.4562   16.1263 H   0  0  0  0  0  0  0  0  0  0  0  0
   11.7900   41.2956   13.9691 H   0  0  0  0  0  0  0  0  0  0  0  0
   10.7194   41.2310   15.4101 H   0  0  0  0  0  0  0  0  0  0  0  0
   12.6020   41.2562   16.9433 H   0  0  0  0  0  0  0  0  0  0  0  0
   13.1890   40.1909   15.6214 H   0  0  0  0  0  0  0  0  0  0  0  0
   13.4659   45.5130   13.6413 H   0  0  0  0  0  0  0  0  0  0  0  0
   13.5670   47.7688   14.1751 H   0  0  0  0  0  0  0  0  0  0  0  0
   13.8974   48.5524   16.5399 H   0  0  0  0  0  0  0  0  0  0  0  0
   14.0624   46.8457   17.0751 H   0  0  0  0  0  0  0  0  0  0  0  0
   12.5033   47.4285   16.3998 H   0  0  0  0  0  0  0  0  0  0  0  0
  1  2  1  0  0  0  0
  1  7  1  0  0  0  0
  1 77  1  0  0  0  0
  1 78  1  0  0  0  0
  2  3  1  0  0  0  0
  2  5  1  0  0  0  0
  2 79  1  1  0  0  0
  3  4  2  0  0  0  0
  3  8  1  0  0  0  0
  5  6  1  0  0  0  0
  5 80  1  0  0  0  0
  5 81  1  0  0  0  0
  6  7  1  0  0  0  0
  6 82  1  0  0  0  0
  6 83  1  0  0  0  0
  7 84  1  0  0  0  0
  7 85  1  0  0  0  0
  8  9  1  0  0  0  0
  8 86  1  0  0  0  0
  9 10  1  0  0  0  0
  9 12  1  0  0  0  0
  9 87  1  6  0  0  0
 10 11  2  0  0  0  0
 10 17  1  0  0  0  0
 12 13  1  0  0  0  0
 12 88  1  0  0  0  0
 12 89  1  0  0  0  0
 13 14  1  0  0  0  0
 13 90  1  0  0  0  0
 13 91  1  0  0  0  0
 14 15  2  0  0  0  0
 14 16  1  0  0  0  0
 16 92  1  0  0  0  0
 16 93  1  0  0  0  0
 17 18  1  0  0  0  0
 17 94  1  0  0  0  0
 18 19  1  0  0  0  0
 18 21  1  0  0  0  0
 18 95  1  1  0  0  0
 19 20  2  0  0  0  0
 19 33  1  0  0  0  0
 21 22  1  0  0  0  0
 21 96  1  0  0  0  0
 21 97  1  0  0  0  0
 22 23  2  0  0  0  0
 22 24  1  0  0  0  0
 23 25  1  0  0  0  0
 23 98  1  0  0  0  0
 24 26  2  0  0  0  0
 24 99  1  0  0  0  0
 25 27  2  0  0  0  0
 25100  1  0  0  0  0
 26 27  1  0  0  0  0
 26101  1  0  0  0  0
 27 28  1  0  0  0  0
 28 29  1  0  0  0  0
 29 30  1  0  0  0  0
 29 31  1  0  0  0  0
 29 32  2  0  0  0  0
 33 34  1  0  0  0  0
 33102  1  0  0  0  0
 34 35  1  0  0  0  0
 34 37  1  0  0  0  0
 34103  1  6  0  0  0
 35 36  2  0  0  0  0
 35 41  1  0  0  0  0
 37 38  1  0  0  0  0
 37 39  1  0  0  0  0
 37104  1  1  0  0  0
 38 40  1  0  0  0  0
 38105  1  0  0  0  0
 38106  1  0  0  0  0
 39107  1  0  0  0  0
 39108  1  0  0  0  0
 39109  1  0  0  0  0
 40110  1  0  0  0  0
 40111  1  0  0  0  0
 40112  1  0  0  0  0
 41 42  1  0  0  0  0
 41113  1  0  0  0  0
 42 43  1  0  0  0  0
 42 45  1  0  0  0  0
 42114  1  1  0  0  0
 43 44  2  0  0  0  0
 43 57  1  0  0  0  0
 45 46  1  0  0  0  0
 45115  1  0  0  0  0
 45116  1  0  0  0  0
 46 47  2  0  0  0  0
 46 48  1  0  0  0  0
 47 49  1  0  0  0  0
 47117  1  0  0  0  0
 48 50  2  0  0  0  0
 48118  1  0  0  0  0
 49 51  2  0  0  0  0
 49119  1  0  0  0  0
 50 51  1  0  0  0  0
 50120  1  0  0  0  0
 51 52  1  0  0  0  0
 52 53  1  0  0  0  0
 53 54  1  0  0  0  0
 53 55  1  0  0  0  0
 53 56  2  0  0  0  0
 57 58  1  0  0  0  0
 57121  1  0  0  0  0
 58 59  1  0  0  0  0
 58 61  1  0  0  0  0
 58122  1  1  0  0  0
 59 60  2  0  0  0  0
 59 64  1  0  0  0  0
 61 62  1  0  0  0  0
 61 63  1  0  0  0  0
 61123  1  0  0  0  0
 62124  1  0  0  0  0
 62125  1  0  0  0  0
 62126  1  0  0  0  0
 63127  1  0  0  0  0
 63128  1  0  0  0  0
 63129  1  0  0  0  0
 64 65  1  0  0  0  0
 64 70  1  0  0  0  0
 65 66  1  0  0  0  0
 65 68  1  0  0  0  0
 65130  1  6  0  0  0
 66 67  2  0  0  0  0
 66 71  1  0  0  0  0
 68 69  1  0  0  0  0
 68131  1  0  0  0  0
 68132  1  0  0  0  0
 69 70  1  0  0  0  0
 69133  1  0  0  0  0
 69134  1  0  0  0  0
 70135  1  0  0  0  0
 70136  1  0  0  0  0
 71 72  1  0  0  0  0
 71137  1  0  0  0  0
 72 73  1  0  0  0  0
 72 75  1  0  0  0  0
 72138  1  6  0  0  0
 73 74  1  0  0  0  0
 73 76  2  0  0  0  0
 75139  1  0  0  0  0
 75140  1  0  0  0  0
 75141  1  0  0  0  0
M  CHG  2   1   1  74  -1
M  END
