1o0d_ligand
 OpenBabel08222323343D

 68 70  0  0  1  0  0  0  0  0999 V2000
   10.2890   23.3880   24.1280 N   0  0  0  0  0  0  0  0  0  0  0  0
   10.9060   22.2110   24.0120 C   0  0  0  0  0  3  0  0  0  0  0  0
   10.7810   21.2900   24.9610 N   0  0  0  0  0  0  0  0  0  0  0  0
   11.7380   21.9180   22.8080 C   0  0  0  0  0  0  0  0  0  0  0  0
   12.6610   22.7550   22.1970 N   0  0  0  0  0  0  0  0  0  0  0  0
   13.0120   24.1320   22.6350 C   0  0  0  0  0  0  0  0  0  0  0  0
   11.7240   20.7530   22.0930 C   0  0  0  0  0  0  0  0  0  0  0  0
   12.6380   20.8830   21.0480 C   0  0  0  0  0  0  0  0  0  0  0  0
   13.1940   22.1020   21.1310 C   0  0  0  0  0  0  0  0  0  0  0  0
   14.2400   22.6440   20.1860 C   0  0  0  0  0  0  0  0  0  0  0  0
   15.5650   22.4780   20.8110 N   0  0  0  0  0  0  0  0  0  0  0  0
   16.4810   21.5910   20.3380 C   0  0  0  0  0  0  0  0  0  0  0  0
   16.2410   20.8910   19.3670 O   0  0  0  0  0  0  0  0  0  0  0  0
   17.8170   21.4760   21.0540 C   0  0  2  0  0  0  0  0  0  0  0  0
   18.9750   21.6320   20.0990 C   0  0  0  0  0  0  0  0  0  0  0  0
   19.6660   20.5270   20.0440 C   0  0  0  0  0  0  0  0  0  0  0  0
   19.0570   19.4920   20.9520 C   0  0  0  0  0  0  0  0  0  0  0  0
   17.9560   20.1500   21.6980 N   0  0  0  0  0  0  0  0  0  0  0  0
   17.2280   19.6440   22.7510 C   0  0  0  0  0  0  0  0  0  0  0  0
   16.3490   20.3130   23.2630 O   0  0  0  0  0  0  0  0  0  0  0  0
   17.5060   18.2500   23.2910 C   0  0  1  0  0  0  0  0  0  0  0  0
   18.1890   18.3340   24.6740 C   0  0  0  0  0  0  0  0  0  0  0  0
   19.6680   18.7370   24.5350 C   0  0  0  0  0  0  0  0  0  0  0  0
   20.1410   19.4300   25.8330 C   0  0  0  0  0  0  0  0  0  0  0  0
   21.6290   19.8410   25.7070 C   0  0  0  0  0  0  0  0  0  0  0  0
   22.5080   18.6000   25.4120 C   0  0  0  0  0  0  0  0  0  0  0  0
   22.0220   17.8880   24.1260 C   0  0  0  0  0  0  0  0  0  0  0  0
   20.5360   17.4820   24.2680 C   0  0  0  0  0  0  0  0  0  0  0  0
   16.2410   17.5120   23.4180 N   0  3  0  0  0  0  0  0  0  0  0  0
   15.7640   16.6570   22.3240 C   0  0  0  0  0  0  0  0  0  0  0  0
   14.7640   15.6560   22.8530 C   0  0  0  0  0  0  0  0  0  0  0  0
   14.7490   15.3700   24.0400 O   0  5  0  0  0  0  0  0  0  0  0  0
   13.9700   15.1290   22.0920 O   0  0  0  0  0  0  0  0  0  0  0  0
   10.3902   24.0976   23.3884 H   0  0  0  0  0  0  0  0  0  0  0  0
    9.7114   23.5872   24.9572 H   0  0  0  0  0  0  0  0  0  0  0  0
   11.2602   20.3833   24.8650 H   0  0  0  0  0  0  0  0  0  0  0  0
   10.2049   21.4825   25.7928 H   0  0  0  0  0  0  0  0  0  0  0  0
   12.4219   24.3952   23.5252 H   0  0  0  0  0  0  0  0  0  0  0  0
   12.7901   24.8422   21.8249 H   0  0  0  0  0  0  0  0  0  0  0  0
   14.0836   24.1772   22.8790 H   0  0  0  0  0  0  0  0  0  0  0  0
   11.1087   19.8792   22.3022 H   0  0  0  0  0  0  0  0  0  0  0  0
   12.8617   20.1277   20.2960 H   0  0  0  0  0  0  0  0  0  0  0  0
   14.0507   23.7106   19.9950 H   0  0  0  0  0  0  0  0  0  0  0  0
   14.2054   22.0897   19.2365 H   0  0  0  0  0  0  0  0  0  0  0  0
   15.7975   23.0354   21.6081 H   0  0  0  0  0  0  0  0  0  0  0  0
   17.8714   22.2624   21.8212 H   0  0  0  0  0  0  0  0  0  0  0  0
   19.2012   22.5368   19.5367 H   0  0  0  0  0  0  0  0  0  0  0  0
   20.5533   20.3754   19.4311 H   0  0  0  0  0  0  0  0  0  0  0  0
   19.8149   19.1154   21.6547 H   0  0  0  0  0  0  0  0  0  0  0  0
   18.6610   18.6559   20.3570 H   0  0  0  0  0  0  0  0  0  0  0  0
   18.1692   17.7187   22.5925 H   0  0  0  0  0  0  0  0  0  0  0  0
   18.1285   17.3517   25.1654 H   0  0  0  0  0  0  0  0  0  0  0  0
   17.6680   19.0837   25.2876 H   0  0  0  0  0  0  0  0  0  0  0  0
   19.7744   19.4354   23.6919 H   0  0  0  0  0  0  0  0  0  0  0  0
   20.0260   18.7358   26.6785 H   0  0  0  0  0  0  0  0  0  0  0  0
   19.5298   20.3273   26.0096 H   0  0  0  0  0  0  0  0  0  0  0  0
   21.9586   20.3030   26.6493 H   0  0  0  0  0  0  0  0  0  0  0  0
   21.7369   20.5651   24.8861 H   0  0  0  0  0  0  0  0  0  0  0  0
   22.4446   17.9012   26.2592 H   0  0  0  0  0  0  0  0  0  0  0  0
   23.5520   18.9190   25.2771 H   0  0  0  0  0  0  0  0  0  0  0  0
   22.6301   16.9870   23.9578 H   0  0  0  0  0  0  0  0  0  0  0  0
   22.1319   18.5697   23.2698 H   0  0  0  0  0  0  0  0  0  0  0  0
   20.2003   16.9975   23.3393 H   0  0  0  0  0  0  0  0  0  0  0  0
   20.4288   16.7794   25.1076 H   0  0  0  0  0  0  0  0  0  0  0  0
   15.5215   18.1984   23.5827 H   0  0  0  0  0  0  0  0  0  0  0  0
   16.3323   16.9197   24.2285 H   0  0  0  0  0  0  0  0  0  0  0  0
   16.6167   16.1215   21.8811 H   0  0  0  0  0  0  0  0  0  0  0  0
   15.2839   17.2811   21.5559 H   0  0  0  0  0  0  0  0  0  0  0  0
  1  2  1  0  0  0  0
  1 34  1  0  0  0  0
  1 35  1  0  0  0  0
  2  3  1  0  0  0  0
  2  4  1  0  0  0  0
  3 36  1  0  0  0  0
  3 37  1  0  0  0  0
  4  5  1  0  0  0  0
  4  7  2  0  0  0  0
  5  6  1  0  0  0  0
  5  9  1  0  0  0  0
  6 38  1  0  0  0  0
  6 39  1  0  0  0  0
  6 40  1  0  0  0  0
  7  8  1  0  0  0  0
  7 41  1  0  0  0  0
  8  9  2  0  0  0  0
  8 42  1  0  0  0  0
  9 10  1  0  0  0  0
 10 11  1  0  0  0  0
 10 43  1  0  0  0  0
 10 44  1  0  0  0  0
 11 12  1  0  0  0  0
 11 45  1  0  0  0  0
 12 13  2  0  0  0  0
 12 14  1  0  0  0  0
 14 15  1  0  0  0  0
 14 18  1  0  0  0  0
 14 46  1  1  0  0  0
 15 16  2  0  0  0  0
 15 47  1  0  0  0  0
 16 17  1  0  0  0  0
 16 48  1  0  0  0  0
 17 18  1  0  0  0  0
 17 49  1  0  0  0  0
 17 50  1  0  0  0  0
 18 19  1  0  0  0  0
 19 20  2  0  0  0  0
 19 21  1  0  0  0  0
 21 22  1  0  0  0  0
 21 29  1  0  0  0  0
 21 51  1  6  0  0  0
 22 23  1  0  0  0  0
 22 52  1  0  0  0  0
 22 53  1  0  0  0  0
 23 24  1  0  0  0  0
 23 28  1  0  0  0  0
 23 54  1  0  0  0  0
 24 25  1  0  0  0  0
 24 55  1  0  0  0  0
 24 56  1  0  0  0  0
 25 26  1  0  0  0  0
 25 57  1  0  0  0  0
 25 58  1  0  0  0  0
 26 27  1  0  0  0  0
 26 59  1  0  0  0  0
 26 60  1  0  0  0  0
 27 28  1  0  0  0  0
 27 61  1  0  0  0  0
 27 62  1  0  0  0  0
 28 63  1  0  0  0  0
 28 64  1  0  0  0  0
 29 30  1  0  0  0  0
 29 65  1  0  0  0  0
 29 66  1  0  0  0  0
 30 31  1  0  0  0  0
 30 67  1  0  0  0  0
 30 68  1  0  0  0  0
 31 32  1  0  0  0  0
 31 33  2  0  0  0  0
M  CHG  2  29   1  32  -1
M  END
