1o2k_ligand
 OpenBabel08222323343D

 45 47  0  0  0  0  0  0  0  0999 V2000
   44.5180   -3.0730   26.1580 C   0  0  0  0  0  0  0  0  0  0  0  0
   44.8650   -1.7100   26.2080 C   0  0  0  0  0  0  0  0  0  0  0  0
   44.8360   -0.9990   27.4010 C   0  0  0  0  0  0  0  0  0  0  0  0
   44.4600   -1.6630   28.5280 C   0  0  0  0  0  0  0  0  0  0  0  0
   44.1210   -2.9600   28.5480 C   0  0  0  0  0  0  0  0  0  0  0  0
   44.1370   -3.7100   27.3730 C   0  0  0  0  0  0  0  0  0  0  0  0
   44.5550   -3.7540   24.9100 C   0  0  0  0  0  3  0  0  0  0  0  0
   44.3240   -5.0440   24.8420 N   0  0  0  0  0  0  0  0  0  0  0  0
   44.8120   -3.0870   23.8100 N   0  0  0  0  0  0  0  0  0  0  0  0
   44.3480   -1.2540   29.7330 N   0  0  0  0  0  0  0  0  0  0  0  0
   43.7970   -3.3830   29.7540 N   0  0  0  0  0  0  0  0  0  0  0  0
   43.9590   -2.2640   30.4520 C   0  0  0  0  0  0  0  0  0  0  0  0
   43.7580   -2.1470   31.8270 C   0  0  0  0  0  0  0  0  0  0  0  0
   43.3570   -3.2480   32.5640 C   0  0  0  0  0  0  0  0  0  0  0  0
   43.1810   -3.1470   33.9330 C   0  0  0  0  0  0  0  0  0  0  0  0
   43.4040   -1.9520   34.5810 C   0  0  0  0  0  0  0  0  0  0  0  0
   43.8050   -0.8440   33.8640 C   0  0  0  0  0  0  0  0  0  0  0  0
   43.9770   -0.9380   32.4870 C   0  0  0  0  0  0  0  0  0  0  0  0
   44.3500    0.1970   31.7890 O   0  0  0  0  0  0  0  0  0  0  0  0
   44.0840    0.3560   34.5000 O   0  0  0  0  0  0  0  0  0  0  0  0
   43.7120    0.7010   35.8270 C   0  0  0  0  0  0  0  0  0  0  0  0
   44.1390    2.1850   36.1070 C   0  0  0  0  0  0  0  0  0  0  0  0
   42.8870    2.9810   36.5420 C   0  0  0  0  0  0  0  0  0  0  0  0
   45.0470    2.2250   37.3350 C   0  0  0  0  0  0  0  0  0  0  0  0
   45.1612   -1.2042   25.2961 H   0  0  0  0  0  0  0  0  0  0  0  0
   45.1042    0.0508   27.4333 H   0  0  0  0  0  0  0  0  0  0  0  0
   43.8643   -4.7591   27.3842 H   0  0  0  0  0  0  0  0  0  0  0  0
   44.3538   -5.5253   23.9318 H   0  0  0  0  0  0  0  0  0  0  0  0
   44.1128   -5.5753   25.6988 H   0  0  0  0  0  0  0  0  0  0  0  0
   44.9947   -2.0742   23.8526 H   0  0  0  0  0  0  0  0  0  0  0  0
   44.8311   -3.5761   22.9037 H   0  0  0  0  0  0  0  0  0  0  0  0
   44.5322   -0.2991   30.0723 H   0  0  0  0  0  0  0  0  0  0  0  0
   43.1799   -4.1945   32.0661 H   0  0  0  0  0  0  0  0  0  0  0  0
   42.8651   -4.0152   34.5000 H   0  0  0  0  0  0  0  0  0  0  0  0
   43.2644   -1.8825   35.6537 H   0  0  0  0  0  0  0  0  0  0  0  0
   44.4300   -0.0123   30.8658 H   0  0  0  0  0  0  0  0  0  0  0  0
   44.2178    0.0312   36.5380 H   0  0  0  0  0  0  0  0  0  0  0  0
   42.6225    0.6026   35.9422 H   0  0  0  0  0  0  0  0  0  0  0  0
   44.6237    2.6283   35.2246 H   0  0  0  0  0  0  0  0  0  0  0  0
   43.1680    4.0254   36.7428 H   0  0  0  0  0  0  0  0  0  0  0  0
   42.4661    2.5327   37.4541 H   0  0  0  0  0  0  0  0  0  0  0  0
   42.1362    2.9513   35.7386 H   0  0  0  0  0  0  0  0  0  0  0  0
   45.9769    1.6776   37.1214 H   0  0  0  0  0  0  0  0  0  0  0  0
   44.5328    1.7558   38.1867 H   0  0  0  0  0  0  0  0  0  0  0  0
   45.2852    3.2703   37.5810 H   0  0  0  0  0  0  0  0  0  0  0  0
  1  2  2  0  0  0  0
  1  6  1  0  0  0  0
  1  7  1  0  0  0  0
  2  3  1  0  0  0  0
  2 25  1  0  0  0  0
  3  4  2  0  0  0  0
  3 26  1  0  0  0  0
  4  5  1  0  0  0  0
  4 10  1  0  0  0  0
  5  6  2  0  0  0  0
  5 11  1  0  0  0  0
  6 27  1  0  0  0  0
  7  8  1  0  0  0  0
  7  9  1  0  0  0  0
  8 28  1  0  0  0  0
  8 29  1  0  0  0  0
  9 30  1  0  0  0  0
  9 31  1  0  0  0  0
 10 12  1  0  0  0  0
 10 32  1  0  0  0  0
 11 12  2  0  0  0  0
 12 13  1  0  0  0  0
 13 14  2  0  0  0  0
 13 18  1  0  0  0  0
 14 15  1  0  0  0  0
 14 33  1  0  0  0  0
 15 16  2  0  0  0  0
 15 34  1  0  0  0  0
 16 17  1  0  0  0  0
 16 35  1  0  0  0  0
 17 18  2  0  0  0  0
 17 20  1  0  0  0  0
 18 19  1  0  0  0  0
 19 36  1  0  0  0  0
 20 21  1  0  0  0  0
 21 22  1  0  0  0  0
 21 37  1  0  0  0  0
 21 38  1  0  0  0  0
 22 23  1  0  0  0  0
 22 24  1  0  0  0  0
 22 39  1  0  0  0  0
 23 40  1  0  0  0  0
 23 41  1  0  0  0  0
 23 42  1  0  0  0  0
 24 43  1  0  0  0  0
 24 44  1  0  0  0  0
 24 45  1  0  0  0  0
M  END
