1o2p_ligand
 OpenBabel08222323343D

 45 47  0  0  0  0  0  0  0  0999 V2000
   43.9720   -2.9830   25.7790 C   0  0  0  0  0  0  0  0  0  0  0  0
   43.8090   -1.5640   25.6740 C   0  0  0  0  0  0  0  0  0  0  0  0
   43.7880   -0.6990   24.1030 Cl  0  0  0  0  0  0  0  0  0  0  0  0
   43.6090   -0.8180   26.8510 C   0  0  0  0  0  0  0  0  0  0  0  0
   43.5700   -1.4800   28.0670 C   0  0  0  0  0  0  0  0  0  0  0  0
   43.7160   -2.8090   28.1770 C   0  0  0  0  0  0  0  0  0  0  0  0
   43.9210   -3.5970   27.0460 C   0  0  0  0  0  0  0  0  0  0  0  0
   44.1940   -3.7910   24.6490 C   0  0  0  0  0  3  0  0  0  0  0  0
   43.7870   -5.0460   24.6360 N   0  0  0  0  0  0  0  0  0  0  0  0
   44.8350   -3.2670   23.6250 N   0  0  0  0  0  0  0  0  0  0  0  0
   43.4090   -1.0610   29.2760 N   0  0  0  0  0  0  0  0  0  0  0  0
   43.6480   -3.2330   29.4210 N   0  0  0  0  0  0  0  0  0  0  0  0
   43.4560   -2.0950   30.0680 C   0  0  0  0  0  0  0  0  0  0  0  0
   43.2590   -1.9810   31.4600 C   0  0  0  0  0  0  0  0  0  0  0  0
   43.1470   -3.1270   32.2600 C   0  0  0  0  0  0  0  0  0  0  0  0
   42.9480   -3.0230   33.6360 C   0  0  0  0  0  0  0  0  0  0  0  0
   42.8570   -1.7860   34.2280 C   0  0  0  0  0  0  0  0  0  0  0  0
   42.9620   -0.6110   33.4590 C   0  0  0  0  0  0  0  0  0  0  0  0
   43.1610   -0.7020   32.0710 C   0  0  0  0  0  0  0  0  0  0  0  0
   43.2610    0.4630   31.3070 O   0  0  0  0  0  0  0  0  0  0  0  0
   42.8720    0.6490   34.0470 O   0  0  0  0  0  0  0  0  0  0  0  0
   42.8820    0.8410   35.4740 C   0  0  0  0  0  0  0  0  0  0  0  0
   43.1960    2.3330   35.8900 C   0  0  0  0  0  0  0  0  0  0  0  0
   44.2420    2.3670   37.0430 C   0  0  0  0  0  0  0  0  0  0  0  0
   43.7830    3.1280   34.7500 C   0  0  0  0  0  0  0  0  0  0  0  0
   43.4874    0.2582   26.8063 H   0  0  0  0  0  0  0  0  0  0  0  0
   44.0399   -4.6704   27.1401 H   0  0  0  0  0  0  0  0  0  0  0  0
   43.9525   -5.6325   23.8056 H   0  0  0  0  0  0  0  0  0  0  0  0
   43.3038   -5.4392   25.4562 H   0  0  0  0  0  0  0  0  0  0  0  0
   45.1430   -2.2847   23.6582 H   0  0  0  0  0  0  0  0  0  0  0  0
   45.0284   -3.8394   22.7908 H   0  0  0  0  0  0  0  0  0  0  0  0
   43.2682   -0.0823   29.5646 H   0  0  0  0  0  0  0  0  0  0  0  0
   43.2161   -4.1073   31.8024 H   0  0  0  0  0  0  0  0  0  0  0  0
   42.8649   -3.9193   34.2400 H   0  0  0  0  0  0  0  0  0  0  0  0
   42.7027   -1.7141   35.2986 H   0  0  0  0  0  0  0  0  0  0  0  0
   43.3931    0.2319   30.3951 H   0  0  0  0  0  0  0  0  0  0  0  0
   43.6495    0.1855   35.9113 H   0  0  0  0  0  0  0  0  0  0  0  0
   41.8943    0.5657   35.8724 H   0  0  0  0  0  0  0  0  0  0  0  0
   42.2618    2.8087   36.2230 H   0  0  0  0  0  0  0  0  0  0  0  0
   44.4487    3.4113   37.3198 H   0  0  0  0  0  0  0  0  0  0  0  0
   45.1726    1.8854   36.7082 H   0  0  0  0  0  0  0  0  0  0  0  0
   43.8437    1.8284   37.9155 H   0  0  0  0  0  0  0  0  0  0  0  0
   43.0777    3.1341   33.9059 H   0  0  0  0  0  0  0  0  0  0  0  0
   44.7308    2.6689   34.4326 H   0  0  0  0  0  0  0  0  0  0  0  0
   43.9683    4.1607   35.0803 H   0  0  0  0  0  0  0  0  0  0  0  0
  1  2  2  0  0  0  0
  1  7  1  0  0  0  0
  1  8  1  0  0  0  0
  2  3  1  0  0  0  0
  2  4  1  0  0  0  0
  4  5  2  0  0  0  0
  4 26  1  0  0  0  0
  5  6  1  0  0  0  0
  5 11  1  0  0  0  0
  6  7  2  0  0  0  0
  6 12  1  0  0  0  0
  7 27  1  0  0  0  0
  8  9  1  0  0  0  0
  8 10  1  0  0  0  0
  9 28  1  0  0  0  0
  9 29  1  0  0  0  0
 10 30  1  0  0  0  0
 10 31  1  0  0  0  0
 11 13  1  0  0  0  0
 11 32  1  0  0  0  0
 12 13  2  0  0  0  0
 13 14  1  0  0  0  0
 14 15  2  0  0  0  0
 14 19  1  0  0  0  0
 15 16  1  0  0  0  0
 15 33  1  0  0  0  0
 16 17  2  0  0  0  0
 16 34  1  0  0  0  0
 17 18  1  0  0  0  0
 17 35  1  0  0  0  0
 18 19  2  0  0  0  0
 18 21  1  0  0  0  0
 19 20  1  0  0  0  0
 20 36  1  0  0  0  0
 21 22  1  0  0  0  0
 22 23  1  0  0  0  0
 22 37  1  0  0  0  0
 22 38  1  0  0  0  0
 23 24  1  0  0  0  0
 23 25  1  0  0  0  0
 23 39  1  0  0  0  0
 24 40  1  0  0  0  0
 24 41  1  0  0  0  0
 24 42  1  0  0  0  0
 25 43  1  0  0  0  0
 25 44  1  0  0  0  0
 25 45  1  0  0  0  0
M  END
