1o2t_ligand
 OpenBabel08222323343D

 47 50  0  0  0  0  0  0  0  0999 V2000
   44.2780   -3.1340   26.0590 C   0  0  0  0  0  0  0  0  0  0  0  0
   44.6320   -1.7640   26.1090 C   0  0  0  0  0  0  0  0  0  0  0  0
   44.5840   -1.0180   27.2880 C   0  0  0  0  0  0  0  0  0  0  0  0
   44.1730   -1.6670   28.4050 C   0  0  0  0  0  0  0  0  0  0  0  0
   43.8190   -2.9600   28.4280 C   0  0  0  0  0  0  0  0  0  0  0  0
   43.8590   -3.7220   27.2640 C   0  0  0  0  0  0  0  0  0  0  0  0
   44.3490   -3.8640   24.8650 C   0  0  0  0  0  3  0  0  0  0  0  0
   43.9970   -5.1330   24.8270 N   0  0  0  0  0  0  0  0  0  0  0  0
   44.7820   -3.2510   23.7920 N   0  0  0  0  0  0  0  0  0  0  0  0
   44.0500   -1.2020   29.6330 N   0  0  0  0  0  0  0  0  0  0  0  0
   43.3960   -3.2290   29.6720 C   0  0  0  0  0  0  0  0  0  0  0  0
   43.6260   -2.1350   30.4700 C   0  0  0  0  0  0  0  0  0  0  0  0
   43.3930   -1.8930   31.8160 C   0  0  0  0  0  0  0  0  0  0  0  0
   43.0830   -2.9860   32.6260 C   0  0  0  0  0  0  0  0  0  0  0  0
   42.8380   -2.8490   33.9750 C   0  0  0  0  0  0  0  0  0  0  0  0
   42.5180   -3.9370   34.7750 O   0  0  0  0  0  0  0  0  0  0  0  0
   41.1470   -3.9560   35.1580 C   0  0  0  0  0  0  0  0  0  0  0  0
   42.9000   -1.6070   34.5350 C   0  0  0  0  0  0  0  0  0  0  0  0
   43.2020   -0.4760   33.8010 C   0  0  0  0  0  0  0  0  0  0  0  0
   43.4470   -0.6200   32.4130 C   0  0  0  0  0  0  0  0  0  0  0  0
   43.7190    0.4550   31.5840 O   0  0  0  0  0  0  0  0  0  0  0  0
   43.2590    0.7010   34.5330 C   0  0  0  0  0  0  0  0  0  0  0  0
   44.4190    1.4820   34.5830 C   0  0  0  0  0  0  0  0  0  0  0  0
   44.4820    2.6380   35.3460 C   0  0  0  0  0  0  0  0  0  0  0  0
   43.3820    3.0290   36.0880 C   0  0  0  0  0  0  0  0  0  0  0  0
   42.2150    2.2800   36.0650 C   0  0  0  0  0  0  0  0  0  0  0  0
   42.1600    1.1250   35.2950 C   0  0  0  0  0  0  0  0  0  0  0  0
   44.9528   -1.2753   25.1961 H   0  0  0  0  0  0  0  0  0  0  0  0
   44.8619    0.0296   27.3093 H   0  0  0  0  0  0  0  0  0  0  0  0
   43.5678   -4.7659   27.2872 H   0  0  0  0  0  0  0  0  0  0  0  0
   44.0544   -5.6571   23.9422 H   0  0  0  0  0  0  0  0  0  0  0  0
   43.6644   -5.6010   25.6821 H   0  0  0  0  0  0  0  0  0  0  0  0
   45.0529   -2.2584   23.8399 H   0  0  0  0  0  0  0  0  0  0  0  0
   44.8517   -3.7614   22.9001 H   0  0  0  0  0  0  0  0  0  0  0  0
   44.2585   -0.2313   29.9070 H   0  0  0  0  0  0  0  0  0  0  0  0
   42.9430   -4.1644   29.9971 H   0  0  0  0  0  0  0  0  0  0  0  0
   43.0334   -3.9730   32.1805 H   0  0  0  0  0  0  0  0  0  0  0  0
   40.9545   -4.8370   35.7878 H   0  0  0  0  0  0  0  0  0  0  0  0
   40.5156   -4.0033   34.2585 H   0  0  0  0  0  0  0  0  0  0  0  0
   40.9116   -3.0424   35.7237 H   0  0  0  0  0  0  0  0  0  0  0  0
   42.7049   -1.5032   35.5962 H   0  0  0  0  0  0  0  0  0  0  0  0
   44.5040    0.8963   31.8867 H   0  0  0  0  0  0  0  0  0  0  0  0
   45.2883    1.1762   34.0121 H   0  0  0  0  0  0  0  0  0  0  0  0
   45.3885    3.2322   35.3610 H   0  0  0  0  0  0  0  0  0  0  0  0
   43.4325    3.9277   36.6921 H   0  0  0  0  0  0  0  0  0  0  0  0
   41.3531    2.5932   36.6430 H   0  0  0  0  0  0  0  0  0  0  0  0
   41.2483    0.5387   35.2827 H   0  0  0  0  0  0  0  0  0  0  0  0
  1  2  2  0  0  0  0
  1  6  1  0  0  0  0
  1  7  1  0  0  0  0
  2  3  1  0  0  0  0
  2 28  1  0  0  0  0
  3  4  2  0  0  0  0
  3 29  1  0  0  0  0
  4  5  1  0  0  0  0
  4 10  1  0  0  0  0
  5  6  2  0  0  0  0
  5 11  1  0  0  0  0
  6 30  1  0  0  0  0
  7  8  1  0  0  0  0
  7  9  1  0  0  0  0
  8 31  1  0  0  0  0
  8 32  1  0  0  0  0
  9 33  1  0  0  0  0
  9 34  1  0  0  0  0
 10 12  1  0  0  0  0
 10 35  1  0  0  0  0
 11 36  1  0  0  0  0
 12 11  2  0  0  0  0
 12 13  1  0  0  0  0
 13 14  2  0  0  0  0
 13 20  1  0  0  0  0
 14 15  1  0  0  0  0
 14 37  1  0  0  0  0
 15 16  1  0  0  0  0
 15 18  2  0  0  0  0
 16 17  1  0  0  0  0
 17 38  1  0  0  0  0
 17 39  1  0  0  0  0
 17 40  1  0  0  0  0
 18 19  1  0  0  0  0
 18 41  1  0  0  0  0
 19 20  2  0  0  0  0
 19 22  1  0  0  0  0
 20 21  1  0  0  0  0
 21 42  1  0  0  0  0
 22 23  2  0  0  0  0
 22 27  1  0  0  0  0
 23 24  1  0  0  0  0
 23 43  1  0  0  0  0
 24 25  2  0  0  0  0
 24 44  1  0  0  0  0
 25 26  1  0  0  0  0
 25 45  1  0  0  0  0
 26 46  1  0  0  0  0
 27 26  2  0  0  0  0
 27 47  1  0  0  0  0
M  END
