1o2u_ligand
 OpenBabel08222323343D

 42 44  0  0  1  0  0  0  0  0999 V2000
   44.1980   -3.1170   26.0000 C   0  0  0  0  0  0  0  0  0  0  0  0
   44.5440   -1.7560   26.2980 C   0  0  0  0  0  0  0  0  0  0  0  0
   44.4350   -1.2030   27.5900 C   0  0  0  0  0  0  0  0  0  0  0  0
   43.9780   -2.0460   28.5660 C   0  0  0  0  0  0  0  0  0  0  0  0
   43.6420   -3.3250   28.3290 C   0  0  0  0  0  0  0  0  0  0  0  0
   43.7280   -3.9110   27.0820 C   0  0  0  0  0  0  0  0  0  0  0  0
   44.3220   -3.6520   24.6930 C   0  0  0  0  0  3  0  0  0  0  0  0
   44.0060   -4.9080   24.4640 N   0  0  0  0  0  0  0  0  0  0  0  0
   44.7540   -2.8890   23.7140 N   0  0  0  0  0  0  0  0  0  0  0  0
   43.7760   -1.8470   29.8240 N   0  0  0  0  0  0  0  0  0  0  0  0
   43.2270   -3.9550   29.4070 N   0  0  0  0  0  0  0  0  0  0  0  0
   43.3390   -2.9820   30.2910 C   0  0  0  0  0  0  0  0  0  0  0  0
   43.0340   -3.2050   31.6530 C   0  0  0  0  0  0  0  0  0  0  0  0
   42.4410   -4.4100   32.1240 C   0  0  0  0  0  0  0  0  0  0  0  0
   42.1390   -4.6260   33.4900 C   0  0  0  0  0  0  0  0  0  0  0  0
   41.4620   -5.9100   34.0240 C   0  0  2  0  0  0  0  0  0  0  0  0
   39.9570   -5.5950   33.7240 C   0  0  0  0  0  0  0  0  0  0  0  0
   39.4120   -6.2490   32.8500 O   0  5  0  0  0  0  0  0  0  0  0  0
   39.4180   -4.7020   34.3700 O   0  0  0  0  0  0  0  0  0  0  0  0
   41.6700   -6.2130   35.6230 C   0  0  0  0  0  0  0  0  0  0  0  0
   43.0320   -6.8500   36.1510 C   0  0  0  0  0  0  0  0  0  0  0  0
   43.2740   -8.0180   35.9280 O   0  5  0  0  0  0  0  0  0  0  0  0
   43.8160   -6.1730   36.8010 O   0  0  0  0  0  0  0  0  0  0  0  0
   42.4440   -3.6370   34.3760 C   0  0  0  0  0  0  0  0  0  0  0  0
   43.0160   -2.4870   33.9490 C   0  0  0  0  0  0  0  0  0  0  0  0
   43.3190   -2.2260   32.6260 C   0  0  0  0  0  0  0  0  0  0  0  0
   43.8690   -0.9990   32.3010 O   0  0  0  0  0  0  0  0  0  0  0  0
   43.4920   -1.3440   35.4140 Br  0  0  0  0  0  0  0  0  0  0  0  0
   44.9052   -1.1255   25.4936 H   0  0  0  0  0  0  0  0  0  0  0  0
   44.6974   -0.1720   27.7978 H   0  0  0  0  0  0  0  0  0  0  0  0
   43.4454   -4.9467   26.9320 H   0  0  0  0  0  0  0  0  0  0  0  0
   44.0960   -5.2968   23.5145 H   0  0  0  0  0  0  0  0  0  0  0  0
   43.6685   -5.5028   25.2342 H   0  0  0  0  0  0  0  0  0  0  0  0
   45.0004   -1.9059   23.8976 H   0  0  0  0  0  0  0  0  0  0  0  0
   44.8462   -3.2741   22.7632 H   0  0  0  0  0  0  0  0  0  0  0  0
   43.9282   -0.9741   30.3492 H   0  0  0  0  0  0  0  0  0  0  0  0
   42.2119   -5.1923   31.4094 H   0  0  0  0  0  0  0  0  0  0  0  0
   41.8089   -6.7862   33.4567 H   0  0  0  0  0  0  0  0  0  0  0  0
   40.8637   -6.8988   35.9221 H   0  0  0  0  0  0  0  0  0  0  0  0
   41.5471   -5.2527   36.1452 H   0  0  0  0  0  0  0  0  0  0  0  0
   42.2272   -3.7719   35.4295 H   0  0  0  0  0  0  0  0  0  0  0  0
   44.6914   -0.8894   32.7636 H   0  0  0  0  0  0  0  0  0  0  0  0
  1  2  2  0  0  0  0
  1  6  1  0  0  0  0
  1  7  1  0  0  0  0
  2  3  1  0  0  0  0
  2 29  1  0  0  0  0
  3  4  2  0  0  0  0
  3 30  1  0  0  0  0
  4  5  1  0  0  0  0
  4 10  1  0  0  0  0
  5  6  2  0  0  0  0
  5 11  1  0  0  0  0
  6 31  1  0  0  0  0
  7  8  1  0  0  0  0
  7  9  1  0  0  0  0
  8 32  1  0  0  0  0
  8 33  1  0  0  0  0
  9 34  1  0  0  0  0
  9 35  1  0  0  0  0
 10 12  1  0  0  0  0
 10 36  1  0  0  0  0
 11 12  2  0  0  0  0
 12 13  1  0  0  0  0
 13 14  2  0  0  0  0
 13 26  1  0  0  0  0
 14 15  1  0  0  0  0
 14 37  1  0  0  0  0
 15 16  1  0  0  0  0
 15 24  2  0  0  0  0
 16 17  1  0  0  0  0
 16 20  1  0  0  0  0
 16 38  1  6  0  0  0
 17 18  1  0  0  0  0
 17 19  2  0  0  0  0
 20 21  1  0  0  0  0
 20 39  1  0  0  0  0
 20 40  1  0  0  0  0
 21 22  1  0  0  0  0
 21 23  2  0  0  0  0
 24 25  1  0  0  0  0
 24 41  1  0  0  0  0
 25 26  2  0  0  0  0
 25 28  1  0  0  0  0
 26 27  1  0  0  0  0
 27 42  1  0  0  0  0
M  CHG  2  18  -1  22  -1
M  END
