1o2v_ligand
 OpenBabel08222323343D

 42 44  0  0  1  0  0  0  0  0999 V2000
   44.0890   -2.9160   26.5630 C   0  0  0  0  0  0  0  0  0  0  0  0
   44.4540   -1.5420   26.5400 C   0  0  0  0  0  0  0  0  0  0  0  0
   44.4070   -0.7280   27.6810 C   0  0  0  0  0  0  0  0  0  0  0  0
   43.9890   -1.3190   28.8370 C   0  0  0  0  0  0  0  0  0  0  0  0
   43.6290   -2.6030   28.9240 C   0  0  0  0  0  0  0  0  0  0  0  0
   43.6620   -3.4560   27.8120 C   0  0  0  0  0  0  0  0  0  0  0  0
   44.1610   -3.6760   25.3890 C   0  0  0  0  0  3  0  0  0  0  0  0
   44.0410   -4.9790   25.4560 N   0  0  0  0  0  0  0  0  0  0  0  0
   44.3470   -3.0680   24.2280 N   0  0  0  0  0  0  0  0  0  0  0  0
   43.8540   -0.8140   30.0080 N   0  0  0  0  0  0  0  0  0  0  0  0
   43.2670   -2.9360   30.1540 N   0  0  0  0  0  0  0  0  0  0  0  0
   43.4290   -1.7700   30.7650 C   0  0  0  0  0  0  0  0  0  0  0  0
   43.1630   -1.5650   32.1360 C   0  0  0  0  0  0  0  0  0  0  0  0
   42.7830   -2.6280   32.9540 C   0  0  0  0  0  0  0  0  0  0  0  0
   42.4920   -2.5030   34.3220 C   0  0  0  0  0  0  0  0  0  0  0  0
   42.0100   -3.8340   35.0120 C   0  0  2  0  0  0  0  0  0  0  0  0
   40.5720   -4.1410   34.4250 C   0  0  0  0  0  0  0  0  0  0  0  0
   40.4140   -5.1680   33.7870 O   0  5  0  0  0  0  0  0  0  0  0  0
   39.6640   -3.3510   34.6050 O   0  0  0  0  0  0  0  0  0  0  0  0
   42.0610   -3.8530   36.6210 C   0  0  0  0  0  0  0  0  0  0  0  0
   43.0160   -4.9420   37.2840 C   0  0  0  0  0  0  0  0  0  0  0  0
   43.3430   -5.9550   36.6890 O   0  5  0  0  0  0  0  0  0  0  0  0
   43.4300   -4.7540   38.4170 O   0  0  0  0  0  0  0  0  0  0  0  0
   42.5960   -1.2290   34.9070 C   0  0  0  0  0  0  0  0  0  0  0  0
   42.9770   -0.0830   34.1370 C   0  0  0  0  0  0  0  0  0  0  0  0
   43.2520   -0.2960   32.7520 C   0  0  0  0  0  0  0  0  0  0  0  0
   43.6030    0.8010   32.0050 O   0  0  0  0  0  0  0  0  0  0  0  0
   43.0840    1.7460   34.9270 Br  0  0  0  0  0  0  0  0  0  0  0  0
   44.7817   -1.1063   25.6031 H   0  0  0  0  0  0  0  0  0  0  0  0
   44.6887    0.3182   27.6460 H   0  0  0  0  0  0  0  0  0  0  0  0
   43.3712   -4.4966   27.8990 H   0  0  0  0  0  0  0  0  0  0  0  0
   44.0927   -5.5458   24.5975 H   0  0  0  0  0  0  0  0  0  0  0  0
   43.8950   -5.4366   26.3672 H   0  0  0  0  0  0  0  0  0  0  0  0
   44.4394   -2.0428   24.1925 H   0  0  0  0  0  0  0  0  0  0  0  0
   44.3993   -3.6201   23.3601 H   0  0  0  0  0  0  0  0  0  0  0  0
   44.0459    0.1584   30.2883 H   0  0  0  0  0  0  0  0  0  0  0  0
   42.7075   -3.6123   32.5061 H   0  0  0  0  0  0  0  0  0  0  0  0
   42.6859   -4.6360   34.6805 H   0  0  0  0  0  0  0  0  0  0  0  0
   41.0398   -4.0358   36.9866 H   0  0  0  0  0  0  0  0  0  0  0  0
   42.3989   -2.8617   36.9574 H   0  0  0  0  0  0  0  0  0  0  0  0
   42.3833   -1.1114   35.9634 H   0  0  0  0  0  0  0  0  0  0  0  0
   43.7598    0.5341   31.1069 H   0  0  0  0  0  0  0  0  0  0  0  0
  1  2  2  0  0  0  0
  1  6  1  0  0  0  0
  1  7  1  0  0  0  0
  2  3  1  0  0  0  0
  2 29  1  0  0  0  0
  3  4  2  0  0  0  0
  3 30  1  0  0  0  0
  4  5  1  0  0  0  0
  4 10  1  0  0  0  0
  5  6  2  0  0  0  0
  5 11  1  0  0  0  0
  6 31  1  0  0  0  0
  7  8  1  0  0  0  0
  7  9  1  0  0  0  0
  8 32  1  0  0  0  0
  8 33  1  0  0  0  0
  9 34  1  0  0  0  0
  9 35  1  0  0  0  0
 10 12  1  0  0  0  0
 10 36  1  0  0  0  0
 11 12  2  0  0  0  0
 12 13  1  0  0  0  0
 13 14  2  0  0  0  0
 13 26  1  0  0  0  0
 14 15  1  0  0  0  0
 14 37  1  0  0  0  0
 15 16  1  0  0  0  0
 15 24  2  0  0  0  0
 16 17  1  0  0  0  0
 16 20  1  0  0  0  0
 16 38  1  6  0  0  0
 17 18  1  0  0  0  0
 17 19  2  0  0  0  0
 20 21  1  0  0  0  0
 20 39  1  0  0  0  0
 20 40  1  0  0  0  0
 21 22  1  0  0  0  0
 21 23  2  0  0  0  0
 24 25  1  0  0  0  0
 24 41  1  0  0  0  0
 25 26  2  0  0  0  0
 25 28  1  0  0  0  0
 26 27  1  0  0  0  0
 27 42  1  0  0  0  0
M  CHG  2  18  -1  22  -1
M  END
