1o3e_ligand
 OpenBabel08222323343D

 43 46  0  0  0  0  0  0  0  0999 V2000
   44.3120   -3.0750   26.4970 C   0  0  0  0  0  0  0  0  0  0  0  0
   44.6700   -1.6920   26.4710 C   0  0  0  0  0  0  0  0  0  0  0  0
   44.6720   -0.8720   27.6030 C   0  0  0  0  0  0  0  0  0  0  0  0
   44.3020   -1.4620   28.7630 C   0  0  0  0  0  0  0  0  0  0  0  0
   43.9530   -2.7800   28.8630 C   0  0  0  0  0  0  0  0  0  0  0  0
   43.9430   -3.6280   27.7490 C   0  0  0  0  0  0  0  0  0  0  0  0
   44.3430   -3.8310   25.3190 C   0  0  0  0  0  3  0  0  0  0  0  0
   44.0400   -5.1120   25.3400 N   0  0  0  0  0  0  0  0  0  0  0  0
   44.6870   -3.2250   24.1970 N   0  0  0  0  0  0  0  0  0  0  0  0
   44.2120   -1.0010   29.9660 N   0  0  0  0  0  0  0  0  0  0  0  0
   43.6470   -3.1350   30.1200 C   0  0  0  0  0  0  0  0  0  0  0  0
   43.8430   -1.9850   30.7110 C   0  0  0  0  0  0  0  0  0  0  0  0
   43.5710   -1.8430   32.0690 C   0  0  0  0  0  0  0  0  0  0  0  0
   43.3280   -2.9750   32.8530 C   0  0  0  0  0  0  0  0  0  0  0  0
   43.0450   -2.8810   34.2010 C   0  0  0  0  0  0  0  0  0  0  0  0
   42.9980   -1.6440   34.8050 C   0  0  0  0  0  0  0  0  0  0  0  0
   43.2290   -0.4620   34.0680 C   0  0  0  0  0  0  0  0  0  0  0  0
   43.5180   -0.5850   32.6990 C   0  0  0  0  0  0  0  0  0  0  0  0
   43.7790    0.5550   31.9530 O   0  0  0  0  0  0  0  0  0  0  0  0
   43.1620    0.7840   34.7020 C   0  0  0  0  0  0  0  0  0  0  0  0
   44.1870    1.7290   34.5880 C   0  0  0  0  0  0  0  0  0  0  0  0
   44.1240    2.9570   35.2250 C   0  0  0  0  0  0  0  0  0  0  0  0
   43.0300    3.2880   36.0040 C   0  0  0  0  0  0  0  0  0  0  0  0
   41.9850    2.3730   36.1400 C   0  0  0  0  0  0  0  0  0  0  0  0
   42.0560    1.1370   35.4920 C   0  0  0  0  0  0  0  0  0  0  0  0
   44.9558   -1.2546   25.5212 H   0  0  0  0  0  0  0  0  0  0  0  0
   44.9531    0.1738   27.5544 H   0  0  0  0  0  0  0  0  0  0  0  0
   43.6628   -4.6712   27.8407 H   0  0  0  0  0  0  0  0  0  0  0  0
   44.0651   -5.6615   24.4692 H   0  0  0  0  0  0  0  0  0  0  0  0
   43.7778   -5.5647   26.2273 H   0  0  0  0  0  0  0  0  0  0  0  0
   44.9201   -2.2217   24.2041 H   0  0  0  0  0  0  0  0  0  0  0  0
   44.7222   -3.7557   23.3149 H   0  0  0  0  0  0  0  0  0  0  0  0
   44.3988   -0.0349   30.2704 H   0  0  0  0  0  0  0  0  0  0  0  0
   43.3301   -4.0942   30.5267 H   0  0  0  0  0  0  0  0  0  0  0  0
   43.3628   -3.9542   32.3892 H   0  0  0  0  0  0  0  0  0  0  0  0
   42.8605   -3.7774   34.7819 H   0  0  0  0  0  0  0  0  0  0  0  0
   42.7799   -1.5768   35.8647 H   0  0  0  0  0  0  0  0  0  0  0  0
   43.9550    0.3093   31.0524 H   0  0  0  0  0  0  0  0  0  0  0  0
   45.0555    1.4933   33.9837 H   0  0  0  0  0  0  0  0  0  0  0  0
   44.9380    3.6640   35.1123 H   0  0  0  0  0  0  0  0  0  0  0  0
   42.9848    4.2487   36.5040 H   0  0  0  0  0  0  0  0  0  0  0  0
   41.1211    2.6203   36.7463 H   0  0  0  0  0  0  0  0  0  0  0  0
   41.2381    0.4341   35.6017 H   0  0  0  0  0  0  0  0  0  0  0  0
  1  2  2  0  0  0  0
  1  6  1  0  0  0  0
  1  7  1  0  0  0  0
  2  3  1  0  0  0  0
  2 26  1  0  0  0  0
  3  4  2  0  0  0  0
  3 27  1  0  0  0  0
  4  5  1  0  0  0  0
  4 10  1  0  0  0  0
  5  6  2  0  0  0  0
  5 11  1  0  0  0  0
  6 28  1  0  0  0  0
  7  8  1  0  0  0  0
  7  9  1  0  0  0  0
  8 29  1  0  0  0  0
  8 30  1  0  0  0  0
  9 31  1  0  0  0  0
  9 32  1  0  0  0  0
 10 12  1  0  0  0  0
 10 33  1  0  0  0  0
 11 12  2  0  0  0  0
 11 34  1  0  0  0  0
 12 13  1  0  0  0  0
 13 14  2  0  0  0  0
 13 18  1  0  0  0  0
 14 15  1  0  0  0  0
 14 35  1  0  0  0  0
 15 16  2  0  0  0  0
 15 36  1  0  0  0  0
 16 17  1  0  0  0  0
 16 37  1  0  0  0  0
 17 18  2  0  0  0  0
 17 20  1  0  0  0  0
 18 19  1  0  0  0  0
 19 38  1  0  0  0  0
 20 21  2  0  0  0  0
 20 25  1  0  0  0  0
 21 22  1  0  0  0  0
 21 39  1  0  0  0  0
 22 23  2  0  0  0  0
 22 40  1  0  0  0  0
 23 24  1  0  0  0  0
 23 41  1  0  0  0  0
 24 25  2  0  0  0  0
 24 42  1  0  0  0  0
 25 43  1  0  0  0  0
M  END
