1o3p_ligand
 OpenBabel08222323343D

 46 49  0  0  0  0  0  0  0  0999 V2000
    8.7880    1.4610   24.6060 C   0  0  0  0  0  0  0  0  0  0  0  0
    9.5720    1.3020   23.4300 C   0  0  0  0  0  0  0  0  0  0  0  0
   10.2020    2.3670   22.8100 C   0  0  0  0  0  0  0  0  0  0  0  0
    9.9720    3.6110   23.3310 C   0  0  0  0  0  0  0  0  0  0  0  0
    9.2090    3.8120   24.4350 C   0  0  0  0  0  0  0  0  0  0  0  0
    8.5920    2.7660   25.0710 C   0  0  0  0  0  0  0  0  0  0  0  0
    8.1880    0.3730   25.2350 C   0  0  0  0  0  3  0  0  0  0  0  0
    7.7520    0.4860   26.4730 N   0  0  0  0  0  0  0  0  0  0  0  0
    8.0910   -0.7720   24.6100 N   0  0  0  0  0  0  0  0  0  0  0  0
   10.3730    4.7820   22.9850 N   0  0  0  0  0  0  0  0  0  0  0  0
    9.1170    5.0700   24.7840 N   0  0  0  0  0  0  0  0  0  0  0  0
    9.8770    5.6220   23.8530 C   0  0  0  0  0  0  0  0  0  0  0  0
   10.1130    6.9650   23.7750 C   0  0  0  0  0  0  0  0  0  0  0  0
    9.7870    7.8200   24.8490 C   0  0  0  0  0  0  0  0  0  0  0  0
   10.0400    9.1930   24.7850 C   0  0  0  0  0  0  0  0  0  0  0  0
   10.6290    9.7250   23.6570 C   0  0  0  0  0  0  0  0  0  0  0  0
   10.9610    8.8870   22.5700 C   0  0  0  0  0  0  0  0  0  0  0  0
   11.5570    9.3300   21.3960 O   0  0  0  0  0  0  0  0  0  0  0  0
   10.7210    7.5300   22.6460 C   0  0  0  0  0  0  0  0  0  0  0  0
   11.1000    6.7680   21.5450 O   0  0  0  0  0  0  0  0  0  0  0  0
   11.8090   11.0280   19.7310 C   0  0  0  0  0  0  0  0  0  0  0  0
   11.8600   10.7160   21.2250 C   0  0  0  0  0  0  0  0  0  0  0  0
   13.2910   10.8790   21.6920 C   0  0  0  0  0  0  0  0  0  0  0  0
   14.1130   11.3710   20.5140 C   0  0  0  0  0  0  0  0  0  0  0  0
   13.2440   11.2120   19.2770 C   0  0  0  0  0  0  0  0  0  0  0  0
    9.6800    0.3111   23.0040 H   0  0  0  0  0  0  0  0  0  0  0  0
   10.8477    2.2222   21.9514 H   0  0  0  0  0  0  0  0  0  0  0  0
    7.9558    2.9489   25.9294 H   0  0  0  0  0  0  0  0  0  0  0  0
    7.3082   -0.3187   26.9382 H   0  0  0  0  0  0  0  0  0  0  0  0
    7.8549    1.3791   26.9757 H   0  0  0  0  0  0  0  0  0  0  0  0
    8.4317   -0.8609   23.6421 H   0  0  0  0  0  0  0  0  0  0  0  0
    7.6739   -1.5847   25.0858 H   0  0  0  0  0  0  0  0  0  0  0  0
   10.9705    5.0133   22.1785 H   0  0  0  0  0  0  0  0  0  0  0  0
    9.3317    7.4041   25.7405 H   0  0  0  0  0  0  0  0  0  0  0  0
    9.7750    9.8358   25.6167 H   0  0  0  0  0  0  0  0  0  0  0  0
   10.8373   10.7875   23.6048 H   0  0  0  0  0  0  0  0  0  0  0  0
   12.0353    6.8587   21.4054 H   0  0  0  0  0  0  0  0  0  0  0  0
   11.3422   10.1949   19.1852 H   0  0  0  0  0  0  0  0  0  0  0  0
   11.2343   11.9493   19.5552 H   0  0  0  0  0  0  0  0  0  0  0  0
   11.1698   11.3586   21.7913 H   0  0  0  0  0  0  0  0  0  0  0  0
   13.6820    9.9126   22.0429 H   0  0  0  0  0  0  0  0  0  0  0  0
   13.3357   11.6119   22.5110 H   0  0  0  0  0  0  0  0  0  0  0  0
   15.0288   10.7699   20.4135 H   0  0  0  0  0  0  0  0  0  0  0  0
   14.3819   12.4283   20.6548 H   0  0  0  0  0  0  0  0  0  0  0  0
   13.5694   10.3318   18.7031 H   0  0  0  0  0  0  0  0  0  0  0  0
   13.3236   12.1103   18.6472 H   0  0  0  0  0  0  0  0  0  0  0  0
  1  2  2  0  0  0  0
  1  6  1  0  0  0  0
  1  7  1  0  0  0  0
  2  3  1  0  0  0  0
  2 26  1  0  0  0  0
  3  4  2  0  0  0  0
  3 27  1  0  0  0  0
  4  5  1  0  0  0  0
  4 10  1  0  0  0  0
  5  6  2  0  0  0  0
  5 11  1  0  0  0  0
  6 28  1  0  0  0  0
  7  8  1  0  0  0  0
  7  9  1  0  0  0  0
  8 29  1  0  0  0  0
  8 30  1  0  0  0  0
  9 31  1  0  0  0  0
  9 32  1  0  0  0  0
 10 12  1  0  0  0  0
 10 33  1  0  0  0  0
 12 11  2  0  0  0  0
 12 13  1  0  0  0  0
 13 14  2  0  0  0  0
 13 19  1  0  0  0  0
 14 15  1  0  0  0  0
 14 34  1  0  0  0  0
 15 16  2  0  0  0  0
 15 35  1  0  0  0  0
 16 17  1  0  0  0  0
 16 36  1  0  0  0  0
 17 18  1  0  0  0  0
 17 19  2  0  0  0  0
 18 22  1  0  0  0  0
 19 20  1  0  0  0  0
 20 37  1  0  0  0  0
 21 38  1  0  0  0  0
 21 39  1  0  0  0  0
 22 23  1  0  0  0  0
 22 21  1  0  0  0  0
 22 40  1  0  0  0  0
 23 24  1  0  0  0  0
 23 41  1  0  0  0  0
 23 42  1  0  0  0  0
 24 25  1  0  0  0  0
 24 43  1  0  0  0  0
 24 44  1  0  0  0  0
 25 21  1  0  0  0  0
 25 45  1  0  0  0  0
 25 46  1  0  0  0  0
M  END
