1o45_ligand
 OpenBabel08222323343D

 77 80  0  0  1  0  0  0  0  0999 V2000
   16.6380   24.5230   15.9760 O   0  0  0  0  0  0  0  0  0  0  0  0
   19.2270   26.7550   19.0960 C   0  0  0  0  0  0  0  0  0  0  0  0
   18.4400   27.5190   18.2270 C   0  0  0  0  0  0  0  0  0  0  0  0
   17.2100   26.9930   17.7080 C   0  0  0  0  0  0  0  0  0  0  0  0
   16.8050   25.6910   18.0680 C   0  0  0  0  0  0  0  0  0  0  0  0
   17.5340   24.9840   19.0590 C   0  0  0  0  0  0  0  0  0  0  0  0
   18.7490   25.4950   19.5500 C   0  0  0  0  0  0  0  0  0  0  0  0
   15.6600   29.0190   17.5870 P   0  0  0  0  0  0  0  0  0  0  0  0
   14.4830   29.2940   16.6450 O   0  0  0  0  0  1  0  0  0  0  0  0
   16.5640   30.3360   17.6190 O   0  0  0  0  0  1  0  0  0  0  0  0
   15.2800   28.6700   18.9720 O   0  0  0  0  0  0  0  0  0  0  0  0
   19.6180   24.7050   20.5160 C   0  0  0  0  0  0  0  0  0  0  0  0
   19.5020   25.2160   21.9180 C   0  0  1  0  0  0  0  0  0  0  0  0
   20.3330   24.3850   22.8800 C   0  0  0  0  0  0  0  0  0  0  0  0
   19.6900   23.2940   23.3820 N   0  0  0  0  0  0  0  0  0  0  0  0
   19.9850   26.5800   21.9190 N   0  0  0  0  0  0  0  0  0  0  0  0
   19.3610   27.4500   22.6950 C   0  0  0  0  0  0  0  0  0  0  0  0
   19.8240   28.9110   22.4010 C   0  0  0  0  0  0  0  0  0  0  0  0
   18.5410   27.1520   23.5610 O   0  0  0  0  0  0  0  0  0  0  0  0
   21.5000   24.7160   23.1540 O   0  0  0  0  0  0  0  0  0  0  0  0
   20.3410   22.4050   24.2910 C   0  0  1  0  0  0  0  0  0  0  0  0
   19.2600   21.5380   24.9290 C   0  0  0  0  0  0  0  0  0  0  0  0
   19.7290   20.6880   26.1170 C   0  0  0  0  0  0  0  0  0  0  0  0
   20.8430   19.6530   26.0280 C   0  0  0  0  0  0  0  0  0  0  0  0
   22.0970   20.4110   25.6400 C   0  0  0  0  0  0  0  0  0  0  0  0
   22.2130   20.7250   24.2020 N   0  0  0  0  0  0  0  0  0  0  0  0
   21.3880   21.5640   23.4570 C   0  0  0  0  0  0  0  0  0  0  0  0
   23.1290   19.8700   23.3880 C   0  0  0  0  0  0  0  0  0  0  0  0
   22.4990   18.5080   23.2160 C   0  0  0  0  0  0  0  0  0  0  0  0
   21.4110   21.6140   22.2030 O   0  0  0  0  0  0  0  0  0  0  0  0
   16.4570   27.8160   16.8140 O   0  0  0  0  0  0  0  0  0  0  0  0
   23.0350   17.3680   23.8840 C   0  0  0  0  0  0  0  0  0  0  0  0
   22.4610   16.0930   23.6570 C   0  0  0  0  0  0  0  0  0  0  0  0
   21.3550   15.9910   22.7770 C   0  0  0  0  0  0  0  0  0  0  0  0
   20.7820   17.1360   22.1920 C   0  0  0  0  0  0  0  0  0  0  0  0
   21.3280   18.4270   22.3950 C   0  0  0  0  0  0  0  0  0  0  0  0
   20.7420   14.6790   22.5050 C   0  0  0  0  0  0  0  0  0  0  0  0
   19.3040   14.5800   22.3610 C   0  0  0  0  0  0  0  0  0  0  0  0
   18.6770   13.3160   22.1050 C   0  0  0  0  0  0  0  0  0  0  0  0
   19.4860   12.1450   22.0200 C   0  0  0  0  0  0  0  0  0  0  0  0
   20.8880   12.2410   22.1580 C   0  0  0  0  0  0  0  0  0  0  0  0
   21.5380   13.5010   22.4090 C   0  0  0  0  0  0  0  0  0  0  0  0
   16.0370   24.8780   17.1560 C   0  0  0  0  0  0  0  0  0  0  0  0
   16.0388   23.9930   15.4637 H   0  0  0  0  0  0  0  0  0  0  0  0
   20.1942   27.1211   19.4208 H   0  0  0  0  0  0  0  0  0  0  0  0
   18.7617   28.5148   17.9441 H   0  0  0  0  0  0  0  0  0  0  0  0
   17.1520   24.0439   19.4402 H   0  0  0  0  0  0  0  0  0  0  0  0
   20.6673   24.7825   20.1951 H   0  0  0  0  0  0  0  0  0  0  0  0
   19.3050   23.6507   20.4949 H   0  0  0  0  0  0  0  0  0  0  0  0
   18.4489   25.1897   22.2345 H   0  0  0  0  0  0  0  0  0  0  0  0
   18.7452   23.1122   23.1092 H   0  0  0  0  0  0  0  0  0  0  0  0
   20.7625   26.8547   21.3533 H   0  0  0  0  0  0  0  0  0  0  0  0
   19.2862   29.6062   23.0625 H   0  0  0  0  0  0  0  0  0  0  0  0
   19.6063   29.1606   21.3521 H   0  0  0  0  0  0  0  0  0  0  0  0
   20.9058   28.9962   22.5813 H   0  0  0  0  0  0  0  0  0  0  0  0
   20.8667   22.9704   25.0746 H   0  0  0  0  0  0  0  0  0  0  0  0
   18.8673   20.8593   24.1576 H   0  0  0  0  0  0  0  0  0  0  0  0
   18.4544   22.1998   25.2797 H   0  0  0  0  0  0  0  0  0  0  0  0
   18.8396   20.1418   26.4643 H   0  0  0  0  0  0  0  0  0  0  0  0
   20.0455   21.4030   26.8906 H   0  0  0  0  0  0  0  0  0  0  0  0
   20.6022   18.8987   25.2644 H   0  0  0  0  0  0  0  0  0  0  0  0
   20.9823   19.1586   27.0007 H   0  0  0  0  0  0  0  0  0  0  0  0
   22.9670   19.8028   25.9283 H   0  0  0  0  0  0  0  0  0  0  0  0
   22.1105   21.3584   26.1988 H   0  0  0  0  0  0  0  0  0  0  0  0
   24.0952   19.7679   23.9038 H   0  0  0  0  0  0  0  0  0  0  0  0
   23.2867   20.3315   22.4020 H   0  0  0  0  0  0  0  0  0  0  0  0
   23.8752   17.4762   24.5603 H   0  0  0  0  0  0  0  0  0  0  0  0
   22.8601   15.2123   24.1470 H   0  0  0  0  0  0  0  0  0  0  0  0
   19.9006   17.0269   21.5705 H   0  0  0  0  0  0  0  0  0  0  0  0
   20.8820   19.3097   21.9512 H   0  0  0  0  0  0  0  0  0  0  0  0
   18.6945   15.4722   22.4478 H   0  0  0  0  0  0  0  0  0  0  0  0
   17.6024   13.2516   21.9778 H   0  0  0  0  0  0  0  0  0  0  0  0
   19.0240   11.1794   21.8491 H   0  0  0  0  0  0  0  0  0  0  0  0
   21.4900   11.3436   22.0728 H   0  0  0  0  0  0  0  0  0  0  0  0
   22.6148   13.5526   22.5230 H   0  0  0  0  0  0  0  0  0  0  0  0
   15.7701   23.9505   17.6838 H   0  0  0  0  0  0  0  0  0  0  0  0
   15.1215   25.4346   16.9069 H   0  0  0  0  0  0  0  0  0  0  0  0
  1 44  1  0  0  0  0
  2  7  1  0  0  0  0
  2 45  1  0  0  0  0
  3  2  2  0  0  0  0
  3 46  1  0  0  0  0
  4  3  1  0  0  0  0
  4  5  2  0  0  0  0
  5  6  1  0  0  0  0
  5 43  1  0  0  0  0
  6  7  2  0  0  0  0
  6 47  1  0  0  0  0
  7 12  1  0  0  0  0
  8  9  1  0  0  0  0
  8 10  1  0  0  0  0
  8 11  2  0  0  0  0
  8 31  1  0  0  0  0
 12 13  1  0  0  0  0
 12 48  1  0  0  0  0
 12 49  1  0  0  0  0
 13 14  1  0  0  0  0
 13 16  1  0  0  0  0
 13 50  1  1  0  0  0
 14 15  1  0  0  0  0
 14 20  2  0  0  0  0
 15 21  1  0  0  0  0
 15 51  1  0  0  0  0
 16 17  1  0  0  0  0
 16 52  1  0  0  0  0
 17 18  1  0  0  0  0
 17 19  2  0  0  0  0
 18 53  1  0  0  0  0
 18 54  1  0  0  0  0
 18 55  1  0  0  0  0
 21 22  1  0  0  0  0
 21 27  1  0  0  0  0
 21 56  1  1  0  0  0
 22 23  1  0  0  0  0
 22 57  1  0  0  0  0
 22 58  1  0  0  0  0
 23 24  1  0  0  0  0
 23 59  1  0  0  0  0
 23 60  1  0  0  0  0
 24 25  1  0  0  0  0
 24 61  1  0  0  0  0
 24 62  1  0  0  0  0
 25 26  1  0  0  0  0
 25 63  1  0  0  0  0
 25 64  1  0  0  0  0
 26 27  1  0  0  0  0
 26 28  1  0  0  0  0
 27 30  2  0  0  0  0
 28 29  1  0  0  0  0
 28 65  1  0  0  0  0
 28 66  1  0  0  0  0
 29 32  2  0  0  0  0
 29 36  1  0  0  0  0
 31  4  1  0  0  0  0
 32 33  1  0  0  0  0
 32 67  1  0  0  0  0
 33 34  2  0  0  0  0
 33 68  1  0  0  0  0
 34 35  1  0  0  0  0
 34 37  1  0  0  0  0
 35 36  2  0  0  0  0
 35 69  1  0  0  0  0
 36 70  1  0  0  0  0
 37 38  2  0  0  0  0
 37 42  1  0  0  0  0
 38 39  1  0  0  0  0
 38 71  1  0  0  0  0
 39 40  2  0  0  0  0
 39 72  1  0  0  0  0
 40 41  1  0  0  0  0
 40 73  1  0  0  0  0
 41 42  2  0  0  0  0
 41 74  1  0  0  0  0
 42 75  1  0  0  0  0
 43  1  1  0  0  0  0
 43 76  1  0  0  0  0
 43 77  1  0  0  0  0
M  END
