1o48_ligand
 OpenBabel08222323343D

 76 79  0  0  1  0  0  0  0  0999 V2000
   19.0180   25.2650   19.5650 C   0  0  0  0  0  0  0  0  0  0  0  0
   17.6520   24.9090   19.3890 C   0  0  0  0  0  0  0  0  0  0  0  0
   16.8230   25.6810   18.5460 C   0  0  0  0  0  0  0  0  0  0  0  0
   17.4120   26.7520   17.7840 C   0  0  0  0  0  0  0  0  0  0  0  0
   18.8340   27.0580   17.8510 C   0  0  0  0  0  0  0  0  0  0  0  0
   19.6220   26.3270   18.8080 C   0  0  0  0  0  0  0  0  0  0  0  0
   19.8470   24.4880   20.6190 C   0  0  0  0  0  0  0  0  0  0  0  0
   19.6000   25.0830   22.0150 C   0  0  1  0  0  0  0  0  0  0  0  0
   20.3030   24.2510   23.0760 C   0  0  0  0  0  0  0  0  0  0  0  0
   19.6080   23.2240   23.5300 N   0  0  0  0  0  0  0  0  0  0  0  0
   21.4340   24.5430   23.4610 O   0  0  0  0  0  0  0  0  0  0  0  0
   20.0370   26.4980   22.0200 N   0  0  0  0  0  0  0  0  0  0  0  0
   19.3900   27.3850   22.8110 C   0  0  0  0  0  0  0  0  0  0  0  0
   18.4100   27.0780   23.4990 O   0  0  0  0  0  0  0  0  0  0  0  0
   19.9870   28.8260   22.7870 C   0  0  0  0  0  0  0  0  0  0  0  0
   20.2910   22.2440   24.3590 C   0  0  2  0  0  0  0  0  0  0  0  0
   21.3620   21.4210   23.5300 C   0  0  0  0  0  0  0  0  0  0  0  0
   22.1650   20.5580   24.2570 N   0  0  0  0  0  0  0  0  0  0  0  0
   21.4630   21.5680   22.3020 O   0  0  0  0  0  0  0  0  0  0  0  0
   22.0180   20.2790   25.6930 C   0  0  0  0  0  0  0  0  0  0  0  0
   20.7200   19.5960   26.0560 C   0  0  0  0  0  0  0  0  0  0  0  0
   23.1790   19.6830   23.5820 C   0  0  0  0  0  0  0  0  0  0  0  0
   22.5560   18.3030   23.3220 C   0  0  0  0  0  0  0  0  0  0  0  0
   19.5640   20.5780   26.2040 C   0  0  0  0  0  0  0  0  0  0  0  0
   19.1950   21.3400   24.9190 C   0  0  0  0  0  0  0  0  0  0  0  0
   21.4050   18.2670   22.4350 C   0  0  0  0  0  0  0  0  0  0  0  0
   20.7220   17.0590   22.2680 C   0  0  0  0  0  0  0  0  0  0  0  0
   21.2760   15.8760   22.8910 C   0  0  0  0  0  0  0  0  0  0  0  0
   22.4610   15.8860   23.7320 C   0  0  0  0  0  0  0  0  0  0  0  0
   23.0610   17.1320   23.9890 C   0  0  0  0  0  0  0  0  0  0  0  0
   20.5670   14.5840   22.5790 C   0  0  0  0  0  0  0  0  0  0  0  0
   19.1380   14.5620   22.3830 C   0  0  0  0  0  0  0  0  0  0  0  0
   18.5180   13.3350   22.1240 C   0  0  0  0  0  0  0  0  0  0  0  0
   19.2670   12.1240   22.1060 C   0  0  0  0  0  0  0  0  0  0  0  0
   20.6550   12.1450   22.2830 C   0  0  0  0  0  0  0  0  0  0  0  0
   21.3340   13.3780   22.4640 C   0  0  0  0  0  0  0  0  0  0  0  0
   19.5240   27.9820   16.8640 C   0  0  0  0  0  0  0  0  0  0  0  0
   20.0090   29.1550   17.2750 O   0  5  0  0  0  0  0  0  0  0  0  0
   19.6160   27.6680   15.7090 O   0  0  0  0  0  0  0  0  0  0  0  0
   16.4750   27.4870   16.8220 C   0  0  0  0  0  0  0  0  0  0  0  0
   15.3310   28.2450   17.4900 C   0  0  0  0  0  0  0  0  0  0  0  0
   14.5580   28.8060   16.5620 O   0  5  0  0  0  0  0  0  0  0  0  0
   15.1400   28.3530   18.6620 O   0  0  0  0  0  0  0  0  0  0  0  0
   17.2472   24.0444   19.9025 H   0  0  0  0  0  0  0  0  0  0  0  0
   15.7619   25.4713   18.4736 H   0  0  0  0  0  0  0  0  0  0  0  0
   20.6664   26.5762   18.9572 H   0  0  0  0  0  0  0  0  0  0  0  0
   20.9162   24.5655   20.3726 H   0  0  0  0  0  0  0  0  0  0  0  0
   19.5453   23.4302   20.6140 H   0  0  0  0  0  0  0  0  0  0  0  0
   18.5202   25.0559   22.2233 H   0  0  0  0  0  0  0  0  0  0  0  0
   18.6378   23.1230   23.3095 H   0  0  0  0  0  0  0  0  0  0  0  0
   20.8005   26.7942   21.4461 H   0  0  0  0  0  0  0  0  0  0  0  0
   19.4024   29.4762   23.4545 H   0  0  0  0  0  0  0  0  0  0  0  0
   19.9471   29.2224   21.7617 H   0  0  0  0  0  0  0  0  0  0  0  0
   21.0324   28.7956   23.1280 H   0  0  0  0  0  0  0  0  0  0  0  0
   20.8073   22.7544   25.1854 H   0  0  0  0  0  0  0  0  0  0  0  0
   22.0712   21.2330   26.2381 H   0  0  0  0  0  0  0  0  0  0  0  0
   22.8495   19.6307   26.0064 H   0  0  0  0  0  0  0  0  0  0  0  0
   20.8557   19.0650   27.0097 H   0  0  0  0  0  0  0  0  0  0  0  0
   20.4692   18.8728   25.2660 H   0  0  0  0  0  0  0  0  0  0  0  0
   24.0609   19.5731   24.2301 H   0  0  0  0  0  0  0  0  0  0  0  0
   23.4804   20.1373   22.6266 H   0  0  0  0  0  0  0  0  0  0  0  0
   19.8382   21.3159   26.9724 H   0  0  0  0  0  0  0  0  0  0  0  0
   18.6781   20.0161   26.5348 H   0  0  0  0  0  0  0  0  0  0  0  0
   18.9375   20.5998   24.1471 H   0  0  0  0  0  0  0  0  0  0  0  0
   18.3162   21.9652   25.1352 H   0  0  0  0  0  0  0  0  0  0  0  0
   21.0823   19.1604   21.9127 H   0  0  0  0  0  0  0  0  0  0  0  0
   19.8062   17.0098   21.6901 H   0  0  0  0  0  0  0  0  0  0  0  0
   22.8666   14.9695   24.1450 H   0  0  0  0  0  0  0  0  0  0  0  0
   23.8925   17.2092   24.6801 H   0  0  0  0  0  0  0  0  0  0  0  0
   18.5575   15.4760   22.4353 H   0  0  0  0  0  0  0  0  0  0  0  0
   17.4512   13.3056   21.9341 H   0  0  0  0  0  0  0  0  0  0  0  0
   18.7582   11.1789   21.9541 H   0  0  0  0  0  0  0  0  0  0  0  0
   21.2136   11.2160   22.2819 H   0  0  0  0  0  0  0  0  0  0  0  0
   22.4164   13.4076   22.5146 H   0  0  0  0  0  0  0  0  0  0  0  0
   16.0388   26.7452   16.1368 H   0  0  0  0  0  0  0  0  0  0  0  0
   17.0736   28.2093   16.2476 H   0  0  0  0  0  0  0  0  0  0  0  0
  1  2  2  0  0  0  0
  1  6  1  0  0  0  0
  1  7  1  0  0  0  0
  2  3  1  0  0  0  0
  2 44  1  0  0  0  0
  3  4  2  0  0  0  0
  3 45  1  0  0  0  0
  4  5  1  0  0  0  0
  4 40  1  0  0  0  0
  5  6  2  0  0  0  0
  5 37  1  0  0  0  0
  6 46  1  0  0  0  0
  7  8  1  0  0  0  0
  7 47  1  0  0  0  0
  7 48  1  0  0  0  0
  8  9  1  0  0  0  0
  8 12  1  0  0  0  0
  8 49  1  1  0  0  0
  9 10  1  0  0  0  0
  9 11  2  0  0  0  0
 10 16  1  0  0  0  0
 10 50  1  0  0  0  0
 12 13  1  0  0  0  0
 12 51  1  0  0  0  0
 13 14  2  0  0  0  0
 13 15  1  0  0  0  0
 15 52  1  0  0  0  0
 15 53  1  0  0  0  0
 15 54  1  0  0  0  0
 16 17  1  0  0  0  0
 16 25  1  0  0  0  0
 16 55  1  1  0  0  0
 17 18  1  0  0  0  0
 17 19  2  0  0  0  0
 18 20  1  0  0  0  0
 18 22  1  0  0  0  0
 20 21  1  0  0  0  0
 20 56  1  0  0  0  0
 20 57  1  0  0  0  0
 21 24  1  0  0  0  0
 21 58  1  0  0  0  0
 21 59  1  0  0  0  0
 22 23  1  0  0  0  0
 22 60  1  0  0  0  0
 22 61  1  0  0  0  0
 23 26  2  0  0  0  0
 23 30  1  0  0  0  0
 24 25  1  0  0  0  0
 24 62  1  0  0  0  0
 24 63  1  0  0  0  0
 25 64  1  0  0  0  0
 25 65  1  0  0  0  0
 26 27  1  0  0  0  0
 26 66  1  0  0  0  0
 27 28  2  0  0  0  0
 27 67  1  0  0  0  0
 28 29  1  0  0  0  0
 28 31  1  0  0  0  0
 29 30  2  0  0  0  0
 29 68  1  0  0  0  0
 30 69  1  0  0  0  0
 31 32  2  0  0  0  0
 31 36  1  0  0  0  0
 32 33  1  0  0  0  0
 32 70  1  0  0  0  0
 33 34  2  0  0  0  0
 33 71  1  0  0  0  0
 34 35  1  0  0  0  0
 34 72  1  0  0  0  0
 35 36  2  0  0  0  0
 35 73  1  0  0  0  0
 36 74  1  0  0  0  0
 37 38  1  0  0  0  0
 37 39  2  0  0  0  0
 40 41  1  0  0  0  0
 40 75  1  0  0  0  0
 40 76  1  0  0  0  0
 41 42  1  0  0  0  0
 41 43  2  0  0  0  0
M  CHG  2  38  -1  42  -1
M  END
