1o4a_ligand
 OpenBabel08222323343D

 75 78  0  0  1  0  0  0  0  0999 V2000
   19.7650   25.7160   18.0330 C   0  0  0  0  0  0  0  0  0  0  0  0
   19.1120   26.4000   16.9760 C   0  0  0  0  0  0  0  0  0  0  0  0
   17.6760   26.3620   16.8220 C   0  0  0  0  0  0  0  0  0  0  0  0
   16.9490   25.5680   17.7600 C   0  0  0  0  0  0  0  0  0  0  0  0
   17.5950   24.9470   18.8810 C   0  0  0  0  0  0  0  0  0  0  0  0
   18.9910   25.0230   19.0090 C   0  0  0  0  0  0  0  0  0  0  0  0
   19.6770   24.3670   20.1900 C   0  0  0  0  0  0  0  0  0  0  0  0
   19.2970   25.0390   21.5160 C   0  0  1  0  0  0  0  0  0  0  0  0
   20.0570   24.3250   22.5960 C   0  0  0  0  0  0  0  0  0  0  0  0
   19.3480   23.2980   23.1150 N   0  0  0  0  0  0  0  0  0  0  0  0
   19.7280   26.4500   21.5740 N   0  0  0  0  0  0  0  0  0  0  0  0
   18.8770   27.4740   21.6000 C   0  0  0  0  0  0  0  0  0  0  0  0
   19.6670   28.7800   21.4210 C   0  0  0  0  0  0  0  0  0  0  0  0
   17.6420   27.4150   21.6070 O   0  0  0  0  0  0  0  0  0  0  0  0
   21.2110   24.6650   22.9410 O   0  0  0  0  0  0  0  0  0  0  0  0
   20.0040   22.3290   23.9430 C   0  0  1  0  0  0  0  0  0  0  0  0
   18.8880   21.4630   24.5380 C   0  0  0  0  0  0  0  0  0  0  0  0
   19.4240   20.8530   25.8200 C   0  0  0  0  0  0  0  0  0  0  0  0
   20.5950   19.9080   25.8250 C   0  0  0  0  0  0  0  0  0  0  0  0
   21.9420   20.4580   25.3400 C   0  0  0  0  0  0  0  0  0  0  0  0
   22.0390   20.7010   23.8890 N   0  0  0  0  0  0  0  0  0  0  0  0
   21.1540   21.5130   23.1340 C   0  0  0  0  0  0  0  0  0  0  0  0
   23.0340   19.8310   23.2040 C   0  0  0  0  0  0  0  0  0  0  0  0
   22.4410   18.4940   22.9660 C   0  0  0  0  0  0  0  0  0  0  0  0
   21.1830   21.6180   21.8970 O   0  0  0  0  0  0  0  0  0  0  0  0
   22.9840   17.2850   23.5730 C   0  0  0  0  0  0  0  0  0  0  0  0
   22.3530   15.9970   23.3820 C   0  0  0  0  0  0  0  0  0  0  0  0
   21.1690   15.9800   22.5690 C   0  0  0  0  0  0  0  0  0  0  0  0
   20.6360   17.1750   21.9840 C   0  0  0  0  0  0  0  0  0  0  0  0
   21.2650   18.4540   22.1630 C   0  0  0  0  0  0  0  0  0  0  0  0
   20.4270   14.7220   22.2570 C   0  0  0  0  0  0  0  0  0  0  0  0
   21.1720   13.5330   22.0600 C   0  0  0  0  0  0  0  0  0  0  0  0
   20.4940   12.3360   21.7590 C   0  0  0  0  0  0  0  0  0  0  0  0
   19.0670   12.3760   21.6700 C   0  0  0  0  0  0  0  0  0  0  0  0
   18.3110   13.5950   21.9110 C   0  0  0  0  0  0  0  0  0  0  0  0
   19.0090   14.7680   22.1860 C   0  0  0  0  0  0  0  0  0  0  0  0
   17.0580   27.2100   15.7360 C   0  0  0  0  0  0  0  0  0  0  0  0
   17.5840   27.4880   14.7200 O   0  5  0  0  0  0  0  0  0  0  0  0
   15.8570   27.6580   15.8510 O   0  0  0  0  0  0  0  0  0  0  0  0
   15.5320   25.4910   17.7840 C   0  0  0  0  0  0  0  0  0  0  0  0
   14.8670   26.6290   18.2070 O   0  0  0  0  0  0  0  0  0  0  0  0
   20.8470   25.7202   18.0983 H   0  0  0  0  0  0  0  0  0  0  0  0
   19.7050   26.9653   16.2661 H   0  0  0  0  0  0  0  0  0  0  0  0
   17.0078   24.4217   19.6255 H   0  0  0  0  0  0  0  0  0  0  0  0
   20.7662   24.4389   20.0539 H   0  0  0  0  0  0  0  0  0  0  0  0
   19.3815   23.3082   20.2301 H   0  0  0  0  0  0  0  0  0  0  0  0
   18.2113   24.9675   21.6773 H   0  0  0  0  0  0  0  0  0  0  0  0
   18.3703   23.2145   22.9223 H   0  0  0  0  0  0  0  0  0  0  0  0
   20.7083   26.6466   21.5948 H   0  0  0  0  0  0  0  0  0  0  0  0
   18.9735   29.6336   21.4409 H   0  0  0  0  0  0  0  0  0  0  0  0
   20.1957   28.7595   20.4566 H   0  0  0  0  0  0  0  0  0  0  0  0
   20.3972   28.8817   22.2374 H   0  0  0  0  0  0  0  0  0  0  0  0
   20.5062   22.8534   24.7693 H   0  0  0  0  0  0  0  0  0  0  0  0
   18.6108   20.6679   23.8302 H   0  0  0  0  0  0  0  0  0  0  0  0
   18.0063   22.0833   24.7564 H   0  0  0  0  0  0  0  0  0  0  0  0
   18.5851   20.3059   26.2749 H   0  0  0  0  0  0  0  0  0  0  0  0
   19.7062   21.6962   26.4676 H   0  0  0  0  0  0  0  0  0  0  0  0
   20.3347   19.0552   25.1809 H   0  0  0  0  0  0  0  0  0  0  0  0
   20.7334   19.5581   26.8586 H   0  0  0  0  0  0  0  0  0  0  0  0
   22.7234   19.7348   25.6161 H   0  0  0  0  0  0  0  0  0  0  0  0
   22.1255   21.4114   25.8570 H   0  0  0  0  0  0  0  0  0  0  0  0
   23.9280   19.7281   23.8366 H   0  0  0  0  0  0  0  0  0  0  0  0
   23.3157   20.2835   22.2418 H   0  0  0  0  0  0  0  0  0  0  0  0
   23.8794   17.3523   24.1803 H   0  0  0  0  0  0  0  0  0  0  0  0
   22.7523   15.0935   23.8284 H   0  0  0  0  0  0  0  0  0  0  0  0
   19.7320   17.1118   21.3892 H   0  0  0  0  0  0  0  0  0  0  0  0
   20.8619   19.3507   21.7064 H   0  0  0  0  0  0  0  0  0  0  0  0
   22.2530   13.5446   22.1402 H   0  0  0  0  0  0  0  0  0  0  0  0
   21.0374   11.4117   21.5995 H   0  0  0  0  0  0  0  0  0  0  0  0
   18.5317   11.4686   21.4147 H   0  0  0  0  0  0  0  0  0  0  0  0
   17.2275   13.5904   21.8772 H   0  0  0  0  0  0  0  0  0  0  0  0
   18.4793   15.7006   22.3433 H   0  0  0  0  0  0  0  0  0  0  0  0
   15.2516   24.6680   18.4578 H   0  0  0  0  0  0  0  0  0  0  0  0
   15.1906   25.2621   16.7637 H   0  0  0  0  0  0  0  0  0  0  0  0
   15.0817   27.3527   17.6302 H   0  0  0  0  0  0  0  0  0  0  0  0
  1  2  2  0  0  0  0
  1  6  1  0  0  0  0
  1 42  1  0  0  0  0
  2  3  1  0  0  0  0
  2 43  1  0  0  0  0
  3  4  2  0  0  0  0
  3 37  1  0  0  0  0
  4  5  1  0  0  0  0
  4 40  1  0  0  0  0
  5  6  2  0  0  0  0
  5 44  1  0  0  0  0
  6  7  1  0  0  0  0
  7  8  1  0  0  0  0
  7 45  1  0  0  0  0
  7 46  1  0  0  0  0
  8  9  1  0  0  0  0
  8 11  1  0  0  0  0
  8 47  1  1  0  0  0
  9 10  1  0  0  0  0
  9 15  2  0  0  0  0
 10 16  1  0  0  0  0
 10 48  1  0  0  0  0
 11 12  1  0  0  0  0
 11 49  1  0  0  0  0
 12 13  1  0  0  0  0
 12 14  2  0  0  0  0
 13 50  1  0  0  0  0
 13 51  1  0  0  0  0
 13 52  1  0  0  0  0
 16 17  1  0  0  0  0
 16 22  1  0  0  0  0
 16 53  1  1  0  0  0
 17 18  1  0  0  0  0
 17 54  1  0  0  0  0
 17 55  1  0  0  0  0
 18 19  1  0  0  0  0
 18 56  1  0  0  0  0
 18 57  1  0  0  0  0
 19 20  1  0  0  0  0
 19 58  1  0  0  0  0
 19 59  1  0  0  0  0
 20 21  1  0  0  0  0
 20 60  1  0  0  0  0
 20 61  1  0  0  0  0
 21 22  1  0  0  0  0
 21 23  1  0  0  0  0
 22 25  2  0  0  0  0
 23 24  1  0  0  0  0
 23 62  1  0  0  0  0
 23 63  1  0  0  0  0
 24 26  2  0  0  0  0
 24 30  1  0  0  0  0
 26 27  1  0  0  0  0
 26 64  1  0  0  0  0
 27 28  2  0  0  0  0
 27 65  1  0  0  0  0
 28 29  1  0  0  0  0
 28 31  1  0  0  0  0
 29 30  2  0  0  0  0
 29 66  1  0  0  0  0
 30 67  1  0  0  0  0
 31 32  2  0  0  0  0
 31 36  1  0  0  0  0
 32 33  1  0  0  0  0
 32 68  1  0  0  0  0
 33 34  2  0  0  0  0
 33 69  1  0  0  0  0
 34 35  1  0  0  0  0
 34 70  1  0  0  0  0
 35 36  2  0  0  0  0
 35 71  1  0  0  0  0
 36 72  1  0  0  0  0
 37 38  1  0  0  0  0
 37 39  2  0  0  0  0
 40 41  1  0  0  0  0
 40 73  1  0  0  0  0
 40 74  1  0  0  0  0
 41 75  1  0  0  0  0
M  CHG  1  38  -1
M  END
