1o4b_ligand
 OpenBabel08222323343D

 75 78  0  0  1  0  0  0  0  0999 V2000
   18.3470   25.1510   18.2600 C   0  0  0  0  0  0  0  0  0  0  0  0
   17.9190   25.7600   17.1210 C   0  0  0  0  0  0  0  0  0  0  0  0
   17.1620   26.8700   17.2590 C   0  0  0  0  0  0  0  0  0  0  0  0
   16.7820   27.3970   18.4740 C   0  0  0  0  0  0  0  0  0  0  0  0
   17.2130   26.8140   19.7180 C   0  0  0  0  0  0  0  0  0  0  0  0
   18.0690   25.6410   19.5110 C   0  0  0  0  0  0  0  0  0  0  0  0
   19.0000   24.7710   20.3300 C   0  0  0  0  0  0  0  0  0  0  0  0
   19.0090   25.3390   21.7540 C   0  0  1  0  0  0  0  0  0  0  0  0
   19.8580   24.4270   22.6270 C   0  0  0  0  0  0  0  0  0  0  0  0
   19.2440   23.4080   23.2650 N   0  0  0  0  0  0  0  0  0  0  0  0
   19.4620   26.7300   21.7960 N   0  0  0  0  0  0  0  0  0  0  0  0
   18.7950   27.7140   22.4040 C   0  0  0  0  0  0  0  0  0  0  0  0
   19.5500   28.9770   22.2110 C   0  0  0  0  0  0  0  0  0  0  0  0
   17.7270   27.6140   23.0200 O   0  0  0  0  0  0  0  0  0  0  0  0
   21.0830   24.7080   22.7490 O   0  0  0  0  0  0  0  0  0  0  0  0
   20.0170   22.4290   24.0370 C   0  0  1  0  0  0  0  0  0  0  0  0
   18.9530   21.4860   24.6210 C   0  0  0  0  0  0  0  0  0  0  0  0
   19.4680   20.3020   25.5440 C   0  0  0  0  0  0  0  0  0  0  0  0
   20.8290   20.5600   26.1470 C   0  0  0  0  0  0  0  0  0  0  0  0
   21.9480   20.2400   25.1590 C   0  0  0  0  0  0  0  0  0  0  0  0
   21.9310   20.7900   23.7660 N   0  0  0  0  0  0  0  0  0  0  0  0
   21.0520   21.7040   23.1560 C   0  0  0  0  0  0  0  0  0  0  0  0
   22.9650   20.0820   22.9730 C   0  0  0  0  0  0  0  0  0  0  0  0
   22.5360   18.6740   22.7880 C   0  0  0  0  0  0  0  0  0  0  0  0
   21.0910   21.9630   21.9470 O   0  0  0  0  0  0  0  0  0  0  0  0
   16.6200   27.5360   15.7270 P   0  0  0  0  0  0  0  0  0  0  0  0
   21.4810   18.4820   21.8760 C   0  0  0  0  0  0  0  0  0  0  0  0
   20.8700   17.2110   21.7940 C   0  0  0  0  0  0  0  0  0  0  0  0
   21.3390   16.1370   22.5960 C   0  0  0  0  0  0  0  0  0  0  0  0
   22.4630   16.3150   23.4560 C   0  0  0  0  0  0  0  0  0  0  0  0
   23.0630   17.5980   23.5580 C   0  0  0  0  0  0  0  0  0  0  0  0
   20.6500   14.8290   22.4470 C   0  0  0  0  0  0  0  0  0  0  0  0
   21.4160   13.6370   22.4180 C   0  0  0  0  0  0  0  0  0  0  0  0
   20.8030   12.4050   22.0650 C   0  0  0  0  0  0  0  0  0  0  0  0
   19.4320   12.3720   21.7540 C   0  0  0  0  0  0  0  0  0  0  0  0
   18.6340   13.5270   21.8690 C   0  0  0  0  0  0  0  0  0  0  0  0
   19.2430   14.7500   22.2130 C   0  0  0  0  0  0  0  0  0  0  0  0
   15.8670   28.8570   18.2340 P   0  0  0  0  0  0  0  0  0  0  0  0
   14.8490   28.8820   17.1700 O   0  0  0  0  0  1  0  0  0  0  0  0
   16.7000   30.0440   18.2930 O   0  0  0  0  0  1  0  0  0  0  0  0
   15.0720   28.6650   19.3920 O   0  0  0  0  0  0  0  0  0  0  0  0
   15.2160   27.2480   15.4970 O   0  0  0  0  0  1  0  0  0  0  0  0
   17.4120   27.1530   14.4100 O   0  0  0  0  0  1  0  0  0  0  0  0
   17.1270   28.9920   15.6280 O   0  0  0  0  0  0  0  0  0  0  0  0
   18.9313   24.2419   18.1756 H   0  0  0  0  0  0  0  0  0  0  0  0
   18.1752   25.3701   16.1425 H   0  0  0  0  0  0  0  0  0  0  0  0
   16.9371   27.1973   20.6937 H   0  0  0  0  0  0  0  0  0  0  0  0
   20.0144   24.7997   19.9057 H   0  0  0  0  0  0  0  0  0  0  0  0
   18.6358   23.7331   20.3398 H   0  0  0  0  0  0  0  0  0  0  0  0
   17.9783   25.3181   22.1376 H   0  0  0  0  0  0  0  0  0  0  0  0
   18.2494   23.3194   23.2106 H   0  0  0  0  0  0  0  0  0  0  0  0
   20.3234   26.9573   21.3418 H   0  0  0  0  0  0  0  0  0  0  0  0
   19.0165   29.8023   22.7053 H   0  0  0  0  0  0  0  0  0  0  0  0
   19.6393   29.1902   21.1356 H   0  0  0  0  0  0  0  0  0  0  0  0
   20.5538   28.8748   22.6492 H   0  0  0  0  0  0  0  0  0  0  0  0
   20.5536   22.9331   24.8542 H   0  0  0  0  0  0  0  0  0  0  0  0
   18.4090   21.0364   23.7773 H   0  0  0  0  0  0  0  0  0  0  0  0
   18.2611   22.0966   25.2198 H   0  0  0  0  0  0  0  0  0  0  0  0
   19.5233   19.3859   24.9377 H   0  0  0  0  0  0  0  0  0  0  0  0
   18.7462   20.1578   26.3614 H   0  0  0  0  0  0  0  0  0  0  0  0
   20.9497   19.9295   27.0402 H   0  0  0  0  0  0  0  0  0  0  0  0
   20.8978   21.6196   26.4341 H   0  0  0  0  0  0  0  0  0  0  0  0
   21.9750   19.1446   25.0618 H   0  0  0  0  0  0  0  0  0  0  0  0
   22.8825   20.5902   25.6215 H   0  0  0  0  0  0  0  0  0  0  0  0
   23.9259   20.1096   23.5077 H   0  0  0  0  0  0  0  0  0  0  0  0
   23.0770   20.5674   21.9923 H   0  0  0  0  0  0  0  0  0  0  0  0
   21.1427   19.2969   21.2463 H   0  0  0  0  0  0  0  0  0  0  0  0
   20.0391   17.0547   21.1156 H   0  0  0  0  0  0  0  0  0  0  0  0
   22.8549   15.4800   24.0255 H   0  0  0  0  0  0  0  0  0  0  0  0
   23.9115   17.7565   24.2137 H   0  0  0  0  0  0  0  0  0  0  0  0
   22.4710   13.6654   22.6655 H   0  0  0  0  0  0  0  0  0  0  0  0
   21.3898   11.4940   22.0355 H   0  0  0  0  0  0  0  0  0  0  0  0
   18.9825   11.4436   21.4207 H   0  0  0  0  0  0  0  0  0  0  0  0
   17.5653   13.4756   21.6951 H   0  0  0  0  0  0  0  0  0  0  0  0
   18.6355   15.6434   22.3013 H   0  0  0  0  0  0  0  0  0  0  0  0
  1  2  2  0  0  0  0
  1  6  1  0  0  0  0
  1 45  1  0  0  0  0
  2  3  1  0  0  0  0
  2 46  1  0  0  0  0
  3  4  2  0  0  0  0
  3 26  1  0  0  0  0
  4  5  1  0  0  0  0
  4 38  1  0  0  0  0
  5  6  2  0  0  0  0
  5 47  1  0  0  0  0
  6  7  1  0  0  0  0
  7  8  1  0  0  0  0
  7 48  1  0  0  0  0
  7 49  1  0  0  0  0
  8  9  1  0  0  0  0
  8 11  1  0  0  0  0
  8 50  1  1  0  0  0
  9 10  1  0  0  0  0
  9 15  2  0  0  0  0
 10 16  1  0  0  0  0
 10 51  1  0  0  0  0
 11 12  1  0  0  0  0
 11 52  1  0  0  0  0
 12 13  1  0  0  0  0
 12 14  2  0  0  0  0
 13 53  1  0  0  0  0
 13 54  1  0  0  0  0
 13 55  1  0  0  0  0
 16 17  1  0  0  0  0
 16 22  1  0  0  0  0
 16 56  1  1  0  0  0
 17 18  1  0  0  0  0
 17 57  1  0  0  0  0
 17 58  1  0  0  0  0
 18 19  1  0  0  0  0
 18 59  1  0  0  0  0
 18 60  1  0  0  0  0
 19 20  1  0  0  0  0
 19 61  1  0  0  0  0
 19 62  1  0  0  0  0
 20 21  1  0  0  0  0
 20 63  1  0  0  0  0
 20 64  1  0  0  0  0
 21 22  1  0  0  0  0
 21 23  1  0  0  0  0
 22 25  2  0  0  0  0
 23 24  1  0  0  0  0
 23 65  1  0  0  0  0
 23 66  1  0  0  0  0
 24 27  2  0  0  0  0
 24 31  1  0  0  0  0
 26 42  1  0  0  0  0
 26 43  1  0  0  0  0
 26 44  2  0  0  0  0
 27 28  1  0  0  0  0
 27 67  1  0  0  0  0
 28 29  2  0  0  0  0
 28 68  1  0  0  0  0
 29 30  1  0  0  0  0
 29 32  1  0  0  0  0
 30 31  2  0  0  0  0
 30 69  1  0  0  0  0
 31 70  1  0  0  0  0
 32 33  2  0  0  0  0
 32 37  1  0  0  0  0
 33 34  1  0  0  0  0
 33 71  1  0  0  0  0
 34 35  2  0  0  0  0
 34 72  1  0  0  0  0
 35 36  1  0  0  0  0
 35 73  1  0  0  0  0
 36 37  2  0  0  0  0
 36 74  1  0  0  0  0
 37 75  1  0  0  0  0
 38 39  1  0  0  0  0
 38 40  1  0  0  0  0
 38 41  2  0  0  0  0
M  END
