1o4i_ligand
 OpenBabel08222323343D

 40 41  0  0  0  0  0  0  0  0999 V2000
   18.2360   25.7640   20.7610 C   0  0  0  0  0  0  0  0  0  0  0  0
   18.3140   24.4640   20.1740 C   0  0  0  0  0  0  0  0  0  0  0  0
   17.4920   24.1750   19.0240 C   0  0  0  0  0  0  0  0  0  0  0  0
   16.5600   25.1250   18.4410 C   0  0  0  0  0  0  0  0  0  0  0  0
   16.5010   26.4430   19.0640 C   0  0  0  0  0  0  0  0  0  0  0  0
   17.3650   26.7480   20.1920 C   0  0  0  0  0  0  0  0  0  0  0  0
   15.6100   24.6920   17.3250 C   0  0  0  0  0  0  0  0  0  0  0  0
   15.4030   27.3610   18.7340 O   0  0  0  0  0  0  0  0  0  0  0  0
   15.5880   28.4930   17.5980 P   0  0  2  0  0  0  0  0  0  0  0  0
   16.9780   28.0730   17.1570 O   0  0  0  0  0  0  0  0  0  0  0  0
   15.7930   29.7990   18.3810 O   0  0  0  0  0  1  0  0  0  0  0  0
   17.0910   27.6520   15.8360 C   0  0  0  0  0  0  0  0  0  0  0  0
   15.3800   25.1590   16.0890 O   0  0  0  0  0  0  0  0  0  0  0  0
   14.4700   28.6400   16.5970 O   0  0  0  0  0  0  0  0  0  0  0  0
   17.6610   28.8630   15.1820 C   0  0  0  0  0  0  0  0  0  0  0  0
   19.1270   28.4760   14.8870 C   0  0  0  0  0  0  0  0  0  0  0  0
   20.0270   28.3590   16.1190 C   0  0  0  0  0  0  0  0  0  0  0  0
   20.1670   29.7110   16.7980 C   0  0  0  0  0  0  0  0  0  0  0  0
   18.7760   30.2270   17.1830 C   0  0  0  0  0  0  0  0  0  0  0  0
   17.6840   30.1620   16.1040 C   0  0  0  0  0  0  0  0  0  0  0  0
   18.8333   26.0045   21.6330 H   0  0  0  0  0  0  0  0  0  0  0  0
   18.9768   23.7105   20.5839 H   0  0  0  0  0  0  0  0  0  0  0  0
   17.5744   23.1943   18.5696 H   0  0  0  0  0  0  0  0  0  0  0  0
   17.3497   27.7465   20.6137 H   0  0  0  0  0  0  0  0  0  0  0  0
   14.6200   24.7389   17.8021 H   0  0  0  0  0  0  0  0  0  0  0  0
   15.8842   23.6409   17.1520 H   0  0  0  0  0  0  0  0  0  0  0  0
   16.1097   27.3918   15.4125 H   0  0  0  0  0  0  0  0  0  0  0  0
   17.7693   26.7907   15.7460 H   0  0  0  0  0  0  0  0  0  0  0  0
   14.7081   24.6321   15.6725 H   0  0  0  0  0  0  0  0  0  0  0  0
   17.1100   29.0842   14.2560 H   0  0  0  0  0  0  0  0  0  0  0  0
   19.5550   29.2420   14.2237 H   0  0  0  0  0  0  0  0  0  0  0  0
   19.1260   27.5040   14.3720 H   0  0  0  0  0  0  0  0  0  0  0  0
   21.0210   28.0031   15.8102 H   0  0  0  0  0  0  0  0  0  0  0  0
   19.5839   27.6419   16.8257 H   0  0  0  0  0  0  0  0  0  0  0  0
   20.6452   30.4217   16.1079 H   0  0  0  0  0  0  0  0  0  0  0  0
   20.7841   29.6065   17.7025 H   0  0  0  0  0  0  0  0  0  0  0  0
   18.8839   31.2799   17.4826 H   0  0  0  0  0  0  0  0  0  0  0  0
   18.4287   29.6349   18.0425 H   0  0  0  0  0  0  0  0  0  0  0  0
   16.7104   30.2269   16.6118 H   0  0  0  0  0  0  0  0  0  0  0  0
   17.8136   31.0344   15.4466 H   0  0  0  0  0  0  0  0  0  0  0  0
  1  2  2  0  0  0  0
  1  6  1  0  0  0  0
  1 21  1  0  0  0  0
  2  3  1  0  0  0  0
  2 22  1  0  0  0  0
  3  4  2  0  0  0  0
  3 23  1  0  0  0  0
  4  5  1  0  0  0  0
  4  7  1  0  0  0  0
  5  6  2  0  0  0  0
  5  8  1  0  0  0  0
  6 24  1  0  0  0  0
  7 13  1  0  0  0  0
  7 25  1  0  0  0  0
  7 26  1  0  0  0  0
  8  9  1  0  0  0  0
  9 10  1  0  0  0  0
  9 11  1  1  0  0  0
  9 14  2  0  0  0  0
 10 12  1  0  0  0  0
 12 15  1  0  0  0  0
 12 27  1  0  0  0  0
 12 28  1  0  0  0  0
 13 29  1  0  0  0  0
 15 16  1  0  0  0  0
 15 20  1  0  0  0  0
 15 30  1  0  0  0  0
 16 17  1  0  0  0  0
 16 31  1  0  0  0  0
 16 32  1  0  0  0  0
 17 18  1  0  0  0  0
 17 33  1  0  0  0  0
 17 34  1  0  0  0  0
 18 19  1  0  0  0  0
 18 35  1  0  0  0  0
 18 36  1  0  0  0  0
 19 20  1  0  0  0  0
 19 37  1  0  0  0  0
 19 38  1  0  0  0  0
 20 39  1  0  0  0  0
 20 40  1  0  0  0  0
M  END
