1o4k_ligand
 OpenBabel08222323343D

 34 35  0  0  0  0  0  0  0  0999 V2000
   18.2550   26.2210   20.8860 C   0  0  0  0  0  0  0  0  0  0  0  0
   18.2980   24.8480   20.5000 C   0  0  0  0  0  0  0  0  0  0  0  0
   17.4090   24.3740   19.4840 C   0  0  0  0  0  0  0  0  0  0  0  0
   16.4800   25.2360   18.8090 C   0  0  0  0  0  0  0  0  0  0  0  0
   16.4360   26.5960   19.2320 C   0  0  0  0  0  0  0  0  0  0  0  0
   17.2920   27.1030   20.2940 C   0  0  0  0  0  0  0  0  0  0  0  0
   15.6070   24.6710   17.7140 C   0  0  0  0  0  0  0  0  0  0  0  0
   15.4480   27.4150   18.5870 O   0  0  0  0  0  0  0  0  0  0  0  0
   15.8280   28.2790   17.2910 P   0  0  2  0  0  0  0  0  0  0  0  0
   16.5510   29.5990   17.5800 O   0  0  0  0  0  0  0  0  0  0  0  0
   14.4590   28.7830   16.7490 O   0  0  0  0  0  1  0  0  0  0  0  0
   17.5610   29.8470   18.6300 C   0  0  0  0  0  0  0  0  0  0  0  0
   18.9590   29.1280   18.4410 C   0  0  0  0  0  0  0  0  0  0  0  0
   20.0200   29.4700   19.3790 C   0  0  0  0  0  0  0  0  0  0  0  0
   21.3110   28.8980   19.1550 C   0  0  0  0  0  0  0  0  0  0  0  0
   21.5380   27.9940   18.0290 C   0  0  0  0  0  0  0  0  0  0  0  0
   20.4460   27.5500   17.1990 C   0  0  0  0  0  0  0  0  0  0  0  0
   19.1590   28.1350   17.3870 C   0  0  0  0  0  0  0  0  0  0  0  0
   16.5240   27.4650   16.1870 O   0  0  0  0  0  0  0  0  0  0  0  0
   15.7700   24.8240   16.3820 O   0  0  0  0  0  0  0  0  0  0  0  0
   18.9507   26.5974   21.6272 H   0  0  0  0  0  0  0  0  0  0  0  0
   18.9987   24.1693   20.9728 H   0  0  0  0  0  0  0  0  0  0  0  0
   17.4379   23.3246   19.2137 H   0  0  0  0  0  0  0  0  0  0  0  0
   17.2032   28.1293   20.6315 H   0  0  0  0  0  0  0  0  0  0  0  0
   14.6011   25.0640   17.9229 H   0  0  0  0  0  0  0  0  0  0  0  0
   15.6169   23.5832   17.8771 H   0  0  0  0  0  0  0  0  0  0  0  0
   17.1380   29.5111   19.5882 H   0  0  0  0  0  0  0  0  0  0  0  0
   17.7441   30.9309   18.6699 H   0  0  0  0  0  0  0  0  0  0  0  0
   19.8373   30.1339   20.2162 H   0  0  0  0  0  0  0  0  0  0  0  0
   22.1284   29.1367   19.8258 H   0  0  0  0  0  0  0  0  0  0  0  0
   22.5440   27.6518   17.8145 H   0  0  0  0  0  0  0  0  0  0  0  0
   20.6003   26.7857   16.4460 H   0  0  0  0  0  0  0  0  0  0  0  0
   18.3314   27.8441   16.7501 H   0  0  0  0  0  0  0  0  0  0  0  0
   15.7348   25.7480   16.1638 H   0  0  0  0  0  0  0  0  0  0  0  0
  1  2  2  0  0  0  0
  1  6  1  0  0  0  0
  1 21  1  0  0  0  0
  2  3  1  0  0  0  0
  2 22  1  0  0  0  0
  3  4  2  0  0  0  0
  3 23  1  0  0  0  0
  4  5  1  0  0  0  0
  4  7  1  0  0  0  0
  5  6  2  0  0  0  0
  5  8  1  0  0  0  0
  6 24  1  0  0  0  0
  7 20  1  0  0  0  0
  7 25  1  0  0  0  0
  7 26  1  0  0  0  0
  8  9  1  0  0  0  0
  9 10  1  0  0  0  0
  9 11  1  6  0  0  0
  9 19  2  0  0  0  0
 10 12  1  0  0  0  0
 12 13  1  0  0  0  0
 12 27  1  0  0  0  0
 12 28  1  0  0  0  0
 13 14  2  0  0  0  0
 13 18  1  0  0  0  0
 14 15  1  0  0  0  0
 14 29  1  0  0  0  0
 15 16  2  0  0  0  0
 15 30  1  0  0  0  0
 16 17  1  0  0  0  0
 16 31  1  0  0  0  0
 17 18  2  0  0  0  0
 17 32  1  0  0  0  0
 18 33  1  0  0  0  0
 20 34  1  0  0  0  0
M  END
