1o4q_ligand
 OpenBabel08222323343D

 20 20  0  0  1  0  0  0  0  0999 V2000
   19.2570   25.6420   20.2430 C   0  0  0  0  0  0  0  0  0  0  0  0
   18.2100   24.7790   19.9800 C   0  0  0  0  0  0  0  0  0  0  0  0
   17.2820   25.1710   19.0340 C   0  0  0  0  0  0  0  0  0  0  0  0
   17.4230   26.4420   18.4450 C   0  0  0  0  0  0  0  0  0  0  0  0
   18.5210   27.2830   18.6850 C   0  0  0  0  0  0  0  0  0  0  0  0
   19.4480   26.8930   19.6280 C   0  0  0  0  0  0  0  0  0  0  0  0
   16.3750   26.9920   17.5700 C   0  0  2  0  0  0  0  0  0  0  0  0
   16.8680   27.1890   16.0860 C   0  0  0  0  0  0  0  0  0  0  0  0
   16.4340   26.0580   15.3950 O   0  5  0  0  0  0  0  0  0  0  0  0
   15.4940   28.4450   18.0420 S   0  0  0  0  0  0  0  0  0  0  0  0
   14.4060   28.5190   16.8500 O   0  0  0  0  0  1  0  0  0  0  0  0
   17.4130   28.1450   15.5810 O   0  0  0  0  0  0  0  0  0  0  0  0
   16.3730   29.6100   17.9990 O   0  0  0  0  0  1  0  0  0  0  0  0
   14.9320   28.2490   19.3570 O   0  0  0  0  0  1  0  0  0  0  0  0
   19.9880   25.3308   20.9805 H   0  0  0  0  0  0  0  0  0  0  0  0
   18.1201   23.8302   20.4964 H   0  0  0  0  0  0  0  0  0  0  0  0
   16.4655   24.5160   18.7523 H   0  0  0  0  0  0  0  0  0  0  0  0
   18.6370   28.2146   18.1431 H   0  0  0  0  0  0  0  0  0  0  0  0
   20.2903   27.5249   19.8854 H   0  0  0  0  0  0  0  0  0  0  0  0
   15.6130   26.1992   17.5402 H   0  0  0  0  0  0  0  0  0  0  0  0
  1  2  2  0  0  0  0
  1  6  1  0  0  0  0
  1 15  1  0  0  0  0
  2  3  1  0  0  0  0
  2 16  1  0  0  0  0
  3  4  2  0  0  0  0
  3 17  1  0  0  0  0
  4  5  1  0  0  0  0
  4  7  1  0  0  0  0
  5  6  2  0  0  0  0
  5 18  1  0  0  0  0
  6 19  1  0  0  0  0
  7  8  1  0  0  0  0
  7 10  1  0  0  0  0
  7 20  1  6  0  0  0
  8  9  1  0  0  0  0
  8 12  2  0  0  0  0
 10 11  1  0  0  0  0
 10 13  1  0  0  0  0
 10 14  1  0  0  0  0
M  CHG  1   9  -1
M  END
