1o4r_ligand
 OpenBabel08222323343D

 21 21  0  0  0  0  0  0  0  0999 V2000
   17.7510   24.3380   19.0420 C   0  0  0  0  0  0  0  0  0  0  0  0
   16.8780   24.5730   17.9680 C   0  0  0  0  0  0  0  0  0  0  0  0
   16.7790   25.8440   17.3440 C   0  0  0  0  0  0  0  0  0  0  0  0
   17.5680   26.9100   17.9400 C   0  0  0  0  0  0  0  0  0  0  0  0
   18.5390   26.6550   18.9480 C   0  0  0  0  0  0  0  0  0  0  0  0
   18.5760   25.3540   19.5640 C   0  0  0  0  0  0  0  0  0  0  0  0
   17.3880   28.1970   17.4250 C   0  0  0  0  0  0  0  0  0  0  0  0
   15.7620   28.8800   17.5740 P   0  0  0  0  0  0  0  0  0  0  0  0
   18.1680   28.5460   15.7620 P   0  0  0  0  0  0  0  0  0  0  0  0
   17.5620   29.8300   15.2340 O   0  0  0  0  0  1  0  0  0  0  0  0
   17.7690   27.4930   14.8120 O   0  0  0  0  0  1  0  0  0  0  0  0
   19.6030   28.5850   15.9500 O   0  0  0  0  0  0  0  0  0  0  0  0
   16.0020   30.5080   17.3520 O   0  0  0  0  0  1  0  0  0  0  0  0
   15.2820   28.6420   18.9650 O   0  0  0  0  0  1  0  0  0  0  0  0
   14.8300   28.4360   16.5890 O   0  0  0  0  0  0  0  0  0  0  0  0
   17.7915   23.3480   19.4817 H   0  0  0  0  0  0  0  0  0  0  0  0
   16.2610   23.7593   17.6043 H   0  0  0  0  0  0  0  0  0  0  0  0
   16.1526   26.0100   16.4750 H   0  0  0  0  0  0  0  0  0  0  0  0
   19.2389   27.4268   19.2472 H   0  0  0  0  0  0  0  0  0  0  0  0
   19.2244   25.1604   20.4109 H   0  0  0  0  0  0  0  0  0  0  0  0
   17.9831   28.8138   18.1145 H   0  0  0  0  0  0  0  0  0  0  0  0
  1  2  2  0  0  0  0
  1  6  1  0  0  0  0
  1 16  1  0  0  0  0
  2  3  1  0  0  0  0
  2 17  1  0  0  0  0
  3  4  2  0  0  0  0
  3 18  1  0  0  0  0
  4  5  1  0  0  0  0
  4  7  1  0  0  0  0
  5  6  2  0  0  0  0
  5 19  1  0  0  0  0
  6 20  1  0  0  0  0
  7  8  1  0  0  0  0
  7  9  1  0  0  0  0
  7 21  1  0  0  0  0
  8 13  1  0  0  0  0
  8 14  1  0  0  0  0
  8 15  2  0  0  0  0
  9 10  1  0  0  0  0
  9 11  1  0  0  0  0
  9 12  2  0  0  0  0
M  END
