1o6r_ligand
 OpenBabel08222323343D

 57 59  0  0  1  0  0  0  0  0999 V2000
   62.9540   69.0520   58.3270 C   0  0  0  0  0  0  0  0  0  0  0  0
   62.7160   69.4010   59.7780 C   0  0  0  0  0  0  0  0  0  0  0  0
   62.2090   70.7880   59.9590 N   0  3  1  0  0  0  0  0  0  0  0  0
   60.7210   70.8160   59.8630 C   0  0  0  0  0  0  0  0  0  0  0  0
   62.6510   71.4000   61.2670 C   0  0  0  0  0  0  0  0  0  0  0  0
   62.1090   70.7320   62.5800 C   0  0  0  0  0  0  0  0  0  0  0  0
   63.1200   69.7030   63.1510 C   0  0  0  0  0  0  0  0  0  0  0  0
   63.8060   70.2380   64.4170 C   0  0  0  0  0  0  0  0  0  0  0  0
   63.4140   69.3830   65.6290 C   0  0  0  0  0  0  0  0  0  0  0  0
   64.6170   69.2380   66.5670 C   0  0  0  0  0  0  0  0  0  0  0  0
   64.1850   69.5400   67.8970 O   0  0  0  0  0  0  0  0  0  0  0  0
   65.1650   70.0590   68.7550 C   0  0  0  0  0  0  0  0  0  0  0  0
   65.4410   71.4550   68.7280 C   0  0  0  0  0  0  0  0  0  0  0  0
   66.4230   72.0450   69.5810 C   0  0  0  0  0  0  0  0  0  0  0  0
   67.1190   71.2000   70.4610 C   0  0  0  0  0  0  0  0  0  0  0  0
   68.1580   71.4620   71.4410 C   0  0  0  0  0  0  0  0  0  0  0  0
   68.8180   72.7850   71.8210 C   0  0  0  0  0  0  0  0  0  0  0  0
   68.0370   73.9170   72.2120 C   0  0  0  0  0  0  0  0  0  0  0  0
   68.6730   75.1430   72.5840 C   0  0  0  0  0  0  0  0  0  0  0  0
   70.1080   75.2510   72.5690 C   0  0  0  0  0  0  0  0  0  0  0  0
   70.9870   76.8570   73.0760 Br  0  0  0  0  0  0  0  0  0  0  0  0
   70.8750   74.1130   72.1710 C   0  0  0  0  0  0  0  0  0  0  0  0
   70.2360   72.8970   71.8020 C   0  0  0  0  0  0  0  0  0  0  0  0
   68.4430   70.2330   71.9910 C   0  0  0  0  0  0  0  0  0  0  0  0
   67.6610   69.2200   71.4320 O   0  0  0  0  0  0  0  0  0  0  0  0
   66.8400   69.7740   70.4910 C   0  0  0  0  0  0  0  0  0  0  0  0
   65.8630   69.1990   69.6420 C   0  0  0  0  0  0  0  0  0  0  0  0
   63.8030   68.0950   57.9370 C   0  0  0  0  0  0  0  0  0  0  0  0
   62.4090   69.6053   57.5636 H   0  0  0  0  0  0  0  0  0  0  0  0
   63.6650   69.2991   60.3248 H   0  0  0  0  0  0  0  0  0  0  0  0
   61.9770   68.6993   60.1921 H   0  0  0  0  0  0  0  0  0  0  0  0
   62.5841   71.3516   59.2122 H   0  0  0  0  0  0  0  0  0  0  0  0
   60.3642   71.8476   59.9990 H   0  0  0  0  0  0  0  0  0  0  0  0
   60.2909   70.1732   60.6452 H   0  0  0  0  0  0  0  0  0  0  0  0
   60.4104   70.4480   58.8740 H   0  0  0  0  0  0  0  0  0  0  0  0
   62.3256   72.4508   61.2695 H   0  0  0  0  0  0  0  0  0  0  0  0
   63.7496   71.3562   61.3005 H   0  0  0  0  0  0  0  0  0  0  0  0
   61.1630   70.2175   62.3555 H   0  0  0  0  0  0  0  0  0  0  0  0
   61.9313   71.5144   63.3325 H   0  0  0  0  0  0  0  0  0  0  0  0
   63.8860   69.4930   62.3900 H   0  0  0  0  0  0  0  0  0  0  0  0
   62.5849   68.7744   63.3987 H   0  0  0  0  0  0  0  0  0  0  0  0
   63.4927   71.2783   64.5888 H   0  0  0  0  0  0  0  0  0  0  0  0
   64.8972   70.2010   64.2831 H   0  0  0  0  0  0  0  0  0  0  0  0
   63.0947   68.3876   65.2868 H   0  0  0  0  0  0  0  0  0  0  0  0
   62.5867   69.8686   66.1673 H   0  0  0  0  0  0  0  0  0  0  0  0
   65.4109   69.9372   66.2655 H   0  0  0  0  0  0  0  0  0  0  0  0
   65.0002   68.2078   66.5248 H   0  0  0  0  0  0  0  0  0  0  0  0
   64.8908   72.0879   68.0411 H   0  0  0  0  0  0  0  0  0  0  0  0
   66.6245   73.1097   69.5502 H   0  0  0  0  0  0  0  0  0  0  0  0
   66.9554   73.8456   72.2266 H   0  0  0  0  0  0  0  0  0  0  0  0
   68.0711   75.9950   72.8787 H   0  0  0  0  0  0  0  0  0  0  0  0
   71.9569   74.1772   72.1500 H   0  0  0  0  0  0  0  0  0  0  0  0
   70.8366   72.0456   71.5028 H   0  0  0  0  0  0  0  0  0  0  0  0
   69.1883   70.0702   72.7682 H   0  0  0  0  0  0  0  0  0  0  0  0
   65.6550   68.1355   69.6689 H   0  0  0  0  0  0  0  0  0  0  0  0
   63.9365   67.8845   56.8769 H   0  0  0  0  0  0  0  0  0  0  0  0
   64.3608   67.5263   58.6795 H   0  0  0  0  0  0  0  0  0  0  0  0
  1  2  1  0  0  0  0
  1 28  2  0  0  0  0
  1 29  1  0  0  0  0
  2  3  1  0  0  0  0
  2 30  1  0  0  0  0
  2 31  1  0  0  0  0
  3  4  1  0  0  0  0
  3  5  1  0  0  0  0
  3 32  1  6  0  0  0
  4 33  1  0  0  0  0
  4 34  1  0  0  0  0
  4 35  1  0  0  0  0
  5  6  1  0  0  0  0
  5 36  1  0  0  0  0
  5 37  1  0  0  0  0
  6  7  1  0  0  0  0
  6 38  1  0  0  0  0
  6 39  1  0  0  0  0
  7  8  1  0  0  0  0
  7 40  1  0  0  0  0
  7 41  1  0  0  0  0
  8  9  1  0  0  0  0
  8 42  1  0  0  0  0
  8 43  1  0  0  0  0
  9 10  1  0  0  0  0
  9 44  1  0  0  0  0
  9 45  1  0  0  0  0
 10 11  1  0  0  0  0
 10 46  1  0  0  0  0
 10 47  1  0  0  0  0
 11 12  1  0  0  0  0
 12 13  2  0  0  0  0
 12 27  1  0  0  0  0
 13 14  1  0  0  0  0
 13 48  1  0  0  0  0
 14 15  2  0  0  0  0
 14 49  1  0  0  0  0
 15 16  1  0  0  0  0
 15 26  1  0  0  0  0
 16 17  1  0  0  0  0
 16 24  2  0  0  0  0
 17 18  2  0  0  0  0
 17 23  1  0  0  0  0
 18 19  1  0  0  0  0
 18 50  1  0  0  0  0
 19 20  2  0  0  0  0
 19 51  1  0  0  0  0
 20 21  1  0  0  0  0
 20 22  1  0  0  0  0
 22 23  2  0  0  0  0
 22 52  1  0  0  0  0
 23 53  1  0  0  0  0
 24 25  1  0  0  0  0
 24 54  1  0  0  0  0
 25 26  1  0  0  0  0
 26 27  2  0  0  0  0
 27 55  1  0  0  0  0
 28 56  1  0  0  0  0
 28 57  1  0  0  0  0
M  CHG  1   3   1
M  END
