1o9d_ligand
 OpenBabel08222323343D

 85 85  0  0  1  0  0  0  0  0999 V2000
   42.6670   52.3990   18.7130 N   0  3  0  0  0  0  0  0  0  0  0  0
   42.3850   52.2380   20.1780 C   0  0  2  0  0  0  0  0  0  0  0  0
   41.6340   53.4410   20.7690 C   0  0  0  0  0  0  0  0  0  0  0  0
   41.9900   54.5990   20.5720 O   0  0  0  0  0  0  0  0  0  0  0  0
   43.6830   51.9780   20.9540 C   0  0  0  0  0  0  0  0  0  0  0  0
   44.0490   50.4780   21.0650 C   0  0  0  0  0  0  0  0  0  0  0  0
   44.0420   49.7470   19.6860 C   0  0  0  0  0  0  0  0  0  0  0  0
   42.9770   49.5860   19.0530 O   0  0  0  0  0  0  0  0  0  0  0  0
   45.2350   49.3210   19.2180 N   0  0  0  0  0  0  0  0  0  0  0  0
   40.5650   53.1170   21.4770 N   0  0  0  0  0  0  0  0  0  0  0  0
   39.6770   54.0510   22.1080 C   0  0  2  0  0  0  0  0  0  0  0  0
   39.7010   53.7020   23.5850 C   0  0  0  0  0  0  0  0  0  0  0  0
   40.2050   52.6420   23.9750 O   0  0  0  0  0  0  0  0  0  0  0  0
   38.2660   53.8720   21.5370 C   0  0  0  0  0  0  0  0  0  0  0  0
   38.2760   53.9310   20.1070 O   0  0  0  0  0  0  0  0  0  0  0  0
   39.1790   54.5910   24.4190 N   0  0  0  0  0  0  0  0  0  0  0  0
   39.1710   54.3030   25.8440 C   0  0  2  0  0  0  0  0  0  0  0  0
   38.0600   53.3390   26.1670 C   0  0  0  0  0  0  0  0  0  0  0  0
   36.9490   53.4260   25.5950 O   0  0  0  0  0  0  0  0  0  0  0  0
   38.9320   55.5800   26.6560 C   0  0  0  0  0  0  0  0  0  0  0  0
   39.9690   56.6140   26.3860 C   0  0  0  0  0  0  0  0  0  0  0  0
   41.2040   56.5500   27.0160 C   0  0  0  0  0  0  0  0  0  0  0  0
   39.7640   57.5890   25.4170 C   0  0  0  0  0  0  0  0  0  0  0  0
   42.2200   57.4240   26.6910 C   0  0  0  0  0  0  0  0  0  0  0  0
   40.7900   58.4680   25.0670 C   0  0  0  0  0  0  0  0  0  0  0  0
   42.0130   58.3740   25.7100 C   0  0  0  0  0  0  0  0  0  0  0  0
   43.0620   59.1750   25.3290 O   0  0  0  0  0  0  0  0  0  0  0  0
   38.3750   52.4170   27.0700 N   0  0  0  0  0  0  0  0  0  0  0  0
   37.3710   51.4850   27.5990 C   0  0  1  0  0  0  0  0  0  0  0  0
   37.4850   50.0620   26.9410 C   0  0  1  0  0  0  0  0  0  0  0  0
   37.2130   50.1460   25.4340 C   0  0  0  0  0  0  0  0  0  0  0  0
   38.8010   49.5630   27.2530 O   0  0  0  0  0  0  0  0  0  0  0  0
   39.2920   48.0940   26.9360 P   0  0  0  0  0  0  0  0  0  0  0  0
   39.3670   47.9830   25.3450 O   0  0  0  0  0  1  0  0  0  0  0  0
   38.3110   47.0640   27.5230 O   0  0  0  0  0  1  0  0  0  0  0  0
   40.7410   47.9920   27.5400 O   0  0  0  0  0  0  0  0  0  0  0  0
   37.6790   51.4220   29.0860 C   0  0  0  0  0  0  0  0  0  0  0  0
   38.7290   51.9160   29.5110 O   0  0  0  0  0  0  0  0  0  0  0  0
   36.7880   50.8520   29.8720 N   0  0  0  0  0  0  0  0  0  0  0  0
   37.0160   50.6400   31.3000 C   0  0  2  0  0  0  0  0  0  0  0  0
   36.5540   49.2720   31.7310 C   0  0  0  0  0  0  0  0  0  0  0  0
   35.9690   48.5200   30.8860 O   0  5  0  0  0  0  0  0  0  0  0  0
   36.2920   51.6600   32.2150 C   0  0  0  0  0  0  0  0  0  0  0  0
   36.9540   53.0570   32.0280 C   0  0  0  0  0  0  0  0  0  0  0  0
   34.7730   51.6640   31.9200 C   0  0  0  0  0  0  0  0  0  0  0  0
   36.7840   48.9630   32.9360 O   0  0  0  0  0  0  0  0  0  0  0  0
   43.1590   51.5870   18.3743 H   0  0  0  0  0  0  0  0  0  0  0  0
   43.2338   53.2199   18.5681 H   0  0  0  0  0  0  0  0  0  0  0  0
   41.7977   52.4982   18.2124 H   0  0  0  0  0  0  0  0  0  0  0  0
   41.7393   51.3552   20.2951 H   0  0  0  0  0  0  0  0  0  0  0  0
   43.5681   52.3839   21.9699 H   0  0  0  0  0  0  0  0  0  0  0  0
   44.5049   52.4994   20.4416 H   0  0  0  0  0  0  0  0  0  0  0  0
   43.3199   49.9869   21.7262 H   0  0  0  0  0  0  0  0  0  0  0  0
   45.0550   50.3936   21.5017 H   0  0  0  0  0  0  0  0  0  0  0  0
   45.2869   48.8467   18.3391 H   0  0  0  0  0  0  0  0  0  0  0  0
   46.0665   49.4798   19.7503 H   0  0  0  0  0  0  0  0  0  0  0  0
   40.3592   52.1439   21.5808 H   0  0  0  0  0  0  0  0  0  0  0  0
   40.0172   55.0848   21.9485 H   0  0  0  0  0  0  0  0  0  0  0  0
   37.6177   54.6716   21.9247 H   0  0  0  0  0  0  0  0  0  0  0  0
   37.8721   52.8949   21.8532 H   0  0  0  0  0  0  0  0  0  0  0  0
   38.8316   53.2397   19.7665 H   0  0  0  0  0  0  0  0  0  0  0  0
   38.7962   55.4475   24.0726 H   0  0  0  0  0  0  0  0  0  0  0  0
   40.1383   53.8626   26.1276 H   0  0  0  0  0  0  0  0  0  0  0  0
   38.9510   55.3290   27.7268 H   0  0  0  0  0  0  0  0  0  0  0  0
   37.9454   55.9891   26.3927 H   0  0  0  0  0  0  0  0  0  0  0  0
   41.3733   55.7983   27.7785 H   0  0  0  0  0  0  0  0  0  0  0  0
   38.7992   57.6674   24.9290 H   0  0  0  0  0  0  0  0  0  0  0  0
   43.1743   57.3658   27.2018 H   0  0  0  0  0  0  0  0  0  0  0  0
   40.6312   59.2169   24.2995 H   0  0  0  0  0  0  0  0  0  0  0  0
   42.8183   60.0868   25.4373 H   0  0  0  0  0  0  0  0  0  0  0  0
   39.3180   52.3562   27.3972 H   0  0  0  0  0  0  0  0  0  0  0  0
   36.3574   51.8775   27.4301 H   0  0  0  0  0  0  0  0  0  0  0  0
   36.7358   49.3917   27.3875 H   0  0  0  0  0  0  0  0  0  0  0  0
   37.2967   49.1431   24.9899 H   0  0  0  0  0  0  0  0  0  0  0  0
   37.9481   50.8169   24.9655 H   0  0  0  0  0  0  0  0  0  0  0  0
   36.1991   50.5381   25.2657 H   0  0  0  0  0  0  0  0  0  0  0  0
   35.9204   50.5523   29.4752 H   0  0  0  0  0  0  0  0  0  0  0  0
   38.0985   50.7232   31.4770 H   0  0  0  0  0  0  0  0  0  0  0  0
   36.4303   51.3535   33.2623 H   0  0  0  0  0  0  0  0  0  0  0  0
   36.4489   53.7913   32.6727 H   0  0  0  0  0  0  0  0  0  0  0  0
   36.8631   53.3681   30.9769 H   0  0  0  0  0  0  0  0  0  0  0  0
   38.0176   52.9985   32.3024 H   0  0  0  0  0  0  0  0  0  0  0  0
   34.3678   50.6524   32.0698 H   0  0  0  0  0  0  0  0  0  0  0  0
   34.6024   51.9769   30.8794 H   0  0  0  0  0  0  0  0  0  0  0  0
   34.2690   52.3654   32.6012 H   0  0  0  0  0  0  0  0  0  0  0  0
  1 47  1  0  0  0  0
  1 48  1  0  0  0  0
  1 49  1  0  0  0  0
  2  1  1  0  0  0  0
  2  5  1  0  0  0  0
  2 50  1  1  0  0  0
  3  2  1  0  0  0  0
  3  4  2  0  0  0  0
  5  6  1  0  0  0  0
  5 51  1  0  0  0  0
  5 52  1  0  0  0  0
  6  7  1  0  0  0  0
  6 53  1  0  0  0  0
  6 54  1  0  0  0  0
  7  9  1  0  0  0  0
  7  8  2  0  0  0  0
  9 55  1  0  0  0  0
  9 56  1  0  0  0  0
 10  3  1  0  0  0  0
 10 57  1  0  0  0  0
 11 10  1  0  0  0  0
 11 14  1  0  0  0  0
 11 58  1  6  0  0  0
 12 11  1  0  0  0  0
 12 13  2  0  0  0  0
 14 15  1  0  0  0  0
 14 59  1  0  0  0  0
 14 60  1  0  0  0  0
 15 61  1  0  0  0  0
 16 12  1  0  0  0  0
 16 62  1  0  0  0  0
 17 16  1  0  0  0  0
 17 20  1  0  0  0  0
 17 63  1  1  0  0  0
 18 17  1  0  0  0  0
 18 19  2  0  0  0  0
 20 21  1  0  0  0  0
 20 64  1  0  0  0  0
 20 65  1  0  0  0  0
 21 22  2  0  0  0  0
 21 23  1  0  0  0  0
 22 24  1  0  0  0  0
 22 66  1  0  0  0  0
 23 25  2  0  0  0  0
 23 67  1  0  0  0  0
 24 26  2  0  0  0  0
 24 68  1  0  0  0  0
 25 26  1  0  0  0  0
 25 69  1  0  0  0  0
 26 27  1  0  0  0  0
 27 70  1  0  0  0  0
 28 18  1  0  0  0  0
 28 71  1  0  0  0  0
 29 28  1  0  0  0  0
 29 30  1  0  0  0  0
 29 72  1  6  0  0  0
 30 31  1  0  0  0  0
 30 32  1  0  0  0  0
 30 73  1  1  0  0  0
 31 74  1  0  0  0  0
 31 75  1  0  0  0  0
 31 76  1  0  0  0  0
 32 33  1  0  0  0  0
 33 34  1  0  0  0  0
 33 35  1  0  0  0  0
 33 36  2  0  0  0  0
 37 29  1  0  0  0  0
 37 39  1  0  0  0  0
 37 38  2  0  0  0  0
 39 40  1  0  0  0  0
 39 77  1  0  0  0  0
 40 43  1  0  0  0  0
 40 41  1  0  0  0  0
 40 78  1  1  0  0  0
 41 42  1  0  0  0  0
 41 46  2  0  0  0  0
 43 45  1  0  0  0  0
 43 44  1  0  0  0  0
 43 79  1  0  0  0  0
 44 80  1  0  0  0  0
 44 81  1  0  0  0  0
 44 82  1  0  0  0  0
 45 83  1  0  0  0  0
 45 84  1  0  0  0  0
 45 85  1  0  0  0  0
M  CHG  2   1   1  42  -1
M  END
