1o9k_ligand
 OpenBabel08222323343D

284287  0  0  1  0  0  0  0  0999 V2000
   20.8840  143.9390   31.2440 N   0  3  0  0  0  0  0  0  0  0  0  0
   22.1450  144.7450   31.2750 C   0  0  2  0  0  0  0  0  0  0  0  0
   22.9540  144.5830   29.9780 C   0  0  0  0  0  0  0  0  0  0  0  0
   22.4010  144.7380   28.8810 O   0  0  0  0  0  0  0  0  0  0  0  0
   22.9880  144.4120   32.5230 C   0  0  0  0  0  0  0  0  0  0  0  0
   23.4260  142.9780   32.8570 C   0  0  0  0  0  0  0  0  0  0  0  0
   24.4040  142.9770   34.0300 C   0  0  0  0  0  0  0  0  0  0  0  0
   22.2410  142.0700   33.1580 C   0  0  0  0  0  0  0  0  0  0  0  0
   24.2490  144.2770   30.1070 N   0  0  0  0  0  0  0  0  0  0  0  0
   25.1370  144.1150   28.9460 C   0  0  2  0  0  0  0  0  0  0  0  0
   25.4750  145.4690   28.2950 C   0  0  0  0  0  0  0  0  0  0  0  0
   26.0370  145.5380   27.2030 O   0  0  0  0  0  0  0  0  0  0  0  0
   24.5100  143.1630   27.9250 C   0  0  0  0  0  0  0  0  0  0  0  0
   25.4960  142.6980   26.8770 C   0  0  0  0  0  0  0  0  0  0  0  0
   25.7350  143.4520   25.9100 O   0  5  0  0  0  0  0  0  0  0  0  0
   26.0770  141.5900   26.9340 O   0  0  0  0  0  0  0  0  0  0  0  0
   25.1150  146.5460   28.9780 N   0  0  0  0  0  0  0  0  0  0  0  0
   25.3790  147.8920   28.4920 C   0  0  2  0  0  0  0  0  0  0  0  0
   26.4510  148.4570   29.3960 C   0  0  0  0  0  0  0  0  0  0  0  0
   26.4000  148.2510   30.6020 O   0  0  0  0  0  0  0  0  0  0  0  0
   24.1030  148.7370   28.5670 C   0  0  0  0  0  0  0  0  0  0  0  0
   24.3010  150.2040   28.2640 C   0  0  0  0  0  0  0  0  0  0  0  0
   24.3870  150.6530   26.9560 C   0  0  0  0  0  0  0  0  0  0  0  0
   24.3840  151.1480   29.2880 C   0  0  0  0  0  0  0  0  0  0  0  0
   24.5600  151.9840   26.6720 C   0  0  0  0  0  0  0  0  0  0  0  0
   24.5590  152.4830   29.0080 C   0  0  0  0  0  0  0  0  0  0  0  0
   24.6500  152.8960   27.6940 C   0  0  0  0  0  0  0  0  0  0  0  0
   24.8330  154.2340   27.3830 O   0  0  0  0  0  0  0  0  0  0  0  0
   27.4260  149.1510   28.8220 N   0  0  0  0  0  0  0  0  0  0  0  0
   28.5340  149.7110   29.5980 C   0  0  2  0  0  0  0  0  0  0  0  0
   28.1770  151.0550   30.2550 C   0  0  0  0  0  0  0  0  0  0  0  0
   28.0410  152.0600   29.5690 O   0  0  0  0  0  0  0  0  0  0  0  0
   29.7690  149.8710   28.6920 C   0  0  0  0  0  0  0  0  0  0  0  0
   30.9360  150.5520   29.3450 C   0  0  0  0  0  0  0  0  0  0  0  0
   31.4010  150.2110   30.5980 N   0  0  0  0  0  0  0  0  0  0  0  0
   31.7390  151.5500   28.9110 C   0  0  0  0  0  0  0  0  0  0  0  0
   32.4360  150.9720   30.9090 C   0  0  0  0  0  0  0  0  0  0  0  0
   32.6630  151.7920   29.9000 N   0  0  0  0  0  0  0  0  0  0  0  0
   28.0090  151.0650   31.5760 N   0  0  0  0  0  0  0  0  0  0  0  0
   27.7640  152.3170   32.2940 C   0  0  2  0  0  0  0  0  0  0  0  0
   29.1030  152.8760   32.7490 C   0  0  0  0  0  0  0  0  0  0  0  0
   29.7320  152.3210   33.6500 O   0  0  0  0  0  0  0  0  0  0  0  0
   26.8720  152.1020   33.5080 C   0  0  0  0  0  0  0  0  0  0  0  0
   25.4760  151.7110   33.1700 C   0  0  0  0  0  0  0  0  0  0  0  0
   25.1600  150.3880   32.9260 C   0  0  0  0  0  0  0  0  0  0  0  0
   24.4660  152.6660   33.1020 C   0  0  0  0  0  0  0  0  0  0  0  0
   23.8660  150.0200   32.6200 C   0  0  0  0  0  0  0  0  0  0  0  0
   23.1770  152.3010   32.7990 C   0  0  0  0  0  0  0  0  0  0  0  0
   22.8750  150.9810   32.5570 C   0  0  0  0  0  0  0  0  0  0  0  0
   29.5370  153.9710   32.1330 N   0  0  0  0  0  0  0  0  0  0  0  0
   30.8330  154.5480   32.4400 C   0  0  0  0  0  0  0  0  0  0  0  0
   30.8110  155.5550   33.5720 C   0  0  0  0  0  0  0  0  0  0  0  0
   31.8560  155.9160   34.1050 O   0  0  0  0  0  0  0  0  0  0  0  0
   29.6260  156.0340   33.9260 N   0  0  0  0  0  0  0  0  0  0  0  0
   29.5180  156.9560   35.0420 C   0  0  2  0  0  0  0  0  0  0  0  0
   29.7900  156.2050   36.3340 C   0  0  0  0  0  0  0  0  0  0  0  0
   29.4110  155.0420   36.4830 O   0  0  0  0  0  0  0  0  0  0  0  0
   28.1330  157.5950   35.1060 C   0  0  0  0  0  0  0  0  0  0  0  0
   27.8130  158.6830   34.0790 C   0  0  0  0  0  0  0  0  0  0  0  0
   26.3480  159.0930   34.2040 C   0  0  0  0  0  0  0  0  0  0  0  0
   28.7340  159.8730   34.2480 C   0  0  0  0  0  0  0  0  0  0  0  0
   30.4600  156.8830   37.2590 N   0  0  0  0  0  0  0  0  0  0  0  0
   30.7510  156.3320   38.5720 C   0  0  2  0  0  0  0  0  0  0  0  0
   29.8070  156.9480   39.5990 C   0  0  0  0  0  0  0  0  0  0  0  0
   29.2720  158.0270   39.3680 O   0  0  0  0  0  0  0  0  0  0  0  0
   32.2000  156.6280   38.9230 C   0  0  0  0  0  0  0  0  0  0  0  0
   33.1610  156.0750   37.8870 C   0  0  0  0  0  0  0  0  0  0  0  0
   34.6120  156.3000   38.2530 C   0  0  0  0  0  0  0  0  0  0  0  0
   34.9420  157.4410   38.6380 O   0  5  0  0  0  0  0  0  0  0  0  0
   35.4150  155.3390   38.1480 O   0  0  0  0  0  0  0  0  0  0  0  0
   29.6060  156.2680   40.7290 N   0  0  0  0  0  0  0  0  0  0  0  0
   28.6790  156.7330   41.7790 C   0  0  2  0  0  0  0  0  0  0  0  0
   28.7960  158.2260   42.1160 C   0  0  0  0  0  0  0  0  0  0  0  0
   27.8050  158.9190   42.3140 O   0  0  0  0  0  0  0  0  0  0  0  0
   28.7930  155.8700   43.0480 C   0  0  0  0  0  0  0  0  0  0  0  0
   28.1930  154.4640   42.9080 C   0  0  0  0  0  0  0  0  0  0  0  0
   28.0090  153.7470   44.2460 C   0  0  0  0  0  0  0  0  0  0  0  0
   27.6760  154.4130   45.2530 O   0  5  0  0  0  0  0  0  0  0  0  0
   28.1880  152.5120   44.2910 O   0  0  0  0  0  0  0  0  0  0  0  0
   30.0060  158.7440   42.1660 N   0  0  0  0  0  0  0  0  0  0  0  0
   30.1350  160.1610   42.4310 C   0  0  0  0  0  0  0  0  0  0  0  0
   29.8790  161.0500   41.2180 C   0  0  0  0  0  0  0  0  0  0  0  0
   30.1900  162.2480   41.2540 O   0  0  0  0  0  0  0  0  0  0  0  0
   29.3360  160.4800   40.1430 N   0  0  0  0  0  0  0  0  0  0  0  0
   29.0610  161.2550   38.9290 C   0  0  2  0  0  0  0  0  0  0  0  0
   27.5880  161.2290   38.5250 C   0  0  0  0  0  0  0  0  0  0  0  0
   26.8900  160.2320   38.6780 O   0  0  0  0  0  0  0  0  0  0  0  0
   29.9220  160.7650   37.7520 C   0  0  0  0  0  0  0  0  0  0  0  0
   31.3440  161.3280   37.7030 C   0  0  0  0  0  0  0  0  0  0  0  0
   32.3150  160.4580   36.9040 C   0  0  0  0  0  0  0  0  0  0  0  0
   33.3180  161.0120   36.3930 O   0  5  0  0  0  0  0  0  0  0  0  0
   32.0790  159.2210   36.8040 O   0  0  0  0  0  0  0  0  0  0  0  0
   27.1110  162.3360   37.9920 N   0  0  0  0  0  0  0  0  0  0  0  0
   25.7380  162.3770   37.5480 C   0  0  0  0  0  0  0  0  0  0  0  0
   25.5640  163.3420   36.4040 C   0  0  0  0  0  0  0  0  0  0  0  0
   26.4060  164.2110   36.1710 O   0  0  0  0  0  0  0  0  0  0  0  0
   24.4480  163.1990   35.7060 N   0  0  0  0  0  0  0  0  0  0  0  0
   24.1410  164.0300   34.5520 C   0  0  2  0  0  0  0  0  0  0  0  0
   24.5250  165.5000   34.7550 C   0  0  0  0  0  0  0  0  0  0  0  0
   24.8990  166.1920   33.8140 O   0  0  0  0  0  0  0  0  0  0  0  0
   22.6470  163.9300   34.2240 C   0  0  2  0  0  0  0  0  0  0  0  0
   22.3250  164.7350   32.9610 C   0  0  0  0  0  0  0  0  0  0  0  0
   21.8370  164.4400   35.3900 C   0  0  0  0  0  0  0  0  0  0  0  0
   23.0060  164.2150   31.6980 C   0  0  0  0  0  0  0  0  0  0  0  0
   24.4420  165.9790   35.9830 N   0  0  0  0  0  0  0  0  0  0  0  0
   24.7160  167.3770   36.2370 C   0  0  2  0  0  0  0  0  0  0  0  0
   26.1890  167.7760   36.0640 C   0  0  0  0  0  0  0  0  0  0  0  0
   26.4950  168.9290   35.7600 O   0  0  0  0  0  0  0  0  0  0  0  0
   24.1800  167.7520   37.6130 C   0  0  0  0  0  0  0  0  0  0  0  0
   24.5160  169.1340   38.0800 C   0  0  0  0  0  0  0  0  0  0  0  0
   25.6800  169.1500   39.0260 C   0  0  0  0  0  0  0  0  0  0  0  0
   25.4510  170.1200   40.0810 N   0  0  0  0  0  0  0  0  0  0  0  0
   26.0730  170.1150   41.2460 C   0  0  0  0  0  3  0  0  0  0  0  0
   26.9840  169.1880   41.5220 N   0  0  0  0  0  0  0  0  0  0  0  0
   25.7830  171.0530   42.1330 N   0  0  0  0  0  0  0  0  0  0  0  0
   27.1000  166.8260   36.2430 N   0  0  0  0  0  0  0  0  0  0  0  0
   28.5140  167.1110   36.0710 C   0  0  2  0  0  0  0  0  0  0  0  0
   28.8800  167.1570   34.5910 C   0  0  0  0  0  0  0  0  0  0  0  0
   29.8940  167.7350   34.2090 O   0  0  0  0  0  0  0  0  0  0  0  0
   29.3700  166.0410   36.7500 C   0  0  0  0  0  0  0  0  0  0  0  0
   28.8910  165.6970   38.1520 C   0  0  0  0  0  0  0  0  0  0  0  0
   28.5160  166.6190   38.9090 O   0  5  0  0  0  0  0  0  0  0  0  0
   28.8650  164.5210   38.5840 O   0  0  0  0  0  0  0  0  0  0  0  0
   28.0630  166.5360   33.7500 N   0  0  0  0  0  0  0  0  0  0  0  0
   28.3680  166.4790   32.3320 C   0  0  2  0  0  0  0  0  0  0  0  0
   28.2430  167.8480   31.6850 C   0  0  0  0  0  0  0  0  0  0  0  0
   28.9070  168.1320   30.6870 O   0  0  0  0  0  0  0  0  0  0  0  0
   27.4650  165.4680   31.6440 C   0  0  0  0  0  0  0  0  0  0  0  0
   27.8000  164.0540   32.1010 C   0  0  0  0  0  0  0  0  0  0  0  0
   26.8630  163.0410   31.4990 C   0  0  0  0  0  0  0  0  0  0  0  0
   29.2210  163.7710   31.7110 C   0  0  0  0  0  0  0  0  0  0  0  0
   27.3720  168.6700   32.2660 N   0  0  0  0  0  0  0  0  0  0  0  0
   27.1380  170.0450   31.8510 C   0  0  2  0  0  0  0  0  0  0  0  0
   27.4580  170.8750   33.0640 C   0  0  0  0  0  0  0  0  0  0  0  0
   26.5840  171.5610   33.5970 O   0  0  0  0  0  0  0  0  0  0  0  0
   25.6650  170.2750   31.5270 C   0  0  0  0  0  0  0  0  0  0  0  0
   25.1310  169.3890   30.4560 C   0  0  0  0  0  0  0  0  0  0  0  0
   24.6370  168.1370   30.7630 C   0  0  0  0  0  0  0  0  0  0  0  0
   25.1180  169.8100   29.1340 C   0  0  0  0  0  0  0  0  0  0  0  0
   24.1280  167.3190   29.7700 C   0  0  0  0  0  0  0  0  0  0  0  0
   24.6200  169.0000   28.1300 C   0  0  0  0  0  0  0  0  0  0  0  0
   24.1230  167.7570   28.4450 C   0  0  0  0  0  0  0  0  0  0  0  0
   28.7020  170.7860   33.5230 N   0  0  0  0  0  0  0  0  0  0  0  0
   29.1290  171.4800   34.7370 C   0  0  2  0  0  0  0  0  0  0  0  0
   30.5280  172.0650   34.5770 C   0  0  0  0  0  0  0  0  0  0  0  0
   29.1070  170.5080   35.9200 C   0  0  0  0  0  0  0  0  0  0  0  0
   29.0620  171.2120   37.2560 C   0  0  0  0  0  0  0  0  0  0  0  0
   29.1220  170.5070   38.2990 O   0  5  0  0  0  0  0  0  0  0  0  0
   28.9640  172.4610   37.3600 O   0  0  0  0  0  0  0  0  0  0  0  0
   20.3808  144.0691   32.1077 H   0  0  0  0  0  0  0  0  0  0  0  0
   21.1114  142.9635   31.1314 H   0  0  0  0  0  0  0  0  0  0  0  0
   20.3106  144.2417   30.4722 H   0  0  0  0  0  0  0  0  0  0  0  0
   21.8559  145.8038   31.3483 H   0  0  0  0  0  0  0  0  0  0  0  0
   22.4078  144.7649   33.3883 H   0  0  0  0  0  0  0  0  0  0  0  0
   23.9120  145.0024   32.4356 H   0  0  0  0  0  0  0  0  0  0  0  0
   23.9460  142.5721   31.9768 H   0  0  0  0  0  0  0  0  0  0  0  0
   24.7062  141.9434   34.2545 H   0  0  0  0  0  0  0  0  0  0  0  0
   23.9178  143.4169   34.9132 H   0  0  0  0  0  0  0  0  0  0  0  0
   25.2925  143.5698   33.7672 H   0  0  0  0  0  0  0  0  0  0  0  0
   21.5455  142.0802   32.3058 H   0  0  0  0  0  0  0  0  0  0  0  0
   21.7225  142.4303   34.0587 H   0  0  0  0  0  0  0  0  0  0  0  0
   22.5990  141.0437   33.3267 H   0  0  0  0  0  0  0  0  0  0  0  0
   24.6269  144.1540   31.0247 H   0  0  0  0  0  0  0  0  0  0  0  0
   26.0774  143.6666   29.2989 H   0  0  0  0  0  0  0  0  0  0  0  0
   23.6812  143.6828   27.4221 H   0  0  0  0  0  0  0  0  0  0  0  0
   24.1213  142.2824   28.4575 H   0  0  0  0  0  0  0  0  0  0  0  0
   24.6475  146.4302   29.8544 H   0  0  0  0  0  0  0  0  0  0  0  0
   25.7361  147.8607   27.4521 H   0  0  0  0  0  0  0  0  0  0  0  0
   23.6926  148.6491   29.5838 H   0  0  0  0  0  0  0  0  0  0  0  0
   23.3802  148.3319   27.8435 H   0  0  0  0  0  0  0  0  0  0  0  0
   24.3163  149.9399   26.1426 H   0  0  0  0  0  0  0  0  0  0  0  0
   24.3094  150.8243   30.3198 H   0  0  0  0  0  0  0  0  0  0  0  0
   24.6255  152.3151   25.6419 H   0  0  0  0  0  0  0  0  0  0  0  0
   24.6250  153.2057   29.8133 H   0  0  0  0  0  0  0  0  0  0  0  0
   24.8730  154.3360   26.4394 H   0  0  0  0  0  0  0  0  0  0  0  0
   27.4031  149.2953   27.8327 H   0  0  0  0  0  0  0  0  0  0  0  0
   28.7806  148.9993   30.3997 H   0  0  0  0  0  0  0  0  0  0  0  0
   29.4752  150.4616   27.8118 H   0  0  0  0  0  0  0  0  0  0  0  0
   30.0914  148.8696   28.3707 H   0  0  0  0  0  0  0  0  0  0  0  0
   31.6670  152.0664   27.9549 H   0  0  0  0  0  0  0  0  0  0  0  0
   33.0035  150.9297   31.8375 H   0  0  0  0  0  0  0  0  0  0  0  0
   33.4112  152.4988   29.8600 H   0  0  0  0  0  0  0  0  0  0  0  0
   28.0508  150.2051   32.0847 H   0  0  0  0  0  0  0  0  0  0  0  0
   27.2767  153.0324   31.6152 H   0  0  0  0  0  0  0  0  0  0  0  0
   26.8393  153.0386   34.0839 H   0  0  0  0  0  0  0  0  0  0  0  0
   27.3142  151.3067   34.1261 H   0  0  0  0  0  0  0  0  0  0  0  0
   25.9358  149.6325   32.9755 H   0  0  0  0  0  0  0  0  0  0  0  0
   24.6988  153.7079   33.2900 H   0  0  0  0  0  0  0  0  0  0  0  0
   23.6274  148.9799   32.4295 H   0  0  0  0  0  0  0  0  0  0  0  0
   22.3978  153.0530   32.7506 H   0  0  0  0  0  0  0  0  0  0  0  0
   21.8577  150.6941   32.3164 H   0  0  0  0  0  0  0  0  0  0  0  0
   28.9583  154.4065   31.4434 H   0  0  0  0  0  0  0  0  0  0  0  0
   31.2092  155.0516   31.5373 H   0  0  0  0  0  0  0  0  0  0  0  0
   31.5171  153.7324   32.7169 H   0  0  0  0  0  0  0  0  0  0  0  0
   28.8060  155.7597   33.4236 H   0  0  0  0  0  0  0  0  0  0  0  0
   30.2687  157.7507   34.9200 H   0  0  0  0  0  0  0  0  0  0  0  0
   28.0209  158.0410   36.1053 H   0  0  0  0  0  0  0  0  0  0  0  0
   27.3925  156.7918   34.9777 H   0  0  0  0  0  0  0  0  0  0  0  0
   27.9717  158.2685   33.0725 H   0  0  0  0  0  0  0  0  0  0  0  0
   26.1218  159.8751   33.4643 H   0  0  0  0  0  0  0  0  0  0  0  0
   26.1608  159.4806   35.2163 H   0  0  0  0  0  0  0  0  0  0  0  0
   25.7057  158.2189   34.0214 H   0  0  0  0  0  0  0  0  0  0  0  0
   29.7793  159.5441   34.1526 H   0  0  0  0  0  0  0  0  0  0  0  0
   28.5791  160.3184   35.2418 H   0  0  0  0  0  0  0  0  0  0  0  0
   28.5128  160.6210   33.4724 H   0  0  0  0  0  0  0  0  0  0  0  0
   30.7760  157.8071   37.0440 H   0  0  0  0  0  0  0  0  0  0  0  0
   30.6000  155.2426   38.5533 H   0  0  0  0  0  0  0  0  0  0  0  0
   32.4291  156.1734   39.8981 H   0  0  0  0  0  0  0  0  0  0  0  0
   32.3345  157.7179   38.9859 H   0  0  0  0  0  0  0  0  0  0  0  0
   32.9612  156.5677   36.9240 H   0  0  0  0  0  0  0  0  0  0  0  0
   32.9872  154.9933   37.7886 H   0  0  0  0  0  0  0  0  0  0  0  0
   30.1020  155.4112   40.8698 H   0  0  0  0  0  0  0  0  0  0  0  0
   27.6642  156.5849   41.3811 H   0  0  0  0  0  0  0  0  0  0  0  0
   28.2708  156.3881   43.8658 H   0  0  0  0  0  0  0  0  0  0  0  0
   29.8586  155.7668   43.3006 H   0  0  0  0  0  0  0  0  0  0  0  0
   28.8626  153.8601   42.2779 H   0  0  0  0  0  0  0  0  0  0  0  0
   27.2106  154.5509   42.4209 H   0  0  0  0  0  0  0  0  0  0  0  0
   30.8146  158.1730   42.0245 H   0  0  0  0  0  0  0  0  0  0  0  0
   31.1569  160.3532   42.7899 H   0  0  0  0  0  0  0  0  0  0  0  0
   29.4136  160.4323   43.2158 H   0  0  0  0  0  0  0  0  0  0  0  0
   29.1119  159.5057   40.1645 H   0  0  0  0  0  0  0  0  0  0  0  0
   29.3321  162.3003   39.1383 H   0  0  0  0  0  0  0  0  0  0  0  0
   29.4129  161.0462   36.8183 H   0  0  0  0  0  0  0  0  0  0  0  0
   29.9925  159.6691   37.8156 H   0  0  0  0  0  0  0  0  0  0  0  0
   31.7203  161.4146   38.7330 H   0  0  0  0  0  0  0  0  0  0  0  0
   31.3083  162.3254   37.2405 H   0  0  0  0  0  0  0  0  0  0  0  0
   27.6958  163.1415   37.8959 H   0  0  0  0  0  0  0  0  0  0  0  0
   25.0994  162.6945   38.3855 H   0  0  0  0  0  0  0  0  0  0  0  0
   25.4373  161.3716   37.2182 H   0  0  0  0  0  0  0  0  0  0  0  0
   23.7933  162.4952   35.9817 H   0  0  0  0  0  0  0  0  0  0  0  0
   24.7143  163.6450   33.6958 H   0  0  0  0  0  0  0  0  0  0  0  0
   22.3909  162.8751   34.0464 H   0  0  0  0  0  0  0  0  0  0  0  0
   22.6461  165.7745   33.1231 H   0  0  0  0  0  0  0  0  0  0  0  0
   21.2368  164.7078   32.8024 H   0  0  0  0  0  0  0  0  0  0  0  0
   22.0784  163.8533   36.2886 H   0  0  0  0  0  0  0  0  0  0  0  0
   20.7652  164.3398   35.1637 H   0  0  0  0  0  0  0  0  0  0  0  0
   22.0768  165.4987   35.5680 H   0  0  0  0  0  0  0  0  0  0  0  0
   22.7230  164.8460   30.8426 H   0  0  0  0  0  0  0  0  0  0  0  0
   22.6883  163.1788   31.5102 H   0  0  0  0  0  0  0  0  0  0  0  0
   24.0975  164.2455   31.8308 H   0  0  0  0  0  0  0  0  0  0  0  0
   24.1894  165.3746   36.7385 H   0  0  0  0  0  0  0  0  0  0  0  0
   24.1479  167.9554   35.4935 H   0  0  0  0  0  0  0  0  0  0  0  0
   24.5903  167.0385   38.3427 H   0  0  0  0  0  0  0  0  0  0  0  0
   23.0842  167.6602   37.5866 H   0  0  0  0  0  0  0  0  0  0  0  0
   23.6390  169.5571   38.5917 H   0  0  0  0  0  0  0  0  0  0  0  0
   24.7636  169.7524   37.2046 H   0  0  0  0  0  0  0  0  0  0  0  0
   26.5930  169.4201   38.4752 H   0  0  0  0  0  0  0  0  0  0  0  0
   25.8018  168.1511   39.4702 H   0  0  0  0  0  0  0  0  0  0  0  0
   24.7571  170.8617   39.9097 H   0  0  0  0  0  0  0  0  0  0  0  0
   27.4636  169.1926   42.4335 H   0  0  0  0  0  0  0  0  0  0  0  0
   27.2106  168.4648   40.8245 H   0  0  0  0  0  0  0  0  0  0  0  0
   25.0758  171.7688   41.9130 H   0  0  0  0  0  0  0  0  0  0  0  0
   26.2644  171.0674   43.0435 H   0  0  0  0  0  0  0  0  0  0  0  0
   26.8091  165.9041   36.4991 H   0  0  0  0  0  0  0  0  0  0  0  0
   28.7331  168.0883   36.5259 H   0  0  0  0  0  0  0  0  0  0  0  0
   30.4048  166.4085   36.8137 H   0  0  0  0  0  0  0  0  0  0  0  0
   29.3420  165.1284   36.1365 H   0  0  0  0  0  0  0  0  0  0  0  0
   27.2303  166.1037   34.0959 H   0  0  0  0  0  0  0  0  0  0  0  0
   29.4094  166.1434   32.2185 H   0  0  0  0  0  0  0  0  0  0  0  0
   27.6056  165.5392   30.5554 H   0  0  0  0  0  0  0  0  0  0  0  0
   26.4170  165.6901   31.8937 H   0  0  0  0  0  0  0  0  0  0  0  0
   27.7100  164.0011   33.1960 H   0  0  0  0  0  0  0  0  0  0  0  0
   27.1353  162.0350   31.8510 H   0  0  0  0  0  0  0  0  0  0  0  0
   26.9380  163.0784   30.4022 H   0  0  0  0  0  0  0  0  0  0  0  0
   25.8311  163.2693   31.8040 H   0  0  0  0  0  0  0  0  0  0  0  0
   29.8824  164.5245   32.1635 H   0  0  0  0  0  0  0  0  0  0  0  0
   29.3155  163.8105   30.6158 H   0  0  0  0  0  0  0  0  0  0  0  0
   29.5069  162.7706   32.0679 H   0  0  0  0  0  0  0  0  0  0  0  0
   26.8433  168.3193   33.0390 H   0  0  0  0  0  0  0  0  0  0  0  0
   27.7708  170.3125   30.9920 H   0  0  0  0  0  0  0  0  0  0  0  0
   25.5415  171.3193   31.2044 H   0  0  0  0  0  0  0  0  0  0  0  0
   25.0793  170.1021   32.4419 H   0  0  0  0  0  0  0  0  0  0  0  0
   24.6480  167.7919   31.7906 H   0  0  0  0  0  0  0  0  0  0  0  0
   25.5050  170.7912   28.8838 H   0  0  0  0  0  0  0  0  0  0  0  0
   23.7342  166.3406   30.0205 H   0  0  0  0  0  0  0  0  0  0  0  0
   24.6213  169.3425   27.1015 H   0  0  0  0  0  0  0  0  0  0  0  0
   23.7274  167.1175   27.6642 H   0  0  0  0  0  0  0  0  0  0  0  0
   29.3651  170.2283   33.0237 H   0  0  0  0  0  0  0  0  0  0  0  0
   28.4259  172.3019   34.9375 H   0  0  0  0  0  0  0  0  0  0  0  0
   30.8188  172.5790   35.5050 H   0  0  0  0  0  0  0  0  0  0  0  0
   30.5322  172.7829   33.7436 H   0  0  0  0  0  0  0  0  0  0  0  0
   31.2423  171.2552   34.3671 H   0  0  0  0  0  0  0  0  0  0  0  0
   30.0136  169.8863   35.8809 H   0  0  0  0  0  0  0  0  0  0  0  0
   28.2181  169.8662   35.8310 H   0  0  0  0  0  0  0  0  0  0  0  0
  1  2  1  0  0  0  0
  1150  1  0  0  0  0
  1151  1  0  0  0  0
  1152  1  0  0  0  0
  2  3  1  0  0  0  0
  2  5  1  0  0  0  0
  2153  1  1  0  0  0
  3  4  2  0  0  0  0
  3  9  1  0  0  0  0
  5  6  1  0  0  0  0
  5154  1  0  0  0  0
  5155  1  0  0  0  0
  6  7  1  0  0  0  0
  6  8  1  0  0  0  0
  6156  1  0  0  0  0
  7157  1  0  0  0  0
  7158  1  0  0  0  0
  7159  1  0  0  0  0
  8160  1  0  0  0  0
  8161  1  0  0  0  0
  8162  1  0  0  0  0
  9 10  1  0  0  0  0
  9163  1  0  0  0  0
 10 11  1  0  0  0  0
 10 13  1  0  0  0  0
 10164  1  1  0  0  0
 11 12  2  0  0  0  0
 11 17  1  0  0  0  0
 13 14  1  0  0  0  0
 13165  1  0  0  0  0
 13166  1  0  0  0  0
 14 15  1  0  0  0  0
 14 16  2  0  0  0  0
 17 18  1  0  0  0  0
 17167  1  0  0  0  0
 18 19  1  0  0  0  0
 18 21  1  0  0  0  0
 18168  1  6  0  0  0
 19 20  2  0  0  0  0
 19 29  1  0  0  0  0
 21 22  1  0  0  0  0
 21169  1  0  0  0  0
 21170  1  0  0  0  0
 22 23  2  0  0  0  0
 22 24  1  0  0  0  0
 23 25  1  0  0  0  0
 23171  1  0  0  0  0
 24 26  2  0  0  0  0
 24172  1  0  0  0  0
 25 27  2  0  0  0  0
 25173  1  0  0  0  0
 26 27  1  0  0  0  0
 26174  1  0  0  0  0
 27 28  1  0  0  0  0
 28175  1  0  0  0  0
 29 30  1  0  0  0  0
 29176  1  0  0  0  0
 30 31  1  0  0  0  0
 30 33  1  0  0  0  0
 30177  1  1  0  0  0
 31 32  2  0  0  0  0
 31 39  1  0  0  0  0
 33 34  1  0  0  0  0
 33178  1  0  0  0  0
 33179  1  0  0  0  0
 34 35  1  0  0  0  0
 34 36  2  0  0  0  0
 35 37  2  0  0  0  0
 36 38  1  0  0  0  0
 36180  1  0  0  0  0
 37 38  1  0  0  0  0
 37181  1  0  0  0  0
 38182  1  0  0  0  0
 39 40  1  0  0  0  0
 39183  1  0  0  0  0
 40 41  1  0  0  0  0
 40 43  1  0  0  0  0
 40184  1  6  0  0  0
 41 42  2  0  0  0  0
 41 50  1  0  0  0  0
 43 44  1  0  0  0  0
 43185  1  0  0  0  0
 43186  1  0  0  0  0
 44 45  2  0  0  0  0
 44 46  1  0  0  0  0
 45 47  1  0  0  0  0
 45187  1  0  0  0  0
 46 48  2  0  0  0  0
 46188  1  0  0  0  0
 47 49  2  0  0  0  0
 47189  1  0  0  0  0
 48 49  1  0  0  0  0
 48190  1  0  0  0  0
 49191  1  0  0  0  0
 50 51  1  0  0  0  0
 50192  1  0  0  0  0
 51 52  1  0  0  0  0
 51193  1  0  0  0  0
 51194  1  0  0  0  0
 52 53  2  0  0  0  0
 52 54  1  0  0  0  0
 54 55  1  0  0  0  0
 54195  1  0  0  0  0
 55 56  1  0  0  0  0
 55 58  1  0  0  0  0
 55196  1  6  0  0  0
 56 57  2  0  0  0  0
 56 62  1  0  0  0  0
 58 59  1  0  0  0  0
 58197  1  0  0  0  0
 58198  1  0  0  0  0
 59 60  1  0  0  0  0
 59 61  1  0  0  0  0
 59199  1  0  0  0  0
 60200  1  0  0  0  0
 60201  1  0  0  0  0
 60202  1  0  0  0  0
 61203  1  0  0  0  0
 61204  1  0  0  0  0
 61205  1  0  0  0  0
 62 63  1  0  0  0  0
 62206  1  0  0  0  0
 63 64  1  0  0  0  0
 63 66  1  0  0  0  0
 63207  1  6  0  0  0
 64 65  2  0  0  0  0
 64 71  1  0  0  0  0
 66 67  1  0  0  0  0
 66208  1  0  0  0  0
 66209  1  0  0  0  0
 67 68  1  0  0  0  0
 67210  1  0  0  0  0
 67211  1  0  0  0  0
 68 69  1  0  0  0  0
 68 70  2  0  0  0  0
 71 72  1  0  0  0  0
 71212  1  0  0  0  0
 72 73  1  0  0  0  0
 72 75  1  0  0  0  0
 72213  1  6  0  0  0
 73 74  2  0  0  0  0
 73 80  1  0  0  0  0
 75 76  1  0  0  0  0
 75214  1  0  0  0  0
 75215  1  0  0  0  0
 76 77  1  0  0  0  0
 76216  1  0  0  0  0
 76217  1  0  0  0  0
 77 78  1  0  0  0  0
 77 79  2  0  0  0  0
 80 81  1  0  0  0  0
 80218  1  0  0  0  0
 81 82  1  0  0  0  0
 81219  1  0  0  0  0
 81220  1  0  0  0  0
 82 83  2  0  0  0  0
 82 84  1  0  0  0  0
 84 85  1  0  0  0  0
 84221  1  0  0  0  0
 85 86  1  0  0  0  0
 85 88  1  0  0  0  0
 85222  1  1  0  0  0
 86 87  2  0  0  0  0
 86 93  1  0  0  0  0
 88 89  1  0  0  0  0
 88223  1  0  0  0  0
 88224  1  0  0  0  0
 89 90  1  0  0  0  0
 89225  1  0  0  0  0
 89226  1  0  0  0  0
 90 91  1  0  0  0  0
 90 92  2  0  0  0  0
 93 94  1  0  0  0  0
 93227  1  0  0  0  0
 94 95  1  0  0  0  0
 94228  1  0  0  0  0
 94229  1  0  0  0  0
 95 96  2  0  0  0  0
 95 97  1  0  0  0  0
 97 98  1  0  0  0  0
 97230  1  0  0  0  0
 98 99  1  0  0  0  0
 98101  1  0  0  0  0
 98231  1  6  0  0  0
 99100  2  0  0  0  0
 99105  1  0  0  0  0
101102  1  0  0  0  0
101103  1  0  0  0  0
101232  1  6  0  0  0
102104  1  0  0  0  0
102233  1  0  0  0  0
102234  1  0  0  0  0
103235  1  0  0  0  0
103236  1  0  0  0  0
103237  1  0  0  0  0
104238  1  0  0  0  0
104239  1  0  0  0  0
104240  1  0  0  0  0
105106  1  0  0  0  0
105241  1  0  0  0  0
106107  1  0  0  0  0
106109  1  0  0  0  0
106242  1  6  0  0  0
107108  2  0  0  0  0
107116  1  0  0  0  0
109110  1  0  0  0  0
109243  1  0  0  0  0
109244  1  0  0  0  0
110111  1  0  0  0  0
110245  1  0  0  0  0
110246  1  0  0  0  0
111112  1  0  0  0  0
111247  1  0  0  0  0
111248  1  0  0  0  0
112113  1  0  0  0  0
112249  1  0  0  0  0
113114  1  0  0  0  0
113115  1  0  0  0  0
114250  1  0  0  0  0
114251  1  0  0  0  0
115252  1  0  0  0  0
115253  1  0  0  0  0
116117  1  0  0  0  0
116254  1  0  0  0  0
117118  1  0  0  0  0
117120  1  0  0  0  0
117255  1  1  0  0  0
118119  2  0  0  0  0
118124  1  0  0  0  0
120121  1  0  0  0  0
120256  1  0  0  0  0
120257  1  0  0  0  0
121122  1  0  0  0  0
121123  2  0  0  0  0
124125  1  0  0  0  0
124258  1  0  0  0  0
125126  1  0  0  0  0
125128  1  0  0  0  0
125259  1  6  0  0  0
126127  2  0  0  0  0
126132  1  0  0  0  0
128129  1  0  0  0  0
128260  1  0  0  0  0
128261  1  0  0  0  0
129130  1  0  0  0  0
129131  1  0  0  0  0
129262  1  0  0  0  0
130263  1  0  0  0  0
130264  1  0  0  0  0
130265  1  0  0  0  0
131266  1  0  0  0  0
131267  1  0  0  0  0
131268  1  0  0  0  0
132133  1  0  0  0  0
132269  1  0  0  0  0
133134  1  0  0  0  0
133136  1  0  0  0  0
133270  1  6  0  0  0
134135  2  0  0  0  0
134143  1  0  0  0  0
136137  1  0  0  0  0
136271  1  0  0  0  0
136272  1  0  0  0  0
137138  2  0  0  0  0
137139  1  0  0  0  0
138140  1  0  0  0  0
138273  1  0  0  0  0
139141  2  0  0  0  0
139274  1  0  0  0  0
140142  2  0  0  0  0
140275  1  0  0  0  0
141142  1  0  0  0  0
141276  1  0  0  0  0
142277  1  0  0  0  0
143144  1  0  0  0  0
143278  1  0  0  0  0
144145  1  0  0  0  0
144146  1  0  0  0  0
144279  1  1  0  0  0
145280  1  0  0  0  0
145281  1  0  0  0  0
145282  1  0  0  0  0
146147  1  0  0  0  0
146283  1  0  0  0  0
146284  1  0  0  0  0
147148  1  0  0  0  0
147149  2  0  0  0  0
M  CHG  7   1   1  15  -1  69  -1  78  -1  91  -1 122  -1 148  -1
M  END
