1obx_ligand
 OpenBabel08222323343D

 62 62  0  0  1  0  0  0  0  0999 V2000
   28.8690   15.6980    8.9230 N   0  3  0  0  0  0  0  0  0  0  0  0
   27.3970   15.8440    8.8640 C   0  0  2  0  0  0  0  0  0  0  0  0
   26.8510   15.5960   10.2500 C   0  0  0  0  0  0  0  0  0  0  0  0
   27.4180   15.0050   11.1350 O   0  0  0  0  0  0  0  0  0  0  0  0
   26.8010   14.8030    7.9380 C   0  0  0  0  0  0  0  0  0  0  0  0
   27.1330   15.0100    6.4830 C   0  0  0  0  0  0  0  0  0  0  0  0
   28.2670   15.4310    6.0770 O   0  5  0  0  0  0  0  0  0  0  0  0
   26.2710   14.6850    5.6570 O   0  0  0  0  0  0  0  0  0  0  0  0
   25.6240   16.0290   10.4350 N   0  0  0  0  0  0  0  0  0  0  0  0
   24.9590   15.9060   11.7140 C   0  0  2  0  0  0  0  0  0  0  0  0
   24.3290   14.4960   11.8580 C   0  0  0  0  0  0  0  0  0  0  0  0
   23.7640   13.8850   10.9460 O   0  0  0  0  0  0  0  0  0  0  0  0
   23.9300   17.0440   11.8530 C   0  0  0  0  0  0  0  0  0  0  0  0
   24.5510   18.3430   11.8830 O   0  0  0  0  0  0  0  0  0  0  0  0
   24.4410   13.9960   13.0750 N   0  0  0  0  0  0  0  0  0  0  0  0
   23.7400   12.7760   13.4770 C   0  0  2  0  0  0  0  0  0  0  0  0
   22.5680   13.2180   14.3340 C   0  0  0  0  0  0  0  0  0  0  0  0
   22.6790   14.1300   15.1240 O   0  0  0  0  0  0  0  0  0  0  0  0
   24.6550   11.7390   14.2070 C   0  0  0  0  0  0  0  0  0  0  0  0
   25.3530   12.2850   15.3940 C   0  0  0  0  0  0  0  0  0  0  0  0
   23.8600   10.5360   14.6390 C   0  0  0  0  0  0  0  0  0  0  0  0
   21.4940   12.4640   14.1980 N   0  0  0  0  0  0  0  0  0  0  0  0
   20.2480   12.6800   14.9570 C   0  0  2  0  0  0  0  0  0  0  0  0
   19.7760   11.4140   15.6120 C   0  0  0  0  0  0  0  0  0  0  0  0
   20.2690   10.3470   15.2140 O   0  5  0  0  0  0  0  0  0  0  0  0
   19.1570   13.2200   14.0410 C   0  0  0  0  0  0  0  0  0  0  0  0
   19.5160   14.5470   13.4940 C   0  0  0  0  0  0  0  0  0  0  0  0
   20.1660   14.6630   12.2900 C   0  0  0  0  0  0  0  0  0  0  0  0
   19.2960   15.6870   14.2380 C   0  0  0  0  0  0  0  0  0  0  0  0
   20.5620   15.9010   11.8490 C   0  0  0  0  0  0  0  0  0  0  0  0
   19.7240   16.8750   13.7970 C   0  0  0  0  0  0  0  0  0  0  0  0
   20.3580   16.9750   12.5880 C   0  0  0  0  0  0  0  0  0  0  0  0
   18.9510   11.5250   16.5010 O   0  0  0  0  0  0  0  0  0  0  0  0
   29.2595   15.8590    8.0078 H   0  0  0  0  0  0  0  0  0  0  0  0
   29.1023   14.7662    9.2286 H   0  0  0  0  0  0  0  0  0  0  0  0
   29.2475   16.3694    9.5727 H   0  0  0  0  0  0  0  0  0  0  0  0
   27.1311   16.8539    8.5184 H   0  0  0  0  0  0  0  0  0  0  0  0
   25.7069   14.8278    8.0493 H   0  0  0  0  0  0  0  0  0  0  0  0
   27.1781   13.8151    8.2409 H   0  0  0  0  0  0  0  0  0  0  0  0
   25.1374   16.4545    9.6720 H   0  0  0  0  0  0  0  0  0  0  0  0
   25.7071   16.0232   12.5119 H   0  0  0  0  0  0  0  0  0  0  0  0
   23.3671   16.8996   12.7870 H   0  0  0  0  0  0  0  0  0  0  0  0
   23.2390   17.0022   10.9982 H   0  0  0  0  0  0  0  0  0  0  0  0
   25.1454   18.3916   12.6225 H   0  0  0  0  0  0  0  0  0  0  0  0
   25.0215   14.4645   13.7410 H   0  0  0  0  0  0  0  0  0  0  0  0
   23.3494   12.2861   12.5729 H   0  0  0  0  0  0  0  0  0  0  0  0
   25.4196   11.4117   13.4871 H   0  0  0  0  0  0  0  0  0  0  0  0
   25.9729   11.4983   15.8489 H   0  0  0  0  0  0  0  0  0  0  0  0
   24.6111   12.6365   16.1262 H   0  0  0  0  0  0  0  0  0  0  0  0
   25.9934   13.1255   15.0884 H   0  0  0  0  0  0  0  0  0  0  0  0
   23.3326   10.1140   13.7708 H   0  0  0  0  0  0  0  0  0  0  0  0
   23.1275   10.8356   15.4029 H   0  0  0  0  0  0  0  0  0  0  0  0
   24.5390    9.7792   15.0588 H   0  0  0  0  0  0  0  0  0  0  0  0
   21.5264   11.7063   13.5462 H   0  0  0  0  0  0  0  0  0  0  0  0
   20.4474   13.4238   15.7425 H   0  0  0  0  0  0  0  0  0  0  0  0
   18.2220   13.3104   14.6134 H   0  0  0  0  0  0  0  0  0  0  0  0
   19.0101   12.5176   13.2073 H   0  0  0  0  0  0  0  0  0  0  0  0
   20.3653   13.7817   11.6911 H   0  0  0  0  0  0  0  0  0  0  0  0
   18.7734   15.6200   15.1853 H   0  0  0  0  0  0  0  0  0  0  0  0
   21.0470   15.9974   10.8843 H   0  0  0  0  0  0  0  0  0  0  0  0
   19.5681   17.7625   14.3996 H   0  0  0  0  0  0  0  0  0  0  0  0
   20.6948   17.9431   12.2352 H   0  0  0  0  0  0  0  0  0  0  0  0
  1 34  1  0  0  0  0
  1 35  1  0  0  0  0
  1 36  1  0  0  0  0
  2  1  1  0  0  0  0
  2  5  1  0  0  0  0
  2 37  1  6  0  0  0
  3  2  1  0  0  0  0
  3  4  2  0  0  0  0
  5  6  1  0  0  0  0
  5 38  1  0  0  0  0
  5 39  1  0  0  0  0
  6  7  1  0  0  0  0
  6  8  2  0  0  0  0
  9  3  1  0  0  0  0
  9 40  1  0  0  0  0
 10  9  1  0  0  0  0
 10 13  1  0  0  0  0
 10 41  1  1  0  0  0
 11 10  1  0  0  0  0
 11 12  2  0  0  0  0
 13 14  1  0  0  0  0
 13 42  1  0  0  0  0
 13 43  1  0  0  0  0
 14 44  1  0  0  0  0
 15 11  1  0  0  0  0
 15 45  1  0  0  0  0
 16 15  1  0  0  0  0
 16 19  1  0  0  0  0
 16 46  1  6  0  0  0
 17 16  1  0  0  0  0
 17 18  2  0  0  0  0
 17 22  1  0  0  0  0
 19 21  1  0  0  0  0
 19 20  1  0  0  0  0
 19 47  1  0  0  0  0
 20 48  1  0  0  0  0
 20 49  1  0  0  0  0
 20 50  1  0  0  0  0
 21 51  1  0  0  0  0
 21 52  1  0  0  0  0
 21 53  1  0  0  0  0
 22 23  1  0  0  0  0
 22 54  1  0  0  0  0
 23 26  1  0  0  0  0
 23 24  1  0  0  0  0
 23 55  1  1  0  0  0
 24 25  1  0  0  0  0
 24 33  2  0  0  0  0
 26 27  1  0  0  0  0
 26 56  1  0  0  0  0
 26 57  1  0  0  0  0
 27 28  2  0  0  0  0
 27 29  1  0  0  0  0
 28 30  1  0  0  0  0
 28 58  1  0  0  0  0
 29 31  2  0  0  0  0
 29 59  1  0  0  0  0
 30 32  2  0  0  0  0
 30 60  1  0  0  0  0
 31 32  1  0  0  0  0
 31 61  1  0  0  0  0
 32 62  1  0  0  0  0
M  CHG  3   1   1   7  -1  25  -1
M  END
