1ocn_ligand
 OpenBabel08222323343D

 45 46  0  0  1  0  0  0  0  0999 V2000
    6.2150   -8.7130   10.5050 C   0  0  2  0  0  0  0  0  0  0  0  0
    4.9030   -7.9790   10.5060 C   0  0  2  0  0  0  0  0  0  0  0  0
    4.8260   -6.9260   11.5800 C   0  0  1  0  0  0  0  0  0  0  0  0
    6.1040   -6.0780   11.6390 C   0  0  1  0  0  0  0  0  0  0  0  0
    6.2030   -5.2140   12.8810 C   0  0  0  0  0  0  0  0  0  0  0  0
    7.3710   -7.7060   10.5060 C   0  0  1  0  0  0  0  0  0  0  0  0
    6.3160   -9.5480    9.3540 O   0  0  0  0  0  0  0  0  0  0  0  0
    3.8600   -8.9320   10.6440 O   0  0  0  0  0  0  0  0  0  0  0  0
    3.7040   -6.1170   11.3310 O   0  0  0  0  0  0  0  0  0  0  0  0
    7.2640   -6.9180   11.6680 O   0  0  0  0  0  0  0  0  0  0  0  0
    6.3080   -6.0140   14.0310 O   0  0  0  0  0  0  0  0  0  0  0  0
    8.5540   -8.4180   10.5740 O   0  0  0  0  0  0  0  0  0  0  0  0
    9.7330   -7.6360   10.3530 C   0  0  1  0  0  0  0  0  0  0  0  0
   10.8080   -8.3620   11.1220 C   0  0  2  0  0  0  0  0  0  0  0  0
   10.7660   -7.8270   12.4310 O   0  0  0  0  0  0  0  0  0  0  0  0
   12.1590   -8.1750   10.4970 C   0  0  0  0  0  0  0  0  0  0  0  0
   12.1420   -8.8210    9.1590 N   0  3  0  0  0  0  0  0  0  0  0  0
   10.9960   -8.4870    8.3170 C   0  0  0  0  0  0  0  0  0  0  0  0
    9.9600   -7.5030    8.8430 C   0  0  2  0  0  0  0  0  0  0  0  0
   10.3060   -6.0870    8.3660 C   0  0  0  0  0  0  0  0  0  0  0  0
   11.3360   -5.5570    9.1320 O   0  0  0  0  0  0  0  0  0  0  0  0
    6.2775   -9.3370   11.4087 H   0  0  0  0  0  0  0  0  0  0  0  0
    4.7897   -7.4745    9.5351 H   0  0  0  0  0  0  0  0  0  0  0  0
    4.6976   -7.4235   12.5526 H   0  0  0  0  0  0  0  0  0  0  0  0
    6.1311   -5.4346   10.7472 H   0  0  0  0  0  0  0  0  0  0  0  0
    5.3029   -4.5864   12.9579 H   0  0  0  0  0  0  0  0  0  0  0  0
    7.0926   -4.5715   12.8048 H   0  0  0  0  0  0  0  0  0  0  0  0
    7.3439   -7.0773    9.6038 H   0  0  0  0  0  0  0  0  0  0  0  0
    7.1436  -10.0140    9.3739 H   0  0  0  0  0  0  0  0  0  0  0  0
    3.0203   -8.4926   10.5781 H   0  0  0  0  0  0  0  0  0  0  0  0
    3.6162   -5.4764   12.0270 H   0  0  0  0  0  0  0  0  0  0  0  0
    6.3690   -5.4572   14.7982 H   0  0  0  0  0  0  0  0  0  0  0  0
    9.6112   -6.6263   10.7721 H   0  0  0  0  0  0  0  0  0  0  0  0
   10.5813   -9.4380   11.1518 H   0  0  0  0  0  0  0  0  0  0  0  0
   11.4272   -8.2500   12.9662 H   0  0  0  0  0  0  0  0  0  0  0  0
   12.9294   -8.6432   11.1273 H   0  0  0  0  0  0  0  0  0  0  0  0
   12.3751   -7.1018   10.3901 H   0  0  0  0  0  0  0  0  0  0  0  0
   12.1470   -9.8197    9.2956 H   0  0  0  0  0  0  0  0  0  0  0  0
   12.9787   -8.5446    8.6695 H   0  0  0  0  0  0  0  0  0  0  0  0
   10.4680   -9.4277    8.1019 H   0  0  0  0  0  0  0  0  0  0  0  0
   11.3940   -8.0676    7.3812 H   0  0  0  0  0  0  0  0  0  0  0  0
    9.0018   -7.7652    8.3707 H   0  0  0  0  0  0  0  0  0  0  0  0
    9.4174   -5.4455    8.4598 H   0  0  0  0  0  0  0  0  0  0  0  0
   10.6206   -6.1260    7.3127 H   0  0  0  0  0  0  0  0  0  0  0  0
   11.5389   -4.6811    8.8252 H   0  0  0  0  0  0  0  0  0  0  0  0
  1  2  1  0  0  0  0
  1  6  1  0  0  0  0
  1  7  1  0  0  0  0
  1 22  1  1  0  0  0
  2  3  1  0  0  0  0
  2  8  1  0  0  0  0
  2 23  1  6  0  0  0
  3  4  1  0  0  0  0
  3  9  1  0  0  0  0
  3 24  1  1  0  0  0
  4  5  1  0  0  0  0
  4 10  1  0  0  0  0
  4 25  1  6  0  0  0
  5 11  1  0  0  0  0
  5 26  1  0  0  0  0
  5 27  1  0  0  0  0
  6 10  1  0  0  0  0
  6 12  1  0  0  0  0
  6 28  1  6  0  0  0
  7 29  1  0  0  0  0
  8 30  1  0  0  0  0
  9 31  1  0  0  0  0
 11 32  1  0  0  0  0
 12 13  1  0  0  0  0
 13 14  1  0  0  0  0
 13 19  1  0  0  0  0
 13 33  1  1  0  0  0
 14 15  1  0  0  0  0
 14 16  1  0  0  0  0
 14 34  1  1  0  0  0
 15 35  1  0  0  0  0
 16 17  1  0  0  0  0
 16 36  1  0  0  0  0
 16 37  1  0  0  0  0
 17 18  1  0  0  0  0
 17 38  1  0  0  0  0
 17 39  1  0  0  0  0
 18 19  1  0  0  0  0
 18 40  1  0  0  0  0
 18 41  1  0  0  0  0
 19 20  1  0  0  0  0
 19 42  1  6  0  0  0
 20 21  1  0  0  0  0
 20 43  1  0  0  0  0
 20 44  1  0  0  0  0
 21 45  1  0  0  0  0
M  CHG  1  17   1
M  END
