1oeb_ligand
 OpenBabel08222323343D

187189  0  0  1  0  0  0  0  0999 V2000
   -2.2290   23.6410   21.8460 N   0  3  0  0  0  0  0  0  0  0  0  0
   -0.8300   23.1520   22.1510 C   0  0  2  0  0  0  0  0  0  0  0  0
    0.1090   24.2970   22.5700 C   0  0  0  0  0  0  0  0  0  0  0  0
    0.0840   25.3620   21.9480 O   0  0  0  0  0  0  0  0  0  0  0  0
   -0.2330   22.4200   20.9440 C   0  0  0  0  0  0  0  0  0  0  0  0
    0.9630   24.0700   23.5780 N   0  0  0  0  0  0  0  0  0  0  0  0
    1.9240   25.0990   23.9940 C   0  0  2  0  0  0  0  0  0  0  0  0
    2.9900   25.3770   22.9260 C   0  0  0  0  0  0  0  0  0  0  0  0
    3.3200   24.5200   22.1100 O   0  0  0  0  0  0  0  0  0  0  0  0
    2.6000   24.4940   25.2250 C   0  0  0  0  0  0  0  0  0  0  0  0
    1.7070   23.3650   25.6600 C   0  0  0  0  0  0  0  0  0  0  0  0
    1.0490   22.8520   24.4210 C   0  0  0  0  0  0  0  0  0  0  0  0
    3.5220   26.5910   22.9750 N   0  0  0  0  0  0  0  0  0  0  0  0
    4.6510   26.9960   22.1390 C   0  0  2  0  0  0  0  0  0  0  0  0
    5.8170   26.0830   22.3890 C   0  0  0  0  0  0  0  0  0  0  0  0
    5.9990   25.5880   23.5030 O   0  0  0  0  0  0  0  0  0  0  0  0
    5.0310   28.4540   22.4700 C   0  0  0  0  0  0  0  0  0  0  0  0
    4.0210   29.2980   21.9250 O   0  0  0  0  0  0  0  0  0  0  0  0
    6.5830   25.7980   21.3390 N   0  0  0  0  0  0  0  0  0  0  0  0
    7.7970   24.9990   21.4830 C   0  0  2  0  0  0  0  0  0  0  0  0
    9.0140   25.8840   21.2840 C   0  0  0  0  0  0  0  0  0  0  0  0
    9.1750   26.4870   20.2150 O   0  0  0  0  0  0  0  0  0  0  0  0
    7.8080   23.8040   20.4950 C   0  0  2  0  0  0  0  0  0  0  0  0
    6.6420   22.8350   20.7820 C   0  0  0  0  0  0  0  0  0  0  0  0
    9.0930   23.0380   20.5850 C   0  0  0  0  0  0  0  0  0  0  0  0
    6.4360   21.7730   19.6450 C   0  0  0  0  0  0  0  0  0  0  0  0
    9.8780   25.9310   22.2960 N   0  0  0  0  0  0  0  0  0  0  0  0
   11.1460   26.6440   22.1850 C   0  0  2  0  0  0  0  0  0  0  0  0
   12.3570   25.7160   22.3350 C   0  0  0  0  0  0  0  0  0  0  0  0
   12.7530   25.3890   23.4450 O   0  0  0  0  0  0  0  0  0  0  0  0
   11.2280   27.7460   23.2130 C   0  0  0  0  0  0  0  0  0  0  0  0
   12.4510   28.6190   23.0350 C   0  0  0  0  0  0  0  0  0  0  0  0
   13.2090   28.4440   22.0580 O   0  5  0  0  0  0  0  0  0  0  0  0
   12.7260   29.5380   23.8330 O   0  0  0  0  0  0  0  0  0  0  0  0
   12.9370   25.3200   21.2010 N   0  0  0  0  0  0  0  0  0  0  0  0
   14.1100   24.4270   21.1800 C   0  0  2  0  0  0  0  0  0  0  0  0
   15.3810   25.0760   21.7240 C   0  0  0  0  0  0  0  0  0  0  0  0
   16.3020   24.3670   22.1490 O   0  0  0  0  0  0  0  0  0  0  0  0
   14.3620   23.8500   19.7690 C   0  0  0  0  0  0  0  0  0  0  0  0
   13.2500   22.9570   19.2190 C   0  0  0  0  0  0  0  0  0  0  0  0
   13.6620   22.0130   18.0950 C   0  0  0  0  0  0  0  0  0  0  0  0
   12.7180   20.8840   18.0660 N   0  0  0  0  0  0  0  0  0  0  0  0
   11.4430   21.0080   17.7570 C   0  0  0  0  0  3  0  0  0  0  0  0
   10.9710   22.1990   17.3960 N   0  0  0  0  0  0  0  0  0  0  0  0
   10.6190   19.9650   17.8470 N   0  0  0  0  0  0  0  0  0  0  0  0
   15.4270   26.4150   21.7680 N   0  0  0  0  0  0  0  0  0  0  0  0
   16.5750   27.1140   22.3950 C   0  0  2  0  0  0  0  0  0  0  0  0
   16.8160   26.7850   23.9030 C   0  0  0  0  0  0  0  0  0  0  0  0
   17.9390   26.9310   24.4040 O   0  0  0  0  0  0  0  0  0  0  0  0
   16.4990   28.6370   22.1590 C   0  0  0  0  0  0  0  0  0  0  0  0
   15.6600   29.2820   23.1110 O   0  0  0  0  0  0  0  0  0  0  0  0
   15.7830   26.3300   24.6090 N   0  0  0  0  0  0  0  0  0  0  0  0
   15.9190   25.9440   26.0190 C   0  0  2  0  0  0  0  0  0  0  0  0
   16.1990   24.4500   26.2200 C   0  0  0  0  0  0  0  0  0  0  0  0
   16.2810   23.9680   27.3540 O   0  0  0  0  0  0  0  0  0  0  0  0
   14.6770   26.3240   26.8310 C   0  0  2  0  0  0  0  0  0  0  0  0
   13.5290   25.6880   26.2490 O   0  0  0  0  0  0  0  0  0  0  0  0
   14.4050   27.7990   26.7260 C   0  0  0  0  0  0  0  0  0  0  0  0
   16.3730   23.7240   25.1230 N   0  0  0  0  0  0  0  0  0  0  0  0
   16.6580   22.3000   25.2290 C   0  0  2  0  0  0  0  0  0  0  0  0
   18.0170   22.0460   25.8850 C   0  0  0  0  0  0  0  0  0  0  0  0
   19.0330   22.6090   25.4130 O   0  0  0  0  0  0  0  0  0  0  0  0
   16.7050   21.7030   23.8360 C   0  0  0  0  0  0  0  0  0  0  0  0
   15.4070   21.1410   23.4110 C   0  0  0  0  0  0  0  0  0  0  0  0
   15.4510   20.7000   21.9550 C   0  0  0  0  0  0  0  0  0  0  0  0
   16.3250   19.4770   21.7840 C   0  0  0  0  0  0  0  0  0  0  0  0
   16.3510   19.0240   20.3660 N   0  3  0  0  0  0  0  0  0  0  0  0
   18.0510   21.2050   26.9310 N   0  0  0  0  0  0  0  0  0  0  0  0
   19.3370   20.7310   27.4710 C   0  0  2  0  0  0  0  0  0  0  0  0
   19.8490   19.5700   26.6210 C   0  0  0  0  0  0  0  0  0  0  0  0
   19.0860   19.0640   25.7630 O   0  0  0  0  0  0  0  0  0  0  0  0
   18.9830   20.2740   28.8870 C   0  0  0  0  0  0  0  0  0  0  0  0
   17.4920   19.7260   28.7290 C   0  0  0  0  0  0  0  0  0  0  0  0
   16.8960   20.5830   27.6290 C   0  0  0  0  0  0  0  0  0  0  0  0
   21.1220   19.1780   26.7720 N   0  0  0  0  0  0  0  0  0  0  0  0
   21.5960   17.9700   26.0970 C   0  0  2  0  0  0  0  0  0  0  0  0
   20.8410   16.7500   26.6170 C   0  0  0  0  0  0  0  0  0  0  0  0
   20.4530   16.6980   27.7930 O   0  0  0  0  0  0  0  0  0  0  0  0
   23.0760   17.8680   26.5020 C   0  0  0  0  0  0  0  0  0  0  0  0
   23.4640   19.1970   27.0080 C   0  0  0  0  0  0  0  0  0  0  0  0
   22.1860   19.8390   27.5600 C   0  0  0  0  0  0  0  0  0  0  0  0
   20.6130   15.7720   25.7520 N   0  0  0  0  0  0  0  0  0  0  0  0
   20.0440   14.5200   26.2300 C   0  0  2  0  0  0  0  0  0  0  0  0
   21.1240   13.7320   26.9600 C   0  0  0  0  0  0  0  0  0  0  0  0
   22.0350   13.2850   26.2300 O   0  5  0  0  0  0  0  0  0  0  0  0
   19.4670   13.7000   25.0760 C   0  0  0  0  0  0  0  0  0  0  0  0
   18.9370   12.2780   25.3410 C   0  0  0  0  0  0  0  0  0  0  0  0
   17.8390   12.3070   26.3860 C   0  0  0  0  0  0  0  0  0  0  0  0
   18.4630   11.6800   24.0180 C   0  0  0  0  0  0  0  0  0  0  0  0
   20.9940   13.5920   28.2080 O   0  0  0  0  0  0  0  0  0  0  0  0
   -2.8067   22.8600   21.5771 H   0  0  0  0  0  0  0  0  0  0  0  0
   -2.1946   24.3088   21.0918 H   0  0  0  0  0  0  0  0  0  0  0  0
   -2.6178   24.0799   22.6659 H   0  0  0  0  0  0  0  0  0  0  0  0
   -0.8972   22.4419   22.9884 H   0  0  0  0  0  0  0  0  0  0  0  0
    0.7821   22.0748   21.1899 H   0  0  0  0  0  0  0  0  0  0  0  0
   -0.1891   23.1051   20.0846 H   0  0  0  0  0  0  0  0  0  0  0  0
   -0.8634   21.5547   20.6914 H   0  0  0  0  0  0  0  0  0  0  0  0
    1.4024   26.0344   24.2447 H   0  0  0  0  0  0  0  0  0  0  0  0
    2.6868   25.2451   26.0240 H   0  0  0  0  0  0  0  0  0  0  0  0
    3.6001   24.1155   24.9673 H   0  0  0  0  0  0  0  0  0  0  0  0
    0.9504   23.7294   26.3704 H   0  0  0  0  0  0  0  0  0  0  0  0
    2.3013   22.5695   26.1332 H   0  0  0  0  0  0  0  0  0  0  0  0
    1.6608   22.0760   23.9378 H   0  0  0  0  0  0  0  0  0  0  0  0
    0.0495   22.4479   24.6395 H   0  0  0  0  0  0  0  0  0  0  0  0
    3.1342   27.2580   23.6112 H   0  0  0  0  0  0  0  0  0  0  0  0
    4.3621   26.9293   21.0797 H   0  0  0  0  0  0  0  0  0  0  0  0
    6.0055   28.6983   22.0221 H   0  0  0  0  0  0  0  0  0  0  0  0
    5.0843   28.5892   23.5603 H   0  0  0  0  0  0  0  0  0  0  0  0
    4.2311   30.2048   22.1151 H   0  0  0  0  0  0  0  0  0  0  0  0
    6.3227   26.1370   20.4349 H   0  0  0  0  0  0  0  0  0  0  0  0
    7.8256   24.5949   22.5057 H   0  0  0  0  0  0  0  0  0  0  0  0
    7.7000   24.1984   19.4739 H   0  0  0  0  0  0  0  0  0  0  0  0
    5.7168   23.4206   20.8870 H   0  0  0  0  0  0  0  0  0  0  0  0
    6.8495   22.3053   21.7235 H   0  0  0  0  0  0  0  0  0  0  0  0
    9.9374   23.7134   20.3830 H   0  0  0  0  0  0  0  0  0  0  0  0
    9.0881   22.2253   19.8437 H   0  0  0  0  0  0  0  0  0  0  0  0
    9.1967   22.6131   21.5943 H   0  0  0  0  0  0  0  0  0  0  0  0
    5.5946   21.1145   19.9065 H   0  0  0  0  0  0  0  0  0  0  0  0
    7.3509   21.1724   19.5341 H   0  0  0  0  0  0  0  0  0  0  0  0
    6.2181   22.2877   18.6976 H   0  0  0  0  0  0  0  0  0  0  0  0
    9.6524   25.4666   23.1524 H   0  0  0  0  0  0  0  0  0  0  0  0
   11.1885   27.0992   21.1845 H   0  0  0  0  0  0  0  0  0  0  0  0
   11.2623   27.2918   24.2142 H   0  0  0  0  0  0  0  0  0  0  0  0
   10.3303   28.3757   23.1266 H   0  0  0  0  0  0  0  0  0  0  0  0
   12.5618   25.6412   20.3315 H   0  0  0  0  0  0  0  0  0  0  0  0
   13.8742   23.5807   21.8420 H   0  0  0  0  0  0  0  0  0  0  0  0
   15.2875   23.2566   19.8050 H   0  0  0  0  0  0  0  0  0  0  0  0
   14.4941   24.6937   19.0757 H   0  0  0  0  0  0  0  0  0  0  0  0
   12.4494   23.6082   18.8382 H   0  0  0  0  0  0  0  0  0  0  0  0
   12.8632   22.3473   20.0489 H   0  0  0  0  0  0  0  0  0  0  0  0
   14.6808   21.6406   18.2775 H   0  0  0  0  0  0  0  0  0  0  0  0
   13.6332   22.5459   17.1331 H   0  0  0  0  0  0  0  0  0  0  0  0
   13.0734   19.9460   18.3000 H   0  0  0  0  0  0  0  0  0  0  0  0
    9.9760   22.3064   17.1526 H   0  0  0  0  0  0  0  0  0  0  0  0
   11.6008   23.0132   17.3601 H   0  0  0  0  0  0  0  0  0  0  0  0
   10.9837   19.0431   18.1263 H   0  0  0  0  0  0  0  0  0  0  0  0
    9.6172   20.0805   17.6373 H   0  0  0  0  0  0  0  0  0  0  0  0
   14.6788   26.9486   21.3736 H   0  0  0  0  0  0  0  0  0  0  0  0
   17.4698   26.7575   21.8637 H   0  0  0  0  0  0  0  0  0  0  0  0
   16.0992   28.8208   21.1509 H   0  0  0  0  0  0  0  0  0  0  0  0
   17.5119   29.0592   22.2344 H   0  0  0  0  0  0  0  0  0  0  0  0
   14.7810   28.9271   23.0487 H   0  0  0  0  0  0  0  0  0  0  0  0
   14.8898   26.2489   24.1667 H   0  0  0  0  0  0  0  0  0  0  0  0
   16.7755   26.5017   26.4256 H   0  0  0  0  0  0  0  0  0  0  0  0
   14.8069   26.0247   27.8815 H   0  0  0  0  0  0  0  0  0  0  0  0
   12.7538   25.9189   26.7473 H   0  0  0  0  0  0  0  0  0  0  0  0
   13.5107   28.0498   27.3153 H   0  0  0  0  0  0  0  0  0  0  0  0
   14.2368   28.0668   25.6724 H   0  0  0  0  0  0  0  0  0  0  0  0
   15.2685   28.3596   27.1135 H   0  0  0  0  0  0  0  0  0  0  0  0
   16.3084   24.1551   24.2230 H   0  0  0  0  0  0  0  0  0  0  0  0
   15.8677   21.8150   25.8208 H   0  0  0  0  0  0  0  0  0  0  0  0
   17.4570   20.9003   23.8226 H   0  0  0  0  0  0  0  0  0  0  0  0
   16.9967   22.4905   23.1256 H   0  0  0  0  0  0  0  0  0  0  0  0
   14.6272   21.9075   23.5307 H   0  0  0  0  0  0  0  0  0  0  0  0
   15.1676   20.2726   24.0422 H   0  0  0  0  0  0  0  0  0  0  0  0
   15.8559   21.5196   21.3432 H   0  0  0  0  0  0  0  0  0  0  0  0
   14.4305   20.4622   21.6204 H   0  0  0  0  0  0  0  0  0  0  0  0
   15.9312   18.6646   22.4124 H   0  0  0  0  0  0  0  0  0  0  0  0
   17.3496   19.7218   22.1006 H   0  0  0  0  0  0  0  0  0  0  0  0
   16.9398   18.2099   20.2841 H   0  0  0  0  0  0  0  0  0  0  0  0
   16.7153   19.7620   19.7841 H   0  0  0  0  0  0  0  0  0  0  0  0
   15.4156   18.7932   20.0698 H   0  0  0  0  0  0  0  0  0  0  0  0
   20.0855   21.5368   27.4922 H   0  0  0  0  0  0  0  0  0  0  0  0
   19.0214   21.1153   29.5946 H   0  0  0  0  0  0  0  0  0  0  0  0
   19.6622   19.4781   29.2264 H   0  0  0  0  0  0  0  0  0  0  0  0
   16.9299   19.8481   29.6666 H   0  0  0  0  0  0  0  0  0  0  0  0
   17.4949   18.6650   28.4387 H   0  0  0  0  0  0  0  0  0  0  0  0
   16.3158   19.9616   26.9310 H   0  0  0  0  0  0  0  0  0  0  0  0
   16.2445   21.3586   28.0580 H   0  0  0  0  0  0  0  0  0  0  0  0
   21.4828   18.0513   25.0059 H   0  0  0  0  0  0  0  0  0  0  0  0
   23.6908   17.5989   25.6305 H   0  0  0  0  0  0  0  0  0  0  0  0
   23.2033   17.1099   27.2888 H   0  0  0  0  0  0  0  0  0  0  0  0
   23.8758   19.8095   26.1924 H   0  0  0  0  0  0  0  0  0  0  0  0
   24.2145   19.0963   27.8059 H   0  0  0  0  0  0  0  0  0  0  0  0
   22.0705   19.6321   28.6342 H   0  0  0  0  0  0  0  0  0  0  0  0
   22.1850   20.9264   27.3939 H   0  0  0  0  0  0  0  0  0  0  0  0
   20.8291   15.8925   24.7831 H   0  0  0  0  0  0  0  0  0  0  0  0
   19.2313   14.7474   26.9355 H   0  0  0  0  0  0  0  0  0  0  0  0
   20.2616   13.6087   24.3208 H   0  0  0  0  0  0  0  0  0  0  0  0
   18.6302   14.2799   24.6596 H   0  0  0  0  0  0  0  0  0  0  0  0
   19.7600   11.6590   25.7277 H   0  0  0  0  0  0  0  0  0  0  0  0
   17.4733   11.2846   26.5620 H   0  0  0  0  0  0  0  0  0  0  0  0
   17.0103   12.9366   26.0298 H   0  0  0  0  0  0  0  0  0  0  0  0
   18.2367   12.7207   27.3244 H   0  0  0  0  0  0  0  0  0  0  0  0
   19.2933   11.6817   23.2965 H   0  0  0  0  0  0  0  0  0  0  0  0
   17.6313   12.2806   23.6212 H   0  0  0  0  0  0  0  0  0  0  0  0
   18.1231   10.6470   24.1834 H   0  0  0  0  0  0  0  0  0  0  0  0
  1  2  1  0  0  0  0
  1 91  1  0  0  0  0
  1 92  1  0  0  0  0
  1 93  1  0  0  0  0
  2  3  1  0  0  0  0
  2  5  1  0  0  0  0
  2 94  1  1  0  0  0
  3  4  2  0  0  0  0
  3  6  1  0  0  0  0
  5 95  1  0  0  0  0
  5 96  1  0  0  0  0
  5 97  1  0  0  0  0
  6  7  1  0  0  0  0
  6 12  1  0  0  0  0
  7  8  1  0  0  0  0
  7 10  1  0  0  0  0
  7 98  1  1  0  0  0
  8  9  2  0  0  0  0
  8 13  1  0  0  0  0
 10 11  1  0  0  0  0
 10 99  1  0  0  0  0
 10100  1  0  0  0  0
 11 12  1  0  0  0  0
 11101  1  0  0  0  0
 11102  1  0  0  0  0
 12103  1  0  0  0  0
 12104  1  0  0  0  0
 13 14  1  0  0  0  0
 13105  1  0  0  0  0
 14 15  1  0  0  0  0
 14 17  1  0  0  0  0
 14106  1  6  0  0  0
 15 16  2  0  0  0  0
 15 19  1  0  0  0  0
 17 18  1  0  0  0  0
 17107  1  0  0  0  0
 17108  1  0  0  0  0
 18109  1  0  0  0  0
 19 20  1  0  0  0  0
 19110  1  0  0  0  0
 20 21  1  0  0  0  0
 20 23  1  0  0  0  0
 20111  1  1  0  0  0
 21 22  2  0  0  0  0
 21 27  1  0  0  0  0
 23 24  1  0  0  0  0
 23 25  1  0  0  0  0
 23112  1  6  0  0  0
 24 26  1  0  0  0  0
 24113  1  0  0  0  0
 24114  1  0  0  0  0
 25115  1  0  0  0  0
 25116  1  0  0  0  0
 25117  1  0  0  0  0
 26118  1  0  0  0  0
 26119  1  0  0  0  0
 26120  1  0  0  0  0
 27 28  1  0  0  0  0
 27121  1  0  0  0  0
 28 29  1  0  0  0  0
 28 31  1  0  0  0  0
 28122  1  6  0  0  0
 29 30  2  0  0  0  0
 29 35  1  0  0  0  0
 31 32  1  0  0  0  0
 31123  1  0  0  0  0
 31124  1  0  0  0  0
 32 33  1  0  0  0  0
 32 34  2  0  0  0  0
 35 36  1  0  0  0  0
 35125  1  0  0  0  0
 36 37  1  0  0  0  0
 36 39  1  0  0  0  0
 36126  1  1  0  0  0
 37 38  2  0  0  0  0
 37 46  1  0  0  0  0
 39 40  1  0  0  0  0
 39127  1  0  0  0  0
 39128  1  0  0  0  0
 40 41  1  0  0  0  0
 40129  1  0  0  0  0
 40130  1  0  0  0  0
 41 42  1  0  0  0  0
 41131  1  0  0  0  0
 41132  1  0  0  0  0
 42 43  1  0  0  0  0
 42133  1  0  0  0  0
 43 44  1  0  0  0  0
 43 45  1  0  0  0  0
 44134  1  0  0  0  0
 44135  1  0  0  0  0
 45136  1  0  0  0  0
 45137  1  0  0  0  0
 46 47  1  0  0  0  0
 46138  1  0  0  0  0
 47 48  1  0  0  0  0
 47 50  1  0  0  0  0
 47139  1  6  0  0  0
 48 49  2  0  0  0  0
 48 52  1  0  0  0  0
 50 51  1  0  0  0  0
 50140  1  0  0  0  0
 50141  1  0  0  0  0
 51142  1  0  0  0  0
 52 53  1  0  0  0  0
 52143  1  0  0  0  0
 53 54  1  0  0  0  0
 53 56  1  0  0  0  0
 53144  1  1  0  0  0
 54 55  2  0  0  0  0
 54 59  1  0  0  0  0
 56 57  1  0  0  0  0
 56 58  1  0  0  0  0
 56145  1  1  0  0  0
 57146  1  0  0  0  0
 58147  1  0  0  0  0
 58148  1  0  0  0  0
 58149  1  0  0  0  0
 59 60  1  0  0  0  0
 59150  1  0  0  0  0
 60 61  1  0  0  0  0
 60 63  1  0  0  0  0
 60151  1  1  0  0  0
 61 62  2  0  0  0  0
 61 68  1  0  0  0  0
 63 64  1  0  0  0  0
 63152  1  0  0  0  0
 63153  1  0  0  0  0
 64 65  1  0  0  0  0
 64154  1  0  0  0  0
 64155  1  0  0  0  0
 65 66  1  0  0  0  0
 65156  1  0  0  0  0
 65157  1  0  0  0  0
 66 67  1  0  0  0  0
 66158  1  0  0  0  0
 66159  1  0  0  0  0
 67160  1  0  0  0  0
 67161  1  0  0  0  0
 67162  1  0  0  0  0
 68 69  1  0  0  0  0
 68 74  1  0  0  0  0
 69 70  1  0  0  0  0
 69 72  1  0  0  0  0
 69163  1  1  0  0  0
 70 71  2  0  0  0  0
 70 75  1  0  0  0  0
 72 73  1  0  0  0  0
 72164  1  0  0  0  0
 72165  1  0  0  0  0
 73 74  1  0  0  0  0
 73166  1  0  0  0  0
 73167  1  0  0  0  0
 74168  1  0  0  0  0
 74169  1  0  0  0  0
 75 76  1  0  0  0  0
 75 81  1  0  0  0  0
 76 77  1  0  0  0  0
 76 79  1  0  0  0  0
 76170  1  6  0  0  0
 77 78  2  0  0  0  0
 77 82  1  0  0  0  0
 79 80  1  0  0  0  0
 79171  1  0  0  0  0
 79172  1  0  0  0  0
 80 81  1  0  0  0  0
 80173  1  0  0  0  0
 80174  1  0  0  0  0
 81175  1  0  0  0  0
 81176  1  0  0  0  0
 82 83  1  0  0  0  0
 82177  1  0  0  0  0
 83 84  1  0  0  0  0
 83 86  1  0  0  0  0
 83178  1  1  0  0  0
 84 85  1  0  0  0  0
 84 90  2  0  0  0  0
 86 87  1  0  0  0  0
 86179  1  0  0  0  0
 86180  1  0  0  0  0
 87 88  1  0  0  0  0
 87 89  1  0  0  0  0
 87181  1  0  0  0  0
 88182  1  0  0  0  0
 88183  1  0  0  0  0
 88184  1  0  0  0  0
 89185  1  0  0  0  0
 89186  1  0  0  0  0
 89187  1  0  0  0  0
M  CHG  4   1   1  33  -1  67   1  85  -1
M  END
