1oi9_ligand
 OpenBabel08222323343D

 46 49  0  0  0  0  0  0  0  0999 V2000
    7.9430   43.7940   49.8040 C   0  0  0  0  0  0  0  0  0  0  0  0
    2.8750   40.0740   48.9520 O   0  0  0  0  0  0  0  0  0  0  0  0
   10.6830   46.4870   52.0230 C   0  0  0  0  0  0  0  0  0  0  0  0
    4.9330   45.9430   51.6860 C   0  0  0  0  0  0  0  0  0  0  0  0
    4.0360   46.1890   52.8930 C   0  0  0  0  0  0  0  0  0  0  0  0
    2.6070   45.7530   52.5480 C   0  0  0  0  0  0  0  0  0  0  0  0
    1.6340   45.8910   53.7310 C   0  0  0  0  0  0  0  0  0  0  0  0
    2.1950   45.3580   55.0540 C   0  0  0  0  0  0  0  0  0  0  0  0
    3.6340   45.8150   55.3170 C   0  0  0  0  0  0  0  0  0  0  0  0
    4.5400   45.4600   54.1420 C   0  0  0  0  0  0  0  0  0  0  0  0
    4.4640   41.3480   50.0690 C   0  0  0  0  0  0  0  0  0  0  0  0
    4.0280   40.7240   48.9090 C   0  0  0  0  0  0  0  0  0  0  0  0
    4.7660   40.8070   47.7340 C   0  0  0  0  0  0  0  0  0  0  0  0
    5.9740   41.5130   47.7500 C   0  0  0  0  0  0  0  0  0  0  0  0
    6.9900   44.4610   50.5040 N   0  0  0  0  0  0  0  0  0  0  0  0
    7.2750   45.4390   51.3880 C   0  0  0  0  0  0  0  0  0  0  0  0
    6.2950   46.1090   52.0700 O   0  0  0  0  0  0  0  0  0  0  0  0
    8.6840   45.7920   51.5760 C   0  0  0  0  0  0  0  0  0  0  0  0
    9.3440   46.7070   52.3490 N   0  0  0  0  0  0  0  0  0  0  0  0
   10.9380   45.4970   51.0720 N   0  0  0  0  0  0  0  0  0  0  0  0
    9.6430   45.0600   50.8010 C   0  0  0  0  0  0  0  0  0  0  0  0
    9.2660   44.0820   49.9480 N   0  0  0  0  0  0  0  0  0  0  0  0
    7.5750   42.8240   48.9260 N   0  0  0  0  0  0  0  0  0  0  0  0
    6.4030   42.1440   48.9250 C   0  0  0  0  0  0  0  0  0  0  0  0
    5.6420   42.0570   50.0830 C   0  0  0  0  0  0  0  0  0  0  0  0
    2.1804   40.6786   49.1853 H   0  0  0  0  0  0  0  0  0  0  0  0
   11.4868   47.0575   52.4860 H   0  0  0  0  0  0  0  0  0  0  0  0
    4.6851   46.6620   50.8913 H   0  0  0  0  0  0  0  0  0  0  0  0
    4.7779   44.9190   51.3155 H   0  0  0  0  0  0  0  0  0  0  0  0
    4.0319   47.2678   53.1076 H   0  0  0  0  0  0  0  0  0  0  0  0
    2.6285   44.6993   52.2331 H   0  0  0  0  0  0  0  0  0  0  0  0
    2.2410   46.3762   51.7188 H   0  0  0  0  0  0  0  0  0  0  0  0
    0.7162   45.3333   53.4930 H   0  0  0  0  0  0  0  0  0  0  0  0
    1.3927   46.9564   53.8600 H   0  0  0  0  0  0  0  0  0  0  0  0
    2.1751   44.2585   55.0265 H   0  0  0  0  0  0  0  0  0  0  0  0
    1.5571   45.7158   55.8756 H   0  0  0  0  0  0  0  0  0  0  0  0
    4.0095   45.3191   56.2242 H   0  0  0  0  0  0  0  0  0  0  0  0
    3.6448   46.9051   55.4638 H   0  0  0  0  0  0  0  0  0  0  0  0
    5.5711   45.7734   54.3623 H   0  0  0  0  0  0  0  0  0  0  0  0
    4.5155   44.3736   53.9713 H   0  0  0  0  0  0  0  0  0  0  0  0
    3.8702   41.2759   50.9730 H   0  0  0  0  0  0  0  0  0  0  0  0
    4.4131   40.3347   46.8244 H   0  0  0  0  0  0  0  0  0  0  0  0
    6.5786   41.5718   46.8522 H   0  0  0  0  0  0  0  0  0  0  0  0
   11.8352   45.1780   50.6794 H   0  0  0  0  0  0  0  0  0  0  0  0
    8.2532   42.5822   48.1895 H   0  0  0  0  0  0  0  0  0  0  0  0
    5.9744   42.5448   50.9922 H   0  0  0  0  0  0  0  0  0  0  0  0
  1 15  2  0  0  0  0
  1 22  1  0  0  0  0
  2 26  1  0  0  0  0
  3 19  2  0  0  0  0
  3 27  1  0  0  0  0
  4  5  1  0  0  0  0
  4 28  1  0  0  0  0
  4 29  1  0  0  0  0
  5  6  1  0  0  0  0
  5 10  1  0  0  0  0
  5 30  1  0  0  0  0
  6  7  1  0  0  0  0
  6 31  1  0  0  0  0
  6 32  1  0  0  0  0
  7  8  1  0  0  0  0
  7 33  1  0  0  0  0
  7 34  1  0  0  0  0
  8 35  1  0  0  0  0
  8 36  1  0  0  0  0
  9  8  1  0  0  0  0
  9 37  1  0  0  0  0
  9 38  1  0  0  0  0
 10  9  1  0  0  0  0
 10 39  1  0  0  0  0
 10 40  1  0  0  0  0
 11 25  1  0  0  0  0
 11 41  1  0  0  0  0
 12  2  1  0  0  0  0
 12 11  2  0  0  0  0
 13 12  1  0  0  0  0
 13 42  1  0  0  0  0
 14 13  2  0  0  0  0
 14 43  1  0  0  0  0
 15 16  1  0  0  0  0
 16 17  1  0  0  0  0
 16 18  2  0  0  0  0
 17  4  1  0  0  0  0
 18 19  1  0  0  0  0
 20  3  1  0  0  0  0
 20 44  1  0  0  0  0
 21 18  1  0  0  0  0
 21 20  1  0  0  0  0
 22 21  2  0  0  0  0
 23  1  1  0  0  0  0
 23 24  1  0  0  0  0
 23 45  1  0  0  0  0
 24 14  1  0  0  0  0
 24 25  2  0  0  0  0
 25 46  1  0  0  0  0
M  END
