1oim_ligand
 OpenBabel08222323343D

 25 25  0  0  1  0  0  0  0  0999 V2000
   -0.3660   10.9440   10.7940 C   0  0  0  0  0  0  0  0  0  0  0  0
    0.5220   11.6790    9.7710 C   0  0  2  0  0  0  0  0  0  0  0  0
    0.9600   12.8910   10.3390 O   0  0  0  0  0  0  0  0  0  0  0  0
   -0.1110   11.9170    8.3970 C   0  0  1  0  0  0  0  0  0  0  0  0
    1.0000   12.1960    7.5150 O   0  0  0  0  0  0  0  0  0  0  0  0
   -0.9790   10.6840    8.0220 C   0  0  2  0  0  0  0  0  0  0  0  0
   -1.3350   10.7820    6.6500 O   0  0  0  0  0  0  0  0  0  0  0  0
   -2.1680   10.6310    9.0120 C   0  0  2  0  0  0  0  0  0  0  0  0
   -1.7200   10.5370   10.4240 N   0  3  0  0  0  0  0  0  0  0  0  0
   -3.1220    9.4430    8.8140 C   0  0  0  0  0  0  0  0  0  0  0  0
   -2.4070    8.2240    8.9100 O   0  0  0  0  0  0  0  0  0  0  0  0
   -0.4605   11.6065   11.6670 H   0  0  0  0  0  0  0  0  0  0  0  0
    0.1727   10.0298   11.0840 H   0  0  0  0  0  0  0  0  0  0  0  0
    1.4062   11.0468    9.6023 H   0  0  0  0  0  0  0  0  0  0  0  0
    0.2070   13.4276   10.5570 H   0  0  0  0  0  0  0  0  0  0  0  0
   -0.7678   12.7988    8.4290 H   0  0  0  0  0  0  0  0  0  0  0  0
    0.6738   12.3546    6.6370 H   0  0  0  0  0  0  0  0  0  0  0  0
   -0.3863    9.7665    8.1520 H   0  0  0  0  0  0  0  0  0  0  0  0
   -1.8667   10.0330    6.4077 H   0  0  0  0  0  0  0  0  0  0  0  0
   -2.7396   11.5614    8.8796 H   0  0  0  0  0  0  0  0  0  0  0  0
   -2.3521   11.1039   10.9673 H   0  0  0  0  0  0  0  0  0  0  0  0
   -1.8171    9.5711   10.6955 H   0  0  0  0  0  0  0  0  0  0  0  0
   -3.5896    9.5133    7.8208 H   0  0  0  0  0  0  0  0  0  0  0  0
   -3.9019    9.4694    9.5892 H   0  0  0  0  0  0  0  0  0  0  0  0
   -1.7340    8.1993    8.2400 H   0  0  0  0  0  0  0  0  0  0  0  0
  1  2  1  0  0  0  0
  1  9  1  0  0  0  0
  1 12  1  0  0  0  0
  1 13  1  0  0  0  0
  2  3  1  0  0  0  0
  2  4  1  0  0  0  0
  2 14  1  6  0  0  0
  3 15  1  0  0  0  0
  4  5  1  0  0  0  0
  4  6  1  0  0  0  0
  4 16  1  1  0  0  0
  5 17  1  0  0  0  0
  6  7  1  0  0  0  0
  6  8  1  0  0  0  0
  6 18  1  1  0  0  0
  7 19  1  0  0  0  0
  8  9  1  0  0  0  0
  8 10  1  0  0  0  0
  8 20  1  6  0  0  0
  9 21  1  0  0  0  0
  9 22  1  0  0  0  0
 10 11  1  0  0  0  0
 10 23  1  0  0  0  0
 10 24  1  0  0  0  0
 11 25  1  0  0  0  0
M  CHG  1   9   1
M  END
