1oit_ligand
 OpenBabel08222323343D

 41 44  0  0  0  0  0  0  0  0999 V2000
    8.7010  -11.7790   10.8180 C   0  0  0  0  0  0  0  0  0  0  0  0
   14.2760   -8.0000   10.5420 N   0  0  0  0  0  0  0  0  0  0  0  0
   13.6440   -8.7730    9.6490 C   0  0  0  0  0  3  0  0  0  0  0  0
   15.0850   -7.0060   10.2360 C   0  0  0  0  0  0  0  0  0  0  0  0
   15.3610   -6.6730    8.9220 C   0  0  0  0  0  0  0  0  0  0  0  0
   14.7240   -7.4570    7.9590 C   0  0  0  0  0  0  0  0  0  0  0  0
   13.8620   -8.5060    8.3010 C   0  0  0  0  0  0  0  0  0  0  0  0
   13.8370   -9.4040   13.9460 C   0  0  0  0  0  0  0  0  0  0  0  0
   13.4260   -9.0330   12.6760 C   0  0  0  0  0  0  0  0  0  0  0  0
   14.2300   -8.0450   11.8910 C   0  0  0  0  0  0  0  0  0  0  0  0
   15.0280   -7.0750   12.3850 C   0  0  0  0  0  0  0  0  0  0  0  0
   13.0600  -10.3220   14.6380 C   0  0  0  0  0  0  0  0  0  0  0  0
    9.7240  -10.8810   11.1420 C   0  0  0  0  0  0  0  0  0  0  0  0
   11.5570  -10.4680   12.8310 C   0  0  0  0  0  0  0  0  0  0  0  0
   12.3030   -9.5790   12.1380 N   0  0  0  0  0  0  0  0  0  0  0  0
    9.8970   -9.7540   10.3420 C   0  0  0  0  0  0  0  0  0  0  0  0
    9.1070   -9.5620    9.2060 C   0  0  0  0  0  0  0  0  0  0  0  0
    8.1190  -10.4800    8.8680 C   0  0  0  0  0  0  0  0  0  0  0  0
    6.0810   -9.4490    7.9890 O   0  0  0  0  0  0  0  0  0  0  0  0
    7.1980  -10.2430    7.5750 S   0  0  0  0  0  0  0  0  0  0  0  0
    6.7240  -11.4980    7.0520 O   0  0  0  0  0  0  0  0  0  0  0  0
    8.0040   -9.4540    6.4390 N   0  0  0  0  0  0  0  0  0  0  0  0
    7.9130  -11.5920    9.6840 C   0  0  0  0  0  0  0  0  0  0  0  0
   10.4440  -11.0810   12.3350 N   0  0  0  0  0  0  0  0  0  0  0  0
   11.9590  -10.8300   14.0680 N   0  0  0  0  0  0  0  0  0  0  0  0
   15.5600   -6.4310   11.4210 N   0  0  0  0  0  0  0  0  0  0  0  0
    8.5186  -12.6337   11.4593 H   0  0  0  0  0  0  0  0  0  0  0  0
   12.9877   -9.5760    9.9646 H   0  0  0  0  0  0  0  0  0  0  0  0
   16.0264   -5.8589    8.6584 H   0  0  0  0  0  0  0  0  0  0  0  0
   14.9027   -7.2467    6.9107 H   0  0  0  0  0  0  0  0  0  0  0  0
   13.3756   -9.0966    7.5331 H   0  0  0  0  0  0  0  0  0  0  0  0
   14.7374   -8.9901   14.3853 H   0  0  0  0  0  0  0  0  0  0  0  0
   15.1922   -6.8734   13.4425 H   0  0  0  0  0  0  0  0  0  0  0  0
   13.3434  -10.6278   15.6386 H   0  0  0  0  0  0  0  0  0  0  0  0
   10.6507   -9.0200   10.6030 H   0  0  0  0  0  0  0  0  0  0  0  0
    9.2657   -8.6896    8.5825 H   0  0  0  0  0  0  0  0  0  0  0  0
    7.5582   -9.2331    5.5715 H   0  0  0  0  0  0  0  0  0  0  0  0
    8.9533   -9.1820    6.5968 H   0  0  0  0  0  0  0  0  0  0  0  0
    7.1402  -12.3106    9.4362 H   0  0  0  0  0  0  0  0  0  0  0  0
   10.0627  -11.8216   12.9408 H   0  0  0  0  0  0  0  0  0  0  0  0
   16.2141   -5.6392   11.4993 H   0  0  0  0  0  0  0  0  0  0  0  0
  1 23  1  0  0  0  0
  1 27  1  0  0  0  0
  2  3  1  0  0  0  0
  2  4  1  0  0  0  0
  3  7  1  0  0  0  0
  3 28  1  0  0  0  0
  4  5  2  0  0  0  0
  4 26  1  0  0  0  0
  5  6  1  0  0  0  0
  5 29  1  0  0  0  0
  6 30  1  0  0  0  0
  7  6  2  0  0  0  0
  7 31  1  0  0  0  0
  8 12  1  0  0  0  0
  8 32  1  0  0  0  0
  9  8  2  0  0  0  0
  9 10  1  0  0  0  0
 10  2  1  0  0  0  0
 10 11  2  0  0  0  0
 11 33  1  0  0  0  0
 12 34  1  0  0  0  0
 13  1  2  0  0  0  0
 13 16  1  0  0  0  0
 14 24  1  0  0  0  0
 14 25  1  0  0  0  0
 15 14  2  0  0  0  0
 15  9  1  0  0  0  0
 16 17  2  0  0  0  0
 16 35  1  0  0  0  0
 17 18  1  0  0  0  0
 17 36  1  0  0  0  0
 18 20  1  0  0  0  0
 18 23  2  0  0  0  0
 20 21  2  0  0  0  0
 20 22  1  0  0  0  0
 20 19  2  0  0  0  0
 22 37  1  0  0  0  0
 22 38  1  0  0  0  0
 23 39  1  0  0  0  0
 24 13  1  0  0  0  0
 24 40  1  0  0  0  0
 25 12  2  0  0  0  0
 26 11  1  0  0  0  0
 26 41  1  0  0  0  0
M  END
