1oiu_ligand
 OpenBabel08222323343D

 50 53  0  0  0  0  0  0  0  0999 V2000
    7.9160   43.6120   49.8510 C   0  0  0  0  0  0  0  0  0  0  0  0
   10.5520   46.4410   52.0420 C   0  0  0  0  0  0  0  0  0  0  0  0
    4.8670   45.3510   51.9070 C   0  0  0  0  0  0  0  0  0  0  0  0
    4.0240   45.8620   53.0570 C   0  0  0  0  0  0  0  0  0  0  0  0
    2.5620   45.5450   52.7500 C   0  0  0  0  0  0  0  0  0  0  0  0
    1.6820   46.0090   53.9120 C   0  0  0  0  0  0  0  0  0  0  0  0
    2.1170   45.3790   55.2320 C   0  0  0  0  0  0  0  0  0  0  0  0
    3.6010   45.6060   55.5280 C   0  0  0  0  0  0  0  0  0  0  0  0
    4.4730   45.1740   54.3530 C   0  0  0  0  0  0  0  0  0  0  0  0
    3.9800   40.7090   48.5370 C   0  0  0  0  0  0  0  0  0  0  0  0
    4.8080   40.9170   47.4370 C   0  0  0  0  0  0  0  0  0  0  0  0
    7.6260   42.6110   48.9930 N   0  0  0  0  0  0  0  0  0  0  0  0
    6.0320   41.5580   47.6210 C   0  0  0  0  0  0  0  0  0  0  0  0
    6.4230   41.9980   48.8840 C   0  0  0  0  0  0  0  0  0  0  0  0
    4.0430   38.8600   46.0080 N   0  0  0  0  0  0  0  0  0  0  0  0
    6.9350   44.2280   50.5510 N   0  0  0  0  0  0  0  0  0  0  0  0
    7.1960   45.2310   51.4250 C   0  0  0  0  0  0  0  0  0  0  0  0
    6.1920   45.8270   52.1090 O   0  0  0  0  0  0  0  0  0  0  0  0
    8.5840   45.6720   51.6220 C   0  0  0  0  0  0  0  0  0  0  0  0
    9.2230   46.6190   52.3980 N   0  0  0  0  0  0  0  0  0  0  0  0
   10.8110   45.4370   51.1020 N   0  0  0  0  0  0  0  0  0  0  0  0
    9.5550   44.9660   50.8410 C   0  0  0  0  0  0  0  0  0  0  0  0
    9.2100   43.9690   49.9980 N   0  0  0  0  0  0  0  0  0  0  0  0
    5.5980   41.7740   49.9860 C   0  0  0  0  0  0  0  0  0  0  0  0
    4.3750   41.1310   49.8100 C   0  0  0  0  0  0  0  0  0  0  0  0
    4.3510   40.4270   45.9660 S   0  0  0  0  0  0  0  0  0  0  0  0
    5.3810   40.6740   45.0070 O   0  0  0  0  0  0  0  0  0  0  0  0
    3.1650   41.1500   45.6150 O   0  0  0  0  0  0  0  0  0  0  0  0
   11.3485   47.0481   52.4697 H   0  0  0  0  0  0  0  0  0  0  0  0
    4.4721   45.7307   50.9531 H   0  0  0  0  0  0  0  0  0  0  0  0
    4.8601   44.2511   51.8950 H   0  0  0  0  0  0  0  0  0  0  0  0
    4.1507   46.9498   53.1596 H   0  0  0  0  0  0  0  0  0  0  0  0
    2.4437   44.4602   52.6116 H   0  0  0  0  0  0  0  0  0  0  0  0
    2.2594   46.0671   51.8303 H   0  0  0  0  0  0  0  0  0  0  0  0
    0.6397   45.7237   53.7066 H   0  0  0  0  0  0  0  0  0  0  0  0
    1.7524   47.1033   53.9984 H   0  0  0  0  0  0  0  0  0  0  0  0
    1.9281   44.2964   55.1855 H   0  0  0  0  0  0  0  0  0  0  0  0
    1.5233   45.8202   56.0462 H   0  0  0  0  0  0  0  0  0  0  0  0
    3.8825   45.0222   56.4168 H   0  0  0  0  0  0  0  0  0  0  0  0
    3.7678   46.6755   55.7238 H   0  0  0  0  0  0  0  0  0  0  0  0
    5.5185   45.4452   54.5614 H   0  0  0  0  0  0  0  0  0  0  0  0
    4.3949   44.0839   54.2280 H   0  0  0  0  0  0  0  0  0  0  0  0
    3.0232   40.2168   48.4055 H   0  0  0  0  0  0  0  0  0  0  0  0
    8.3804   42.2872   48.3710 H   0  0  0  0  0  0  0  0  0  0  0  0
    6.6871   41.7160   46.7719 H   0  0  0  0  0  0  0  0  0  0  0  0
    3.7454   38.3865   45.1790 H   0  0  0  0  0  0  0  0  0  0  0  0
    4.1478   38.3526   46.8633 H   0  0  0  0  0  0  0  0  0  0  0  0
   11.7132   45.1325   50.7093 H   0  0  0  0  0  0  0  0  0  0  0  0
    5.9066   42.0983   50.9733 H   0  0  0  0  0  0  0  0  0  0  0  0
    3.7279   40.9574   50.6621 H   0  0  0  0  0  0  0  0  0  0  0  0
  1 12  1  0  0  0  0
  1 23  1  0  0  0  0
  2 21  1  0  0  0  0
  2 29  1  0  0  0  0
  3  4  1  0  0  0  0
  3 30  1  0  0  0  0
  3 31  1  0  0  0  0
  4  5  1  0  0  0  0
  4  9  1  0  0  0  0
  4 32  1  0  0  0  0
  5  6  1  0  0  0  0
  5 33  1  0  0  0  0
  5 34  1  0  0  0  0
  6  7  1  0  0  0  0
  6 35  1  0  0  0  0
  6 36  1  0  0  0  0
  7 37  1  0  0  0  0
  7 38  1  0  0  0  0
  8  7  1  0  0  0  0
  8 39  1  0  0  0  0
  8 40  1  0  0  0  0
  9  8  1  0  0  0  0
  9 41  1  0  0  0  0
  9 42  1  0  0  0  0
 10 25  1  0  0  0  0
 10 43  1  0  0  0  0
 11 10  2  0  0  0  0
 11 26  1  0  0  0  0
 12 14  1  0  0  0  0
 12 44  1  0  0  0  0
 13 11  1  0  0  0  0
 13 45  1  0  0  0  0
 14 13  2  0  0  0  0
 14 24  1  0  0  0  0
 15 46  1  0  0  0  0
 15 47  1  0  0  0  0
 16  1  2  0  0  0  0
 17 16  1  0  0  0  0
 17 18  1  0  0  0  0
 18  3  1  0  0  0  0
 19 17  2  0  0  0  0
 19 20  1  0  0  0  0
 19 22  1  0  0  0  0
 20  2  2  0  0  0  0
 21 22  1  0  0  0  0
 21 48  1  0  0  0  0
 22 23  2  0  0  0  0
 24 25  2  0  0  0  0
 24 49  1  0  0  0  0
 25 50  1  0  0  0  0
 26 15  1  0  0  0  0
 26 27  2  0  0  0  0
 26 28  2  0  0  0  0
M  END
