1oiy_ligand
 OpenBabel08222323343D

 49 52  0  0  0  0  0  0  0  0999 V2000
    7.8810   43.6980   49.5180 C   0  0  0  0  0  0  0  0  0  0  0  0
    4.8200   45.4890   51.6160 C   0  0  0  0  0  0  0  0  0  0  0  0
    3.9450   46.0810   52.7150 C   0  0  0  0  0  0  0  0  0  0  0  0
    2.4610   45.7880   52.4180 C   0  0  0  0  0  0  0  0  0  0  0  0
    1.5010   46.0030   53.6110 C   0  0  0  0  0  0  0  0  0  0  0  0
    2.0960   45.5600   54.9590 C   0  0  0  0  0  0  0  0  0  0  0  0
    3.5120   46.1240   55.1780 C   0  0  0  0  0  0  0  0  0  0  0  0
    4.4390   45.5910   54.0960 C   0  0  0  0  0  0  0  0  0  0  0  0
    4.6900   40.7610   47.3980 C   0  0  0  0  0  0  0  0  0  0  0  0
    3.8070   40.8290   48.4620 C   0  0  0  0  0  0  0  0  0  0  0  0
    4.2100   41.5200   49.6130 C   0  0  0  0  0  0  0  0  0  0  0  0
    5.4670   42.1260   49.7170 C   0  0  0  0  0  0  0  0  0  0  0  0
    1.8670   39.6660   49.4840 N   0  0  0  0  0  0  0  0  0  0  0  0
    6.8780   44.4040   50.1330 N   0  0  0  0  0  0  0  0  0  0  0  0
    7.1250   45.4480   50.9660 C   0  0  0  0  0  0  0  0  0  0  0  0
    6.0940   46.1500   51.5500 O   0  0  0  0  0  0  0  0  0  0  0  0
    8.5350   45.8060   51.2070 C   0  0  0  0  0  0  0  0  0  0  0  0
    9.1820   46.7570   51.9440 N   0  0  0  0  0  0  0  0  0  0  0  0
   10.8140   45.4530   50.8500 N   0  0  0  0  0  0  0  0  0  0  0  0
    9.5360   45.0150   50.5430 C   0  0  0  0  0  0  0  0  0  0  0  0
    9.1970   44.0060   49.7220 N   0  0  0  0  0  0  0  0  0  0  0  0
    7.5800   42.6460   48.6920 N   0  0  0  0  0  0  0  0  0  0  0  0
    6.3480   42.0640   48.6390 C   0  0  0  0  0  0  0  0  0  0  0  0
    5.9500   41.3700   47.4870 C   0  0  0  0  0  0  0  0  0  0  0  0
    2.4220   40.2080   48.3820 C   0  0  0  0  0  0  0  0  0  0  0  0
   10.5380   46.5190   51.7020 C   0  0  0  0  0  0  0  0  0  0  0  0
    1.8160   40.2550   47.3140 O   0  0  0  0  0  0  0  0  0  0  0  0
    4.3071   45.6024   50.6495 H   0  0  0  0  0  0  0  0  0  0  0  0
    4.9810   44.4207   51.8226 H   0  0  0  0  0  0  0  0  0  0  0  0
    4.0678   47.1740   52.6972 H   0  0  0  0  0  0  0  0  0  0  0  0
    2.3777   44.7389   52.0978 H   0  0  0  0  0  0  0  0  0  0  0  0
    2.1402   46.4481   51.5986 H   0  0  0  0  0  0  0  0  0  0  0  0
    0.5825   45.4259   53.4284 H   0  0  0  0  0  0  0  0  0  0  0  0
    1.2553   47.0734   53.6729 H   0  0  0  0  0  0  0  0  0  0  0  0
    2.1440   44.4613   54.9821 H   0  0  0  0  0  0  0  0  0  0  0  0
    1.4429   45.9157   55.7695 H   0  0  0  0  0  0  0  0  0  0  0  0
    3.8829   45.8124   56.1656 H   0  0  0  0  0  0  0  0  0  0  0  0
    3.4818   47.2224   55.1274 H   0  0  0  0  0  0  0  0  0  0  0  0
    5.4604   45.9589   54.2729 H   0  0  0  0  0  0  0  0  0  0  0  0
    4.4363   44.4912   54.1185 H   0  0  0  0  0  0  0  0  0  0  0  0
    4.4066   40.2354   46.4933 H   0  0  0  0  0  0  0  0  0  0  0  0
    3.5251   41.5872   50.4505 H   0  0  0  0  0  0  0  0  0  0  0  0
    5.7529   42.6391   50.6280 H   0  0  0  0  0  0  0  0  0  0  0  0
    0.9560   39.2565   49.4352 H   0  0  0  0  0  0  0  0  0  0  0  0
    2.3662   39.6733   50.3505 H   0  0  0  0  0  0  0  0  0  0  0  0
   11.7236   45.0882   50.5332 H   0  0  0  0  0  0  0  0  0  0  0  0
    8.3220   42.2766   48.0805 H   0  0  0  0  0  0  0  0  0  0  0  0
    6.6316   41.3029   46.6467 H   0  0  0  0  0  0  0  0  0  0  0  0
   11.3243   47.1255   52.1490 H   0  0  0  0  0  0  0  0  0  0  0  0
  1 14  2  0  0  0  0
  1 21  1  0  0  0  0
  2  3  1  0  0  0  0
  2 28  1  0  0  0  0
  2 29  1  0  0  0  0
  3  4  1  0  0  0  0
  3  8  1  0  0  0  0
  3 30  1  0  0  0  0
  4  5  1  0  0  0  0
  4 31  1  0  0  0  0
  4 32  1  0  0  0  0
  5  6  1  0  0  0  0
  5 33  1  0  0  0  0
  5 34  1  0  0  0  0
  6 35  1  0  0  0  0
  6 36  1  0  0  0  0
  7  6  1  0  0  0  0
  7 37  1  0  0  0  0
  7 38  1  0  0  0  0
  8  7  1  0  0  0  0
  8 39  1  0  0  0  0
  8 40  1  0  0  0  0
  9 24  1  0  0  0  0
  9 41  1  0  0  0  0
 10  9  2  0  0  0  0
 10 25  1  0  0  0  0
 11 10  1  0  0  0  0
 11 42  1  0  0  0  0
 12 11  2  0  0  0  0
 12 43  1  0  0  0  0
 13 44  1  0  0  0  0
 13 45  1  0  0  0  0
 14 15  1  0  0  0  0
 15 16  1  0  0  0  0
 15 17  2  0  0  0  0
 16  2  1  0  0  0  0
 17 18  1  0  0  0  0
 19 26  1  0  0  0  0
 19 46  1  0  0  0  0
 20 17  1  0  0  0  0
 20 19  1  0  0  0  0
 21 20  2  0  0  0  0
 22  1  1  0  0  0  0
 22 23  1  0  0  0  0
 22 47  1  0  0  0  0
 23 12  1  0  0  0  0
 23 24  2  0  0  0  0
 24 48  1  0  0  0  0
 25 13  1  0  0  0  0
 25 27  2  0  0  0  0
 26 18  2  0  0  0  0
 26 49  1  0  0  0  0
M  END
