1oj5_ligand
 OpenBabel08222323343D

218219  0  0  1  0  0  0  0  0999 V2000
    9.7800   13.4640   20.4140 N   0  3  0  0  0  0  0  0  0  0  0  0
    9.5400   14.3110   21.6290 C   0  0  2  0  0  0  0  0  0  0  0  0
   10.8450   14.9360   22.1410 C   0  0  0  0  0  0  0  0  0  0  0  0
   11.7330   14.2280   22.6320 O   0  0  0  0  0  0  0  0  0  0  0  0
    8.8820   13.4480   22.7190 C   0  0  0  0  0  0  0  0  0  0  0  0
    8.4990   14.1040   24.0500 C   0  0  0  0  0  0  0  0  0  0  0  0
    7.4480   15.1790   23.8630 C   0  0  0  0  0  0  0  0  0  0  0  0
    7.9830   13.0110   24.9920 C   0  0  0  0  0  0  0  0  0  0  0  0
   11.0040   16.2490   22.0130 N   0  0  0  0  0  0  0  0  0  0  0  0
   12.2230   16.8720   22.5170 C   0  0  2  0  0  0  0  0  0  0  0  0
   12.3960   16.7170   24.0410 C   0  0  0  0  0  0  0  0  0  0  0  0
   11.4100   16.5590   24.7500 O   0  0  0  0  0  0  0  0  0  0  0  0
   12.0520   18.3380   22.1300 C   0  0  0  0  0  0  0  0  0  0  0  0
   11.1040   18.3040   20.9880 C   0  0  0  0  0  0  0  0  0  0  0  0
   10.1250   17.2350   21.3580 C   0  0  0  0  0  0  0  0  0  0  0  0
   13.6320   16.7560   24.5230 N   0  0  0  0  0  0  0  0  0  0  0  0
   13.8950   16.8100   25.9610 C   0  0  2  0  0  0  0  0  0  0  0  0
   13.5630   18.1900   26.5830 C   0  0  0  0  0  0  0  0  0  0  0  0
   13.9240   19.2380   26.0450 O   0  0  0  0  0  0  0  0  0  0  0  0
   15.3920   16.5480   26.0390 C   0  0  0  0  0  0  0  0  0  0  0  0
   15.9220   17.0860   24.7430 C   0  0  0  0  0  0  0  0  0  0  0  0
   14.8770   16.7560   23.7340 C   0  0  0  0  0  0  0  0  0  0  0  0
   12.8660   18.1810   27.7090 N   0  0  0  0  0  0  0  0  0  0  0  0
   12.6100   19.4030   28.4480 C   0  0  2  0  0  0  0  0  0  0  0  0
   13.8700   19.8400   29.2110 C   0  0  0  0  0  0  0  0  0  0  0  0
   14.8400   19.0850   29.3510 O   0  0  0  0  0  0  0  0  0  0  0  0
   11.4990   19.1830   29.5030 C   0  0  2  0  0  0  0  0  0  0  0  0
   11.9530   18.2210   30.4610 O   0  0  0  0  0  0  0  0  0  0  0  0
   10.2320   18.5690   28.8980 C   0  0  0  0  0  0  0  0  0  0  0  0
   13.8060   21.0590   29.7290 N   0  0  0  0  0  0  0  0  0  0  0  0
   14.8240   21.6360   30.6110 C   0  0  2  0  0  0  0  0  0  0  0  0
   15.1370   20.7010   31.7820 C   0  0  0  0  0  0  0  0  0  0  0  0
   16.2980   20.4690   32.0800 O   0  0  0  0  0  0  0  0  0  0  0  0
   14.3490   23.0040   31.1490 C   0  0  0  0  0  0  0  0  0  0  0  0
   15.4460   23.8800   31.7660 C   0  0  0  0  0  0  0  0  0  0  0  0
   15.8150   23.4920   33.1850 C   0  0  0  0  0  0  0  0  0  0  0  0
   17.0310   23.3940   33.4790 O   0  5  0  0  0  0  0  0  0  0  0  0
   14.8960   23.2890   34.0100 O   0  0  0  0  0  0  0  0  0  0  0  0
   14.1080   20.1360   32.4090 N   0  0  0  0  0  0  0  0  0  0  0  0
   14.3270   19.2090   33.5360 C   0  0  2  0  0  0  0  0  0  0  0  0
   14.9600   17.8830   33.0670 C   0  0  0  0  0  0  0  0  0  0  0  0
   15.8250   17.3660   33.7520 O   0  0  0  0  0  0  0  0  0  0  0  0
   13.0060   18.8920   34.2890 C   0  0  0  0  0  0  0  0  0  0  0  0
   12.7200   17.3570   34.4730 C   0  0  0  0  0  0  0  0  0  0  0  0
   11.4690   17.0200   35.2670 C   0  0  0  0  0  0  0  0  0  0  0  0
   11.3320   17.4160   36.4140 O   0  0  0  0  0  0  0  0  0  0  0  0
   10.5710   16.2640   34.6620 N   0  0  0  0  0  0  0  0  0  0  0  0
   14.5290   17.3460   31.9190 N   0  0  0  0  0  0  0  0  0  0  0  0
   15.1880   16.1840   31.3100 C   0  0  2  0  0  0  0  0  0  0  0  0
   16.7000   16.4100   31.2080 C   0  0  0  0  0  0  0  0  0  0  0  0
   17.4830   15.5430   31.5700 O   0  0  0  0  0  0  0  0  0  0  0  0
   14.6630   15.8780   29.8910 C   0  0  0  0  0  0  0  0  0  0  0  0
   13.2470   15.3640   29.8670 C   0  0  0  0  0  0  0  0  0  0  0  0
   12.7290   14.9040   30.9110 O   0  5  0  0  0  0  0  0  0  0  0  0
   12.5670   15.3960   28.8180 O   0  0  0  0  0  0  0  0  0  0  0  0
   17.1110   17.5850   30.7600 N   0  0  0  0  0  0  0  0  0  0  0  0
   18.5360   17.8520   30.5470 C   0  0  2  0  0  0  0  0  0  0  0  0
   19.2880   18.0980   31.8530 C   0  0  0  0  0  0  0  0  0  0  0  0
   20.4350   17.6890   31.9880 O   0  0  0  0  0  0  0  0  0  0  0  0
   18.7520   19.0380   29.5980 C   0  0  0  0  0  0  0  0  0  0  0  0
   18.2670   18.8030   28.1690 C   0  0  0  0  0  0  0  0  0  0  0  0
   18.3750   20.0800   27.3550 C   0  0  0  0  0  0  0  0  0  0  0  0
   19.0330   17.6730   27.5060 C   0  0  0  0  0  0  0  0  0  0  0  0
   18.6620   18.7780   32.8000 N   0  0  0  0  0  0  0  0  0  0  0  0
   19.2620   18.9290   34.1140 C   0  0  2  0  0  0  0  0  0  0  0  0
   19.5740   17.5470   34.7290 C   0  0  0  0  0  0  0  0  0  0  0  0
   20.6680   17.3280   35.2410 O   0  0  0  0  0  0  0  0  0  0  0  0
   18.3450   19.7560   35.0320 C   0  0  2  0  0  0  0  0  0  0  0  0
   18.1300   21.0620   34.4520 O   0  0  0  0  0  0  0  0  0  0  0  0
   19.0300   20.0180   36.3890 C   0  0  0  0  0  0  0  0  0  0  0  0
   18.6310   16.6120   34.6340 N   0  0  0  0  0  0  0  0  0  0  0  0
   18.8310   15.2430   35.1300 C   0  0  2  0  0  0  0  0  0  0  0  0
   19.9750   14.5100   34.4120 C   0  0  0  0  0  0  0  0  0  0  0  0
   20.8300   13.8990   35.0470 O   0  0  0  0  0  0  0  0  0  0  0  0
   17.5440   14.4490   34.9390 C   0  0  0  0  0  0  0  0  0  0  0  0
   17.5160   13.1060   35.6340 C   0  0  0  0  0  0  0  0  0  0  0  0
   19.9930   14.5790   33.0770 N   0  0  0  0  0  0  0  0  0  0  0  0
   21.0060   13.8760   32.2920 C   0  0  2  0  0  0  0  0  0  0  0  0
   22.3900   14.4150   32.5930 C   0  0  0  0  0  0  0  0  0  0  0  0
   23.3580   13.6580   32.6750 O   0  0  0  0  0  0  0  0  0  0  0  0
   20.7140   13.9850   30.7920 C   0  0  0  0  0  0  0  0  0  0  0  0
   19.4600   13.2100   30.3650 C   0  0  0  0  0  0  0  0  0  0  0  0
   18.9230   13.7220   29.0470 C   0  0  0  0  0  0  0  0  0  0  0  0
   19.7710   11.7080   30.2890 C   0  0  0  0  0  0  0  0  0  0  0  0
   22.4680   15.7190   32.7890 N   0  0  0  0  0  0  0  0  0  0  0  0
   23.7370   16.4050   32.9720 C   0  0  2  0  0  0  0  0  0  0  0  0
   24.3360   16.2420   34.3630 C   0  0  0  0  0  0  0  0  0  0  0  0
   25.4920   16.5770   34.5360 O   0  0  0  0  0  0  0  0  0  0  0  0
   23.5750   17.9000   32.6910 C   0  0  0  0  0  0  0  0  0  0  0  0
   23.4760   18.2870   31.2210 C   0  0  0  0  0  0  0  0  0  0  0  0
   23.2440   19.7640   31.1090 C   0  0  0  0  0  0  0  0  0  0  0  0
   24.7200   17.8590   30.4690 C   0  0  0  0  0  0  0  0  0  0  0  0
   23.5580   15.7590   35.3390 N   0  0  0  0  0  0  0  0  0  0  0  0
   24.0510   15.5030   36.7070 C   0  0  2  0  0  0  0  0  0  0  0  0
   24.3120   14.0010   36.9630 C   0  0  0  0  0  0  0  0  0  0  0  0
   25.3520   13.6160   37.5010 O   0  0  0  0  0  0  0  0  0  0  0  0
   23.0580   16.0620   37.7420 C   0  0  0  0  0  0  0  0  0  0  0  0
   23.3610   13.1660   36.5570 N   0  0  0  0  0  0  0  0  0  0  0  0
   23.4870   11.7060   36.6110 C   0  0  2  0  0  0  0  0  0  0  0  0
   24.8810   11.1980   36.2220 C   0  0  0  0  0  0  0  0  0  0  0  0
   25.1600   10.9440   35.0500 O   0  0  0  0  0  0  0  0  0  0  0  0
   22.4330   11.0560   35.7070 C   0  0  0  0  0  0  0  0  0  0  0  0
   21.0840   10.8520   36.3750 C   0  0  0  0  0  0  0  0  0  0  0  0
   20.0760   10.1960   35.4540 C   0  0  0  0  0  0  0  0  0  0  0  0
   19.0310    9.7240   35.9620 O   0  5  0  0  0  0  0  0  0  0  0  0
   20.3290   10.1560   34.2250 O   0  0  0  0  0  0  0  0  0  0  0  0
   25.8029   11.0292   37.1656 O   0  0  0  0  0  0  0  0  0  0  0  0
    8.9068   13.0685   20.1023 H   0  0  0  0  0  0  0  0  0  0  0  0
   10.4222   12.7217   20.6434 H   0  0  0  0  0  0  0  0  0  0  0  0
   10.1722   14.0328   19.6800 H   0  0  0  0  0  0  0  0  0  0  0  0
    8.8509   15.1248   21.3592 H   0  0  0  0  0  0  0  0  0  0  0  0
    9.5816   12.6314   22.9508 H   0  0  0  0  0  0  0  0  0  0  0  0
    7.9604   13.0301   22.2878 H   0  0  0  0  0  0  0  0  0  0  0  0
    9.3951   14.5659   24.4900 H   0  0  0  0  0  0  0  0  0  0  0  0
    7.2011   15.6240   24.8382 H   0  0  0  0  0  0  0  0  0  0  0  0
    6.5430   14.7345   23.4232 H   0  0  0  0  0  0  0  0  0  0  0  0
    7.8367   15.9591   23.1919 H   0  0  0  0  0  0  0  0  0  0  0  0
    8.7569   12.2393   25.1170 H   0  0  0  0  0  0  0  0  0  0  0  0
    7.0773   12.5561   24.5645 H   0  0  0  0  0  0  0  0  0  0  0  0
    7.7445   13.4529   25.9707 H   0  0  0  0  0  0  0  0  0  0  0  0
   13.1032   16.4406   22.0179 H   0  0  0  0  0  0  0  0  0  0  0  0
   13.0140   18.7761   21.8257 H   0  0  0  0  0  0  0  0  0  0  0  0
   11.6340   18.9165   22.9671 H   0  0  0  0  0  0  0  0  0  0  0  0
   10.5979   19.2737   20.8717 H   0  0  0  0  0  0  0  0  0  0  0  0
   11.6265   18.0488   20.0543 H   0  0  0  0  0  0  0  0  0  0  0  0
    9.3588   17.6135   22.0505 H   0  0  0  0  0  0  0  0  0  0  0  0
    9.6374   16.8106   20.4680 H   0  0  0  0  0  0  0  0  0  0  0  0
   13.3266   16.0297   26.4882 H   0  0  0  0  0  0  0  0  0  0  0  0
   15.5964   15.4708   26.1280 H   0  0  0  0  0  0  0  0  0  0  0  0
   15.8378   17.0777   26.8938 H   0  0  0  0  0  0  0  0  0  0  0  0
   16.0681   18.1744   24.8069 H   0  0  0  0  0  0  0  0  0  0  0  0
   16.8757   16.6025   24.4846 H   0  0  0  0  0  0  0  0  0  0  0  0
   14.8409   17.5172   22.9408 H   0  0  0  0  0  0  0  0  0  0  0  0
   15.0597   15.7681   23.2861 H   0  0  0  0  0  0  0  0  0  0  0  0
   12.5088   17.3142   28.0570 H   0  0  0  0  0  0  0  0  0  0  0  0
   12.3056   20.1924   27.7450 H   0  0  0  0  0  0  0  0  0  0  0  0
   11.2620   20.1405   29.9898 H   0  0  0  0  0  0  0  0  0  0  0  0
   11.2792   18.0868   31.1171 H   0  0  0  0  0  0  0  0  0  0  0  0
    9.4773   18.4340   29.6868 H   0  0  0  0  0  0  0  0  0  0  0  0
   10.4744   17.5933   28.4517 H   0  0  0  0  0  0  0  0  0  0  0  0
    9.8347   19.2389   28.1213 H   0  0  0  0  0  0  0  0  0  0  0  0
   13.0107   21.6215   29.5029 H   0  0  0  0  0  0  0  0  0  0  0  0
   15.7447   21.7860   30.0280 H   0  0  0  0  0  0  0  0  0  0  0  0
   13.5865   22.8202   31.9202 H   0  0  0  0  0  0  0  0  0  0  0  0
   13.8990   23.5605   30.3137 H   0  0  0  0  0  0  0  0  0  0  0  0
   15.0948   24.9224   31.7720 H   0  0  0  0  0  0  0  0  0  0  0  0
   16.3466   23.8001   31.1396 H   0  0  0  0  0  0  0  0  0  0  0  0
   13.1754   20.3421   32.1129 H   0  0  0  0  0  0  0  0  0  0  0  0
   15.0191   19.6940   34.2401 H   0  0  0  0  0  0  0  0  0  0  0  0
   12.1722   19.3325   33.7228 H   0  0  0  0  0  0  0  0  0  0  0  0
   13.0576   19.3549   35.2855 H   0  0  0  0  0  0  0  0  0  0  0  0
   13.5816   16.9105   34.9908 H   0  0  0  0  0  0  0  0  0  0  0  0
   12.6196   16.9079   33.4739 H   0  0  0  0  0  0  0  0  0  0  0  0
    9.7284   16.0110   35.1374 H   0  0  0  0  0  0  0  0  0  0  0  0
   10.7336   15.9445   33.7285 H   0  0  0  0  0  0  0  0  0  0  0  0
   13.7350   17.7481   31.4630 H   0  0  0  0  0  0  0  0  0  0  0  0
   14.9985   15.3103   31.9508 H   0  0  0  0  0  0  0  0  0  0  0  0
   15.3157   15.1188   29.4354 H   0  0  0  0  0  0  0  0  0  0  0  0
   14.7067   16.8031   29.2975 H   0  0  0  0  0  0  0  0  0  0  0  0
   16.4403   18.3004   30.5641 H   0  0  0  0  0  0  0  0  0  0  0  0
   18.9695   16.9580   30.0749 H   0  0  0  0  0  0  0  0  0  0  0  0
   19.8291   19.2583   29.5632 H   0  0  0  0  0  0  0  0  0  0  0  0
   18.2131   19.9062   30.0051 H   0  0  0  0  0  0  0  0  0  0  0  0
   17.2066   18.5139   28.2126 H   0  0  0  0  0  0  0  0  0  0  0  0
   18.0220   19.8925   26.3302 H   0  0  0  0  0  0  0  0  0  0  0  0
   19.4242   20.4093   27.3269 H   0  0  0  0  0  0  0  0  0  0  0  0
   17.7570   20.8634   27.8180 H   0  0  0  0  0  0  0  0  0  0  0  0
   18.9396   16.7608   28.1136 H   0  0  0  0  0  0  0  0  0  0  0  0
   20.0942   17.9498   27.4209 H   0  0  0  0  0  0  0  0  0  0  0  0
   18.6204   17.4893   26.5030 H   0  0  0  0  0  0  0  0  0  0  0  0
   17.7709   19.1902   32.6099 H   0  0  0  0  0  0  0  0  0  0  0  0
   20.2109   19.4734   33.9989 H   0  0  0  0  0  0  0  0  0  0  0  0
   17.3897   19.2300   35.1757 H   0  0  0  0  0  0  0  0  0  0  0  0
   17.5762   21.5758   35.0280 H   0  0  0  0  0  0  0  0  0  0  0  0
   18.3597   20.6095   37.0299 H   0  0  0  0  0  0  0  0  0  0  0  0
   19.9658   20.5729   36.2263 H   0  0  0  0  0  0  0  0  0  0  0  0
   19.2530   19.0585   36.8785 H   0  0  0  0  0  0  0  0  0  0  0  0
   17.7567   16.8493   34.2107 H   0  0  0  0  0  0  0  0  0  0  0  0
   19.0689   15.2939   36.2027 H   0  0  0  0  0  0  0  0  0  0  0  0
   17.4039   14.2791   33.8613 H   0  0  0  0  0  0  0  0  0  0  0  0
   16.7096   15.0519   35.3267 H   0  0  0  0  0  0  0  0  0  0  0  0
   16.5529   12.6119   35.4383 H   0  0  0  0  0  0  0  0  0  0  0  0
   17.6402   13.2511   36.7173 H   0  0  0  0  0  0  0  0  0  0  0  0
   18.3344   12.4782   35.2519 H   0  0  0  0  0  0  0  0  0  0  0  0
   19.2989   15.1230   32.6056 H   0  0  0  0  0  0  0  0  0  0  0  0
   20.9800   12.8127   32.5725 H   0  0  0  0  0  0  0  0  0  0  0  0
   21.5769   13.5875   30.2375 H   0  0  0  0  0  0  0  0  0  0  0  0
   20.5728   15.0461   30.5390 H   0  0  0  0  0  0  0  0  0  0  0  0
   18.6846   13.3625   31.1301 H   0  0  0  0  0  0  0  0  0  0  0  0
   18.0268   13.1482   28.7685 H   0  0  0  0  0  0  0  0  0  0  0  0
   19.6904   13.6043   28.2678 H   0  0  0  0  0  0  0  0  0  0  0  0
   18.6612   14.7858   29.1461 H   0  0  0  0  0  0  0  0  0  0  0  0
   20.1589   11.3644   31.2593 H   0  0  0  0  0  0  0  0  0  0  0  0
   20.5250   11.5287   29.5084 H   0  0  0  0  0  0  0  0  0  0  0  0
   18.8519   11.1551   30.0450 H   0  0  0  0  0  0  0  0  0  0  0  0
   21.6235   16.2540   32.8124 H   0  0  0  0  0  0  0  0  0  0  0  0
   24.4486   15.9850   32.2459 H   0  0  0  0  0  0  0  0  0  0  0  0
   24.4435   18.4210   33.1202 H   0  0  0  0  0  0  0  0  0  0  0  0
   22.6577   18.2412   33.1931 H   0  0  0  0  0  0  0  0  0  0  0  0
   22.6135   17.7662   30.7795 H   0  0  0  0  0  0  0  0  0  0  0  0
   23.1724   20.0444   30.0478 H   0  0  0  0  0  0  0  0  0  0  0  0
   24.0819   20.3032   31.5749 H   0  0  0  0  0  0  0  0  0  0  0  0
   22.3075   20.0280   31.6220 H   0  0  0  0  0  0  0  0  0  0  0  0
   24.8564   16.7726   30.5742 H   0  0  0  0  0  0  0  0  0  0  0  0
   25.5960   18.3802   30.8825 H   0  0  0  0  0  0  0  0  0  0  0  0
   24.6107   18.1134   29.4044 H   0  0  0  0  0  0  0  0  0  0  0  0
   22.5995   15.5626   35.1324 H   0  0  0  0  0  0  0  0  0  0  0  0
   25.0065   16.0348   36.8260 H   0  0  0  0  0  0  0  0  0  0  0  0
   23.4360   15.8653   38.7561 H   0  0  0  0  0  0  0  0  0  0  0  0
   22.0808   15.5734   37.6138 H   0  0  0  0  0  0  0  0  0  0  0  0
   22.9477   17.1466   37.5958 H   0  0  0  0  0  0  0  0  0  0  0  0
   22.5136   13.5544   36.1951 H   0  0  0  0  0  0  0  0  0  0  0  0
   23.2950   11.3936   37.6481 H   0  0  0  0  0  0  0  0  0  0  0  0
   22.8113   10.0744   35.3857 H   0  0  0  0  0  0  0  0  0  0  0  0
   22.2887   11.6995   34.8266 H   0  0  0  0  0  0  0  0  0  0  0  0
   20.6924   11.8316   36.6865 H   0  0  0  0  0  0  0  0  0  0  0  0
   21.2212   10.2136   37.2602 H   0  0  0  0  0  0  0  0  0  0  0  0
   26.5520   11.5823   36.9774 H   0  0  0  0  0  0  0  0  0  0  0  0
  1108  1  0  0  0  0
  1109  1  0  0  0  0
  1110  1  0  0  0  0
  2  1  1  0  0  0  0
  2  5  1  0  0  0  0
  2111  1  6  0  0  0
  3  2  1  0  0  0  0
  3  4  2  0  0  0  0
  5  6  1  0  0  0  0
  5112  1  0  0  0  0
  5113  1  0  0  0  0
  6  7  1  0  0  0  0
  6  8  1  0  0  0  0
  6114  1  0  0  0  0
  7115  1  0  0  0  0
  7116  1  0  0  0  0
  7117  1  0  0  0  0
  8118  1  0  0  0  0
  8119  1  0  0  0  0
  8120  1  0  0  0  0
  9 15  1  0  0  0  0
  9  3  1  0  0  0  0
 10 13  1  0  0  0  0
 10  9  1  0  0  0  0
 10121  1  6  0  0  0
 11 10  1  0  0  0  0
 11 12  2  0  0  0  0
 13 14  1  0  0  0  0
 13122  1  0  0  0  0
 13123  1  0  0  0  0
 14124  1  0  0  0  0
 14125  1  0  0  0  0
 15 14  1  0  0  0  0
 15126  1  0  0  0  0
 15127  1  0  0  0  0
 16 22  1  0  0  0  0
 16 11  1  0  0  0  0
 17 20  1  0  0  0  0
 17 16  1  0  0  0  0
 17128  1  1  0  0  0
 18 17  1  0  0  0  0
 18 19  2  0  0  0  0
 20 21  1  0  0  0  0
 20129  1  0  0  0  0
 20130  1  0  0  0  0
 21131  1  0  0  0  0
 21132  1  0  0  0  0
 22 21  1  0  0  0  0
 22133  1  0  0  0  0
 22134  1  0  0  0  0
 23 18  1  0  0  0  0
 23135  1  0  0  0  0
 24 23  1  0  0  0  0
 24 27  1  0  0  0  0
 24136  1  6  0  0  0
 25 24  1  0  0  0  0
 25 26  2  0  0  0  0
 27 29  1  0  0  0  0
 27 28  1  0  0  0  0
 27137  1  1  0  0  0
 28138  1  0  0  0  0
 29139  1  0  0  0  0
 29140  1  0  0  0  0
 29141  1  0  0  0  0
 30 25  1  0  0  0  0
 30142  1  0  0  0  0
 31 30  1  0  0  0  0
 31 34  1  0  0  0  0
 31143  1  6  0  0  0
 32 31  1  0  0  0  0
 32 33  2  0  0  0  0
 34 35  1  0  0  0  0
 34144  1  0  0  0  0
 34145  1  0  0  0  0
 35 36  1  0  0  0  0
 35146  1  0  0  0  0
 35147  1  0  0  0  0
 36 38  2  0  0  0  0
 36 37  1  0  0  0  0
 39 32  1  0  0  0  0
 39148  1  0  0  0  0
 40 39  1  0  0  0  0
 40 43  1  0  0  0  0
 40149  1  1  0  0  0
 41 40  1  0  0  0  0
 41 42  2  0  0  0  0
 43 44  1  0  0  0  0
 43150  1  0  0  0  0
 43151  1  0  0  0  0
 44 45  1  0  0  0  0
 44152  1  0  0  0  0
 44153  1  0  0  0  0
 45 47  1  0  0  0  0
 45 46  2  0  0  0  0
 47154  1  0  0  0  0
 47155  1  0  0  0  0
 48 41  1  0  0  0  0
 48156  1  0  0  0  0
 49 48  1  0  0  0  0
 49 52  1  0  0  0  0
 49157  1  1  0  0  0
 50 49  1  0  0  0  0
 50 51  2  0  0  0  0
 52 53  1  0  0  0  0
 52158  1  0  0  0  0
 52159  1  0  0  0  0
 53 54  1  0  0  0  0
 53 55  2  0  0  0  0
 56 50  1  0  0  0  0
 56160  1  0  0  0  0
 57 56  1  0  0  0  0
 57 60  1  0  0  0  0
 57161  1  6  0  0  0
 58 57  1  0  0  0  0
 58 59  2  0  0  0  0
 60 61  1  0  0  0  0
 60162  1  0  0  0  0
 60163  1  0  0  0  0
 61 62  1  0  0  0  0
 61 63  1  0  0  0  0
 61164  1  0  0  0  0
 62165  1  0  0  0  0
 62166  1  0  0  0  0
 62167  1  0  0  0  0
 63168  1  0  0  0  0
 63169  1  0  0  0  0
 63170  1  0  0  0  0
 64 58  1  0  0  0  0
 64171  1  0  0  0  0
 65 64  1  0  0  0  0
 65 68  1  0  0  0  0
 65172  1  6  0  0  0
 66 65  1  0  0  0  0
 66 67  2  0  0  0  0
 68 70  1  0  0  0  0
 68 69  1  0  0  0  0
 68173  1  1  0  0  0
 69174  1  0  0  0  0
 70175  1  0  0  0  0
 70176  1  0  0  0  0
 70177  1  0  0  0  0
 71 66  1  0  0  0  0
 71178  1  0  0  0  0
 72 71  1  0  0  0  0
 72 75  1  0  0  0  0
 72179  1  1  0  0  0
 73 72  1  0  0  0  0
 73 74  2  0  0  0  0
 75 76  1  0  0  0  0
 75180  1  0  0  0  0
 75181  1  0  0  0  0
 76182  1  0  0  0  0
 76183  1  0  0  0  0
 76184  1  0  0  0  0
 77 73  1  0  0  0  0
 77185  1  0  0  0  0
 78 77  1  0  0  0  0
 78 81  1  0  0  0  0
 78186  1  1  0  0  0
 79 78  1  0  0  0  0
 79 80  2  0  0  0  0
 81 82  1  0  0  0  0
 81187  1  0  0  0  0
 81188  1  0  0  0  0
 82 83  1  0  0  0  0
 82 84  1  0  0  0  0
 82189  1  0  0  0  0
 83190  1  0  0  0  0
 83191  1  0  0  0  0
 83192  1  0  0  0  0
 84193  1  0  0  0  0
 84194  1  0  0  0  0
 84195  1  0  0  0  0
 85 79  1  0  0  0  0
 85196  1  0  0  0  0
 86 85  1  0  0  0  0
 86 89  1  0  0  0  0
 86197  1  6  0  0  0
 87 86  1  0  0  0  0
 87 88  2  0  0  0  0
 89 90  1  0  0  0  0
 89198  1  0  0  0  0
 89199  1  0  0  0  0
 90 91  1  0  0  0  0
 90 92  1  0  0  0  0
 90200  1  0  0  0  0
 91201  1  0  0  0  0
 91202  1  0  0  0  0
 91203  1  0  0  0  0
 92204  1  0  0  0  0
 92205  1  0  0  0  0
 92206  1  0  0  0  0
 93 87  1  0  0  0  0
 93207  1  0  0  0  0
 94 93  1  0  0  0  0
 94 97  1  0  0  0  0
 94208  1  1  0  0  0
 95 94  1  0  0  0  0
 95 96  2  0  0  0  0
 95 98  1  0  0  0  0
 97209  1  0  0  0  0
 97210  1  0  0  0  0
 97211  1  0  0  0  0
 98 99  1  0  0  0  0
 98212  1  0  0  0  0
 99102  1  0  0  0  0
 99100  1  0  0  0  0
 99213  1  1  0  0  0
100101  2  0  0  0  0
100107  1  0  0  0  0
102103  1  0  0  0  0
102214  1  0  0  0  0
102215  1  0  0  0  0
103104  1  0  0  0  0
103216  1  0  0  0  0
103217  1  0  0  0  0
104106  2  0  0  0  0
104105  1  0  0  0  0
107218  1  0  0  0  0
M  CHG  4   1   1  37  -1  54  -1 105  -1
M  END
