1oko_ligand
 OpenBabel08222323343D

 24 24  0  0  1  0  0  0  0  0999 V2000
   22.0980   16.8310   45.2590 C   0  0  2  0  0  0  0  0  0  0  0  0
   22.7590   15.4870   45.0500 C   0  0  1  0  0  0  0  0  0  0  0  0
   24.0340   15.6740   44.2630 C   0  0  2  0  0  0  0  0  0  0  0  0
   23.6870   16.3310   42.9410 C   0  0  2  0  0  0  0  0  0  0  0  0
   22.8490   17.5710   43.1540 C   0  0  1  0  0  0  0  0  0  0  0  0
   22.2680   18.0340   41.8290 C   0  0  0  0  0  0  0  0  0  0  0  0
   20.9250   16.6420   46.0140 O   0  0  0  0  0  0  0  0  0  0  0  0
   23.0760   14.8160   46.2410 O   0  0  0  0  0  0  0  0  0  0  0  0
   24.5430   14.3910   44.0140 O   0  0  0  0  0  0  0  0  0  0  0  0
   22.9930   15.4110   42.1280 O   0  0  0  0  0  0  0  0  0  0  0  0
   21.7270   17.3070   43.9640 O   0  0  0  0  0  0  0  0  0  0  0  0
   21.7260   19.3220   42.0160 O   0  0  0  0  0  0  0  0  0  0  0  0
   22.7778   17.5343   45.7623 H   0  0  0  0  0  0  0  0  0  0  0  0
   22.0681   14.8550   44.4728 H   0  0  0  0  0  0  0  0  0  0  0  0
   24.7589   16.2844   44.8214 H   0  0  0  0  0  0  0  0  0  0  0  0
   24.6198   16.6208   42.4352 H   0  0  0  0  0  0  0  0  0  0  0  0
   23.4703   18.3591   43.6045 H   0  0  0  0  0  0  0  0  0  0  0  0
   21.4781   17.3403   41.5052 H   0  0  0  0  0  0  0  0  0  0  0  0
   23.0600   18.0697   41.0664 H   0  0  0  0  0  0  0  0  0  0  0  0
   20.4624   17.4682   46.0905 H   0  0  0  0  0  0  0  0  0  0  0  0
   22.2850   14.6885   46.7515 H   0  0  0  0  0  0  0  0  0  0  0  0
   24.7627   13.9732   44.8384 H   0  0  0  0  0  0  0  0  0  0  0  0
   22.8074   15.8109   41.2866 H   0  0  0  0  0  0  0  0  0  0  0  0
   21.0454   19.2849   42.6778 H   0  0  0  0  0  0  0  0  0  0  0  0
  1  2  1  0  0  0  0
  1  7  1  0  0  0  0
  1 11  1  0  0  0  0
  1 13  1  1  0  0  0
  2  3  1  0  0  0  0
  2  8  1  0  0  0  0
  2 14  1  6  0  0  0
  3  4  1  0  0  0  0
  3  9  1  0  0  0  0
  3 15  1  1  0  0  0
  4  5  1  0  0  0  0
  4 10  1  0  0  0  0
  4 16  1  6  0  0  0
  5  6  1  0  0  0  0
  5 11  1  0  0  0  0
  5 17  1  1  0  0  0
  6 12  1  0  0  0  0
  6 18  1  0  0  0  0
  6 19  1  0  0  0  0
  7 20  1  0  0  0  0
  8 21  1  0  0  0  0
  9 22  1  0  0  0  0
 10 23  1  0  0  0  0
 12 24  1  0  0  0  0
M  END
