1okz_ligand
 OpenBabel08222323343D

 63 70  0  0  1  0  0  0  0  0999 V2000
   80.9020   13.8910   10.2140 O   0  0  0  0  0  0  0  0  0  0  0  0
   81.1280   13.7990   11.6220 C   0  0  1  0  0  0  0  0  0  0  0  0
   82.2770   12.9040   11.8560 N   0  0  0  0  0  0  0  0  0  0  0  0
   83.4030   13.4720   12.2900 C   0  0  0  0  0  0  0  0  0  0  0  0
   84.4710   12.8950   12.4800 O   0  0  0  0  0  0  0  0  0  0  0  0
   83.1300   14.8290   12.4390 C   0  0  0  0  0  0  0  0  0  0  0  0
   83.9320   15.8670   12.9040 C   0  0  0  0  0  0  0  0  0  0  0  0
   85.2640   15.9880   13.2780 C   0  0  0  0  0  0  0  0  0  0  0  0
   85.5230   17.3170   13.6100 C   0  0  0  0  0  0  0  0  0  0  0  0
   86.8070   17.6820   14.0000 C   0  0  0  0  0  0  0  0  0  0  0  0
   87.8030   16.7080   14.0470 C   0  0  0  0  0  0  0  0  0  0  0  0
   87.5260   15.3840   13.7140 C   0  0  0  0  0  0  0  0  0  0  0  0
   86.2440   15.0030   13.3240 C   0  0  0  0  0  0  0  0  0  0  0  0
   84.3650   17.9640   13.4380 N   0  0  0  0  0  0  0  0  0  0  0  0
   83.4040   17.1440   13.0140 C   0  0  0  0  0  0  0  0  0  0  0  0
   82.0830   17.4070   12.6570 C   0  0  0  0  0  0  0  0  0  0  0  0
   81.3980   18.5470   12.5510 N   0  0  0  0  0  0  0  0  0  0  0  0
   80.1850   18.3440   12.0140 C   0  0  0  0  0  0  0  0  0  0  0  0
   80.1070   16.9730   11.7830 C   0  0  0  0  0  0  0  0  0  0  0  0
   78.9990   16.3660   11.1960 C   0  0  0  0  0  0  0  0  0  0  0  0
   77.9300   17.1800   10.8300 C   0  0  0  0  0  0  0  0  0  0  0  0
   77.9880   18.5550   11.0530 C   0  0  0  0  0  0  0  0  0  0  0  0
   79.1070   19.1410   11.6430 C   0  0  0  0  0  0  0  0  0  0  0  0
   81.2900   16.3770   12.1870 C   0  0  0  0  0  0  0  0  0  0  0  0
   81.8110   15.0870   12.0830 C   0  0  0  0  0  0  0  0  0  0  0  0
   81.8530   19.7470   12.9370 C   0  0  1  0  0  0  0  0  0  0  0  0
   82.7900   19.6320   14.0170 O   0  0  0  0  0  0  0  0  0  0  0  0
   84.1780   19.4050   13.7150 C   0  0  2  0  0  0  0  0  0  0  0  0
   84.7390   20.2940   12.6000 C   0  0  0  0  0  0  0  0  0  0  0  0
   83.6610   21.2910   12.1770 C   0  0  1  0  0  0  0  0  0  0  0  0
   84.1710   22.1330   11.0850 N   0  3  0  0  0  0  0  0  0  0  0  0
   83.6830   23.4790   10.7510 C   0  0  0  0  0  0  0  0  0  0  0  0
   82.4190   20.5120   11.7330 C   0  0  1  0  0  0  0  0  0  0  0  0
   82.8350   19.5730   10.7300 O   0  0  0  0  0  0  0  0  0  0  0  0
   82.2230   19.8780    9.4730 C   0  0  0  0  0  0  0  0  0  0  0  0
   80.7320   20.6110   13.5240 C   0  0  0  0  0  0  0  0  0  0  0  0
   80.1634   14.4655   10.0498 H   0  0  0  0  0  0  0  0  0  0  0  0
   80.2163   13.5344   12.1777 H   0  0  0  0  0  0  0  0  0  0  0  0
   82.2147   11.9187   11.6969 H   0  0  0  0  0  0  0  0  0  0  0  0
   87.0301   18.7095   14.2637 H   0  0  0  0  0  0  0  0  0  0  0  0
   88.8073   16.9847   14.3469 H   0  0  0  0  0  0  0  0  0  0  0  0
   88.3158   14.6429   13.7588 H   0  0  0  0  0  0  0  0  0  0  0  0
   86.0185   13.9747   13.0655 H   0  0  0  0  0  0  0  0  0  0  0  0
   78.9699   15.2952   11.0296 H   0  0  0  0  0  0  0  0  0  0  0  0
   77.0506   16.7434   10.3706 H   0  0  0  0  0  0  0  0  0  0  0  0
   77.1498   19.1783   10.7631 H   0  0  0  0  0  0  0  0  0  0  0  0
   79.1368   20.2114   11.8116 H   0  0  0  0  0  0  0  0  0  0  0  0
   84.7515   19.6461   14.6221 H   0  0  0  0  0  0  0  0  0  0  0  0
   85.0252   19.6716   11.7394 H   0  0  0  0  0  0  0  0  0  0  0  0
   85.6212   20.8376   12.9690 H   0  0  0  0  0  0  0  0  0  0  0  0
   83.3991   21.9322   13.0316 H   0  0  0  0  0  0  0  0  0  0  0  0
   84.0464   21.5878   10.2464 H   0  0  0  0  0  0  0  0  0  0  0  0
   85.1555   22.2440   11.2704 H   0  0  0  0  0  0  0  0  0  0  0  0
   84.2459   23.8701    9.8907 H   0  0  0  0  0  0  0  0  0  0  0  0
   83.8242   24.1451   11.6149 H   0  0  0  0  0  0  0  0  0  0  0  0
   82.6138   23.4290   10.4974 H   0  0  0  0  0  0  0  0  0  0  0  0
   81.6593   21.1964   11.3275 H   0  0  0  0  0  0  0  0  0  0  0  0
   82.5530   19.1492    8.7181 H   0  0  0  0  0  0  0  0  0  0  0  0
   82.5166   20.8903    9.1582 H   0  0  0  0  0  0  0  0  0  0  0  0
   81.1290   19.8290    9.5763 H   0  0  0  0  0  0  0  0  0  0  0  0
   81.1415   21.5854   13.8289 H   0  0  0  0  0  0  0  0  0  0  0  0
   80.2993   20.1050   14.3996 H   0  0  0  0  0  0  0  0  0  0  0  0
   79.9505   20.7630   12.7650 H   0  0  0  0  0  0  0  0  0  0  0  0
  1  2  1  0  0  0  0
  1 37  1  0  0  0  0
  2  3  1  0  0  0  0
  2 25  1  0  0  0  0
  2 38  1  1  0  0  0
  3  4  1  0  0  0  0
  3 39  1  0  0  0  0
  4  5  2  0  0  0  0
  4  6  1  0  0  0  0
  6  7  2  0  0  0  0
  6 25  1  0  0  0  0
  7  8  1  0  0  0  0
  7 15  1  0  0  0  0
  8  9  2  0  0  0  0
  8 13  1  0  0  0  0
  9 10  1  0  0  0  0
  9 14  1  0  0  0  0
 10 11  2  0  0  0  0
 10 40  1  0  0  0  0
 11 12  1  0  0  0  0
 11 41  1  0  0  0  0
 12 13  2  0  0  0  0
 12 42  1  0  0  0  0
 13 43  1  0  0  0  0
 14 15  1  0  0  0  0
 14 28  1  0  0  0  0
 15 16  2  0  0  0  0
 16 17  1  0  0  0  0
 16 24  1  0  0  0  0
 17 18  1  0  0  0  0
 17 26  1  0  0  0  0
 18 19  2  0  0  0  0
 18 23  1  0  0  0  0
 19 20  1  0  0  0  0
 19 24  1  0  0  0  0
 20 21  2  0  0  0  0
 20 44  1  0  0  0  0
 21 22  1  0  0  0  0
 21 45  1  0  0  0  0
 22 23  2  0  0  0  0
 22 46  1  0  0  0  0
 23 47  1  0  0  0  0
 24 25  2  0  0  0  0
 26 27  1  0  0  0  0
 26 33  1  0  0  0  0
 26 36  1  1  0  0  0
 27 28  1  0  0  0  0
 28 29  1  0  0  0  0
 28 48  1  1  0  0  0
 29 30  1  0  0  0  0
 29 49  1  0  0  0  0
 29 50  1  0  0  0  0
 30 31  1  0  0  0  0
 30 33  1  0  0  0  0
 30 51  1  1  0  0  0
 31 32  1  0  0  0  0
 31 52  1  0  0  0  0
 31 53  1  0  0  0  0
 32 54  1  0  0  0  0
 32 55  1  0  0  0  0
 32 56  1  0  0  0  0
 33 34  1  0  0  0  0
 33 57  1  6  0  0  0
 34 35  1  0  0  0  0
 35 58  1  0  0  0  0
 35 59  1  0  0  0  0
 35 60  1  0  0  0  0
 36 61  1  0  0  0  0
 36 62  1  0  0  0  0
 36 63  1  0  0  0  0
M  CHG  1  31   1
M  END
