1om2_ligand
 OpenBabel08222323343D

182183  0  0  1  0  0  0  0  0999 V2000
  -13.9620   20.8670  -21.8130 N   0  3  0  0  0  0  0  0  0  0  0  0
  -13.9810   20.9880  -20.3450 C   0  0  0  0  0  0  0  0  0  0  0  0
  -12.5610   21.1680  -19.8120 C   0  0  0  0  0  0  0  0  0  0  0  0
  -11.6230   20.9840  -20.5830 O   0  0  0  0  0  0  0  0  0  0  0  0
  -12.3980   21.5230  -18.5260 N   0  0  0  0  0  0  0  0  0  0  0  0
  -11.1110   21.7580  -17.8760 C   0  0  2  0  0  0  0  0  0  0  0  0
  -10.3400   20.4590  -17.5880 C   0  0  0  0  0  0  0  0  0  0  0  0
  -10.0120   20.1640  -16.4400 O   0  0  0  0  0  0  0  0  0  0  0  0
  -11.4780   22.5230  -16.5980 C   0  0  0  0  0  0  0  0  0  0  0  0
  -12.8580   21.9820  -16.2350 C   0  0  0  0  0  0  0  0  0  0  0  0
  -13.4980   21.7580  -17.6020 C   0  0  0  0  0  0  0  0  0  0  0  0
  -10.0490   19.6820  -18.6360 N   0  0  0  0  0  0  0  0  0  0  0  0
   -9.3170   18.4260  -18.5910 C   0  0  2  0  0  0  0  0  0  0  0  0
   -8.5920   18.2690  -19.9280 C   0  0  0  0  0  0  0  0  0  0  0  0
   -9.0990   17.6170  -20.8400 O   0  0  0  0  0  0  0  0  0  0  0  0
  -10.2400   17.2200  -18.3260 C   0  0  0  0  0  0  0  0  0  0  0  0
  -10.6990   17.0970  -16.8650 C   0  0  0  0  0  0  0  0  0  0  0  0
  -12.0150   17.8300  -16.5700 C   0  0  0  0  0  0  0  0  0  0  0  0
  -11.9200   18.5680  -15.2980 N   0  0  0  0  0  0  0  0  0  0  0  0
  -12.7430   18.5020  -14.2370 C   0  0  0  0  0  3  0  0  0  0  0  0
  -13.8070   17.6870  -14.2300 N   0  0  0  0  0  0  0  0  0  0  0  0
  -12.5010   19.2720  -13.1700 N   0  0  0  0  0  0  0  0  0  0  0  0
   -7.3960   18.8570  -20.0340 N   0  0  0  0  0  0  0  0  0  0  0  0
   -6.5560   18.8150  -21.2260 C   0  0  2  0  0  0  0  0  0  0  0  0
   -6.0120   17.4030  -21.4990 C   0  0  0  0  0  0  0  0  0  0  0  0
   -5.3230   17.1940  -22.4940 O   0  0  0  0  0  0  0  0  0  0  0  0
   -5.4420   19.8670  -21.0580 C   0  0  0  0  0  0  0  0  0  0  0  0
   -4.4040   19.9930  -22.1900 C   0  0  0  0  0  0  0  0  0  0  0  0
   -5.0270   20.1610  -23.5760 C   0  0  0  0  0  0  0  0  0  0  0  0
   -3.4960   21.2050  -21.9290 C   0  0  0  0  0  0  0  0  0  0  0  0
   -6.3060   16.4110  -20.6490 N   0  0  0  0  0  0  0  0  0  0  0  0
   -5.8390   15.0430  -20.8130 C   0  0  2  0  0  0  0  0  0  0  0  0
   -6.6090   14.2600  -21.8820 C   0  0  0  0  0  0  0  0  0  0  0  0
   -7.0710   13.1500  -21.6230 O   0  0  0  0  0  0  0  0  0  0  0  0
   -5.8690   14.3500  -19.4530 C   0  0  0  0  0  0  0  0  0  0  0  0
   -7.1970   14.2560  -18.9830 O   0  0  0  0  0  0  0  0  0  0  0  0
   -6.7230   14.8260  -23.0870 N   0  0  0  0  0  0  0  0  0  0  0  0
   -7.3720   14.2040  -24.2280 C   0  0  2  0  0  0  0  0  0  0  0  0
   -6.2460   13.5010  -24.9830 C   0  0  0  0  0  0  0  0  0  0  0  0
   -6.1560   12.2740  -24.9800 O   0  0  0  0  0  0  0  0  0  0  0  0
   -8.1060   15.2760  -25.0490 C   0  0  0  0  0  0  0  0  0  0  0  0
   -8.9070   14.6630  -26.2020 C   0  0  0  0  0  0  0  0  0  0  0  0
   -9.6410   15.7670  -26.9750 C   0  0  0  0  0  0  0  0  0  0  0  0
  -10.5400   15.2140  -28.0000 N   0  0  0  0  0  0  0  0  0  0  0  0
  -11.7730   14.7260  -27.7740 C   0  0  0  0  0  3  0  0  0  0  0  0
  -12.2660   14.6650  -26.5300 N   0  0  0  0  0  0  0  0  0  0  0  0
  -12.5160   14.2950  -28.8020 N   0  0  0  0  0  0  0  0  0  0  0  0
   -5.3590   14.2980  -25.5910 N   0  0  0  0  0  0  0  0  0  0  0  0
   -4.1860   13.8180  -26.3010 C   0  0  2  0  0  0  0  0  0  0  0  0
   -3.3260   12.9370  -25.4120 C   0  0  0  0  0  0  0  0  0  0  0  0
   -2.7760   11.9690  -25.9090 O   0  0  0  0  0  0  0  0  0  0  0  0
   -3.4120   14.9750  -26.9680 C   0  0  0  0  0  0  0  0  0  0  0  0
   -2.7610   16.1150  -26.1460 C   0  0  0  0  0  0  0  0  0  0  0  0
   -3.6650   16.8970  -25.2040 C   0  0  0  0  0  0  0  0  0  0  0  0
   -1.5140   15.6970  -25.3630 C   0  0  0  0  0  0  0  0  0  0  0  0
   -3.2060   13.2450  -24.1180 N   0  0  0  0  0  0  0  0  0  0  0  0
   -2.3500   12.5000  -23.2060 C   0  0  2  0  0  0  0  0  0  0  0  0
   -2.7530   11.0310  -23.0640 C   0  0  0  0  0  0  0  0  0  0  0  0
   -1.9520   10.2310  -22.5880 O   0  0  0  0  0  0  0  0  0  0  0  0
   -2.1490   13.2120  -21.8650 C   0  0  0  0  0  0  0  0  0  0  0  0
   -1.3970   14.5700  -21.8490 C   0  0  0  0  0  0  0  0  0  0  0  0
   -0.0460   14.6040  -22.5890 C   0  0  0  0  0  0  0  0  0  0  0  0
   -2.3110   15.7550  -22.1820 C   0  0  0  0  0  0  0  0  0  0  0  0
   -3.9540   10.6460  -23.5170 N   0  0  0  0  0  0  0  0  0  0  0  0
   -4.3630    9.2480  -23.5060 C   0  0  2  0  0  0  0  0  0  0  0  0
   -3.4450    8.4230  -24.4300 C   0  0  0  0  0  0  0  0  0  0  0  0
   -3.4340    7.1970  -24.3460 O   0  0  0  0  0  0  0  0  0  0  0  0
   -5.8260    9.1380  -23.9480 C   0  0  0  0  0  0  0  0  0  0  0  0
   -6.2850    7.8120  -23.7850 O   0  0  0  0  0  0  0  0  0  0  0  0
   -2.6830    9.0950  -25.3070 N   0  0  0  0  0  0  0  0  0  0  0  0
   -1.7470    8.5180  -26.2590 C   0  0  2  0  0  0  0  0  0  0  0  0
   -0.4480    7.9900  -25.6300 C   0  0  0  0  0  0  0  0  0  0  0  0
    0.3820    7.4450  -26.3550 O   0  0  0  0  0  0  0  0  0  0  0  0
   -1.4230    9.5940  -27.3200 C   0  0  0  0  0  0  0  0  0  0  0  0
   -0.5320   10.7830  -26.9360 C   0  0  0  0  0  0  0  0  0  0  0  0
   -0.1750   11.0770  -25.6010 C   0  0  0  0  0  0  0  0  0  0  0  0
   -0.0660   11.6350  -27.9530 C   0  0  0  0  0  0  0  0  0  0  0  0
    0.6460   12.1680  -25.2860 C   0  0  0  0  0  0  0  0  0  0  0  0
    0.7570   12.7290  -27.6390 C   0  0  0  0  0  0  0  0  0  0  0  0
    1.1210   12.9960  -26.3100 C   0  0  0  0  0  0  0  0  0  0  0  0
    1.9190   14.0620  -26.0140 O   0  0  0  0  0  0  0  0  0  0  0  0
   -0.2380    8.1780  -24.3180 N   0  0  0  0  0  0  0  0  0  0  0  0
    0.9950    7.8030  -23.6470 C   0  0  2  0  0  0  0  0  0  0  0  0
    0.7470    7.6350  -22.1480 C   0  0  0  0  0  0  0  0  0  0  0  0
    1.0870    6.5440  -21.6410 O   0  5  0  0  0  0  0  0  0  0  0  0
    2.0290    8.9100  -23.9130 C   0  0  0  0  0  0  0  0  0  0  0  0
    0.4440    8.6640  -21.5050 O   0  0  0  0  0  0  0  0  0  0  0  0
  -14.9037   20.7488  -22.1526 H   0  0  0  0  0  0  0  0  0  0  0  0
  -13.4068   20.0682  -22.0772 H   0  0  0  0  0  0  0  0  0  0  0  0
  -13.5626   21.7012  -22.2138 H   0  0  0  0  0  0  0  0  0  0  0  0
  -14.4192   20.0772  -19.9110 H   0  0  0  0  0  0  0  0  0  0  0  0
  -14.5891   21.8592  -20.0601 H   0  0  0  0  0  0  0  0  0  0  0  0
  -10.4815   22.3905  -18.5192 H   0  0  0  0  0  0  0  0  0  0  0  0
  -11.5188   23.6058  -16.7872 H   0  0  0  0  0  0  0  0  0  0  0  0
  -10.7532   22.3178  -15.7964 H   0  0  0  0  0  0  0  0  0  0  0  0
  -13.4287   22.7139  -15.6446 H   0  0  0  0  0  0  0  0  0  0  0  0
  -12.7799   21.0391  -15.6739 H   0  0  0  0  0  0  0  0  0  0  0  0
  -14.1660   20.8845  -17.5728 H   0  0  0  0  0  0  0  0  0  0  0  0
  -14.0698   22.6469  -17.9066 H   0  0  0  0  0  0  0  0  0  0  0  0
  -10.3633   19.9927  -19.5330 H   0  0  0  0  0  0  0  0  0  0  0  0
   -8.5746   18.4757  -17.7808 H   0  0  0  0  0  0  0  0  0  0  0  0
   -9.6974   16.3023  -18.5970 H   0  0  0  0  0  0  0  0  0  0  0  0
  -11.1319   17.3200  -18.9620 H   0  0  0  0  0  0  0  0  0  0  0  0
   -9.9148   17.5165  -16.2177 H   0  0  0  0  0  0  0  0  0  0  0  0
  -10.8353   16.0306  -16.6320 H   0  0  0  0  0  0  0  0  0  0  0  0
  -12.8313   17.0957  -16.5025 H   0  0  0  0  0  0  0  0  0  0  0  0
  -12.2255   18.5384  -17.3848 H   0  0  0  0  0  0  0  0  0  0  0  0
  -11.1235   19.2153  -15.2109 H   0  0  0  0  0  0  0  0  0  0  0  0
  -14.4241   17.6527  -13.4060 H   0  0  0  0  0  0  0  0  0  0  0  0
  -14.0076   17.0949  -15.0486 H   0  0  0  0  0  0  0  0  0  0  0  0
  -11.6864   19.9023  -13.1639 H   0  0  0  0  0  0  0  0  0  0  0  0
  -13.1293   19.2345  -12.3547 H   0  0  0  0  0  0  0  0  0  0  0  0
   -7.0533   19.3607  -19.2410 H   0  0  0  0  0  0  0  0  0  0  0  0
   -7.1702   19.1024  -22.0921 H   0  0  0  0  0  0  0  0  0  0  0  0
   -4.8950   19.6228  -20.1355 H   0  0  0  0  0  0  0  0  0  0  0  0
   -5.9288   20.8472  -20.9471 H   0  0  0  0  0  0  0  0  0  0  0  0
   -3.7925   19.0787  -22.1938 H   0  0  0  0  0  0  0  0  0  0  0  0
   -4.2293   20.2440  -24.3289 H   0  0  0  0  0  0  0  0  0  0  0  0
   -5.6434   21.0719  -23.5930 H   0  0  0  0  0  0  0  0  0  0  0  0
   -5.6564   19.2880  -23.8034 H   0  0  0  0  0  0  0  0  0  0  0  0
   -3.0336   21.1095  -20.9355 H   0  0  0  0  0  0  0  0  0  0  0  0
   -4.0948   22.1269  -21.9676 H   0  0  0  0  0  0  0  0  0  0  0  0
   -2.7096   21.2462  -22.6970 H   0  0  0  0  0  0  0  0  0  0  0  0
   -6.8787   16.6224  -19.8570 H   0  0  0  0  0  0  0  0  0  0  0  0
   -4.7909   15.0878  -21.1439 H   0  0  0  0  0  0  0  0  0  0  0  0
   -5.2701   14.9306  -18.7360 H   0  0  0  0  0  0  0  0  0  0  0  0
   -5.4458   13.3394  -19.5507 H   0  0  0  0  0  0  0  0  0  0  0  0
   -7.7154   13.7533  -19.6003 H   0  0  0  0  0  0  0  0  0  0  0  0
   -6.3354   15.7394  -23.2117 H   0  0  0  0  0  0  0  0  0  0  0  0
   -8.1072   13.4585  -23.8908 H   0  0  0  0  0  0  0  0  0  0  0  0
   -7.3653   15.9759  -25.4632 H   0  0  0  0  0  0  0  0  0  0  0  0
   -8.7954   15.8208  -24.3872 H   0  0  0  0  0  0  0  0  0  0  0  0
   -9.6417   13.9512  -25.7975 H   0  0  0  0  0  0  0  0  0  0  0  0
   -8.2217   14.1359  -26.8821 H   0  0  0  0  0  0  0  0  0  0  0  0
   -8.8974   16.4126  -27.4651 H   0  0  0  0  0  0  0  0  0  0  0  0
  -10.2341   16.3634  -26.2661 H   0  0  0  0  0  0  0  0  0  0  0  0
  -10.1968   15.1993  -28.9710 H   0  0  0  0  0  0  0  0  0  0  0  0
  -13.2114   14.2894  -26.3685 H   0  0  0  0  0  0  0  0  0  0  0  0
  -11.6997   14.9936  -25.7349 H   0  0  0  0  0  0  0  0  0  0  0  0
  -12.1431   14.3390  -29.7611 H   0  0  0  0  0  0  0  0  0  0  0  0
  -13.4602   13.9196  -28.6333 H   0  0  0  0  0  0  0  0  0  0  0  0
   -5.5134   15.2853  -25.5542 H   0  0  0  0  0  0  0  0  0  0  0  0
   -4.5480   13.1763  -27.1178 H   0  0  0  0  0  0  0  0  0  0  0  0
   -4.1186   15.4592  -27.6581 H   0  0  0  0  0  0  0  0  0  0  0  0
   -2.5987   14.5086  -27.5434 H   0  0  0  0  0  0  0  0  0  0  0  0
   -2.4216   16.8389  -26.9015 H   0  0  0  0  0  0  0  0  0  0  0  0
   -3.0762   17.6698  -24.6881 H   0  0  0  0  0  0  0  0  0  0  0  0
   -4.1014   16.2123  -24.4619 H   0  0  0  0  0  0  0  0  0  0  0  0
   -4.4707   17.3743  -25.7810 H   0  0  0  0  0  0  0  0  0  0  0  0
   -0.8410   15.1284  -26.0216 H   0  0  0  0  0  0  0  0  0  0  0  0
   -1.8100   15.0683  -24.5103 H   0  0  0  0  0  0  0  0  0  0  0  0
   -0.9947   16.5939  -24.9944 H   0  0  0  0  0  0  0  0  0  0  0  0
   -3.7263   14.0204  -23.7603 H   0  0  0  0  0  0  0  0  0  0  0  0
   -1.3578   12.4850  -23.6807 H   0  0  0  0  0  0  0  0  0  0  0  0
   -1.5898   12.5243  -21.2135 H   0  0  0  0  0  0  0  0  0  0  0  0
   -3.1477   13.3896  -21.4395 H   0  0  0  0  0  0  0  0  0  0  0  0
   -1.1258   14.7158  -20.7930 H   0  0  0  0  0  0  0  0  0  0  0  0
    0.3902   15.6107  -22.5097 H   0  0  0  0  0  0  0  0  0  0  0  0
   -0.2021   14.3545  -23.6489 H   0  0  0  0  0  0  0  0  0  0  0  0
    0.6384   13.8712  -22.1367 H   0  0  0  0  0  0  0  0  0  0  0  0
   -3.2515   15.6621  -21.6191 H   0  0  0  0  0  0  0  0  0  0  0  0
   -2.5280   15.7590  -23.2604 H   0  0  0  0  0  0  0  0  0  0  0  0
   -1.8094   16.6941  -21.9054 H   0  0  0  0  0  0  0  0  0  0  0  0
   -4.5853   11.3358  -23.8715 H   0  0  0  0  0  0  0  0  0  0  0  0
   -4.2732    8.8580  -22.4814 H   0  0  0  0  0  0  0  0  0  0  0  0
   -5.9084    9.4237  -25.0070 H   0  0  0  0  0  0  0  0  0  0  0  0
   -6.4423    9.8138  -23.3369 H   0  0  0  0  0  0  0  0  0  0  0  0
   -5.7546    7.2273  -24.3135 H   0  0  0  0  0  0  0  0  0  0  0  0
   -2.7672   10.0915  -25.3057 H   0  0  0  0  0  0  0  0  0  0  0  0
   -2.2447    7.6706  -26.7532 H   0  0  0  0  0  0  0  0  0  0  0  0
   -2.3833   10.0092  -27.6596 H   0  0  0  0  0  0  0  0  0  0  0  0
   -0.9289    9.0801  -28.1577 H   0  0  0  0  0  0  0  0  0  0  0  0
   -0.5446   10.4442  -24.8022 H   0  0  0  0  0  0  0  0  0  0  0  0
   -0.3432   11.4466  -28.9839 H   0  0  0  0  0  0  0  0  0  0  0  0
    0.9119   12.3698  -24.2547 H   0  0  0  0  0  0  0  0  0  0  0  0
    1.1153   13.3748  -28.4325 H   0  0  0  0  0  0  0  0  0  0  0  0
    2.0656   14.0956  -25.0760 H   0  0  0  0  0  0  0  0  0  0  0  0
   -0.9661    8.5969  -23.7753 H   0  0  0  0  0  0  0  0  0  0  0  0
    1.3639    6.8514  -24.0573 H   0  0  0  0  0  0  0  0  0  0  0  0
    2.9764    8.6539  -23.4161 H   0  0  0  0  0  0  0  0  0  0  0  0
    1.6538    9.8651  -23.5169 H   0  0  0  0  0  0  0  0  0  0  0  0
    2.1965    9.0027  -24.9962 H   0  0  0  0  0  0  0  0  0  0  0  0
  1  2  1  0  0  0  0
  1 88  1  0  0  0  0
  1 89  1  0  0  0  0
  1 90  1  0  0  0  0
  2  3  1  0  0  0  0
  2 91  1  0  0  0  0
  2 92  1  0  0  0  0
  3  4  2  0  0  0  0
  3  5  1  0  0  0  0
  5  6  1  0  0  0  0
  5 11  1  0  0  0  0
  6  7  1  0  0  0  0
  6  9  1  0  0  0  0
  6 93  1  6  0  0  0
  7  8  2  0  0  0  0
  7 12  1  0  0  0  0
  9 10  1  0  0  0  0
  9 94  1  0  0  0  0
  9 95  1  0  0  0  0
 10 11  1  0  0  0  0
 10 96  1  0  0  0  0
 10 97  1  0  0  0  0
 11 98  1  0  0  0  0
 11 99  1  0  0  0  0
 12 13  1  0  0  0  0
 12100  1  0  0  0  0
 13 14  1  0  0  0  0
 13 16  1  0  0  0  0
 13101  1  1  0  0  0
 14 15  2  0  0  0  0
 14 23  1  0  0  0  0
 16 17  1  0  0  0  0
 16102  1  0  0  0  0
 16103  1  0  0  0  0
 17 18  1  0  0  0  0
 17104  1  0  0  0  0
 17105  1  0  0  0  0
 18 19  1  0  0  0  0
 18106  1  0  0  0  0
 18107  1  0  0  0  0
 19 20  1  0  0  0  0
 19108  1  0  0  0  0
 20 21  1  0  0  0  0
 20 22  1  0  0  0  0
 21109  1  0  0  0  0
 21110  1  0  0  0  0
 22111  1  0  0  0  0
 22112  1  0  0  0  0
 23 24  1  0  0  0  0
 23113  1  0  0  0  0
 24 25  1  0  0  0  0
 24 27  1  0  0  0  0
 24114  1  6  0  0  0
 25 26  2  0  0  0  0
 25 31  1  0  0  0  0
 27 28  1  0  0  0  0
 27115  1  0  0  0  0
 27116  1  0  0  0  0
 28 29  1  0  0  0  0
 28 30  1  0  0  0  0
 28117  1  0  0  0  0
 29118  1  0  0  0  0
 29119  1  0  0  0  0
 29120  1  0  0  0  0
 30121  1  0  0  0  0
 30122  1  0  0  0  0
 30123  1  0  0  0  0
 31 32  1  0  0  0  0
 31124  1  0  0  0  0
 32 33  1  0  0  0  0
 32 35  1  0  0  0  0
 32125  1  6  0  0  0
 33 34  2  0  0  0  0
 33 37  1  0  0  0  0
 35 36  1  0  0  0  0
 35126  1  0  0  0  0
 35127  1  0  0  0  0
 36128  1  0  0  0  0
 37 38  1  0  0  0  0
 37129  1  0  0  0  0
 38 39  1  0  0  0  0
 38 41  1  0  0  0  0
 38130  1  1  0  0  0
 39 40  2  0  0  0  0
 39 48  1  0  0  0  0
 41 42  1  0  0  0  0
 41131  1  0  0  0  0
 41132  1  0  0  0  0
 42 43  1  0  0  0  0
 42133  1  0  0  0  0
 42134  1  0  0  0  0
 43 44  1  0  0  0  0
 43135  1  0  0  0  0
 43136  1  0  0  0  0
 44 45  1  0  0  0  0
 44137  1  0  0  0  0
 45 46  1  0  0  0  0
 45 47  1  0  0  0  0
 46138  1  0  0  0  0
 46139  1  0  0  0  0
 47140  1  0  0  0  0
 47141  1  0  0  0  0
 48 49  1  0  0  0  0
 48142  1  0  0  0  0
 49 50  1  0  0  0  0
 49 52  1  0  0  0  0
 49143  1  6  0  0  0
 50 51  2  0  0  0  0
 50 56  1  0  0  0  0
 52 53  1  0  0  0  0
 52144  1  0  0  0  0
 52145  1  0  0  0  0
 53 54  1  0  0  0  0
 53 55  1  0  0  0  0
 53146  1  0  0  0  0
 54147  1  0  0  0  0
 54148  1  0  0  0  0
 54149  1  0  0  0  0
 55150  1  0  0  0  0
 55151  1  0  0  0  0
 55152  1  0  0  0  0
 56 57  1  0  0  0  0
 56153  1  0  0  0  0
 57 58  1  0  0  0  0
 57 60  1  0  0  0  0
 57154  1  6  0  0  0
 58 59  2  0  0  0  0
 58 64  1  0  0  0  0
 60 61  1  0  0  0  0
 60155  1  0  0  0  0
 60156  1  0  0  0  0
 61 62  1  0  0  0  0
 61 63  1  0  0  0  0
 61157  1  0  0  0  0
 62158  1  0  0  0  0
 62159  1  0  0  0  0
 62160  1  0  0  0  0
 63161  1  0  0  0  0
 63162  1  0  0  0  0
 63163  1  0  0  0  0
 64 65  1  0  0  0  0
 64164  1  0  0  0  0
 65 66  1  0  0  0  0
 65 68  1  0  0  0  0
 65165  1  1  0  0  0
 66 67  2  0  0  0  0
 66 70  1  0  0  0  0
 68 69  1  0  0  0  0
 68166  1  0  0  0  0
 68167  1  0  0  0  0
 69168  1  0  0  0  0
 70 71  1  0  0  0  0
 70169  1  0  0  0  0
 71 72  1  0  0  0  0
 71 74  1  0  0  0  0
 71170  1  6  0  0  0
 72 73  2  0  0  0  0
 72 82  1  0  0  0  0
 74 75  1  0  0  0  0
 74171  1  0  0  0  0
 74172  1  0  0  0  0
 75 76  2  0  0  0  0
 75 77  1  0  0  0  0
 76 78  1  0  0  0  0
 76173  1  0  0  0  0
 77 79  2  0  0  0  0
 77174  1  0  0  0  0
 78 80  2  0  0  0  0
 78175  1  0  0  0  0
 79 80  1  0  0  0  0
 79176  1  0  0  0  0
 80 81  1  0  0  0  0
 81177  1  0  0  0  0
 82 83  1  0  0  0  0
 82178  1  0  0  0  0
 83 84  1  0  0  0  0
 83 86  1  0  0  0  0
 83179  1  6  0  0  0
 84 85  1  0  0  0  0
 84 87  2  0  0  0  0
 86180  1  0  0  0  0
 86181  1  0  0  0  0
 86182  1  0  0  0  0
M  CHG  2   1   1  85  -1
M  END
