1om9_ligand
 OpenBabel08222323343D

146147  0  0  1  0  0  0  0  0999 V2000
  -19.0050   33.3590   54.0100 N   0  3  0  0  0  0  0  0  0  0  0  0
  -19.3240   32.7100   52.7110 C   0  0  2  0  0  0  0  0  0  0  0  0
  -17.9810   32.2460   52.1960 C   0  0  0  0  0  0  0  0  0  0  0  0
  -17.0970   33.0650   51.9090 O   0  0  0  0  0  0  0  0  0  0  0  0
  -19.9680   33.7090   51.7340 C   0  0  0  0  0  0  0  0  0  0  0  0
  -20.9270   33.0410   50.7180 C   0  0  0  0  0  0  0  0  0  0  0  0
  -20.6300   31.9140   50.1630 O   0  5  0  0  0  0  0  0  0  0  0  0
  -22.0220   33.6160   50.4120 O   0  0  0  0  0  0  0  0  0  0  0  0
  -17.7930   30.9380   52.1040 N   0  0  0  0  0  0  0  0  0  0  0  0
  -16.4550   30.4970   51.8040 C   0  0  2  0  0  0  0  0  0  0  0  0
  -16.2140   30.4960   50.3140 C   0  0  0  0  0  0  0  0  0  0  0  0
  -17.1610   30.5310   49.5110 O   0  0  0  0  0  0  0  0  0  0  0  0
  -16.0840   29.1590   52.4480 C   0  0  0  0  0  0  0  0  0  0  0  0
  -14.9300   29.3020   53.4320 C   0  0  0  0  0  0  0  0  0  0  0  0
  -13.7530   29.3790   52.9860 O   0  5  0  0  0  0  0  0  0  0  0  0
  -15.1180   29.3810   54.6630 O   0  0  0  0  0  0  0  0  0  0  0  0
  -14.9230   30.5080   49.9760 N   0  0  0  0  0  0  0  0  0  0  0  0
  -14.4760   30.7730   48.6280 C   0  0  2  0  0  0  0  0  0  0  0  0
  -14.4430   29.5290   47.7810 C   0  0  0  0  0  0  0  0  0  0  0  0
  -14.2060   28.4090   48.2910 O   0  0  0  0  0  0  0  0  0  0  0  0
  -13.0830   31.4050   48.6490 C   0  0  0  0  0  0  0  0  0  0  0  0
  -13.1100   32.8890   48.7940 C   0  0  0  0  0  0  0  0  0  0  0  0
  -13.2150   33.4730   50.0550 C   0  0  0  0  0  0  0  0  0  0  0  0
  -13.0990   33.7120   47.6520 C   0  0  0  0  0  0  0  0  0  0  0  0
  -13.2470   34.8980   50.1820 C   0  0  0  0  0  0  0  0  0  0  0  0
  -13.1600   35.1090   47.7600 C   0  0  0  0  0  0  0  0  0  0  0  0
  -13.2240   35.7010   49.0260 C   0  0  0  0  0  0  0  0  0  0  0  0
  -14.6870   29.7410   46.4800 N   0  0  0  0  0  0  0  0  0  0  0  0
  -14.4790   28.7440   45.4600 C   0  0  0  0  0  0  0  0  0  0  0  0
  -12.9970   28.5110   45.2020 C   0  0  0  0  0  0  0  0  0  0  0  0
  -12.1270   29.0060   45.9360 O   0  0  0  0  0  0  0  0  0  0  0  0
  -12.7120   27.7170   44.1640 N   0  0  0  0  0  0  0  0  0  0  0  0
  -11.3460   27.4490   43.7580 C   0  0  0  0  0  0  0  0  0  0  0  0
  -10.9020   28.5970   42.8870 C   0  0  0  0  0  0  0  0  0  0  0  0
  -11.7430   29.3900   42.4530 O   0  0  0  0  0  0  0  0  0  0  0  0
   -9.5990   28.6990   42.6570 N   0  0  0  0  0  0  0  0  0  0  0  0
   -9.0660   29.6980   41.7520 C   0  0  2  0  0  0  0  0  0  0  0  0
   -9.2880   29.2510   40.3410 C   0  0  0  0  0  0  0  0  0  0  0  0
   -8.9880   28.1070   39.9820 O   0  0  0  0  0  0  0  0  0  0  0  0
   -7.5640   29.9410   41.9860 C   0  0  0  0  0  0  0  0  0  0  0  0
   -7.3000   30.6400   43.2570 C   0  0  0  0  0  0  0  0  0  0  0  0
   -7.1400   29.9250   44.4330 C   0  0  0  0  0  0  0  0  0  0  0  0
   -7.3410   32.0250   43.3050 C   0  0  0  0  0  0  0  0  0  0  0  0
   -6.9360   30.5990   45.6390 C   0  0  0  0  0  0  0  0  0  0  0  0
   -7.1490   32.6890   44.4700 C   0  0  0  0  0  0  0  0  0  0  0  0
   -6.9480   31.9890   45.6510 C   0  0  0  0  0  0  0  0  0  0  0  0
   -9.8250   30.1870   39.5690 N   0  0  0  0  0  0  0  0  0  0  0  0
   -9.9850   30.0640   38.1500 C   0  0  2  0  0  0  0  0  0  0  0  0
   -8.8600   30.8220   37.4220 C   0  0  0  0  0  0  0  0  0  0  0  0
   -8.3710   31.8510   37.8940 O   0  0  0  0  0  0  0  0  0  0  0  0
  -11.3420   30.6600   37.7500 C   0  0  0  0  0  0  0  0  0  0  0  0
  -12.5770   30.1720   38.5440 C   0  0  0  0  0  0  0  0  0  0  0  0
  -12.8910   28.6730   38.3530 C   0  0  0  0  0  0  0  0  0  0  0  0
  -12.4350   28.0740   37.3560 O   0  5  0  0  0  0  0  0  0  0  0  0
  -13.5550   28.0880   39.2320 O   0  0  0  0  0  0  0  0  0  0  0  0
   -8.4320   30.2990   36.2820 N   0  0  0  0  0  0  0  0  0  0  0  0
   -7.5980   31.0520   35.3580 C   0  0  2  0  0  0  0  0  0  0  0  0
   -8.1860   30.9220   33.9330 C   0  0  0  0  0  0  0  0  0  0  0  0
   -9.2900   30.3990   33.7390 O   0  0  0  0  0  0  0  0  0  0  0  0
   -6.1570   30.5390   35.4200 C   0  0  0  0  0  0  0  0  0  0  0  0
   -7.4700   31.4070   32.9390 N   0  0  0  0  0  0  0  0  0  0  0  0
   -7.9140   31.2410   31.5820 C   0  0  2  0  0  0  0  0  0  0  0  0
   -7.2420   30.0410   30.9470 C   0  0  0  0  0  0  0  0  0  0  0  0
   -6.0910   29.6990   31.3130 O   0  0  0  0  0  0  0  0  0  0  0  0
   -7.6270   32.5150   30.7780 C   0  0  0  0  0  0  0  0  0  0  0  0
   -7.9680   29.4040   29.9990 N   0  0  0  0  0  0  0  0  0  0  0  0
   -7.4110   28.3620   29.1000 C   0  0  2  0  0  0  0  0  0  0  0  0
   -6.1240   28.8690   28.4510 C   0  0  0  0  0  0  0  0  0  0  0  0
   -6.1760   29.7770   27.6340 O   0  0  0  0  0  0  0  0  0  0  0  0
   -8.3800   27.9890   27.9720 C   0  0  0  0  0  0  0  0  0  0  0  0
   -9.6690   27.2750   28.4240 C   0  0  0  0  0  0  0  0  0  0  0  0
  -10.9490   28.0350   28.0240 C   0  0  0  0  0  0  0  0  0  0  0  0
  -11.0380   29.2670   28.3590 O   0  5  0  0  0  0  0  0  0  0  0  0
  -11.8660   27.4120   27.4120 O   0  0  0  0  0  0  0  0  0  0  0  0
   -4.9920   28.3040   28.8540 N   0  0  0  0  0  0  0  0  0  0  0  0
   -3.6980   28.5150   28.2040 C   0  0  2  0  0  0  0  0  0  0  0  0
   -3.4620   27.4210   27.1690 C   0  0  0  0  0  0  0  0  0  0  0  0
   -3.3740   26.2500   27.5620 O   0  0  0  0  0  0  0  0  0  0  0  0
   -2.5340   28.4550   29.2680 C   0  0  2  0  0  0  0  0  0  0  0  0
   -2.7280   29.4580   30.2880 O   0  0  0  0  0  0  0  0  0  0  0  0
   -1.1710   28.8070   28.6260 C   0  0  0  0  0  0  0  0  0  0  0  0
   -3.3534   27.7167   25.8768 O   0  0  0  0  0  0  0  0  0  0  0  0
  -19.8537   33.7032   54.4310 H   0  0  0  0  0  0  0  0  0  0  0  0
  -18.3712   34.1273   53.8551 H   0  0  0  0  0  0  0  0  0  0  0  0
  -18.5739   32.6865   54.6247 H   0  0  0  0  0  0  0  0  0  0  0  0
  -20.0016   31.8562   52.8588 H   0  0  0  0  0  0  0  0  0  0  0  0
  -19.1676   34.2173   51.1763 H   0  0  0  0  0  0  0  0  0  0  0  0
  -20.5366   34.4493   52.3160 H   0  0  0  0  0  0  0  0  0  0  0  0
  -18.5424   30.2892   52.2362 H   0  0  0  0  0  0  0  0  0  0  0  0
  -15.7750   31.2456   52.2366 H   0  0  0  0  0  0  0  0  0  0  0  0
  -15.7913   28.4528   51.6571 H   0  0  0  0  0  0  0  0  0  0  0  0
  -16.9612   28.7668   52.9835 H   0  0  0  0  0  0  0  0  0  0  0  0
  -14.2391   30.3267   50.6827 H   0  0  0  0  0  0  0  0  0  0  0  0
  -15.1788   31.4839   48.1689 H   0  0  0  0  0  0  0  0  0  0  0  0
  -12.5723   31.1556   47.7072 H   0  0  0  0  0  0  0  0  0  0  0  0
  -12.5205   30.9819   49.4943 H   0  0  0  0  0  0  0  0  0  0  0  0
  -13.2724   32.8482   50.9390 H   0  0  0  0  0  0  0  0  0  0  0  0
  -13.0423   33.2570   46.6697 H   0  0  0  0  0  0  0  0  0  0  0  0
  -13.2887   35.3567   51.1633 H   0  0  0  0  0  0  0  0  0  0  0  0
  -13.1576   35.7259   46.8686 H   0  0  0  0  0  0  0  0  0  0  0  0
  -13.2560   36.7807   49.1170 H   0  0  0  0  0  0  0  0  0  0  0  0
  -15.0314   30.6379   46.2026 H   0  0  0  0  0  0  0  0  0  0  0  0
  -14.9554   29.0815   44.5277 H   0  0  0  0  0  0  0  0  0  0  0  0
  -14.9382   27.7988   45.7851 H   0  0  0  0  0  0  0  0  0  0  0  0
  -13.4621   27.2964   43.6536 H   0  0  0  0  0  0  0  0  0  0  0  0
  -11.2998   26.5073   43.1914 H   0  0  0  0  0  0  0  0  0  0  0  0
  -10.6977   27.3762   44.6437 H   0  0  0  0  0  0  0  0  0  0  0  0
   -8.9707   28.0726   43.1184 H   0  0  0  0  0  0  0  0  0  0  0  0
   -9.6028   30.6437   41.9178 H   0  0  0  0  0  0  0  0  0  0  0  0
   -7.1716   30.5511   41.1591 H   0  0  0  0  0  0  0  0  0  0  0  0
   -7.0473   28.9701   42.0027 H   0  0  0  0  0  0  0  0  0  0  0  0
   -7.1732   28.8416   44.4169 H   0  0  0  0  0  0  0  0  0  0  0  0
   -7.5296   32.5851   42.3963 H   0  0  0  0  0  0  0  0  0  0  0  0
   -6.7701   30.0444   46.5555 H   0  0  0  0  0  0  0  0  0  0  0  0
   -7.1524   33.7730   44.4796 H   0  0  0  0  0  0  0  0  0  0  0  0
   -6.8006   32.5252   46.5815 H   0  0  0  0  0  0  0  0  0  0  0  0
  -10.1377   31.0312   40.0045 H   0  0  0  0  0  0  0  0  0  0  0  0
   -9.9507   29.0013   37.8679 H   0  0  0  0  0  0  0  0  0  0  0  0
  -11.5116   30.4206   36.6899 H   0  0  0  0  0  0  0  0  0  0  0  0
  -11.2762   31.7510   37.8736 H   0  0  0  0  0  0  0  0  0  0  0  0
  -13.4514   30.7534   38.2163 H   0  0  0  0  0  0  0  0  0  0  0  0
  -12.3953   30.3542   39.6135 H   0  0  0  0  0  0  0  0  0  0  0  0
   -8.6894   29.3608   36.0506 H   0  0  0  0  0  0  0  0  0  0  0  0
   -7.6053   32.1128   35.6488 H   0  0  0  0  0  0  0  0  0  0  0  0
   -5.5330   31.1129   34.7191 H   0  0  0  0  0  0  0  0  0  0  0  0
   -6.1345   29.4745   35.1438 H   0  0  0  0  0  0  0  0  0  0  0  0
   -5.7679   30.6611   36.4416 H   0  0  0  0  0  0  0  0  0  0  0  0
   -6.6161   31.8915   33.1290 H   0  0  0  0  0  0  0  0  0  0  0  0
   -9.0004   31.0684   31.5872 H   0  0  0  0  0  0  0  0  0  0  0  0
   -7.9696   32.3794   29.7416 H   0  0  0  0  0  0  0  0  0  0  0  0
   -6.5456   32.7161   30.7833 H   0  0  0  0  0  0  0  0  0  0  0  0
   -8.1600   33.3632   31.2324 H   0  0  0  0  0  0  0  0  0  0  0  0
   -8.9324   29.6485   29.8985 H   0  0  0  0  0  0  0  0  0  0  0  0
   -7.1927   27.4643   29.6971 H   0  0  0  0  0  0  0  0  0  0  0  0
   -7.8499   27.3246   27.2737 H   0  0  0  0  0  0  0  0  0  0  0  0
   -8.6681   28.9139   27.4510 H   0  0  0  0  0  0  0  0  0  0  0  0
   -9.6487   27.1744   29.5192 H   0  0  0  0  0  0  0  0  0  0  0  0
   -9.6962   26.2760   27.9644 H   0  0  0  0  0  0  0  0  0  0  0  0
   -5.0257   27.6983   29.6490 H   0  0  0  0  0  0  0  0  0  0  0  0
   -3.6949   29.4982   27.7108 H   0  0  0  0  0  0  0  0  0  0  0  0
   -2.5008   27.4503   29.7146 H   0  0  0  0  0  0  0  0  0  0  0  0
   -3.5549   29.3034   30.7294 H   0  0  0  0  0  0  0  0  0  0  0  0
   -0.3817   28.7567   29.3905 H   0  0  0  0  0  0  0  0  0  0  0  0
   -1.2136   29.8242   28.2095 H   0  0  0  0  0  0  0  0  0  0  0  0
   -0.9485   28.0904   27.8217 H   0  0  0  0  0  0  0  0  0  0  0  0
   -4.0353   27.2670   25.3918 H   0  0  0  0  0  0  0  0  0  0  0  0
  1 83  1  0  0  0  0
  1 84  1  0  0  0  0
  1 85  1  0  0  0  0
  2  1  1  0  0  0  0
  2  5  1  0  0  0  0
  2 86  1  1  0  0  0
  3  2  1  0  0  0  0
  3  4  2  0  0  0  0
  5  6  1  0  0  0  0
  5 87  1  0  0  0  0
  5 88  1  0  0  0  0
  6  7  1  0  0  0  0
  6  8  2  0  0  0  0
  9  3  1  0  0  0  0
  9 89  1  0  0  0  0
 10  9  1  0  0  0  0
 10 13  1  0  0  0  0
 10 90  1  1  0  0  0
 11 10  1  0  0  0  0
 11 12  2  0  0  0  0
 13 14  1  0  0  0  0
 13 91  1  0  0  0  0
 13 92  1  0  0  0  0
 14 15  1  0  0  0  0
 14 16  2  0  0  0  0
 17 11  1  0  0  0  0
 17 93  1  0  0  0  0
 18 17  1  0  0  0  0
 18 21  1  0  0  0  0
 18 94  1  6  0  0  0
 19 18  1  0  0  0  0
 19 20  2  0  0  0  0
 21 22  1  0  0  0  0
 21 95  1  0  0  0  0
 21 96  1  0  0  0  0
 22 23  2  0  0  0  0
 22 24  1  0  0  0  0
 23 25  1  0  0  0  0
 23 97  1  0  0  0  0
 24 26  2  0  0  0  0
 24 98  1  0  0  0  0
 25 27  2  0  0  0  0
 25 99  1  0  0  0  0
 26 27  1  0  0  0  0
 26100  1  0  0  0  0
 27101  1  0  0  0  0
 28 19  1  0  0  0  0
 28102  1  0  0  0  0
 29 28  1  0  0  0  0
 29103  1  0  0  0  0
 29104  1  0  0  0  0
 30 29  1  0  0  0  0
 30 31  2  0  0  0  0
 32 30  1  0  0  0  0
 32105  1  0  0  0  0
 33 32  1  0  0  0  0
 33106  1  0  0  0  0
 33107  1  0  0  0  0
 34 33  1  0  0  0  0
 34 35  2  0  0  0  0
 36 34  1  0  0  0  0
 36108  1  0  0  0  0
 37 36  1  0  0  0  0
 37 40  1  0  0  0  0
 37109  1  1  0  0  0
 38 37  1  0  0  0  0
 38 39  2  0  0  0  0
 40 41  1  0  0  0  0
 40110  1  0  0  0  0
 40111  1  0  0  0  0
 41 42  2  0  0  0  0
 41 43  1  0  0  0  0
 42 44  1  0  0  0  0
 42112  1  0  0  0  0
 43 45  2  0  0  0  0
 43113  1  0  0  0  0
 44 46  2  0  0  0  0
 44114  1  0  0  0  0
 45 46  1  0  0  0  0
 45115  1  0  0  0  0
 46116  1  0  0  0  0
 47 38  1  0  0  0  0
 47117  1  0  0  0  0
 48 47  1  0  0  0  0
 48 51  1  0  0  0  0
 48118  1  6  0  0  0
 49 48  1  0  0  0  0
 49 50  2  0  0  0  0
 51 52  1  0  0  0  0
 51119  1  0  0  0  0
 51120  1  0  0  0  0
 52 53  1  0  0  0  0
 52121  1  0  0  0  0
 52122  1  0  0  0  0
 53 55  2  0  0  0  0
 53 54  1  0  0  0  0
 56 49  1  0  0  0  0
 56123  1  0  0  0  0
 57 56  1  0  0  0  0
 57 60  1  0  0  0  0
 57124  1  1  0  0  0
 58 57  1  0  0  0  0
 58 59  2  0  0  0  0
 60125  1  0  0  0  0
 60126  1  0  0  0  0
 60127  1  0  0  0  0
 61 58  1  0  0  0  0
 61128  1  0  0  0  0
 62 61  1  0  0  0  0
 62 65  1  0  0  0  0
 62129  1  1  0  0  0
 63 62  1  0  0  0  0
 63 64  2  0  0  0  0
 65130  1  0  0  0  0
 65131  1  0  0  0  0
 65132  1  0  0  0  0
 66 63  1  0  0  0  0
 66133  1  0  0  0  0
 67 66  1  0  0  0  0
 67 70  1  0  0  0  0
 67134  1  1  0  0  0
 68 67  1  0  0  0  0
 68 69  2  0  0  0  0
 68 75  1  0  0  0  0
 70 71  1  0  0  0  0
 70135  1  0  0  0  0
 70136  1  0  0  0  0
 71 72  1  0  0  0  0
 71137  1  0  0  0  0
 71138  1  0  0  0  0
 72 74  2  0  0  0  0
 72 73  1  0  0  0  0
 75 76  1  0  0  0  0
 75139  1  0  0  0  0
 76 79  1  0  0  0  0
 76 77  1  0  0  0  0
 76140  1  6  0  0  0
 77 78  2  0  0  0  0
 77 82  1  0  0  0  0
 79 81  1  0  0  0  0
 79 80  1  0  0  0  0
 79141  1  1  0  0  0
 80142  1  0  0  0  0
 81143  1  0  0  0  0
 81144  1  0  0  0  0
 81145  1  0  0  0  0
 82146  1  0  0  0  0
M  CHG  5   1   1   7  -1  15  -1  54  -1  73  -1
M  END
