1ow8_ligand
 OpenBabel08222323343D

208207  0  0  1  0  0  0  0  0999 V2000
   24.5520   35.6260   19.7040 N   0  3  0  0  0  0  0  0  0  0  0  0
   24.3570   34.2780   20.2620 C   0  0  2  0  0  0  0  0  0  0  0  0
   24.8340   33.1680   19.3390 C   0  0  0  0  0  0  0  0  0  0  0  0
   25.0950   32.0740   19.8420 O   0  0  0  0  0  0  0  0  0  0  0  0
   22.8750   33.9620   20.5450 C   0  0  0  0  0  0  0  0  0  0  0  0
   22.5020   33.0780   21.7360 C   0  0  0  0  0  0  0  0  0  0  0  0
   23.5560   33.2730   22.7970 C   0  0  0  0  0  0  0  0  0  0  0  0
   21.1260   33.4160   22.3070 C   0  0  0  0  0  0  0  0  0  0  0  0
   24.7970   33.3830   18.0200 N   0  0  0  0  0  0  0  0  0  0  0  0
   25.0550   32.2840   17.0890 C   0  0  2  0  0  0  0  0  0  0  0  0
   26.5080   31.9070   17.3990 C   0  0  0  0  0  0  0  0  0  0  0  0
   26.7930   30.7050   17.5460 O   0  0  0  0  0  0  0  0  0  0  0  0
   24.6800   32.5760   15.6110 C   0  0  0  0  0  0  0  0  0  0  0  0
   25.6600   32.1850   14.6420 O   0  0  0  0  0  0  0  0  0  0  0  0
   27.3190   32.8840   17.8190 N   0  0  0  0  0  0  0  0  0  0  0  0
   28.7260   32.6560   18.2190 C   0  0  2  0  0  0  0  0  0  0  0  0
   28.7900   31.8080   19.5300 C   0  0  0  0  0  0  0  0  0  0  0  0
   29.5580   30.8370   19.6390 O   0  0  0  0  0  0  0  0  0  0  0  0
   29.4300   34.0250   18.3900 C   0  0  0  0  0  0  0  0  0  0  0  0
   29.2090   34.9140   17.1630 C   0  0  0  0  0  0  0  0  0  0  0  0
   30.4430   35.0210   16.2600 C   0  0  0  0  0  0  0  0  0  0  0  0
   31.4980   35.4880   16.7490 O   0  5  0  0  0  0  0  0  0  0  0  0
   30.3590   34.6640   15.0610 O   0  0  0  0  0  0  0  0  0  0  0  0
   27.9360   32.1240   20.5100 N   0  0  0  0  0  0  0  0  0  0  0  0
   27.9030   31.3790   21.7720 C   0  0  2  0  0  0  0  0  0  0  0  0
   27.4810   29.9480   21.3950 C   0  0  0  0  0  0  0  0  0  0  0  0
   27.9600   28.9530   21.9420 O   0  0  0  0  0  0  0  0  0  0  0  0
   26.8730   31.9870   22.7390 C   0  0  0  0  0  0  0  0  0  0  0  0
   26.6600   31.2720   24.0610 C   0  0  0  0  0  0  0  0  0  0  0  0
   27.9530   31.3270   24.7920 C   0  0  0  0  0  0  0  0  0  0  0  0
   25.5770   31.9320   24.8720 C   0  0  0  0  0  0  0  0  0  0  0  0
   26.5500   29.8560   20.4370 N   0  0  0  0  0  0  0  0  0  0  0  0
   26.0300   28.5570   19.9530 C   0  0  2  0  0  0  0  0  0  0  0  0
   27.0950   27.7610   19.1840 C   0  0  0  0  0  0  0  0  0  0  0  0
   27.1080   26.5220   19.2010 O   0  0  0  0  0  0  0  0  0  0  0  0
   24.7770   28.7480   19.0560 C   0  0  0  0  0  0  0  0  0  0  0  0
   23.5730   29.3010   19.8190 C   0  0  0  0  0  0  0  0  0  0  0  0
   23.1250   28.6650   20.8220 O   0  5  0  0  0  0  0  0  0  0  0  0
   23.0760   30.3770   19.4060 O   0  0  0  0  0  0  0  0  0  0  0  0
   27.9950   28.4950   18.5230 N   0  0  0  0  0  0  0  0  0  0  0  0
   29.0850   27.8860   17.7630 C   0  0  2  0  0  0  0  0  0  0  0  0
   30.1140   27.2630   18.7060 C   0  0  0  0  0  0  0  0  0  0  0  0
   30.8300   26.3170   18.3430 O   0  0  0  0  0  0  0  0  0  0  0  0
   29.7730   28.9240   16.8530 C   0  0  0  0  0  0  0  0  0  0  0  0
   29.0810   29.1390   15.5190 C   0  0  0  0  0  0  0  0  0  0  0  0
   30.0680   29.6500   14.5080 C   0  0  0  0  0  0  0  0  0  0  0  0
   29.4070   30.4270   13.4700 N   0  0  0  0  0  0  0  0  0  0  0  0
   29.8290   31.6160   13.0570 C   0  0  0  0  0  3  0  0  0  0  0  0
   30.9280   32.1560   13.5850 N   0  0  0  0  0  0  0  0  0  0  0  0
   29.1550   32.2750   12.1220 N   0  0  0  0  0  0  0  0  0  0  0  0
   30.1680   27.8090   19.9210 N   0  0  0  0  0  0  0  0  0  0  0  0
   31.0610   27.3340   20.9540 C   0  0  2  0  0  0  0  0  0  0  0  0
   30.3620   26.0780   21.4180 C   0  0  0  0  0  0  0  0  0  0  0  0
   30.8580   24.9730   21.2260 O   0  0  0  0  0  0  0  0  0  0  0  0
   31.1380   28.3660   22.0760 C   0  0  0  0  0  0  0  0  0  0  0  0
   31.7250   29.6890   21.6040 C   0  0  0  0  0  0  0  0  0  0  0  0
   31.1400   30.7830   22.4320 C   0  0  0  0  0  0  0  0  0  0  0  0
   33.2480   29.6660   21.7130 C   0  0  0  0  0  0  0  0  0  0  0  0
   29.1790   26.2530   21.9990 N   0  0  0  0  0  0  0  0  0  0  0  0
   28.3960   25.1220   22.4680 C   0  0  2  0  0  0  0  0  0  0  0  0
   28.5330   23.9180   21.5180 C   0  0  0  0  0  0  0  0  0  0  0  0
   28.6880   22.7690   21.9610 O   0  0  0  0  0  0  0  0  0  0  0  0
   26.9360   25.5490   22.5840 C   0  0  0  0  0  0  0  0  0  0  0  0
   26.7290   26.6440   23.6120 C   0  0  0  0  0  0  0  0  0  0  0  0
   25.3700   27.2260   23.4620 C   0  0  0  0  0  0  0  0  0  0  0  0
   26.9130   26.0600   24.9870 C   0  0  0  0  0  0  0  0  0  0  0  0
   28.4910   24.1830   20.2080 N   0  0  0  0  0  0  0  0  0  0  0  0
   28.6140   23.1110   19.2080 C   0  0  2  0  0  0  0  0  0  0  0  0
   29.9620   22.3600   19.3460 C   0  0  0  0  0  0  0  0  0  0  0  0
   29.9980   21.1270   19.1940 O   0  0  0  0  0  0  0  0  0  0  0  0
   28.4620   23.6590   17.7670 C   0  0  0  0  0  0  0  0  0  0  0  0
   27.0910   24.0440   17.2100 C   0  0  0  0  0  0  0  0  0  0  0  0
   27.2070   24.2300   15.7000 C   0  0  0  0  0  0  0  0  0  0  0  0
   26.0900   22.9300   17.5160 C   0  0  0  0  0  0  0  0  0  0  0  0
   31.0350   23.0870   19.6160 N   0  0  0  0  0  0  0  0  0  0  0  0
   32.3820   22.5060   19.7980 C   0  0  2  0  0  0  0  0  0  0  0  0
   32.4400   21.5030   20.9670 C   0  0  0  0  0  0  0  0  0  0  0  0
   33.3050   20.6140   21.0000 O   0  0  0  0  0  0  0  0  0  0  0  0
   33.4070   23.6150   20.0450 C   0  0  0  0  0  0  0  0  0  0  0  0
   34.0210   24.1880   18.7980 C   0  0  0  0  0  0  0  0  0  0  0  0
   34.8690   25.4320   19.0610 C   0  0  0  0  0  0  0  0  0  0  0  0
   34.8280   25.9580   20.1920 O   0  5  0  0  0  0  0  0  0  0  0  0
   35.5660   25.8900   18.1270 O   0  0  0  0  0  0  0  0  0  0  0  0
   31.5180   21.6550   21.9080 N   0  0  0  0  0  0  0  0  0  0  0  0
   31.4700   20.7970   23.0910 C   0  0  2  0  0  0  0  0  0  0  0  0
   30.8420   19.4160   22.9370 C   0  0  0  0  0  0  0  0  0  0  0  0
   31.4030   18.4310   23.4400 O   0  0  0  0  0  0  0  0  0  0  0  0
   30.7770   21.5330   24.2470 C   0  0  0  0  0  0  0  0  0  0  0  0
   31.6280   22.5020   25.0380 C   0  0  0  0  0  0  0  0  0  0  0  0
   30.7540   23.2170   25.9950 C   0  0  0  0  0  0  0  0  0  0  0  0
   32.7180   21.7460   25.7530 C   0  0  0  0  0  0  0  0  0  0  0  0
   29.7100   19.3340   22.2580 N   0  0  0  0  0  0  0  0  0  0  0  0
   29.0260   18.0540   22.0870 C   0  0  2  0  0  0  0  0  0  0  0  0
   29.9180   16.8150   21.9360 C   0  0  0  0  0  0  0  0  0  0  0  0
   29.7570   15.8600   22.7670 O   0  5  0  0  0  0  0  0  0  0  0  0
   28.0750   18.1440   20.9090 C   0  0  0  0  0  0  0  0  0  0  0  0
   27.0410   19.2330   21.1000 C   0  0  0  0  0  0  0  0  0  0  0  0
   26.4830   19.3860   22.2040 O   0  0  0  0  0  0  0  0  0  0  0  0
   26.7630   19.9940   20.0270 N   0  0  0  0  0  0  0  0  0  0  0  0
   30.7460   16.8430   20.9740 O   0  0  0  0  0  0  0  0  0  0  0  0
   24.2172   36.3132   20.3610 H   0  0  0  0  0  0  0  0  0  0  0  0
   24.0394   35.7095   18.8401 H   0  0  0  0  0  0  0  0  0  0  0  0
   25.5329   35.7785   19.5288 H   0  0  0  0  0  0  0  0  0  0  0  0
   24.9219   34.2255   21.2044 H   0  0  0  0  0  0  0  0  0  0  0  0
   22.4765   33.4699   19.6456 H   0  0  0  0  0  0  0  0  0  0  0  0
   22.3658   34.9259   20.6916 H   0  0  0  0  0  0  0  0  0  0  0  0
   22.4971   32.0267   21.4124 H   0  0  0  0  0  0  0  0  0  0  0  0
   23.3167   32.6489   23.6706 H   0  0  0  0  0  0  0  0  0  0  0  0
   23.5819   34.3307   23.0981 H   0  0  0  0  0  0  0  0  0  0  0  0
   24.5381   32.9816   22.3962 H   0  0  0  0  0  0  0  0  0  0  0  0
   20.3611   33.2723   21.5297 H   0  0  0  0  0  0  0  0  0  0  0  0
   21.1154   34.4635   22.6425 H   0  0  0  0  0  0  0  0  0  0  0  0
   20.9106   32.7556   23.1599 H   0  0  0  0  0  0  0  0  0  0  0  0
   24.5926   34.2968   17.6689 H   0  0  0  0  0  0  0  0  0  0  0  0
   24.4236   31.4327   17.3832 H   0  0  0  0  0  0  0  0  0  0  0  0
   24.5152   33.6589   15.5097 H   0  0  0  0  0  0  0  0  0  0  0  0
   23.7462   32.0403   15.3851 H   0  0  0  0  0  0  0  0  0  0  0  0
   25.3467   32.4009   13.7715 H   0  0  0  0  0  0  0  0  0  0  0  0
   26.9569   33.8150   17.8652 H   0  0  0  0  0  0  0  0  0  0  0  0
   29.2359   32.0969   17.4206 H   0  0  0  0  0  0  0  0  0  0  0  0
   30.5092   33.8600   18.5247 H   0  0  0  0  0  0  0  0  0  0  0  0
   29.0227   34.5303   19.2781 H   0  0  0  0  0  0  0  0  0  0  0  0
   28.9402   35.9235   17.5074 H   0  0  0  0  0  0  0  0  0  0  0  0
   28.3804   34.4950   16.5732 H   0  0  0  0  0  0  0  0  0  0  0  0
   27.3041   32.8878   20.3783 H   0  0  0  0  0  0  0  0  0  0  0  0
   28.8966   31.3788   22.2439 H   0  0  0  0  0  0  0  0  0  0  0  0
   25.9049   32.0148   22.2175 H   0  0  0  0  0  0  0  0  0  0  0  0
   27.1969   33.0134   22.9658 H   0  0  0  0  0  0  0  0  0  0  0  0
   26.3797   30.2248   23.8744 H   0  0  0  0  0  0  0  0  0  0  0  0
   27.8478   30.8188   25.7619 H   0  0  0  0  0  0  0  0  0  0  0  0
   28.2365   32.3769   24.9571 H   0  0  0  0  0  0  0  0  0  0  0  0
   28.7316   30.8260   24.1981 H   0  0  0  0  0  0  0  0  0  0  0  0
   24.6261   31.8849   24.3210 H   0  0  0  0  0  0  0  0  0  0  0  0
   25.8440   32.9836   25.0534 H   0  0  0  0  0  0  0  0  0  0  0  0
   25.4695   31.4098   25.8341 H   0  0  0  0  0  0  0  0  0  0  0  0
   26.1919   30.6976   20.0326 H   0  0  0  0  0  0  0  0  0  0  0  0
   25.7343   27.9673   20.8332 H   0  0  0  0  0  0  0  0  0  0  0  0
   24.5019   27.7734   18.6264 H   0  0  0  0  0  0  0  0  0  0  0  0
   25.0296   29.4477   18.2457 H   0  0  0  0  0  0  0  0  0  0  0  0
   27.9205   29.4919   18.5491 H   0  0  0  0  0  0  0  0  0  0  0  0
   28.6636   27.0916   17.1295 H   0  0  0  0  0  0  0  0  0  0  0  0
   30.8006   28.5838   16.6574 H   0  0  0  0  0  0  0  0  0  0  0  0
   29.8003   29.8857   17.3862 H   0  0  0  0  0  0  0  0  0  0  0  0
   28.2715   29.8735   15.6421 H   0  0  0  0  0  0  0  0  0  0  0  0
   28.6603   28.1851   15.1683 H   0  0  0  0  0  0  0  0  0  0  0  0
   30.5808   28.7947   14.0437 H   0  0  0  0  0  0  0  0  0  0  0  0
   30.8057   30.2872   15.0176 H   0  0  0  0  0  0  0  0  0  0  0  0
   28.5634   30.0317   13.0306 H   0  0  0  0  0  0  0  0  0  0  0  0
   31.2540   33.0786   13.2634 H   0  0  0  0  0  0  0  0  0  0  0  0
   31.4508   31.6505   14.3144 H   0  0  0  0  0  0  0  0  0  0  0  0
   28.3056   31.8615   11.7115 H   0  0  0  0  0  0  0  0  0  0  0  0
   29.4815   33.1997   11.8071 H   0  0  0  0  0  0  0  0  0  0  0  0
   29.5652   28.5799   20.1266 H   0  0  0  0  0  0  0  0  0  0  0  0
   32.0671   27.1200   20.5642 H   0  0  0  0  0  0  0  0  0  0  0  0
   31.7705   27.9658   22.8821 H   0  0  0  0  0  0  0  0  0  0  0  0
   30.1235   28.5464   22.4611 H   0  0  0  0  0  0  0  0  0  0  0  0
   31.4511   29.8508   20.5510 H   0  0  0  0  0  0  0  0  0  0  0  0
   31.5520   31.7496   22.1064 H   0  0  0  0  0  0  0  0  0  0  0  0
   31.3898   30.6157   23.4901 H   0  0  0  0  0  0  0  0  0  0  0  0
   30.0468   30.7906   22.3101 H   0  0  0  0  0  0  0  0  0  0  0  0
   33.6477   28.8503   21.0926 H   0  0  0  0  0  0  0  0  0  0  0  0
   33.5382   29.5050   22.7617 H   0  0  0  0  0  0  0  0  0  0  0  0
   33.6552   30.6261   21.3631 H   0  0  0  0  0  0  0  0  0  0  0  0
   28.8215   27.1796   22.1154 H   0  0  0  0  0  0  0  0  0  0  0  0
   28.7614   24.8251   23.4621 H   0  0  0  0  0  0  0  0  0  0  0  0
   26.3352   24.6747   22.8747 H   0  0  0  0  0  0  0  0  0  0  0  0
   26.5976   25.9171   21.6042 H   0  0  0  0  0  0  0  0  0  0  0  0
   27.4754   27.4365   23.4547 H   0  0  0  0  0  0  0  0  0  0  0  0
   25.2263   28.0193   24.2103 H   0  0  0  0  0  0  0  0  0  0  0  0
   24.6157   26.4396   23.6120 H   0  0  0  0  0  0  0  0  0  0  0  0
   25.2620   27.6500   22.4528 H   0  0  0  0  0  0  0  0  0  0  0  0
   27.9245   25.6364   25.0731 H   0  0  0  0  0  0  0  0  0  0  0  0
   26.1683   25.2673   25.1514 H   0  0  0  0  0  0  0  0  0  0  0  0
   26.7808   26.8495   25.7414 H   0  0  0  0  0  0  0  0  0  0  0  0
   28.3737   25.1279   19.9022 H   0  0  0  0  0  0  0  0  0  0  0  0
   27.8020   22.3907   19.3865 H   0  0  0  0  0  0  0  0  0  0  0  0
   28.8669   22.8879   17.0951 H   0  0  0  0  0  0  0  0  0  0  0  0
   29.0878   24.5617   17.7084 H   0  0  0  0  0  0  0  0  0  0  0  0
   26.7516   24.9820   17.6736 H   0  0  0  0  0  0  0  0  0  0  0  0
   26.2254   24.5075   15.2883 H   0  0  0  0  0  0  0  0  0  0  0  0
   27.5452   23.2900   15.2396 H   0  0  0  0  0  0  0  0  0  0  0  0
   27.9339   25.0267   15.4834 H   0  0  0  0  0  0  0  0  0  0  0  0
   26.0090   22.7988   18.6051 H   0  0  0  0  0  0  0  0  0  0  0  0
   26.4350   21.9911   17.0583 H   0  0  0  0  0  0  0  0  0  0  0  0
   25.1057   23.1984   17.1049 H   0  0  0  0  0  0  0  0  0  0  0  0
   30.9290   24.0777   19.7010 H   0  0  0  0  0  0  0  0  0  0  0  0
   32.6516   21.9746   18.8734 H   0  0  0  0  0  0  0  0  0  0  0  0
   34.2151   23.2031   20.6674 H   0  0  0  0  0  0  0  0  0  0  0  0
   32.9062   24.4307   20.5870 H   0  0  0  0  0  0  0  0  0  0  0  0
   33.2127   24.4567   18.1020 H   0  0  0  0  0  0  0  0  0  0  0  0
   34.6604   23.4199   18.3384 H   0  0  0  0  0  0  0  0  0  0  0  0
   30.8350   22.3782   21.8054 H   0  0  0  0  0  0  0  0  0  0  0  0
   32.5166   20.6265   23.3834 H   0  0  0  0  0  0  0  0  0  0  0  0
   30.3974   20.7738   24.9466 H   0  0  0  0  0  0  0  0  0  0  0  0
   29.9325   22.0976   23.8250 H   0  0  0  0  0  0  0  0  0  0  0  0
   32.0878   23.2308   24.3543 H   0  0  0  0  0  0  0  0  0  0  0  0
   31.3557   23.9276   26.5807 H   0  0  0  0  0  0  0  0  0  0  0  0
   30.2813   22.4910   26.6729 H   0  0  0  0  0  0  0  0  0  0  0  0
   29.9755   23.7638   25.4427 H   0  0  0  0  0  0  0  0  0  0  0  0
   33.3484   21.2270   25.0159 H   0  0  0  0  0  0  0  0  0  0  0  0
   32.2672   21.0088   26.4337 H   0  0  0  0  0  0  0  0  0  0  0  0
   33.3342   22.4503   26.3312 H   0  0  0  0  0  0  0  0  0  0  0  0
   29.3162   20.1604   21.8555 H   0  0  0  0  0  0  0  0  0  0  0  0
   28.4252   17.8969   22.9949 H   0  0  0  0  0  0  0  0  0  0  0  0
   27.5586   17.1796   20.7944 H   0  0  0  0  0  0  0  0  0  0  0  0
   28.6549   18.3599   19.9995 H   0  0  0  0  0  0  0  0  0  0  0  0
   26.0877   20.7283   20.0962 H   0  0  0  0  0  0  0  0  0  0  0  0
   27.2315   19.8257   19.1597 H   0  0  0  0  0  0  0  0  0  0  0  0
  1  2  1  0  0  0  0
  1101  1  0  0  0  0
  1102  1  0  0  0  0
  1103  1  0  0  0  0
  2  3  1  0  0  0  0
  2  5  1  0  0  0  0
  2104  1  1  0  0  0
  3  4  2  0  0  0  0
  3  9  1  0  0  0  0
  5  6  1  0  0  0  0
  5105  1  0  0  0  0
  5106  1  0  0  0  0
  6  7  1  0  0  0  0
  6  8  1  0  0  0  0
  6107  1  0  0  0  0
  7108  1  0  0  0  0
  7109  1  0  0  0  0
  7110  1  0  0  0  0
  8111  1  0  0  0  0
  8112  1  0  0  0  0
  8113  1  0  0  0  0
  9 10  1  0  0  0  0
  9114  1  0  0  0  0
 10 11  1  0  0  0  0
 10 13  1  0  0  0  0
 10115  1  1  0  0  0
 11 12  2  0  0  0  0
 11 15  1  0  0  0  0
 13 14  1  0  0  0  0
 13116  1  0  0  0  0
 13117  1  0  0  0  0
 14118  1  0  0  0  0
 15 16  1  0  0  0  0
 15119  1  0  0  0  0
 16 17  1  0  0  0  0
 16 19  1  0  0  0  0
 16120  1  6  0  0  0
 17 18  2  0  0  0  0
 17 24  1  0  0  0  0
 19 20  1  0  0  0  0
 19121  1  0  0  0  0
 19122  1  0  0  0  0
 20 21  1  0  0  0  0
 20123  1  0  0  0  0
 20124  1  0  0  0  0
 21 22  1  0  0  0  0
 21 23  2  0  0  0  0
 24 25  1  0  0  0  0
 24125  1  0  0  0  0
 25 26  1  0  0  0  0
 25 28  1  0  0  0  0
 25126  1  1  0  0  0
 26 27  2  0  0  0  0
 26 32  1  0  0  0  0
 28 29  1  0  0  0  0
 28127  1  0  0  0  0
 28128  1  0  0  0  0
 29 30  1  0  0  0  0
 29 31  1  0  0  0  0
 29129  1  0  0  0  0
 30130  1  0  0  0  0
 30131  1  0  0  0  0
 30132  1  0  0  0  0
 31133  1  0  0  0  0
 31134  1  0  0  0  0
 31135  1  0  0  0  0
 32 33  1  0  0  0  0
 32136  1  0  0  0  0
 33 34  1  0  0  0  0
 33 36  1  0  0  0  0
 33137  1  1  0  0  0
 34 35  2  0  0  0  0
 34 40  1  0  0  0  0
 36 37  1  0  0  0  0
 36138  1  0  0  0  0
 36139  1  0  0  0  0
 37 38  1  0  0  0  0
 37 39  2  0  0  0  0
 40 41  1  0  0  0  0
 40140  1  0  0  0  0
 41 42  1  0  0  0  0
 41 44  1  0  0  0  0
 41141  1  6  0  0  0
 42 43  2  0  0  0  0
 42 51  1  0  0  0  0
 44 45  1  0  0  0  0
 44142  1  0  0  0  0
 44143  1  0  0  0  0
 45 46  1  0  0  0  0
 45144  1  0  0  0  0
 45145  1  0  0  0  0
 46 47  1  0  0  0  0
 46146  1  0  0  0  0
 46147  1  0  0  0  0
 47 48  1  0  0  0  0
 47148  1  0  0  0  0
 48 49  1  0  0  0  0
 48 50  1  0  0  0  0
 49149  1  0  0  0  0
 49150  1  0  0  0  0
 50151  1  0  0  0  0
 50152  1  0  0  0  0
 51 52  1  0  0  0  0
 51153  1  0  0  0  0
 52 53  1  0  0  0  0
 52 55  1  0  0  0  0
 52154  1  6  0  0  0
 53 54  2  0  0  0  0
 53 59  1  0  0  0  0
 55 56  1  0  0  0  0
 55155  1  0  0  0  0
 55156  1  0  0  0  0
 56 57  1  0  0  0  0
 56 58  1  0  0  0  0
 56157  1  0  0  0  0
 57158  1  0  0  0  0
 57159  1  0  0  0  0
 57160  1  0  0  0  0
 58161  1  0  0  0  0
 58162  1  0  0  0  0
 58163  1  0  0  0  0
 59 60  1  0  0  0  0
 59164  1  0  0  0  0
 60 61  1  0  0  0  0
 60 63  1  0  0  0  0
 60165  1  1  0  0  0
 61 62  2  0  0  0  0
 61 67  1  0  0  0  0
 63 64  1  0  0  0  0
 63166  1  0  0  0  0
 63167  1  0  0  0  0
 64 65  1  0  0  0  0
 64 66  1  0  0  0  0
 64168  1  0  0  0  0
 65169  1  0  0  0  0
 65170  1  0  0  0  0
 65171  1  0  0  0  0
 66172  1  0  0  0  0
 66173  1  0  0  0  0
 66174  1  0  0  0  0
 67 68  1  0  0  0  0
 67175  1  0  0  0  0
 68 69  1  0  0  0  0
 68 71  1  0  0  0  0
 68176  1  1  0  0  0
 69 70  2  0  0  0  0
 69 75  1  0  0  0  0
 71 72  1  0  0  0  0
 71177  1  0  0  0  0
 71178  1  0  0  0  0
 72 73  1  0  0  0  0
 72 74  1  0  0  0  0
 72179  1  0  0  0  0
 73180  1  0  0  0  0
 73181  1  0  0  0  0
 73182  1  0  0  0  0
 74183  1  0  0  0  0
 74184  1  0  0  0  0
 74185  1  0  0  0  0
 75 76  1  0  0  0  0
 75186  1  0  0  0  0
 76 77  1  0  0  0  0
 76 79  1  0  0  0  0
 76187  1  6  0  0  0
 77 78  2  0  0  0  0
 77 84  1  0  0  0  0
 79 80  1  0  0  0  0
 79188  1  0  0  0  0
 79189  1  0  0  0  0
 80 81  1  0  0  0  0
 80190  1  0  0  0  0
 80191  1  0  0  0  0
 81 82  1  0  0  0  0
 81 83  2  0  0  0  0
 84 85  1  0  0  0  0
 84192  1  0  0  0  0
 85 86  1  0  0  0  0
 85 88  1  0  0  0  0
 85193  1  1  0  0  0
 86 87  2  0  0  0  0
 86 92  1  0  0  0  0
 88 89  1  0  0  0  0
 88194  1  0  0  0  0
 88195  1  0  0  0  0
 89 90  1  0  0  0  0
 89 91  1  0  0  0  0
 89196  1  0  0  0  0
 90197  1  0  0  0  0
 90198  1  0  0  0  0
 90199  1  0  0  0  0
 91200  1  0  0  0  0
 91201  1  0  0  0  0
 91202  1  0  0  0  0
 92 93  1  0  0  0  0
 92203  1  0  0  0  0
 93 94  1  0  0  0  0
 93 96  1  0  0  0  0
 93204  1  1  0  0  0
 94 95  1  0  0  0  0
 94100  2  0  0  0  0
 96 97  1  0  0  0  0
 96205  1  0  0  0  0
 96206  1  0  0  0  0
 97 98  2  0  0  0  0
 97 99  1  0  0  0  0
 99207  1  0  0  0  0
 99208  1  0  0  0  0
M  CHG  5   1   1  22  -1  38  -1  82  -1  95  -1
M  END
