1owj_ligand
 OpenBabel08222323343D

 54 57  0  0  0  0  0  0  0  0999 V2000
   16.9940   19.3640   33.9700 N   0  0  0  0  0  0  0  0  0  0  0  0
   18.3390   19.5220   33.8470 C   0  0  0  0  0  3  0  0  0  0  0  0
   18.8700   20.7450   34.0460 N   0  0  0  0  0  0  0  0  0  0  0  0
   19.2140   18.3740   33.5180 C   0  0  0  0  0  0  0  0  0  0  0  0
   20.5230   18.4320   34.0230 C   0  0  0  0  0  0  0  0  0  0  0  0
   21.4790   17.4170   33.7980 C   0  0  0  0  0  0  0  0  0  0  0  0
   22.8110   17.6010   34.2710 C   0  0  0  0  0  0  0  0  0  0  0  0
   23.8200   16.6450   33.9990 C   0  0  0  0  0  0  0  0  0  0  0  0
   23.5200   15.4740   33.2540 C   0  0  0  0  0  0  0  0  0  0  0  0
   22.1640   15.2740   32.7570 C   0  0  0  0  0  0  0  0  0  0  0  0
   21.1230   16.2440   33.0190 C   0  0  0  0  0  0  0  0  0  0  0  0
   19.7810   16.1780   32.5020 C   0  0  0  0  0  0  0  0  0  0  0  0
   18.8270   17.2240   32.7360 C   0  0  0  0  0  0  0  0  0  0  0  0
   24.6030   14.5240   33.1280 C   0  0  0  0  0  0  0  0  0  0  0  0
   25.6470   14.5040   33.7740 O   0  0  0  0  0  0  0  0  0  0  0  0
   24.3870   13.6500   32.2380 N   0  0  0  0  0  0  0  0  0  0  0  0
   25.4120   13.3340   31.4890 C   0  0  0  0  0  0  0  0  0  0  0  0
   26.2970   12.3250   31.8630 C   0  0  0  0  0  0  0  0  0  0  0  0
   27.1750   11.8500   30.8780 C   0  0  0  0  0  0  0  0  0  0  0  0
   27.2290   12.4480   29.5920 C   0  0  0  0  0  0  0  0  0  0  0  0
   26.4010   13.5300   29.2700 C   0  0  0  0  0  0  0  0  0  0  0  0
   25.4790   13.9600   30.2360 C   0  0  0  0  0  0  0  0  0  0  0  0
   28.1780   11.8880   28.5710 C   0  0  0  0  0  0  0  0  0  0  0  0
   28.3580   10.3340   28.6940 C   0  0  0  0  0  0  0  0  0  0  0  0
   28.5270    9.9480   30.0860 N   0  0  0  0  0  0  0  0  0  0  0  0
   27.9770   10.6620   31.1000 C   0  0  0  0  0  0  0  0  0  0  0  0
   28.1660   10.1520   32.4700 C   0  0  0  0  0  0  0  0  0  0  0  0
   29.5320   10.6490   32.9620 C   0  0  0  0  0  0  0  0  0  0  0  0
   27.8690    8.6460   32.3810 C   0  0  0  0  0  0  0  0  0  0  0  0
   16.5686   18.4377   33.8220 H   0  0  0  0  0  0  0  0  0  0  0  0
   16.4006   20.1706   34.2112 H   0  0  0  0  0  0  0  0  0  0  0  0
   19.8865   20.8857   33.9576 H   0  0  0  0  0  0  0  0  0  0  0  0
   18.2592   21.5387   34.2865 H   0  0  0  0  0  0  0  0  0  0  0  0
   20.8128   19.2946   34.6120 H   0  0  0  0  0  0  0  0  0  0  0  0
   23.0554   18.4859   34.8475 H   0  0  0  0  0  0  0  0  0  0  0  0
   24.8282   16.8084   34.3621 H   0  0  0  0  0  0  0  0  0  0  0  0
   21.9322   14.3847   32.1822 H   0  0  0  0  0  0  0  0  0  0  0  0
   19.4828   15.3138   31.9195 H   0  0  0  0  0  0  0  0  0  0  0  0
   17.8248   17.1513   32.3293 H   0  0  0  0  0  0  0  0  0  0  0  0
   23.4890   13.2275   32.1152 H   0  0  0  0  0  0  0  0  0  0  0  0
   26.3065   11.9250   32.8704 H   0  0  0  0  0  0  0  0  0  0  0  0
   26.4701   14.0197   28.3054 H   0  0  0  0  0  0  0  0  0  0  0  0
   24.8118   14.7843   30.0116 H   0  0  0  0  0  0  0  0  0  0  0  0
   29.1594   12.3668   28.7038 H   0  0  0  0  0  0  0  0  0  0  0  0
   27.7904   12.1183   27.5677 H   0  0  0  0  0  0  0  0  0  0  0  0
   29.2464   10.0264   28.1230 H   0  0  0  0  0  0  0  0  0  0  0  0
   27.4679    9.8333   28.2853 H   0  0  0  0  0  0  0  0  0  0  0  0
   27.4110   10.5915   33.1384 H   0  0  0  0  0  0  0  0  0  0  0  0
   29.7074   10.2859   33.9854 H   0  0  0  0  0  0  0  0  0  0  0  0
   29.5460   11.7489   32.9557 H   0  0  0  0  0  0  0  0  0  0  0  0
   30.3217   10.2684   32.2976 H   0  0  0  0  0  0  0  0  0  0  0  0
   26.8447    8.4957   32.0092 H   0  0  0  0  0  0  0  0  0  0  0  0
   27.9670    8.1933   33.3787 H   0  0  0  0  0  0  0  0  0  0  0  0
   28.5827    8.1716   31.6914 H   0  0  0  0  0  0  0  0  0  0  0  0
  1  2  1  0  0  0  0
  1 30  1  0  0  0  0
  1 31  1  0  0  0  0
  2  3  1  0  0  0  0
  2  4  1  0  0  0  0
  3 32  1  0  0  0  0
  3 33  1  0  0  0  0
  4  5  2  0  0  0  0
  4 13  1  0  0  0  0
  5  6  1  0  0  0  0
  5 34  1  0  0  0  0
  6  7  2  0  0  0  0
  6 11  1  0  0  0  0
  7  8  1  0  0  0  0
  7 35  1  0  0  0  0
  8  9  2  0  0  0  0
  8 36  1  0  0  0  0
  9 10  1  0  0  0  0
  9 14  1  0  0  0  0
 10 11  2  0  0  0  0
 10 37  1  0  0  0  0
 11 12  1  0  0  0  0
 12 13  2  0  0  0  0
 12 38  1  0  0  0  0
 13 39  1  0  0  0  0
 14 15  2  0  0  0  0
 14 16  1  0  0  0  0
 16 17  1  0  0  0  0
 16 40  1  0  0  0  0
 17 18  2  0  0  0  0
 17 22  1  0  0  0  0
 18 19  1  0  0  0  0
 18 41  1  0  0  0  0
 19 20  2  0  0  0  0
 19 26  1  0  0  0  0
 20 21  1  0  0  0  0
 20 23  1  0  0  0  0
 21 22  2  0  0  0  0
 21 42  1  0  0  0  0
 22 43  1  0  0  0  0
 23 24  1  0  0  0  0
 23 44  1  0  0  0  0
 23 45  1  0  0  0  0
 24 25  1  0  0  0  0
 24 46  1  0  0  0  0
 24 47  1  0  0  0  0
 25 26  2  0  0  0  0
 26 27  1  0  0  0  0
 27 28  1  0  0  0  0
 27 29  1  0  0  0  0
 27 48  1  0  0  0  0
 28 49  1  0  0  0  0
 28 50  1  0  0  0  0
 28 51  1  0  0  0  0
 29 52  1  0  0  0  0
 29 53  1  0  0  0  0
 29 54  1  0  0  0  0
M  END
