1oxq_ligand
 OpenBabel08222323343D

 62 62  0  0  1  0  0  0  0  0999 V2000
   22.2690   48.5480   -7.6420 N   0  3  0  0  0  0  0  0  0  0  0  0
   22.6620   48.1820   -6.2580 C   0  0  2  0  0  0  0  0  0  0  0  0
   21.9960   46.8720   -5.8630 C   0  0  0  0  0  0  0  0  0  0  0  0
   20.9800   46.4800   -6.4400 O   0  0  0  0  0  0  0  0  0  0  0  0
   22.2940   49.2960   -5.2770 C   0  0  0  0  0  0  0  0  0  0  0  0
   22.5740   46.2140   -4.8660 N   0  0  0  0  0  0  0  0  0  0  0  0
   22.1160   44.9170   -4.4070 C   0  0  2  0  0  0  0  0  0  0  0  0
   22.2050   44.9340   -2.8710 C   0  0  0  0  0  0  0  0  0  0  0  0
   23.0470   45.6550   -2.3290 O   0  0  0  0  0  0  0  0  0  0  0  0
   22.9730   43.7940   -5.1050 C   0  0  0  0  0  0  0  0  0  0  0  0
   22.7520   43.7160   -6.6300 C   0  0  0  0  0  0  0  0  0  0  0  0
   24.4340   43.8910   -4.7180 C   0  0  0  0  0  0  0  0  0  0  0  0
   21.3290   44.2180   -2.1560 N   0  0  0  0  0  0  0  0  0  0  0  0
   21.4480   44.1390   -0.6910 C   0  0  2  0  0  0  0  0  0  0  0  0
   22.7890   43.6040   -0.2330 C   0  0  0  0  0  0  0  0  0  0  0  0
   23.4190   42.8220   -0.9470 O   0  0  0  0  0  0  0  0  0  0  0  0
   20.3310   43.1710   -0.2980 C   0  0  0  0  0  0  0  0  0  0  0  0
   19.3260   43.3490   -1.3570 C   0  0  0  0  0  0  0  0  0  0  0  0
   20.1380   43.4900   -2.6330 C   0  0  0  0  0  0  0  0  0  0  0  0
   23.2330   44.0670    0.9340 N   0  0  0  0  0  0  0  0  0  0  0  0
   24.3870   43.4850    1.6090 C   0  0  2  0  0  0  0  0  0  0  0  0
   23.8790   42.2230    2.2870 C   0  0  0  0  0  0  0  0  0  0  0  0
   23.1160   42.3070    3.2530 O   0  5  0  0  0  0  0  0  0  0  0  0
   24.9930   44.4510    2.6690 C   0  0  2  0  0  0  0  0  0  0  0  0
   25.3380   45.8130    2.0580 C   0  0  0  0  0  0  0  0  0  0  0  0
   26.2200   43.8240    3.3300 C   0  0  0  0  0  0  0  0  0  0  0  0
   25.5220   46.9150    3.0920 C   0  0  0  0  0  0  0  0  0  0  0  0
   24.2368   41.0918    1.8628 O   0  0  0  0  0  0  0  0  0  0  0  0
   22.7125   49.4160   -7.8988 H   0  0  0  0  0  0  0  0  0  0  0  0
   21.2679   48.6553   -7.6898 H   0  0  0  0  0  0  0  0  0  0  0  0
   22.5598   47.8213   -8.2772 H   0  0  0  0  0  0  0  0  0  0  0  0
   23.7527   48.0422   -6.2295 H   0  0  0  0  0  0  0  0  0  0  0  0
   22.5941   49.0030   -4.2601 H   0  0  0  0  0  0  0  0  0  0  0  0
   21.2073   49.4645   -5.3043 H   0  0  0  0  0  0  0  0  0  0  0  0
   22.8159   50.2218   -5.5608 H   0  0  0  0  0  0  0  0  0  0  0  0
   23.3606   46.6313   -4.4109 H   0  0  0  0  0  0  0  0  0  0  0  0
   21.0642   44.7722   -4.6945 H   0  0  0  0  0  0  0  0  0  0  0  0
   22.6116   42.8371   -4.7004 H   0  0  0  0  0  0  0  0  0  0  0  0
   23.3778   42.9151   -7.0507 H   0  0  0  0  0  0  0  0  0  0  0  0
   23.0274   44.6764   -7.0900 H   0  0  0  0  0  0  0  0  0  0  0  0
   21.6932   43.5007   -6.8366 H   0  0  0  0  0  0  0  0  0  0  0  0
   24.5205   43.9431   -3.6226 H   0  0  0  0  0  0  0  0  0  0  0  0
   24.8721   44.7962   -5.1638 H   0  0  0  0  0  0  0  0  0  0  0  0
   24.9706   43.0042   -5.0864 H   0  0  0  0  0  0  0  0  0  0  0  0
   21.2854   45.1294   -0.2409 H   0  0  0  0  0  0  0  0  0  0  0  0
   19.9142   43.4318    0.6860 H   0  0  0  0  0  0  0  0  0  0  0  0
   20.6994   42.1347   -0.2772 H   0  0  0  0  0  0  0  0  0  0  0  0
   18.6619   42.4740   -1.4136 H   0  0  0  0  0  0  0  0  0  0  0  0
   18.7265   44.2533   -1.1758 H   0  0  0  0  0  0  0  0  0  0  0  0
   20.4085   42.5070   -3.0458 H   0  0  0  0  0  0  0  0  0  0  0  0
   19.5925   44.0692   -3.3925 H   0  0  0  0  0  0  0  0  0  0  0  0
   22.7602   44.8379    1.3607 H   0  0  0  0  0  0  0  0  0  0  0  0
   25.1622   43.2333    0.8703 H   0  0  0  0  0  0  0  0  0  0  0  0
   24.2342   44.6149    3.4483 H   0  0  0  0  0  0  0  0  0  0  0  0
   24.5239   46.1058    1.3787 H   0  0  0  0  0  0  0  0  0  0  0  0
   26.2730   45.7116    1.4876 H   0  0  0  0  0  0  0  0  0  0  0  0
   25.9468   42.8491    3.7601 H   0  0  0  0  0  0  0  0  0  0  0  0
   26.5858   44.4871    4.1277 H   0  0  0  0  0  0  0  0  0  0  0  0
   27.0105   43.6843    2.5779 H   0  0  0  0  0  0  0  0  0  0  0  0
   25.7664   47.8587    2.5825 H   0  0  0  0  0  0  0  0  0  0  0  0
   26.3408   46.6442    3.7747 H   0  0  0  0  0  0  0  0  0  0  0  0
   24.5917   47.0384    3.6659 H   0  0  0  0  0  0  0  0  0  0  0  0
  1 29  1  0  0  0  0
  1 30  1  0  0  0  0
  1 31  1  0  0  0  0
  2  1  1  0  0  0  0
  2  5  1  0  0  0  0
  2 32  1  1  0  0  0
  3  2  1  0  0  0  0
  3  4  2  0  0  0  0
  5 33  1  0  0  0  0
  5 34  1  0  0  0  0
  5 35  1  0  0  0  0
  6  3  1  0  0  0  0
  6 36  1  0  0  0  0
  7  6  1  0  0  0  0
  7 10  1  0  0  0  0
  7 37  1  6  0  0  0
  8  7  1  0  0  0  0
  8  9  2  0  0  0  0
 10 12  1  0  0  0  0
 10 11  1  0  0  0  0
 10 38  1  0  0  0  0
 11 39  1  0  0  0  0
 11 40  1  0  0  0  0
 11 41  1  0  0  0  0
 12 42  1  0  0  0  0
 12 43  1  0  0  0  0
 12 44  1  0  0  0  0
 13 19  1  0  0  0  0
 13  8  1  0  0  0  0
 14 17  1  0  0  0  0
 14 13  1  0  0  0  0
 14 45  1  1  0  0  0
 15 14  1  0  0  0  0
 15 16  2  0  0  0  0
 15 20  1  0  0  0  0
 17 18  1  0  0  0  0
 17 46  1  0  0  0  0
 17 47  1  0  0  0  0
 18 48  1  0  0  0  0
 18 49  1  0  0  0  0
 19 18  1  0  0  0  0
 19 50  1  0  0  0  0
 19 51  1  0  0  0  0
 20 21  1  0  0  0  0
 20 52  1  0  0  0  0
 21 24  1  0  0  0  0
 21 22  1  0  0  0  0
 21 53  1  6  0  0  0
 22 23  1  0  0  0  0
 22 28  2  0  0  0  0
 24 26  1  0  0  0  0
 24 25  1  0  0  0  0
 24 54  1  1  0  0  0
 25 27  1  0  0  0  0
 25 55  1  0  0  0  0
 25 56  1  0  0  0  0
 26 57  1  0  0  0  0
 26 58  1  0  0  0  0
 26 59  1  0  0  0  0
 27 60  1  0  0  0  0
 27 61  1  0  0  0  0
 27 62  1  0  0  0  0
M  CHG  2   1   1  23  -1
M  END
