1p01_ligand
 OpenBabel08222323343D

 59 59  0  0  1  0  0  0  0  0999 V2000
   13.1720   39.3550   19.4720 O   0  0  0  0  0  0  0  0  0  0  0  0
   13.6320   39.4020   18.3460 C   0  0  0  0  0  0  0  0  0  0  0  0
   14.5250   40.4990   17.8750 O   0  0  0  0  0  0  0  0  0  0  0  0
   15.0140   41.4770   18.8990 C   0  0  0  0  0  0  0  0  0  0  0  0
   15.7880   40.6710   19.9350 C   0  0  0  0  0  0  0  0  0  0  0  0
   15.9310   42.4590   18.1580 C   0  0  0  0  0  0  0  0  0  0  0  0
   13.7970   42.1990   19.4380 C   0  0  0  0  0  0  0  0  0  0  0  0
   13.5280   38.3860   17.4830 N   0  0  0  0  0  0  0  0  0  0  0  0
   12.7720   37.2260   17.9180 C   0  0  2  0  0  0  0  0  0  0  0  0
   13.5690   36.0430   17.4680 C   0  0  0  0  0  0  0  0  0  0  0  0
   14.4720   36.2820   16.6650 O   0  0  0  0  0  0  0  0  0  0  0  0
   11.7340   36.9670   16.9100 C   0  0  0  0  0  0  0  0  0  0  0  0
   13.3800   34.8800   18.0750 N   0  0  0  0  0  0  0  0  0  0  0  0
   14.1290   33.6690   17.7300 C   0  0  2  0  0  0  0  0  0  0  0  0
   13.7980   33.2290   16.3080 C   0  0  0  0  0  0  0  0  0  0  0  0
   12.6410   33.4520   15.8930 O   0  0  0  0  0  0  0  0  0  0  0  0
   13.6850   32.6390   18.7570 C   0  0  0  0  0  0  0  0  0  0  0  0
   12.7960   33.3460   19.7220 C   0  0  0  0  0  0  0  0  0  0  0  0
   12.3030   34.6260   19.0520 C   0  0  0  0  0  0  0  0  0  0  0  0
   14.7500   32.6680   15.5680 N   0  0  0  0  0  0  0  0  0  0  0  0
   14.5240   32.1810   14.1950 C   0  0  1  0  0  0  0  0  0  0  0  0
   15.3400   32.9840   13.1360 C   0  0  0  0  0  0  0  0  0  0  0  0
   14.8440   34.4260   12.8980 C   0  0  0  0  0  0  0  0  0  0  0  0
   16.8340   33.0210   13.4810 C   0  0  0  0  0  0  0  0  0  0  0  0
   14.7560   30.6430   14.1350 B   0  0  0  0  0  0  0  0  0  0  0  0
   14.8520   30.0920   12.7150 O   0  0  0  0  0  0  0  0  0  0  0  0
   13.8680   29.7940   14.9910 O   0  0  0  0  0  0  0  0  0  0  0  0
   16.1707   41.3467   20.7141 H   0  0  0  0  0  0  0  0  0  0  0  0
   16.6308   40.1597   19.4469 H   0  0  0  0  0  0  0  0  0  0  0  0
   15.1213   39.9249   20.3920 H   0  0  0  0  0  0  0  0  0  0  0  0
   16.3203   43.2038   18.8677 H   0  0  0  0  0  0  0  0  0  0  0  0
   15.3602   42.9688   17.3679 H   0  0  0  0  0  0  0  0  0  0  0  0
   16.7699   41.9085   17.7073 H   0  0  0  0  0  0  0  0  0  0  0  0
   14.1110   42.9307   20.1970 H   0  0  0  0  0  0  0  0  0  0  0  0
   13.1101   41.4704   19.8933 H   0  0  0  0  0  0  0  0  0  0  0  0
   13.2858   42.7205   18.6154 H   0  0  0  0  0  0  0  0  0  0  0  0
   13.9522   38.4237   16.5782 H   0  0  0  0  0  0  0  0  0  0  0  0
   12.4536   37.2583   18.9704 H   0  0  0  0  0  0  0  0  0  0  0  0
   11.1412   36.0907   17.2110 H   0  0  0  0  0  0  0  0  0  0  0  0
   12.2084   36.7720   15.9369 H   0  0  0  0  0  0  0  0  0  0  0  0
   11.0756   37.8444   16.8278 H   0  0  0  0  0  0  0  0  0  0  0  0
   15.2115   33.8468   17.8108 H   0  0  0  0  0  0  0  0  0  0  0  0
   14.5595   32.2258   19.2810 H   0  0  0  0  0  0  0  0  0  0  0  0
   13.1351   31.8246   18.2628 H   0  0  0  0  0  0  0  0  0  0  0  0
   13.3571   33.5940   20.6350 H   0  0  0  0  0  0  0  0  0  0  0  0
   11.9399   32.7055   19.9804 H   0  0  0  0  0  0  0  0  0  0  0  0
   11.3354   34.4710   18.5523 H   0  0  0  0  0  0  0  0  0  0  0  0
   12.2142   35.4498   19.7755 H   0  0  0  0  0  0  0  0  0  0  0  0
   15.6640   32.5718   15.9622 H   0  0  0  0  0  0  0  0  0  0  0  0
   13.4627   32.3520   13.9618 H   0  0  0  0  0  0  0  0  0  0  0  0
   15.2315   32.4448   12.1834 H   0  0  0  0  0  0  0  0  0  0  0  0
   15.4766   34.9109   12.1399 H   0  0  0  0  0  0  0  0  0  0  0  0
   14.8996   34.9929   13.8390 H   0  0  0  0  0  0  0  0  0  0  0  0
   13.8023   34.4020   12.5454 H   0  0  0  0  0  0  0  0  0  0  0  0
   17.1962   31.9966   13.6524 H   0  0  0  0  0  0  0  0  0  0  0  0
   16.9855   33.6204   14.3908 H   0  0  0  0  0  0  0  0  0  0  0  0
   17.3918   33.4724   12.6473 H   0  0  0  0  0  0  0  0  0  0  0  0
   15.2092   29.2121   12.7414 H   0  0  0  0  0  0  0  0  0  0  0  0
   13.8283   30.1614   15.8662 H   0  0  0  0  0  0  0  0  0  0  0  0
  1  2  2  0  0  0  0
  2  3  1  0  0  0  0
  2  8  1  0  0  0  0
  3  4  1  0  0  0  0
  4  5  1  0  0  0  0
  4  6  1  0  0  0  0
  4  7  1  0  0  0  0
  5 28  1  0  0  0  0
  5 29  1  0  0  0  0
  5 30  1  0  0  0  0
  6 31  1  0  0  0  0
  6 32  1  0  0  0  0
  6 33  1  0  0  0  0
  7 34  1  0  0  0  0
  7 35  1  0  0  0  0
  7 36  1  0  0  0  0
  8  9  1  0  0  0  0
  8 37  1  0  0  0  0
  9 10  1  0  0  0  0
  9 12  1  0  0  0  0
  9 38  1  1  0  0  0
 10 11  2  0  0  0  0
 10 13  1  0  0  0  0
 12 39  1  0  0  0  0
 12 40  1  0  0  0  0
 12 41  1  0  0  0  0
 13 14  1  0  0  0  0
 13 19  1  0  0  0  0
 14 15  1  0  0  0  0
 14 17  1  0  0  0  0
 14 42  1  1  0  0  0
 15 16  2  0  0  0  0
 15 20  1  0  0  0  0
 17 18  1  0  0  0  0
 17 43  1  0  0  0  0
 17 44  1  0  0  0  0
 18 19  1  0  0  0  0
 18 45  1  0  0  0  0
 18 46  1  0  0  0  0
 19 47  1  0  0  0  0
 19 48  1  0  0  0  0
 20 21  1  0  0  0  0
 20 49  1  0  0  0  0
 21 22  1  0  0  0  0
 21 25  1  0  0  0  0
 21 50  1  6  0  0  0
 22 23  1  0  0  0  0
 22 24  1  0  0  0  0
 22 51  1  0  0  0  0
 23 52  1  0  0  0  0
 23 53  1  0  0  0  0
 23 54  1  0  0  0  0
 24 55  1  0  0  0  0
 24 56  1  0  0  0  0
 24 57  1  0  0  0  0
 25 26  1  0  0  0  0
 25 27  1  0  0  0  0
 26 58  1  0  0  0  0
 27 59  1  0  0  0  0
M  END
