1p03_ligand
 OpenBabel08222323343D

 55 55  0  0  1  0  0  0  0  0999 V2000
   13.2500   41.8640   18.7900 N   0  3  0  0  0  0  0  0  0  0  0  0
   14.0100   40.6380   18.4550 C   0  0  2  0  0  0  0  0  0  0  0  0
   13.1910   39.3690   18.6230 C   0  0  0  0  0  0  0  0  0  0  0  0
   12.3730   39.2650   19.5680 O   0  0  0  0  0  0  0  0  0  0  0  0
   15.2950   40.4300   19.2310 C   0  0  0  0  0  0  0  0  0  0  0  0
   13.4500   38.4300   17.7200 N   0  0  0  0  0  0  0  0  0  0  0  0
   12.7040   37.1450   17.8370 C   0  0  2  0  0  0  0  0  0  0  0  0
   13.6730   36.0320   17.4580 C   0  0  0  0  0  0  0  0  0  0  0  0
   14.5780   36.3450   16.6840 O   0  0  0  0  0  0  0  0  0  0  0  0
   11.4920   37.1340   16.9330 C   0  0  0  0  0  0  0  0  0  0  0  0
   13.4460   34.8540   18.0230 N   0  0  0  0  0  0  0  0  0  0  0  0
   14.2440   33.6670   17.6930 C   0  0  2  0  0  0  0  0  0  0  0  0
   13.8720   33.2060   16.2860 C   0  0  0  0  0  0  0  0  0  0  0  0
   12.6740   33.3740   15.9120 O   0  0  0  0  0  0  0  0  0  0  0  0
   13.6840   32.5920   18.6200 C   0  0  0  0  0  0  0  0  0  0  0  0
   12.7190   33.2380   19.5430 C   0  0  0  0  0  0  0  0  0  0  0  0
   12.3070   34.5500   18.9160 C   0  0  0  0  0  0  0  0  0  0  0  0
   14.8290   32.6550   15.5400 N   0  0  0  0  0  0  0  0  0  0  0  0
   14.5660   32.1940   14.1590 C   0  0  1  0  0  0  0  0  0  0  0  0
   15.3940   33.0160   13.1180 C   0  0  0  0  0  0  0  0  0  0  0  0
   14.8580   34.4260   12.8740 C   0  0  0  0  0  0  0  0  0  0  0  0
   16.9010   33.0550   13.4360 C   0  0  0  0  0  0  0  0  0  0  0  0
   14.6810   30.6750   14.0140 B   0  0  0  0  0  0  0  0  0  0  0  0
   14.8610   30.0850   12.6310 O   0  0  0  0  0  0  0  0  0  0  0  0
   13.9350   29.8410   15.0070 O   0  0  0  0  0  0  0  0  0  0  0  0
   13.8402   42.6709   18.6609 H   0  0  0  0  0  0  0  0  0  0  0  0
   12.9469   41.8196   19.7503 H   0  0  0  0  0  0  0  0  0  0  0  0
   12.4457   41.9361   18.1868 H   0  0  0  0  0  0  0  0  0  0  0  0
   14.2801   40.7272   17.3924 H   0  0  0  0  0  0  0  0  0  0  0  0
   15.7740   39.4955   18.9034 H   0  0  0  0  0  0  0  0  0  0  0  0
   15.0686   40.3687   20.3057 H   0  0  0  0  0  0  0  0  0  0  0  0
   15.9752   41.2747   19.0471 H   0  0  0  0  0  0  0  0  0  0  0  0
   14.1184   38.5791   16.9913 H   0  0  0  0  0  0  0  0  0  0  0  0
   12.3714   37.0063   18.8763 H   0  0  0  0  0  0  0  0  0  0  0  0
   10.9629   36.1756   17.0408 H   0  0  0  0  0  0  0  0  0  0  0  0
   11.8125   37.2604   15.8884 H   0  0  0  0  0  0  0  0  0  0  0  0
   10.8188   37.9579   17.2122 H   0  0  0  0  0  0  0  0  0  0  0  0
   15.3251   33.8321   17.8115 H   0  0  0  0  0  0  0  0  0  0  0  0
   14.5013   32.1334   19.1960 H   0  0  0  0  0  0  0  0  0  0  0  0
   13.1733   31.8181   18.0282 H   0  0  0  0  0  0  0  0  0  0  0  0
   13.1946   33.4197   20.5181 H   0  0  0  0  0  0  0  0  0  0  0  0
   11.8385   32.5929   19.6790 H   0  0  0  0  0  0  0  0  0  0  0  0
   11.3731   34.4410   18.3451 H   0  0  0  0  0  0  0  0  0  0  0  0
   12.1811   35.3322   19.6790 H   0  0  0  0  0  0  0  0  0  0  0  0
   15.7469   32.5506   15.9228 H   0  0  0  0  0  0  0  0  0  0  0  0
   13.5113   32.4293   13.9536 H   0  0  0  0  0  0  0  0  0  0  0  0
   15.2919   32.4785   12.1637 H   0  0  0  0  0  0  0  0  0  0  0  0
   15.4917   34.9361   12.1336 H   0  0  0  0  0  0  0  0  0  0  0  0
   14.8694   34.9911   13.8177 H   0  0  0  0  0  0  0  0  0  0  0  0
   13.8271   34.3659   12.4950 H   0  0  0  0  0  0  0  0  0  0  0  0
   17.2660   32.0317   13.6080 H   0  0  0  0  0  0  0  0  0  0  0  0
   17.0698   33.6609   14.3384 H   0  0  0  0  0  0  0  0  0  0  0  0
   17.4432   33.5001   12.5887 H   0  0  0  0  0  0  0  0  0  0  0  0
   15.3418   29.2682   12.6965 H   0  0  0  0  0  0  0  0  0  0  0  0
   13.8826   30.3061   15.8337 H   0  0  0  0  0  0  0  0  0  0  0  0
  1  2  1  0  0  0  0
  1 26  1  0  0  0  0
  1 27  1  0  0  0  0
  1 28  1  0  0  0  0
  2  3  1  0  0  0  0
  2  5  1  0  0  0  0
  2 29  1  6  0  0  0
  3  4  2  0  0  0  0
  3  6  1  0  0  0  0
  5 30  1  0  0  0  0
  5 31  1  0  0  0  0
  5 32  1  0  0  0  0
  6  7  1  0  0  0  0
  6 33  1  0  0  0  0
  7  8  1  0  0  0  0
  7 10  1  0  0  0  0
  7 34  1  1  0  0  0
  8  9  2  0  0  0  0
  8 11  1  0  0  0  0
 10 35  1  0  0  0  0
 10 36  1  0  0  0  0
 10 37  1  0  0  0  0
 11 12  1  0  0  0  0
 11 17  1  0  0  0  0
 12 13  1  0  0  0  0
 12 15  1  0  0  0  0
 12 38  1  1  0  0  0
 13 14  2  0  0  0  0
 13 18  1  0  0  0  0
 15 16  1  0  0  0  0
 15 39  1  0  0  0  0
 15 40  1  0  0  0  0
 16 17  1  0  0  0  0
 16 41  1  0  0  0  0
 16 42  1  0  0  0  0
 17 43  1  0  0  0  0
 17 44  1  0  0  0  0
 18 19  1  0  0  0  0
 18 45  1  0  0  0  0
 19 20  1  0  0  0  0
 19 23  1  0  0  0  0
 19 46  1  6  0  0  0
 20 21  1  0  0  0  0
 20 22  1  0  0  0  0
 20 47  1  0  0  0  0
 21 48  1  0  0  0  0
 21 49  1  0  0  0  0
 21 50  1  0  0  0  0
 22 51  1  0  0  0  0
 22 52  1  0  0  0  0
 22 53  1  0  0  0  0
 23 24  1  0  0  0  0
 23 25  1  0  0  0  0
 24 54  1  0  0  0  0
 25 55  1  0  0  0  0
M  CHG  1   1   1
M  END
