1p04_ligand
 OpenBabel08222323343D

 58 58  0  0  1  0  0  0  0  0999 V2000
   13.2380   41.9020   18.6770 N   0  3  0  0  0  0  0  0  0  0  0  0
   13.9920   40.6470   18.5490 C   0  0  2  0  0  0  0  0  0  0  0  0
   13.1620   39.3840   18.7420 C   0  0  0  0  0  0  0  0  0  0  0  0
   12.3410   39.3140   19.6590 O   0  0  0  0  0  0  0  0  0  0  0  0
   15.1100   40.5100   19.5720 C   0  0  0  0  0  0  0  0  0  0  0  0
   13.4290   38.4260   17.8940 N   0  0  0  0  0  0  0  0  0  0  0  0
   12.7110   37.1310   17.9700 C   0  0  2  0  0  0  0  0  0  0  0  0
   13.7120   36.0360   17.6000 C   0  0  0  0  0  0  0  0  0  0  0  0
   14.6120   36.2890   16.8000 O   0  0  0  0  0  0  0  0  0  0  0  0
   11.4560   37.0520   17.1130 C   0  0  0  0  0  0  0  0  0  0  0  0
   13.4610   34.8800   18.1820 N   0  0  0  0  0  0  0  0  0  0  0  0
   14.2770   33.6860   17.8800 C   0  0  2  0  0  0  0  0  0  0  0  0
   13.9370   33.1980   16.4560 C   0  0  0  0  0  0  0  0  0  0  0  0
   12.7600   33.2410   16.0710 O   0  0  0  0  0  0  0  0  0  0  0  0
   13.9570   32.7670   19.0630 C   0  0  0  0  0  0  0  0  0  0  0  0
   12.8900   33.3930   19.8890 C   0  0  0  0  0  0  0  0  0  0  0  0
   12.3360   34.5560   19.0920 C   0  0  0  0  0  0  0  0  0  0  0  0
   14.9270   32.7400   15.7040 N   0  0  0  0  0  0  0  0  0  0  0  0
   14.6640   32.2470   14.3290 C   0  0  1  0  0  0  0  0  0  0  0  0
   15.4980   33.0330   13.2840 C   0  0  1  0  0  0  0  0  0  0  0  0
   15.0520   34.5140   13.2660 C   0  0  0  0  0  0  0  0  0  0  0  0
   17.0120   33.0280   13.4650 C   0  0  0  0  0  0  0  0  0  0  0  0
   13.7200   34.6550   12.5380 C   0  0  0  0  0  0  0  0  0  0  0  0
   14.7420   30.7050   14.1510 B   0  0  0  0  0  0  0  0  0  0  0  0
   14.8830   30.1810   12.7180 O   0  0  0  0  0  0  0  0  0  0  0  0
   13.8240   30.0190   15.0800 O   0  0  0  0  0  0  0  0  0  0  0  0
   13.8593   42.6831   18.5358 H   0  0  0  0  0  0  0  0  0  0  0  0
   12.8322   41.9578   19.5980 H   0  0  0  0  0  0  0  0  0  0  0  0
   12.5055   41.9260   17.9850 H   0  0  0  0  0  0  0  0  0  0  0  0
   14.4261   40.6346   17.5384 H   0  0  0  0  0  0  0  0  0  0  0  0
   15.6307   39.5530   19.4201 H   0  0  0  0  0  0  0  0  0  0  0  0
   14.6848   40.5391   20.5860 H   0  0  0  0  0  0  0  0  0  0  0  0
   15.8228   41.3387   19.4494 H   0  0  0  0  0  0  0  0  0  0  0  0
   14.1231   38.5676   17.1882 H   0  0  0  0  0  0  0  0  0  0  0  0
   12.3984   36.9794   19.0137 H   0  0  0  0  0  0  0  0  0  0  0  0
   10.9925   36.0616   17.2320 H   0  0  0  0  0  0  0  0  0  0  0  0
   11.7226   37.2075   16.0572 H   0  0  0  0  0  0  0  0  0  0  0  0
   10.7457   37.8297   17.4303 H   0  0  0  0  0  0  0  0  0  0  0  0
   15.3495   33.9296   17.9003 H   0  0  0  0  0  0  0  0  0  0  0  0
   14.8604   32.6247   19.6742 H   0  0  0  0  0  0  0  0  0  0  0  0
   13.6098   31.7924   18.6893 H   0  0  0  0  0  0  0  0  0  0  0  0
   13.3107   33.7531   20.8394 H   0  0  0  0  0  0  0  0  0  0  0  0
   12.0936   32.6624   20.0939 H   0  0  0  0  0  0  0  0  0  0  0  0
   11.4393   34.2607   18.5274 H   0  0  0  0  0  0  0  0  0  0  0  0
   12.0942   35.4073   19.7453 H   0  0  0  0  0  0  0  0  0  0  0  0
   15.8591   32.7264   16.0658 H   0  0  0  0  0  0  0  0  0  0  0  0
   13.6138   32.5022   14.1243 H   0  0  0  0  0  0  0  0  0  0  0  0
   15.2829   32.5853   12.3025 H   0  0  0  0  0  0  0  0  0  0  0  0
   15.8137   35.1164   12.7494 H   0  0  0  0  0  0  0  0  0  0  0  0
   14.9404   34.8723   14.3000 H   0  0  0  0  0  0  0  0  0  0  0  0
   17.3756   31.9900   13.4837 H   0  0  0  0  0  0  0  0  0  0  0  0
   17.2697   33.5239   14.4125 H   0  0  0  0  0  0  0  0  0  0  0  0
   17.4830   33.5664   12.6294 H   0  0  0  0  0  0  0  0  0  0  0  0
   13.4151   35.7119   12.5327 H   0  0  0  0  0  0  0  0  0  0  0  0
   12.9552   34.0554   13.0533 H   0  0  0  0  0  0  0  0  0  0  0  0
   13.8285   34.2996   11.5027 H   0  0  0  0  0  0  0  0  0  0  0  0
   15.5045   30.7212   12.2442 H   0  0  0  0  0  0  0  0  0  0  0  0
   13.8443   30.4556   15.9235 H   0  0  0  0  0  0  0  0  0  0  0  0
  1  2  1  0  0  0  0
  1 27  1  0  0  0  0
  1 28  1  0  0  0  0
  1 29  1  0  0  0  0
  2  3  1  0  0  0  0
  2  5  1  0  0  0  0
  2 30  1  6  0  0  0
  3  4  2  0  0  0  0
  3  6  1  0  0  0  0
  5 31  1  0  0  0  0
  5 32  1  0  0  0  0
  5 33  1  0  0  0  0
  6  7  1  0  0  0  0
  6 34  1  0  0  0  0
  7  8  1  0  0  0  0
  7 10  1  0  0  0  0
  7 35  1  1  0  0  0
  8  9  2  0  0  0  0
  8 11  1  0  0  0  0
 10 36  1  0  0  0  0
 10 37  1  0  0  0  0
 10 38  1  0  0  0  0
 11 12  1  0  0  0  0
 11 17  1  0  0  0  0
 12 13  1  0  0  0  0
 12 15  1  0  0  0  0
 12 39  1  1  0  0  0
 13 14  2  0  0  0  0
 13 18  1  0  0  0  0
 15 16  1  0  0  0  0
 15 40  1  0  0  0  0
 15 41  1  0  0  0  0
 16 17  1  0  0  0  0
 16 42  1  0  0  0  0
 16 43  1  0  0  0  0
 17 44  1  0  0  0  0
 17 45  1  0  0  0  0
 18 19  1  0  0  0  0
 18 46  1  0  0  0  0
 19 20  1  0  0  0  0
 19 24  1  0  0  0  0
 19 47  1  6  0  0  0
 20 21  1  0  0  0  0
 20 22  1  0  0  0  0
 20 48  1  6  0  0  0
 21 23  1  0  0  0  0
 21 49  1  0  0  0  0
 21 50  1  0  0  0  0
 22 51  1  0  0  0  0
 22 52  1  0  0  0  0
 22 53  1  0  0  0  0
 23 54  1  0  0  0  0
 23 55  1  0  0  0  0
 23 56  1  0  0  0  0
 24 25  1  0  0  0  0
 24 26  1  0  0  0  0
 25 57  1  0  0  0  0
 26 58  1  0  0  0  0
M  CHG  1   1   1
M  END
