1p05_ligand
 OpenBabel08222323343D

 58 58  0  0  1  0  0  0  0  0999 V2000
   12.9440   41.7830   18.8940 N   0  3  0  0  0  0  0  0  0  0  0  0
   13.8150   40.5800   18.7510 C   0  0  2  0  0  0  0  0  0  0  0  0
   13.0200   39.2630   18.8870 C   0  0  0  0  0  0  0  0  0  0  0  0
   12.2360   39.1110   19.8630 O   0  0  0  0  0  0  0  0  0  0  0  0
   15.0450   40.3610   19.6210 C   0  0  0  0  0  0  0  0  0  0  0  0
   13.3140   38.3960   17.9150 N   0  0  0  0  0  0  0  0  0  0  0  0
   12.6170   37.0890   18.0380 C   0  0  2  0  0  0  0  0  0  0  0  0
   13.6330   36.0040   17.7400 C   0  0  0  0  0  0  0  0  0  0  0  0
   14.4910   36.3140   16.9110 O   0  0  0  0  0  0  0  0  0  0  0  0
   11.4930   36.9950   17.0470 C   0  0  0  0  0  0  0  0  0  0  0  0
   13.4070   34.8540   18.3470 N   0  0  0  0  0  0  0  0  0  0  0  0
   14.2080   33.6660   18.0300 C   0  0  2  0  0  0  0  0  0  0  0  0
   13.8360   33.2160   16.5940 C   0  0  0  0  0  0  0  0  0  0  0  0
   12.6360   33.2990   16.1740 O   0  0  0  0  0  0  0  0  0  0  0  0
   13.7770   32.7010   19.1590 C   0  0  0  0  0  0  0  0  0  0  0  0
   12.5430   33.1990   19.8550 C   0  0  0  0  0  0  0  0  0  0  0  0
   12.2860   34.5590   19.2530 C   0  0  0  0  0  0  0  0  0  0  0  0
   14.7770   32.7320   15.8430 N   0  0  0  0  0  0  0  0  0  0  0  0
   14.5460   32.2800   14.4540 C   0  0  1  0  0  0  0  0  0  0  0  0
   15.5140   33.1260   13.5360 C   0  0  0  0  0  0  0  0  0  0  0  0
   15.2110   34.5910   13.7810 C   0  0  0  0  0  0  0  0  0  0  0  0
   14.2560   35.0990   12.7050 C   0  0  0  0  0  0  0  0  0  0  0  0
   13.2090   35.9390   13.4870 C   0  0  0  0  0  0  0  0  0  0  0  0
   14.8100   30.7490   14.1940 B   0  0  0  0  0  0  0  0  0  0  0  0
   14.8120   30.2650   12.7610 O   0  0  0  0  0  0  0  0  0  0  0  0
   13.9420   30.0090   15.1760 O   0  0  0  0  0  0  0  0  0  0  0  0
   13.5034   42.6161   18.7985 H   0  0  0  0  0  0  0  0  0  0  0  0
   12.5059   41.7747   19.8018 H   0  0  0  0  0  0  0  0  0  0  0  0
   12.2343   41.7710   18.1783 H   0  0  0  0  0  0  0  0  0  0  0  0
   14.1889   40.6400   17.7183 H   0  0  0  0  0  0  0  0  0  0  0  0
   15.5290   39.4141   19.3399 H   0  0  0  0  0  0  0  0  0  0  0  0
   14.7437   40.3190   20.6781 H   0  0  0  0  0  0  0  0  0  0  0  0
   15.7510   41.1915   19.4736 H   0  0  0  0  0  0  0  0  0  0  0  0
   13.9470   38.6073   17.1703 H   0  0  0  0  0  0  0  0  0  0  0  0
   12.2209   36.9697   19.0573 H   0  0  0  0  0  0  0  0  0  0  0  0
   10.9905   36.0223   17.1537 H   0  0  0  0  0  0  0  0  0  0  0  0
   11.8943   37.0905   16.0273 H   0  0  0  0  0  0  0  0  0  0  0  0
   10.7707   37.8032   17.2340 H   0  0  0  0  0  0  0  0  0  0  0  0
   15.2885   33.8657   18.0821 H   0  0  0  0  0  0  0  0  0  0  0  0
   14.5935   32.6177   19.8914 H   0  0  0  0  0  0  0  0  0  0  0  0
   13.5703   31.7112   18.7260 H   0  0  0  0  0  0  0  0  0  0  0  0
   12.7149   33.2806   20.9384 H   0  0  0  0  0  0  0  0  0  0  0  0
   11.6937   32.5254   19.6682 H   0  0  0  0  0  0  0  0  0  0  0  0
   11.3402   34.5496   18.6914 H   0  0  0  0  0  0  0  0  0  0  0  0
   12.2335   35.3185   20.0470 H   0  0  0  0  0  0  0  0  0  0  0  0
   15.7003   32.6614   16.2206 H   0  0  0  0  0  0  0  0  0  0  0  0
   13.5004   32.4946   14.1881 H   0  0  0  0  0  0  0  0  0  0  0  0
   15.3401   32.8785   12.4784 H   0  0  0  0  0  0  0  0  0  0  0  0
   16.5610   32.9107   13.7956 H   0  0  0  0  0  0  0  0  0  0  0  0
   16.1456   35.1699   13.7448 H   0  0  0  0  0  0  0  0  0  0  0  0
   14.7448   34.7087   14.7703 H   0  0  0  0  0  0  0  0  0  0  0  0
   13.7720   34.2590   12.1853 H   0  0  0  0  0  0  0  0  0  0  0  0
   14.7896   35.7241   11.9739 H   0  0  0  0  0  0  0  0  0  0  0  0
   12.4701   36.3507   12.7838 H   0  0  0  0  0  0  0  0  0  0  0  0
   13.7165   36.7631   14.0097 H   0  0  0  0  0  0  0  0  0  0  0  0
   12.6990   35.2980   14.2211 H   0  0  0  0  0  0  0  0  0  0  0  0
   15.3944   30.8099   12.2447 H   0  0  0  0  0  0  0  0  0  0  0  0
   14.0276   30.4063   16.0347 H   0  0  0  0  0  0  0  0  0  0  0  0
  1  2  1  0  0  0  0
  1 27  1  0  0  0  0
  1 28  1  0  0  0  0
  1 29  1  0  0  0  0
  2  3  1  0  0  0  0
  2  5  1  0  0  0  0
  2 30  1  6  0  0  0
  3  4  2  0  0  0  0
  3  6  1  0  0  0  0
  5 31  1  0  0  0  0
  5 32  1  0  0  0  0
  5 33  1  0  0  0  0
  6  7  1  0  0  0  0
  6 34  1  0  0  0  0
  7  8  1  0  0  0  0
  7 10  1  0  0  0  0
  7 35  1  1  0  0  0
  8  9  2  0  0  0  0
  8 11  1  0  0  0  0
 10 36  1  0  0  0  0
 10 37  1  0  0  0  0
 10 38  1  0  0  0  0
 11 12  1  0  0  0  0
 11 17  1  0  0  0  0
 12 13  1  0  0  0  0
 12 15  1  0  0  0  0
 12 39  1  1  0  0  0
 13 14  2  0  0  0  0
 13 18  1  0  0  0  0
 15 16  1  0  0  0  0
 15 40  1  0  0  0  0
 15 41  1  0  0  0  0
 16 17  1  0  0  0  0
 16 42  1  0  0  0  0
 16 43  1  0  0  0  0
 17 44  1  0  0  0  0
 17 45  1  0  0  0  0
 18 19  1  0  0  0  0
 18 46  1  0  0  0  0
 19 20  1  0  0  0  0
 19 24  1  0  0  0  0
 19 47  1  6  0  0  0
 20 21  1  0  0  0  0
 20 48  1  0  0  0  0
 20 49  1  0  0  0  0
 21 22  1  0  0  0  0
 21 50  1  0  0  0  0
 21 51  1  0  0  0  0
 22 23  1  0  0  0  0
 22 52  1  0  0  0  0
 22 53  1  0  0  0  0
 23 54  1  0  0  0  0
 23 55  1  0  0  0  0
 23 56  1  0  0  0  0
 24 25  1  0  0  0  0
 24 26  1  0  0  0  0
 25 57  1  0  0  0  0
 26 58  1  0  0  0  0
M  CHG  1   1   1
M  END
