1p17_ligand
 OpenBabel08222323343D

 34 36  0  0  1  0  0  0  0  0999 V2000
    8.5560   38.0610  -11.8730 P   0  0  0  0  0  0  0  0  0  0  0  0
    7.6930   38.3180  -13.0490 O   0  0  0  0  0  1  0  0  0  0  0  0
    8.3060   36.8300  -11.0790 O   0  0  0  0  0  1  0  0  0  0  0  0
    9.9920   38.1450  -12.2690 O   0  0  0  0  0  0  0  0  0  0  0  0
    8.2870   39.2930  -10.8870 O   0  0  0  0  0  0  0  0  0  0  0  0
    9.2390   39.6580   -9.8860 C   0  0  0  0  0  0  0  0  0  0  0  0
    8.5650   39.8380   -8.5410 C   0  0  1  0  0  0  0  0  0  0  0  0
    7.8490   41.1000   -8.4810 O   0  0  0  0  0  0  0  0  0  0  0  0
    7.5050   38.8170   -8.1750 C   0  0  1  0  0  0  0  0  0  0  0  0
    8.0930   37.5980   -7.7260 O   0  0  0  0  0  0  0  0  0  0  0  0
    6.7440   39.5390   -7.0580 C   0  0  1  0  0  0  0  0  0  0  0  0
    7.3720   39.4390   -5.7930 O   0  0  0  0  0  0  0  0  0  0  0  0
    6.8070   41.0010   -7.5190 C   0  0  2  0  0  0  0  0  0  0  0  0
    5.5700   41.5300   -8.0940 N   0  0  0  0  0  0  0  0  0  0  0  0
    5.1960   41.5100   -9.4150 C   0  0  0  0  0  0  0  0  0  0  0  0
    4.0400   42.0770   -9.6300 N   0  0  0  0  0  0  0  0  0  0  0  0
    3.6200   42.4920   -8.3750 C   0  0  0  0  0  0  0  0  0  0  0  0
    2.4410   43.1640   -7.9840 C   0  0  0  0  0  0  0  0  0  0  0  0
    1.4960   43.5290   -8.6910 O   0  0  0  0  0  0  0  0  0  0  0  0
    2.4160   43.4000   -6.6150 N   0  0  0  0  0  0  0  0  0  0  0  0
    3.3950   43.0320   -5.7360 C   0  0  0  0  0  0  0  0  0  0  0  0
    4.5010   42.3970   -6.0870 N   0  0  0  0  0  0  0  0  0  0  0  0
    4.5480   42.1610   -7.4140 C   0  0  0  0  0  0  0  0  0  0  0  0
    9.7227   40.6024  -10.1759 H   0  0  0  0  0  0  0  0  0  0  0  0
    9.9986   38.8665   -9.8054 H   0  0  0  0  0  0  0  0  0  0  0  0
    9.3540   39.8188   -7.7748 H   0  0  0  0  0  0  0  0  0  0  0  0
    6.8446   38.6060   -9.0290 H   0  0  0  0  0  0  0  0  0  0  0  0
    7.4068   36.9795   -7.5046 H   0  0  0  0  0  0  0  0  0  0  0  0
    5.7088   39.1737   -6.9879 H   0  0  0  0  0  0  0  0  0  0  0  0
    7.4410   38.5242   -5.5464 H   0  0  0  0  0  0  0  0  0  0  0  0
    7.0602   41.6210   -6.6464 H   0  0  0  0  0  0  0  0  0  0  0  0
    5.8022   41.0662  -10.2033 H   0  0  0  0  0  0  0  0  0  0  0  0
    1.6190   43.8766   -6.2440 H   0  0  0  0  0  0  0  0  0  0  0  0
    3.2566   43.2760   -4.6837 H   0  0  0  0  0  0  0  0  0  0  0  0
  1  2  1  0  0  0  0
  1  3  1  0  0  0  0
  1  4  2  0  0  0  0
  1  5  1  0  0  0  0
  5  6  1  0  0  0  0
  6  7  1  0  0  0  0
  6 24  1  0  0  0  0
  6 25  1  0  0  0  0
  7  8  1  0  0  0  0
  7  9  1  0  0  0  0
  7 26  1  1  0  0  0
  8 13  1  0  0  0  0
  9 10  1  0  0  0  0
  9 11  1  0  0  0  0
  9 27  1  6  0  0  0
 10 28  1  0  0  0  0
 11 12  1  0  0  0  0
 11 13  1  0  0  0  0
 11 29  1  1  0  0  0
 12 30  1  0  0  0  0
 13 14  1  0  0  0  0
 13 31  1  1  0  0  0
 14 15  1  0  0  0  0
 14 23  1  0  0  0  0
 15 16  2  0  0  0  0
 15 32  1  0  0  0  0
 16 17  1  0  0  0  0
 17 18  1  0  0  0  0
 17 23  2  0  0  0  0
 18 19  2  0  0  0  0
 18 20  1  0  0  0  0
 20 21  1  0  0  0  0
 20 33  1  0  0  0  0
 21 22  2  0  0  0  0
 21 34  1  0  0  0  0
 22 23  1  0  0  0  0
M  END
