1p6e_ligand
 OpenBabel08222323343D

 65 64  0  0  1  0  0  0  0  0999 V2000
   41.5130   21.3400   -4.8090 C   0  0  0  0  0  0  0  0  0  0  0  0
   41.1310   22.6980   -4.1460 C   0  0  0  0  0  0  0  0  0  0  0  0
   40.5620   22.5520   -2.7150 C   0  0  0  0  0  0  0  0  0  0  0  0
   41.3530   23.5270   -1.8280 C   0  0  0  0  0  0  0  0  0  0  0  0
   41.0450   23.6920   -0.3220 C   0  0  0  0  0  0  0  0  0  0  0  0
   41.8350   24.4190    0.3230 O   0  0  0  0  0  0  0  0  0  0  0  0
   39.8940   23.0260    0.4090 O   0  0  0  0  0  0  0  0  0  0  0  0
   39.5420   22.9120    1.8490 C   0  0  0  0  0  0  0  0  0  0  0  0
   39.2150   24.2070    2.6180 C   0  0  1  0  0  0  0  0  0  0  0  0
   38.0140   24.7400    1.9900 O   0  0  0  0  0  0  0  0  0  0  0  0
   37.9040   25.8290    0.9800 C   0  0  0  0  0  0  0  0  0  0  0  0
   38.7270   26.7760    1.0140 O   0  0  0  0  0  0  0  0  0  0  0  0
   36.5150   26.0380    0.2940 C   0  0  0  0  0  0  0  0  0  0  0  0
   36.4540   25.9970   -1.2460 C   0  0  0  0  0  0  0  0  0  0  0  0
   36.7440   24.5750   -1.7910 C   0  0  0  0  0  0  0  0  0  0  0  0
   37.0630   24.5790   -3.3080 C   0  0  0  0  0  0  0  0  0  0  0  0
   39.0260   24.2420    4.1780 C   0  0  0  0  0  0  0  0  0  0  0  0
   39.4480   23.1550    5.0690 O   0  0  0  0  0  0  0  0  0  0  0  0
   40.9100   22.9500    5.8300 P   0  0  1  0  0  0  0  0  0  0  0  0
   41.9920   24.3750    6.1020 S   0  0  0  0  0  0  0  0  0  0  0  0
   40.7560   21.9030    7.4600 S   0  0  0  0  0  0  0  0  0  0  0  0
   41.4750   21.9360    4.6340 O   0  0  0  0  0  0  0  0  0  0  0  0
   42.7790   21.9370    3.9290 C   0  0  0  0  0  0  0  0  0  0  0  0
   43.2030   20.5880    3.2400 C   0  0  0  0  0  0  0  0  0  0  0  0
   42.4160   19.8370    2.0870 N   0  3  0  0  0  0  0  0  0  0  0  0
   43.1230   18.5480    1.7160 C   0  0  0  0  0  0  0  0  0  0  0  0
   40.9950   19.3930    2.4450 C   0  0  0  0  0  0  0  0  0  0  0  0
   42.4610   20.5870    0.7590 C   0  0  0  0  0  0  0  0  0  0  0  0
   41.9080   21.5234   -5.8191 H   0  0  0  0  0  0  0  0  0  0  0  0
   40.6206   20.7002   -4.8749 H   0  0  0  0  0  0  0  0  0  0  0  0
   42.2800   20.8380   -4.2010 H   0  0  0  0  0  0  0  0  0  0  0  0
   40.3725   23.1896   -4.7730 H   0  0  0  0  0  0  0  0  0  0  0  0
   42.0319   23.3274   -4.0991 H   0  0  0  0  0  0  0  0  0  0  0  0
   40.6943   21.5203   -2.3571 H   0  0  0  0  0  0  0  0  0  0  0  0
   39.4928   22.8100   -2.7032 H   0  0  0  0  0  0  0  0  0  0  0  0
   41.2312   24.5229   -2.2789 H   0  0  0  0  0  0  0  0  0  0  0  0
   42.4072   23.2202   -1.8957 H   0  0  0  0  0  0  0  0  0  0  0  0
   40.3934   22.4358    2.3573 H   0  0  0  0  0  0  0  0  0  0  0  0
   38.6603   22.2581    1.9196 H   0  0  0  0  0  0  0  0  0  0  0  0
   40.0504   24.8931    2.4148 H   0  0  0  0  0  0  0  0  0  0  0  0
   36.1391   27.0223    0.6100 H   0  0  0  0  0  0  0  0  0  0  0  0
   35.8436   25.2514    0.6688 H   0  0  0  0  0  0  0  0  0  0  0  0
   37.2020   26.6941   -1.6516 H   0  0  0  0  0  0  0  0  0  0  0  0
   35.4499   26.3062   -1.5719 H   0  0  0  0  0  0  0  0  0  0  0  0
   35.8608   23.9428   -1.6172 H   0  0  0  0  0  0  0  0  0  0  0  0
   37.6059   24.1578   -1.2496 H   0  0  0  0  0  0  0  0  0  0  0  0
   37.2605   23.5503   -3.6438 H   0  0  0  0  0  0  0  0  0  0  0  0
   37.9500   25.2022   -3.4946 H   0  0  0  0  0  0  0  0  0  0  0  0
   36.2049   24.9872   -3.8621 H   0  0  0  0  0  0  0  0  0  0  0  0
   37.9464   24.3677    4.3474 H   0  0  0  0  0  0  0  0  0  0  0  0
   39.5587   25.1395    4.5254 H   0  0  0  0  0  0  0  0  0  0  0  0
   41.6062   24.9540    6.8314 H   0  0  0  0  0  0  0  0  0  0  0  0
   43.5561   22.1964    4.6631 H   0  0  0  0  0  0  0  0  0  0  0  0
   42.7374   22.7121    3.1496 H   0  0  0  0  0  0  0  0  0  0  0  0
   43.2774   19.8580    4.0594 H   0  0  0  0  0  0  0  0  0  0  0  0
   44.2044   20.7789    2.8269 H   0  0  0  0  0  0  0  0  0  0  0  0
   42.5642   18.0406    0.9158 H   0  0  0  0  0  0  0  0  0  0  0  0
   43.1772   17.8926    2.5978 H   0  0  0  0  0  0  0  0  0  0  0  0
   44.1404   18.7757    1.3652 H   0  0  0  0  0  0  0  0  0  0  0  0
   40.3977   20.2712    2.7315 H   0  0  0  0  0  0  0  0  0  0  0  0
   41.0329   18.6852    3.2861 H   0  0  0  0  0  0  0  0  0  0  0  0
   40.5334   18.9038    1.5746 H   0  0  0  0  0  0  0  0  0  0  0  0
   43.4970   20.8862    0.5418 H   0  0  0  0  0  0  0  0  0  0  0  0
   41.8262   21.4831    0.8223 H   0  0  0  0  0  0  0  0  0  0  0  0
   42.0924   19.9324   -0.0445 H   0  0  0  0  0  0  0  0  0  0  0  0
  1  2  1  0  0  0  0
  1 29  1  0  0  0  0
  1 30  1  0  0  0  0
  1 31  1  0  0  0  0
  2  3  1  0  0  0  0
  2 32  1  0  0  0  0
  2 33  1  0  0  0  0
  3  4  1  0  0  0  0
  3 34  1  0  0  0  0
  3 35  1  0  0  0  0
  4  5  1  0  0  0  0
  4 36  1  0  0  0  0
  4 37  1  0  0  0  0
  5  6  2  0  0  0  0
  5  7  1  0  0  0  0
  7  8  1  0  0  0  0
  8  9  1  0  0  0  0
  8 38  1  0  0  0  0
  8 39  1  0  0  0  0
  9 10  1  0  0  0  0
  9 17  1  0  0  0  0
  9 40  1  6  0  0  0
 10 11  1  0  0  0  0
 11 12  2  0  0  0  0
 11 13  1  0  0  0  0
 13 14  1  0  0  0  0
 13 41  1  0  0  0  0
 13 42  1  0  0  0  0
 14 15  1  0  0  0  0
 14 43  1  0  0  0  0
 14 44  1  0  0  0  0
 15 16  1  0  0  0  0
 15 45  1  0  0  0  0
 15 46  1  0  0  0  0
 16 47  1  0  0  0  0
 16 48  1  0  0  0  0
 16 49  1  0  0  0  0
 17 18  1  0  0  0  0
 17 50  1  0  0  0  0
 17 51  1  0  0  0  0
 18 19  1  0  0  0  0
 19 20  1  0  0  0  0
 19 21  2  1  0  0  0
 19 22  1  0  0  0  0
 20 52  1  0  0  0  0
 22 23  1  0  0  0  0
 23 24  1  0  0  0  0
 23 53  1  0  0  0  0
 23 54  1  0  0  0  0
 24 25  1  0  0  0  0
 24 55  1  0  0  0  0
 24 56  1  0  0  0  0
 25 26  1  0  0  0  0
 25 27  1  0  0  0  0
 25 28  1  0  0  0  0
 26 57  1  0  0  0  0
 26 58  1  0  0  0  0
 26 59  1  0  0  0  0
 27 60  1  0  0  0  0
 27 61  1  0  0  0  0
 27 62  1  0  0  0  0
 28 63  1  0  0  0  0
 28 64  1  0  0  0  0
 28 65  1  0  0  0  0
M  CHG  1  25   1
M  END
