1pau_ligand
 OpenBabel08222323343D

 64 63  0  0  1  0  0  0  0  0999 V2000
   41.7980   98.3890   26.8380 C   0  0  0  0  0  0  0  0  0  0  0  0
   40.5880   98.4010   26.6070 O   0  0  0  0  0  0  0  0  0  0  0  0
   42.3080   98.5960   28.2510 C   0  0  0  0  0  0  0  0  0  0  0  0
   42.7160   98.1890   25.9010 N   0  0  0  0  0  0  0  0  0  0  0  0
   42.3630   97.9900   24.5040 C   0  0  2  0  0  0  0  0  0  0  0  0
   41.8710   96.5740   24.2070 C   0  0  0  0  0  0  0  0  0  0  0  0
   42.4600   95.5900   24.6730 O   0  0  0  0  0  0  0  0  0  0  0  0
   43.5540   98.3380   23.6060 C   0  0  0  0  0  0  0  0  0  0  0  0
   43.9000   99.8220   23.6320 C   0  0  0  0  0  0  0  0  0  0  0  0
   43.0170  100.6550   23.9260 O   0  5  0  0  0  0  0  0  0  0  0  0
   45.0610  100.1610   23.3410 O   0  0  0  0  0  0  0  0  0  0  0  0
   40.8040   96.4900   23.4150 N   0  0  0  0  0  0  0  0  0  0  0  0
   40.1920   95.2280   23.0130 C   0  0  2  0  0  0  0  0  0  0  0  0
   39.7660   95.3490   21.5530 C   0  0  0  0  0  0  0  0  0  0  0  0
   39.6060   96.4590   21.0530 O   0  0  0  0  0  0  0  0  0  0  0  0
   38.9780   94.9250   23.8920 C   0  0  0  0  0  0  0  0  0  0  0  0
   39.3260   94.6850   25.3530 C   0  0  0  0  0  0  0  0  0  0  0  0
   38.1240   94.3360   26.2100 C   0  0  0  0  0  0  0  0  0  0  0  0
   37.2110   93.6300   25.7320 O   0  5  0  0  0  0  0  0  0  0  0  0
   38.1000   94.7580   27.3810 O   0  0  0  0  0  0  0  0  0  0  0  0
   39.5800   94.2180   20.8750 N   0  0  0  0  0  0  0  0  0  0  0  0
   39.1860   94.2150   19.4640 C   0  0  2  0  0  0  0  0  0  0  0  0
   37.7060   93.8930   19.2350 C   0  0  0  0  0  0  0  0  0  0  0  0
   37.0550   93.3210   20.1050 O   0  0  0  0  0  0  0  0  0  0  0  0
   40.0460   93.2320   18.6560 C   0  0  0  0  0  0  0  0  0  0  0  0
   41.4810   93.7320   18.5650 C   0  0  0  0  0  0  0  0  0  0  0  0
   40.0030   91.8520   19.2950 C   0  0  0  0  0  0  0  0  0  0  0  0
   37.1930   94.2630   18.0610 N   0  0  0  0  0  0  0  0  0  0  0  0
   35.7910   94.0450   17.6710 C   0  0  2  0  0  0  0  0  0  0  0  0
   35.6730   93.2430   16.3870 C   0  0  0  0  0  0  0  0  0  0  0  0
   35.3140   91.8900   16.7020 O   0  0  0  0  0  0  0  0  0  0  0  0
   35.0860   95.3760   17.4430 C   0  0  0  0  0  0  0  0  0  0  0  0
   34.3850   95.8750   18.6600 C   0  0  0  0  0  0  0  0  0  0  0  0
   34.0670   95.0600   19.5500 O   0  5  0  0  0  0  0  0  0  0  0  0
   34.1280   97.0890   18.7140 O   0  0  0  0  0  0  0  0  0  0  0  0
   43.4071   98.5518   28.2542 H   0  0  0  0  0  0  0  0  0  0  0  0
   41.9074   97.8072   28.9047 H   0  0  0  0  0  0  0  0  0  0  0  0
   41.9795   99.5792   28.6191 H   0  0  0  0  0  0  0  0  0  0  0  0
   43.6808   98.1746   26.1635 H   0  0  0  0  0  0  0  0  0  0  0  0
   41.5420   98.6826   24.2670 H   0  0  0  0  0  0  0  0  0  0  0  0
   43.3099   98.0522   22.5722 H   0  0  0  0  0  0  0  0  0  0  0  0
   44.4300   97.7670   23.9472 H   0  0  0  0  0  0  0  0  0  0  0  0
   40.3993   97.3396   23.0767 H   0  0  0  0  0  0  0  0  0  0  0  0
   40.9248   94.4142   23.1167 H   0  0  0  0  0  0  0  0  0  0  0  0
   38.4819   94.0246   23.5007 H   0  0  0  0  0  0  0  0  0  0  0  0
   38.2865   95.7786   23.8354 H   0  0  0  0  0  0  0  0  0  0  0  0
   39.7878   95.5984   25.7559 H   0  0  0  0  0  0  0  0  0  0  0  0
   40.0459   93.8552   25.4080 H   0  0  0  0  0  0  0  0  0  0  0  0
   39.7133   93.3444   21.3431 H   0  0  0  0  0  0  0  0  0  0  0  0
   39.3681   95.2275   19.0745 H   0  0  0  0  0  0  0  0  0  0  0  0
   39.6352   93.1605   17.6381 H   0  0  0  0  0  0  0  0  0  0  0  0
   42.0822   93.0172   17.9839 H   0  0  0  0  0  0  0  0  0  0  0  0
   41.9012   93.8268   19.5771 H   0  0  0  0  0  0  0  0  0  0  0  0
   41.4966   94.7132   18.0681 H   0  0  0  0  0  0  0  0  0  0  0  0
   38.9601   91.5070   19.3526 H   0  0  0  0  0  0  0  0  0  0  0  0
   40.4286   91.9035   20.3080 H   0  0  0  0  0  0  0  0  0  0  0  0
   40.5891   91.1477   18.6864 H   0  0  0  0  0  0  0  0  0  0  0  0
   37.7977   94.7161   17.4060 H   0  0  0  0  0  0  0  0  0  0  0  0
   35.2859   93.4997   18.4819 H   0  0  0  0  0  0  0  0  0  0  0  0
   36.6373   93.2532   15.8579 H   0  0  0  0  0  0  0  0  0  0  0  0
   34.8982   93.6885   15.7458 H   0  0  0  0  0  0  0  0  0  0  0  0
   35.2401   91.3880   15.8989 H   0  0  0  0  0  0  0  0  0  0  0  0
   34.3462   95.2486   16.6390 H   0  0  0  0  0  0  0  0  0  0  0  0
   35.8343   96.1222   17.1379 H   0  0  0  0  0  0  0  0  0  0  0  0
  1  2  2  0  0  0  0
  1  3  1  0  0  0  0
  1  4  1  0  0  0  0
  3 36  1  0  0  0  0
  3 37  1  0  0  0  0
  3 38  1  0  0  0  0
  4  5  1  0  0  0  0
  4 39  1  0  0  0  0
  5  6  1  0  0  0  0
  5  8  1  0  0  0  0
  5 40  1  6  0  0  0
  6  7  2  0  0  0  0
  6 12  1  0  0  0  0
  8  9  1  0  0  0  0
  8 41  1  0  0  0  0
  8 42  1  0  0  0  0
  9 10  1  0  0  0  0
  9 11  2  0  0  0  0
 12 13  1  0  0  0  0
 12 43  1  0  0  0  0
 13 14  1  0  0  0  0
 13 16  1  0  0  0  0
 13 44  1  1  0  0  0
 14 15  2  0  0  0  0
 14 21  1  0  0  0  0
 16 17  1  0  0  0  0
 16 45  1  0  0  0  0
 16 46  1  0  0  0  0
 17 18  1  0  0  0  0
 17 47  1  0  0  0  0
 17 48  1  0  0  0  0
 18 19  1  0  0  0  0
 18 20  2  0  0  0  0
 21 22  1  0  0  0  0
 21 49  1  0  0  0  0
 22 23  1  0  0  0  0
 22 25  1  0  0  0  0
 22 50  1  6  0  0  0
 23 24  2  0  0  0  0
 23 28  1  0  0  0  0
 25 26  1  0  0  0  0
 25 27  1  0  0  0  0
 25 51  1  0  0  0  0
 26 52  1  0  0  0  0
 26 53  1  0  0  0  0
 26 54  1  0  0  0  0
 27 55  1  0  0  0  0
 27 56  1  0  0  0  0
 27 57  1  0  0  0  0
 28 29  1  0  0  0  0
 28 58  1  0  0  0  0
 29 30  1  0  0  0  0
 29 32  1  0  0  0  0
 29 59  1  1  0  0  0
 30 31  1  0  0  0  0
 30 60  1  0  0  0  0
 30 61  1  0  0  0  0
 31 62  1  0  0  0  0
 32 33  1  0  0  0  0
 32 63  1  0  0  0  0
 32 64  1  0  0  0  0
 33 34  1  0  0  0  0
 33 35  2  0  0  0  0
M  CHG  3  10  -1  19  -1  34  -1
M  END
