1pcg_ligand
 OpenBabel08222323343D

164163  0  0  1  0  0  0  0  0999 V2000
    7.4970   42.9440   -1.0000 N   0  3  0  0  0  0  0  0  0  0  0  0
    6.4070   42.0830   -0.4680 C   0  0  2  0  0  0  0  0  0  0  0  0
    6.1670   40.9230   -1.4040 C   0  0  0  0  0  0  0  0  0  0  0  0
    5.7520   41.1200   -2.5420 O   0  0  0  0  0  0  0  0  0  0  0  0
    5.0830   42.8400   -0.3560 C   0  0  0  0  0  0  0  0  0  0  0  0
    5.0790   44.0400    0.5570 C   0  0  0  0  0  0  0  0  0  0  0  0
    3.6970   44.6700    0.5710 C   0  0  0  0  0  0  0  0  0  0  0  0
    3.6530   45.9110    1.4460 C   0  0  0  0  0  0  0  0  0  0  0  0
    2.2810   46.5020    1.4840 N   0  3  0  0  0  0  0  0  0  0  0  0
    6.4280   39.7110   -0.9260 N   0  0  0  0  0  0  0  0  0  0  0  0
    6.1870   38.5250   -1.7300 C   0  0  1  0  0  0  0  0  0  0  0  0
    7.4410   37.9080   -2.3340 C   0  0  0  0  0  0  0  0  0  0  0  0
    7.4460   36.7680   -2.7770 O   0  0  0  0  0  0  0  0  0  0  0  0
    5.3320   37.5210   -0.9330 C   0  0  0  0  0  0  0  0  0  0  0  0
    6.2230   36.4020    0.1840 S   0  0  0  0  0  0  0  0  0  0  0  0
    8.4920   38.7200   -2.3840 N   0  0  0  0  0  0  0  0  0  0  0  0
    9.7700   38.3470   -2.9800 C   0  0  2  0  0  0  0  0  0  0  0  0
   10.2660   36.9870   -2.5210 C   0  0  0  0  0  0  0  0  0  0  0  0
   10.7850   36.1960   -3.3040 O   0  0  0  0  0  0  0  0  0  0  0  0
   10.8270   39.4370   -2.6780 C   0  0  2  0  0  0  0  0  0  0  0  0
   10.2620   40.8130   -3.0700 C   0  0  0  0  0  0  0  0  0  0  0  0
   12.1180   39.1350   -3.4160 C   0  0  0  0  0  0  0  0  0  0  0  0
   11.1950   41.9610   -2.7430 C   0  0  0  0  0  0  0  0  0  0  0  0
   10.0750   36.7110   -1.2420 N   0  0  0  0  0  0  0  0  0  0  0  0
   10.5160   35.4500   -0.6780 C   0  0  2  0  0  0  0  0  0  0  0  0
    9.8150   34.2200   -1.2320 C   0  0  0  0  0  0  0  0  0  0  0  0
   10.4620   33.2140   -1.5750 O   0  0  0  0  0  0  0  0  0  0  0  0
   10.4060   35.4790    0.8490 C   0  0  0  0  0  0  0  0  0  0  0  0
   10.9410   34.2600    1.6120 C   0  0  0  0  0  0  0  0  0  0  0  0
   12.4430   34.1500    1.4460 C   0  0  0  0  0  0  0  0  0  0  0  0
   10.6190   34.3600    3.0900 C   0  0  0  0  0  0  0  0  0  0  0  0
    8.4930   34.2590   -1.3170 N   0  0  0  0  0  0  0  0  0  0  0  0
    7.7730   33.0980   -1.8430 C   0  0  2  0  0  0  0  0  0  0  0  0
    8.1850   32.7710   -3.2850 C   0  0  0  0  0  0  0  0  0  0  0  0
    8.0550   31.6310   -3.7220 O   0  0  0  0  0  0  0  0  0  0  0  0
    6.2810   33.3690   -1.8390 C   0  0  0  0  0  0  0  0  0  0  0  0
    5.5990   33.8290   -0.2390 S   0  0  0  0  0  0  0  0  0  0  0  0
    8.6610   33.7760   -4.0190 N   0  0  0  0  0  0  0  0  0  0  0  0
    9.0590   33.5910   -5.4210 C   0  0  2  0  0  0  0  0  0  0  0  0
   10.4440   33.0010   -5.4890 C   0  0  0  0  0  0  0  0  0  0  0  0
   10.6810   32.0710   -6.2480 O   0  0  0  0  0  0  0  0  0  0  0  0
    8.9830   34.9170   -6.1810 C   0  0  0  0  0  0  0  0  0  0  0  0
    7.8410   35.7650   -5.6970 C   0  0  0  0  0  0  0  0  0  0  0  0
    7.0840   36.4700   -6.7690 C   0  0  0  0  0  0  0  0  0  0  0  0
    5.9510   37.1730   -6.1770 N   0  0  0  0  0  0  0  0  0  0  0  0
    5.0650   37.8540   -6.8890 C   0  0  0  0  0  3  0  0  0  0  0  0
    5.1960   37.9120   -8.2110 N   0  0  0  0  0  0  0  0  0  0  0  0
    4.0580   38.4760   -6.2940 N   0  0  0  0  0  0  0  0  0  0  0  0
   11.3570   33.5270   -4.6850 N   0  0  0  0  0  0  0  0  0  0  0  0
   12.7200   33.0060   -4.6700 C   0  0  2  0  0  0  0  0  0  0  0  0
   12.7470   31.5320   -4.2480 C   0  0  0  0  0  0  0  0  0  0  0  0
   13.5590   30.7490   -4.7390 O   0  0  0  0  0  0  0  0  0  0  0  0
   13.5930   33.8530   -3.7410 C   0  0  0  0  0  0  0  0  0  0  0  0
   14.0890   35.1160   -4.4350 C   0  0  0  0  0  0  0  0  0  0  0  0
   14.8610   35.9720   -3.4750 C   0  0  0  0  0  0  0  0  0  0  0  0
   14.9770   34.7380   -5.5980 C   0  0  0  0  0  0  0  0  0  0  0  0
   11.8460   31.1530   -3.3500 N   0  0  0  0  0  0  0  0  0  0  0  0
   11.7770   29.7710   -2.8880 C   0  0  2  0  0  0  0  0  0  0  0  0
   11.0740   28.9140   -3.9360 C   0  0  0  0  0  0  0  0  0  0  0  0
   11.1010   27.6830   -3.8730 O   0  0  0  0  0  0  0  0  0  0  0  0
   11.0280   29.7000   -1.5520 C   0  0  0  0  0  0  0  0  0  0  0  0
   11.8060   30.2170   -0.3440 C   0  0  0  0  0  0  0  0  0  0  0  0
   10.9200   30.2290    0.8730 C   0  0  0  0  0  0  0  0  0  0  0  0
   13.0070   29.3390   -0.0750 C   0  0  0  0  0  0  0  0  0  0  0  0
   10.4530   29.5950   -4.8970 N   0  0  0  0  0  0  0  0  0  0  0  0
    9.7220   28.9480   -5.9740 C   0  0  2  0  0  0  0  0  0  0  0  0
   10.7090   28.3560   -6.9540 C   0  0  0  0  0  0  0  0  0  0  0  0
   11.5390   29.1360   -7.5030 O   0  5  0  0  0  0  0  0  0  0  0  0
    8.8080   29.9630   -6.6860 C   0  0  0  0  0  0  0  0  0  0  0  0
    7.9680   29.4140   -7.8430 C   0  0  0  0  0  0  0  0  0  0  0  0
    7.0520   28.2720   -7.4290 C   0  0  0  0  0  0  0  0  0  0  0  0
    7.5100   27.2580   -6.8990 O   0  0  0  0  0  0  0  0  0  0  0  0
    5.7560   28.4290   -7.6770 N   0  0  0  0  0  0  0  0  0  0  0  0
   10.6370   27.1240   -7.1320 O   0  0  0  0  0  0  0  0  0  0  0  0
    7.6524   43.7162   -0.3711 H   0  0  0  0  0  0  0  0  0  0  0  0
    7.2341   43.2970   -1.9068 H   0  0  0  0  0  0  0  0  0  0  0  0
    8.3431   42.4024   -1.0825 H   0  0  0  0  0  0  0  0  0  0  0  0
    6.7008   41.7093    0.5240 H   0  0  0  0  0  0  0  0  0  0  0  0
    4.3232   42.1351    0.0125 H   0  0  0  0  0  0  0  0  0  0  0  0
    4.8063   43.1837   -1.3636 H   0  0  0  0  0  0  0  0  0  0  0  0
    5.8124   44.7761    0.1961 H   0  0  0  0  0  0  0  0  0  0  0  0
    5.3470   43.7246    1.5761 H   0  0  0  0  0  0  0  0  0  0  0  0
    2.9747   43.9359    0.9574 H   0  0  0  0  0  0  0  0  0  0  0  0
    3.4221   44.9489   -0.4569 H   0  0  0  0  0  0  0  0  0  0  0  0
    4.3534   46.6577    1.0438 H   0  0  0  0  0  0  0  0  0  0  0  0
    3.9541   45.6391    2.4684 H   0  0  0  0  0  0  0  0  0  0  0  0
    2.2843   47.3215    2.0709 H   0  0  0  0  0  0  0  0  0  0  0  0
    1.6336   45.8249    1.8561 H   0  0  0  0  0  0  0  0  0  0  0  0
    1.9996   46.7583    0.5507 H   0  0  0  0  0  0  0  0  0  0  0  0
    6.7951   39.6139   -0.0009 H   0  0  0  0  0  0  0  0  0  0  0  0
    5.5748   38.8490   -2.5845 H   0  0  0  0  0  0  0  0  0  0  0  0
    4.7825   36.9017   -1.6573 H   0  0  0  0  0  0  0  0  0  0  0  0
    4.6176   38.0979   -0.3274 H   0  0  0  0  0  0  0  0  0  0  0  0
    5.5637   35.7962    0.6471 H   0  0  0  0  0  0  0  0  0  0  0  0
    8.4018   39.6356   -1.9921 H   0  0  0  0  0  0  0  0  0  0  0  0
    9.6287   38.2981   -4.0698 H   0  0  0  0  0  0  0  0  0  0  0  0
   11.0369   39.4388   -1.5982 H   0  0  0  0  0  0  0  0  0  0  0  0
    9.3158   40.9681   -2.5308 H   0  0  0  0  0  0  0  0  0  0  0  0
   10.0715   40.8161   -4.1534 H   0  0  0  0  0  0  0  0  0  0  0  0
   12.4917   38.1462   -3.1115 H   0  0  0  0  0  0  0  0  0  0  0  0
   12.8680   39.9016   -3.1716 H   0  0  0  0  0  0  0  0  0  0  0  0
   11.9302   39.1381   -4.4998 H   0  0  0  0  0  0  0  0  0  0  0  0
   10.7299   42.9099   -3.0485 H   0  0  0  0  0  0  0  0  0  0  0  0
   12.1441   41.8274   -3.2828 H   0  0  0  0  0  0  0  0  0  0  0  0
   11.3884   41.9793   -1.6603 H   0  0  0  0  0  0  0  0  0  0  0  0
    9.6201   37.3812   -0.6556 H   0  0  0  0  0  0  0  0  0  0  0  0
   11.5813   35.3472   -0.9320 H   0  0  0  0  0  0  0  0  0  0  0  0
    9.3411   35.5872    1.1025 H   0  0  0  0  0  0  0  0  0  0  0  0
   10.9590   36.3610    1.2043 H   0  0  0  0  0  0  0  0  0  0  0  0
   10.4674   33.3549    1.2040 H   0  0  0  0  0  0  0  0  0  0  0  0
   12.8096   33.2723    1.9984 H   0  0  0  0  0  0  0  0  0  0  0  0
   12.9230   35.0579    1.8401 H   0  0  0  0  0  0  0  0  0  0  0  0
   12.6869   34.0399    0.3791 H   0  0  0  0  0  0  0  0  0  0  0  0
    9.5301   34.4404    3.2234 H   0  0  0  0  0  0  0  0  0  0  0  0
   11.1069   35.2509    3.5121 H   0  0  0  0  0  0  0  0  0  0  0  0
   10.9863   33.4612    3.6069 H   0  0  0  0  0  0  0  0  0  0  0  0
    7.9922   35.0737   -1.0246 H   0  0  0  0  0  0  0  0  0  0  0  0
    7.9896   32.2306   -1.2022 H   0  0  0  0  0  0  0  0  0  0  0  0
    5.7673   32.4581   -2.1802 H   0  0  0  0  0  0  0  0  0  0  0  0
    6.0807   34.1890   -2.5443 H   0  0  0  0  0  0  0  0  0  0  0  0
    6.0477   34.6707    0.0868 H   0  0  0  0  0  0  0  0  0  0  0  0
    8.7498   34.6815   -3.6040 H   0  0  0  0  0  0  0  0  0  0  0  0
    8.3589   32.8849   -5.8914 H   0  0  0  0  0  0  0  0  0  0  0  0
    8.8438   34.7077   -7.2519 H   0  0  0  0  0  0  0  0  0  0  0  0
    9.9240   35.4674   -6.0343 H   0  0  0  0  0  0  0  0  0  0  0  0
    8.2455   36.5227   -5.0098 H   0  0  0  0  0  0  0  0  0  0  0  0
    7.1390   35.1150   -5.1542 H   0  0  0  0  0  0  0  0  0  0  0  0
    6.7186   35.7372   -7.5035 H   0  0  0  0  0  0  0  0  0  0  0  0
    7.7441   37.1934   -7.2700 H   0  0  0  0  0  0  0  0  0  0  0  0
    5.8339   37.1382   -5.1543 H   0  0  0  0  0  0  0  0  0  0  0  0
    4.5127   38.4387   -8.7736 H   0  0  0  0  0  0  0  0  0  0  0  0
    5.9808   37.4302   -8.6724 H   0  0  0  0  0  0  0  0  0  0  0  0
    3.9574   38.4304   -5.2699 H   0  0  0  0  0  0  0  0  0  0  0  0
    3.3756   39.0052   -6.8555 H   0  0  0  0  0  0  0  0  0  0  0  0
   11.1098   34.2870   -4.0839 H   0  0  0  0  0  0  0  0  0  0  0  0
   13.1278   33.0774   -5.6891 H   0  0  0  0  0  0  0  0  0  0  0  0
   14.4606   33.2559   -3.4236 H   0  0  0  0  0  0  0  0  0  0  0  0
   13.0021   34.1392   -2.8584 H   0  0  0  0  0  0  0  0  0  0  0  0
   13.2243   35.6842   -4.8084 H   0  0  0  0  0  0  0  0  0  0  0  0
   15.2111   36.8779   -3.9914 H   0  0  0  0  0  0  0  0  0  0  0  0
   15.7263   35.4087   -3.0956 H   0  0  0  0  0  0  0  0  0  0  0  0
   14.2117   36.2571   -2.6341 H   0  0  0  0  0  0  0  0  0  0  0  0
   14.4114   34.1103   -6.3023 H   0  0  0  0  0  0  0  0  0  0  0  0
   15.8487   34.1789   -5.2272 H   0  0  0  0  0  0  0  0  0  0  0  0
   15.3172   35.6496   -6.1111 H   0  0  0  0  0  0  0  0  0  0  0  0
   11.2036   31.8263   -2.9839 H   0  0  0  0  0  0  0  0  0  0  0  0
   12.7989   29.3907   -2.7431 H   0  0  0  0  0  0  0  0  0  0  0  0
   10.7661   28.6483   -1.3638 H   0  0  0  0  0  0  0  0  0  0  0  0
   10.1081   30.2959   -1.6451 H   0  0  0  0  0  0  0  0  0  0  0  0
   12.1485   31.2415   -0.5518 H   0  0  0  0  0  0  0  0  0  0  0  0
   11.4890   30.6026    1.7371 H   0  0  0  0  0  0  0  0  0  0  0  0
   10.5674   29.2078    1.0800 H   0  0  0  0  0  0  0  0  0  0  0  0
   10.0562   30.8854    0.6913 H   0  0  0  0  0  0  0  0  0  0  0  0
   13.6581   29.3267   -0.9615 H   0  0  0  0  0  0  0  0  0  0  0  0
   12.6706   28.3155    0.1471 H   0  0  0  0  0  0  0  0  0  0  0  0
   13.5662   29.7360    0.7851 H   0  0  0  0  0  0  0  0  0  0  0  0
   10.4911   30.5941   -4.8770 H   0  0  0  0  0  0  0  0  0  0  0  0
    9.1013   28.1421   -5.5554 H   0  0  0  0  0  0  0  0  0  0  0  0
    9.4441   30.7673   -7.0841 H   0  0  0  0  0  0  0  0  0  0  0  0
    8.1180   30.3781   -5.9366 H   0  0  0  0  0  0  0  0  0  0  0  0
    8.6483   29.0499   -8.6270 H   0  0  0  0  0  0  0  0  0  0  0  0
    7.3495   30.2304   -8.2442 H   0  0  0  0  0  0  0  0  0  0  0  0
    5.1082   27.7098   -7.4258 H   0  0  0  0  0  0  0  0  0  0  0  0
    5.4285   29.2663   -8.1148 H   0  0  0  0  0  0  0  0  0  0  0  0
  1  2  1  0  0  0  0
  1 75  1  0  0  0  0
  1 76  1  0  0  0  0
  1 77  1  0  0  0  0
  2  3  1  0  0  0  0
  2  5  1  0  0  0  0
  2 78  1  1  0  0  0
  3  4  2  0  0  0  0
  3 10  1  0  0  0  0
  5  6  1  0  0  0  0
  5 79  1  0  0  0  0
  5 80  1  0  0  0  0
  6  7  1  0  0  0  0
  6 81  1  0  0  0  0
  6 82  1  0  0  0  0
  7  8  1  0  0  0  0
  7 83  1  0  0  0  0
  7 84  1  0  0  0  0
  8  9  1  0  0  0  0
  8 85  1  0  0  0  0
  8 86  1  0  0  0  0
  9 87  1  0  0  0  0
  9 88  1  0  0  0  0
  9 89  1  0  0  0  0
 10 11  1  0  0  0  0
 10 90  1  0  0  0  0
 11 12  1  0  0  0  0
 11 14  1  0  0  0  0
 11 91  1  6  0  0  0
 12 13  2  0  0  0  0
 12 16  1  0  0  0  0
 14 15  1  0  0  0  0
 14 92  1  0  0  0  0
 14 93  1  0  0  0  0
 15 94  1  0  0  0  0
 16 17  1  0  0  0  0
 16 95  1  0  0  0  0
 17 18  1  0  0  0  0
 17 20  1  0  0  0  0
 17 96  1  6  0  0  0
 18 19  2  0  0  0  0
 18 24  1  0  0  0  0
 20 21  1  0  0  0  0
 20 22  1  0  0  0  0
 20 97  1  1  0  0  0
 21 23  1  0  0  0  0
 21 98  1  0  0  0  0
 21 99  1  0  0  0  0
 22100  1  0  0  0  0
 22101  1  0  0  0  0
 22102  1  0  0  0  0
 23103  1  0  0  0  0
 23104  1  0  0  0  0
 23105  1  0  0  0  0
 24 25  1  0  0  0  0
 24106  1  0  0  0  0
 25 26  1  0  0  0  0
 25 28  1  0  0  0  0
 25107  1  6  0  0  0
 26 27  2  0  0  0  0
 26 32  1  0  0  0  0
 28 29  1  0  0  0  0
 28108  1  0  0  0  0
 28109  1  0  0  0  0
 29 30  1  0  0  0  0
 29 31  1  0  0  0  0
 29110  1  0  0  0  0
 30111  1  0  0  0  0
 30112  1  0  0  0  0
 30113  1  0  0  0  0
 31114  1  0  0  0  0
 31115  1  0  0  0  0
 31116  1  0  0  0  0
 32 33  1  0  0  0  0
 32117  1  0  0  0  0
 33 34  1  0  0  0  0
 33 36  1  0  0  0  0
 33118  1  1  0  0  0
 34 35  2  0  0  0  0
 34 38  1  0  0  0  0
 36 37  1  0  0  0  0
 36119  1  0  0  0  0
 36120  1  0  0  0  0
 37121  1  0  0  0  0
 38 39  1  0  0  0  0
 38122  1  0  0  0  0
 39 40  1  0  0  0  0
 39 42  1  0  0  0  0
 39123  1  6  0  0  0
 40 41  2  0  0  0  0
 40 49  1  0  0  0  0
 42 43  1  0  0  0  0
 42124  1  0  0  0  0
 42125  1  0  0  0  0
 43 44  1  0  0  0  0
 43126  1  0  0  0  0
 43127  1  0  0  0  0
 44 45  1  0  0  0  0
 44128  1  0  0  0  0
 44129  1  0  0  0  0
 45 46  1  0  0  0  0
 45130  1  0  0  0  0
 46 47  1  0  0  0  0
 46 48  1  0  0  0  0
 47131  1  0  0  0  0
 47132  1  0  0  0  0
 48133  1  0  0  0  0
 48134  1  0  0  0  0
 49 50  1  0  0  0  0
 49135  1  0  0  0  0
 50 51  1  0  0  0  0
 50 53  1  0  0  0  0
 50136  1  6  0  0  0
 51 52  2  0  0  0  0
 51 57  1  0  0  0  0
 53 54  1  0  0  0  0
 53137  1  0  0  0  0
 53138  1  0  0  0  0
 54 55  1  0  0  0  0
 54 56  1  0  0  0  0
 54139  1  0  0  0  0
 55140  1  0  0  0  0
 55141  1  0  0  0  0
 55142  1  0  0  0  0
 56143  1  0  0  0  0
 56144  1  0  0  0  0
 56145  1  0  0  0  0
 57 58  1  0  0  0  0
 57146  1  0  0  0  0
 58 59  1  0  0  0  0
 58 61  1  0  0  0  0
 58147  1  1  0  0  0
 59 60  2  0  0  0  0
 59 65  1  0  0  0  0
 61 62  1  0  0  0  0
 61148  1  0  0  0  0
 61149  1  0  0  0  0
 62 63  1  0  0  0  0
 62 64  1  0  0  0  0
 62150  1  0  0  0  0
 63151  1  0  0  0  0
 63152  1  0  0  0  0
 63153  1  0  0  0  0
 64154  1  0  0  0  0
 64155  1  0  0  0  0
 64156  1  0  0  0  0
 65 66  1  0  0  0  0
 65157  1  0  0  0  0
 66 67  1  0  0  0  0
 66 69  1  0  0  0  0
 66158  1  1  0  0  0
 67 68  1  0  0  0  0
 67 74  2  0  0  0  0
 69 70  1  0  0  0  0
 69159  1  0  0  0  0
 69160  1  0  0  0  0
 70 71  1  0  0  0  0
 70161  1  0  0  0  0
 70162  1  0  0  0  0
 71 72  2  0  0  0  0
 71 73  1  0  0  0  0
 73163  1  0  0  0  0
 73164  1  0  0  0  0
M  CHG  3   1   1   9   1  68  -1
M  END
