1pf8_ligand
 OpenBabel08222323343D

 29 31  0  0  0  0  0  0  0  0999 V2000
    3.9010   30.3180    7.2150 N   0  0  0  0  0  0  0  0  0  0  0  0
    5.0560   29.6930    6.6410 C   0  0  0  0  0  0  0  0  0  0  0  0
    5.1700   28.2990    7.2690 N   0  0  0  0  0  0  0  0  0  0  0  0
    4.1160   28.2410    8.3880 C   0  0  0  0  0  0  0  0  0  0  0  0
    3.2290   29.4650    8.1890 C   0  0  0  0  0  0  0  0  0  0  0  0
    2.3110   29.6900    8.8500 C   0  0  0  0  0  0  0  0  0  0  0  0
    1.5050   30.8550    8.6340 C   0  0  0  0  0  0  0  0  0  0  0  0
    1.6200   31.9830    7.7530 C   0  0  0  0  0  0  0  0  0  0  0  0
    2.4970   32.1600    6.9410 O   0  0  0  0  0  0  0  0  0  0  0  0
    0.6670   32.8760    7.8810 N   0  0  0  0  0  0  0  0  0  0  0  0
   -0.1540   32.3890    8.8880 C   0  0  0  0  0  0  0  0  0  0  0  0
   -1.3500   32.9570    9.4550 C   0  0  0  0  0  0  0  0  0  0  0  0
   -2.0130   32.2650   10.4960 C   0  0  0  0  0  0  0  0  0  0  0  0
   -1.5600   31.0620   10.9950 C   0  0  0  0  0  0  0  0  0  0  0  0
   -2.1500   30.4340   11.9360 O   0  0  0  0  0  0  0  0  0  0  0  0
   -1.7770   29.3650   12.4060 C   0  0  0  0  0  0  0  0  0  0  0  0
   -0.2420   30.4020   10.3910 C   0  0  0  0  0  0  0  0  0  0  0  0
    0.3260   31.1690    9.3710 C   0  0  0  0  0  0  0  0  0  0  0  0
    3.5808   31.2650    6.9671 H   0  0  0  0  0  0  0  0  0  0  0  0
    5.7256   30.1261    5.8994 H   0  0  0  0  0  0  0  0  0  0  0  0
    4.0226   27.4817    9.1630 H   0  0  0  0  0  0  0  0  0  0  0  0
    2.0515   29.0033    9.6544 H   0  0  0  0  0  0  0  0  0  0  0  0
    0.5563   33.7248    7.3640 H   0  0  0  0  0  0  0  0  0  0  0  0
   -1.7368   33.9013    9.0894 H   0  0  0  0  0  0  0  0  0  0  0  0
   -2.9128   32.6978   10.9180 H   0  0  0  0  0  0  0  0  0  0  0  0
   -2.4694   29.0528   13.2017 H   0  0  0  0  0  0  0  0  0  0  0  0
   -0.7662   29.4810   12.8242 H   0  0  0  0  0  0  0  0  0  0  0  0
   -1.7608   28.6019   11.6139 H   0  0  0  0  0  0  0  0  0  0  0  0
    0.1695   29.4597   10.7343 H   0  0  0  0  0  0  0  0  0  0  0  0
  1  2  1  0  0  0  0
  1  5  1  0  0  0  0
  1 19  1  0  0  0  0
  2  3  2  0  0  0  0
  2 20  1  0  0  0  0
  3  4  1  0  0  0  0
  4  5  2  0  0  0  0
  4 21  1  0  0  0  0
  5  6  1  0  0  0  0
  6  7  2  0  0  0  0
  6 22  1  0  0  0  0
  7  8  1  0  0  0  0
  7 18  1  0  0  0  0
  8  9  2  0  0  0  0
  8 10  1  0  0  0  0
 10 11  1  0  0  0  0
 10 23  1  0  0  0  0
 11 12  2  0  0  0  0
 11 18  1  0  0  0  0
 12 13  1  0  0  0  0
 12 24  1  0  0  0  0
 13 14  2  0  0  0  0
 13 25  1  0  0  0  0
 14 15  1  0  0  0  0
 14 17  1  0  0  0  0
 15 16  1  0  0  0  0
 16 26  1  0  0  0  0
 16 27  1  0  0  0  0
 16 28  1  0  0  0  0
 17 18  2  0  0  0  0
 17 29  1  0  0  0  0
M  END
