1ph0_ligand
 OpenBabel08222323343D

 74 76  0  0  1  0  0  0  0  0999 V2000
   35.7330   29.8910   23.4000 O   0  5  0  0  0  0  0  0  0  0  0  0
   34.8130   29.1770   23.7110 C   0  0  0  0  0  0  0  0  0  0  0  0
   33.9700   29.5800   24.5140 O   0  0  0  0  0  0  0  0  0  0  0  0
   34.6800   27.7650   23.0760 C   0  0  0  0  0  0  0  0  0  0  0  0
   34.9130   26.8140   23.8310 O   0  0  0  0  0  0  0  0  0  0  0  0
   34.2610   27.5770   21.7320 N   0  0  0  0  0  0  0  0  0  0  0  0
   33.7830   28.6800   20.9850 C   0  0  0  0  0  0  0  0  0  0  0  0
   32.4670   29.2020   21.3270 C   0  0  0  0  0  0  0  0  0  0  0  0
   31.9220   30.2880   20.6110 C   0  0  0  0  0  0  0  0  0  0  0  0
   32.6710   30.8710   19.5430 C   0  0  0  0  0  0  0  0  0  0  0  0
   33.9820   30.3820   19.1790 C   0  0  0  0  0  0  0  0  0  0  0  0
   34.5480   29.2740   19.9060 C   0  0  0  0  0  0  0  0  0  0  0  0
   31.9990   32.0180   18.7930 C   0  0  0  0  0  0  0  0  0  0  0  0
   31.3680   31.5800   17.4250 C   0  0  2  0  0  0  0  0  0  0  0  0
   30.7180   32.7640   16.8170 N   0  0  0  0  0  0  0  0  0  0  0  0
   30.6570   32.9420   15.4740 C   0  0  0  0  0  0  0  0  0  0  0  0
   31.1040   32.1880   14.6110 O   0  5  0  0  0  0  0  0  0  0  0  0
   29.9480   34.2270   15.0840 O   0  0  0  0  0  0  0  0  0  0  0  0
   30.4820   30.3230   17.5770 C   0  0  0  0  0  0  0  0  0  0  0  0
   30.9580   29.1920   17.4300 O   0  0  0  0  0  0  0  0  0  0  0  0
   29.1930   30.5860   17.9090 N   0  0  0  0  0  0  0  0  0  0  0  0
   28.2650   29.4640   18.1100 C   0  0  0  0  0  0  0  0  0  0  0  0
   27.2510   29.7640   19.2260 C   0  0  0  0  0  0  0  0  0  0  0  0
   27.8670   30.4800   20.4480 C   0  0  0  0  0  0  0  0  0  0  0  0
   26.8440   30.7790   21.5500 C   0  0  0  0  0  0  0  0  0  0  0  0
   26.1580   29.5650   21.9140 O   0  0  0  0  0  0  0  0  0  0  0  0
   24.8550   29.6230   22.4610 C   0  0  0  0  0  0  0  0  0  0  0  0
   24.1590   30.8600   22.6970 C   0  0  0  0  0  0  0  0  0  0  0  0
   22.8510   30.8450   23.2480 C   0  0  0  0  0  0  0  0  0  0  0  0
   22.2330   29.6150   23.5770 C   0  0  0  0  0  0  0  0  0  0  0  0
   22.8880   28.3800   23.3590 C   0  0  0  0  0  0  0  0  0  0  0  0
   22.2910   27.3500   23.6690 O   0  0  0  0  0  0  0  0  0  0  0  0
   24.2140   28.3800   22.8090 C   0  0  0  0  0  0  0  0  0  0  0  0
   24.9200   27.0980   22.5780 C   0  0  0  0  0  0  0  0  0  0  0  0
   25.1690   26.3300   23.4800 O   0  0  0  0  0  0  0  0  0  0  0  0
   25.2450   26.9000   21.2920 O   0  0  0  0  0  0  0  0  0  0  0  0
   25.9560   25.6960   20.8360 C   0  0  0  0  0  0  0  0  0  0  0  0
   34.1930   26.2560   21.1480 C   0  0  0  0  0  0  0  0  0  0  0  0
   32.9200   25.8840   20.5450 C   0  0  0  0  0  0  0  0  0  0  0  0
   32.7270   24.6120   19.9320 C   0  0  0  0  0  0  0  0  0  0  0  0
   33.7930   23.6740   19.8700 C   0  0  0  0  0  0  0  0  0  0  0  0
   35.0570   23.9860   20.4380 C   0  0  0  0  0  0  0  0  0  0  0  0
   35.2910   25.2720   21.0640 C   0  0  0  0  0  0  0  0  0  0  0  0
   36.6650   25.4620   21.6050 C   0  0  0  0  0  0  0  0  0  0  0  0
   37.1900   24.5760   22.2480 O   0  5  0  0  0  0  0  0  0  0  0  0
   37.3150   26.4900   21.4400 O   0  0  0  0  0  0  0  0  0  0  0  0
   31.9031   28.7531   22.1367 H   0  0  0  0  0  0  0  0  0  0  0  0
   30.9435   30.6770   20.8687 H   0  0  0  0  0  0  0  0  0  0  0  0
   34.5332   30.8439   18.3679 H   0  0  0  0  0  0  0  0  0  0  0  0
   35.5294   28.8910   19.6505 H   0  0  0  0  0  0  0  0  0  0  0  0
   32.7520   32.7956   18.5970 H   0  0  0  0  0  0  0  0  0  0  0  0
   31.2020   32.4312   19.4286 H   0  0  0  0  0  0  0  0  0  0  0  0
   32.1920   31.2920   16.7556 H   0  0  0  0  0  0  0  0  0  0  0  0
   30.3113   33.4539   17.4158 H   0  0  0  0  0  0  0  0  0  0  0  0
   28.8789   31.5294   18.0154 H   0  0  0  0  0  0  0  0  0  0  0  0
   28.8416   28.5678   18.3826 H   0  0  0  0  0  0  0  0  0  0  0  0
   27.7202   29.2785   17.1726 H   0  0  0  0  0  0  0  0  0  0  0  0
   26.8151   28.8124   19.5643 H   0  0  0  0  0  0  0  0  0  0  0  0
   26.4579   30.4039   18.8119 H   0  0  0  0  0  0  0  0  0  0  0  0
   28.3067   31.4305   20.1116 H   0  0  0  0  0  0  0  0  0  0  0  0
   28.6562   29.8391   20.8679 H   0  0  0  0  0  0  0  0  0  0  0  0
   26.1145   31.5157   21.1825 H   0  0  0  0  0  0  0  0  0  0  0  0
   27.3628   31.1847   22.4310 H   0  0  0  0  0  0  0  0  0  0  0  0
   24.6337   31.8037   22.4539 H   0  0  0  0  0  0  0  0  0  0  0  0
   22.3245   31.7773   23.4171 H   0  0  0  0  0  0  0  0  0  0  0  0
   21.2370   29.6192   24.0049 H   0  0  0  0  0  0  0  0  0  0  0  0
   22.8370   26.5976   23.4730 H   0  0  0  0  0  0  0  0  0  0  0  0
   26.1130   25.7527   19.7487 H   0  0  0  0  0  0  0  0  0  0  0  0
   25.3573   24.8044   21.0740 H   0  0  0  0  0  0  0  0  0  0  0  0
   26.9294   25.6305   21.3441 H   0  0  0  0  0  0  0  0  0  0  0  0
   32.0995   26.5921   20.5630 H   0  0  0  0  0  0  0  0  0  0  0  0
   31.7611   24.3583   19.5104 H   0  0  0  0  0  0  0  0  0  0  0  0
   33.6407   22.7157   19.3868 H   0  0  0  0  0  0  0  0  0  0  0  0
   35.8557   23.2539   20.4028 H   0  0  0  0  0  0  0  0  0  0  0  0
  1  2  1  0  0  0  0
  2  3  2  0  0  0  0
  2  4  1  0  0  0  0
  4  5  2  0  0  0  0
  4  6  1  0  0  0  0
  6  7  1  0  0  0  0
  6 38  1  0  0  0  0
  7  8  2  0  0  0  0
  7 12  1  0  0  0  0
  8  9  1  0  0  0  0
  8 47  1  0  0  0  0
  9 10  2  0  0  0  0
  9 48  1  0  0  0  0
 10 11  1  0  0  0  0
 10 13  1  0  0  0  0
 11 12  2  0  0  0  0
 11 49  1  0  0  0  0
 12 50  1  0  0  0  0
 13 14  1  0  0  0  0
 13 51  1  0  0  0  0
 13 52  1  0  0  0  0
 14 15  1  0  0  0  0
 14 19  1  0  0  0  0
 14 53  1  6  0  0  0
 15 16  1  0  0  0  0
 15 54  1  0  0  0  0
 16 17  1  0  0  0  0
 16 18  2  0  0  0  0
 19 20  2  0  0  0  0
 19 21  1  0  0  0  0
 21 22  1  0  0  0  0
 21 55  1  0  0  0  0
 22 23  1  0  0  0  0
 22 56  1  0  0  0  0
 22 57  1  0  0  0  0
 23 24  1  0  0  0  0
 23 58  1  0  0  0  0
 23 59  1  0  0  0  0
 24 25  1  0  0  0  0
 24 60  1  0  0  0  0
 24 61  1  0  0  0  0
 25 26  1  0  0  0  0
 25 62  1  0  0  0  0
 25 63  1  0  0  0  0
 26 27  1  0  0  0  0
 27 28  2  0  0  0  0
 27 33  1  0  0  0  0
 28 29  1  0  0  0  0
 28 64  1  0  0  0  0
 29 30  2  0  0  0  0
 29 65  1  0  0  0  0
 30 31  1  0  0  0  0
 30 66  1  0  0  0  0
 31 32  1  0  0  0  0
 31 33  2  0  0  0  0
 32 67  1  0  0  0  0
 33 34  1  0  0  0  0
 34 35  2  0  0  0  0
 34 36  1  0  0  0  0
 36 37  1  0  0  0  0
 37 68  1  0  0  0  0
 37 69  1  0  0  0  0
 37 70  1  0  0  0  0
 38 39  2  0  0  0  0
 38 43  1  0  0  0  0
 39 40  1  0  0  0  0
 39 71  1  0  0  0  0
 40 41  2  0  0  0  0
 40 72  1  0  0  0  0
 41 42  1  0  0  0  0
 41 73  1  0  0  0  0
 42 43  2  0  0  0  0
 42 74  1  0  0  0  0
 43 44  1  0  0  0  0
 44 45  1  0  0  0  0
 44 46  2  0  0  0  0
M  CHG  3   1  -1  17  -1  45  -1
M  END
