1pig_ligand
 OpenBabel08222323343D

131136  0  0  1  0  0  0  0  0999 V2000
   30.2535   19.7684   62.4280 H   0  0  0  0  0  0  0  0  0  0  0  0
   30.4877   20.3241   64.7821 H   0  0  0  0  0  0  0  0  0  0  0  0
   33.4731   19.8434   64.3348 H   0  0  0  0  0  0  0  0  0  0  0  0
   31.3753   18.3759   65.9641 H   0  0  0  0  0  0  0  0  0  0  0  0
   32.9734   17.5519   63.5198 H   0  0  0  0  0  0  0  0  0  0  0  0
   31.5271   15.5523   63.4903 H   0  0  0  0  0  0  0  0  0  0  0  0
   30.7829   16.0620   65.0436 H   0  0  0  0  0  0  0  0  0  0  0  0
   32.5211   15.6129   64.9852 H   0  0  0  0  0  0  0  0  0  0  0  0
   32.4351   21.6569   63.1850 H   0  0  0  0  0  0  0  0  0  0  0  0
   31.1640   19.4360   62.9480 C   0  0  2  0  0  0  0  0  0  0  0  0
   31.3900   20.3290   64.1530 C   0  0  1  0  0  0  0  0  0  0  0  0
   32.5680   19.8100   64.9590 C   0  0  2  0  0  0  0  0  0  0  0  0
   32.3190   18.3690   65.3990 C   0  0  1  0  0  0  0  0  0  0  0  0
   32.0610   17.5350   64.1340 C   0  0  1  0  0  0  0  0  0  0  0  0
   31.6980   16.0910   64.4340 C   0  0  0  0  0  0  0  0  0  0  0  0
   31.6570   21.6510   63.7300 O   0  0  0  0  0  0  0  0  0  0  0  0
   32.7570   20.6270   66.0980 O   0  0  0  0  0  0  0  0  0  0  0  0
   33.2190   17.8640   66.2420 N   0  3  0  0  0  0  0  0  0  0  0  0
   30.9640   18.0940   63.3800 O   0  0  0  0  0  0  0  0  0  0  0  0
   32.3980   20.6640   57.9240 C   0  0  2  0  0  0  0  0  0  0  0  0
   32.5430   21.7770   58.9870 C   0  0  1  0  0  0  0  0  0  0  0  0
   32.9040   21.2340   60.3780 C   0  0  2  0  0  0  0  0  0  0  0  0
   31.9360   20.1060   60.7530 C   0  0  1  0  0  0  0  0  0  0  0  0
   32.0600   19.0340   59.6860 C   0  0  1  0  0  0  0  0  0  0  0  0
   31.2400   17.7890   59.9710 C   0  0  0  0  0  0  0  0  0  0  0  0
   33.5450   22.6940   58.5730 O   0  0  0  0  0  0  0  0  0  0  0  0
   32.8340   22.2850   61.3330 O   0  0  0  0  0  0  0  0  0  0  0  0
   32.2470   19.5580   62.0570 O   0  0  0  0  0  0  0  0  0  0  0  0
   31.6290   19.5680   58.4120 O   0  0  0  0  0  0  0  0  0  0  0  0
   29.8870   18.1100   60.2460 O   0  0  0  0  0  0  0  0  0  0  0  0
   35.9770   20.0930   54.2750 C   0  0  2  0  0  0  0  0  0  0  0  0
   34.6580   20.7910   53.8760 C   0  0  2  0  0  0  0  0  0  0  0  0
   34.8680   21.8980   53.0220 O   0  0  0  0  0  0  0  0  0  0  0  0
   33.9720   21.1780   55.2030 C   0  0  1  0  0  0  0  0  0  0  0  0
   32.7250   21.8060   54.9510 O   0  0  0  0  0  0  0  0  0  0  0  0
   33.7920   19.8860   56.1020 C   0  0  2  0  0  0  0  0  0  0  0  0
   33.6630   20.2740   57.4410 O   0  0  0  0  0  0  0  0  0  0  0  0
   34.8690   18.7750   56.0490 C   0  0  0  0  0  0  0  0  0  0  0  0
   35.9030   18.8840   55.1900 C   0  0  0  0  0  0  0  0  0  0  0  0
   34.7570   17.5630   56.9690 C   0  0  0  0  0  0  0  0  0  0  0  0
   33.8750   16.6550   56.3670 O   0  0  0  0  0  0  0  0  0  0  0  0
   40.2830   21.1060   57.3990 C   0  0  2  0  0  0  0  0  0  0  0  0
   40.1680   19.9470   56.4110 C   0  0  1  0  0  0  0  0  0  0  0  0
   39.2120   20.2560   55.2510 C   0  0  2  0  0  0  0  0  0  0  0  0
   37.8550   20.7480   55.7780 C   0  0  1  0  0  0  0  0  0  0  0  0
   38.1450   21.9800   56.6640 C   0  0  1  0  0  0  0  0  0  0  0  0
   36.9090   22.6060   57.2950 C   0  0  0  0  0  0  0  0  0  0  0  0
   41.4500   19.6520   55.8880 O   0  0  0  0  0  0  0  0  0  0  0  0
   39.0350   19.0830   54.4700 O   0  0  0  0  0  0  0  0  0  0  0  0
   36.9680   21.1080   54.6700 N   0  3  0  0  0  0  0  0  0  0  0  0
   39.0050   21.6110   57.7590 O   0  0  0  0  0  0  0  0  0  0  0  0
   44.4520   24.2080   58.4510 C   0  0  2  0  0  0  0  0  0  0  0  0
   44.7270   22.8750   57.7670 C   0  0  1  0  0  0  0  0  0  0  0  0
   43.5410   22.4230   56.9180 C   0  0  2  0  0  0  0  0  0  0  0  0
   42.2580   22.4670   57.7330 C   0  0  1  0  0  0  0  0  0  0  0  0
   42.0850   23.8800   58.2810 C   0  0  1  0  0  0  0  0  0  0  0  0
   40.8480   24.0610   59.1320 C   0  0  0  0  0  0  0  0  0  0  0  0
   45.8710   23.0060   56.9400 O   0  0  0  0  0  0  0  0  0  0  0  0
   43.7590   21.1000   56.4610 O   0  0  0  0  0  0  0  0  0  0  0  0
   41.1340   22.1000   56.8960 O   0  0  0  0  0  0  0  0  0  0  0  0
   43.2020   24.2000   59.1180 O   0  0  0  0  0  0  0  0  0  0  0  0
   40.9880   23.3720   60.3650 O   0  0  0  0  0  0  0  0  0  0  0  0
   46.5630   28.9230   57.4410 C   0  0  2  0  0  0  0  0  0  0  0  0
   47.3930   27.6390   57.3160 C   0  0  1  0  0  0  0  0  0  0  0  0
   46.4980   26.5100   56.8430 C   0  0  2  0  0  0  0  0  0  0  0  0
   45.4270   26.3210   57.8970 C   0  0  1  0  0  0  0  0  0  0  0  0
   44.6500   27.6270   58.0810 C   0  0  1  0  0  0  0  0  0  0  0  0
   43.6400   27.5170   59.2070 C   0  0  0  0  0  0  0  0  0  0  0  0
   47.3840   29.9010   57.9900 O   0  0  0  0  0  0  0  0  0  0  0  0
   48.4660   27.8100   56.4090 O   0  0  0  0  0  0  0  0  0  0  0  0
   47.2660   25.3240   56.6900 O   0  0  0  0  0  0  0  0  0  0  0  0
   44.5420   25.2470   57.5180 O   0  0  0  0  0  0  0  0  0  0  0  0
   45.5550   28.6970   58.4340 O   0  0  0  0  0  0  0  0  0  0  0  0
   44.2230   26.8900   60.3420 O   0  0  0  0  0  0  0  0  0  0  0  0
   32.9306   21.5191   65.8212 H   0  0  0  0  0  0  0  0  0  0  0  0
   33.3181   18.4781   67.0351 H   0  0  0  0  0  0  0  0  0  0  0  0
   34.1066   17.7756   65.7726 H   0  0  0  0  0  0  0  0  0  0  0  0
   32.9131   16.9564   66.5561 H   0  0  0  0  0  0  0  0  0  0  0  0
   31.8443   21.0907   57.0747 H   0  0  0  0  0  0  0  0  0  0  0  0
   31.5821   22.3070   59.0629 H   0  0  0  0  0  0  0  0  0  0  0  0
   33.9291   20.8358   60.3568 H   0  0  0  0  0  0  0  0  0  0  0  0
   30.9074   20.4957   60.7677 H   0  0  0  0  0  0  0  0  0  0  0  0
   33.1186   18.7430   59.6170 H   0  0  0  0  0  0  0  0  0  0  0  0
   31.6683   17.2703   60.8414 H   0  0  0  0  0  0  0  0  0  0  0  0
   31.2790   17.1267   59.0936 H   0  0  0  0  0  0  0  0  0  0  0  0
   33.6352   23.3786   59.2254 H   0  0  0  0  0  0  0  0  0  0  0  0
   33.0577   21.9463   62.1919 H   0  0  0  0  0  0  0  0  0  0  0  0
   29.5094   18.5543   59.4960 H   0  0  0  0  0  0  0  0  0  0  0  0
   36.3589   19.6738   53.3324 H   0  0  0  0  0  0  0  0  0  0  0  0
   34.0200   20.0730   53.3399 H   0  0  0  0  0  0  0  0  0  0  0  0
   35.4216   22.5339   53.4599 H   0  0  0  0  0  0  0  0  0  0  0  0
   34.6167   21.8902   55.7389 H   0  0  0  0  0  0  0  0  0  0  0  0
   32.8626   22.5756   54.4113 H   0  0  0  0  0  0  0  0  0  0  0  0
   32.8483   19.4205   55.7814 H   0  0  0  0  0  0  0  0  0  0  0  0
   36.6739   18.1156   55.1533 H   0  0  0  0  0  0  0  0  0  0  0  0
   34.3663   17.8713   57.9500 H   0  0  0  0  0  0  0  0  0  0  0  0
   35.7451   17.0970   57.0978 H   0  0  0  0  0  0  0  0  0  0  0  0
   33.7859   15.8877   56.9200 H   0  0  0  0  0  0  0  0  0  0  0  0
   40.7458   20.7137   58.3165 H   0  0  0  0  0  0  0  0  0  0  0  0
   39.7878   19.0669   56.9503 H   0  0  0  0  0  0  0  0  0  0  0  0
   39.6544   21.0434   54.6232 H   0  0  0  0  0  0  0  0  0  0  0  0
   37.3786   19.9589   56.3783 H   0  0  0  0  0  0  0  0  0  0  0  0
   38.6447   22.7359   56.0403 H   0  0  0  0  0  0  0  0  0  0  0  0
   37.2072   23.4714   57.9050 H   0  0  0  0  0  0  0  0  0  0  0  0
   36.4068   21.8636   57.9326 H   0  0  0  0  0  0  0  0  0  0  0  0
   36.2200   22.9354   56.5033 H   0  0  0  0  0  0  0  0  0  0  0  0
   41.7932   20.4180   55.4431 H   0  0  0  0  0  0  0  0  0  0  0  0
   38.4437   19.2694   53.7503 H   0  0  0  0  0  0  0  0  0  0  0  0
   37.5438   21.3047   53.8664 H   0  0  0  0  0  0  0  0  0  0  0  0
   36.4661   21.9408   54.9358 H   0  0  0  0  0  0  0  0  0  0  0  0
   45.2320   24.3675   59.2101 H   0  0  0  0  0  0  0  0  0  0  0  0
   44.9210   22.1143   58.5375 H   0  0  0  0  0  0  0  0  0  0  0  0
   43.4418   23.0948   56.0526 H   0  0  0  0  0  0  0  0  0  0  0  0
   42.3293   21.7575   58.5706 H   0  0  0  0  0  0  0  0  0  0  0  0
   42.0401   24.5786   57.4325 H   0  0  0  0  0  0  0  0  0  0  0  0
   39.9759   23.6635   58.5922 H   0  0  0  0  0  0  0  0  0  0  0  0
   40.6990   25.1325   59.3310 H   0  0  0  0  0  0  0  0  0  0  0  0
   46.6183   23.2533   57.4719 H   0  0  0  0  0  0  0  0  0  0  0  0
   43.0193   20.8225   55.9334 H   0  0  0  0  0  0  0  0  0  0  0  0
   41.7393   23.7149   60.8346 H   0  0  0  0  0  0  0  0  0  0  0  0
   46.1365   29.2284   56.4741 H   0  0  0  0  0  0  0  0  0  0  0  0
   47.8031   27.3837   58.3042 H   0  0  0  0  0  0  0  0  0  0  0  0
   46.0345   26.7721   55.8805 H   0  0  0  0  0  0  0  0  0  0  0  0
   45.9087   26.0594   58.8507 H   0  0  0  0  0  0  0  0  0  0  0  0
   44.1312   27.8700   57.1420 H   0  0  0  0  0  0  0  0  0  0  0  0
   42.7813   26.9203   58.8656 H   0  0  0  0  0  0  0  0  0  0  0  0
   43.2985   28.5247   59.4862 H   0  0  0  0  0  0  0  0  0  0  0  0
   47.7548   29.5812   58.8041 H   0  0  0  0  0  0  0  0  0  0  0  0
   48.9620   27.0018   56.3510 H   0  0  0  0  0  0  0  0  0  0  0  0
   46.7023   24.6191   56.3937 H   0  0  0  0  0  0  0  0  0  0  0  0
   44.5167   26.0182   60.1048 H   0  0  0  0  0  0  0  0  0  0  0  0
 10  1  1  6  0  0  0
 10 19  1  0  0  0  0
 10 11  1  0  0  0  0
 11  2  1  1  0  0  0
 11 16  1  0  0  0  0
 11 12  1  0  0  0  0
 12  3  1  6  0  0  0
 12 17  1  0  0  0  0
 12 13  1  0  0  0  0
 13  4  1  1  0  0  0
 13 18  1  0  0  0  0
 14  5  1  6  0  0  0
 14 13  1  0  0  0  0
 14 15  1  0  0  0  0
 15  6  1  0  0  0  0
 15  7  1  0  0  0  0
 15  8  1  0  0  0  0
 16  9  1  0  0  0  0
 17 75  1  0  0  0  0
 18 76  1  0  0  0  0
 18 77  1  0  0  0  0
 18 78  1  0  0  0  0
 19 14  1  0  0  0  0
 20 29  1  0  0  0  0
 20 21  1  0  0  0  0
 20 79  1  6  0  0  0
 21 26  1  0  0  0  0
 21 22  1  0  0  0  0
 21 80  1  1  0  0  0
 22 27  1  0  0  0  0
 22 23  1  0  0  0  0
 22 81  1  6  0  0  0
 23 28  1  0  0  0  0
 23 82  1  1  0  0  0
 24 23  1  0  0  0  0
 24 25  1  0  0  0  0
 24 83  1  6  0  0  0
 25 30  1  0  0  0  0
 25 84  1  0  0  0  0
 25 85  1  0  0  0  0
 26 86  1  0  0  0  0
 27 87  1  0  0  0  0
 28 10  1  0  0  0  0
 29 24  1  0  0  0  0
 30 88  1  0  0  0  0
 31 39  1  0  0  0  0
 31 32  1  0  0  0  0
 31 89  1  6  0  0  0
 32 34  1  0  0  0  0
 32 33  1  0  0  0  0
 32 90  1  6  0  0  0
 33 91  1  0  0  0  0
 34 36  1  0  0  0  0
 34 35  1  0  0  0  0
 34 92  1  1  0  0  0
 35 93  1  0  0  0  0
 36 37  1  0  0  0  0
 36 94  1  6  0  0  0
 37 20  1  0  0  0  0
 38 36  1  0  0  0  0
 38 40  1  0  0  0  0
 39 38  2  0  0  0  0
 39 95  1  0  0  0  0
 40 41  1  0  0  0  0
 40 96  1  0  0  0  0
 40 97  1  0  0  0  0
 41 98  1  0  0  0  0
 42 51  1  0  0  0  0
 42 43  1  0  0  0  0
 42 99  1  1  0  0  0
 43 48  1  0  0  0  0
 43 44  1  0  0  0  0
 43100  1  1  0  0  0
 44 49  1  0  0  0  0
 44 45  1  0  0  0  0
 44101  1  6  0  0  0
 45 50  1  0  0  0  0
 45102  1  1  0  0  0
 46 45  1  0  0  0  0
 46 47  1  0  0  0  0
 46103  1  6  0  0  0
 47104  1  0  0  0  0
 47105  1  0  0  0  0
 47106  1  0  0  0  0
 48107  1  0  0  0  0
 49108  1  0  0  0  0
 50109  1  0  0  0  0
 50110  1  0  0  0  0
 50 31  1  0  0  0  0
 51 46  1  0  0  0  0
 52 61  1  0  0  0  0
 52 53  1  0  0  0  0
 52111  1  1  0  0  0
 53 58  1  0  0  0  0
 53 54  1  0  0  0  0
 53112  1  1  0  0  0
 54 59  1  0  0  0  0
 54 55  1  0  0  0  0
 54113  1  6  0  0  0
 55 60  1  0  0  0  0
 55114  1  1  0  0  0
 56 55  1  0  0  0  0
 56 57  1  0  0  0  0
 56115  1  6  0  0  0
 57 62  1  0  0  0  0
 57116  1  0  0  0  0
 57117  1  0  0  0  0
 58118  1  0  0  0  0
 59119  1  0  0  0  0
 60 42  1  0  0  0  0
 61 56  1  0  0  0  0
 62120  1  0  0  0  0
 63 69  1  0  0  0  0
 63121  1  6  0  0  0
 64 63  1  0  0  0  0
 64 70  1  0  0  0  0
 64122  1  1  0  0  0
 65 64  1  0  0  0  0
 65 71  1  0  0  0  0
 65123  1  6  0  0  0
 66 65  1  0  0  0  0
 66 67  1  0  0  0  0
 66124  1  1  0  0  0
 67 73  1  0  0  0  0
 67 68  1  0  0  0  0
 67125  1  6  0  0  0
 68 74  1  0  0  0  0
 68126  1  0  0  0  0
 68127  1  0  0  0  0
 69128  1  0  0  0  0
 70129  1  0  0  0  0
 71130  1  0  0  0  0
 72 66  1  0  0  0  0
 72 52  1  0  0  0  0
 73 63  1  0  0  0  0
 74131  1  0  0  0  0
M  CHG  2  18   1  50   1
M  END
