1pmv_ligand
 OpenBabel08222323343D

 25 28  0  0  0  0  0  0  0  0999 V2000
   22.0160   31.2900   21.1280 C   0  0  0  0  0  0  0  0  0  0  0  0
   20.9120   31.0090   20.2710 C   0  0  0  0  0  0  0  0  0  0  0  0
   20.5290   29.6810   20.0120 C   0  0  0  0  0  0  0  0  0  0  0  0
   21.2620   28.5800   20.6290 C   0  0  0  0  0  0  0  0  0  0  0  0
   22.3660   28.8830   21.4850 C   0  0  0  0  0  0  0  0  0  0  0  0
   22.7460   30.2330   21.7350 C   0  0  0  0  0  0  0  0  0  0  0  0
   19.0570   28.0060   18.9170 C   0  0  0  0  0  0  0  0  0  0  0  0
   17.9800   27.8110   18.0860 C   0  0  0  0  0  0  0  0  0  0  0  0
   17.4970   26.5440   17.7530 C   0  0  0  0  0  0  0  0  0  0  0  0
   18.1490   25.3890   18.3050 C   0  0  0  0  0  0  0  0  0  0  0  0
   19.2700   25.5310   19.1790 C   0  0  0  0  0  0  0  0  0  0  0  0
   19.7410   26.8480   19.4980 C   0  0  0  0  0  0  0  0  0  0  0  0
   20.8910   27.1380   20.3990 C   0  0  0  0  0  0  0  0  0  0  0  0
   19.3570   29.3720   19.1110 C   0  0  0  0  0  0  0  0  0  0  0  0
   21.5220   26.2160   20.9300 O   0  0  0  0  0  0  0  0  0  0  0  0
   18.4490   30.0980   18.3710 N   0  0  0  0  0  0  0  0  0  0  0  0
   17.6370   29.1070   17.7700 N   0  0  0  0  0  0  0  0  0  0  0  0
   22.3008   32.3185   21.3181 H   0  0  0  0  0  0  0  0  0  0  0  0
   20.3635   31.8255   19.8154 H   0  0  0  0  0  0  0  0  0  0  0  0
   22.9207   28.0758   21.9495 H   0  0  0  0  0  0  0  0  0  0  0  0
   23.5862   30.4523   22.3838 H   0  0  0  0  0  0  0  0  0  0  0  0
   16.6461   26.4339   17.0905 H   0  0  0  0  0  0  0  0  0  0  0  0
   17.7862   24.3985   18.0555 H   0  0  0  0  0  0  0  0  0  0  0  0
   19.7575   24.6567   19.5950 H   0  0  0  0  0  0  0  0  0  0  0  0
   16.8511   29.3369   17.1452 H   0  0  0  0  0  0  0  0  0  0  0  0
  1  6  1  0  0  0  0
  1 18  1  0  0  0  0
  2  1  2  0  0  0  0
  2 19  1  0  0  0  0
  3  2  1  0  0  0  0
  3  4  2  0  0  0  0
  4  5  1  0  0  0  0
  4 13  1  0  0  0  0
  5  6  2  0  0  0  0
  5 20  1  0  0  0  0
  6 21  1  0  0  0  0
  7  8  2  0  0  0  0
  7 12  1  0  0  0  0
  8  9  1  0  0  0  0
  8 17  1  0  0  0  0
  9 10  2  0  0  0  0
  9 22  1  0  0  0  0
 10 11  1  0  0  0  0
 10 23  1  0  0  0  0
 11 12  2  0  0  0  0
 11 24  1  0  0  0  0
 12 13  1  0  0  0  0
 13 15  2  0  0  0  0
 14  3  1  0  0  0  0
 14  7  1  0  0  0  0
 14 16  2  0  0  0  0
 16 17  1  0  0  0  0
 17 25  1  0  0  0  0
M  END
