1pop_ligand
 OpenBabel08222323343D

 71 70  0  0  1  0  0  0  0  0999 V2000
   18.1090   68.4890   20.9420 C   0  0  0  0  0  0  0  0  0  0  0  0
   18.4260   68.6970   19.7590 O   0  0  0  0  0  0  0  0  0  0  0  0
   17.2150   67.3360   21.3560 C   0  0  0  0  0  0  0  0  0  0  0  0
   18.4390   69.2520   21.9840 N   0  0  0  0  0  0  0  0  0  0  0  0
   19.3980   70.3440   21.8930 C   0  0  2  0  0  0  0  0  0  0  0  0
   20.8050   69.7210   21.9520 C   0  0  0  0  0  0  0  0  0  0  0  0
   21.0500   68.7570   22.7010 O   0  0  0  0  0  0  0  0  0  0  0  0
   19.2100   71.3170   23.0690 C   0  0  0  0  0  0  0  0  0  0  0  0
   18.4410   72.5990   22.7690 C   0  0  0  0  0  0  0  0  0  0  0  0
   17.0440   72.3170   22.2550 C   0  0  0  0  0  0  0  0  0  0  0  0
   18.3480   73.3840   24.0720 C   0  0  0  0  0  0  0  0  0  0  0  0
   17.0749   67.3541   22.4469 H   0  0  0  0  0  0  0  0  0  0  0  0
   21.7030   70.2520   21.1320 N   0  0  0  0  0  0  0  0  0  0  0  0
   23.0830   69.7930   21.0930 C   0  0  2  0  0  0  0  0  0  0  0  0
   23.8410   70.9130   21.7800 C   0  0  0  0  0  0  0  0  0  0  0  0
   23.4470   72.0710   21.6410 O   0  0  0  0  0  0  0  0  0  0  0  0
   23.5640   69.6140   19.6350 C   0  0  0  0  0  0  0  0  0  0  0  0
   22.9140   68.5270   18.7280 C   0  0  0  0  0  0  0  0  0  0  0  0
   22.8360   67.2150   19.5150 C   0  0  0  0  0  0  0  0  0  0  0  0
   21.4890   68.9040   18.3240 C   0  0  0  0  0  0  0  0  0  0  0  0
   17.6834   66.3850   21.0623 H   0  0  0  0  0  0  0  0  0  0  0  0
   24.8150   70.4970   22.5850 N   0  0  0  0  0  0  0  0  0  0  0  0
   25.7070   71.3740   23.3310 C   0  0  2  0  0  0  0  0  0  0  0  0
   27.1860   71.1710   22.9740 C   0  0  0  0  0  0  0  0  0  0  0  0
   28.0600   72.1980   23.4900 O   0  0  0  0  0  0  0  0  0  0  0  0
   25.5290   71.1390   24.8290 C   0  0  0  0  0  0  0  0  0  0  0  0
   24.4710   72.0230   25.4630 C   0  0  0  0  0  0  0  0  0  0  0  0
   23.2980   71.2940   26.0920 C   0  0  0  0  0  0  0  0  0  0  0  0
   23.6370   70.5240   27.2910 N   0  0  0  0  0  0  0  0  0  0  0  0
   23.2540   69.2280   27.4570 C   0  0  0  0  0  3  0  0  0  0  0  0
   22.5280   68.5910   26.5020 N   0  0  0  0  0  0  0  0  0  0  0  0
   23.5910   68.5640   28.5830 N   0  0  0  0  0  0  0  0  0  0  0  0
   16.2383   67.4326   20.8592 H   0  0  0  0  0  0  0  0  0  0  0  0
   18.0089   69.0662   22.8675 H   0  0  0  0  0  0  0  0  0  0  0  0
   19.2636   70.8846   20.9445 H   0  0  0  0  0  0  0  0  0  0  0  0
   20.2088   71.6023   23.4309 H   0  0  0  0  0  0  0  0  0  0  0  0
   18.6710   70.7813   23.8643 H   0  0  0  0  0  0  0  0  0  0  0  0
   18.9879   73.1852   22.0158 H   0  0  0  0  0  0  0  0  0  0  0  0
   16.5288   73.2677   22.0529 H   0  0  0  0  0  0  0  0  0  0  0  0
   16.4825   71.7493   23.0116 H   0  0  0  0  0  0  0  0  0  0  0  0
   17.1063   71.7293   21.3272 H   0  0  0  0  0  0  0  0  0  0  0  0
   19.3607   73.5908   24.4485 H   0  0  0  0  0  0  0  0  0  0  0  0
   17.7933   72.7942   24.8166 H   0  0  0  0  0  0  0  0  0  0  0  0
   17.8230   74.3336   23.8913 H   0  0  0  0  0  0  0  0  0  0  0  0
   21.4220   70.9919   20.5208 H   0  0  0  0  0  0  0  0  0  0  0  0
   23.1997   68.8446   21.6378 H   0  0  0  0  0  0  0  0  0  0  0  0
   24.6394   69.3875   19.6810 H   0  0  0  0  0  0  0  0  0  0  0  0
   23.4139   70.5798   19.1303 H   0  0  0  0  0  0  0  0  0  0  0  0
   23.5283   68.3918   17.8256 H   0  0  0  0  0  0  0  0  0  0  0  0
   22.3784   66.4370   18.8863 H   0  0  0  0  0  0  0  0  0  0  0  0
   22.2243   67.3642   20.4169 H   0  0  0  0  0  0  0  0  0  0  0  0
   23.8492   66.9016   19.8068 H   0  0  0  0  0  0  0  0  0  0  0  0
   21.5061   69.8451   17.7547 H   0  0  0  0  0  0  0  0  0  0  0  0
   20.8738   69.0328   19.2267 H   0  0  0  0  0  0  0  0  0  0  0  0
   21.0615   68.1056   17.6997 H   0  0  0  0  0  0  0  0  0  0  0  0
   24.9441   69.5104   22.6852 H   0  0  0  0  0  0  0  0  0  0  0  0
   25.4356   72.4143   23.0983 H   0  0  0  0  0  0  0  0  0  0  0  0
   27.2786   71.1563   21.8780 H   0  0  0  0  0  0  0  0  0  0  0  0
   27.5109   70.2027   23.3825 H   0  0  0  0  0  0  0  0  0  0  0  0
   28.9547   72.0096   23.2324 H   0  0  0  0  0  0  0  0  0  0  0  0
   26.4896   71.3346   25.3279 H   0  0  0  0  0  0  0  0  0  0  0  0
   25.2424   70.0884   24.9842 H   0  0  0  0  0  0  0  0  0  0  0  0
   24.0757   72.6903   24.6830 H   0  0  0  0  0  0  0  0  0  0  0  0
   24.9565   72.6226   26.2470 H   0  0  0  0  0  0  0  0  0  0  0  0
   22.8822   70.6020   25.3449 H   0  0  0  0  0  0  0  0  0  0  0  0
   22.5364   72.0391   26.3655 H   0  0  0  0  0  0  0  0  0  0  0  0
   24.1847   70.9792   28.0351 H   0  0  0  0  0  0  0  0  0  0  0  0
   22.2443   67.6104   26.6393 H   0  0  0  0  0  0  0  0  0  0  0  0
   22.2612   69.0885   25.6405 H   0  0  0  0  0  0  0  0  0  0  0  0
   24.1413   69.0365   29.3143 H   0  0  0  0  0  0  0  0  0  0  0  0
   23.2978   67.5849   28.7108 H   0  0  0  0  0  0  0  0  0  0  0  0
  1  2  2  0  0  0  0
  1  3  1  0  0  0  0
  1  4  1  0  0  0  0
  3 12  1  0  0  0  0
  3 21  1  0  0  0  0
  3 33  1  0  0  0  0
  4  5  1  0  0  0  0
  4 34  1  0  0  0  0
  5  6  1  0  0  0  0
  5  8  1  0  0  0  0
  5 35  1  6  0  0  0
  6  7  2  0  0  0  0
  6 13  1  0  0  0  0
  8  9  1  0  0  0  0
  8 36  1  0  0  0  0
  8 37  1  0  0  0  0
  9 10  1  0  0  0  0
  9 11  1  0  0  0  0
  9 38  1  0  0  0  0
 10 39  1  0  0  0  0
 10 40  1  0  0  0  0
 10 41  1  0  0  0  0
 11 42  1  0  0  0  0
 11 43  1  0  0  0  0
 11 44  1  0  0  0  0
 13 14  1  0  0  0  0
 13 45  1  0  0  0  0
 14 15  1  0  0  0  0
 14 17  1  0  0  0  0
 14 46  1  1  0  0  0
 15 16  2  0  0  0  0
 15 22  1  0  0  0  0
 17 18  1  0  0  0  0
 17 47  1  0  0  0  0
 17 48  1  0  0  0  0
 18 19  1  0  0  0  0
 18 20  1  0  0  0  0
 18 49  1  0  0  0  0
 19 50  1  0  0  0  0
 19 51  1  0  0  0  0
 19 52  1  0  0  0  0
 20 53  1  0  0  0  0
 20 54  1  0  0  0  0
 20 55  1  0  0  0  0
 22 23  1  0  0  0  0
 22 56  1  0  0  0  0
 23 24  1  0  0  0  0
 23 26  1  0  0  0  0
 23 57  1  6  0  0  0
 24 25  1  0  0  0  0
 24 58  1  0  0  0  0
 24 59  1  0  0  0  0
 25 60  1  0  0  0  0
 26 27  1  0  0  0  0
 26 61  1  0  0  0  0
 26 62  1  0  0  0  0
 27 28  1  0  0  0  0
 27 63  1  0  0  0  0
 27 64  1  0  0  0  0
 28 29  1  0  0  0  0
 28 65  1  0  0  0  0
 28 66  1  0  0  0  0
 29 30  1  0  0  0  0
 29 67  1  0  0  0  0
 30 31  1  0  0  0  0
 30 32  1  0  0  0  0
 31 68  1  0  0  0  0
 31 69  1  0  0  0  0
 32 70  1  0  0  0  0
 32 71  1  0  0  0  0
M  END
