1ppw_ligand
 OpenBabel08222323343D

 24 23  0  0  0  0  0  0  0  0999 V2000
   11.2270    2.6850   10.0370 O   0  0  0  0  0  1  0  0  0  0  0  0
    9.1480    1.9570   10.7360 O   0  0  0  0  0  1  0  0  0  0  0  0
   10.9260    1.9840   12.2930 O   0  0  0  0  0  0  0  0  0  0  0  0
   10.2220    2.6630   11.1510 P   0  0  0  0  0  0  0  0  0  0  0  0
    9.8740    4.1140   11.4970 O   0  0  0  0  0  0  0  0  0  0  0  0
   11.6990    5.7100   11.4100 O   0  0  0  0  0  1  0  0  0  0  0  0
   11.5510    4.1770   13.2020 O   0  0  0  0  0  0  0  0  0  0  0  0
   10.8420    5.0610   12.2130 P   0  0  2  0  0  0  0  0  0  0  0  0
    9.9930    5.9890   13.0710 O   0  0  0  0  0  0  0  0  0  0  0  0
    9.7570    7.2420   12.4170 C   0  0  0  0  0  0  0  0  0  0  0  0
   10.2520    8.4700   13.1950 C   0  0  0  0  0  0  0  0  0  0  0  0
    9.3250    8.8550   14.1840 C   0  0  0  0  0  0  0  0  0  0  0  0
    9.4570    9.9480   15.0940 C   0  0  0  0  0  0  0  0  0  0  0  0
    8.0500    8.0230   14.3050 C   0  0  0  0  0  0  0  0  0  0  0  0
    9.1930    9.1950   16.5120 O   0  0  0  0  0  0  0  0  0  0  0  0
    8.6735    7.3488   12.2599 H   0  0  0  0  0  0  0  0  0  0  0  0
   10.2686    7.2231   11.4434 H   0  0  0  0  0  0  0  0  0  0  0  0
   11.1970    8.9775   13.0068 H   0  0  0  0  0  0  0  0  0  0  0  0
    8.7046   10.7274   14.9030 H   0  0  0  0  0  0  0  0  0  0  0  0
   10.4629   10.3911   15.0518 H   0  0  0  0  0  0  0  0  0  0  0  0
    8.0655    7.2174   13.5562 H   0  0  0  0  0  0  0  0  0  0  0  0
    7.1746    8.6665   14.1332 H   0  0  0  0  0  0  0  0  0  0  0  0
    7.9917    7.5858   15.3127 H   0  0  0  0  0  0  0  0  0  0  0  0
    9.2536    9.8254   17.2202 H   0  0  0  0  0  0  0  0  0  0  0  0
  1  4  1  0  0  0  0
  4  2  1  0  0  0  0
  4  3  2  0  0  0  0
  4  5  1  0  0  0  0
  5  8  1  0  0  0  0
  8  6  1  6  0  0  0
  8  7  2  0  0  0  0
  8  9  1  0  0  0  0
  9 10  1  0  0  0  0
 10 11  1  0  0  0  0
 10 16  1  0  0  0  0
 10 17  1  0  0  0  0
 11 12  2  0  0  0  0
 11 18  1  0  0  0  0
 12 13  1  0  0  0  0
 12 14  1  0  0  0  0
 13 15  1  0  0  0  0
 13 19  1  0  0  0  0
 13 20  1  0  0  0  0
 14 21  1  0  0  0  0
 14 22  1  0  0  0  0
 14 23  1  0  0  0  0
 15 24  1  0  0  0  0
M  END
