1pq3_ligand
 OpenBabel08222323343D

 26 25  0  0  1  0  0  0  0  0999 V2000
   67.5410   54.4530   -7.9130 O   0  5  0  0  0  0  0  0  0  0  0  0
   69.9570   56.7220   -7.0040 N   0  3  0  0  0  0  0  0  0  0  0  0
   69.3600   55.4110   -6.7190 C   0  0  2  0  0  0  0  0  0  0  0  0
   67.8640   55.4270   -7.0490 C   0  0  0  0  0  0  0  0  0  0  0  0
   67.0580   56.1990   -6.5860 O   0  0  0  0  0  0  0  0  0  0  0  0
   69.6200   55.1600   -5.2610 C   0  0  0  0  0  0  0  0  0  0  0  0
   69.8800   53.4270   -4.9500 S   0  0  0  0  0  0  0  0  0  0  0  0
   69.6590   53.5510   -3.1860 C   0  0  0  0  0  0  0  0  0  0  0  0
   69.8640   52.1930   -2.5440 C   0  0  0  0  0  0  0  0  0  0  0  0
   70.5950   52.2460   -1.1890 B   0  0  0  0  0  0  0  0  0  0  0  0
   71.4540   53.4070   -1.0910 O   0  0  0  0  0  0  0  0  0  0  0  0
   69.6810   52.2770   -0.0610 O   0  0  0  0  0  0  0  0  0  0  0  0
   71.4190   51.0770   -1.0380 O   0  0  0  0  0  0  0  0  0  0  0  0
   70.9402   56.6986   -6.7830 H   0  0  0  0  0  0  0  0  0  0  0  0
   69.5034   57.4267   -6.4439 H   0  0  0  0  0  0  0  0  0  0  0  0
   69.8372   56.9406   -7.9807 H   0  0  0  0  0  0  0  0  0  0  0  0
   69.8484   54.6322   -7.3231 H   0  0  0  0  0  0  0  0  0  0  0  0
   68.7543   55.5046   -4.6764 H   0  0  0  0  0  0  0  0  0  0  0  0
   70.5160   55.7192   -4.9537 H   0  0  0  0  0  0  0  0  0  0  0  0
   68.6407   53.9066   -2.9700 H   0  0  0  0  0  0  0  0  0  0  0  0
   70.3907   54.2626   -2.7758 H   0  0  0  0  0  0  0  0  0  0  0  0
   70.4549   51.5705   -3.2319 H   0  0  0  0  0  0  0  0  0  0  0  0
   68.8778   51.7317   -2.3874 H   0  0  0  0  0  0  0  0  0  0  0  0
   70.9320   54.1948   -1.1878 H   0  0  0  0  0  0  0  0  0  0  0  0
   69.1652   53.0741   -0.0946 H   0  0  0  0  0  0  0  0  0  0  0  0
   71.8477   51.1004   -0.1905 H   0  0  0  0  0  0  0  0  0  0  0  0
  2 14  1  0  0  0  0
  2 15  1  0  0  0  0
  2 16  1  0  0  0  0
  3  2  1  0  0  0  0
  3  4  1  0  0  0  0
  3  6  1  0  0  0  0
  3 17  1  6  0  0  0
  4  1  1  0  0  0  0
  4  5  2  0  0  0  0
  6  7  1  0  0  0  0
  6 18  1  0  0  0  0
  6 19  1  0  0  0  0
  7  8  1  0  0  0  0
  8  9  1  0  0  0  0
  8 20  1  0  0  0  0
  8 21  1  0  0  0  0
  9 10  1  0  0  0  0
  9 22  1  0  0  0  0
  9 23  1  0  0  0  0
 10 11  1  0  0  0  0
 10 13  1  0  0  0  0
 10 12  1  0  0  0  0
 11 24  1  0  0  0  0
 12 25  1  0  0  0  0
 13 26  1  0  0  0  0
M  CHG  2   1  -1   2   1
M  END
