1prl_ligand
 OpenBabel08222323343D

152155  0  0  1  0  0  0  0  0999 V2000
    2.1760   16.4660    9.4510 N   0  3  0  0  0  0  0  0  0  0  0  0
    3.1570   15.7660   10.3280 C   0  0  2  0  0  0  0  0  0  0  0  0
    3.5830   14.4530    9.6680 C   0  0  0  0  0  0  0  0  0  0  0  0
    3.1400   14.1180    8.5870 O   0  0  0  0  0  0  0  0  0  0  0  0
    2.5100   15.4700   11.6820 C   0  0  0  0  0  0  0  0  0  0  0  0
    1.8948   17.3312    9.8851 H   0  0  0  0  0  0  0  0  0  0  0  0
    1.3674   15.8794    9.3162 H   0  0  0  0  0  0  0  0  0  0  0  0
    2.6023   16.6609    8.5586 H   0  0  0  0  0  0  0  0  0  0  0  0
    4.0395   16.4059   10.4753 H   0  0  0  0  0  0  0  0  0  0  0  0
    3.2340   14.9534   12.3292 H   0  0  0  0  0  0  0  0  0  0  0  0
    1.6278   14.8297   11.5347 H   0  0  0  0  0  0  0  0  0  0  0  0
    2.2030   16.4140   12.1559 H   0  0  0  0  0  0  0  0  0  0  0  0
    4.4380   13.7070   10.3100 N   0  0  0  0  0  0  0  0  0  0  0  0
    4.8900   12.4160    9.7180 C   0  0  2  0  0  0  0  0  0  0  0  0
    5.5750   12.6840    8.3760 C   0  0  0  0  0  0  0  0  0  0  0  0
    5.0600   12.3480    7.3290 O   0  0  0  0  0  0  0  0  0  0  0  0
    3.6820   11.5040    9.5000 C   0  0  0  0  0  0  0  0  0  0  0  0
    3.6760   10.4020   10.5620 C   0  0  0  0  0  0  0  0  0  0  0  0
    4.5950    9.3710   10.5080 C   0  0  0  0  0  0  0  0  0  0  0  0
    2.7500   10.4250   11.5900 C   0  0  0  0  0  0  0  0  0  0  0  0
    4.5890    8.3790   11.4670 C   0  0  0  0  0  0  0  0  0  0  0  0
    2.7450    9.4320   12.5470 C   0  0  0  0  0  0  0  0  0  0  0  0
    3.6640    8.4090   12.4860 C   0  0  0  0  0  0  0  0  0  0  0  0
    4.7902   14.0007   11.1987 H   0  0  0  0  0  0  0  0  0  0  0  0
    5.5999   11.9274   10.4015 H   0  0  0  0  0  0  0  0  0  0  0  0
    3.7417   11.0492    8.5002 H   0  0  0  0  0  0  0  0  0  0  0  0
    2.7575   12.0948    9.5796 H   0  0  0  0  0  0  0  0  0  0  0  0
    5.3250    9.3416    9.7072 H   0  0  0  0  0  0  0  0  0  0  0  0
    2.0242   11.2284   11.6434 H   0  0  0  0  0  0  0  0  0  0  0  0
    5.3140    7.5746   11.4179 H   0  0  0  0  0  0  0  0  0  0  0  0
    2.0159    9.4571   13.3488 H   0  0  0  0  0  0  0  0  0  0  0  0
    3.6593    7.6289   13.2386 H   0  0  0  0  0  0  0  0  0  0  0  0
    6.7320   13.2860    8.3980 N   0  0  0  0  0  0  0  0  0  0  0  0
    7.4450   13.5730    7.1220 C   0  0  2  0  0  0  0  0  0  0  0  0
    7.5720   12.2760    6.3110 C   0  0  0  0  0  0  0  0  0  0  0  0
    7.9280   11.2500    6.8530 O   0  0  0  0  0  0  0  0  0  0  0  0
    8.8410   14.1170    7.4320 C   0  0  0  0  0  0  0  0  0  0  0  0
    7.1399   13.5546    9.2706 H   0  0  0  0  0  0  0  0  0  0  0  0
    6.8795   14.3173    6.5422 H   0  0  0  0  0  0  0  0  0  0  0  0
    9.3690   14.3295    6.4907 H   0  0  0  0  0  0  0  0  0  0  0  0
    9.4060   13.3699    8.0087 H   0  0  0  0  0  0  0  0  0  0  0  0
    8.7517   15.0427    8.0194 H   0  0  0  0  0  0  0  0  0  0  0  0
    7.2780   12.3600    5.0350 N   0  0  0  0  0  0  0  0  0  0  0  0
    7.3550   11.1930    4.1340 C   0  0  2  0  0  0  0  0  0  0  0  0
    8.7980   10.6750    4.0540 C   0  0  0  0  0  0  0  0  0  0  0  0
    9.6460   11.3150    3.4650 O   0  0  0  0  0  0  0  0  0  0  0  0
    6.9040   11.7240    2.7660 C   0  0  0  0  0  0  0  0  0  0  0  0
    6.5830   13.2320    2.9260 C   0  0  0  0  0  0  0  0  0  0  0  0
    6.8530   13.6150    4.3890 C   0  0  0  0  0  0  0  0  0  0  0  0
    6.6901   10.3878    4.4796 H   0  0  0  0  0  0  0  0  0  0  0  0
    6.0059   11.1836    2.4323 H   0  0  0  0  0  0  0  0  0  0  0  0
    7.7086   11.5889    2.0282 H   0  0  0  0  0  0  0  0  0  0  0  0
    5.5275   13.4186    2.6787 H   0  0  0  0  0  0  0  0  0  0  0  0
    7.2262   13.8247    2.2589 H   0  0  0  0  0  0  0  0  0  0  0  0
    7.6492   14.3715    4.4508 H   0  0  0  0  0  0  0  0  0  0  0  0
    5.9396   14.0044    4.8624 H   0  0  0  0  0  0  0  0  0  0  0  0
    9.0360    9.5280    4.6430 N   0  0  0  0  0  0  0  0  0  0  0  0
   10.3770    8.9150    4.6450 C   0  0  2  0  0  0  0  0  0  0  0  0
   10.8270    8.6230    3.2100 C   0  0  0  0  0  0  0  0  0  0  0  0
   10.0410    8.2300    2.3720 O   0  0  0  0  0  0  0  0  0  0  0  0
   10.2120    7.6090    5.4340 C   0  0  0  0  0  0  0  0  0  0  0  0
    8.7300    7.5120    5.8810 C   0  0  0  0  0  0  0  0  0  0  0  0
    7.9970    8.7510    5.3440 C   0  0  0  0  0  0  0  0  0  0  0  0
   11.1075    9.5757    5.1347 H   0  0  0  0  0  0  0  0  0  0  0  0
   10.8694    7.6185    6.3159 H   0  0  0  0  0  0  0  0  0  0  0  0
   10.4676    6.7506    4.7953 H   0  0  0  0  0  0  0  0  0  0  0  0
    8.6708    7.4886    6.9791 H   0  0  0  0  0  0  0  0  0  0  0  0
    8.2738    6.5995    5.4697 H   0  0  0  0  0  0  0  0  0  0  0  0
    7.1973    8.4570    4.6483 H   0  0  0  0  0  0  0  0  0  0  0  0
    7.5673    9.3357    6.1707 H   0  0  0  0  0  0  0  0  0  0  0  0
   12.0860    8.8180    2.9210 N   0  0  0  0  0  0  0  0  0  0  0  0
   12.5830    8.5510    1.5420 C   0  0  2  0  0  0  0  0  0  0  0  0
   11.9900    7.2260    1.0390 C   0  0  0  0  0  0  0  0  0  0  0  0
   12.2290    6.1910    1.6290 O   0  0  0  0  0  0  0  0  0  0  0  0
   14.1100    8.4450    1.5650 C   0  0  0  0  0  0  0  0  0  0  0  0
   14.7040    9.7640    2.0610 C   0  0  0  0  0  0  0  0  0  0  0  0
   16.2190    9.6140    2.2190 C   0  0  0  0  0  0  0  0  0  0  0  0
   14.4060   10.8710    1.0480 C   0  0  0  0  0  0  0  0  0  0  0  0
   12.7158    9.1463    3.6249 H   0  0  0  0  0  0  0  0  0  0  0  0
   12.2791    9.3702    0.8738 H   0  0  0  0  0  0  0  0  0  0  0  0
   14.4786    8.2354    0.5500 H   0  0  0  0  0  0  0  0  0  0  0  0
   14.4111    7.6303    2.2400 H   0  0  0  0  0  0  0  0  0  0  0  0
   14.2577   10.0251    3.0319 H   0  0  0  0  0  0  0  0  0  0  0  0
   16.6461   10.5628    2.5758 H   0  0  0  0  0  0  0  0  0  0  0  0
   16.6649    9.3534    1.2478 H   0  0  0  0  0  0  0  0  0  0  0  0
   16.4347    8.8181    2.9470 H   0  0  0  0  0  0  0  0  0  0  0  0
   13.3174   10.9799    0.9335 H   0  0  0  0  0  0  0  0  0  0  0  0
   14.8524   10.6096    0.0773 H   0  0  0  0  0  0  0  0  0  0  0  0
   14.8338   11.8195    1.4049 H   0  0  0  0  0  0  0  0  0  0  0  0
   11.2000    7.3010   -0.0100 N   0  0  0  0  0  0  0  0  0  0  0  0
   10.5570    6.1100   -0.6050 C   0  0  2  0  0  0  0  0  0  0  0  0
   11.5480    5.3150   -1.4670 C   0  0  0  0  0  0  0  0  0  0  0  0
   11.2380    4.9290   -2.5770 O   0  0  0  0  0  0  0  0  0  0  0  0
    9.4420    6.6780   -1.4900 C   0  0  0  0  0  0  0  0  0  0  0  0
    9.6500    8.2140   -1.5750 C   0  0  0  0  0  0  0  0  0  0  0  0
   10.8110    8.5780   -0.6340 C   0  0  0  0  0  0  0  0  0  0  0  0
   10.1442    5.4588    0.1795 H   0  0  0  0  0  0  0  0  0  0  0  0
    8.4604    6.4561   -1.0460 H   0  0  0  0  0  0  0  0  0  0  0  0
    9.4983    6.2353   -2.4954 H   0  0  0  0  0  0  0  0  0  0  0  0
    8.7339    8.7348   -1.2595 H   0  0  0  0  0  0  0  0  0  0  0  0
    9.8989    8.5024   -2.6069 H   0  0  0  0  0  0  0  0  0  0  0  0
   11.6513    9.0045   -1.2015 H   0  0  0  0  0  0  0  0  0  0  0  0
   10.4808    9.2981    0.1291 H   0  0  0  0  0  0  0  0  0  0  0  0
   12.7230    5.0580   -0.9610 N   0  0  0  0  0  0  0  0  0  0  0  0
   13.7400    4.2890   -1.7400 C   0  0  2  0  0  0  0  0  0  0  0  0
   13.6640    4.6630   -3.2230 C   0  0  0  0  0  0  0  0  0  0  0  0
   13.4070    3.8290   -4.0690 O   0  0  0  0  0  0  0  0  0  0  0  0
   13.4770    2.7900   -1.5830 C   0  0  0  0  0  0  0  0  0  0  0  0
   14.6510    2.0030   -2.1720 C   0  0  0  0  0  0  0  0  0  0  0  0
   14.8980    0.7480   -1.3330 C   0  0  0  0  0  0  0  0  0  0  0  0
   15.4130   -0.3420   -2.2090 N   0  0  0  0  0  0  0  0  0  0  0  0
   16.6480   -0.3140   -2.6350 C   0  0  0  0  0  3  0  0  0  0  0  0
   17.4380    0.6680   -2.2920 N   0  0  0  0  0  0  0  0  0  0  0  0
   17.0940   -1.2700   -3.4030 N   0  0  0  0  0  0  0  0  0  0  0  0
   12.9455    5.3796   -0.0407 H   0  0  0  0  0  0  0  0  0  0  0  0
   14.7437    4.5257   -1.3573 H   0  0  0  0  0  0  0  0  0  0  0  0
   12.5521    2.5220   -2.1147 H   0  0  0  0  0  0  0  0  0  0  0  0
   13.3703    2.5459   -0.5157 H   0  0  0  0  0  0  0  0  0  0  0  0
   15.5536    2.6316   -2.1652 H   0  0  0  0  0  0  0  0  0  0  0  0
   14.4147    1.7117   -3.2061 H   0  0  0  0  0  0  0  0  0  0  0  0
   13.9551    0.4280   -0.8656 H   0  0  0  0  0  0  0  0  0  0  0  0
   15.6384    0.9700   -0.5504 H   0  0  0  0  0  0  0  0  0  0  0  0
   14.7939   -1.1195   -2.4794 H   0  0  0  0  0  0  0  0  0  0  0  0
   18.4111    0.6879   -2.6290 H   0  0  0  0  0  0  0  0  0  0  0  0
   17.0879    1.4225   -1.6845 H   0  0  0  0  0  0  0  0  0  0  0  0
   16.4722   -2.0450   -3.6743 H   0  0  0  0  0  0  0  0  0  0  0  0
   18.0678   -1.2496   -3.7379 H   0  0  0  0  0  0  0  0  0  0  0  0
   13.8810    5.9080   -3.5470 N   0  0  0  0  0  0  0  0  0  0  0  0
   13.8190    6.3240   -4.9750 C   0  0  2  0  0  0  0  0  0  0  0  0
   12.4610    5.9330   -5.5620 C   0  0  0  0  0  0  0  0  0  0  0  0
   12.4390    5.0990   -6.4530 O   0  5  0  0  0  0  0  0  0  0  0  0
   14.9330    5.6260   -5.7580 C   0  0  0  0  0  0  0  0  0  0  0  0
   16.2920    6.0470   -5.1950 C   0  0  0  0  0  0  0  0  0  0  0  0
   16.5140    7.5360   -5.4670 C   0  0  0  0  0  0  0  0  0  0  0  0
   17.9590    7.8620   -5.2970 N   0  0  0  0  0  0  0  0  0  0  0  0
   18.3530    9.1070   -5.2890 C   0  0  0  0  0  3  0  0  0  0  0  0
   17.4840   10.0720   -5.4270 N   0  0  0  0  0  0  0  0  0  0  0  0
   19.6190    9.3880   -5.1420 N   0  0  0  0  0  0  0  0  0  0  0  0
   11.4650    6.4760   -5.1130 O   0  0  0  0  0  0  0  0  0  0  0  0
   14.0886    6.5815   -2.8375 H   0  0  0  0  0  0  0  0  0  0  0  0
   13.9488    7.4140   -5.0454 H   0  0  0  0  0  0  0  0  0  0  0  0
   14.8708    5.9120   -6.8183 H   0  0  0  0  0  0  0  0  0  0  0  0
   14.8192    4.5359   -5.6649 H   0  0  0  0  0  0  0  0  0  0  0  0
   17.0876    5.4625   -5.6802 H   0  0  0  0  0  0  0  0  0  0  0  0
   16.3126    5.8648   -4.1104 H   0  0  0  0  0  0  0  0  0  0  0  0
   15.9182    8.1309   -4.7592 H   0  0  0  0  0  0  0  0  0  0  0  0
   16.2036    7.7711   -6.4958 H   0  0  0  0  0  0  0  0  0  0  0  0
   18.6475    7.1040   -5.1857 H   0  0  0  0  0  0  0  0  0  0  0  0
   17.7982   11.0529   -5.4202 H   0  0  0  0  0  0  0  0  0  0  0  0
   16.4844    9.8522   -5.5426 H   0  0  0  0  0  0  0  0  0  0  0  0
   20.3059    8.6283   -5.0330 H   0  0  0  0  0  0  0  0  0  0  0  0
   19.9312   10.3695   -5.1350 H   0  0  0  0  0  0  0  0  0  0  0  0
  1  2  1  0  0  0  0
  1  6  1  0  0  0  0
  1  7  1  0  0  0  0
  1  8  1  0  0  0  0
  2  3  1  0  0  0  0
  2  5  1  0  0  0  0
  2  9  1  1  0  0  0
  3  4  2  0  0  0  0
  3 13  1  0  0  0  0
  5 10  1  0  0  0  0
  5 11  1  0  0  0  0
  5 12  1  0  0  0  0
 13 14  1  0  0  0  0
 13 24  1  0  0  0  0
 14 15  1  0  0  0  0
 14 17  1  0  0  0  0
 14 25  1  1  0  0  0
 15 16  2  0  0  0  0
 15 33  1  0  0  0  0
 17 18  1  0  0  0  0
 17 26  1  0  0  0  0
 17 27  1  0  0  0  0
 18 19  2  0  0  0  0
 18 20  1  0  0  0  0
 19 21  1  0  0  0  0
 19 28  1  0  0  0  0
 20 22  2  0  0  0  0
 20 29  1  0  0  0  0
 21 23  2  0  0  0  0
 21 30  1  0  0  0  0
 22 23  1  0  0  0  0
 22 31  1  0  0  0  0
 23 32  1  0  0  0  0
 33 34  1  0  0  0  0
 33 38  1  0  0  0  0
 34 35  1  0  0  0  0
 34 37  1  0  0  0  0
 34 39  1  6  0  0  0
 35 36  2  0  0  0  0
 35 43  1  0  0  0  0
 37 40  1  0  0  0  0
 37 41  1  0  0  0  0
 37 42  1  0  0  0  0
 43 44  1  0  0  0  0
 43 49  1  0  0  0  0
 44 45  1  0  0  0  0
 44 47  1  0  0  0  0
 44 50  1  1  0  0  0
 45 46  2  0  0  0  0
 45 57  1  0  0  0  0
 47 48  1  0  0  0  0
 47 51  1  0  0  0  0
 47 52  1  0  0  0  0
 48 49  1  0  0  0  0
 48 53  1  0  0  0  0
 48 54  1  0  0  0  0
 49 55  1  0  0  0  0
 49 56  1  0  0  0  0
 57 58  1  0  0  0  0
 57 63  1  0  0  0  0
 58 59  1  0  0  0  0
 58 61  1  0  0  0  0
 58 64  1  1  0  0  0
 59 60  2  0  0  0  0
 59 71  1  0  0  0  0
 61 62  1  0  0  0  0
 61 65  1  0  0  0  0
 61 66  1  0  0  0  0
 62 63  1  0  0  0  0
 62 67  1  0  0  0  0
 62 68  1  0  0  0  0
 63 69  1  0  0  0  0
 63 70  1  0  0  0  0
 71 72  1  0  0  0  0
 71 79  1  0  0  0  0
 72 73  1  0  0  0  0
 72 75  1  0  0  0  0
 72 80  1  6  0  0  0
 73 74  2  0  0  0  0
 73 90  1  0  0  0  0
 75 76  1  0  0  0  0
 75 81  1  0  0  0  0
 75 82  1  0  0  0  0
 76 77  1  0  0  0  0
 76 78  1  0  0  0  0
 76 83  1  0  0  0  0
 77 84  1  0  0  0  0
 77 85  1  0  0  0  0
 77 86  1  0  0  0  0
 78 87  1  0  0  0  0
 78 88  1  0  0  0  0
 78 89  1  0  0  0  0
 90 91  1  0  0  0  0
 90 96  1  0  0  0  0
 91 92  1  0  0  0  0
 91 94  1  0  0  0  0
 91 97  1  1  0  0  0
 92 93  2  0  0  0  0
 92104  1  0  0  0  0
 94 95  1  0  0  0  0
 94 98  1  0  0  0  0
 94 99  1  0  0  0  0
 95 96  1  0  0  0  0
 95100  1  0  0  0  0
 95101  1  0  0  0  0
 96102  1  0  0  0  0
 96103  1  0  0  0  0
104105  1  0  0  0  0
104115  1  0  0  0  0
105106  1  0  0  0  0
105108  1  0  0  0  0
105116  1  1  0  0  0
106107  2  0  0  0  0
106128  1  0  0  0  0
108109  1  0  0  0  0
108117  1  0  0  0  0
108118  1  0  0  0  0
109110  1  0  0  0  0
109119  1  0  0  0  0
109120  1  0  0  0  0
110111  1  0  0  0  0
110121  1  0  0  0  0
110122  1  0  0  0  0
111112  1  0  0  0  0
111123  1  0  0  0  0
112113  1  0  0  0  0
112114  1  0  0  0  0
113124  1  0  0  0  0
113125  1  0  0  0  0
114126  1  0  0  0  0
114127  1  0  0  0  0
128129  1  0  0  0  0
128140  1  0  0  0  0
129130  1  0  0  0  0
129132  1  0  0  0  0
129141  1  6  0  0  0
130131  1  0  0  0  0
130139  2  0  0  0  0
132133  1  0  0  0  0
132142  1  0  0  0  0
132143  1  0  0  0  0
133134  1  0  0  0  0
133144  1  0  0  0  0
133145  1  0  0  0  0
134135  1  0  0  0  0
134146  1  0  0  0  0
134147  1  0  0  0  0
135136  1  0  0  0  0
135148  1  0  0  0  0
136137  1  0  0  0  0
136138  1  0  0  0  0
137149  1  0  0  0  0
137150  1  0  0  0  0
138151  1  0  0  0  0
138152  1  0  0  0  0
M  CHG  2   1   1 131  -1
M  END
