1prm_ligand
 OpenBabel08222323343D

152155  0  0  1  0  0  0  0  0999 V2000
    7.2430   16.9750   13.0560 N   0  3  0  0  0  0  0  0  0  0  0  0
    8.6620   16.9490   13.5100 C   0  0  2  0  0  0  0  0  0  0  0  0
    9.4720   16.0220   12.5980 C   0  0  0  0  0  0  0  0  0  0  0  0
   10.5560   16.3580   12.1650 O   0  0  0  0  0  0  0  0  0  0  0  0
    8.7250   16.4410   14.9540 C   0  0  0  0  0  0  0  0  0  0  0  0
    6.7095   17.5848   13.6557 H   0  0  0  0  0  0  0  0  0  0  0  0
    6.8598   16.0436   13.0975 H   0  0  0  0  0  0  0  0  0  0  0  0
    7.1997   17.3143   12.1078 H   0  0  0  0  0  0  0  0  0  0  0  0
    9.0807   17.9651   13.4620 H   0  0  0  0  0  0  0  0  0  0  0  0
    9.7721   16.4213   15.2904 H   0  0  0  0  0  0  0  0  0  0  0  0
    8.3047   15.4257   15.0042 H   0  0  0  0  0  0  0  0  0  0  0  0
    8.1436   17.1112   15.6042 H   0  0  0  0  0  0  0  0  0  0  0  0
    8.9580   14.8600   12.2990 N   0  0  0  0  0  0  0  0  0  0  0  0
    9.7070   13.9200   11.4140 C   0  0  2  0  0  0  0  0  0  0  0  0
    9.2460   14.1060    9.9670 C   0  0  0  0  0  0  0  0  0  0  0  0
    8.0960   13.8920    9.6400 O   0  0  0  0  0  0  0  0  0  0  0  0
    9.4380   12.4760   11.8470 C   0  0  0  0  0  0  0  0  0  0  0  0
   10.6890   11.8950   12.5100 C   0  0  0  0  0  0  0  0  0  0  0  0
   11.7940   11.5570   11.7500 C   0  0  0  0  0  0  0  0  0  0  0  0
   10.7260   11.6900   13.8780 C   0  0  0  0  0  0  0  0  0  0  0  0
   12.9170   11.0230   12.3490 C   0  0  0  0  0  0  0  0  0  0  0  0
   11.8490   11.1560   14.4750 C   0  0  0  0  0  0  0  0  0  0  0  0
   12.9450   10.8220   13.7110 C   0  0  0  0  0  0  0  0  0  0  0  0
    8.0634   14.5999   12.6624 H   0  0  0  0  0  0  0  0  0  0  0  0
   10.7844   14.1296   11.4864 H   0  0  0  0  0  0  0  0  0  0  0  0
    9.1777   11.8722   10.9651 H   0  0  0  0  0  0  0  0  0  0  0  0
    8.6031   12.4584   12.5630 H   0  0  0  0  0  0  0  0  0  0  0  0
   11.7780   11.7124   10.6773 H   0  0  0  0  0  0  0  0  0  0  0  0
    9.8664   11.9509   14.4847 H   0  0  0  0  0  0  0  0  0  0  0  0
   13.7789   10.7612   11.7459 H   0  0  0  0  0  0  0  0  0  0  0  0
   11.8688   10.9990   15.5474 H   0  0  0  0  0  0  0  0  0  0  0  0
   13.8272   10.4021   14.1804 H   0  0  0  0  0  0  0  0  0  0  0  0
   10.1320   14.5050    9.0950 N   0  0  0  0  0  0  0  0  0  0  0  0
    9.7350   14.6990    7.6730 C   0  0  2  0  0  0  0  0  0  0  0  0
    9.2100   13.3740    7.1130 C   0  0  0  0  0  0  0  0  0  0  0  0
    9.5170   12.3200    7.6330 O   0  0  0  0  0  0  0  0  0  0  0  0
   10.9460   15.1550    6.8560 C   0  0  0  0  0  0  0  0  0  0  0  0
   11.0741   14.6798    9.3811 H   0  0  0  0  0  0  0  0  0  0  0  0
    8.9452   15.4623    7.6133 H   0  0  0  0  0  0  0  0  0  0  0  0
   10.6480   15.2969    5.8067 H   0  0  0  0  0  0  0  0  0  0  0  0
   11.7354   14.3910    6.9128 H   0  0  0  0  0  0  0  0  0  0  0  0
   11.3251   16.1048    7.2611 H   0  0  0  0  0  0  0  0  0  0  0  0
    8.4350   13.4660    6.0630 N   0  0  0  0  0  0  0  0  0  0  0  0
    7.8540   12.2800    5.4110 C   0  0  2  0  0  0  0  0  0  0  0  0
    8.9660   11.2960    5.0200 C   0  0  0  0  0  0  0  0  0  0  0  0
   10.0160   11.7040    4.5690 O   0  0  0  0  0  0  0  0  0  0  0  0
    7.1400   12.8280    4.1670 C   0  0  0  0  0  0  0  0  0  0  0  0
    7.2300   14.3770    4.2200 C   0  0  0  0  0  0  0  0  0  0  0  0
    8.0890   14.7540    5.4360 C   0  0  0  0  0  0  0  0  0  0  0  0
    7.1376   11.7791    6.0787 H   0  0  0  0  0  0  0  0  0  0  0  0
    6.0861   12.5130    4.1699 H   0  0  0  0  0  0  0  0  0  0  0  0
    7.6319   12.4544    3.2568 H   0  0  0  0  0  0  0  0  0  0  0  0
    6.2231   14.8073    4.3249 H   0  0  0  0  0  0  0  0  0  0  0  0
    7.6970   14.7568    3.2993 H   0  0  0  0  0  0  0  0  0  0  0  0
    8.9972   15.2876    5.1190 H   0  0  0  0  0  0  0  0  0  0  0  0
    7.5182   15.3843    6.1338 H   0  0  0  0  0  0  0  0  0  0  0  0
    8.6990   10.0250    5.2000 N   0  0  0  0  0  0  0  0  0  0  0  0
    9.6710    8.9680    4.8720 C   0  0  2  0  0  0  0  0  0  0  0  0
   10.0740    9.0550    3.3970 C   0  0  0  0  0  0  0  0  0  0  0  0
    9.2490    8.9660    2.5100 O   0  0  0  0  0  0  0  0  0  0  0  0
    8.9370    7.6510    5.1610 C   0  0  0  0  0  0  0  0  0  0  0  0
    7.5330    8.0080    5.7170 C   0  0  0  0  0  0  0  0  0  0  0  0
    7.4090    9.5410    5.7250 C   0  0  0  0  0  0  0  0  0  0  0  0
   10.5677    9.0564    5.5030 H   0  0  0  0  0  0  0  0  0  0  0  0
    9.4969    7.0650    5.9047 H   0  0  0  0  0  0  0  0  0  0  0  0
    8.8359    7.0669    4.2344 H   0  0  0  0  0  0  0  0  0  0  0  0
    7.4249    7.6181    6.7399 H   0  0  0  0  0  0  0  0  0  0  0  0
    6.7537    7.5725    5.0743 H   0  0  0  0  0  0  0  0  0  0  0  0
    6.5807    9.8663    5.0784 H   0  0  0  0  0  0  0  0  0  0  0  0
    7.2431    9.9111    6.7475 H   0  0  0  0  0  0  0  0  0  0  0  0
   11.3410    9.2290    3.1320 N   0  0  0  0  0  0  0  0  0  0  0  0
   11.8010    9.3220    1.7180 C   0  0  2  0  0  0  0  0  0  0  0  0
   11.1950    8.1700    0.9040 C   0  0  0  0  0  0  0  0  0  0  0  0
   11.3130    7.0230    1.2860 O   0  0  0  0  0  0  0  0  0  0  0  0
   13.3270    9.2220    1.6730 C   0  0  0  0  0  0  0  0  0  0  0  0
   13.9400   10.4480    2.3510 C   0  0  0  0  0  0  0  0  0  0  0  0
   15.4320   10.2070    2.5920 C   0  0  0  0  0  0  0  0  0  0  0  0
   13.7600   11.6720    1.4500 C   0  0  0  0  0  0  0  0  0  0  0  0
   12.0026    9.2998    3.8785 H   0  0  0  0  0  0  0  0  0  0  0  0
   11.4815   10.2835    1.2898 H   0  0  0  0  0  0  0  0  0  0  0  0
   13.6605    9.1774    0.6257 H   0  0  0  0  0  0  0  0  0  0  0  0
   13.6503    8.3121    2.1998 H   0  0  0  0  0  0  0  0  0  0  0  0
   13.4373   10.6242    3.3134 H   0  0  0  0  0  0  0  0  0  0  0  0
   15.8718   11.0894    3.0797 H   0  0  0  0  0  0  0  0  0  0  0  0
   15.9351   10.0310    1.6298 H   0  0  0  0  0  0  0  0  0  0  0  0
   15.5614    9.3275    3.2398 H   0  0  0  0  0  0  0  0  0  0  0  0
   12.6876   11.8452    1.2768 H   0  0  0  0  0  0  0  0  0  0  0  0
   14.2631   11.4962    0.4877 H   0  0  0  0  0  0  0  0  0  0  0  0
   14.1998   12.5543    1.9379 H   0  0  0  0  0  0  0  0  0  0  0  0
   10.5610    8.5060   -0.1950 N   0  0  0  0  0  0  0  0  0  0  0  0
    9.9320    7.5020   -1.0720 C   0  0  2  0  0  0  0  0  0  0  0  0
   10.9980    6.5630   -1.6460 C   0  0  0  0  0  0  0  0  0  0  0  0
   12.1820    6.7850   -1.4880 O   0  0  0  0  0  0  0  0  0  0  0  0
    9.2720    8.3160   -2.1930 C   0  0  0  0  0  0  0  0  0  0  0  0
    9.5840    9.8130   -1.9350 C   0  0  0  0  0  0  0  0  0  0  0  0
   10.4160    9.9020   -0.6460 C   0  0  0  0  0  0  0  0  0  0  0  0
    9.1806    6.9173   -0.5211 H   0  0  0  0  0  0  0  0  0  0  0  0
    8.1842    8.1531   -2.1837 H   0  0  0  0  0  0  0  0  0  0  0  0
    9.6802    8.0109   -3.1678 H   0  0  0  0  0  0  0  0  0  0  0  0
    8.6465   10.3758   -1.8152 H   0  0  0  0  0  0  0  0  0  0  0  0
   10.1552   10.2274   -2.7788 H   0  0  0  0  0  0  0  0  0  0  0  0
   11.4007   10.3476   -0.8503 H   0  0  0  0  0  0  0  0  0  0  0  0
    9.8922   10.5020    0.1127 H   0  0  0  0  0  0  0  0  0  0  0  0
   10.5890    5.5170   -2.3110 N   0  0  0  0  0  0  0  0  0  0  0  0
   11.5830    4.5710   -2.8910 C   0  0  2  0  0  0  0  0  0  0  0  0
   12.0390    5.0870   -4.2590 C   0  0  0  0  0  0  0  0  0  0  0  0
   11.2490    5.5680   -5.0460 O   0  0  0  0  0  0  0  0  0  0  0  0
   10.9440    3.1890   -3.0530 C   0  0  0  0  0  0  0  0  0  0  0  0
   12.0340    2.1160   -3.0060 C   0  0  0  0  0  0  0  0  0  0  0  0
   11.8230    1.2260   -1.7790 C   0  0  0  0  0  0  0  0  0  0  0  0
   12.4000   -0.1240   -2.0380 N   0  0  0  0  0  0  0  0  0  0  0  0
   13.6930   -0.3070   -1.9860 C   0  0  0  0  0  3  0  0  0  0  0  0
   14.4870    0.6890   -1.6980 N   0  0  0  0  0  0  0  0  0  0  0  0
   14.1930   -1.4900   -2.2200 N   0  0  0  0  0  0  0  0  0  0  0  0
    9.6102    5.3509   -2.4309 H   0  0  0  0  0  0  0  0  0  0  0  0
   12.4513    4.4958   -2.2199 H   0  0  0  0  0  0  0  0  0  0  0  0
   10.4202    3.1378   -4.0189 H   0  0  0  0  0  0  0  0  0  0  0  0
   10.2261    3.0187   -2.2371 H   0  0  0  0  0  0  0  0  0  0  0  0
   13.0206    2.5984   -2.9434 H   0  0  0  0  0  0  0  0  0  0  0  0
   11.9832    1.5019   -3.9172 H   0  0  0  0  0  0  0  0  0  0  0  0
   10.7461    1.1314   -1.5757 H   0  0  0  0  0  0  0  0  0  0  0  0
   12.3222    1.6771   -0.9088 H   0  0  0  0  0  0  0  0  0  0  0  0
   11.7779   -0.9147   -2.2585 H   0  0  0  0  0  0  0  0  0  0  0  0
   15.5055    0.5407   -1.6580 H   0  0  0  0  0  0  0  0  0  0  0  0
   14.0948    1.6228   -1.5109 H   0  0  0  0  0  0  0  0  0  0  0  0
   13.5688   -2.2772   -2.4474 H   0  0  0  0  0  0  0  0  0  0  0  0
   15.2117   -1.6362   -2.1773 H   0  0  0  0  0  0  0  0  0  0  0  0
   13.3090    4.9900   -4.5490 N   0  0  0  0  0  0  0  0  0  0  0  0
   13.8120    5.4760   -5.8660 C   0  0  2  0  0  0  0  0  0  0  0  0
   13.3530    4.5230   -6.9710 C   0  0  0  0  0  0  0  0  0  0  0  0
   14.1870    3.7900   -7.4770 O   0  5  0  0  0  0  0  0  0  0  0  0
   15.3410    5.5310   -5.8430 C   0  0  0  0  0  0  0  0  0  0  0  0
   15.8030    6.5680   -4.8170 C   0  0  0  0  0  0  0  0  0  0  0  0
   17.1310    7.1750   -5.2740 C   0  0  0  0  0  0  0  0  0  0  0  0
   17.9860    7.4620   -4.0870 N   0  0  0  0  0  0  0  0  0  0  0  0
   19.0350    8.2310   -4.2070 C   0  0  0  0  0  3  0  0  0  0  0  0
   19.3310    8.7640   -5.3630 N   0  0  0  0  0  0  0  0  0  0  0  0
   19.7890    8.4720   -3.1700 N   0  0  0  0  0  0  0  0  0  0  0  0
   12.1770    4.5420   -7.2920 O   0  0  0  0  0  0  0  0  0  0  0  0
   13.9438    4.5899   -3.8879 H   0  0  0  0  0  0  0  0  0  0  0  0
   13.4128    6.4822   -6.0611 H   0  0  0  0  0  0  0  0  0  0  0  0
   15.7121    5.8119   -6.8397 H   0  0  0  0  0  0  0  0  0  0  0  0
   15.7386    4.5427   -5.5688 H   0  0  0  0  0  0  0  0  0  0  0  0
   15.9381    6.0826   -3.8392 H   0  0  0  0  0  0  0  0  0  0  0  0
   15.0465    7.3619   -4.7308 H   0  0  0  0  0  0  0  0  0  0  0  0
   16.9372    8.1101   -5.8199 H   0  0  0  0  0  0  0  0  0  0  0  0
   17.6495    6.4651   -5.9352 H   0  0  0  0  0  0  0  0  0  0  0  0
   17.7494    7.0536   -3.1715 H   0  0  0  0  0  0  0  0  0  0  0  0
   20.1590    9.3699   -5.4539 H   0  0  0  0  0  0  0  0  0  0  0  0
   18.7363    8.5782   -6.1832 H   0  0  0  0  0  0  0  0  0  0  0  0
   19.5587    8.0536   -2.2574 H   0  0  0  0  0  0  0  0  0  0  0  0
   20.6146    9.0807   -3.2639 H   0  0  0  0  0  0  0  0  0  0  0  0
  1  2  1  0  0  0  0
  1  6  1  0  0  0  0
  1  7  1  0  0  0  0
  1  8  1  0  0  0  0
  2  3  1  0  0  0  0
  2  5  1  0  0  0  0
  2  9  1  6  0  0  0
  3  4  2  0  0  0  0
  3 13  1  0  0  0  0
  5 10  1  0  0  0  0
  5 11  1  0  0  0  0
  5 12  1  0  0  0  0
 13 14  1  0  0  0  0
 13 24  1  0  0  0  0
 14 15  1  0  0  0  0
 14 17  1  0  0  0  0
 14 25  1  1  0  0  0
 15 16  2  0  0  0  0
 15 33  1  0  0  0  0
 17 18  1  0  0  0  0
 17 26  1  0  0  0  0
 17 27  1  0  0  0  0
 18 19  2  0  0  0  0
 18 20  1  0  0  0  0
 19 21  1  0  0  0  0
 19 28  1  0  0  0  0
 20 22  2  0  0  0  0
 20 29  1  0  0  0  0
 21 23  2  0  0  0  0
 21 30  1  0  0  0  0
 22 23  1  0  0  0  0
 22 31  1  0  0  0  0
 23 32  1  0  0  0  0
 33 34  1  0  0  0  0
 33 38  1  0  0  0  0
 34 35  1  0  0  0  0
 34 37  1  0  0  0  0
 34 39  1  6  0  0  0
 35 36  2  0  0  0  0
 35 43  1  0  0  0  0
 37 40  1  0  0  0  0
 37 41  1  0  0  0  0
 37 42  1  0  0  0  0
 43 44  1  0  0  0  0
 43 49  1  0  0  0  0
 44 45  1  0  0  0  0
 44 47  1  0  0  0  0
 44 50  1  1  0  0  0
 45 46  2  0  0  0  0
 45 57  1  0  0  0  0
 47 48  1  0  0  0  0
 47 51  1  0  0  0  0
 47 52  1  0  0  0  0
 48 49  1  0  0  0  0
 48 53  1  0  0  0  0
 48 54  1  0  0  0  0
 49 55  1  0  0  0  0
 49 56  1  0  0  0  0
 57 58  1  0  0  0  0
 57 63  1  0  0  0  0
 58 59  1  0  0  0  0
 58 61  1  0  0  0  0
 58 64  1  1  0  0  0
 59 60  2  0  0  0  0
 59 71  1  0  0  0  0
 61 62  1  0  0  0  0
 61 65  1  0  0  0  0
 61 66  1  0  0  0  0
 62 63  1  0  0  0  0
 62 67  1  0  0  0  0
 62 68  1  0  0  0  0
 63 69  1  0  0  0  0
 63 70  1  0  0  0  0
 71 72  1  0  0  0  0
 71 79  1  0  0  0  0
 72 73  1  0  0  0  0
 72 75  1  0  0  0  0
 72 80  1  6  0  0  0
 73 74  2  0  0  0  0
 73 90  1  0  0  0  0
 75 76  1  0  0  0  0
 75 81  1  0  0  0  0
 75 82  1  0  0  0  0
 76 77  1  0  0  0  0
 76 78  1  0  0  0  0
 76 83  1  0  0  0  0
 77 84  1  0  0  0  0
 77 85  1  0  0  0  0
 77 86  1  0  0  0  0
 78 87  1  0  0  0  0
 78 88  1  0  0  0  0
 78 89  1  0  0  0  0
 90 91  1  0  0  0  0
 90 96  1  0  0  0  0
 91 92  1  0  0  0  0
 91 94  1  0  0  0  0
 91 97  1  1  0  0  0
 92 93  2  0  0  0  0
 92104  1  0  0  0  0
 94 95  1  0  0  0  0
 94 98  1  0  0  0  0
 94 99  1  0  0  0  0
 95 96  1  0  0  0  0
 95100  1  0  0  0  0
 95101  1  0  0  0  0
 96102  1  0  0  0  0
 96103  1  0  0  0  0
104105  1  0  0  0  0
104115  1  0  0  0  0
105106  1  0  0  0  0
105108  1  0  0  0  0
105116  1  1  0  0  0
106107  2  0  0  0  0
106128  1  0  0  0  0
108109  1  0  0  0  0
108117  1  0  0  0  0
108118  1  0  0  0  0
109110  1  0  0  0  0
109119  1  0  0  0  0
109120  1  0  0  0  0
110111  1  0  0  0  0
110121  1  0  0  0  0
110122  1  0  0  0  0
111112  1  0  0  0  0
111123  1  0  0  0  0
112113  1  0  0  0  0
112114  1  0  0  0  0
113124  1  0  0  0  0
113125  1  0  0  0  0
114126  1  0  0  0  0
114127  1  0  0  0  0
128129  1  0  0  0  0
128140  1  0  0  0  0
129130  1  0  0  0  0
129132  1  0  0  0  0
129141  1  6  0  0  0
130131  1  0  0  0  0
130139  2  0  0  0  0
132133  1  0  0  0  0
132142  1  0  0  0  0
132143  1  0  0  0  0
133134  1  0  0  0  0
133144  1  0  0  0  0
133145  1  0  0  0  0
134135  1  0  0  0  0
134146  1  0  0  0  0
134147  1  0  0  0  0
135136  1  0  0  0  0
135148  1  0  0  0  0
136137  1  0  0  0  0
136138  1  0  0  0  0
137149  1  0  0  0  0
137150  1  0  0  0  0
138151  1  0  0  0  0
138152  1  0  0  0  0
M  CHG  2   1   1 131  -1
M  END
