1pw6_ligand
 OpenBabel08222323343D

 70 73  0  0  1  0  0  0  0  0999 V2000
   94.3120   19.3070    9.3370 N   0  0  0  0  0  0  0  0  0  0  0  0
   94.1410   20.5630    8.9540 C   0  0  0  0  0  3  0  0  0  0  0  0
   94.7950   21.0120    7.8880 N   0  0  0  0  0  0  0  0  0  0  0  0
   93.3170   21.3460    9.6520 N   0  0  0  0  0  0  0  0  0  0  0  0
   92.4610   22.3590    9.0540 C   0  0  2  0  0  0  0  0  0  0  0  0
   92.6020   23.6300    9.8870 C   0  0  0  0  0  0  0  0  0  0  0  0
   94.0150   24.2080    9.7580 C   0  0  0  0  0  0  0  0  0  0  0  0
   94.2020   25.4860   10.5810 C   0  0  0  0  0  0  0  0  0  0  0  0
   93.1310   26.5340   10.2690 C   0  0  0  0  0  0  0  0  0  0  0  0
   91.7220   25.9530   10.3780 C   0  0  0  0  0  0  0  0  0  0  0  0
   91.5740   24.6990    9.5150 C   0  0  0  0  0  0  0  0  0  0  0  0
   91.0340   21.8870    8.9540 C   0  0  0  0  0  0  0  0  0  0  0  0
   90.4700   21.4000    9.9200 O   0  0  0  0  0  0  0  0  0  0  0  0
   90.4370   22.0170    7.7690 N   0  0  0  0  0  0  0  0  0  0  0  0
   89.2010   22.5140    7.6720 C   0  0  0  0  0  0  0  0  0  0  0  0
   88.8210   23.1870    6.5700 C   0  0  0  0  0  0  0  0  0  0  0  0
   89.6680   23.7400    5.8830 O   0  0  0  0  0  0  0  0  0  0  0  0
   87.4500   23.2590    6.1900 N   0  0  0  0  0  0  0  0  0  0  0  0
   86.4610   22.3660    6.8150 C   0  0  0  0  0  0  0  0  0  0  0  0
   85.7200   21.6190    5.7070 C   0  0  0  0  0  0  0  0  0  0  0  0
   86.9920   24.2010    5.1450 C   0  0  0  0  0  0  0  0  0  0  0  0
   86.2460   23.4400    4.0420 C   0  0  0  0  0  0  0  0  0  0  0  0
   85.1420   22.5630    4.6440 C   0  0  1  0  0  0  0  0  0  0  0  0
   84.3660   21.7350    3.6740 C   0  0  0  0  0  0  0  0  0  0  0  0
   83.1890   21.1160    3.8770 N   0  0  0  0  0  0  0  0  0  0  0  0
   82.8400   20.4790    2.7940 N   0  0  0  0  0  0  0  0  0  0  0  0
   84.8440   21.4970    2.3840 C   0  0  0  0  0  0  0  0  0  0  0  0
   83.8090   20.7060    1.9070 C   0  0  0  0  0  0  0  0  0  0  0  0
   83.6820   20.1190    0.6450 C   0  0  0  0  0  0  0  0  0  0  0  0
   84.8190   19.5150   -0.1040 C   0  0  0  0  0  0  0  0  0  0  0  0
   86.5010   19.5270    0.5070 Cl  0  0  0  0  0  0  0  0  0  0  0  0
   82.4080   20.0420    0.0720 C   0  0  0  0  0  0  0  0  0  0  0  0
   82.1900   19.4470   -1.1740 C   0  0  0  0  0  0  0  0  0  0  0  0
   83.2320   18.8840   -1.9120 C   0  0  0  0  0  0  0  0  0  0  0  0
   84.5350   18.8940   -1.4240 C   0  0  0  0  0  0  0  0  0  0  0  0
   85.8690   18.1590   -2.3690 Cl  0  0  0  0  0  0  0  0  0  0  0  0
   94.9448   18.6892    8.8090 H   0  0  0  0  0  0  0  0  0  0  0  0
   93.8122   18.9479   10.1629 H   0  0  0  0  0  0  0  0  0  0  0  0
   94.6703   21.9870    7.5802 H   0  0  0  0  0  0  0  0  0  0  0  0
   95.4266   20.3850    7.3695 H   0  0  0  0  0  0  0  0  0  0  0  0
   93.2849   21.2264   10.6745 H   0  0  0  0  0  0  0  0  0  0  0  0
   92.8179   22.5673    8.0346 H   0  0  0  0  0  0  0  0  0  0  0  0
   92.4371   23.3572   10.9398 H   0  0  0  0  0  0  0  0  0  0  0  0
   94.2068   24.4385    8.6997 H   0  0  0  0  0  0  0  0  0  0  0  0
   94.7375   23.4552   10.1061 H   0  0  0  0  0  0  0  0  0  0  0  0
   95.1909   25.9116   10.3554 H   0  0  0  0  0  0  0  0  0  0  0  0
   94.1477   25.2308   11.6496 H   0  0  0  0  0  0  0  0  0  0  0  0
   93.2845   26.9067    9.2455 H   0  0  0  0  0  0  0  0  0  0  0  0
   93.2291   27.3667   10.9810 H   0  0  0  0  0  0  0  0  0  0  0  0
   90.9955   26.7076   10.0423 H   0  0  0  0  0  0  0  0  0  0  0  0
   91.5213   25.6922   11.4276 H   0  0  0  0  0  0  0  0  0  0  0  0
   90.5641   24.2865    9.6564 H   0  0  0  0  0  0  0  0  0  0  0  0
   91.7130   24.9748    8.4593 H   0  0  0  0  0  0  0  0  0  0  0  0
   90.9220   21.7382    6.9401 H   0  0  0  0  0  0  0  0  0  0  0  0
   89.0694   23.2002    8.5216 H   0  0  0  0  0  0  0  0  0  0  0  0
   88.5103   21.6643    7.7764 H   0  0  0  0  0  0  0  0  0  0  0  0
   85.7468   22.9579    7.4062 H   0  0  0  0  0  0  0  0  0  0  0  0
   86.9723   21.6461    7.4711 H   0  0  0  0  0  0  0  0  0  0  0  0
   84.8947   21.0483    6.1577 H   0  0  0  0  0  0  0  0  0  0  0  0
   86.4213   20.9262    5.2191 H   0  0  0  0  0  0  0  0  0  0  0  0
   87.8627   24.7128    4.7092 H   0  0  0  0  0  0  0  0  0  0  0  0
   86.3172   24.9440    5.5950 H   0  0  0  0  0  0  0  0  0  0  0  0
   86.9580   22.8021    3.4978 H   0  0  0  0  0  0  0  0  0  0  0  0
   85.7947   24.1624    3.3460 H   0  0  0  0  0  0  0  0  0  0  0  0
   84.4305   23.2429    5.1353 H   0  0  0  0  0  0  0  0  0  0  0  0
   82.6472   21.1413    4.7526 H   0  0  0  0  0  0  0  0  0  0  0  0
   85.7582   21.8327    1.8967 H   0  0  0  0  0  0  0  0  0  0  0  0
   81.5638   20.4566    0.6110 H   0  0  0  0  0  0  0  0  0  0  0  0
   81.1843   19.4223   -1.5779 H   0  0  0  0  0  0  0  0  0  0  0  0
   83.0240   18.4340   -2.8760 H   0  0  0  0  0  0  0  0  0  0  0  0
  1  2  1  0  0  0  0
  1 37  1  0  0  0  0
  1 38  1  0  0  0  0
  2  3  1  0  0  0  0
  2  4  1  0  0  0  0
  3 39  1  0  0  0  0
  3 40  1  0  0  0  0
  4  5  1  0  0  0  0
  4 41  1  0  0  0  0
  5  6  1  0  0  0  0
  5 12  1  0  0  0  0
  5 42  1  6  0  0  0
  6  7  1  0  0  0  0
  6 11  1  0  0  0  0
  6 43  1  0  0  0  0
  7  8  1  0  0  0  0
  7 44  1  0  0  0  0
  7 45  1  0  0  0  0
  8  9  1  0  0  0  0
  8 46  1  0  0  0  0
  8 47  1  0  0  0  0
  9 10  1  0  0  0  0
  9 48  1  0  0  0  0
  9 49  1  0  0  0  0
 10 11  1  0  0  0  0
 10 50  1  0  0  0  0
 10 51  1  0  0  0  0
 11 52  1  0  0  0  0
 11 53  1  0  0  0  0
 12 13  2  0  0  0  0
 12 14  1  0  0  0  0
 14 15  1  0  0  0  0
 14 54  1  0  0  0  0
 15 16  1  0  0  0  0
 15 55  1  0  0  0  0
 15 56  1  0  0  0  0
 16 17  2  0  0  0  0
 16 18  1  0  0  0  0
 18 19  1  0  0  0  0
 18 21  1  0  0  0  0
 19 20  1  0  0  0  0
 19 57  1  0  0  0  0
 19 58  1  0  0  0  0
 20 23  1  0  0  0  0
 20 59  1  0  0  0  0
 20 60  1  0  0  0  0
 21 22  1  0  0  0  0
 21 61  1  0  0  0  0
 21 62  1  0  0  0  0
 22 23  1  0  0  0  0
 22 63  1  0  0  0  0
 22 64  1  0  0  0  0
 23 24  1  0  0  0  0
 23 65  1  1  0  0  0
 24 25  1  0  0  0  0
 24 27  2  0  0  0  0
 25 26  1  0  0  0  0
 25 66  1  0  0  0  0
 26 28  2  0  0  0  0
 27 28  1  0  0  0  0
 27 67  1  0  0  0  0
 28 29  1  0  0  0  0
 29 30  2  0  0  0  0
 29 32  1  0  0  0  0
 30 31  1  0  0  0  0
 30 35  1  0  0  0  0
 32 33  2  0  0  0  0
 32 68  1  0  0  0  0
 33 34  1  0  0  0  0
 33 69  1  0  0  0  0
 34 35  2  0  0  0  0
 34 70  1  0  0  0  0
 35 36  1  0  0  0  0
M  END
