1pxh_ligand
 OpenBabel08222323343D

 78 79  0  0  1  0  0  0  0  0999 V2000
   14.7290   14.8620   14.5110 P   0  0  0  0  0  0  0  0  0  0  0  0
   14.6030   13.8680   13.3440 O   0  0  0  0  0  1  0  0  0  0  0  0
   16.1540   14.9230   15.0570 O   0  0  0  0  0  1  0  0  0  0  0  0
   13.7560   14.4630   15.6400 O   0  0  0  0  0  0  0  0  0  0  0  0
   14.3590   16.4800   13.8470 C   0  0  0  0  0  0  0  0  0  0  0  0
   14.4480   17.4640   14.8380 F   0  0  0  0  0  0  0  0  0  0  0  0
   15.3080   16.7110   12.8630 F   0  0  0  0  0  0  0  0  0  0  0  0
   12.9450   16.6840   13.2170 C   0  0  0  0  0  0  0  0  0  0  0  0
   12.7730   16.4770   11.6300 C   0  0  0  0  0  0  0  0  0  0  0  0
   11.4820   16.6870   11.0430 C   0  0  0  0  0  0  0  0  0  0  0  0
   10.3020   17.1000   11.9380 C   0  0  0  0  0  0  0  0  0  0  0  0
   10.4040   17.2960   13.3880 C   0  0  0  0  0  0  0  0  0  0  0  0
   11.7040   17.1010   14.0970 C   0  0  0  0  0  0  0  0  0  0  0  0
    9.1800   17.2910   11.2320 C   0  0  0  0  0  0  0  0  0  0  0  0
    8.4950   18.6790   11.1340 C   0  0  2  0  0  0  0  0  0  0  0  0
    7.2630   18.7410   10.3730 N   0  0  0  0  0  0  0  0  0  0  0  0
    9.3060   19.8910   10.5740 C   0  0  0  0  0  0  0  0  0  0  0  0
    9.6890   19.6750    9.2540 N   0  0  0  0  0  0  0  0  0  0  0  0
   10.3630   20.0960   11.4240 O   0  0  0  0  0  0  0  0  0  0  0  0
   11.1620   19.6760    8.7400 C   0  0  0  0  0  0  0  0  0  0  0  0
   10.9940   19.1390    7.1910 C   0  0  0  0  0  0  0  0  0  0  0  0
   12.2210   18.1990    6.8070 C   0  0  0  0  0  0  0  0  0  0  0  0
   11.8130   17.2350    5.6170 C   0  0  0  0  0  0  0  0  0  0  0  0
   13.0250   16.2960    5.2160 C   0  0  0  0  0  0  0  0  0  0  0  0
    3.8570   19.2820   10.4170 N   0  0  0  0  0  0  0  0  0  0  0  0
    5.1550   19.4810    9.7890 C   0  0  1  0  0  0  0  0  0  0  0  0
    5.4240   19.6840    8.2880 C   0  0  0  0  0  0  0  0  0  0  0  0
    4.3620   19.6930    7.2320 C   0  0  0  0  0  0  0  0  0  0  0  0
    3.9630   20.7930    6.7620 O   0  5  0  0  0  0  0  0  0  0  0  0
    3.9340   18.5560    6.8650 O   0  0  0  0  0  0  0  0  0  0  0  0
    6.2700   19.5190   10.8030 C   0  0  0  0  0  0  0  0  0  0  0  0
    6.1980   20.2130   11.7720 O   0  0  0  0  0  0  0  0  0  0  0  0
    3.2370   18.1200   10.5230 C   0  0  0  0  0  0  0  0  0  0  0  0
    3.7690   17.0630   10.7370 O   0  0  0  0  0  0  0  0  0  0  0  0
   -4.3070   16.9490    8.9060 P   0  0  0  0  0  0  0  0  0  0  0  0
   -4.4830   18.5710    9.0470 O   0  0  0  0  0  1  0  0  0  0  0  0
   -5.4620   16.4340    8.0020 O   0  0  0  0  0  1  0  0  0  0  0  0
   -4.4710   16.3000   10.4620 O   0  0  0  0  0  0  0  0  0  0  0  0
   -2.7980   16.4550    8.0600 C   0  0  0  0  0  0  0  0  0  0  0  0
   -2.7060   15.0530    7.9660 F   0  0  0  0  0  0  0  0  0  0  0  0
   -2.5480   16.9190    6.7430 F   0  0  0  0  0  0  0  0  0  0  0  0
   -0.9780   18.4390    8.8460 C   0  0  0  0  0  0  0  0  0  0  0  0
   -1.5460   16.9630    8.9640 C   0  0  0  0  0  0  0  0  0  0  0  0
   -0.8360   15.9610   10.0320 C   0  0  0  0  0  0  0  0  0  0  0  0
    0.3340   16.4360   10.8790 C   0  0  0  0  0  0  0  0  0  0  0  0
    1.8890   18.3700   11.4330 C   0  0  0  0  0  0  0  0  0  0  0  0
    0.1930   18.9030    9.6980 C   0  0  0  0  0  0  0  0  0  0  0  0
    0.8400   17.9130   10.7000 C   0  0  0  0  0  0  0  0  0  0  0  0
   13.6175   16.1843   11.0166 H   0  0  0  0  0  0  0  0  0  0  0  0
   11.3389   16.5556    9.9765 H   0  0  0  0  0  0  0  0  0  0  0  0
    9.5249   17.5860   13.9521 H   0  0  0  0  0  0  0  0  0  0  0  0
   11.7909   17.2398   15.1686 H   0  0  0  0  0  0  0  0  0  0  0  0
    8.4298   16.6071   11.6557 H   0  0  0  0  0  0  0  0  0  0  0  0
    9.4107   16.9884   10.1999 H   0  0  0  0  0  0  0  0  0  0  0  0
    8.2439   18.9250   12.1763 H   0  0  0  0  0  0  0  0  0  0  0  0
    7.1592   18.2059    9.5346 H   0  0  0  0  0  0  0  0  0  0  0  0
    8.9657   19.5064    8.5843 H   0  0  0  0  0  0  0  0  0  0  0  0
   11.7909   18.9946    9.3318 H   0  0  0  0  0  0  0  0  0  0  0  0
   11.5924   20.6880    8.7662 H   0  0  0  0  0  0  0  0  0  0  0  0
   10.9665   20.0003    6.5073 H   0  0  0  0  0  0  0  0  0  0  0  0
   10.0568   18.5700    7.1018 H   0  0  0  0  0  0  0  0  0  0  0  0
   12.5065   17.5968    7.6821 H   0  0  0  0  0  0  0  0  0  0  0  0
   13.0732   18.8211    6.4961 H   0  0  0  0  0  0  0  0  0  0  0  0
   11.5215   17.8401    4.7459 H   0  0  0  0  0  0  0  0  0  0  0  0
   10.9627   16.6123    5.9320 H   0  0  0  0  0  0  0  0  0  0  0  0
   12.7202   15.6366    4.3900 H   0  0  0  0  0  0  0  0  0  0  0  0
   13.3186   15.6859    6.0829 H   0  0  0  0  0  0  0  0  0  0  0  0
   13.8774   16.9137    4.8967 H   0  0  0  0  0  0  0  0  0  0  0  0
    3.3997   20.0859   10.7972 H   0  0  0  0  0  0  0  0  0  0  0  0
    5.2718   18.3968    9.6446 H   0  0  0  0  0  0  0  0  0  0  0  0
    6.1205   18.8826    8.0008 H   0  0  0  0  0  0  0  0  0  0  0  0
    5.9308   20.6569    8.2067 H   0  0  0  0  0  0  0  0  0  0  0  0
   -1.4328   19.1297    8.1452 H   0  0  0  0  0  0  0  0  0  0  0  0
   -1.2005   14.9459   10.1405 H   0  0  0  0  0  0  0  0  0  0  0  0
    0.8087   15.7704   11.5908 H   0  0  0  0  0  0  0  0  0  0  0  0
    1.7665   19.4425   11.6445 H   0  0  0  0  0  0  0  0  0  0  0  0
    1.9613   17.8153   12.3802 H   0  0  0  0  0  0  0  0  0  0  0  0
    0.5710   19.9147    9.6057 H   0  0  0  0  0  0  0  0  0  0  0  0
  1  2  1  0  0  0  0
  1  3  1  0  0  0  0
  1  4  2  0  0  0  0
  5  1  1  0  0  0  0
  5  6  1  0  0  0  0
  5  7  1  0  0  0  0
  8  5  1  0  0  0  0
  9  8  2  0  0  0  0
  9 49  1  0  0  0  0
 10  9  1  0  0  0  0
 10 50  1  0  0  0  0
 11 10  2  0  0  0  0
 11 12  1  0  0  0  0
 12 13  2  0  0  0  0
 12 51  1  0  0  0  0
 13  8  1  0  0  0  0
 13 52  1  0  0  0  0
 14 11  1  0  0  0  0
 14 53  1  0  0  0  0
 14 54  1  0  0  0  0
 15 14  1  0  0  0  0
 15 17  1  0  0  0  0
 15 55  1  1  0  0  0
 16 15  1  0  0  0  0
 16 56  1  0  0  0  0
 17 18  1  0  0  0  0
 17 19  2  0  0  0  0
 18 20  1  0  0  0  0
 18 57  1  0  0  0  0
 20 21  1  0  0  0  0
 20 58  1  0  0  0  0
 20 59  1  0  0  0  0
 21 22  1  0  0  0  0
 21 60  1  0  0  0  0
 21 61  1  0  0  0  0
 22 23  1  0  0  0  0
 22 62  1  0  0  0  0
 22 63  1  0  0  0  0
 23 24  1  0  0  0  0
 23 64  1  0  0  0  0
 23 65  1  0  0  0  0
 24 66  1  0  0  0  0
 24 67  1  0  0  0  0
 24 68  1  0  0  0  0
 25 26  1  0  0  0  0
 25 69  1  0  0  0  0
 26 27  1  0  0  0  0
 26 31  1  0  0  0  0
 26 70  1  6  0  0  0
 27 28  1  0  0  0  0
 27 71  1  0  0  0  0
 27 72  1  0  0  0  0
 28 29  1  0  0  0  0
 28 30  2  0  0  0  0
 31 16  1  0  0  0  0
 31 32  2  0  0  0  0
 33 25  1  0  0  0  0
 33 34  2  0  0  0  0
 35 36  1  0  0  0  0
 35 37  1  0  0  0  0
 35 38  2  0  0  0  0
 39 35  1  0  0  0  0
 39 40  1  0  0  0  0
 39 41  1  0  0  0  0
 42 73  1  0  0  0  0
 43 39  1  0  0  0  0
 43 42  1  0  0  0  0
 44 43  2  0  0  0  0
 44 74  1  0  0  0  0
 45 44  1  0  0  0  0
 45 75  1  0  0  0  0
 46 33  1  0  0  0  0
 46 76  1  0  0  0  0
 46 77  1  0  0  0  0
 47 42  2  0  0  0  0
 47 78  1  0  0  0  0
 48 46  1  0  0  0  0
 48 45  2  0  0  0  0
 48 47  1  0  0  0  0
M  CHG  1  29  -1
M  END
