1py1_ligand
 OpenBabel08222323343D

120119  0  0  1  0  0  0  0  0999 V2000
   29.7750   33.0520   66.8410 N   0  3  0  0  0  0  0  0  0  0  0  0
   28.8110   33.8690   67.6270 C   0  0  2  0  0  0  0  0  0  0  0  0
   27.3790   33.5030   67.1580 C   0  0  0  0  0  0  0  0  0  0  0  0
   27.2010   32.5510   66.3980 O   0  0  0  0  0  0  0  0  0  0  0  0
   29.0890   35.3670   67.4050 C   0  0  0  0  0  0  0  0  0  0  0  0
   28.7550   36.2280   68.6370 C   0  0  0  0  0  0  0  0  0  0  0  0
   27.5840   36.2250   69.0850 O   0  5  0  0  0  0  0  0  0  0  0  0
   29.6660   36.9140   69.1560 O   0  0  0  0  0  0  0  0  0  0  0  0
   26.3840   34.2610   67.6180 N   0  0  0  0  0  0  0  0  0  0  0  0
   24.9700   34.0030   67.2650 C   0  0  2  0  0  0  0  0  0  0  0  0
   24.2030   35.2960   66.9450 C   0  0  0  0  0  0  0  0  0  0  0  0
   24.5260   36.3440   67.4420 O   0  0  0  0  0  0  0  0  0  0  0  0
   24.2760   33.2490   68.4210 C   0  0  0  0  0  0  0  0  0  0  0  0
   22.8160   32.9070   68.1260 C   0  0  0  0  0  0  0  0  0  0  0  0
   22.4910   32.6110   66.9500 O   0  5  0  0  0  0  0  0  0  0  0  0
   21.9980   32.9070   69.0750 O   0  0  0  0  0  0  0  0  0  0  0  0
   23.1910   35.1960   66.0980 N   0  0  0  0  0  0  0  0  0  0  0  0
   22.4110   36.3660   65.7440 C   0  0  2  0  0  0  0  0  0  0  0  0
   21.2120   36.5270   66.6680 C   0  0  0  0  0  0  0  0  0  0  0  0
   20.9180   35.6520   67.4560 O   0  0  0  0  0  0  0  0  0  0  0  0
   21.9160   36.2660   64.3140 C   0  0  2  0  0  0  0  0  0  0  0  0
   20.8550   35.1760   64.2130 C   0  0  0  0  0  0  0  0  0  0  0  0
   23.0810   35.9310   63.4070 C   0  0  0  0  0  0  0  0  0  0  0  0
   20.3340   34.9690   62.8280 C   0  0  0  0  0  0  0  0  0  0  0  0
   20.5300   37.6590   66.5460 N   0  0  0  0  0  0  0  0  0  0  0  0
   19.3610   37.9660   67.3880 C   0  0  1  0  0  0  0  0  0  0  0  0
   19.0810   39.4810   67.3020 C   0  0  0  0  0  0  0  0  0  0  0  0
   18.9320   40.0510   66.2810 O   0  0  0  0  0  0  0  0  0  0  0  0
   18.0960   37.1770   66.9690 C   0  0  0  0  0  0  0  0  0  0  0  0
   17.9930   36.6560   65.8630 O   0  0  0  0  0  0  0  0  0  0  0  0
   19.3840   41.5170   66.6440 P   0  0  0  0  0  0  0  0  0  0  0  0
   18.5720   42.4440   67.6220 O   0  0  0  0  0  1  0  0  0  0  0  0
   19.1170   42.0130   65.1350 O   0  0  0  0  0  1  0  0  0  0  0  0
   20.9370   41.4210   66.9800 O   0  0  0  0  0  0  0  0  0  0  0  0
   17.1550   37.0830   67.8980 N   0  0  0  0  0  0  0  0  0  0  0  0
   15.9050   36.3830   67.6310 C   0  0  2  0  0  0  0  0  0  0  0  0
   15.1090   37.0800   66.5340 C   0  0  0  0  0  0  0  0  0  0  0  0
   14.9980   38.2880   66.5160 O   0  0  0  0  0  0  0  0  0  0  0  0
   15.0400   36.3060   68.8960 C   0  0  0  0  0  0  0  0  0  0  0  0
   13.5540   35.9740   68.6820 C   0  0  0  0  0  0  0  0  0  0  0  0
   13.3960   34.5810   68.1140 C   0  0  0  0  0  0  0  0  0  0  0  0
   12.8140   36.0870   69.9950 C   0  0  0  0  0  0  0  0  0  0  0  0
   14.5780   36.2860   65.6170 N   0  0  0  0  0  0  0  0  0  0  0  0
   13.7610   36.8090   64.5350 C   0  0  2  0  0  0  0  0  0  0  0  0
   12.4880   37.4480   65.1400 C   0  0  0  0  0  0  0  0  0  0  0  0
   12.0070   37.0130   66.1820 O   0  0  0  0  0  0  0  0  0  0  0  0
   13.4070   35.6650   63.5800 C   0  0  0  0  0  0  0  0  0  0  0  0
   12.7790   35.9870   62.2260 C   0  0  0  0  0  0  0  0  0  0  0  0
   13.6610   36.9830   61.4890 C   0  0  0  0  0  0  0  0  0  0  0  0
   12.6020   34.7070   61.4110 C   0  0  0  0  0  0  0  0  0  0  0  0
   11.9770   38.4900   64.4960 N   0  0  0  0  0  0  0  0  0  0  0  0
   10.7840   39.1830   64.9980 C   0  0  2  0  0  0  0  0  0  0  0  0
    9.4690   38.5270   64.5290 C   0  0  0  0  0  0  0  0  0  0  0  0
    9.4910   37.8130   63.5020 O   0  5  0  0  0  0  0  0  0  0  0  0
   10.8120   40.6450   64.5510 C   0  0  0  0  0  0  0  0  0  0  0  0
   10.3490   41.6300   65.6150 C   0  0  0  0  0  0  0  0  0  0  0  0
   11.1870   41.4810   66.8860 C   0  0  0  0  0  0  0  0  0  0  0  0
   10.8410   42.5290   67.9460 C   0  0  0  0  0  0  0  0  0  0  0  0
   11.2030   43.9230   67.5370 N   0  3  0  0  0  0  0  0  0  0  0  0
    8.4400   38.7560   65.1960 O   0  0  0  0  0  0  0  0  0  0  0  0
   30.7155   33.2728   67.1288 H   0  0  0  0  0  0  0  0  0  0  0  0
   29.6671   33.2565   65.8599 H   0  0  0  0  0  0  0  0  0  0  0  0
   29.5955   32.0733   67.0020 H   0  0  0  0  0  0  0  0  0  0  0  0
   28.9170   33.6379   68.6972 H   0  0  0  0  0  0  0  0  0  0  0  0
   28.4796   35.7152   66.5580 H   0  0  0  0  0  0  0  0  0  0  0  0
   30.1552   35.4944   67.1665 H   0  0  0  0  0  0  0  0  0  0  0  0
   26.5998   35.0289   68.2212 H   0  0  0  0  0  0  0  0  0  0  0  0
   24.9516   33.3650   66.3691 H   0  0  0  0  0  0  0  0  0  0  0  0
   24.3122   33.8798   69.3214 H   0  0  0  0  0  0  0  0  0  0  0  0
   24.8236   32.3132   68.6066 H   0  0  0  0  0  0  0  0  0  0  0  0
   22.9627   34.3077   65.6995 H   0  0  0  0  0  0  0  0  0  0  0  0
   23.0532   37.2541   65.8379 H   0  0  0  0  0  0  0  0  0  0  0  0
   21.4796   37.2286   64.0091 H   0  0  0  0  0  0  0  0  0  0  0  0
   20.0117   35.4514   64.8633 H   0  0  0  0  0  0  0  0  0  0  0  0
   21.2946   34.2304   64.5632 H   0  0  0  0  0  0  0  0  0  0  0  0
   23.8437   36.7200   63.4832 H   0  0  0  0  0  0  0  0  0  0  0  0
   22.7282   35.8613   62.3675 H   0  0  0  0  0  0  0  0  0  0  0  0
   23.5177   34.9684   63.7113 H   0  0  0  0  0  0  0  0  0  0  0  0
   19.5767   34.1712   62.8366 H   0  0  0  0  0  0  0  0  0  0  0  0
   21.1623   34.6812   62.1638 H   0  0  0  0  0  0  0  0  0  0  0  0
   19.8794   35.9021   62.4640 H   0  0  0  0  0  0  0  0  0  0  0  0
   20.8195   38.3259   65.8594 H   0  0  0  0  0  0  0  0  0  0  0  0
   19.6020   37.7029   68.4285 H   0  0  0  0  0  0  0  0  0  0  0  0
   19.9271   39.9740   67.8031 H   0  0  0  0  0  0  0  0  0  0  0  0
   18.1615   39.6522   67.8810 H   0  0  0  0  0  0  0  0  0  0  0  0
   17.3051   37.4985   68.7951 H   0  0  0  0  0  0  0  0  0  0  0  0
   16.1434   35.3611   67.3011 H   0  0  0  0  0  0  0  0  0  0  0  0
   15.0967   37.2813   69.4015 H   0  0  0  0  0  0  0  0  0  0  0  0
   15.4669   35.5297   69.5480 H   0  0  0  0  0  0  0  0  0  0  0  0
   13.1283   36.6960   67.9697 H   0  0  0  0  0  0  0  0  0  0  0  0
   12.3276   34.3634   67.9686 H   0  0  0  0  0  0  0  0  0  0  0  0
   13.8275   33.8490   68.8126 H   0  0  0  0  0  0  0  0  0  0  0  0
   13.9179   34.5176   67.1478 H   0  0  0  0  0  0  0  0  0  0  0  0
   12.9358   37.1031   70.3983 H   0  0  0  0  0  0  0  0  0  0  0  0
   13.2222   35.3575   70.7099 H   0  0  0  0  0  0  0  0  0  0  0  0
   11.7454   35.8828   69.8324 H   0  0  0  0  0  0  0  0  0  0  0  0
   14.7434   35.3012   65.6704 H   0  0  0  0  0  0  0  0  0  0  0  0
   14.3242   37.5768   63.9843 H   0  0  0  0  0  0  0  0  0  0  0  0
   12.7022   35.0094   64.1124 H   0  0  0  0  0  0  0  0  0  0  0  0
   14.3384   35.1155   63.3788 H   0  0  0  0  0  0  0  0  0  0  0  0
   11.7901   36.4404   62.3885 H   0  0  0  0  0  0  0  0  0  0  0  0
   13.2121   37.2179   60.5126 H   0  0  0  0  0  0  0  0  0  0  0  0
   14.6596   36.5470   61.3381 H   0  0  0  0  0  0  0  0  0  0  0  0
   13.7492   37.9045   62.0832 H   0  0  0  0  0  0  0  0  0  0  0  0
   11.9615   34.0051   61.9652 H   0  0  0  0  0  0  0  0  0  0  0  0
   13.5849   34.2456   61.2348 H   0  0  0  0  0  0  0  0  0  0  0  0
   12.1321   34.9486   60.4462 H   0  0  0  0  0  0  0  0  0  0  0  0
   12.4123   38.8087   63.6540 H   0  0  0  0  0  0  0  0  0  0  0  0
   10.8085   39.1499   66.0972 H   0  0  0  0  0  0  0  0  0  0  0  0
   10.1564   40.7506   63.6741 H   0  0  0  0  0  0  0  0  0  0  0  0
   11.8443   40.9004   64.2699 H   0  0  0  0  0  0  0  0  0  0  0  0
    9.2929   41.4353   65.8532 H   0  0  0  0  0  0  0  0  0  0  0  0
   10.4551   42.6549   65.2299 H   0  0  0  0  0  0  0  0  0  0  0  0
   12.2496   41.5852   66.6215 H   0  0  0  0  0  0  0  0  0  0  0  0
   11.0107   40.4810   67.3089 H   0  0  0  0  0  0  0  0  0  0  0  0
   11.3841   42.2837   68.8706 H   0  0  0  0  0  0  0  0  0  0  0  0
    9.7582   42.4903   68.1356 H   0  0  0  0  0  0  0  0  0  0  0  0
   10.9520   44.5648   68.2726 H   0  0  0  0  0  0  0  0  0  0  0  0
   10.7053   44.1660   66.6948 H   0  0  0  0  0  0  0  0  0  0  0  0
   12.1953   43.9767   67.3683 H   0  0  0  0  0  0  0  0  0  0  0  0
  1  2  1  0  0  0  0
  1 61  1  0  0  0  0
  1 62  1  0  0  0  0
  1 63  1  0  0  0  0
  2  3  1  0  0  0  0
  2  5  1  0  0  0  0
  2 64  1  1  0  0  0
  3  4  2  0  0  0  0
  3  9  1  0  0  0  0
  5  6  1  0  0  0  0
  5 65  1  0  0  0  0
  5 66  1  0  0  0  0
  6  7  1  0  0  0  0
  6  8  2  0  0  0  0
  9 10  1  0  0  0  0
  9 67  1  0  0  0  0
 10 11  1  0  0  0  0
 10 13  1  0  0  0  0
 10 68  1  6  0  0  0
 11 12  2  0  0  0  0
 11 17  1  0  0  0  0
 13 14  1  0  0  0  0
 13 69  1  0  0  0  0
 13 70  1  0  0  0  0
 14 15  1  0  0  0  0
 14 16  2  0  0  0  0
 17 18  1  0  0  0  0
 17 71  1  0  0  0  0
 18 19  1  0  0  0  0
 18 21  1  0  0  0  0
 18 72  1  1  0  0  0
 19 20  2  0  0  0  0
 19 25  1  0  0  0  0
 21 22  1  0  0  0  0
 21 23  1  0  0  0  0
 21 73  1  6  0  0  0
 22 24  1  0  0  0  0
 22 74  1  0  0  0  0
 22 75  1  0  0  0  0
 23 76  1  0  0  0  0
 23 77  1  0  0  0  0
 23 78  1  0  0  0  0
 24 79  1  0  0  0  0
 24 80  1  0  0  0  0
 24 81  1  0  0  0  0
 25 26  1  0  0  0  0
 25 82  1  0  0  0  0
 26 27  1  0  0  0  0
 26 29  1  0  0  0  0
 26 83  1  1  0  0  0
 27 28  1  0  0  0  0
 27 84  1  0  0  0  0
 27 85  1  0  0  0  0
 28 31  1  0  0  0  0
 29 30  2  0  0  0  0
 29 35  1  0  0  0  0
 31 32  1  0  0  0  0
 31 33  1  0  0  0  0
 31 34  2  0  0  0  0
 35 36  1  0  0  0  0
 35 86  1  0  0  0  0
 36 37  1  0  0  0  0
 36 39  1  0  0  0  0
 36 87  1  6  0  0  0
 37 38  2  0  0  0  0
 37 43  1  0  0  0  0
 39 40  1  0  0  0  0
 39 88  1  0  0  0  0
 39 89  1  0  0  0  0
 40 41  1  0  0  0  0
 40 42  1  0  0  0  0
 40 90  1  0  0  0  0
 41 91  1  0  0  0  0
 41 92  1  0  0  0  0
 41 93  1  0  0  0  0
 42 94  1  0  0  0  0
 42 95  1  0  0  0  0
 42 96  1  0  0  0  0
 43 44  1  0  0  0  0
 43 97  1  0  0  0  0
 44 45  1  0  0  0  0
 44 47  1  0  0  0  0
 44 98  1  6  0  0  0
 45 46  2  0  0  0  0
 45 51  1  0  0  0  0
 47 48  1  0  0  0  0
 47 99  1  0  0  0  0
 47100  1  0  0  0  0
 48 49  1  0  0  0  0
 48 50  1  0  0  0  0
 48101  1  0  0  0  0
 49102  1  0  0  0  0
 49103  1  0  0  0  0
 49104  1  0  0  0  0
 50105  1  0  0  0  0
 50106  1  0  0  0  0
 50107  1  0  0  0  0
 51 52  1  0  0  0  0
 51108  1  0  0  0  0
 52 53  1  0  0  0  0
 52 55  1  0  0  0  0
 52109  1  1  0  0  0
 53 54  1  0  0  0  0
 53 60  2  0  0  0  0
 55 56  1  0  0  0  0
 55110  1  0  0  0  0
 55111  1  0  0  0  0
 56 57  1  0  0  0  0
 56112  1  0  0  0  0
 56113  1  0  0  0  0
 57 58  1  0  0  0  0
 57114  1  0  0  0  0
 57115  1  0  0  0  0
 58 59  1  0  0  0  0
 58116  1  0  0  0  0
 58117  1  0  0  0  0
 59118  1  0  0  0  0
 59119  1  0  0  0  0
 59120  1  0  0  0  0
M  CHG  5   1   1   7  -1  15  -1  54  -1  59   1
M  END
