1q4x_ligand
 OpenBabel08222323343D

 51 53  0  0  0  0  0  0  0  0999 V2000
   12.2610   25.0350   41.9740 C   0  0  0  0  0  0  0  0  0  0  0  0
   11.8490   23.9260   41.2090 C   0  0  0  0  0  0  0  0  0  0  0  0
   10.4950   23.5450   41.1850 C   0  0  0  0  0  0  0  0  0  0  0  0
    9.5510   24.2760   41.9330 C   0  0  0  0  0  0  0  0  0  0  0  0
    9.9600   25.3880   42.7010 C   0  0  0  0  0  0  0  0  0  0  0  0
   11.3220   25.7660   42.7210 C   0  0  0  0  0  0  0  0  0  0  0  0
   11.7900   26.9620   43.5630 C   0  0  0  0  0  0  0  0  0  0  0  0
   12.0580   26.4560   44.9790 C   0  0  0  0  0  0  0  0  0  0  0  0
   13.3650   26.0290   45.2950 C   0  0  0  0  0  0  0  0  0  0  0  0
   11.0620   26.3660   45.9430 C   0  0  0  0  0  0  0  0  0  0  0  0
    9.8160   26.8060   45.6220 O   0  0  0  0  0  0  0  0  0  0  0  0
   11.3450   25.8400   47.2250 C   0  0  0  0  0  0  0  0  0  0  0  0
   12.6590   25.4070   47.5420 C   0  0  0  0  0  0  0  0  0  0  0  0
   13.6730   25.5050   46.5700 C   0  0  0  0  0  0  0  0  0  0  0  0
   15.1510   25.1080   46.8520 C   0  0  0  0  0  0  0  0  0  0  0  0
   15.3310   23.8170   47.6910 C   0  0  0  0  0  0  0  0  0  0  0  0
   15.6600   23.8770   49.0750 C   0  0  0  0  0  0  0  0  0  0  0  0
   15.8330   25.2290   49.7750 C   0  0  0  0  0  0  0  0  0  0  0  0
   15.8420   22.7100   49.8270 C   0  0  0  0  0  0  0  0  0  0  0  0
   15.1950   22.5220   47.1100 C   0  0  0  0  0  0  0  0  0  0  0  0
   14.8310   22.3710   45.6230 C   0  0  0  0  0  0  0  0  0  0  0  0
   15.3830   21.3550   47.8790 C   0  0  0  0  0  0  0  0  0  0  0  0
   15.7040   21.4410   49.2330 C   0  0  0  0  0  0  0  0  0  0  0  0
   15.8690   20.2840   49.9540 O   0  0  0  0  0  0  0  0  0  0  0  0
   16.8550   20.4300   51.0060 C   0  0  0  0  0  0  0  0  0  0  0  0
   16.8960   19.1740   51.8690 C   0  0  0  0  0  0  0  0  0  0  0  0
   15.8770   18.8900   52.5430 O   0  5  0  0  0  0  0  0  0  0  0  0
   17.9490   18.4970   51.8570 O   0  0  0  0  0  0  0  0  0  0  0  0
   13.3054   25.3251   41.9863 H   0  0  0  0  0  0  0  0  0  0  0  0
   12.5782   23.3641   40.6366 H   0  0  0  0  0  0  0  0  0  0  0  0
   10.1795   22.6930   40.5938 H   0  0  0  0  0  0  0  0  0  0  0  0
    8.5072   23.9837   41.9188 H   0  0  0  0  0  0  0  0  0  0  0  0
    9.2315   25.9504   43.2738 H   0  0  0  0  0  0  0  0  0  0  0  0
   11.0077   27.7351   43.5832 H   0  0  0  0  0  0  0  0  0  0  0  0
   12.7114   27.3838   43.1352 H   0  0  0  0  0  0  0  0  0  0  0  0
   14.1458   26.1043   44.5469 H   0  0  0  0  0  0  0  0  0  0  0  0
    9.2378   26.6869   46.3663 H   0  0  0  0  0  0  0  0  0  0  0  0
   10.5575   25.7675   47.9663 H   0  0  0  0  0  0  0  0  0  0  0  0
   12.8800   25.0044   48.5239 H   0  0  0  0  0  0  0  0  0  0  0  0
   15.6302   25.9370   47.3934 H   0  0  0  0  0  0  0  0  0  0  0  0
   15.6557   24.9607   45.8858 H   0  0  0  0  0  0  0  0  0  0  0  0
   16.0835   25.0645   50.8334 H   0  0  0  0  0  0  0  0  0  0  0  0
   14.8960   25.8009   49.7047 H   0  0  0  0  0  0  0  0  0  0  0  0
   16.6437   25.7922   49.2896 H   0  0  0  0  0  0  0  0  0  0  0  0
   16.0921   22.7845   50.8791 H   0  0  0  0  0  0  0  0  0  0  0  0
   14.7734   21.3029   45.3663 H   0  0  0  0  0  0  0  0  0  0  0  0
   15.6019   22.8554   45.0057 H   0  0  0  0  0  0  0  0  0  0  0  0
   13.8574   22.8466   45.4337 H   0  0  0  0  0  0  0  0  0  0  0  0
   15.2769   20.3820   47.4130 H   0  0  0  0  0  0  0  0  0  0  0  0
   16.5908   21.2936   51.6340 H   0  0  0  0  0  0  0  0  0  0  0  0
   17.8451   20.5935   50.5555 H   0  0  0  0  0  0  0  0  0  0  0  0
  1  2  2  0  0  0  0
  1  6  1  0  0  0  0
  1 29  1  0  0  0  0
  2  3  1  0  0  0  0
  2 30  1  0  0  0  0
  3  4  2  0  0  0  0
  3 31  1  0  0  0  0
  4  5  1  0  0  0  0
  4 32  1  0  0  0  0
  5  6  2  0  0  0  0
  5 33  1  0  0  0  0
  6  7  1  0  0  0  0
  7  8  1  0  0  0  0
  7 34  1  0  0  0  0
  7 35  1  0  0  0  0
  8  9  2  0  0  0  0
  8 10  1  0  0  0  0
  9 14  1  0  0  0  0
  9 36  1  0  0  0  0
 10 11  1  0  0  0  0
 10 12  2  0  0  0  0
 11 37  1  0  0  0  0
 12 13  1  0  0  0  0
 12 38  1  0  0  0  0
 13 14  2  0  0  0  0
 13 39  1  0  0  0  0
 14 15  1  0  0  0  0
 15 16  1  0  0  0  0
 15 40  1  0  0  0  0
 15 41  1  0  0  0  0
 16 17  2  0  0  0  0
 16 20  1  0  0  0  0
 17 18  1  0  0  0  0
 17 19  1  0  0  0  0
 18 42  1  0  0  0  0
 18 43  1  0  0  0  0
 18 44  1  0  0  0  0
 19 23  2  0  0  0  0
 19 45  1  0  0  0  0
 20 21  1  0  0  0  0
 20 22  2  0  0  0  0
 21 46  1  0  0  0  0
 21 47  1  0  0  0  0
 21 48  1  0  0  0  0
 22 23  1  0  0  0  0
 22 49  1  0  0  0  0
 23 24  1  0  0  0  0
 24 25  1  0  0  0  0
 25 26  1  0  0  0  0
 25 50  1  0  0  0  0
 25 51  1  0  0  0  0
 26 27  1  0  0  0  0
 26 28  2  0  0  0  0
M  CHG  1  27  -1
M  END
