1q6k_ligand
 OpenBabel08222323343D

 40 40  0  0  1  0  0  0  0  0999 V2000
   74.0060   -9.5770  134.8660 N   0  0  0  0  0  0  0  0  0  0  0  0
   74.6420  -10.5640  133.9230 C   0  0  2  0  0  0  0  0  0  0  0  0
   76.0590  -10.0470  133.4990 C   0  0  0  0  0  0  0  0  0  0  0  0
   77.1530  -10.6140  133.6790 O   0  0  0  0  0  0  0  0  0  0  0  0
   73.4450  -12.1480  132.2310 C   0  0  0  0  0  0  0  0  0  0  0  0
   72.9940  -12.4000  130.7750 C   0  0  0  0  0  0  0  0  0  0  0  0
   72.2040  -11.2040  130.2010 C   0  0  0  0  0  0  0  0  0  0  0  0
   73.0620   -9.9340  130.1850 C   0  0  0  0  0  0  0  0  0  0  0  0
   73.9480   -9.7260  131.4440 C   0  0  0  0  0  0  0  0  0  0  0  0
   73.6970  -10.6950  132.6510 C   0  0  0  0  0  0  0  0  0  0  0  0
   73.2600   -9.8590  135.9960 C   0  0  0  0  0  0  0  0  0  0  0  0
   73.2230  -10.9600  136.5700 O   0  0  0  0  0  0  0  0  0  0  0  0
   72.5150   -8.7540  136.4410 O   0  0  0  0  0  0  0  0  0  0  0  0
   71.2700   -7.1310  137.6900 C   0  0  0  0  0  0  0  0  0  0  0  0
   71.8710   -8.5670  137.7430 C   0  0  0  0  0  0  0  0  0  0  0  0
   72.9250   -8.5410  138.8700 C   0  0  0  0  0  0  0  0  0  0  0  0
   70.7390   -9.6040  137.9350 C   0  0  0  0  0  0  0  0  0  0  0  0
   74.1378   -8.6093  134.6511 H   0  0  0  0  0  0  0  0  0  0  0  0
   74.7419  -11.5427  134.4151 H   0  0  0  0  0  0  0  0  0  0  0  0
   76.0907   -9.0847  132.9902 H   0  0  0  0  0  0  0  0  0  0  0  0
   74.3815  -12.7035  132.3870 H   0  0  0  0  0  0  0  0  0  0  0  0
   72.6645  -12.5519  132.8926 H   0  0  0  0  0  0  0  0  0  0  0  0
   72.3531  -13.2937  130.7510 H   0  0  0  0  0  0  0  0  0  0  0  0
   73.8841  -12.5701  130.1515 H   0  0  0  0  0  0  0  0  0  0  0  0
   71.3143  -11.0288  130.8236 H   0  0  0  0  0  0  0  0  0  0  0  0
   71.8916  -11.4397  129.1730 H   0  0  0  0  0  0  0  0  0  0  0  0
   72.3893   -9.0685  130.0941 H   0  0  0  0  0  0  0  0  0  0  0  0
   73.7223   -9.9790  129.3064 H   0  0  0  0  0  0  0  0  0  0  0  0
   73.7829   -8.6989  131.8015 H   0  0  0  0  0  0  0  0  0  0  0  0
   74.9975   -9.8428  131.1358 H   0  0  0  0  0  0  0  0  0  0  0  0
   72.7216  -10.3605  133.0340 H   0  0  0  0  0  0  0  0  0  0  0  0
   70.7631   -6.9104  138.6410 H   0  0  0  0  0  0  0  0  0  0  0  0
   70.5454   -7.0670  136.8649 H   0  0  0  0  0  0  0  0  0  0  0  0
   72.0770   -6.4015  137.5268 H   0  0  0  0  0  0  0  0  0  0  0  0
   72.4228   -8.4000  139.8385 H   0  0  0  0  0  0  0  0  0  0  0  0
   73.6268   -7.7119  138.6967 H   0  0  0  0  0  0  0  0  0  0  0  0
   73.4766   -9.4926  138.8782 H   0  0  0  0  0  0  0  0  0  0  0  0
   70.2649   -9.4518  138.9158 H   0  0  0  0  0  0  0  0  0  0  0  0
   71.1593  -10.6193  137.8845 H   0  0  0  0  0  0  0  0  0  0  0  0
   69.9879   -9.4782  137.1413 H   0  0  0  0  0  0  0  0  0  0  0  0
  1 11  1  0  0  0  0
  1 18  1  0  0  0  0
  2  1  1  0  0  0  0
  2  3  1  0  0  0  0
  2 19  1  1  0  0  0
  3  4  2  0  0  0  0
  3 20  1  0  0  0  0
  5  6  1  0  0  0  0
  5 10  1  0  0  0  0
  5 21  1  0  0  0  0
  5 22  1  0  0  0  0
  6  7  1  0  0  0  0
  6 23  1  0  0  0  0
  6 24  1  0  0  0  0
  7  8  1  0  0  0  0
  7 25  1  0  0  0  0
  7 26  1  0  0  0  0
  8  9  1  0  0  0  0
  8 27  1  0  0  0  0
  8 28  1  0  0  0  0
  9 10  1  0  0  0  0
  9 29  1  0  0  0  0
  9 30  1  0  0  0  0
 10  2  1  0  0  0  0
 10 31  1  0  0  0  0
 11 12  2  0  0  0  0
 11 13  1  0  0  0  0
 13 15  1  0  0  0  0
 14 32  1  0  0  0  0
 14 33  1  0  0  0  0
 14 34  1  0  0  0  0
 15 14  1  0  0  0  0
 15 16  1  0  0  0  0
 15 17  1  0  0  0  0
 16 35  1  0  0  0  0
 16 36  1  0  0  0  0
 16 37  1  0  0  0  0
 17 38  1  0  0  0  0
 17 39  1  0  0  0  0
 17 40  1  0  0  0  0
M  END
