1q6t_ligand
 OpenBabel08222323343D

 96102  0  0  1  0  0  0  0  0999 V2000
   37.3040   50.6450   55.7380 C   0  0  0  0  0  0  0  0  0  0  0  0
   38.6670   50.4010   55.3650 C   0  0  0  0  0  0  0  0  0  0  0  0
   39.0250   49.2260   54.6430 C   0  0  0  0  0  0  0  0  0  0  0  0
   38.0140   48.2280   54.2720 C   0  0  0  0  0  0  0  0  0  0  0  0
   36.6320   48.5110   54.6900 C   0  0  0  0  0  0  0  0  0  0  0  0
   36.2860   49.7040   55.4060 C   0  0  0  0  0  0  0  0  0  0  0  0
   36.8800   47.4460   50.1430 C   0  0  0  0  0  0  0  0  0  0  0  0
   37.6890   48.1590   51.1120 C   0  0  0  0  0  0  0  0  0  0  0  0
   37.4480   49.5860   51.2740 C   0  0  0  0  0  0  0  0  0  0  0  0
   36.4410   50.2540   50.5020 C   0  0  0  0  0  0  0  0  0  0  0  0
   35.6470   49.4950   49.5430 C   0  0  0  0  0  0  0  0  0  0  0  0
   35.8920   48.0900   49.3840 C   0  0  0  0  0  0  0  0  0  0  0  0
   38.1420   43.6260   52.8000 C   0  0  0  0  0  0  0  0  0  0  0  0
   37.1240   44.6020   52.4910 C   0  0  0  0  0  0  0  0  0  0  0  0
   36.1600   44.2730   51.4770 C   0  0  0  0  0  0  0  0  0  0  0  0
   36.1990   43.0330   50.7970 C   0  0  0  0  0  0  0  0  0  0  0  0
   37.2020   42.0560   51.0960 C   0  0  0  0  0  0  0  0  0  0  0  0
   38.1740   42.3800   52.1140 C   0  0  0  0  0  0  0  0  0  0  0  0
   38.4060   46.9190   53.4430 C   0  0  1  0  0  0  0  0  0  0  0  0
   39.5590   46.2100   54.0950 N   0  0  0  0  0  0  0  0  0  0  0  0
   37.1360   45.9930   53.2770 C   0  0  0  0  0  0  0  0  0  0  0  0
   38.7600   47.4460   51.9640 C   0  0  0  0  0  0  0  0  0  0  0  0
   40.9200   44.8760   57.8840 C   0  0  0  0  0  0  0  0  0  0  0  0
   41.6110   44.7220   56.6380 C   0  0  0  0  0  0  0  0  0  0  0  0
   41.0400   45.2110   55.4750 C   0  0  0  0  0  0  0  0  0  0  0  0
   39.7360   45.8790   55.4800 C   0  0  0  0  0  0  0  0  0  0  0  0
   39.0480   46.0320   56.7270 C   0  0  0  0  0  0  0  0  0  0  0  0
   39.6380   45.5270   57.9350 C   0  0  0  0  0  0  0  0  0  0  0  0
   41.4070   45.2350   54.1750 N   0  0  0  0  0  0  0  0  0  0  0  0
   40.5860   45.8100   53.2850 N   0  0  0  0  0  0  0  0  0  0  0  0
   34.5550   50.1210   48.7430 C   0  0  0  0  0  0  0  0  0  0  0  0
   34.0850   51.2050   49.3970 F   0  0  0  0  0  0  0  0  0  0  0  0
   33.5590   49.2200   48.6220 F   0  0  0  0  0  0  0  0  0  0  0  0
   35.0940   50.6430   47.0590 P   0  0  0  0  0  0  0  0  0  0  0  0
   35.6380   49.4280   46.2800 O   0  0  0  0  0  1  0  0  0  0  0  0
   36.1580   51.6450   47.2360 O   0  0  0  0  0  1  0  0  0  0  0  0
   33.8310   51.2100   46.4060 O   0  0  0  0  0  0  0  0  0  0  0  0
   38.5790   40.0340   50.1320 C   0  0  0  0  0  0  0  0  0  0  0  0
   39.8150   36.7380   48.5030 C   0  0  0  0  0  0  0  0  0  0  0  0
   39.8350   38.0120   49.1610 C   0  0  0  0  0  0  0  0  0  0  0  0
   38.6110   38.7320   49.4690 C   0  0  0  0  0  0  0  0  0  0  0  0
   37.3210   38.0980   49.0760 C   0  0  0  0  0  0  0  0  0  0  0  0
   37.3700   36.8570   48.4450 N   0  0  0  0  0  0  0  0  0  0  0  0
   38.5150   36.1710   48.1510 C   0  0  0  0  0  0  0  0  0  0  0  0
   37.2860   40.6640   50.3870 C   0  0  0  0  0  0  0  0  0  0  0  0
   36.0690   40.0170   49.9930 C   0  0  0  0  0  0  0  0  0  0  0  0
   36.0640   38.7520   49.3490 C   0  0  0  0  0  0  0  0  0  0  0  0
   34.4530   38.0370   48.9140 P   0  0  0  0  0  0  0  0  0  0  0  0
   33.4450   39.1590   48.7060 O   0  0  0  0  0  1  0  0  0  0  0  0
   33.9700   37.1750   49.9840 O   0  0  0  0  0  1  0  0  0  0  0  0
   34.5960   37.2630   47.5800 O   0  0  0  0  0  0  0  0  0  0  0  0
   38.7920   35.7210   45.4280 C   0  0  0  0  0  0  0  0  0  0  0  0
   38.4930   34.7740   46.2060 O   0  0  0  0  0  0  0  0  0  0  0  0
   38.3450   34.9320   47.4800 C   0  0  1  0  0  0  0  0  0  0  0  0
   39.0750   34.0460   48.4990 C   0  0  0  0  0  0  0  0  0  0  0  0
   39.4330   33.5860   49.8670 C   0  0  0  0  0  0  0  0  0  0  0  0
   38.4120   33.2000   50.9290 C   0  0  0  0  0  0  0  0  0  0  0  0
   40.4320   32.4330   49.6680 C   0  0  0  0  0  0  0  0  0  0  0  0
   37.0463   51.5503   56.2756 H   0  0  0  0  0  0  0  0  0  0  0  0
   39.4334   51.1184   55.6353 H   0  0  0  0  0  0  0  0  0  0  0  0
   40.0600   49.0664   54.3632 H   0  0  0  0  0  0  0  0  0  0  0  0
   35.8528   47.7968   54.4496 H   0  0  0  0  0  0  0  0  0  0  0  0
   35.2572   49.8892   55.6929 H   0  0  0  0  0  0  0  0  0  0  0  0
   37.0436   46.3839   50.0009 H   0  0  0  0  0  0  0  0  0  0  0  0
   38.0374   50.1505   51.9874 H   0  0  0  0  0  0  0  0  0  0  0  0
   36.2710   51.3169   50.6306 H   0  0  0  0  0  0  0  0  0  0  0  0
   35.3076   47.5208   48.6702 H   0  0  0  0  0  0  0  0  0  0  0  0
   38.8855   43.8436   53.5583 H   0  0  0  0  0  0  0  0  0  0  0  0
   35.3864   44.9904   51.2279 H   0  0  0  0  0  0  0  0  0  0  0  0
   35.4568   42.8189   50.0365 H   0  0  0  0  0  0  0  0  0  0  0  0
   38.9444   41.6584   52.3606 H   0  0  0  0  0  0  0  0  0  0  0  0
   36.8070   45.7571   54.2998 H   0  0  0  0  0  0  0  0  0  0  0  0
   36.3776   46.6179   52.7828 H   0  0  0  0  0  0  0  0  0  0  0  0
   39.5978   48.1505   52.0721 H   0  0  0  0  0  0  0  0  0  0  0  0
   39.0901   46.5694   51.3872 H   0  0  0  0  0  0  0  0  0  0  0  0
   41.3673   44.4985   58.7964 H   0  0  0  0  0  0  0  0  0  0  0  0
   42.5743   44.2260   56.6061 H   0  0  0  0  0  0  0  0  0  0  0  0
   38.0845   46.5277   56.7588 H   0  0  0  0  0  0  0  0  0  0  0  0
   39.1198   45.6358   58.8809 H   0  0  0  0  0  0  0  0  0  0  0  0
   39.4991   40.5239   50.4295 H   0  0  0  0  0  0  0  0  0  0  0  0
   40.7349   36.2123   48.2740 H   0  0  0  0  0  0  0  0  0  0  0  0
   40.7881   38.4493   49.4358 H   0  0  0  0  0  0  0  0  0  0  0  0
   35.1238   40.5087   50.1929 H   0  0  0  0  0  0  0  0  0  0  0  0
   38.8613   35.3413   44.3979 H   0  0  0  0  0  0  0  0  0  0  0  0
   39.7601   36.1493   45.7268 H   0  0  0  0  0  0  0  0  0  0  0  0
   38.0153   36.4981   45.4808 H   0  0  0  0  0  0  0  0  0  0  0  0
   37.2777   34.6904   47.5918 H   0  0  0  0  0  0  0  0  0  0  0  0
   40.0982   34.2409   48.1454 H   0  0  0  0  0  0  0  0  0  0  0  0
   38.7316   33.0756   48.1112 H   0  0  0  0  0  0  0  0  0  0  0  0
   39.9790   34.4298   50.3140 H   0  0  0  0  0  0  0  0  0  0  0  0
   38.9354   32.8973   51.8479 H   0  0  0  0  0  0  0  0  0  0  0  0
   37.8005   32.3623   50.5625 H   0  0  0  0  0  0  0  0  0  0  0  0
   37.7627   34.0615   51.1438 H   0  0  0  0  0  0  0  0  0  0  0  0
   41.1683   32.7142   48.9006 H   0  0  0  0  0  0  0  0  0  0  0  0
   39.8915   31.5312   49.3445 H   0  0  0  0  0  0  0  0  0  0  0  0
   40.9506   32.2293   50.6165 H   0  0  0  0  0  0  0  0  0  0  0  0
  1 59  1  0  0  0  0
  2  1  2  0  0  0  0
  2 60  1  0  0  0  0
  3  2  1  0  0  0  0
  3 61  1  0  0  0  0
  4  3  2  0  0  0  0
  4  5  1  0  0  0  0
  5  6  2  0  0  0  0
  5 62  1  0  0  0  0
  6  1  1  0  0  0  0
  6 63  1  0  0  0  0
  7 12  1  0  0  0  0
  7 64  1  0  0  0  0
  8  7  2  0  0  0  0
  8  9  1  0  0  0  0
  9 10  2  0  0  0  0
  9 65  1  0  0  0  0
 10 11  1  0  0  0  0
 10 66  1  0  0  0  0
 11 31  1  0  0  0  0
 12 11  2  0  0  0  0
 12 67  1  0  0  0  0
 13 14  2  0  0  0  0
 13 68  1  0  0  0  0
 14 21  1  0  0  0  0
 15 14  1  0  0  0  0
 15 69  1  0  0  0  0
 16 15  2  0  0  0  0
 16 70  1  0  0  0  0
 17 16  1  0  0  0  0
 17 18  2  0  0  0  0
 18 13  1  0  0  0  0
 18 71  1  0  0  0  0
 19  4  1  0  0  0  0
 19 20  1  0  0  0  0
 19 21  1  6  0  0  0
 19 22  1  0  0  0  0
 20 26  1  0  0  0  0
 20 30  1  0  0  0  0
 21 72  1  0  0  0  0
 21 73  1  0  0  0  0
 22  8  1  0  0  0  0
 22 74  1  0  0  0  0
 22 75  1  0  0  0  0
 23 76  1  0  0  0  0
 24 23  2  0  0  0  0
 24 77  1  0  0  0  0
 25 24  1  0  0  0  0
 26 25  2  0  0  0  0
 26 27  1  0  0  0  0
 27 28  2  0  0  0  0
 27 78  1  0  0  0  0
 28 23  1  0  0  0  0
 28 79  1  0  0  0  0
 29 25  1  0  0  0  0
 30 29  2  0  0  0  0
 31 32  1  0  0  0  0
 31 33  1  0  0  0  0
 31 34  1  0  0  0  0
 34 35  1  0  0  0  0
 34 36  1  0  0  0  0
 34 37  2  0  0  0  0
 38 45  1  0  0  0  0
 38 80  1  0  0  0  0
 39 40  2  0  0  0  0
 39 81  1  0  0  0  0
 40 41  1  0  0  0  0
 40 82  1  0  0  0  0
 41 38  2  0  0  0  0
 42 41  1  0  0  0  0
 42 47  2  0  0  0  0
 43 42  1  0  0  0  0
 44 39  1  0  0  0  0
 44 43  2  0  0  0  0
 45 17  1  0  0  0  0
 46 45  2  0  0  0  0
 46 83  1  0  0  0  0
 47 46  1  0  0  0  0
 47 48  1  0  0  0  0
 48 49  1  0  0  0  0
 48 50  1  0  0  0  0
 48 51  2  0  0  0  0
 52 84  1  0  0  0  0
 52 85  1  0  0  0  0
 52 86  1  0  0  0  0
 53 52  1  0  0  0  0
 53 54  1  0  0  0  0
 54 44  1  0  0  0  0
 54 55  1  0  0  0  0
 54 87  1  1  0  0  0
 55 56  1  0  0  0  0
 55 88  1  0  0  0  0
 55 89  1  0  0  0  0
 56 57  1  0  0  0  0
 56 58  1  0  0  0  0
 56 90  1  0  0  0  0
 57 91  1  0  0  0  0
 57 92  1  0  0  0  0
 57 93  1  0  0  0  0
 58 94  1  0  0  0  0
 58 95  1  0  0  0  0
 58 96  1  0  0  0  0
M  END
