1q83_ligand
 OpenBabel08222323343D

 95102  0  0  0  0  0  0  0  0999 V2000
   38.9010   20.9180   11.4650 N   0  0  0  0  0  0  0  0  0  0  0  0
   39.1050   22.2690   11.2770 C   0  0  0  0  0  0  0  0  0  0  0  0
   40.2920   22.9460   11.6000 C   0  0  0  0  0  0  0  0  0  0  0  0
   40.4080   24.2850   11.3790 C   0  0  0  0  0  3  0  0  0  0  0  0
   39.3830   25.1300   10.7970 C   0  0  0  0  0  0  0  0  0  0  0  0
   38.0960   23.0700   10.7510 C   0  0  0  0  0  0  0  0  0  0  0  0
   38.1150   24.4880   10.5410 C   0  0  0  0  0  0  0  0  0  0  0  0
   37.1640   25.1420    9.7080 N   0  0  0  0  0  0  0  0  0  0  0  0
   37.4200   26.2990    9.0340 C   0  0  0  0  0  0  0  0  0  0  0  0
   36.3970   26.9140    8.1160 C   0  0  0  0  0  0  0  0  0  0  0  0
   35.5300   27.9320    8.5560 C   0  0  0  0  0  0  0  0  0  0  0  0
   34.5990   28.5070    7.6820 C   0  0  0  0  0  0  0  0  0  0  0  0
   34.5100   28.0660    6.3530 C   0  0  0  0  0  0  0  0  0  0  0  0
   35.3570   27.0520    5.8830 C   0  0  0  0  0  0  0  0  0  0  0  0
   36.2810   26.4960    6.7660 C   0  0  0  0  0  0  0  0  0  0  0  0
   38.6980   26.9340    9.1710 C   0  0  0  0  0  0  0  0  0  0  0  0
   38.9430   28.2670    8.6300 C   0  0  0  0  0  0  0  0  0  0  0  0
   39.6940   26.3720   10.0720 C   0  0  0  0  0  0  0  0  0  0  0  0
   40.8030   27.2530   10.3770 C   0  0  0  0  0  0  0  0  0  0  0  0
   40.9740   28.5160    9.8550 C   0  0  0  0  0  0  0  0  0  0  0  0
   40.0270   29.0850    8.9430 C   0  0  0  0  0  0  0  0  0  0  0  0
   40.1590   30.3490    8.3960 N   0  0  0  0  0  0  0  0  0  0  0  0
   35.8120   24.5110    9.5120 C   0  0  0  0  0  0  0  0  0  0  0  0
   35.6220   23.5010    8.3590 C   0  0  0  0  0  0  0  0  0  0  0  0
   34.1670   23.0050    8.1460 C   0  0  0  0  0  0  0  0  0  0  0  0
   33.4440   22.7850    9.4740 C   0  0  0  0  0  0  0  0  0  0  0  0
   32.1100   22.0620    9.3630 C   0  0  0  0  0  0  0  0  0  0  0  0
   31.3560   22.3370   10.6500 C   0  0  0  0  0  0  0  0  0  0  0  0
   31.1550   21.2470   11.6500 C   0  0  0  0  0  0  0  0  0  0  0  0
   31.1690   21.1640   12.9950 N   0  0  0  0  0  0  0  0  0  0  0  0
   30.8620   19.9550   13.4210 N   0  0  0  0  0  0  0  0  0  0  0  0
   30.6140   19.1340   12.4430 N   0  0  0  0  0  0  0  0  0  0  0  0
   30.7900   19.9420   11.4160 C   0  0  0  0  0  0  0  0  0  0  0  0
   31.4670   22.2890   13.8610 C   0  0  0  0  0  0  0  0  0  0  0  0
   30.2140   23.1250   14.1090 C   0  0  0  0  0  0  0  0  0  0  0  0
   29.3190   22.4800   15.0820 N   0  0  0  0  0  0  0  0  0  0  0  0
   28.0830   22.0010   14.6850 C   0  0  0  0  0  0  0  0  0  0  0  0
   27.1280   22.7250   13.9170 C   0  0  0  0  0  0  0  0  0  0  0  0
   27.2380   24.1160   13.5150 C   0  0  0  0  0  0  0  0  0  0  0  0
   25.9150   22.0810   13.5640 C   0  0  0  0  0  0  0  0  0  0  0  0
   24.9380   22.8280   12.8140 C   0  0  0  0  0  0  0  0  0  0  0  0
   25.1060   24.1260   12.4510 C   0  0  0  0  0  0  0  0  0  0  0  0
   26.2980   24.7910   12.8130 C   0  0  0  0  0  0  0  0  0  0  0  0
   25.6220   20.8320   13.9560 N   0  0  0  0  0  0  0  0  0  0  0  0
   26.5130   20.1200   14.6760 C   0  0  0  0  0  0  0  0  0  0  0  0
   26.1340   18.8120   15.1710 C   0  0  0  0  0  0  0  0  0  0  0  0
   27.7540   20.6860   15.1080 C   0  0  0  0  0  0  0  0  0  0  0  0
   28.4560   19.8840   16.0930 C   0  0  0  0  0  0  0  0  0  0  0  0
   28.0000   18.6590   16.5150 C   0  0  0  0  0  0  0  0  0  0  0  0
   27.0180   17.9550   15.7610 C   0  0  0  0  0  0  0  0  0  0  0  0
   39.6536   20.3329   11.8550 H   0  0  0  0  0  0  0  0  0  0  0  0
   37.9960   20.4942   11.2154 H   0  0  0  0  0  0  0  0  0  0  0  0
   41.1233   22.3982   12.0290 H   0  0  0  0  0  0  0  0  0  0  0  0
   41.3421   24.7573   11.6610 H   0  0  0  0  0  0  0  0  0  0  0  0
   37.1837   22.5591   10.4650 H   0  0  0  0  0  0  0  0  0  0  0  0
   35.5836   28.2747    9.5830 H   0  0  0  0  0  0  0  0  0  0  0  0
   33.9443   29.2961    8.0338 H   0  0  0  0  0  0  0  0  0  0  0  0
   33.7818   28.5120    5.6852 H   0  0  0  0  0  0  0  0  0  0  0  0
   35.2945   26.7086    4.8567 H   0  0  0  0  0  0  0  0  0  0  0  0
   36.9376   25.7122    6.4061 H   0  0  0  0  0  0  0  0  0  0  0  0
   38.2186   28.6548    7.9229 H   0  0  0  0  0  0  0  0  0  0  0  0
   41.5551   26.8907   11.0684 H   0  0  0  0  0  0  0  0  0  0  0  0
   41.8458   29.0932   10.1410 H   0  0  0  0  0  0  0  0  0  0  0  0
   39.4450   30.7055    7.7448 H   0  0  0  0  0  0  0  0  0  0  0  0
   40.9712   30.9335    8.6400 H   0  0  0  0  0  0  0  0  0  0  0  0
   35.0946   25.3284    9.3471 H   0  0  0  0  0  0  0  0  0  0  0  0
   35.5617   23.9863   10.4458 H   0  0  0  0  0  0  0  0  0  0  0  0
   36.2529   22.6244    8.5675 H   0  0  0  0  0  0  0  0  0  0  0  0
   35.9573   23.9810    7.4278 H   0  0  0  0  0  0  0  0  0  0  0  0
   34.1919   22.0549    7.5922 H   0  0  0  0  0  0  0  0  0  0  0  0
   33.6165   23.7563    7.5608 H   0  0  0  0  0  0  0  0  0  0  0  0
   33.2628   23.7686    9.9319 H   0  0  0  0  0  0  0  0  0  0  0  0
   34.1011   22.1919   10.1271 H   0  0  0  0  0  0  0  0  0  0  0  0
   32.2737   20.9809    9.2433 H   0  0  0  0  0  0  0  0  0  0  0  0
   31.5421   22.4444    8.5020 H   0  0  0  0  0  0  0  0  0  0  0  0
   30.3551   22.6902   10.3613 H   0  0  0  0  0  0  0  0  0  0  0  0
   31.8951   23.1449   11.1664 H   0  0  0  0  0  0  0  0  0  0  0  0
   30.6485   19.5814   10.3982 H   0  0  0  0  0  0  0  0  0  0  0  0
   32.2328   22.9187   13.3846 H   0  0  0  0  0  0  0  0  0  0  0  0
   31.8470   21.9138   14.8227 H   0  0  0  0  0  0  0  0  0  0  0  0
   29.6756   23.2527   13.1583 H   0  0  0  0  0  0  0  0  0  0  0  0
   30.5126   24.1102   14.4966 H   0  0  0  0  0  0  0  0  0  0  0  0
   29.6140   22.3844   16.0642 H   0  0  0  0  0  0  0  0  0  0  0  0
   28.1370   24.6520   13.7972 H   0  0  0  0  0  0  0  0  0  0  0  0
   24.0208   22.3281   12.5242 H   0  0  0  0  0  0  0  0  0  0  0  0
   24.3358   24.6442   11.8912 H   0  0  0  0  0  0  0  0  0  0  0  0
   26.4577   25.8260   12.5330 H   0  0  0  0  0  0  0  0  0  0  0  0
   25.7171   18.2709   14.3088 H   0  0  0  0  0  0  0  0  0  0  0  0
   25.3407   18.9869   15.9127 H   0  0  0  0  0  0  0  0  0  0  0  0
   28.5315   20.5080   16.9957 H   0  0  0  0  0  0  0  0  0  0  0  0
   29.4616   19.7095   15.6827 H   0  0  0  0  0  0  0  0  0  0  0  0
   27.5784   18.8086   17.5199 H   0  0  0  0  0  0  0  0  0  0  0  0
   28.8789   18.0008   16.5803 H   0  0  0  0  0  0  0  0  0  0  0  0
   27.5210   17.3660   14.9800 H   0  0  0  0  0  0  0  0  0  0  0  0
   26.4677   17.2795   16.4325 H   0  0  0  0  0  0  0  0  0  0  0  0
  1  2  1  0  0  0  0
  1 51  1  0  0  0  0
  1 52  1  0  0  0  0
  2  3  2  0  0  0  0
  2  6  1  0  0  0  0
  3  4  1  0  0  0  0
  3 53  1  0  0  0  0
  4  5  1  0  0  0  0
  4 54  1  0  0  0  0
  5  7  1  0  0  0  0
  5 18  2  0  0  0  0
  6  7  2  0  0  0  0
  6 55  1  0  0  0  0
  7  8  1  0  0  0  0
  8  9  1  0  0  0  0
  8 23  1  0  0  0  0
  9 10  1  0  0  0  0
  9 16  2  0  0  0  0
 10 11  2  0  0  0  0
 10 15  1  0  0  0  0
 11 12  1  0  0  0  0
 11 56  1  0  0  0  0
 12 13  2  0  0  0  0
 12 57  1  0  0  0  0
 13 14  1  0  0  0  0
 13 58  1  0  0  0  0
 14 15  2  0  0  0  0
 14 59  1  0  0  0  0
 15 60  1  0  0  0  0
 16 17  1  0  0  0  0
 16 18  1  0  0  0  0
 17 21  2  0  0  0  0
 17 61  1  0  0  0  0
 18 19  1  0  0  0  0
 19 20  2  0  0  0  0
 19 62  1  0  0  0  0
 20 21  1  0  0  0  0
 20 63  1  0  0  0  0
 21 22  1  0  0  0  0
 22 64  1  0  0  0  0
 22 65  1  0  0  0  0
 23 24  1  0  0  0  0
 23 66  1  0  0  0  0
 23 67  1  0  0  0  0
 24 25  1  0  0  0  0
 24 68  1  0  0  0  0
 24 69  1  0  0  0  0
 25 26  1  0  0  0  0
 25 70  1  0  0  0  0
 25 71  1  0  0  0  0
 26 27  1  0  0  0  0
 26 72  1  0  0  0  0
 26 73  1  0  0  0  0
 27 28  1  0  0  0  0
 27 74  1  0  0  0  0
 27 75  1  0  0  0  0
 28 29  1  0  0  0  0
 28 76  1  0  0  0  0
 28 77  1  0  0  0  0
 29 30  1  0  0  0  0
 29 33  2  0  0  0  0
 30 31  1  0  0  0  0
 30 34  1  0  0  0  0
 31 32  2  0  0  0  0
 32 33  1  0  0  0  0
 33 78  1  0  0  0  0
 34 35  1  0  0  0  0
 34 79  1  0  0  0  0
 34 80  1  0  0  0  0
 35 36  1  0  0  0  0
 35 81  1  0  0  0  0
 35 82  1  0  0  0  0
 36 37  1  0  0  0  0
 36 83  1  0  0  0  0
 37 38  2  0  0  0  0
 37 47  1  0  0  0  0
 38 39  1  0  0  0  0
 38 40  1  0  0  0  0
 39 43  2  0  0  0  0
 39 84  1  0  0  0  0
 40 41  1  0  0  0  0
 40 44  2  0  0  0  0
 41 42  2  0  0  0  0
 41 85  1  0  0  0  0
 42 43  1  0  0  0  0
 42 86  1  0  0  0  0
 43 87  1  0  0  0  0
 44 45  1  0  0  0  0
 45 46  1  0  0  0  0
 45 47  2  0  0  0  0
 46 50  1  0  0  0  0
 46 88  1  0  0  0  0
 46 89  1  0  0  0  0
 47 48  1  0  0  0  0
 48 49  1  0  0  0  0
 48 90  1  0  0  0  0
 48 91  1  0  0  0  0
 49 50  1  0  0  0  0
 49 92  1  0  0  0  0
 49 93  1  0  0  0  0
 50 94  1  0  0  0  0
 50 95  1  0  0  0  0
M  END
