1qaq_ligand
 OpenBabel08222323343D

 51 53  0  0  1  0  0  0  0  0999 V2000
   12.1110   36.9810   22.6730 N   0  3  0  0  0  0  0  0  0  0  0  0
   13.0760   37.6830   21.8340 C   0  0  2  0  0  0  0  0  0  0  0  0
   12.5140   37.4720   20.4390 C   0  0  0  0  0  0  0  0  0  0  0  0
   12.1870   38.4400   19.7820 O   0  5  0  0  0  0  0  0  0  0  0  0
   12.4100   36.3410   19.9940 O   0  0  0  0  0  0  0  0  0  0  0  0
   14.5510   37.2050   21.9730 C   0  0  0  0  0  0  0  0  0  0  0  0
   14.7890   35.7010   21.6950 C   0  0  0  0  0  0  0  0  0  0  0  0
   16.2600   35.3190   21.4260 C   0  0  2  0  0  0  0  0  0  0  0  0
   16.3560   34.3510   20.3450 N   0  3  0  0  0  0  0  0  0  0  0  0
   17.0300   34.7280   22.6350 C   0  0  0  0  0  0  0  0  0  0  0  0
   16.9900   35.5940   23.9090 C   0  0  1  0  0  0  0  0  0  0  0  0
   17.3120   34.8440   25.0610 O   0  0  0  0  0  0  0  0  0  0  0  0
   17.9390   36.7900   23.8840 C   0  0  1  0  0  0  0  0  0  0  0  0
   17.3230   37.9760   24.4190 O   0  0  0  0  0  0  0  0  0  0  0  0
   19.0850   36.3570   24.7890 C   0  0  1  0  0  0  0  0  0  0  0  0
   19.6350   37.4930   25.4650 O   0  0  0  0  0  0  0  0  0  0  0  0
   18.3690   35.4470   25.7770 C   0  0  2  0  0  0  0  0  0  0  0  0
   19.2690   34.4050   26.3280 N   0  0  0  0  0  0  0  0  0  0  0  0
   20.2890   33.7290   25.7320 C   0  0  0  0  0  0  0  0  0  0  0  0
   20.9130   32.8310   26.5310 N   0  0  0  0  0  0  0  0  0  0  0  0
   20.2390   32.9270   27.7310 C   0  0  0  0  0  0  0  0  0  0  0  0
   20.3470   32.3090   28.9550 C   0  0  0  0  0  0  0  0  0  0  0  0
   21.2880   31.3770   29.1540 N   0  0  0  0  0  0  0  0  0  0  0  0
   19.5340   32.5960   30.0050 N   0  0  0  0  0  0  0  0  0  0  0  0
   18.5710   33.5490   29.8160 C   0  0  0  0  0  0  0  0  0  0  0  0
   18.3780   34.2110   28.6580 N   0  0  0  0  0  0  0  0  0  0  0  0
   19.2110   33.9080   27.6150 C   0  0  0  0  0  0  0  0  0  0  0  0
   12.3885   37.0561   23.6391 H   0  0  0  0  0  0  0  0  0  0  0  0
   12.0789   36.0092   22.4072 H   0  0  0  0  0  0  0  0  0  0  0  0
   11.1988   37.3927   22.5525 H   0  0  0  0  0  0  0  0  0  0  0  0
   13.0576   38.7545   22.0820 H   0  0  0  0  0  0  0  0  0  0  0  0
   14.8813   37.4168   23.0006 H   0  0  0  0  0  0  0  0  0  0  0  0
   15.1633   37.7823   21.2647 H   0  0  0  0  0  0  0  0  0  0  0  0
   14.1949   35.4174   20.8138 H   0  0  0  0  0  0  0  0  0  0  0  0
   14.4419   35.1318   22.5700 H   0  0  0  0  0  0  0  0  0  0  0  0
   16.7781   36.2395   21.1190 H   0  0  0  0  0  0  0  0  0  0  0  0
   17.3239   34.1175   20.1881 H   0  0  0  0  0  0  0  0  0  0  0  0
   15.9652   34.7464   19.5042 H   0  0  0  0  0  0  0  0  0  0  0  0
   15.8455   33.5181   20.5934 H   0  0  0  0  0  0  0  0  0  0  0  0
   18.0822   34.5989   22.3413 H   0  0  0  0  0  0  0  0  0  0  0  0
   16.5928   33.7472   22.8735 H   0  0  0  0  0  0  0  0  0  0  0  0
   15.9628   35.9737   24.0118 H   0  0  0  0  0  0  0  0  0  0  0  0
   18.2915   36.9869   22.8608 H   0  0  0  0  0  0  0  0  0  0  0  0
   17.0655   37.8189   25.3198 H   0  0  0  0  0  0  0  0  0  0  0  0
   19.8716   35.8249   24.2339 H   0  0  0  0  0  0  0  0  0  0  0  0
   18.9597   37.9043   25.9916 H   0  0  0  0  0  0  0  0  0  0  0  0
   17.9681   36.0463   26.6077 H   0  0  0  0  0  0  0  0  0  0  0  0
   20.5799   33.8967   24.6961 H   0  0  0  0  0  0  0  0  0  0  0  0
   21.3688   30.9143   30.0706 H   0  0  0  0  0  0  0  0  0  0  0  0
   21.9309   31.1230   28.3904 H   0  0  0  0  0  0  0  0  0  0  0  0
   17.9217   33.7869   30.6508 H   0  0  0  0  0  0  0  0  0  0  0  0
  1  2  1  0  0  0  0
  1 28  1  0  0  0  0
  1 29  1  0  0  0  0
  1 30  1  0  0  0  0
  2  3  1  0  0  0  0
  2  6  1  0  0  0  0
  2 31  1  1  0  0  0
  3  4  1  0  0  0  0
  3  5  2  0  0  0  0
  6  7  1  0  0  0  0
  6 32  1  0  0  0  0
  6 33  1  0  0  0  0
  7  8  1  0  0  0  0
  7 34  1  0  0  0  0
  7 35  1  0  0  0  0
  8  9  1  0  0  0  0
  8 10  1  0  0  0  0
  8 36  1  6  0  0  0
  9 37  1  0  0  0  0
  9 38  1  0  0  0  0
  9 39  1  0  0  0  0
 10 11  1  0  0  0  0
 10 40  1  0  0  0  0
 10 41  1  0  0  0  0
 11 12  1  0  0  0  0
 11 13  1  0  0  0  0
 11 42  1  1  0  0  0
 12 17  1  0  0  0  0
 13 14  1  0  0  0  0
 13 15  1  0  0  0  0
 13 43  1  6  0  0  0
 14 44  1  0  0  0  0
 15 16  1  0  0  0  0
 15 17  1  0  0  0  0
 15 45  1  6  0  0  0
 16 46  1  0  0  0  0
 17 18  1  0  0  0  0
 17 47  1  1  0  0  0
 18 19  1  0  0  0  0
 18 27  1  0  0  0  0
 19 20  2  0  0  0  0
 19 48  1  0  0  0  0
 20 21  1  0  0  0  0
 21 22  2  0  0  0  0
 21 27  1  0  0  0  0
 22 23  1  0  0  0  0
 22 24  1  0  0  0  0
 23 49  1  0  0  0  0
 23 50  1  0  0  0  0
 24 25  2  0  0  0  0
 25 26  1  0  0  0  0
 25 51  1  0  0  0  0
 26 27  2  0  0  0  0
M  CHG  3   1   1   4  -1   9   1
M  END
