1qf5_ligand
 OpenBabel08222323343D

 50 51  0  0  1  0  0  0  0  0999 V2000
   25.2110   11.8440   23.9120 O   0  0  0  0  0  1  0  0  0  0  0  0
   27.2260   12.7610   23.0160 O   0  0  0  0  0  1  0  0  0  0  0  0
   25.0750   13.5570   22.2830 O   0  0  0  0  0  0  0  0  0  0  0  0
   25.8210   13.0640   23.4200 P   0  0  0  0  0  0  0  0  0  0  0  0
   25.8650   14.1420   24.6270 O   0  0  0  0  0  0  0  0  0  0  0  0
   26.3270   13.8490   25.9290 C   0  0  0  0  0  0  0  0  0  0  0  0
   27.1680   14.9930   26.4930 C   0  0  1  0  0  0  0  0  0  0  0  0
   28.4210   15.0700   25.8250 O   0  0  0  0  0  0  0  0  0  0  0  0
   26.5510   16.3600   26.2920 C   0  0  1  0  0  0  0  0  0  0  0  0
   27.1360   17.3120   27.1880 O   0  0  0  0  0  0  0  0  0  0  0  0
   27.0050   16.6590   24.8400 C   0  0  1  0  0  0  0  0  0  0  0  0
   27.0320   18.0710   24.6620 O   0  0  0  0  0  0  0  0  0  0  0  0
   28.4450   16.0750   24.7460 C   0  0  2  0  0  0  0  0  0  0  0  0
   28.5530   15.4530   23.5410 N   0  0  0  0  0  0  0  0  0  0  0  0
   29.6160   15.9590   22.8240 C   0  0  0  0  0  0  0  0  0  0  0  0
   29.9260   15.5830   21.7460 O   0  0  0  0  0  0  0  0  0  0  0  0
   30.2370   16.9470   23.5760 N   0  0  0  0  0  0  0  0  0  0  0  0
   29.5210   17.0280   24.7520 C   0  0  0  0  0  0  0  0  0  0  0  0
   29.8460   17.8340   25.6210 O   0  0  0  0  0  0  0  0  0  0  0  0
   31.4080   17.7670   23.2140 C   0  0  0  0  0  0  0  0  0  0  0  0
   31.1690   18.4570   21.8620 C   0  0  0  0  0  0  0  0  0  0  0  0
   30.0270   19.5020   21.9470 C   0  0  0  0  0  0  0  0  0  0  0  0
   29.5780   19.9160   20.5100 C   0  0  1  0  0  0  0  0  0  0  0  0
   28.2700   20.7080   20.5480 C   0  0  0  0  0  0  0  0  0  0  0  0
   27.9690   21.5230   19.5170 O   0  5  0  0  0  0  0  0  0  0  0  0
   27.4300   20.6180   21.5970 O   0  0  0  0  0  0  0  0  0  0  0  0
   30.5980   20.7990   19.8170 N   0  3  1  0  0  0  0  0  0  0  0  0
   31.1570   21.7600   20.7650 O   0  0  0  0  0  0  0  0  0  0  0  0
   31.6790   19.9990   19.2370 C   0  0  0  0  0  0  0  0  0  0  0  0
   32.3850   20.7200   18.2300 O   0  0  0  0  0  0  0  0  0  0  0  0
   26.9410   12.9370   25.8940 H   0  0  0  0  0  0  0  0  0  0  0  0
   25.4613   13.6832   26.5870 H   0  0  0  0  0  0  0  0  0  0  0  0
   27.3209   14.8128   27.5673 H   0  0  0  0  0  0  0  0  0  0  0  0
   25.4564   16.3479   26.3999 H   0  0  0  0  0  0  0  0  0  0  0  0
   26.9870   17.0347   28.0843 H   0  0  0  0  0  0  0  0  0  0  0  0
   26.3371   16.1906   24.1022 H   0  0  0  0  0  0  0  0  0  0  0  0
   27.6422   18.4554   25.2804 H   0  0  0  0  0  0  0  0  0  0  0  0
   27.9443   14.7277   23.2193 H   0  0  0  0  0  0  0  0  0  0  0  0
   32.2961   17.1220   23.1417 H   0  0  0  0  0  0  0  0  0  0  0  0
   31.5715   18.5306   23.9887 H   0  0  0  0  0  0  0  0  0  0  0  0
   30.9006   17.6952   21.1152 H   0  0  0  0  0  0  0  0  0  0  0  0
   32.0944   18.9644   21.5519 H   0  0  0  0  0  0  0  0  0  0  0  0
   30.3851   20.3906   22.4874 H   0  0  0  0  0  0  0  0  0  0  0  0
   29.1723   19.0655   22.4846 H   0  0  0  0  0  0  0  0  0  0  0  0
   29.4331   19.0004   19.9179 H   0  0  0  0  0  0  0  0  0  0  0  0
   30.1359   21.3027   19.0762 H   0  0  0  0  0  0  0  0  0  0  0  0
   31.5801   21.2926   21.4756 H   0  0  0  0  0  0  0  0  0  0  0  0
   31.2499   19.0900   18.7903 H   0  0  0  0  0  0  0  0  0  0  0  0
   32.3827   19.7186   20.0346 H   0  0  0  0  0  0  0  0  0  0  0  0
   33.0767   20.1730   17.8766 H   0  0  0  0  0  0  0  0  0  0  0  0
  1  4  1  0  0  0  0
  4  2  1  0  0  0  0
  4  3  2  0  0  0  0
  4  5  1  0  0  0  0
  5  6  1  0  0  0  0
  6  7  1  0  0  0  0
  6 31  1  0  0  0  0
  6 32  1  0  0  0  0
  7  8  1  0  0  0  0
  7  9  1  0  0  0  0
  7 33  1  1  0  0  0
  9 10  1  0  0  0  0
  9 11  1  0  0  0  0
  9 34  1  1  0  0  0
 10 35  1  0  0  0  0
 11 12  1  0  0  0  0
 11 13  1  0  0  0  0
 11 36  1  6  0  0  0
 12 37  1  0  0  0  0
 13  8  1  1  0  0  0
 13 14  1  0  0  0  0
 13 18  1  0  0  0  0
 14 15  1  0  0  0  0
 14 38  1  0  0  0  0
 15 16  2  0  0  0  0
 15 17  1  0  0  0  0
 17 18  1  0  0  0  0
 17 20  1  0  0  0  0
 18 19  2  0  0  0  0
 20 21  1  0  0  0  0
 20 39  1  0  0  0  0
 20 40  1  0  0  0  0
 21 22  1  0  0  0  0
 21 41  1  0  0  0  0
 21 42  1  0  0  0  0
 22 23  1  0  0  0  0
 22 43  1  0  0  0  0
 22 44  1  0  0  0  0
 23 24  1  0  0  0  0
 23 27  1  0  0  0  0
 23 45  1  6  0  0  0
 24 25  1  0  0  0  0
 24 26  2  0  0  0  0
 27 28  1  0  0  0  0
 27 29  1  0  0  0  0
 27 46  1  6  0  0  0
 28 47  1  0  0  0  0
 29 30  1  0  0  0  0
 29 48  1  0  0  0  0
 29 49  1  0  0  0  0
 30 50  1  0  0  0  0
M  CHG  2  25  -1  27   1
M  END
