1qj7_ligand
 OpenBabel08222323343D

 69 71  0  0  1  0  0  0  0  0999 V2000
   -0.0220   18.9140   46.0580 N   0  0  0  0  0  0  0  0  0  0  0  0
    0.4920   19.1970   44.7140 C   0  0  0  0  0  0  0  0  0  0  0  0
    0.0380   17.7300   47.9150 O   0  0  0  0  0  0  0  0  0  0  0  0
    4.2010   18.4430   48.0310 C   0  0  0  0  0  0  0  0  0  0  0  0
    4.8540   17.5470   47.1820 C   0  0  0  0  0  0  0  0  0  0  0  0
    8.9150   22.3590   51.3240 C   0  0  0  0  0  0  0  0  0  0  0  0
    8.5070   23.3770   50.2730 C   0  0  0  0  0  0  0  0  0  0  0  0
    9.5770   23.5050   49.1860 C   0  0  0  0  0  0  0  0  0  0  0  0
   10.4240   22.2550   49.0040 C   0  0  0  0  0  0  0  0  0  0  0  0
   11.1670   22.1630   47.7180 C   0  0  0  0  0  3  0  0  0  0  0  0
   11.7540   21.0040   47.4630 N   0  0  0  0  0  0  0  0  0  0  0  0
   11.2610   23.1960   46.8330 N   0  0  0  0  0  0  0  0  0  0  0  0
    8.9630   23.5140   53.9740 O   0  0  0  0  0  0  0  0  0  0  0  0
    5.2750   21.9470   54.4700 O   0  0  0  0  0  0  0  0  0  0  0  0
    6.4330   21.8150   52.1000 C   0  0  1  0  0  0  0  0  0  0  0  0
    4.8280   20.3780   51.1870 C   0  0  0  0  0  0  0  0  0  0  0  0
    6.0970   20.8660   50.9740 C   0  0  0  0  0  0  0  0  0  0  0  0
    5.5880   21.1700   53.2740 C   0  0  2  0  0  0  0  0  0  0  0  0
    4.2960   20.7630   52.5390 C   0  0  0  0  0  0  0  0  0  0  0  0
    6.8270   20.4890   49.8590 C   0  0  0  0  0  0  0  0  0  0  0  0
    6.2010   19.6610   48.9460 C   0  0  0  0  0  0  0  0  0  0  0  0
    4.8790   19.2240   49.1130 C   0  0  0  0  0  0  0  0  0  0  0  0
    4.1860   19.5670   50.2750 C   0  0  0  0  0  0  0  0  0  0  0  0
    4.1430   16.9000   46.1710 C   0  0  0  0  0  0  0  0  0  0  0  0
    2.7770   17.1270   46.0010 C   0  0  0  0  0  0  0  0  0  0  0  0
    0.6490   18.1920   46.9640 C   0  0  0  0  0  0  0  0  0  0  0  0
    2.1340   18.0010   46.8700 C   0  0  0  0  0  0  0  0  0  0  0  0
    2.8500   18.6460   47.8590 C   0  0  0  0  0  0  0  0  0  0  0  0
    1.3460   20.4410   44.7030 C   0  0  0  0  0  0  0  0  0  0  0  0
   -1.2930   19.5070   46.5470 C   0  0  0  0  0  0  0  0  0  0  0  0
   -2.4480   18.5390   46.8690 C   0  0  0  0  0  0  0  0  0  0  0  0
    7.9020   22.1530   52.4290 C   0  0  2  0  0  0  0  0  0  0  0  0
    7.9780   23.4190   53.2990 C   0  0  0  0  0  0  0  0  0  0  0  0
   -0.3566   19.3392   44.0287 H   0  0  0  0  0  0  0  0  0  0  0  0
    1.0979   18.3437   44.3753 H   0  0  0  0  0  0  0  0  0  0  0  0
    5.9132   17.3542   47.3085 H   0  0  0  0  0  0  0  0  0  0  0  0
    9.8570   22.6964   51.7809 H   0  0  0  0  0  0  0  0  0  0  0  0
    9.0761   21.3935   50.8221 H   0  0  0  0  0  0  0  0  0  0  0  0
    8.3664   24.3553   50.7558 H   0  0  0  0  0  0  0  0  0  0  0  0
    7.5616   23.0570   49.8106 H   0  0  0  0  0  0  0  0  0  0  0  0
   10.2432   24.3388   49.4524 H   0  0  0  0  0  0  0  0  0  0  0  0
    9.0765   23.7260   48.2317 H   0  0  0  0  0  0  0  0  0  0  0  0
    9.7583   21.3821   49.0733 H   0  0  0  0  0  0  0  0  0  0  0  0
   11.1585   22.2218   49.8222 H   0  0  0  0  0  0  0  0  0  0  0  0
   12.2840   20.8764   46.5891 H   0  0  0  0  0  0  0  0  0  0  0  0
   11.6807   20.2299   48.1385 H   0  0  0  0  0  0  0  0  0  0  0  0
   11.7888   23.0769   45.9566 H   0  0  0  0  0  0  0  0  0  0  0  0
   10.8042   24.0954   47.0409 H   0  0  0  0  0  0  0  0  0  0  0  0
    4.7736   22.7158   54.2246 H   0  0  0  0  0  0  0  0  0  0  0  0
    5.9825   22.7868   51.8495 H   0  0  0  0  0  0  0  0  0  0  0  0
    6.1212   20.2726   53.6209 H   0  0  0  0  0  0  0  0  0  0  0  0
    3.8032   19.9131   53.0337 H   0  0  0  0  0  0  0  0  0  0  0  0
    3.5917   21.6050   52.4687 H   0  0  0  0  0  0  0  0  0  0  0  0
    7.8454   20.8286   49.7087 H   0  0  0  0  0  0  0  0  0  0  0  0
    6.7516   19.3381   48.0699 H   0  0  0  0  0  0  0  0  0  0  0  0
    3.1788   19.2086   50.4542 H   0  0  0  0  0  0  0  0  0  0  0  0
    4.6581   16.2127   45.5096 H   0  0  0  0  0  0  0  0  0  0  0  0
    2.2284   16.6321   45.2078 H   0  0  0  0  0  0  0  0  0  0  0  0
    2.3331   19.3326   48.5197 H   0  0  0  0  0  0  0  0  0  0  0  0
    1.7143   20.6239   43.6827 H   0  0  0  0  0  0  0  0  0  0  0  0
    2.2004   20.3053   45.3824 H   0  0  0  0  0  0  0  0  0  0  0  0
    0.7459   21.3007   45.0357 H   0  0  0  0  0  0  0  0  0  0  0  0
   -1.6514   20.2032   45.7744 H   0  0  0  0  0  0  0  0  0  0  0  0
   -1.0644   20.0657   47.4665 H   0  0  0  0  0  0  0  0  0  0  0  0
   -3.3199   19.1117   47.2179 H   0  0  0  0  0  0  0  0  0  0  0  0
   -2.1309   17.8385   47.6555 H   0  0  0  0  0  0  0  0  0  0  0  0
   -2.7178   17.9759   45.9634 H   0  0  0  0  0  0  0  0  0  0  0  0
    8.2677   21.3034   53.0243 H   0  0  0  0  0  0  0  0  0  0  0  0
    7.1934   24.1742   53.3012 H   0  0  0  0  0  0  0  0  0  0  0  0
  1  2  1  0  0  0  0
  1 30  1  0  0  0  0
  2 29  1  0  0  0  0
  2 34  1  0  0  0  0
  2 35  1  0  0  0  0
  4  5  2  0  0  0  0
  4 28  1  0  0  0  0
  5 24  1  0  0  0  0
  5 36  1  0  0  0  0
  6  7  1  0  0  0  0
  6 37  1  0  0  0  0
  6 38  1  0  0  0  0
  7  8  1  0  0  0  0
  7 39  1  0  0  0  0
  7 40  1  0  0  0  0
  8  9  1  0  0  0  0
  8 41  1  0  0  0  0
  8 42  1  0  0  0  0
  9 10  1  0  0  0  0
  9 43  1  0  0  0  0
  9 44  1  0  0  0  0
 10 11  1  0  0  0  0
 10 12  1  0  0  0  0
 11 45  1  0  0  0  0
 11 46  1  0  0  0  0
 12 47  1  0  0  0  0
 12 48  1  0  0  0  0
 14 49  1  0  0  0  0
 15 17  1  0  0  0  0
 15 18  1  0  0  0  0
 15 50  1  6  0  0  0
 16 23  1  0  0  0  0
 17 16  2  0  0  0  0
 17 20  1  0  0  0  0
 18 14  1  0  0  0  0
 18 19  1  0  0  0  0
 18 51  1  1  0  0  0
 19 16  1  0  0  0  0
 19 52  1  0  0  0  0
 19 53  1  0  0  0  0
 20 21  2  0  0  0  0
 20 54  1  0  0  0  0
 21 22  1  0  0  0  0
 21 55  1  0  0  0  0
 22  4  1  0  0  0  0
 23 22  2  0  0  0  0
 23 56  1  0  0  0  0
 24 25  2  0  0  0  0
 24 57  1  0  0  0  0
 25 58  1  0  0  0  0
 26  1  1  0  0  0  0
 26  3  2  0  0  0  0
 27 25  1  0  0  0  0
 27 26  1  0  0  0  0
 28 27  2  0  0  0  0
 28 59  1  0  0  0  0
 29 60  1  0  0  0  0
 29 61  1  0  0  0  0
 29 62  1  0  0  0  0
 30 31  1  0  0  0  0
 30 63  1  0  0  0  0
 30 64  1  0  0  0  0
 31 65  1  0  0  0  0
 31 66  1  0  0  0  0
 31 67  1  0  0  0  0
 32  6  1  0  0  0  0
 32 15  1  0  0  0  0
 32 33  1  0  0  0  0
 32 68  1  1  0  0  0
 33 13  2  0  0  0  0
 33 69  1  0  0  0  0
M  END
