1qjb_ligand
 OpenBabel08222323343D

124126  0  0  1  0  0  0  0  0999 V2000
   20.1418   -4.0512   44.3787 O   0  5  0  0  0  0  0  0  0  0  0  0
   34.5894  -11.3001   45.2006 H   0  0  0  0  0  0  0  0  0  0  0  0
   33.6474  -12.6454   45.0908 H   0  0  0  0  0  0  0  0  0  0  0  0
   33.6245  -11.7343   46.4615 H   0  0  0  0  0  0  0  0  0  0  0  0
   32.6697   -9.8825   45.3405 H   0  0  0  0  0  0  0  0  0  0  0  0
   31.8039  -10.0994   43.0487 H   0  0  0  0  0  0  0  0  0  0  0  0
   32.6003  -11.7027   42.9016 H   0  0  0  0  0  0  0  0  0  0  0  0
   33.5951  -10.2211   43.1064 H   0  0  0  0  0  0  0  0  0  0  0  0
   30.4126   -9.6244   45.0422 H   0  0  0  0  0  0  0  0  0  0  0  0
   28.9037  -11.7855   46.3293 H   0  0  0  0  0  0  0  0  0  0  0  0
   28.6460   -9.3133   46.8292 H   0  0  0  0  0  0  0  0  0  0  0  0
   27.1413  -10.2540   46.5508 H   0  0  0  0  0  0  0  0  0  0  0  0
   27.1745   -9.3292   44.1690 H   0  0  0  0  0  0  0  0  0  0  0  0
   28.4513   -8.2002   44.7363 H   0  0  0  0  0  0  0  0  0  0  0  0
   26.9449   -7.4218   46.5313 H   0  0  0  0  0  0  0  0  0  0  0  0
   25.6659   -8.5266   45.9227 H   0  0  0  0  0  0  0  0  0  0  0  0
   26.2371   -6.9187   43.7479 H   0  0  0  0  0  0  0  0  0  0  0  0
   24.4916   -4.8289   46.7851 H   0  0  0  0  0  0  0  0  0  0  0  0
   25.3420   -6.3517   47.1597 H   0  0  0  0  0  0  0  0  0  0  0  0
   25.1265   -4.9536   43.3314 H   0  0  0  0  0  0  0  0  0  0  0  0
   24.3685   -4.0626   44.6784 H   0  0  0  0  0  0  0  0  0  0  0  0
   27.3881  -13.0576   45.3963 H   0  0  0  0  0  0  0  0  0  0  0  0
   27.3741  -13.5349   42.5650 H   0  0  0  0  0  0  0  0  0  0  0  0
   25.1666  -14.7391   43.1223 H   0  0  0  0  0  0  0  0  0  0  0  0
   25.3561  -14.1529   44.8096 H   0  0  0  0  0  0  0  0  0  0  0  0
   27.3882  -15.2675   44.8387 H   0  0  0  0  0  0  0  0  0  0  0  0
   25.7673  -12.7612   40.9974 H   0  0  0  0  0  0  0  0  0  0  0  0
   24.3736  -10.3126   41.8907 H   0  0  0  0  0  0  0  0  0  0  0  0
   23.8645   -9.9615   39.5276 H   0  0  0  0  0  0  0  0  0  0  0  0
   24.4202  -11.6228   39.1301 H   0  0  0  0  0  0  0  0  0  0  0  0
   25.6390   -8.1904   40.1357 H   0  0  0  0  0  0  0  0  0  0  0  0
   27.2425  -11.9748   39.1625 H   0  0  0  0  0  0  0  0  0  0  0  0
   28.1576   -7.8619   39.8517 H   0  0  0  0  0  0  0  0  0  0  0  0
   22.2261   -9.9691   42.1833 H   0  0  0  0  0  0  0  0  0  0  0  0
   20.4533  -12.0766   41.1004 H   0  0  0  0  0  0  0  0  0  0  0  0
   20.7417  -12.5320   43.5974 H   0  0  0  0  0  0  0  0  0  0  0  0
   19.0503  -12.0944   43.1797 H   0  0  0  0  0  0  0  0  0  0  0  0
   18.0292  -11.2359   41.3677 H   0  0  0  0  0  0  0  0  0  0  0  0
   17.9826   -8.4353   40.4550 H   0  0  0  0  0  0  0  0  0  0  0  0
   16.8754  -10.7320   38.7850 H   0  0  0  0  0  0  0  0  0  0  0  0
   18.3681   -9.7962   38.4348 H   0  0  0  0  0  0  0  0  0  0  0  0
   14.6452   -9.6215   38.5341 H   0  0  0  0  0  0  0  0  0  0  0  0
   18.2274   -7.5869   37.4881 H   0  0  0  0  0  0  0  0  0  0  0  0
   13.3238   -7.8460   37.4431 H   0  0  0  0  0  0  0  0  0  0  0  0
   16.9458   -5.8842   36.2732 H   0  0  0  0  0  0  0  0  0  0  0  0
   13.7607   -5.3747   36.7712 H   0  0  0  0  0  0  0  0  0  0  0  0
   16.4390   -6.6746   40.1261 H   0  0  0  0  0  0  0  0  0  0  0  0
   14.3727   -5.6342   40.8026 H   0  0  0  0  0  0  0  0  0  0  0  0
   15.5256   -4.8609   41.9426 H   0  0  0  0  0  0  0  0  0  0  0  0
   13.4905   -6.2353   43.0261 H   0  0  0  0  0  0  0  0  0  0  0  0
   15.1359   -6.6010   43.6471 H   0  0  0  0  0  0  0  0  0  0  0  0
   13.5978   -8.0221   41.3814 H   0  0  0  0  0  0  0  0  0  0  0  0
   14.3184   -8.7626   42.8507 H   0  0  0  0  0  0  0  0  0  0  0  0
   18.1235   -5.1344   40.8435 H   0  0  0  0  0  0  0  0  0  0  0  0
   19.7259   -6.2753   43.0525 H   0  0  0  0  0  0  0  0  0  0  0  0
   21.5755   -4.9283   42.0936 H   0  0  0  0  0  0  0  0  0  0  0  0
   20.4424   -4.2757   40.8620 H   0  0  0  0  0  0  0  0  0  0  0  0
   20.8302   -6.0295   40.8859 H   0  0  0  0  0  0  0  0  0  0  0  0
   33.7040  -11.7080   45.4570 N   0  3  0  0  0  0  0  0  0  0  0  0
   32.5920  -10.8830   44.8900 C   0  0  2  0  0  0  0  0  0  0  0  0
   31.2250  -11.4680   45.2560 C   0  0  0  0  0  0  0  0  0  0  0  0
   31.0810  -12.6570   45.5540 O   0  0  0  0  0  0  0  0  0  0  0  0
   32.6520  -10.7150   43.3830 C   0  0  0  0  0  0  0  0  0  0  0  0
   30.2260  -10.5840   45.2530 N   0  0  0  0  0  0  0  0  0  0  0  0
   28.8680  -11.0060   45.5540 C   0  0  2  0  0  0  0  0  0  0  0  0
   28.2210  -11.5880   44.2960 C   0  0  0  0  0  0  0  0  0  0  0  0
   28.4290  -11.1260   43.1800 O   0  0  0  0  0  0  0  0  0  0  0  0
   28.0420   -9.8390   46.0750 C   0  0  0  0  0  0  0  0  0  0  0  0
   27.5880   -8.8080   45.0450 C   0  0  0  0  0  0  0  0  0  0  0  0
   26.5230   -7.9000   45.6350 C   0  0  0  0  0  0  0  0  0  0  0  0
   26.0330   -6.8480   44.7550 N   0  0  0  0  0  0  0  0  0  0  0  0
   25.3330   -5.7970   45.1870 C   0  0  0  0  0  3  0  0  0  0  0  0
   25.0330   -5.6480   46.4740 N   0  0  0  0  0  0  0  0  0  0  0  0
   24.9110   -4.8680   44.3350 N   0  0  0  0  0  0  0  0  0  0  0  0
   27.4530  -12.6510   44.4850 N   0  0  0  0  0  0  0  0  0  0  0  0
   26.7030  -13.2340   43.3830 C   0  0  2  0  0  0  0  0  0  0  0  0
   25.7100  -12.1640   42.9250 C   0  0  0  0  0  0  0  0  0  0  0  0
   25.1860  -11.4400   43.7940 O   0  0  0  0  0  0  0  0  0  0  0  0
   25.8920  -14.4370   43.8920 C   0  0  0  0  0  0  0  0  0  0  0  0
   26.7620  -15.5270   44.1730 O   0  0  0  0  0  0  0  0  0  0  0  0
   25.3430  -12.1450   41.6610 N   0  0  0  0  0  0  0  0  0  0  0  0
   24.2960  -11.1990   41.2440 C   0  0  2  0  0  0  0  0  0  0  0  0
   22.8830  -11.7370   41.3870 C   0  0  0  0  0  0  0  0  0  0  0  0
   22.5980  -12.8820   41.0110 O   0  0  0  0  0  0  0  0  0  0  0  0
   24.5650  -10.7640   39.8020 C   0  0  0  0  0  0  0  0  0  0  0  0
   25.9730  -10.2610   39.6680 C   0  0  0  0  0  0  0  0  0  0  0  0
   26.3020   -8.9400   39.8920 N   0  0  0  0  0  0  0  0  0  0  0  0
   27.1290  -10.9150   39.3860 C   0  0  0  0  0  0  0  0  0  0  0  0
   27.6050   -8.7940   39.7430 C   0  0  0  0  0  0  0  0  0  0  0  0
   28.1270   -9.9720   39.4390 N   0  0  0  0  0  0  0  0  0  0  0  0
   21.9530  -10.8670   41.8380 N   0  0  0  0  0  0  0  0  0  0  0  0
   20.5600  -11.2480   41.8160 C   0  0  1  0  0  0  0  0  0  0  0  0
   20.0940  -11.7470   43.1800 C   0  0  0  0  0  0  0  0  0  0  0  0
   20.2670  -10.4570   43.8310 O   0  0  0  0  0  0  0  0  0  0  0  0
   19.6700  -10.0950   41.3350 C   0  0  0  0  0  0  0  0  0  0  0  0
   20.2000   -9.0240   41.0910 O   0  0  0  0  0  0  0  0  0  0  0  0
   20.0720  -10.3110   45.7390 P   0  0  0  0  0  0  0  0  0  0  0  0
   20.9430  -11.3450   46.4650 O   0  0  0  0  0  1  0  0  0  0  0  0
   18.6300  -10.8190   45.9620 O   0  0  0  0  0  1  0  0  0  0  0  0
   20.1870   -8.9560   46.3700 O   0  0  0  0  0  0  0  0  0  0  0  0
   18.4010  -10.3550   41.0750 N   0  0  0  0  0  0  0  0  0  0  0  0
   17.5140   -9.4280   40.3850 C   0  0  2  0  0  0  0  0  0  0  0  0
   16.1630   -9.3230   41.0350 C   0  0  0  0  0  0  0  0  0  0  0  0
   15.7070  -10.4290   41.2390 O   0  0  0  0  0  0  0  0  0  0  0  0
   17.3650   -9.7520   38.8840 C   0  0  0  0  0  0  0  0  0  0  0  0
   16.5400   -8.7200   38.1250 C   0  0  0  0  0  0  0  0  0  0  0  0
   15.1550   -8.7860   38.0680 C   0  0  0  0  0  0  0  0  0  0  0  0
   17.1460   -7.6590   37.4660 C   0  0  0  0  0  0  0  0  0  0  0  0
   14.4070   -7.8070   37.4280 C   0  0  0  0  0  0  0  0  0  0  0  0
   16.4370   -6.6930   36.7850 C   0  0  0  0  0  0  0  0  0  0  0  0
   15.0590   -6.7860   36.7740 C   0  0  0  0  0  0  0  0  0  0  0  0
   14.3150   -5.8140   36.1370 O   0  0  0  0  0  0  0  0  0  0  0  0
   15.7090   -8.1430   41.3830 N   0  0  0  0  0  0  0  0  0  0  0  0
   16.1880   -6.8210   41.1870 C   0  0  2  0  0  0  0  0  0  0  0  0
   17.4290   -6.5830   42.0460 C   0  0  0  0  0  0  0  0  0  0  0  0
   17.5210   -7.1580   43.1360 O   0  0  0  0  0  0  0  0  0  0  0  0
   15.0990   -5.8180   41.6080 C   0  0  0  0  0  0  0  0  0  0  0  0
   14.4910   -6.6040   42.7560 C   0  0  0  0  0  0  0  0  0  0  0  0
   14.4370   -7.9760   42.0910 C   0  0  0  0  0  0  0  0  0  0  0  0
   18.2970   -5.6590   41.6770 N   0  0  0  0  0  0  0  0  0  0  0  0
   19.5020   -5.3820   42.4510 C   0  0  2  0  0  0  0  0  0  0  0  0
   19.3430   -4.2020   43.4160 C   0  0  0  0  0  0  0  0  0  0  0  0
   18.4050   -3.3880   43.2330 O   0  0  0  0  0  0  0  0  0  0  0  0
   20.6680   -5.1370   41.5080 C   0  0  0  0  0  0  0  0  0  0  0  0
 59  2  1  0  0  0  0
 59  3  1  0  0  0  0
 59  4  1  0  0  0  0
 60  5  1  1  0  0  0
 60 63  1  0  0  0  0
 60 59  1  0  0  0  0
 61 60  1  0  0  0  0
 61 62  2  0  0  0  0
 63  6  1  0  0  0  0
 63  7  1  0  0  0  0
 63  8  1  0  0  0  0
 64  9  1  0  0  0  0
 64 61  1  0  0  0  0
 65 10  1  1  0  0  0
 65 68  1  0  0  0  0
 65 64  1  0  0  0  0
 66 65  1  0  0  0  0
 66 67  2  0  0  0  0
 68 11  1  0  0  0  0
 68 12  1  0  0  0  0
 68 69  1  0  0  0  0
 69 13  1  0  0  0  0
 69 14  1  0  0  0  0
 69 70  1  0  0  0  0
 70 15  1  0  0  0  0
 70 16  1  0  0  0  0
 70 71  1  0  0  0  0
 71 17  1  0  0  0  0
 71 72  1  0  0  0  0
 72 73  1  0  0  0  0
 72 74  1  0  0  0  0
 73 18  1  0  0  0  0
 73 19  1  0  0  0  0
 74 20  1  0  0  0  0
 74 21  1  0  0  0  0
 75 22  1  0  0  0  0
 75 66  1  0  0  0  0
 76 23  1  6  0  0  0
 76 79  1  0  0  0  0
 76 75  1  0  0  0  0
 77 76  1  0  0  0  0
 77 78  2  0  0  0  0
 79 24  1  0  0  0  0
 79 25  1  0  0  0  0
 79 80  1  0  0  0  0
 80 26  1  0  0  0  0
 81 27  1  0  0  0  0
 81 77  1  0  0  0  0
 82 28  1  1  0  0  0
 82 85  1  0  0  0  0
 82 81  1  0  0  0  0
 83 82  1  0  0  0  0
 83 84  2  0  0  0  0
 85 29  1  0  0  0  0
 85 30  1  0  0  0  0
 85 86  1  0  0  0  0
 86 88  2  0  0  0  0
 86 87  1  0  0  0  0
 87 31  1  0  0  0  0
 87 89  1  0  0  0  0
 88 32  1  0  0  0  0
 88 90  1  0  0  0  0
 89 33  1  0  0  0  0
 89 90  2  0  0  0  0
 91 83  1  0  0  0  0
 91 34  1  0  0  0  0
 92 93  1  0  0  0  0
 92 91  1  0  0  0  0
 92 35  1  6  0  0  0
 93 94  1  0  0  0  0
 93 36  1  0  0  0  0
 93 37  1  0  0  0  0
 94 97  1  0  0  0  0
 95 96  2  0  0  0  0
 95 92  1  0  0  0  0
 97 98  1  0  0  0  0
 97100  2  0  0  0  0
 97 99  1  0  0  0  0
101 95  1  0  0  0  0
101 38  1  0  0  0  0
102105  1  0  0  0  0
102101  1  0  0  0  0
102 39  1  1  0  0  0
103102  1  0  0  0  0
103104  2  0  0  0  0
105106  1  0  0  0  0
105 40  1  0  0  0  0
105 41  1  0  0  0  0
106108  2  0  0  0  0
106107  1  0  0  0  0
107109  2  0  0  0  0
107 42  1  0  0  0  0
108110  1  0  0  0  0
108 43  1  0  0  0  0
109111  1  0  0  0  0
109 44  1  0  0  0  0
110111  2  0  0  0  0
110 45  1  0  0  0  0
111112  1  0  0  0  0
112 46  1  0  0  0  0
113119  1  0  0  0  0
113103  1  0  0  0  0
114113  1  0  0  0  0
114117  1  0  0  0  0
114 47  1  6  0  0  0
115114  1  0  0  0  0
115116  2  0  0  0  0
115120  1  0  0  0  0
117118  1  0  0  0  0
117 48  1  0  0  0  0
117 49  1  0  0  0  0
118119  1  0  0  0  0
118 50  1  0  0  0  0
118 51  1  0  0  0  0
119 52  1  0  0  0  0
119 53  1  0  0  0  0
120121  1  0  0  0  0
120 54  1  0  0  0  0
121122  1  0  0  0  0
121124  1  0  0  0  0
121 55  1  1  0  0  0
122  1  1  0  0  0  0
122123  2  0  0  0  0
124 56  1  0  0  0  0
124 57  1  0  0  0  0
124 58  1  0  0  0  0
M  CHG  2   1  -1  59   1
M  END
