1qng_ligand
 OpenBabel08222323343D

200199  0  0  1  0  0  0  0  0999 V2000
   15.0980   50.7550  -20.1450 N   0  3  1  0  0  0  0  0  0  0  0  0
   13.8800   51.5940  -20.5240 C   0  0  0  0  0  0  0  0  0  0  0  0
   15.1420   49.9340  -18.9170 C   0  0  2  0  0  0  0  0  0  0  0  0
   14.2500   48.6950  -18.9770 C   0  0  0  0  0  0  0  0  0  0  0  0
   13.5230   48.4170  -19.9630 O   0  0  0  0  0  0  0  0  0  0  0  0
   14.8370   50.7740  -17.5900 C   0  0  2  0  0  0  0  0  0  0  0  0
   13.4430   51.1250  -17.5760 O   0  0  0  0  0  0  0  0  0  0  0  0
   15.6950   52.0890  -17.4020 C   0  0  2  0  0  0  0  0  0  0  0  0
   17.2280   51.8420  -17.5030 C   0  0  0  0  0  0  0  0  0  0  0  0
   15.4230   52.8880  -16.1120 C   0  0  0  0  0  0  0  0  0  0  0  0
   15.7170   52.1660  -14.7840 C   0  0  0  0  0  0  0  0  0  0  0  0
   14.6620   51.8310  -13.8890 C   0  0  0  0  0  0  0  0  0  0  0  0
   14.9500   51.1150  -12.5740 C   0  0  0  0  0  0  0  0  0  0  0  0
   14.3590   47.8660  -17.9230 N   0  0  0  0  0  0  0  0  0  0  0  0
   13.6250   46.6160  -17.8250 C   0  0  2  0  0  0  0  0  0  0  0  0
   12.6040   46.6810  -16.6830 C   0  0  0  0  0  0  0  0  0  0  0  0
   12.9260   46.2640  -15.5570 O   0  0  0  0  0  0  0  0  0  0  0  0
   14.6520   45.4850  -17.6340 C   0  0  0  0  0  0  0  0  0  0  0  0
   15.7160   45.3510  -18.7460 C   0  0  0  0  0  0  0  0  0  0  0  0
   11.3580   47.1910  -16.8390 N   0  0  0  0  0  0  0  0  0  0  0  0
   10.4220   47.2060  -15.6890 C   0  0  0  0  0  0  0  0  0  0  0  0
    9.9230   48.6090  -15.3310 C   0  0  0  0  0  0  0  0  0  0  0  0
    8.7050   48.8090  -15.4680 O   0  0  0  0  0  0  0  0  0  0  0  0
   10.7190   47.6020  -18.1460 C   0  0  0  0  0  0  0  0  0  0  0  0
   10.7480   49.5990  -14.8890 N   0  0  0  0  0  0  0  0  0  0  0  0
   12.1990   49.3770  -14.5600 C   0  0  0  0  0  0  0  0  0  0  0  0
   10.1950   50.9480  -14.7300 C   0  0  1  0  0  0  0  0  0  0  0  0
   10.5560   51.3240  -13.2880 C   0  0  0  0  0  0  0  0  0  0  0  0
   10.0850   52.6830  -12.7810 C   0  0  0  0  0  0  0  0  0  0  0  0
    8.6820   52.9630  -13.3040 C   0  0  0  0  0  0  0  0  0  0  0  0
   10.0970   52.6810  -11.2640 C   0  0  0  0  0  0  0  0  0  0  0  0
   10.7450   51.9230  -15.7650 C   0  0  0  0  0  0  0  0  0  0  0  0
   11.7030   52.6530  -15.5180 O   0  0  0  0  0  0  0  0  0  0  0  0
   10.1220   51.9110  -16.9340 N   0  0  0  0  0  0  0  0  0  0  0  0
   10.5200   52.7760  -18.0310 C   0  0  2  0  0  0  0  0  0  0  0  0
   10.1530   54.2200  -17.7030 C   0  0  0  0  0  0  0  0  0  0  0  0
    8.9920   54.5200  -17.4450 O   0  0  0  0  0  0  0  0  0  0  0  0
    9.8030   52.3660  -19.3410 C   0  0  0  0  0  0  0  0  0  0  0  0
   10.3510   53.1670  -20.5130 C   0  0  0  0  0  0  0  0  0  0  0  0
    9.9710   50.8780  -19.5840 C   0  0  0  0  0  0  0  0  0  0  0  0
   11.1430   55.1320  -17.6890 N   0  0  0  0  0  0  0  0  0  0  0  0
   12.5600   54.9270  -18.1660 C   0  0  0  0  0  0  0  0  0  0  0  0
   10.6400   56.4730  -17.3640 C   0  0  1  0  0  0  0  0  0  0  0  0
   11.5460   56.9450  -16.2230 C   0  0  0  0  0  0  0  0  0  0  0  0
   11.3710   56.1950  -14.8960 C   0  0  0  0  0  0  0  0  0  0  0  0
   12.3190   56.7730  -13.8510 C   0  0  0  0  0  0  0  0  0  0  0  0
    9.9290   56.3000  -14.4030 C   0  0  0  0  0  0  0  0  0  0  0  0
   10.6300   57.4270  -18.5560 C   0  0  0  0  0  0  0  0  0  0  0  0
   10.7860   57.0080  -19.6990 O   0  0  0  0  0  0  0  0  0  0  0  0
   10.4280   58.7110  -18.2840 N   0  0  0  0  0  0  0  0  0  0  0  0
   10.3810   59.7150  -19.3440 C   0  0  2  0  0  0  0  0  0  0  0  0
   11.7430   59.8810  -20.0180 C   0  0  0  0  0  0  0  0  0  0  0  0
   12.7810   59.5870  -19.4250 O   0  0  0  0  0  0  0  0  0  0  0  0
    9.9050   61.0500  -18.7790 C   0  0  0  0  0  0  0  0  0  0  0  0
   11.7390   60.3580  -21.2660 N   0  0  0  0  0  0  0  0  0  0  0  0
   13.0010   60.6830  -21.9100 C   0  0  2  0  0  0  0  0  0  0  0  0
   12.8560   61.9600  -22.7240 C   0  0  0  0  0  0  0  0  0  0  0  0
   13.4360   59.5400  -22.8150 C   0  0  0  0  0  0  0  0  0  0  0  0
   12.5720   58.8810  -23.3960 O   0  0  0  0  0  0  0  0  0  0  0  0
   14.7660   59.2340  -22.9800 N   0  0  0  0  0  0  0  0  0  0  0  0
   15.8780   59.8110  -22.1360 C   0  0  0  0  0  0  0  0  0  0  0  0
   15.0650   58.1070  -23.8780 C   0  0  1  0  0  0  0  0  0  0  0  0
   15.7940   58.7590  -25.0590 C   0  0  0  0  0  0  0  0  0  0  0  0
   15.0430   59.7580  -25.9420 C   0  0  0  0  0  0  0  0  0  0  0  0
   16.0060   60.3570  -26.9580 C   0  0  0  0  0  0  0  0  0  0  0  0
   13.8850   59.0740  -26.6610 C   0  0  0  0  0  0  0  0  0  0  0  0
   15.9250   57.0390  -23.1940 C   0  0  0  0  0  0  0  0  0  0  0  0
   17.1340   56.9840  -23.4070 O   0  0  0  0  0  0  0  0  0  0  0  0
   15.3140   56.1770  -22.3600 N   0  0  0  0  0  0  0  0  0  0  0  0
   13.8280   56.1490  -22.0610 C   0  0  0  0  0  0  0  0  0  0  0  0
   16.2140   55.1930  -21.7480 C   0  0  1  0  0  0  0  0  0  0  0  0
   16.0040   55.3790  -20.2420 C   0  0  0  0  0  0  0  0  0  0  0  0
   16.3160   56.7510  -19.6350 C   0  0  0  0  0  0  0  0  0  0  0  0
   16.1000   56.6840  -18.1220 C   0  0  0  0  0  0  0  0  0  0  0  0
   17.7470   57.1730  -19.9480 C   0  0  0  0  0  0  0  0  0  0  0  0
   15.8980   53.7760  -22.2060 C   0  0  0  0  0  0  0  0  0  0  0  0
   14.8740   53.5480  -22.8550 O   0  0  0  0  0  0  0  0  0  0  0  0
   16.7780   52.7950  -21.8640 C   0  0  2  0  0  0  0  0  0  0  0  0
   18.1030   53.0450  -21.1830 C   0  0  0  0  0  0  0  0  0  0  0  0
   16.3510   51.4380  -22.2270 C   0  0  0  0  0  0  0  0  0  0  0  0
   17.2920   50.7600  -23.3060 C   0  0  0  0  0  0  0  0  0  0  0  0
   16.6110   49.4580  -23.7430 C   0  0  0  0  0  0  0  0  0  0  0  0
   17.4310   51.5660  -24.6010 C   0  0  0  0  0  0  0  0  0  0  0  0
   16.2490   50.6280  -20.9030 O   0  0  0  0  0  0  0  0  0  0  0  0
   17.2160   49.9020  -20.5610 O   0  0  0  0  0  0  0  0  0  0  0  0
   15.4796   51.5534  -19.6624 H   0  0  0  0  0  0  0  0  0  0  0  0
   14.0753   52.1164  -21.4721 H   0  0  0  0  0  0  0  0  0  0  0  0
   13.6825   52.3321  -19.7327 H   0  0  0  0  0  0  0  0  0  0  0  0
   13.0047   50.9380  -20.6404 H   0  0  0  0  0  0  0  0  0  0  0  0
   16.1770   49.5717  -18.8305 H   0  0  0  0  0  0  0  0  0  0  0  0
   15.0459   50.1195  -16.7310 H   0  0  0  0  0  0  0  0  0  0  0  0
   13.2513   51.6246  -16.7911 H   0  0  0  0  0  0  0  0  0  0  0  0
   15.4179   52.7445  -18.2407 H   0  0  0  0  0  0  0  0  0  0  0  0
   17.7626   52.7932  -17.3637 H   0  0  0  0  0  0  0  0  0  0  0  0
   17.4683   51.4281  -18.4934 H   0  0  0  0  0  0  0  0  0  0  0  0
   17.5369   51.1302  -16.7233 H   0  0  0  0  0  0  0  0  0  0  0  0
   14.3598   53.1702  -16.1111 H   0  0  0  0  0  0  0  0  0  0  0  0
   16.0433   53.7958  -16.1437 H   0  0  0  0  0  0  0  0  0  0  0  0
   16.7434   51.9088  -14.5267 H   0  0  0  0  0  0  0  0  0  0  0  0
   13.6360   52.0894  -14.1468 H   0  0  0  0  0  0  0  0  0  0  0  0
   14.0069   50.9494  -12.0325 H   0  0  0  0  0  0  0  0  0  0  0  0
   15.6219   51.7325  -11.9598 H   0  0  0  0  0  0  0  0  0  0  0  0
   15.4288   50.1466  -12.7810 H   0  0  0  0  0  0  0  0  0  0  0  0
   14.9715   48.1211  -17.1749 H   0  0  0  0  0  0  0  0  0  0  0  0
   13.0793   46.4431  -18.7643 H   0  0  0  0  0  0  0  0  0  0  0  0
   14.1013   44.5345  -17.5771 H   0  0  0  0  0  0  0  0  0  0  0  0
   15.1769   45.6621  -16.6837 H   0  0  0  0  0  0  0  0  0  0  0  0
   16.3924   44.5169  -18.5076 H   0  0  0  0  0  0  0  0  0  0  0  0
   16.2945   46.2841  -18.8144 H   0  0  0  0  0  0  0  0  0  0  0  0
   15.2188   45.1565  -19.7077 H   0  0  0  0  0  0  0  0  0  0  0  0
   10.9381   46.7853  -14.8134 H   0  0  0  0  0  0  0  0  0  0  0  0
    9.5528   46.5796  -15.9383 H   0  0  0  0  0  0  0  0  0  0  0  0
   11.4705   47.5668  -18.9485 H   0  0  0  0  0  0  0  0  0  0  0  0
   10.3261   48.6255  -18.0562 H   0  0  0  0  0  0  0  0  0  0  0  0
    9.8956   46.9127  -18.3843 H   0  0  0  0  0  0  0  0  0  0  0  0
   12.4562   48.3211  -14.7303 H   0  0  0  0  0  0  0  0  0  0  0  0
   12.3792   49.6327  -13.5054 H   0  0  0  0  0  0  0  0  0  0  0  0
   12.8227   50.0147  -15.2037 H   0  0  0  0  0  0  0  0  0  0  0  0
    9.1010   50.9180  -14.8404 H   0  0  0  0  0  0  0  0  0  0  0  0
   11.6527   51.3025  -13.2055 H   0  0  0  0  0  0  0  0  0  0  0  0
   10.1236   50.5573  -12.6284 H   0  0  0  0  0  0  0  0  0  0  0  0
   10.7674   53.4647  -13.1460 H   0  0  0  0  0  0  0  0  0  0  0  0
    8.3431   53.9433  -12.9378 H   0  0  0  0  0  0  0  0  0  0  0  0
    7.9951   52.1812  -12.9479 H   0  0  0  0  0  0  0  0  0  0  0  0
    8.6946   52.9668  -14.4039 H   0  0  0  0  0  0  0  0  0  0  0  0
   11.1169   52.4775  -10.9057 H   0  0  0  0  0  0  0  0  0  0  0  0
    9.4156   51.9013  -10.8929 H   0  0  0  0  0  0  0  0  0  0  0  0
    9.7673   53.6628  -10.8934 H   0  0  0  0  0  0  0  0  0  0  0  0
    9.3525   51.2860  -17.0656 H   0  0  0  0  0  0  0  0  0  0  0  0
   11.6079   52.6977  -18.1737 H   0  0  0  0  0  0  0  0  0  0  0  0
    8.7300   52.5852  -19.2385 H   0  0  0  0  0  0  0  0  0  0  0  0
    9.8339   52.8665  -21.4362 H   0  0  0  0  0  0  0  0  0  0  0  0
   11.4289   52.9739  -20.6171 H   0  0  0  0  0  0  0  0  0  0  0  0
   10.1863   54.2396  -20.3331 H   0  0  0  0  0  0  0  0  0  0  0  0
    9.5691   50.3188  -18.7263 H   0  0  0  0  0  0  0  0  0  0  0  0
   11.0390   50.6446  -19.7059 H   0  0  0  0  0  0  0  0  0  0  0  0
    9.4267   50.5916  -20.4960 H   0  0  0  0  0  0  0  0  0  0  0  0
   12.7329   53.8568  -18.3525 H   0  0  0  0  0  0  0  0  0  0  0  0
   13.2610   55.2830  -17.3967 H   0  0  0  0  0  0  0  0  0  0  0  0
   12.7190   55.4917  -19.0965 H   0  0  0  0  0  0  0  0  0  0  0  0
    9.6060   56.3925  -16.9974 H   0  0  0  0  0  0  0  0  0  0  0  0
   11.3381   58.0099  -16.0418 H   0  0  0  0  0  0  0  0  0  0  0  0
   12.5906   56.8251  -16.5462 H   0  0  0  0  0  0  0  0  0  0  0  0
   11.6153   55.1340  -15.0530 H   0  0  0  0  0  0  0  0  0  0  0  0
   12.1909   56.2331  -12.9012 H   0  0  0  0  0  0  0  0  0  0  0  0
   12.0928   57.8389  -13.7003 H   0  0  0  0  0  0  0  0  0  0  0  0
   13.3573   56.6640  -14.1975 H   0  0  0  0  0  0  0  0  0  0  0  0
    9.2509   55.8815  -15.1613 H   0  0  0  0  0  0  0  0  0  0  0  0
    9.6770   57.3565  -14.2289 H   0  0  0  0  0  0  0  0  0  0  0  0
    9.8207   55.7376  -13.4639 H   0  0  0  0  0  0  0  0  0  0  0  0
   10.3055   58.9966  -17.3335 H   0  0  0  0  0  0  0  0  0  0  0  0
    9.6596   59.3805  -20.1040 H   0  0  0  0  0  0  0  0  0  0  0  0
    9.8731   61.7985  -19.5844 H   0  0  0  0  0  0  0  0  0  0  0  0
   10.5997   61.3848  -17.9946 H   0  0  0  0  0  0  0  0  0  0  0  0
    8.8990   60.9292  -18.3508 H   0  0  0  0  0  0  0  0  0  0  0  0
   10.8755   60.4903  -21.7527 H   0  0  0  0  0  0  0  0  0  0  0  0
   13.7672   60.8373  -21.1360 H   0  0  0  0  0  0  0  0  0  0  0  0
   13.8152   62.1977  -23.2072 H   0  0  0  0  0  0  0  0  0  0  0  0
   12.5651   62.7872  -22.0598 H   0  0  0  0  0  0  0  0  0  0  0  0
   12.0829   61.8185  -23.4936 H   0  0  0  0  0  0  0  0  0  0  0  0
   15.4850   60.6395  -21.5284 H   0  0  0  0  0  0  0  0  0  0  0  0
   16.6793   60.1844  -22.7906 H   0  0  0  0  0  0  0  0  0  0  0  0
   16.2794   59.0294  -21.4743 H   0  0  0  0  0  0  0  0  0  0  0  0
   14.1311   57.6379  -24.2211 H   0  0  0  0  0  0  0  0  0  0  0  0
   16.1357   57.9446  -25.7147 H   0  0  0  0  0  0  0  0  0  0  0  0
   16.6658   59.2876  -24.6460 H   0  0  0  0  0  0  0  0  0  0  0  0
   14.6417   60.5631  -25.3090 H   0  0  0  0  0  0  0  0  0  0  0  0
   15.4680   61.0755  -27.5938 H   0  0  0  0  0  0  0  0  0  0  0  0
   16.4242   59.5550  -27.5840 H   0  0  0  0  0  0  0  0  0  0  0  0
   16.8214   60.8733  -26.4303 H   0  0  0  0  0  0  0  0  0  0  0  0
   13.1953   58.6447  -25.9194 H   0  0  0  0  0  0  0  0  0  0  0  0
   14.2755   58.2727  -27.3054 H   0  0  0  0  0  0  0  0  0  0  0  0
   13.3489   59.8112  -27.2767 H   0  0  0  0  0  0  0  0  0  0  0  0
   13.3281   56.9602  -22.6106 H   0  0  0  0  0  0  0  0  0  0  0  0
   13.6686   56.2852  -20.9812 H   0  0  0  0  0  0  0  0  0  0  0  0
   13.4091   55.1814  -22.3743 H   0  0  0  0  0  0  0  0  0  0  0  0
   17.2573   55.4199  -22.0124 H   0  0  0  0  0  0  0  0  0  0  0  0
   16.6406   54.6426  -19.7298 H   0  0  0  0  0  0  0  0  0  0  0  0
   14.9470   55.1605  -20.0299 H   0  0  0  0  0  0  0  0  0  0  0  0
   15.6285   57.4953  -20.0632 H   0  0  0  0  0  0  0  0  0  0  0  0
   16.3215   57.6649  -17.6762 H   0  0  0  0  0  0  0  0  0  0  0  0
   16.7687   55.9253  -17.6894 H   0  0  0  0  0  0  0  0  0  0  0  0
   15.0545   56.4138  -17.9125 H   0  0  0  0  0  0  0  0  0  0  0  0
   17.8863   57.2165  -21.0383 H   0  0  0  0  0  0  0  0  0  0  0  0
   18.4473   56.4419  -19.5178 H   0  0  0  0  0  0  0  0  0  0  0  0
   17.9400   58.1651  -19.5139 H   0  0  0  0  0  0  0  0  0  0  0  0
   16.3053   52.7020  -20.8751 H   0  0  0  0  0  0  0  0  0  0  0  0
   18.6179   52.0868  -21.0198 H   0  0  0  0  0  0  0  0  0  0  0  0
   17.9305   53.5380  -20.2149 H   0  0  0  0  0  0  0  0  0  0  0  0
   18.7255   53.6922  -21.8183 H   0  0  0  0  0  0  0  0  0  0  0  0
   15.3306   51.4890  -22.6346 H   0  0  0  0  0  0  0  0  0  0  0  0
   16.3529   50.8157  -21.3200 H   0  0  0  0  0  0  0  0  0  0  0  0
   18.2830   50.5718  -22.8672 H   0  0  0  0  0  0  0  0  0  0  0  0
   17.2342   48.9530  -24.4957 H   0  0  0  0  0  0  0  0  0  0  0  0
   15.6261   49.6868  -24.1762 H   0  0  0  0  0  0  0  0  0  0  0  0
   16.4840   48.7999  -22.8708 H   0  0  0  0  0  0  0  0  0  0  0  0
   17.9157   52.5291  -24.3832 H   0  0  0  0  0  0  0  0  0  0  0  0
   16.4341   51.7460  -25.0297 H   0  0  0  0  0  0  0  0  0  0  0  0
   18.0431   51.0019  -25.3201 H   0  0  0  0  0  0  0  0  0  0  0  0
   17.5540   50.2000  -19.7246 H   0  0  0  0  0  0  0  0  0  0  0  0
  1  2  1  0  0  0  0
  1  3  1  0  0  0  0
  1 84  1  0  0  0  0
  1 86  1  1  0  0  0
  2 87  1  0  0  0  0
  2 88  1  0  0  0  0
  2 89  1  0  0  0  0
  3  4  1  0  0  0  0
  3  6  1  0  0  0  0
  3 90  1  1  0  0  0
  4  5  2  0  0  0  0
  4 14  1  0  0  0  0
  6  7  1  0  0  0  0
  6  8  1  0  0  0  0
  6 91  1  1  0  0  0
  7 92  1  0  0  0  0
  8  9  1  0  0  0  0
  8 10  1  0  0  0  0
  8 93  1  6  0  0  0
  9 94  1  0  0  0  0
  9 95  1  0  0  0  0
  9 96  1  0  0  0  0
 10 11  1  0  0  0  0
 10 97  1  0  0  0  0
 10 98  1  0  0  0  0
 11 12  2  0  0  0  0
 11 99  1  0  0  0  0
 12 13  1  0  0  0  0
 12100  1  0  0  0  0
 13101  1  0  0  0  0
 13102  1  0  0  0  0
 13103  1  0  0  0  0
 14 15  1  0  0  0  0
 14104  1  0  0  0  0
 15 16  1  0  0  0  0
 15 18  1  0  0  0  0
 15105  1  6  0  0  0
 16 17  2  0  0  0  0
 16 20  1  0  0  0  0
 18 19  1  0  0  0  0
 18106  1  0  0  0  0
 18107  1  0  0  0  0
 19108  1  0  0  0  0
 19109  1  0  0  0  0
 19110  1  0  0  0  0
 20 21  1  0  0  0  0
 20 24  1  0  0  0  0
 21 22  1  0  0  0  0
 21111  1  0  0  0  0
 21112  1  0  0  0  0
 22 23  2  0  0  0  0
 22 25  1  0  0  0  0
 24113  1  0  0  0  0
 24114  1  0  0  0  0
 24115  1  0  0  0  0
 25 26  1  0  0  0  0
 25 27  1  0  0  0  0
 26116  1  0  0  0  0
 26117  1  0  0  0  0
 26118  1  0  0  0  0
 27 28  1  0  0  0  0
 27 32  1  0  0  0  0
 27119  1  6  0  0  0
 28 29  1  0  0  0  0
 28120  1  0  0  0  0
 28121  1  0  0  0  0
 29 30  1  0  0  0  0
 29 31  1  0  0  0  0
 29122  1  0  0  0  0
 30123  1  0  0  0  0
 30124  1  0  0  0  0
 30125  1  0  0  0  0
 31126  1  0  0  0  0
 31127  1  0  0  0  0
 31128  1  0  0  0  0
 32 33  2  0  0  0  0
 32 34  1  0  0  0  0
 34 35  1  0  0  0  0
 34129  1  0  0  0  0
 35 36  1  0  0  0  0
 35 38  1  0  0  0  0
 35130  1  6  0  0  0
 36 37  2  0  0  0  0
 36 41  1  0  0  0  0
 38 39  1  0  0  0  0
 38 40  1  0  0  0  0
 38131  1  0  0  0  0
 39132  1  0  0  0  0
 39133  1  0  0  0  0
 39134  1  0  0  0  0
 40135  1  0  0  0  0
 40136  1  0  0  0  0
 40137  1  0  0  0  0
 41 42  1  0  0  0  0
 41 43  1  0  0  0  0
 42138  1  0  0  0  0
 42139  1  0  0  0  0
 42140  1  0  0  0  0
 43 44  1  0  0  0  0
 43 48  1  0  0  0  0
 43141  1  1  0  0  0
 44 45  1  0  0  0  0
 44142  1  0  0  0  0
 44143  1  0  0  0  0
 45 46  1  0  0  0  0
 45 47  1  0  0  0  0
 45144  1  0  0  0  0
 46145  1  0  0  0  0
 46146  1  0  0  0  0
 46147  1  0  0  0  0
 47148  1  0  0  0  0
 47149  1  0  0  0  0
 47150  1  0  0  0  0
 48 49  2  0  0  0  0
 48 50  1  0  0  0  0
 50 51  1  0  0  0  0
 50151  1  0  0  0  0
 51 52  1  0  0  0  0
 51 54  1  0  0  0  0
 51152  1  6  0  0  0
 52 53  2  0  0  0  0
 52 55  1  0  0  0  0
 54153  1  0  0  0  0
 54154  1  0  0  0  0
 54155  1  0  0  0  0
 55 56  1  0  0  0  0
 55156  1  0  0  0  0
 56 57  1  0  0  0  0
 56 58  1  0  0  0  0
 56157  1  1  0  0  0
 57158  1  0  0  0  0
 57159  1  0  0  0  0
 57160  1  0  0  0  0
 58 59  2  0  0  0  0
 58 60  1  0  0  0  0
 60 61  1  0  0  0  0
 60 62  1  0  0  0  0
 61161  1  0  0  0  0
 61162  1  0  0  0  0
 61163  1  0  0  0  0
 62 63  1  0  0  0  0
 62 67  1  0  0  0  0
 62164  1  6  0  0  0
 63 64  1  0  0  0  0
 63165  1  0  0  0  0
 63166  1  0  0  0  0
 64 65  1  0  0  0  0
 64 66  1  0  0  0  0
 64167  1  0  0  0  0
 65168  1  0  0  0  0
 65169  1  0  0  0  0
 65170  1  0  0  0  0
 66171  1  0  0  0  0
 66172  1  0  0  0  0
 66173  1  0  0  0  0
 67 68  2  0  0  0  0
 67 69  1  0  0  0  0
 69 70  1  0  0  0  0
 69 71  1  0  0  0  0
 70174  1  0  0  0  0
 70175  1  0  0  0  0
 70176  1  0  0  0  0
 71 72  1  0  0  0  0
 71 76  1  0  0  0  0
 71177  1  6  0  0  0
 72 73  1  0  0  0  0
 72178  1  0  0  0  0
 72179  1  0  0  0  0
 73 74  1  0  0  0  0
 73 75  1  0  0  0  0
 73180  1  0  0  0  0
 74181  1  0  0  0  0
 74182  1  0  0  0  0
 74183  1  0  0  0  0
 75184  1  0  0  0  0
 75185  1  0  0  0  0
 75186  1  0  0  0  0
 76 77  2  0  0  0  0
 76 78  1  0  0  0  0
 78 79  1  0  0  0  0
 78 80  1  0  0  0  0
 78187  1  1  0  0  0
 79188  1  0  0  0  0
 79189  1  0  0  0  0
 79190  1  0  0  0  0
 80 81  1  0  0  0  0
 80191  1  0  0  0  0
 80192  1  0  0  0  0
 81 82  1  0  0  0  0
 81 83  1  0  0  0  0
 81193  1  0  0  0  0
 82194  1  0  0  0  0
 82195  1  0  0  0  0
 82196  1  0  0  0  0
 83197  1  0  0  0  0
 83198  1  0  0  0  0
 83199  1  0  0  0  0
 84 85  1  0  0  0  0
 85200  1  0  0  0  0
M  CHG  1   1   1
M  END
