1qon_ligand
 OpenBabel08222323343D

 42 45  0  0  0  0  0  0  0  0999 V2000
   31.8800   63.6290    9.8680 C   0  0  0  0  0  0  0  0  0  0  0  0
   30.8340   63.6860    8.7470 C   0  0  0  0  0  0  0  0  0  0  0  0
   30.2550   64.9410    8.5700 C   0  0  0  0  0  0  0  0  0  0  0  0
   31.2030   66.2100    8.4080 C   0  0  0  0  0  0  0  0  0  0  0  0
   33.6250   67.0380    9.2530 C   0  0  0  0  0  0  0  0  0  0  0  0
   35.9450   67.7160   10.1380 C   0  0  0  0  0  0  0  0  0  0  0  0
   37.1020   67.4270   10.8440 C   0  0  0  0  0  0  0  0  0  0  0  0
   37.2140   66.1450   11.4450 C   0  0  0  0  0  0  0  0  0  0  0  0
   36.2670   65.2160   11.3640 C   0  0  0  0  0  0  0  0  0  0  0  0
   34.0400   64.5160   10.5460 N   0  0  0  0  0  0  0  0  0  0  0  0
   32.9550   64.7550    9.9000 C   0  0  0  0  0  0  0  0  0  0  0  0
   32.5750   65.9610    9.1820 C   0  0  0  0  0  0  0  0  0  0  0  0
   34.8840   66.8410    9.9730 C   0  0  0  0  0  0  0  0  0  0  0  0
   35.0370   65.4680   10.6350 C   0  0  0  0  0  0  0  0  0  0  0  0
   33.1870   68.1090    8.6030 N   0  0  0  0  0  0  0  0  0  0  0  0
   28.9990   71.0380   10.6010 I   0  0  0  0  0  0  0  0  0  0  0  0
   33.7980   69.4540    8.4450 C   0  0  0  0  0  0  0  0  0  0  0  0
   33.0450   70.2770    9.5330 C   0  0  0  0  0  0  0  0  0  0  0  0
   31.6720   70.2820    9.5570 C   0  0  0  0  0  0  0  0  0  0  0  0
   31.0360   70.9770   10.5100 C   0  0  0  0  0  0  0  0  0  0  0  0
   31.6910   71.7060   11.4950 C   0  0  0  0  0  0  0  0  0  0  0  0
   33.0330   71.7230   11.5060 C   0  0  0  0  0  0  0  0  0  0  0  0
   33.7830   71.0070   10.5230 C   0  0  0  0  0  0  0  0  0  0  0  0
   32.4096   62.6692    9.7772 H   0  0  0  0  0  0  0  0  0  0  0  0
   31.3399   63.6606   10.8257 H   0  0  0  0  0  0  0  0  0  0  0  0
   30.0352   62.9677    8.9835 H   0  0  0  0  0  0  0  0  0  0  0  0
   31.3216   63.3950    7.8049 H   0  0  0  0  0  0  0  0  0  0  0  0
   29.6136   65.1268    9.4441 H   0  0  0  0  0  0  0  0  0  0  0  0
   29.6333   64.8849    7.6643 H   0  0  0  0  0  0  0  0  0  0  0  0
   30.7028   67.0955    8.8270 H   0  0  0  0  0  0  0  0  0  0  0  0
   31.4108   66.3769    7.3408 H   0  0  0  0  0  0  0  0  0  0  0  0
   35.8646   68.6964    9.6826 H   0  0  0  0  0  0  0  0  0  0  0  0
   37.8977   68.1575   10.9348 H   0  0  0  0  0  0  0  0  0  0  0  0
   38.1172   65.9126   11.9975 H   0  0  0  0  0  0  0  0  0  0  0  0
   36.4149   64.2577   11.8485 H   0  0  0  0  0  0  0  0  0  0  0  0
   32.2784   67.9885    8.1330 H   0  0  0  0  0  0  0  0  0  0  0  0
   33.6169   69.8603    7.4390 H   0  0  0  0  0  0  0  0  0  0  0  0
   34.8801   69.4277    8.6405 H   0  0  0  0  0  0  0  0  0  0  0  0
   31.1089   69.7299    8.8133 H   0  0  0  0  0  0  0  0  0  0  0  0
   31.1272   72.2522   12.2425 H   0  0  0  0  0  0  0  0  0  0  0  0
   33.5546   72.2873   12.2706 H   0  0  0  0  0  0  0  0  0  0  0  0
   34.8670   71.0151   10.5253 H   0  0  0  0  0  0  0  0  0  0  0  0
  1  2  1  0  0  0  0
  1 24  1  0  0  0  0
  1 25  1  0  0  0  0
  2 26  1  0  0  0  0
  2 27  1  0  0  0  0
  3  2  1  0  0  0  0
  3 28  1  0  0  0  0
  3 29  1  0  0  0  0
  4  3  1  0  0  0  0
  4 30  1  0  0  0  0
  4 31  1  0  0  0  0
  5 12  2  0  0  0  0
  5 13  1  0  0  0  0
  6  7  2  0  0  0  0
  6 32  1  0  0  0  0
  7  8  1  0  0  0  0
  7 33  1  0  0  0  0
  8 34  1  0  0  0  0
  9  8  2  0  0  0  0
  9 35  1  0  0  0  0
 11  1  1  0  0  0  0
 11 10  2  0  0  0  0
 12  4  1  0  0  0  0
 12 11  1  0  0  0  0
 13  6  1  0  0  0  0
 13 14  2  0  0  0  0
 14  9  1  0  0  0  0
 14 10  1  0  0  0  0
 15  5  1  0  0  0  0
 15 36  1  0  0  0  0
 17 15  1  0  0  0  0
 17 37  1  0  0  0  0
 17 38  1  0  0  0  0
 18 17  1  0  0  0  0
 18 23  1  0  0  0  0
 19 18  2  0  0  0  0
 19 20  1  0  0  0  0
 19 39  1  0  0  0  0
 20 16  1  0  0  0  0
 20 21  2  0  0  0  0
 21 22  1  0  0  0  0
 21 40  1  0  0  0  0
 22 23  2  0  0  0  0
 22 41  1  0  0  0  0
 23 42  1  0  0  0  0
M  END
