1qpf_ligand
 OpenBabel08222323343D

145150  0  0  1  0  0  0  0  0999 V2000
   23.7268   33.4316  135.8731 H   0  0  0  0  0  0  0  0  0  0  0  0
   22.8137   35.6680  135.9646 H   0  0  0  0  0  0  0  0  0  0  0  0
   24.5146   35.8039  135.4032 H   0  0  0  0  0  0  0  0  0  0  0  0
   23.8829   37.5573  137.0482 H   0  0  0  0  0  0  0  0  0  0  0  0
   25.2310   36.5150  137.6164 H   0  0  0  0  0  0  0  0  0  0  0  0
   22.2841   36.2666  138.3888 H   0  0  0  0  0  0  0  0  0  0  0  0
   23.6175   36.8725  139.4288 H   0  0  0  0  0  0  0  0  0  0  0  0
   23.0386   34.4804  139.8846 H   0  0  0  0  0  0  0  0  0  0  0  0
   24.7322   34.6915  139.3244 H   0  0  0  0  0  0  0  0  0  0  0  0
   23.9564   31.0767  139.1654 H   0  0  0  0  0  0  0  0  0  0  0  0
   24.8167   29.4326  140.6892 H   0  0  0  0  0  0  0  0  0  0  0  0
   23.3170   29.4736  141.6771 H   0  0  0  0  0  0  0  0  0  0  0  0
   25.4476   31.6494  141.4532 H   0  0  0  0  0  0  0  0  0  0  0  0
   22.8368   31.5530  143.0514 H   0  0  0  0  0  0  0  0  0  0  0  0
   23.2028   34.0336  143.4087 H   0  0  0  0  0  0  0  0  0  0  0  0
   24.8654   34.3604  141.6534 H   0  0  0  0  0  0  0  0  0  0  0  0
   26.0088   33.2799  142.5204 H   0  0  0  0  0  0  0  0  0  0  0  0
   26.4217   35.7697  142.5844 H   0  0  0  0  0  0  0  0  0  0  0  0
   26.3036   34.1652  145.1459 H   0  0  0  0  0  0  0  0  0  0  0  0
   26.9202   35.8515  145.0912 H   0  0  0  0  0  0  0  0  0  0  0  0
   27.7524   32.4152  144.4947 H   0  0  0  0  0  0  0  0  0  0  0  0
   30.5199   33.2559  143.5114 H   0  0  0  0  0  0  0  0  0  0  0  0
   31.1357   33.3330  140.9236 H   0  0  0  0  0  0  0  0  0  0  0  0
   29.6266   34.2392  141.2817 H   0  0  0  0  0  0  0  0  0  0  0  0
   29.7800   32.0019  139.1921 H   0  0  0  0  0  0  0  0  0  0  0  0
   27.5125   32.6698  140.1490 H   0  0  0  0  0  0  0  0  0  0  0  0
   28.0686   33.3457  137.2050 H   0  0  0  0  0  0  0  0  0  0  0  0
   28.6920   31.6233  136.0897 H   0  0  0  0  0  0  0  0  0  0  0  0
   28.1309   28.7337  136.9150 H   0  0  0  0  0  0  0  0  0  0  0  0
   29.7230   30.0796  134.6671 H   0  0  0  0  0  0  0  0  0  0  0  0
   28.0688   29.3901  134.5453 H   0  0  0  0  0  0  0  0  0  0  0  0
   28.9690   27.1307  134.9315 H   0  0  0  0  0  0  0  0  0  0  0  0
   31.7303   28.5000  134.8950 H   0  0  0  0  0  0  0  0  0  0  0  0
   31.8851   27.8399  137.2379 H   0  0  0  0  0  0  0  0  0  0  0  0
   30.2722   27.0527  137.1635 H   0  0  0  0  0  0  0  0  0  0  0  0
   30.0698   29.1685  138.3028 H   0  0  0  0  0  0  0  0  0  0  0  0
   30.9028   30.0236  136.9606 H   0  0  0  0  0  0  0  0  0  0  0  0
   21.9151   29.9200  138.3478 H   0  0  0  0  0  0  0  0  0  0  0  0
   21.7673   29.0727  139.9247 H   0  0  0  0  0  0  0  0  0  0  0  0
   23.1768   28.7483  138.8594 H   0  0  0  0  0  0  0  0  0  0  0  0
   24.0422   36.3902  142.9669 H   0  0  0  0  0  0  0  0  0  0  0  0
   25.1587   37.1110  144.1754 H   0  0  0  0  0  0  0  0  0  0  0  0
   24.1495   35.6927  144.6187 H   0  0  0  0  0  0  0  0  0  0  0  0
   30.0524   35.0152  143.2918 H   0  0  0  0  0  0  0  0  0  0  0  0
   29.2921   36.1942  144.4136 H   0  0  0  0  0  0  0  0  0  0  0  0
   28.6740   36.0237  142.7356 H   0  0  0  0  0  0  0  0  0  0  0  0
   29.3434   30.4908  144.0273 H   0  0  0  0  0  0  0  0  0  0  0  0
   30.1919   31.5083  145.2404 H   0  0  0  0  0  0  0  0  0  0  0  0
   31.6648   29.7596  144.3468 H   0  0  0  0  0  0  0  0  0  0  0  0
   32.2526   31.3954  143.8937 H   0  0  0  0  0  0  0  0  0  0  0  0
   31.4041   30.3779  142.6806 H   0  0  0  0  0  0  0  0  0  0  0  0
   28.0676   35.0539  140.6023 H   0  0  0  0  0  0  0  0  0  0  0  0
   26.6036   34.8955  139.5737 H   0  0  0  0  0  0  0  0  0  0  0  0
   28.1741   35.3591  138.8354 H   0  0  0  0  0  0  0  0  0  0  0  0
   26.8920   29.3835  138.4069 H   0  0  0  0  0  0  0  0  0  0  0  0
   25.6617   30.6861  138.5351 H   0  0  0  0  0  0  0  0  0  0  0  0
   27.0026   30.5965  139.7271 H   0  0  0  0  0  0  0  0  0  0  0  0
   26.5466   29.1912  143.9486 H   0  0  0  0  0  0  0  0  0  0  0  0
   27.0732   30.1101  142.4978 H   0  0  0  0  0  0  0  0  0  0  0  0
   25.8847   28.7735  142.3318 H   0  0  0  0  0  0  0  0  0  0  0  0
   23.4711   32.1474  146.3480 H   0  0  0  0  0  0  0  0  0  0  0  0
   22.6307   31.7430  144.8129 H   0  0  0  0  0  0  0  0  0  0  0  0
   22.5791   33.4218  145.4498 H   0  0  0  0  0  0  0  0  0  0  0  0
   28.7640   27.7708  131.3871 H   0  0  0  0  0  0  0  0  0  0  0  0
   28.0128   28.7579  132.6863 H   0  0  0  0  0  0  0  0  0  0  0  0
   27.9773   26.9648  132.7864 H   0  0  0  0  0  0  0  0  0  0  0  0
   33.6649   27.8771  135.2661 H   0  0  0  0  0  0  0  0  0  0  0  0
   31.9402   23.9404  135.3797 H   0  0  0  0  0  0  0  0  0  0  0  0
   35.8263   26.9803  136.0356 H   0  0  0  0  0  0  0  0  0  0  0  0
   33.7022   21.9274  136.2450 H   0  0  0  0  0  0  0  0  0  0  0  0
   36.2715   21.7903  137.0530 H   0  0  0  0  0  0  0  0  0  0  0  0
   37.4184   25.2951  137.8157 H   0  0  0  0  0  0  0  0  0  0  0  0
   37.6128   25.5384  136.0466 H   0  0  0  0  0  0  0  0  0  0  0  0
   39.5371   24.3777  137.0103 H   0  0  0  0  0  0  0  0  0  0  0  0
   38.6505   23.3250  135.8561 H   0  0  0  0  0  0  0  0  0  0  0  0
   38.4562   23.0816  137.6252 H   0  0  0  0  0  0  0  0  0  0  0  0
   20.5800   32.0363  141.3293 H   0  0  0  0  0  0  0  0  0  0  0  0
   29.9900   33.8548  137.7655 H   0  0  0  0  0  0  0  0  0  0  0  0
   25.6070   33.8660  136.8350 C   0  0  0  0  0  0  0  0  0  0  0  0
   24.1140   34.1050  136.6520 C   0  0  2  0  0  0  0  0  0  0  0  0
   23.8680   35.5600  136.2590 C   0  0  0  0  0  0  0  0  0  0  0  0
   24.1580   36.5440  137.3760 C   0  0  0  0  0  0  0  0  0  0  0  0
   23.3580   36.1830  138.6120 C   0  0  0  0  0  0  0  0  0  0  0  0
   23.6740   34.7650  139.0330 C   0  0  0  0  0  0  0  0  0  0  0  0
   22.4590   32.9490  137.9870 C   0  0  0  0  0  0  0  0  0  0  0  0
   21.7880   32.6670  139.1940 C   0  0  0  0  0  0  0  0  0  0  0  0
   22.2730   31.7870  140.3860 C   0  0  1  0  0  0  0  0  0  0  0  0
   23.2450   30.6470  139.8860 C   0  0  1  0  0  0  0  0  0  0  0  0
   24.0140   30.0770  141.0770 C   0  0  0  0  0  0  0  0  0  0  0  0
   24.6460   31.1240  141.9930 C   0  0  1  0  0  0  0  0  0  0  0  0
   23.5660   32.1220  142.4560 C   0  0  1  0  0  0  0  0  0  0  0  0
   24.0310   33.3160  143.3130 C   0  0  2  0  0  0  0  0  0  0  0  0
   25.2090   34.0250  142.6430 C   0  0  0  0  0  0  0  0  0  0  0  0
   25.8260   35.2380  143.3410 C   0  0  2  0  0  0  0  0  0  0  0  0
   26.7720   34.9300  144.5090 C   0  0  0  0  0  0  0  0  0  0  0  0
   28.1350   34.4170  144.0590 C   0  0  0  0  0  0  0  0  0  0  0  0
   28.4530   33.1080  144.0310 C   0  0  0  0  0  0  0  0  0  0  0  0
   29.7190   32.5100  143.4010 C   0  0  2  0  0  0  0  0  0  0  0  0
   29.6110   32.1830  141.9140 C   0  0  0  0  0  0  0  0  0  0  0  0
   30.0370   33.2800  140.9330 C   0  0  0  0  0  0  0  0  0  0  0  0
   29.5480   33.0330  139.4970 C   0  0  1  0  0  0  0  0  0  0  0  0
   28.0190   33.2690  139.3780 C   0  0  2  0  0  0  0  0  0  0  0  0
   27.4960   32.8240  137.9860 C   0  0  1  0  0  0  0  0  0  0  0  0
   27.5690   31.3220  137.7910 C   0  0  0  0  0  0  0  0  0  0  0  0
   28.3630   30.8700  136.8040 C   0  0  0  0  0  0  0  0  0  0  0  0
   28.8690   29.4580  136.5400 C   0  0  1  0  0  0  0  0  0  0  0  0
   29.0530   29.2840  135.0250 C   0  0  0  0  0  0  0  0  0  0  0  0
   29.6470   27.9330  134.6050 C   0  0  2  0  0  0  0  0  0  0  0  0
   31.0220   27.7450  135.2670 C   0  0  1  0  0  0  0  0  0  0  0  0
   30.8820   27.8880  136.7890 C   0  0  0  0  0  0  0  0  0  0  0  0
   30.2240   29.1960  137.2140 C   0  0  0  0  0  0  0  0  0  0  0  0
   22.4720   29.5180  139.2070 C   0  0  0  0  0  0  0  0  0  0  0  0
   24.7170   36.1730  143.8080 C   0  0  0  0  0  0  0  0  0  0  0  0
   29.1050   35.4860  143.5930 C   0  0  0  0  0  0  0  0  0  0  0  0
   30.1250   31.2510  144.1730 C   0  0  0  0  0  0  0  0  0  0  0  0
   31.4530   30.6550  143.7440 C   0  0  0  0  0  0  0  0  0  0  0  0
   27.6930   34.7490  139.6140 C   0  0  0  0  0  0  0  0  0  0  0  0
   26.7240   30.4370  138.6750 C   0  0  0  0  0  0  0  0  0  0  0  0
   26.2270   29.5960  142.9770 C   0  0  0  0  0  0  0  0  0  0  0  0
   23.1980   32.5180  145.3490 C   0  0  0  0  0  0  0  0  0  0  0  0
   28.5700   27.8350  132.4680 C   0  0  0  0  0  0  0  0  0  0  0  0
   32.6890   25.9580  135.2800 C   0  0  0  0  0  0  0  0  0  0  0  0
   33.7750   26.8170  135.4640 C   0  0  0  0  0  0  0  0  0  0  0  0
   32.7950   24.5900  135.5290 C   0  0  0  0  0  0  0  0  0  0  0  0
   34.0180   24.0590  135.9750 C   0  0  0  0  0  0  0  0  0  0  0  0
   34.9740   26.3260  135.8920 C   0  0  0  0  0  0  0  0  0  0  0  0
   35.0700   24.9520  136.1400 C   0  0  0  0  0  0  0  0  0  0  0  0
   34.3820   22.7760  136.3060 C   0  0  0  0  0  0  0  0  0  0  0  0
   36.1570   24.1380  136.6060 N   0  0  0  0  0  0  0  0  0  0  0  0
   35.7110   22.6660  136.7290 C   0  0  0  0  0  0  0  0  0  0  0  0
   37.4500   24.7920  136.8380 C   0  0  0  0  0  0  0  0  0  0  0  0
   38.6000   23.8300  136.8320 C   0  0  0  0  0  0  0  0  0  0  0  0
   23.4110   33.8760  137.9030 N   0  0  0  0  0  0  0  0  0  0  0  0
   26.0960   33.0830  137.8540 O   0  0  0  0  0  0  0  0  0  0  0  0
   26.4090   34.3920  136.0680 O   0  0  0  0  0  0  0  0  0  0  0  0
   22.1140   32.3190  136.9860 O   0  0  0  0  0  0  0  0  0  0  0  0
   20.6860   33.1980  139.3550 O   0  0  0  0  0  0  0  0  0  0  0  0
   22.9080   32.6690  141.3090 O   0  0  0  0  0  0  0  0  0  0  0  0
   21.1380   31.3050  141.0920 O   0  0  0  0  0  0  0  0  0  0  0  0
   25.1660   30.5150  143.1740 O   0  0  0  0  0  0  0  0  0  0  0  0
   24.3760   32.8300  144.6220 O   0  0  0  0  0  0  0  0  0  0  0  0
   29.2480   31.0610  141.5380 O   0  0  0  0  0  0  0  0  0  0  0  0
   30.2580   33.9670  138.6700 O   0  0  0  0  0  0  0  0  0  0  0  0
   29.8230   27.8500  133.1810 O   0  0  0  0  0  0  0  0  0  0  0  0
   31.4700   26.4410  134.9060 O   0  0  0  0  0  0  0  0  0  0  0  0
 79135  2  0  0  0  0
 79134  1  0  0  0  0
 80  1  1  6  0  0  0
 80 79  1  0  0  0  0
 80 81  1  0  0  0  0
 81  2  1  0  0  0  0
 81  3  1  0  0  0  0
 81 82  1  0  0  0  0
 82  4  1  0  0  0  0
 82  5  1  0  0  0  0
 83  6  1  0  0  0  0
 83  7  1  0  0  0  0
 83 82  1  0  0  0  0
 84  8  1  0  0  0  0
 84  9  1  0  0  0  0
 84 83  1  0  0  0  0
 85133  1  0  0  0  0
 85136  2  0  0  0  0
 86 85  2  0  0  0  0
 86137  2  0  0  0  0
 87 86  1  0  0  0  0
 87139  1  1  0  0  0
 88 10  1  6  0  0  0
 88 87  1  0  0  0  0
 88112  1  0  0  0  0
 89 11  1  0  0  0  0
 89 12  1  0  0  0  0
 89 88  1  0  0  0  0
 90 13  1  6  0  0  0
 90 89  1  0  0  0  0
 90 91  1  0  0  0  0
 91 14  1  1  0  0  0
 91138  1  0  0  0  0
 91 92  1  0  0  0  0
 92 15  1  1  0  0  0
 92141  1  0  0  0  0
 92 93  1  0  0  0  0
 93 16  1  0  0  0  0
 93 17  1  0  0  0  0
 93 94  1  0  0  0  0
 94 18  1  6  0  0  0
 94113  1  0  0  0  0
 94 95  1  0  0  0  0
 95 19  1  0  0  0  0
 95 20  1  0  0  0  0
 95 96  1  0  0  0  0
 96114  1  0  0  0  0
 96 97  2  0  0  0  0
 97 21  1  0  0  0  0
 97 98  1  0  0  0  0
 98 22  1  1  0  0  0
 98115  1  0  0  0  0
 98 99  1  0  0  0  0
 99142  2  0  0  0  0
 99100  1  0  0  0  0
100 23  1  0  0  0  0
100 24  1  0  0  0  0
100101  1  0  0  0  0
101 25  1  6  0  0  0
101143  1  0  0  0  0
101102  1  0  0  0  0
102 26  1  1  0  0  0
102117  1  0  0  0  0
103 27  1  6  0  0  0
103102  1  0  0  0  0
103104  1  0  0  0  0
104118  1  0  0  0  0
104105  2  0  0  0  0
105 28  1  0  0  0  0
105106  1  0  0  0  0
106 29  1  1  0  0  0
106111  1  0  0  0  0
106107  1  0  0  0  0
107 30  1  0  0  0  0
107 31  1  0  0  0  0
107108  1  0  0  0  0
108 32  1  1  0  0  0
108144  1  0  0  0  0
108109  1  0  0  0  0
109 33  1  6  0  0  0
109145  1  0  0  0  0
110 34  1  0  0  0  0
110 35  1  0  0  0  0
110109  1  0  0  0  0
111 36  1  0  0  0  0
111 37  1  0  0  0  0
111110  1  0  0  0  0
112 38  1  0  0  0  0
112 39  1  0  0  0  0
112 40  1  0  0  0  0
113 41  1  0  0  0  0
113 42  1  0  0  0  0
113 43  1  0  0  0  0
114 44  1  0  0  0  0
114 45  1  0  0  0  0
114 46  1  0  0  0  0
115 47  1  0  0  0  0
115 48  1  0  0  0  0
115116  1  0  0  0  0
116 49  1  0  0  0  0
116 50  1  0  0  0  0
116 51  1  0  0  0  0
117 52  1  0  0  0  0
117 53  1  0  0  0  0
117 54  1  0  0  0  0
118 55  1  0  0  0  0
118 56  1  0  0  0  0
118 57  1  0  0  0  0
119 58  1  0  0  0  0
119 59  1  0  0  0  0
119 60  1  0  0  0  0
120 61  1  0  0  0  0
120 62  1  0  0  0  0
120 63  1  0  0  0  0
121 64  1  0  0  0  0
121 65  1  0  0  0  0
121 66  1  0  0  0  0
122124  2  0  0  0  0
122123  1  0  0  0  0
123 67  1  0  0  0  0
123126  2  0  0  0  0
124 68  1  0  0  0  0
124125  1  0  0  0  0
125127  2  0  0  0  0
125128  1  0  0  0  0
126 69  1  0  0  0  0
126127  1  0  0  0  0
127129  1  0  0  0  0
128 70  1  0  0  0  0
128130  2  0  0  0  0
129130  1  0  0  0  0
129131  1  0  0  0  0
130 71  1  0  0  0  0
131 72  1  0  0  0  0
131 73  1  0  0  0  0
131132  1  0  0  0  0
132 74  1  0  0  0  0
132 75  1  0  0  0  0
132 76  1  0  0  0  0
133 80  1  0  0  0  0
133 84  1  0  0  0  0
134103  1  0  0  0  0
138 87  1  0  0  0  0
139 77  1  0  0  0  0
140 90  1  0  0  0  0
140119  1  0  0  0  0
141120  1  0  0  0  0
143 78  1  0  0  0  0
144121  1  0  0  0  0
145122  1  0  0  0  0
M  END
