1qq9_ligand
 OpenBabel08222323343D

 20 19  0  0  1  0  0  0  0  0999 V2000
   16.1610   15.7560   51.9030 N   0  3  0  0  0  0  0  0  0  0  0  0
   15.0840   16.7390   51.5960 C   0  0  2  0  0  0  0  0  0  0  0  0
   13.8460   15.9300   51.3670 C   0  0  0  0  0  0  0  0  0  0  0  0
   12.7950   16.5100   51.4240 O   0  5  0  0  0  0  0  0  0  0  0  0
   15.4010   17.5300   50.3170 C   0  0  0  0  0  0  0  0  0  0  0  0
   16.1830   18.8460   50.5020 C   0  0  0  0  0  0  0  0  0  0  0  0
   17.8520   18.6530   51.0630 S   0  0  0  0  0  0  0  0  0  0  0  0
   18.6140   17.8140   49.5560 C   0  0  0  0  0  0  0  0  0  0  0  0
   13.8650   14.7210   51.1540 O   0  0  0  0  0  0  0  0  0  0  0  0
   17.0262   16.2462   52.0679 H   0  0  0  0  0  0  0  0  0  0  0  0
   16.2743   15.1273   51.1233 H   0  0  0  0  0  0  0  0  0  0  0  0
   15.9111   15.2297   52.7255 H   0  0  0  0  0  0  0  0  0  0  0  0
   14.9481   17.4329   52.4386 H   0  0  0  0  0  0  0  0  0  0  0  0
   14.4460   17.7739   49.8287 H   0  0  0  0  0  0  0  0  0  0  0  0
   15.9937   16.8781   49.6584 H   0  0  0  0  0  0  0  0  0  0  0  0
   15.6450   19.4621   51.2375 H   0  0  0  0  0  0  0  0  0  0  0  0
   16.2067   19.3678   49.5339 H   0  0  0  0  0  0  0  0  0  0  0  0
   19.6799   17.6186   49.7450 H   0  0  0  0  0  0  0  0  0  0  0  0
   18.5114   18.4708   48.6796 H   0  0  0  0  0  0  0  0  0  0  0  0
   18.0953   16.8631   49.3643 H   0  0  0  0  0  0  0  0  0  0  0  0
  1 10  1  0  0  0  0
  1 11  1  0  0  0  0
  1 12  1  0  0  0  0
  2  3  1  0  0  0  0
  2  5  1  0  0  0  0
  2  1  1  0  0  0  0
  2 13  1  1  0  0  0
  3  9  2  0  0  0  0
  3  4  1  0  0  0  0
  5  6  1  0  0  0  0
  5 14  1  0  0  0  0
  5 15  1  0  0  0  0
  6  7  1  0  0  0  0
  6 16  1  0  0  0  0
  6 17  1  0  0  0  0
  7  8  1  0  0  0  0
  8 18  1  0  0  0  0
  8 19  1  0  0  0  0
  8 20  1  0  0  0  0
M  CHG  2   1   1   4  -1
M  END
