1qwf_ligand
 OpenBabel08222323343D

201204  0  0  1  0  0  0  0  0999 V2000
   63.4380    0.4180   11.2510 N   0  3  0  0  0  0  0  0  0  0  0  0
   64.2060    1.4960   10.5650 C   0  0  2  0  0  0  0  0  0  0  0  0
   65.3500    0.8750    9.7610 C   0  0  0  0  0  0  0  0  0  0  0  0
   66.5090    1.1450   10.0050 O   0  0  0  0  0  0  0  0  0  0  0  0
   64.7820    2.4530   11.6100 C   0  0  0  0  0  0  0  0  0  0  0  0
   65.7550    3.4210   10.9350 C   0  0  0  0  0  0  0  0  0  0  0  0
   63.6450    3.2450   12.2600 C   0  0  0  0  0  0  0  0  0  0  0  0
   63.0579   -0.2134   10.5633 H   0  0  0  0  0  0  0  0  0  0  0  0
   62.6862    0.8275   11.7831 H   0  0  0  0  0  0  0  0  0  0  0  0
   64.0507   -0.0891   11.8703 H   0  0  0  0  0  0  0  0  0  0  0  0
   63.5385    2.0490    9.8878 H   0  0  0  0  0  0  0  0  0  0  0  0
   65.3142    1.8763   12.3808 H   0  0  0  0  0  0  0  0  0  0  0  0
   66.1688    4.1088   11.6871 H   0  0  0  0  0  0  0  0  0  0  0  0
   65.2229    3.9977   10.1641 H   0  0  0  0  0  0  0  0  0  0  0  0
   66.5731    2.8527   10.4684 H   0  0  0  0  0  0  0  0  0  0  0  0
   62.9447    2.5495   12.7457 H   0  0  0  0  0  0  0  0  0  0  0  0
   63.1131    3.8224   11.4895 H   0  0  0  0  0  0  0  0  0  0  0  0
   64.0600    3.9322   13.0120 H   0  0  0  0  0  0  0  0  0  0  0  0
   65.0370    0.0430    8.8060 N   0  0  0  0  0  0  0  0  0  0  0  0
   66.1160   -0.5920    7.9940 C   0  0  2  0  0  0  0  0  0  0  0  0
   65.5490   -1.1240    6.6740 C   0  0  0  0  0  0  0  0  0  0  0  0
   66.2230   -1.1400    5.6630 O   0  0  0  0  0  0  0  0  0  0  0  0
   66.7300   -1.7490    8.7830 C   0  0  0  0  0  0  0  0  0  0  0  0
   67.5740   -2.5070    7.9260 O   0  0  0  0  0  0  0  0  0  0  0  0
   64.0777   -0.1684    8.6189 H   0  0  0  0  0  0  0  0  0  0  0  0
   66.8932    0.1559    7.7782 H   0  0  0  0  0  0  0  0  0  0  0  0
   65.9287   -2.3936    9.1734 H   0  0  0  0  0  0  0  0  0  0  0  0
   67.3205   -1.3498    9.6209 H   0  0  0  0  0  0  0  0  0  0  0  0
   67.0626   -2.8506    7.2028 H   0  0  0  0  0  0  0  0  0  0  0  0
   64.3220   -1.5690    6.6730 N   0  0  0  0  0  0  0  0  0  0  0  0
   63.7280   -2.1090    5.4130 C   0  0  2  0  0  0  0  0  0  0  0  0
   63.0350   -0.9830    4.6390 C   0  0  0  0  0  0  0  0  0  0  0  0
   62.3940   -1.2140    3.6330 O   0  0  0  0  0  0  0  0  0  0  0  0
   62.7100   -3.2230    5.7180 C   0  0  0  0  0  0  0  0  0  0  0  0
   62.7370   -3.5980    7.2040 C   0  0  0  0  0  0  0  0  0  0  0  0
   61.7410   -4.7280    7.4640 C   0  0  0  0  0  0  0  0  0  0  0  0
   64.1440   -4.0630    7.5870 C   0  0  0  0  0  0  0  0  0  0  0  0
   63.7808   -1.5485    7.5136 H   0  0  0  0  0  0  0  0  0  0  0  0
   64.5350   -2.5263    4.7928 H   0  0  0  0  0  0  0  0  0  0  0  0
   62.9577   -4.1111    5.1181 H   0  0  0  0  0  0  0  0  0  0  0  0
   61.7017   -2.8715    5.4537 H   0  0  0  0  0  0  0  0  0  0  0  0
   62.4629   -2.7209    7.8086 H   0  0  0  0  0  0  0  0  0  0  0  0
   61.7612   -4.9963    8.5306 H   0  0  0  0  0  0  0  0  0  0  0  0
   62.0159   -5.6053    6.8600 H   0  0  0  0  0  0  0  0  0  0  0  0
   60.7292   -4.3956    7.1886 H   0  0  0  0  0  0  0  0  0  0  0  0
   64.8620   -3.2508    7.4005 H   0  0  0  0  0  0  0  0  0  0  0  0
   64.4176   -4.9403    6.9824 H   0  0  0  0  0  0  0  0  0  0  0  0
   64.1637   -4.3320    8.6534 H   0  0  0  0  0  0  0  0  0  0  0  0
   63.1620    0.2330    5.0940 N   0  0  0  0  0  0  0  0  0  0  0  0
   62.5130    1.3690    4.3750 C   0  0  2  0  0  0  0  0  0  0  0  0
   63.4830    1.9330    3.3370 C   0  0  0  0  0  0  0  0  0  0  0  0
   63.1160    2.7340    2.5000 O   0  0  0  0  0  0  0  0  0  0  0  0
   62.1690    2.4770    5.3720 C   0  0  0  0  0  0  0  0  0  0  0  0
   63.6936    0.4040    5.9236 H   0  0  0  0  0  0  0  0  0  0  0  0
   61.5970    1.0171    3.8779 H   0  0  0  0  0  0  0  0  0  0  0  0
   61.6910    3.3130    4.8405 H   0  0  0  0  0  0  0  0  0  0  0  0
   63.0896    2.8307    5.8592 H   0  0  0  0  0  0  0  0  0  0  0  0
   61.4790    2.0841    6.1332 H   0  0  0  0  0  0  0  0  0  0  0  0
   64.7230    1.5360    3.3920 N   0  0  0  0  0  0  0  0  0  0  0  0
   65.7140    2.0660    2.4160 C   0  0  2  0  0  0  0  0  0  0  0  0
   65.8940    1.0720    1.2700 C   0  0  0  0  0  0  0  0  0  0  0  0
   66.7270    0.1890    1.3230 O   0  0  0  0  0  0  0  0  0  0  0  0
   67.0530    2.2910    3.1190 C   0  0  0  0  0  0  0  0  0  0  0  0
   67.1470    3.7490    3.5730 C   0  0  0  0  0  0  0  0  0  0  0  0
   68.1060    3.8550    4.7580 C   0  0  0  0  0  0  0  0  0  0  0  0
   69.5070    3.9230    4.2550 N   0  0  0  0  0  0  0  0  0  0  0  0
   70.4600    4.3840    5.0210 C   0  0  0  0  0  3  0  0  0  0  0  0
   70.1930    4.7850    6.2350 N   0  0  0  0  0  0  0  0  0  0  0  0
   71.6840    4.4420    4.5710 N   0  0  0  0  0  0  0  0  0  0  0  0
   65.0080    0.8770    4.0881 H   0  0  0  0  0  0  0  0  0  0  0  0
   65.3504    3.0224    2.0123 H   0  0  0  0  0  0  0  0  0  0  0  0
   67.8753    2.0692    2.4229 H   0  0  0  0  0  0  0  0  0  0  0  0
   67.1245    1.6284    3.9941 H   0  0  0  0  0  0  0  0  0  0  0  0
   66.1506    4.1034    3.8754 H   0  0  0  0  0  0  0  0  0  0  0  0
   67.5201    4.3676    2.7435 H   0  0  0  0  0  0  0  0  0  0  0  0
   67.9903    2.9723    5.4041 H   0  0  0  0  0  0  0  0  0  0  0  0
   67.8784    4.7638    5.3345 H   0  0  0  0  0  0  0  0  0  0  0  0
   69.7251    3.6054    3.2998 H   0  0  0  0  0  0  0  0  0  0  0  0
   70.9474    5.1476    6.8352 H   0  0  0  0  0  0  0  0  0  0  0  0
   69.2280    4.7386    6.5922 H   0  0  0  0  0  0  0  0  0  0  0  0
   71.8963    4.1262    3.6139 H   0  0  0  0  0  0  0  0  0  0  0  0
   72.4375    4.8036    5.1731 H   0  0  0  0  0  0  0  0  0  0  0  0
   65.1220    1.2150    0.2290 N   0  0  0  0  0  0  0  0  0  0  0  0
   65.2470    0.2880   -0.9280 C   0  0  2  0  0  0  0  0  0  0  0  0
   65.0910    1.0850   -2.2250 C   0  0  0  0  0  0  0  0  0  0  0  0
   64.5900    2.1920   -2.2130 O   0  0  0  0  0  0  0  0  0  0  0  0
   64.1570   -0.7830   -0.8460 C   0  0  0  0  0  0  0  0  0  0  0  0
   64.6840   -1.9850   -0.0610 C   0  0  0  0  0  0  0  0  0  0  0  0
   63.5230   -2.6840    0.6460 C   0  0  0  0  0  0  0  0  0  0  0  0
   63.0490   -3.8250   -0.1880 N   0  0  0  0  0  0  0  0  0  0  0  0
   62.3420   -4.7840    0.3500 C   0  0  0  0  0  3  0  0  0  0  0  0
   62.0390   -4.7440    1.6200 N   0  0  0  0  0  0  0  0  0  0  0  0
   61.9370   -5.7830   -0.3850 N   0  0  0  0  0  0  0  0  0  0  0  0
   64.4440    1.9498    0.2082 H   0  0  0  0  0  0  0  0  0  0  0  0
   66.2356   -0.1939   -0.9090 H   0  0  0  0  0  0  0  0  0  0  0  0
   63.8782   -1.1014   -1.8613 H   0  0  0  0  0  0  0  0  0  0  0  0
   63.2743   -0.3700   -0.3359 H   0  0  0  0  0  0  0  0  0  0  0  0
   65.4149   -1.6424    0.6863 H   0  0  0  0  0  0  0  0  0  0  0  0
   65.1693   -2.6897   -0.7523 H   0  0  0  0  0  0  0  0  0  0  0  0
   62.6993   -1.9698    0.7926 H   0  0  0  0  0  0  0  0  0  0  0  0
   63.8611   -3.0595    1.6231 H   0  0  0  0  0  0  0  0  0  0  0  0
   63.2793   -3.8579   -1.1914 H   0  0  0  0  0  0  0  0  0  0  0  0
   61.4818   -5.5013    2.0406 H   0  0  0  0  0  0  0  0  0  0  0  0
   62.3573   -3.9552    2.2008 H   0  0  0  0  0  0  0  0  0  0  0  0
   62.1754   -5.8154   -1.3865 H   0  0  0  0  0  0  0  0  0  0  0  0
   61.3788   -6.5393    0.0363 H   0  0  0  0  0  0  0  0  0  0  0  0
   65.5260    0.4970   -3.3080 N   0  0  0  0  0  0  0  0  0  0  0  0
   65.4530    1.1330   -4.6330 C   0  0  2  0  0  0  0  0  0  0  0  0
   64.0190    1.0910   -5.1640 C   0  0  0  0  0  0  0  0  0  0  0  0
   63.5500    0.0730   -5.6310 O   0  0  0  0  0  0  0  0  0  0  0  0
   66.3900    0.2820   -5.4940 C   0  0  0  0  0  0  0  0  0  0  0  0
   66.5050   -1.0890   -4.7880 C   0  0  0  0  0  0  0  0  0  0  0  0
   66.1210   -0.8550   -3.3150 C   0  0  0  0  0  0  0  0  0  0  0  0
   65.7994    2.1762   -4.5906 H   0  0  0  0  0  0  0  0  0  0  0  0
   67.3792    0.7579   -5.5646 H   0  0  0  0  0  0  0  0  0  0  0  0
   65.9706    0.1564   -6.5031 H   0  0  0  0  0  0  0  0  0  0  0  0
   67.5358   -1.4667   -4.8567 H   0  0  0  0  0  0  0  0  0  0  0  0
   65.8176   -1.8132   -5.2496 H   0  0  0  0  0  0  0  0  0  0  0  0
   65.3902   -1.6050   -2.9782 H   0  0  0  0  0  0  0  0  0  0  0  0
   67.0104   -0.8936   -2.6688 H   0  0  0  0  0  0  0  0  0  0  0  0
   63.3230    2.1940   -5.0910 N   0  0  0  0  0  0  0  0  0  0  0  0
   61.9190    2.2250   -5.5880 C   0  0  2  0  0  0  0  0  0  0  0  0
   61.8350    1.4690   -6.9150 C   0  0  0  0  0  0  0  0  0  0  0  0
   62.7760    1.4650   -7.6830 O   0  0  0  0  0  0  0  0  0  0  0  0
   61.4860    3.6770   -5.7980 C   0  0  0  0  0  0  0  0  0  0  0  0
   61.1670    4.3150   -4.4450 C   0  0  0  0  0  0  0  0  0  0  0  0
   61.6930    5.7510   -4.4200 C   0  0  0  0  0  0  0  0  0  0  0  0
   59.6520    4.3250   -4.2350 C   0  0  0  0  0  0  0  0  0  0  0  0
   63.7331    3.0185   -4.7011 H   0  0  0  0  0  0  0  0  0  0  0  0
   61.2570    1.7476   -4.8506 H   0  0  0  0  0  0  0  0  0  0  0  0
   60.5905    3.7039   -6.4362 H   0  0  0  0  0  0  0  0  0  0  0  0
   62.2995    4.2356   -6.2840 H   0  0  0  0  0  0  0  0  0  0  0  0
   61.6459    3.7344   -3.6428 H   0  0  0  0  0  0  0  0  0  0  0  0
   61.4630    6.2088   -3.4466 H   0  0  0  0  0  0  0  0  0  0  0  0
   61.2121    6.3317   -5.2210 H   0  0  0  0  0  0  0  0  0  0  0  0
   62.7821    5.7453   -4.5743 H   0  0  0  0  0  0  0  0  0  0  0  0
   59.2726    3.2927   -4.2528 H   0  0  0  0  0  0  0  0  0  0  0  0
   59.1743    4.9051   -5.0383 H   0  0  0  0  0  0  0  0  0  0  0  0
   59.4196    4.7843   -3.2629 H   0  0  0  0  0  0  0  0  0  0  0  0
   60.7100    0.8450   -7.1400 N   0  0  0  0  0  0  0  0  0  0  0  0
   60.4690    0.0670   -8.3620 C   0  0  2  0  0  0  0  0  0  0  0  0
   60.1050    1.0070   -9.5170 C   0  0  0  0  0  0  0  0  0  0  0  0
   59.9330    2.1930   -9.3160 O   0  0  0  0  0  0  0  0  0  0  0  0
   59.2880   -0.8310   -7.9840 C   0  0  0  0  0  0  0  0  0  0  0  0
   58.5660   -0.1350   -6.8070 C   0  0  0  0  0  0  0  0  0  0  0  0
   59.5710    0.8590   -6.1980 C   0  0  0  0  0  0  0  0  0  0  0  0
   61.3499   -0.5329   -8.6344 H   0  0  0  0  0  0  0  0  0  0  0  0
   59.6487   -1.8232   -7.6751 H   0  0  0  0  0  0  0  0  0  0  0  0
   58.6041   -0.9392   -8.8387 H   0  0  0  0  0  0  0  0  0  0  0  0
   58.2644   -0.8783   -6.0543 H   0  0  0  0  0  0  0  0  0  0  0  0
   57.6765    0.4002   -7.1709 H   0  0  0  0  0  0  0  0  0  0  0  0
   59.1324    1.8655   -6.1309 H   0  0  0  0  0  0  0  0  0  0  0  0
   59.8880    0.5297   -5.1975 H   0  0  0  0  0  0  0  0  0  0  0  0
   59.9980    0.4460  -10.6910 N   0  0  0  0  0  0  0  0  0  0  0  0
   59.6520    1.2080  -11.9040 C   0  0  2  0  0  0  0  0  0  0  0  0
   58.1620    1.5570  -11.8970 C   0  0  0  0  0  0  0  0  0  0  0  0
   57.3130    0.6890  -11.8740 O   0  0  0  0  0  0  0  0  0  0  0  0
   59.9920    0.2450  -13.0440 C   0  0  0  0  0  0  0  0  0  0  0  0
   59.9770   -1.1760  -12.4310 C   0  0  0  0  0  0  0  0  0  0  0  0
   60.2040   -0.9990  -10.9180 C   0  0  0  0  0  0  0  0  0  0  0  0
   60.2476    2.1298  -11.9778 H   0  0  0  0  0  0  0  0  0  0  0  0
   60.9879    0.4735  -13.4515 H   0  0  0  0  0  0  0  0  0  0  0  0
   59.2416    0.3224  -13.8446 H   0  0  0  0  0  0  0  0  0  0  0  0
   60.7808   -1.7871  -12.8674 H   0  0  0  0  0  0  0  0  0  0  0  0
   59.0067   -1.6600  -12.6161 H   0  0  0  0  0  0  0  0  0  0  0  0
   59.4786   -1.5924  -10.3420 H   0  0  0  0  0  0  0  0  0  0  0  0
   61.2254   -1.2967  -10.6387 H   0  0  0  0  0  0  0  0  0  0  0  0
   57.8360    2.8220  -11.9030 N   0  0  0  0  0  0  0  0  0  0  0  0
   56.4010    3.2150  -11.8820 C   0  0  2  0  0  0  0  0  0  0  0  0
   55.7230    2.8190  -13.1970 C   0  0  0  0  0  0  0  0  0  0  0  0
   56.3690    2.6780  -14.2160 O   0  0  0  0  0  0  0  0  0  0  0  0
   56.2670    4.7340  -11.6990 C   0  0  0  0  0  0  0  0  0  0  0  0
   56.5970    5.1650  -10.2590 C   0  0  0  0  0  0  0  0  0  0  0  0
   55.7680    6.3900   -9.9010 C   0  0  0  0  0  0  0  0  0  0  0  0
   56.2650    4.0610   -9.2580 C   0  0  0  0  0  0  0  0  0  0  0  0
   58.5482    3.5237  -11.9216 H   0  0  0  0  0  0  0  0  0  0  0  0
   55.9018    2.7025  -11.0464 H   0  0  0  0  0  0  0  0  0  0  0  0
   55.2340    5.0314  -11.9322 H   0  0  0  0  0  0  0  0  0  0  0  0
   56.9587    5.2387  -12.3895 H   0  0  0  0  0  0  0  0  0  0  0  0
   57.6678    5.4075  -10.1920 H   0  0  0  0  0  0  0  0  0  0  0  0
   56.0004    6.7021   -8.8721 H   0  0  0  0  0  0  0  0  0  0  0  0
   54.6986    6.1440   -9.9768 H   0  0  0  0  0  0  0  0  0  0  0  0
   56.0059    7.2094  -10.5952 H   0  0  0  0  0  0  0  0  0  0  0  0
   56.8527    3.1620   -9.4954 H   0  0  0  0  0  0  0  0  0  0  0  0
   55.1925    3.8238   -9.3161 H   0  0  0  0  0  0  0  0  0  0  0  0
   56.5107    4.4018   -8.2414 H   0  0  0  0  0  0  0  0  0  0  0  0
   54.4260    2.6670  -13.1190 N   0  0  0  0  0  0  0  0  0  0  0  0
   53.5830    2.3040  -14.2690 C   0  0  2  0  0  0  0  0  0  0  0  0
   53.3050    3.5350  -15.1370 C   0  0  0  0  0  0  0  0  0  0  0  0
   53.2450    3.3810  -16.3460 O   0  5  0  0  0  0  0  0  0  0  0  0
   52.2930    1.7940  -13.6160 C   0  0  0  0  0  0  0  0  0  0  0  0
   52.2490    2.3950  -12.1980 C   0  0  0  0  0  0  0  0  0  0  0  0
   53.6790    2.8430  -11.8590 C   0  0  0  0  0  0  0  0  0  0  0  0
   53.1570    4.6090  -14.5780 O   0  0  0  0  0  0  0  0  0  0  0  0
   54.0562    1.5194  -14.8777 H   0  0  0  0  0  0  0  0  0  0  0  0
   52.3036    0.6954  -13.5622 H   0  0  0  0  0  0  0  0  0  0  0  0
   51.4182    2.1243  -14.1953 H   0  0  0  0  0  0  0  0  0  0  0  0
   51.9088    1.6376  -11.4765 H   0  0  0  0  0  0  0  0  0  0  0  0
   51.5666    3.2574  -12.1736 H   0  0  0  0  0  0  0  0  0  0  0  0
   53.6923    3.8963  -11.5423 H   0  0  0  0  0  0  0  0  0  0  0  0
   54.1052    2.2152  -11.0626 H   0  0  0  0  0  0  0  0  0  0  0  0
  1  2  1  0  0  0  0
  1  8  1  0  0  0  0
  1  9  1  0  0  0  0
  1 10  1  0  0  0  0
  2  3  1  0  0  0  0
  2  5  1  0  0  0  0
  2 11  1  6  0  0  0
  3  4  2  0  0  0  0
  3 19  1  0  0  0  0
  5  6  1  0  0  0  0
  5  7  1  0  0  0  0
  5 12  1  0  0  0  0
  6 13  1  0  0  0  0
  6 14  1  0  0  0  0
  6 15  1  0  0  0  0
  7 16  1  0  0  0  0
  7 17  1  0  0  0  0
  7 18  1  0  0  0  0
 19 20  1  0  0  0  0
 19 25  1  0  0  0  0
 20 21  1  0  0  0  0
 20 23  1  0  0  0  0
 20 26  1  6  0  0  0
 21 22  2  0  0  0  0
 21 30  1  0  0  0  0
 23 24  1  0  0  0  0
 23 27  1  0  0  0  0
 23 28  1  0  0  0  0
 24 29  1  0  0  0  0
 30 31  1  0  0  0  0
 30 38  1  0  0  0  0
 31 32  1  0  0  0  0
 31 34  1  0  0  0  0
 31 39  1  6  0  0  0
 32 33  2  0  0  0  0
 32 49  1  0  0  0  0
 34 35  1  0  0  0  0
 34 40  1  0  0  0  0
 34 41  1  0  0  0  0
 35 36  1  0  0  0  0
 35 37  1  0  0  0  0
 35 42  1  0  0  0  0
 36 43  1  0  0  0  0
 36 44  1  0  0  0  0
 36 45  1  0  0  0  0
 37 46  1  0  0  0  0
 37 47  1  0  0  0  0
 37 48  1  0  0  0  0
 49 50  1  0  0  0  0
 49 54  1  0  0  0  0
 50 51  1  0  0  0  0
 50 53  1  0  0  0  0
 50 55  1  6  0  0  0
 51 52  2  0  0  0  0
 51 59  1  0  0  0  0
 53 56  1  0  0  0  0
 53 57  1  0  0  0  0
 53 58  1  0  0  0  0
 59 60  1  0  0  0  0
 59 70  1  0  0  0  0
 60 61  1  0  0  0  0
 60 63  1  0  0  0  0
 60 71  1  6  0  0  0
 61 62  2  0  0  0  0
 61 83  1  0  0  0  0
 63 64  1  0  0  0  0
 63 72  1  0  0  0  0
 63 73  1  0  0  0  0
 64 65  1  0  0  0  0
 64 74  1  0  0  0  0
 64 75  1  0  0  0  0
 65 66  1  0  0  0  0
 65 76  1  0  0  0  0
 65 77  1  0  0  0  0
 66 67  1  0  0  0  0
 66 78  1  0  0  0  0
 67 68  1  0  0  0  0
 67 69  1  0  0  0  0
 68 79  1  0  0  0  0
 68 80  1  0  0  0  0
 69 81  1  0  0  0  0
 69 82  1  0  0  0  0
 83 84  1  0  0  0  0
 83 94  1  0  0  0  0
 84 85  1  0  0  0  0
 84 87  1  0  0  0  0
 84 95  1  1  0  0  0
 85 86  2  0  0  0  0
 85107  1  0  0  0  0
 87 88  1  0  0  0  0
 87 96  1  0  0  0  0
 87 97  1  0  0  0  0
 88 89  1  0  0  0  0
 88 98  1  0  0  0  0
 88 99  1  0  0  0  0
 89 90  1  0  0  0  0
 89100  1  0  0  0  0
 89101  1  0  0  0  0
 90 91  1  0  0  0  0
 90102  1  0  0  0  0
 91 92  1  0  0  0  0
 91 93  1  0  0  0  0
 92103  1  0  0  0  0
 92104  1  0  0  0  0
 93105  1  0  0  0  0
 93106  1  0  0  0  0
107108  1  0  0  0  0
107113  1  0  0  0  0
108109  1  0  0  0  0
108111  1  0  0  0  0
108114  1  1  0  0  0
109110  2  0  0  0  0
109121  1  0  0  0  0
111112  1  0  0  0  0
111115  1  0  0  0  0
111116  1  0  0  0  0
112113  1  0  0  0  0
112117  1  0  0  0  0
112118  1  0  0  0  0
113119  1  0  0  0  0
113120  1  0  0  0  0
121122  1  0  0  0  0
121129  1  0  0  0  0
122123  1  0  0  0  0
122125  1  0  0  0  0
122130  1  1  0  0  0
123124  2  0  0  0  0
123140  1  0  0  0  0
125126  1  0  0  0  0
125131  1  0  0  0  0
125132  1  0  0  0  0
126127  1  0  0  0  0
126128  1  0  0  0  0
126133  1  0  0  0  0
127134  1  0  0  0  0
127135  1  0  0  0  0
127136  1  0  0  0  0
128137  1  0  0  0  0
128138  1  0  0  0  0
128139  1  0  0  0  0
140141  1  0  0  0  0
140146  1  0  0  0  0
141142  1  0  0  0  0
141144  1  0  0  0  0
141147  1  6  0  0  0
142143  2  0  0  0  0
142154  1  0  0  0  0
144145  1  0  0  0  0
144148  1  0  0  0  0
144149  1  0  0  0  0
145146  1  0  0  0  0
145150  1  0  0  0  0
145151  1  0  0  0  0
146152  1  0  0  0  0
146153  1  0  0  0  0
154155  1  0  0  0  0
154160  1  0  0  0  0
155156  1  0  0  0  0
155158  1  0  0  0  0
155161  1  6  0  0  0
156157  2  0  0  0  0
156168  1  0  0  0  0
158159  1  0  0  0  0
158162  1  0  0  0  0
158163  1  0  0  0  0
159160  1  0  0  0  0
159164  1  0  0  0  0
159165  1  0  0  0  0
160166  1  0  0  0  0
160167  1  0  0  0  0
168169  1  0  0  0  0
168176  1  0  0  0  0
169170  1  0  0  0  0
169172  1  0  0  0  0
169177  1  1  0  0  0
170171  2  0  0  0  0
170187  1  0  0  0  0
172173  1  0  0  0  0
172178  1  0  0  0  0
172179  1  0  0  0  0
173174  1  0  0  0  0
173175  1  0  0  0  0
173180  1  0  0  0  0
174181  1  0  0  0  0
174182  1  0  0  0  0
174183  1  0  0  0  0
175184  1  0  0  0  0
175185  1  0  0  0  0
175186  1  0  0  0  0
187188  1  0  0  0  0
187193  1  0  0  0  0
188189  1  0  0  0  0
188191  1  0  0  0  0
188195  1  6  0  0  0
189190  1  0  0  0  0
189194  2  0  0  0  0
191192  1  0  0  0  0
191196  1  0  0  0  0
191197  1  0  0  0  0
192193  1  0  0  0  0
192198  1  0  0  0  0
192199  1  0  0  0  0
193200  1  0  0  0  0
193201  1  0  0  0  0
M  CHG  2   1   1 190  -1
M  END
