1qwu_ligand
 OpenBabel08222323343D

 23 23  0  0  1  0  0  0  0  0999 V2000
   30.3620   66.0770    6.6520 C   0  0  1  0  0  0  0  0  0  0  0  0
   32.4770   65.7760    8.8070 C   0  0  1  0  0  0  0  0  0  0  0  0
   29.6860   65.5500    5.7770 F   0  0  0  0  0  0  0  0  0  0  0  0
   33.4980   65.4240    9.5600 O   0  0  0  0  0  0  0  0  0  0  0  0
   32.8450   66.4910    7.4470 C   0  0  1  0  0  0  0  0  0  0  0  0
   34.1240   66.1290    6.9930 O   0  0  0  0  0  0  0  0  0  0  0  0
   31.8710   66.5730    6.1380 C   0  0  2  0  0  0  0  0  0  0  0  0
   31.6410   67.5950    5.3770 O   0  0  0  0  0  0  0  0  0  0  0  0
   29.4220   67.1420    7.3000 C   0  0  0  0  0  0  0  0  0  0  0  0
   28.5530   66.9110    7.9970 O   0  0  0  0  0  0  0  0  0  0  0  0
   30.3510   65.0050    7.7570 O   0  0  0  0  0  0  0  0  0  0  0  0
   31.5720   64.5480    8.3260 C   0  0  0  0  0  0  0  0  0  0  0  0
   31.8629   66.4603    9.4108 H   0  0  0  0  0  0  0  0  0  0  0  0
   34.0005   66.1963    9.7914 H   0  0  0  0  0  0  0  0  0  0  0  0
   32.9292   67.5432    7.7564 H   0  0  0  0  0  0  0  0  0  0  0  0
   34.7711   66.3753    7.6434 H   0  0  0  0  0  0  0  0  0  0  0  0
   32.2791   65.8136    5.4548 H   0  0  0  0  0  0  0  0  0  0  0  0
   32.4561   67.8873    4.9863 H   0  0  0  0  0  0  0  0  0  0  0  0
   28.9819   67.6953    6.4573 H   0  0  0  0  0  0  0  0  0  0  0  0
   30.0851   67.8091    7.8703 H   0  0  0  0  0  0  0  0  0  0  0  0
   28.8775   66.4583    8.7666 H   0  0  0  0  0  0  0  0  0  0  0  0
   31.3475   63.9064    9.1909 H   0  0  0  0  0  0  0  0  0  0  0  0
   32.1246   63.9676    7.5725 H   0  0  0  0  0  0  0  0  0  0  0  0
  1  3  1  6  0  0  0
  1  9  1  0  0  0  0
  1 11  1  0  0  0  0
  2  4  1  0  0  0  0
  2 12  1  0  0  0  0
  2 13  1  1  0  0  0
  4 14  1  0  0  0  0
  5  2  1  0  0  0  0
  5  6  1  0  0  0  0
  5  7  1  0  0  0  0
  5 15  1  1  0  0  0
  6 16  1  0  0  0  0
  7  1  1  0  0  0  0
  7  8  1  0  0  0  0
  7 17  1  6  0  0  0
  8 18  1  0  0  0  0
  9 10  1  0  0  0  0
  9 19  1  0  0  0  0
  9 20  1  0  0  0  0
 10 21  1  0  0  0  0
 11 12  1  0  0  0  0
 12 22  1  0  0  0  0
 12 23  1  0  0  0  0
M  END
