1r1i_ligand
 OpenBabel08222323343D

 53 53  0  0  1  0  0  0  0  0999 V2000
   24.6370   50.5380   28.8190 S   0  0  0  0  0  0  0  0  0  0  0  0
   25.2310   51.3070   30.3380 C   0  0  2  0  0  0  0  0  0  0  0  0
   26.7050   50.9320   30.5450 C   0  0  0  0  0  0  0  0  0  0  0  0
   27.5970   52.1730   30.6430 C   0  0  0  0  0  0  0  0  0  0  0  0
   27.2820   52.9790   31.9070 C   0  0  0  0  0  0  0  0  0  0  0  0
   28.2230   54.1810   32.0450 C   0  0  0  0  0  0  0  0  0  0  0  0
   27.9920   55.1980   30.9210 C   0  0  0  0  0  0  0  0  0  0  0  0
   24.3950   50.7590   31.4460 C   0  0  0  0  0  0  0  0  0  0  0  0
   23.2000   50.9830   31.5400 O   0  0  0  0  0  0  0  0  0  0  0  0
   25.0040   49.9480   32.2840 N   0  0  0  0  0  0  0  0  0  0  0  0
   24.1530   49.4150   33.3220 C   0  0  1  0  0  0  0  0  0  0  0  0
   24.7250   48.1020   33.8160 C   0  0  0  0  0  0  0  0  0  0  0  0
   23.6370   47.5030   34.6660 C   0  0  0  0  0  0  0  0  0  0  0  0
   23.7520   47.4760   36.0440 C   0  0  0  0  0  0  0  0  0  0  0  0
   22.4960   47.0260   34.0670 C   0  0  0  0  0  0  0  0  0  0  0  0
   22.7350   46.9340   36.8160 C   0  0  0  0  0  0  0  0  0  0  0  0
   21.4770   46.5000   34.8290 C   0  0  0  0  0  0  0  0  0  0  0  0
   21.5900   46.4370   36.1980 C   0  0  0  0  0  0  0  0  0  0  0  0
   24.0060   50.3990   34.4340 C   0  0  0  0  0  0  0  0  0  0  0  0
   22.9050   50.6510   34.8230 O   0  0  0  0  0  0  0  0  0  0  0  0
   25.0830   50.9940   34.9350 N   0  0  0  0  0  0  0  0  0  0  0  0
   24.9070   51.9530   36.0020 C   0  0  1  0  0  0  0  0  0  0  0  0
   25.2390   51.3080   37.3420 C   0  0  0  0  0  0  0  0  0  0  0  0
   25.8060   53.0910   35.7870 C   0  0  0  0  0  0  0  0  0  0  0  0
   26.7660   52.8840   35.1070 O   0  5  0  0  0  0  0  0  0  0  0  0
   25.5940   54.2910   36.3130 O   0  0  0  0  0  0  0  0  0  0  0  0
   23.6690   50.7806   28.6773 H   0  0  0  0  0  0  0  0  0  0  0  0
   25.1273   52.4008   30.2852 H   0  0  0  0  0  0  0  0  0  0  0  0
   27.0396   50.3188   29.6953 H   0  0  0  0  0  0  0  0  0  0  0  0
   26.7980   50.3519   31.4749 H   0  0  0  0  0  0  0  0  0  0  0  0
   27.4280   52.8077   29.7606 H   0  0  0  0  0  0  0  0  0  0  0  0
   28.6503   51.8572   30.6713 H   0  0  0  0  0  0  0  0  0  0  0  0
   27.3992   52.3285   32.7862 H   0  0  0  0  0  0  0  0  0  0  0  0
   26.2442   53.3398   31.8535 H   0  0  0  0  0  0  0  0  0  0  0  0
   29.2641   53.8285   32.0015 H   0  0  0  0  0  0  0  0  0  0  0  0
   28.0414   54.6695   33.0137 H   0  0  0  0  0  0  0  0  0  0  0  0
   28.6803   56.0467   31.0473 H   0  0  0  0  0  0  0  0  0  0  0  0
   26.9537   55.5590   30.9608 H   0  0  0  0  0  0  0  0  0  0  0  0
   28.1764   54.7180   29.9486 H   0  0  0  0  0  0  0  0  0  0  0  0
   25.9747   49.7198   32.2086 H   0  0  0  0  0  0  0  0  0  0  0  0
   23.1566   49.2236   32.8971 H   0  0  0  0  0  0  0  0  0  0  0  0
   25.6322   48.2751   34.4135 H   0  0  0  0  0  0  0  0  0  0  0  0
   24.9638   47.4408   32.9700 H   0  0  0  0  0  0  0  0  0  0  0  0
   24.6380   47.8789   36.5213 H   0  0  0  0  0  0  0  0  0  0  0  0
   22.3976   47.0641   32.9881 H   0  0  0  0  0  0  0  0  0  0  0  0
   22.8309   46.8974   37.8951 H   0  0  0  0  0  0  0  0  0  0  0  0
   20.5787   46.1327   34.3460 H   0  0  0  0  0  0  0  0  0  0  0  0
   20.7936   46.0036   36.7920 H   0  0  0  0  0  0  0  0  0  0  0  0
   25.9946   50.7832   34.5820 H   0  0  0  0  0  0  0  0  0  0  0  0
   23.8641   52.3026   36.0110 H   0  0  0  0  0  0  0  0  0  0  0  0
   25.1023   52.0447   38.1474 H   0  0  0  0  0  0  0  0  0  0  0  0
   26.2834   50.9630   37.3341 H   0  0  0  0  0  0  0  0  0  0  0  0
   24.5709   50.4508   37.5119 H   0  0  0  0  0  0  0  0  0  0  0  0
  1  2  1  0  0  0  0
  1 27  1  0  0  0  0
  2  3  1  0  0  0  0
  2  8  1  0  0  0  0
  2 28  1  6  0  0  0
  3  4  1  0  0  0  0
  3 29  1  0  0  0  0
  3 30  1  0  0  0  0
  4  5  1  0  0  0  0
  4 31  1  0  0  0  0
  4 32  1  0  0  0  0
  5  6  1  0  0  0  0
  5 33  1  0  0  0  0
  5 34  1  0  0  0  0
  6  7  1  0  0  0  0
  6 35  1  0  0  0  0
  6 36  1  0  0  0  0
  7 37  1  0  0  0  0
  7 38  1  0  0  0  0
  7 39  1  0  0  0  0
  8  9  2  0  0  0  0
  8 10  1  0  0  0  0
 10 11  1  0  0  0  0
 10 40  1  0  0  0  0
 11 12  1  0  0  0  0
 11 19  1  0  0  0  0
 11 41  1  6  0  0  0
 12 13  1  0  0  0  0
 12 42  1  0  0  0  0
 12 43  1  0  0  0  0
 13 14  2  0  0  0  0
 13 15  1  0  0  0  0
 14 16  1  0  0  0  0
 14 44  1  0  0  0  0
 15 17  2  0  0  0  0
 15 45  1  0  0  0  0
 16 18  2  0  0  0  0
 16 46  1  0  0  0  0
 17 18  1  0  0  0  0
 17 47  1  0  0  0  0
 18 48  1  0  0  0  0
 19 20  2  0  0  0  0
 19 21  1  0  0  0  0
 21 22  1  0  0  0  0
 21 49  1  0  0  0  0
 22 23  1  0  0  0  0
 22 24  1  0  0  0  0
 22 50  1  1  0  0  0
 23 51  1  0  0  0  0
 23 52  1  0  0  0  0
 23 53  1  0  0  0  0
 24 25  1  0  0  0  0
 24 26  2  0  0  0  0
M  CHG  1  25  -1
M  END
