1r58_ligand
 OpenBabel08222323343D

 46 46  0  0  1  0  0  0  0  0999 V2000
   19.5710   33.0360   16.1000 C   0  0  0  0  0  0  0  0  0  0  0  0
   18.7930   34.0790   15.2970 C   0  0  0  0  0  0  0  0  0  0  0  0
   19.9230   33.5930   17.4710 C   0  0  0  0  0  0  0  0  0  0  0  0
   21.0510   32.5290   15.2710 S   0  0  0  0  0  0  0  0  0  0  0  0
   20.8100   30.7630   15.0850 C   0  0  0  0  0  0  0  0  0  0  0  0
   21.0560   29.9950   16.3750 C   0  0  0  0  0  0  0  0  0  0  0  0
   20.6120   28.5460   16.2170 C   0  0  1  0  0  0  0  0  0  0  0  0
   21.9220   27.9620   15.8740 N   0  3  0  0  0  0  0  0  0  0  0  0
   20.0220   27.9640   17.5610 C   0  0  2  0  0  0  0  0  0  0  0  0
   20.0380   26.5410   17.5620 O   0  0  0  0  0  0  0  0  0  0  0  0
   18.5920   28.4240   17.7420 C   0  0  0  0  0  0  0  0  0  0  0  0
   17.6390   27.8590   17.2390 O   0  0  0  0  0  0  0  0  0  0  0  0
   18.4980   29.6570   18.5610 N   0  0  0  0  0  0  0  0  0  0  0  0
   17.2150   30.3150   18.8200 N   0  0  0  0  0  0  0  0  0  0  0  0
   16.5600   31.0460   17.8580 C   0  0  0  0  0  0  0  0  0  0  0  0
   17.0760   31.1400   16.7250 O   0  0  0  0  0  0  0  0  0  0  0  0
   15.2500   31.7070   18.1670 C   0  0  0  0  0  0  0  0  0  0  0  0
   14.5710   31.7310   19.5060 C   0  0  0  0  0  0  0  0  0  0  0  0
   13.2610   32.4350   19.6490 C   0  0  0  0  0  0  0  0  0  0  0  0
   12.6260   33.1070   18.4770 C   0  0  0  0  0  0  0  0  0  0  0  0
   13.3160   33.0650   17.1750 C   0  0  0  0  0  0  0  0  0  0  0  0
   14.5890   32.3900   17.0110 C   0  0  0  0  0  0  0  0  0  0  0  0
   12.6480   33.8090   15.7870 Cl  0  0  0  0  0  0  0  0  0  0  0  0
   18.9283   32.1530   16.2315 H   0  0  0  0  0  0  0  0  0  0  0  0
   17.8847   34.3635   15.8484 H   0  0  0  0  0  0  0  0  0  0  0  0
   18.5122   33.6559   14.3213 H   0  0  0  0  0  0  0  0  0  0  0  0
   19.4224   34.9680   15.1437 H   0  0  0  0  0  0  0  0  0  0  0  0
   20.4821   32.8367   18.0415 H   0  0  0  0  0  0  0  0  0  0  0  0
   18.9995   33.8504   18.0104 H   0  0  0  0  0  0  0  0  0  0  0  0
   20.5420   34.4946   17.3526 H   0  0  0  0  0  0  0  0  0  0  0  0
   21.5053   30.3924   14.3174 H   0  0  0  0  0  0  0  0  0  0  0  0
   19.7748   30.5819   14.7602 H   0  0  0  0  0  0  0  0  0  0  0  0
   20.4857   30.4629   17.1910 H   0  0  0  0  0  0  0  0  0  0  0  0
   22.1291   30.0221   16.6151 H   0  0  0  0  0  0  0  0  0  0  0  0
   19.8770   28.4199   15.4084 H   0  0  0  0  0  0  0  0  0  0  0  0
   21.8197   26.9699   15.7280 H   0  0  0  0  0  0  0  0  0  0  0  0
   22.5706   28.1255   16.6281 H   0  0  0  0  0  0  0  0  0  0  0  0
   22.2711   28.3913   15.0315 H   0  0  0  0  0  0  0  0  0  0  0  0
   20.6307   28.3301   18.4009 H   0  0  0  0  0  0  0  0  0  0  0  0
   19.6779   26.2219   18.3813 H   0  0  0  0  0  0  0  0  0  0  0  0
   19.3329   30.0497   18.9468 H   0  0  0  0  0  0  0  0  0  0  0  0
   16.8021   30.2294   19.7268 H   0  0  0  0  0  0  0  0  0  0  0  0
   15.0265   31.2427   20.3599 H   0  0  0  0  0  0  0  0  0  0  0  0
   12.7667   32.4580   20.6135 H   0  0  0  0  0  0  0  0  0  0  0  0
   11.6749   33.6165   18.5814 H   0  0  0  0  0  0  0  0  0  0  0  0
   15.0679   32.3800   16.0386 H   0  0  0  0  0  0  0  0  0  0  0  0
  1  2  1  0  0  0  0
  1  3  1  0  0  0  0
  1  4  1  0  0  0  0
  1 24  1  0  0  0  0
  2 25  1  0  0  0  0
  2 26  1  0  0  0  0
  2 27  1  0  0  0  0
  3 28  1  0  0  0  0
  3 29  1  0  0  0  0
  3 30  1  0  0  0  0
  4  5  1  0  0  0  0
  5  6  1  0  0  0  0
  5 31  1  0  0  0  0
  5 32  1  0  0  0  0
  6  7  1  0  0  0  0
  6 33  1  0  0  0  0
  6 34  1  0  0  0  0
  7  8  1  0  0  0  0
  7  9  1  0  0  0  0
  7 35  1  6  0  0  0
  8 36  1  0  0  0  0
  8 37  1  0  0  0  0
  8 38  1  0  0  0  0
  9 10  1  0  0  0  0
  9 11  1  0  0  0  0
  9 39  1  1  0  0  0
 10 40  1  0  0  0  0
 11 12  2  0  0  0  0
 11 13  1  0  0  0  0
 13 14  1  0  0  0  0
 13 41  1  0  0  0  0
 14 15  1  0  0  0  0
 14 42  1  0  0  0  0
 15 16  2  0  0  0  0
 15 17  1  0  0  0  0
 17 18  2  0  0  0  0
 17 22  1  0  0  0  0
 18 19  1  0  0  0  0
 18 43  1  0  0  0  0
 19 20  2  0  0  0  0
 19 44  1  0  0  0  0
 20 21  1  0  0  0  0
 20 45  1  0  0  0  0
 21 22  2  0  0  0  0
 21 23  1  0  0  0  0
 22 46  1  0  0  0  0
M  CHG  1   8   1
M  END
