1rdl_ligand
 OpenBabel08222323343D

 24 24  0  0  1  0  0  0  0  0999 V2000
    2.0340   46.4730    0.1180 C   0  0  1  0  0  0  0  0  0  0  0  0
    2.3850   45.3740    1.1240 C   0  0  2  0  0  0  0  0  0  0  0  0
    3.0440   45.9990    2.3600 C   0  0  2  0  0  0  0  0  0  0  0  0
    4.2460   46.8250    1.9420 C   0  0  1  0  0  0  0  0  0  0  0  0
    3.8550   47.8640    0.8910 C   0  0  1  0  0  0  0  0  0  0  0  0
    5.0800   48.5910    0.3550 C   0  0  0  0  0  0  0  0  0  0  0  0
    1.0350   47.2970    0.6560 O   0  0  0  0  0  0  0  0  0  0  0  0
    3.2810   44.4590    0.5230 O   0  0  0  0  0  0  0  0  0  0  0  0
    3.4850   44.9810    3.2460 O   0  0  0  0  0  0  0  0  0  0  0  0
    4.7920   47.4640    3.0810 O   0  0  0  0  0  0  0  0  0  0  0  0
    3.2090   47.2120   -0.2310 O   0  0  0  0  0  0  0  0  0  0  0  0
    4.7640   49.3670   -0.7930 O   0  0  0  0  0  0  0  0  0  0  0  0
    1.6399   46.0030   -0.7951 H   0  0  0  0  0  0  0  0  0  0  0  0
    1.4683   44.8461    1.4254 H   0  0  0  0  0  0  0  0  0  0  0  0
    2.3147   46.6428    2.8733 H   0  0  0  0  0  0  0  0  0  0  0  0
    5.0041   46.1554    1.5097 H   0  0  0  0  0  0  0  0  0  0  0  0
    3.1660   48.5914    1.3450 H   0  0  0  0  0  0  0  0  0  0  0  0
    5.8463   47.8494    0.0853 H   0  0  0  0  0  0  0  0  0  0  0  0
    5.4727   49.2556    1.1387 H   0  0  0  0  0  0  0  0  0  0  0  0
    0.2749   46.7704    0.8737 H   0  0  0  0  0  0  0  0  0  0  0  0
    4.0721   44.9164    0.2633 H   0  0  0  0  0  0  0  0  0  0  0  0
    2.7419   44.4546    3.5168 H   0  0  0  0  0  0  0  0  0  0  0  0
    5.5639   47.9561    2.8271 H   0  0  0  0  0  0  0  0  0  0  0  0
    5.5474   49.8067   -1.1021 H   0  0  0  0  0  0  0  0  0  0  0  0
  1  2  1  0  0  0  0
  1  7  1  0  0  0  0
  1 11  1  0  0  0  0
  1 13  1  6  0  0  0
  2  3  1  0  0  0  0
  2  8  1  0  0  0  0
  2 14  1  1  0  0  0
  3  4  1  0  0  0  0
  3  9  1  0  0  0  0
  3 15  1  1  0  0  0
  4  5  1  0  0  0  0
  4 10  1  0  0  0  0
  4 16  1  6  0  0  0
  5  6  1  0  0  0  0
  5 11  1  0  0  0  0
  5 17  1  1  0  0  0
  6 12  1  0  0  0  0
  6 18  1  0  0  0  0
  6 19  1  0  0  0  0
  7 20  1  0  0  0  0
  8 21  1  0  0  0  0
  9 22  1  0  0  0  0
 10 23  1  0  0  0  0
 12 24  1  0  0  0  0
M  END
