1rev_ligand
 OpenBabel08222323343D

 42 44  0  0  1  0  0  0  0  0999 V2000
    0.8980  -37.3110   18.5140 N   0  0  0  0  0  0  0  0  0  0  0  0
    0.2840  -37.1300   19.7030 C   0  0  0  0  0  0  0  0  0  0  0  0
    2.1420  -37.7570   18.7700 C   0  0  0  0  0  0  0  0  0  0  0  0
    3.3020  -38.0590   17.5780 S   0  0  0  0  0  0  0  0  0  0  0  0
    2.3500  -37.8790   20.1140 N   0  0  0  0  0  0  0  0  0  0  0  0
    1.2110  -37.4930   20.7250 C   0  0  0  0  0  0  0  0  0  0  0  0
    3.6220  -38.3840   20.6320 C   0  0  0  0  0  0  0  0  0  0  0  0
    3.5360  -38.9920   22.0390 C   0  0  1  0  0  0  0  0  0  0  0  0
    3.0190  -38.0210   23.0050 N   0  3  2  0  0  0  0  0  0  0  0  0
    1.5670  -38.1600   23.1250 C   0  0  0  0  0  0  0  0  0  0  0  0
    0.8230  -37.3720   22.0740 C   0  0  0  0  0  0  0  0  0  0  0  0
   -0.4320  -36.8990   22.3890 C   0  0  0  0  0  0  0  0  0  0  0  0
   -1.3250  -36.5530   21.3970 C   0  0  0  0  0  0  0  0  0  0  0  0
   -2.8610  -36.0010   21.8380 Cl  0  0  0  0  0  0  0  0  0  0  0  0
   -0.9800  -36.6610   20.0660 C   0  0  0  0  0  0  0  0  0  0  0  0
    2.7330  -40.2820   22.0090 C   0  0  0  0  0  0  0  0  0  0  0  0
    3.7770  -36.8760   23.5370 C   0  0  0  0  0  0  0  0  0  0  0  0
    3.0080  -36.1580   24.6020 C   0  0  0  0  0  0  0  0  0  0  0  0
    3.4910  -35.2020   25.3750 C   0  0  0  0  0  0  0  0  0  0  0  0
    2.6420  -34.5480   26.4230 C   0  0  0  0  0  0  0  0  0  0  0  0
    4.8940  -34.7090   25.2550 C   0  0  0  0  0  0  0  0  0  0  0  0
    0.5020  -37.1446   17.6109 H   0  0  0  0  0  0  0  0  0  0  0  0
    4.3377  -37.5492   20.6610 H   0  0  0  0  0  0  0  0  0  0  0  0
    3.9905  -39.1592   19.9440 H   0  0  0  0  0  0  0  0  0  0  0  0
    4.5579  -39.2499   22.3539 H   0  0  0  0  0  0  0  0  0  0  0  0
    3.2295  -38.5854   23.8132 H   0  0  0  0  0  0  0  0  0  0  0  0
    1.2590  -37.8019   24.1184 H   0  0  0  0  0  0  0  0  0  0  0  0
    1.3044  -39.2231   23.0208 H   0  0  0  0  0  0  0  0  0  0  0  0
   -0.7208  -36.7977   23.4289 H   0  0  0  0  0  0  0  0  0  0  0  0
   -1.6928  -36.3807   19.2989 H   0  0  0  0  0  0  0  0  0  0  0  0
    3.1686  -40.9678   21.2675 H   0  0  0  0  0  0  0  0  0  0  0  0
    1.6913  -40.0592   21.7349 H   0  0  0  0  0  0  0  0  0  0  0  0
    2.7580  -40.7527   23.0029 H   0  0  0  0  0  0  0  0  0  0  0  0
    3.9902  -36.1756   22.7160 H   0  0  0  0  0  0  0  0  0  0  0  0
    4.7233  -37.2404   23.9632 H   0  0  0  0  0  0  0  0  0  0  0  0
    1.9686  -36.4466   24.7512 H   0  0  0  0  0  0  0  0  0  0  0  0
    3.2332  -33.7845   26.9499 H   0  0  0  0  0  0  0  0  0  0  0  0
    2.2981  -35.3061   27.1420 H   0  0  0  0  0  0  0  0  0  0  0  0
    1.7717  -34.0733   25.9462 H   0  0  0  0  0  0  0  0  0  0  0  0
    5.4104  -35.2632   24.4574 H   0  0  0  0  0  0  0  0  0  0  0  0
    5.4199  -34.8638   26.2086 H   0  0  0  0  0  0  0  0  0  0  0  0
    4.8862  -33.6366   25.0104 H   0  0  0  0  0  0  0  0  0  0  0  0
  1  2  1  0  0  0  0
  1  3  1  0  0  0  0
  1 22  1  0  0  0  0
  2  6  2  0  0  0  0
  2 15  1  0  0  0  0
  3  4  2  0  0  0  0
  3  5  1  0  0  0  0
  5  6  1  0  0  0  0
  5  7  1  0  0  0  0
  6 11  1  0  0  0  0
  7  8  1  0  0  0  0
  7 23  1  0  0  0  0
  7 24  1  0  0  0  0
  8  9  1  0  0  0  0
  8 16  1  0  0  0  0
  8 25  1  1  0  0  0
  9 10  1  0  0  0  0
  9 17  1  0  0  0  0
  9 26  1  1  0  0  0
 10 11  1  0  0  0  0
 10 27  1  0  0  0  0
 10 28  1  0  0  0  0
 11 12  2  0  0  0  0
 12 13  1  0  0  0  0
 12 29  1  0  0  0  0
 13 14  1  0  0  0  0
 13 15  2  0  0  0  0
 15 30  1  0  0  0  0
 16 31  1  0  0  0  0
 16 32  1  0  0  0  0
 16 33  1  0  0  0  0
 17 18  1  0  0  0  0
 17 34  1  0  0  0  0
 17 35  1  0  0  0  0
 18 19  2  0  0  0  0
 18 36  1  0  0  0  0
 19 20  1  0  0  0  0
 19 21  1  0  0  0  0
 20 37  1  0  0  0  0
 20 38  1  0  0  0  0
 20 39  1  0  0  0  0
 21 40  1  0  0  0  0
 21 41  1  0  0  0  0
 21 42  1  0  0  0  0
M  CHG  1   9   1
M  END
