1rhj_ligand
 OpenBabel08222323343D

 88 89  0  0  1  0  0  0  0  0999 V2000
  -76.3660   37.3190   79.5680 C   0  0  0  0  0  0  0  0  0  0  0  0
  -77.8220   36.9900   79.9480 C   0  0  0  0  0  0  0  0  0  0  0  0
  -78.5830   36.2350   78.8410 C   0  0  0  0  0  0  0  0  0  0  0  0
  -79.7460   35.3980   79.4070 C   0  0  0  0  0  0  0  0  0  0  0  0
  -79.8080   33.9890   78.7840 C   0  0  0  0  0  0  0  0  0  0  0  0
  -80.4810   32.9510   79.7320 C   0  0  0  0  0  0  0  0  0  0  0  0
  -81.6440   32.1230   79.2760 N   0  3  2  0  0  0  0  0  0  0  0  0
  -81.2650   31.2510   78.1230 C   0  0  0  0  0  0  0  0  0  0  0  0
  -82.8560   32.9410   78.9310 C   0  0  0  0  0  0  0  0  0  0  0  0
  -84.2740   32.4330   79.3750 C   0  0  1  0  0  0  0  0  0  0  0  0
  -84.1730   31.3950   78.7340 O   0  0  0  0  0  0  0  0  0  0  0  0
  -84.5520   32.4560   80.8810 C   0  0  1  0  0  0  0  0  0  0  0  0
  -84.8690   33.8330   81.2520 N   0  0  0  0  0  0  0  0  0  0  0  0
  -85.7800   31.5450   81.2190 C   0  0  0  0  0  0  0  0  0  0  0  0
  -86.0070   31.1610   82.6880 C   0  0  0  0  0  0  0  0  0  0  0  0
  -87.2050   31.1050   83.0980 O   0  5  0  0  0  0  0  0  0  0  0  0
  -85.0100   30.8910   83.4120 O   0  0  0  0  0  0  0  0  0  0  0  0
  -84.1700   34.5540   82.1450 C   0  0  0  0  0  0  0  0  0  0  0  0
  -84.6060   36.0280   82.3160 C   0  0  2  0  0  0  0  0  0  0  0  0
  -83.2400   34.1000   82.8080 O   0  0  0  0  0  0  0  0  0  0  0  0
  -84.0840   36.8430   81.1040 C   0  0  0  0  0  0  0  0  0  0  0  0
  -84.8500   38.1590   80.8700 C   0  0  0  0  0  0  0  0  0  0  0  0
  -84.2290   36.7310   83.6010 N   0  0  0  0  0  0  0  0  0  0  0  0
  -84.5990   37.4160   85.9360 C   0  0  0  0  0  0  0  0  0  0  0  0
  -83.3660   38.1290   85.9050 N   0  0  0  0  0  0  0  0  0  0  0  0
  -82.5310   38.1770   84.7530 C   0  0  0  0  0  0  0  0  0  0  0  0
  -82.9300   37.5030   83.6430 C   0  0  0  0  0  0  0  0  0  0  0  0
  -85.0770   36.6590   84.6890 C   0  0  0  0  0  0  0  0  0  0  0  0
  -86.1500   36.0580   84.7260 O   0  0  0  0  0  0  0  0  0  0  0  0
  -81.2700   39.0450   84.8490 C   0  0  0  0  0  0  0  0  0  0  0  0
  -80.3210   38.8120   83.6400 C   0  0  0  0  0  0  0  0  0  0  0  0
  -80.5010   38.7270   86.1480 C   0  0  0  0  0  0  0  0  0  0  0  0
  -81.6830   40.5300   84.8730 C   0  0  0  0  0  0  0  0  0  0  0  0
  -85.2860   37.4620   87.0990 N   0  0  0  0  0  0  0  0  0  0  0  0
  -85.1200   38.4330   88.1820 C   0  0  0  0  0  0  0  0  0  0  0  0
  -85.7240   39.7790   87.7590 C   0  0  0  0  0  0  0  0  0  0  0  0
  -87.1370   40.2250   87.5540 C   0  0  0  0  0  0  0  0  0  0  0  0
  -87.1010   41.5030   87.1880 N   0  0  0  0  0  0  0  0  0  0  0  0
  -85.7430   41.9140   87.1440 O   0  0  0  0  0  0  0  0  0  0  0  0
  -84.9350   40.8190   87.5030 N   0  0  0  0  0  0  0  0  0  0  0  0
  -88.4450   39.4560   87.7010 C   0  0  0  0  0  0  0  0  0  0  0  0
  -75.8827   37.8552   80.3980 H   0  0  0  0  0  0  0  0  0  0  0  0
  -76.3558   37.9511   78.6678 H   0  0  0  0  0  0  0  0  0  0  0  0
  -75.8197   36.3857   79.3669 H   0  0  0  0  0  0  0  0  0  0  0  0
  -78.3506   37.9321   80.1553 H   0  0  0  0  0  0  0  0  0  0  0  0
  -77.8144   36.3667   80.8543 H   0  0  0  0  0  0  0  0  0  0  0  0
  -77.8822   35.5641   78.3226 H   0  0  0  0  0  0  0  0  0  0  0  0
  -78.9873   36.9665   78.1258 H   0  0  0  0  0  0  0  0  0  0  0  0
  -80.6918   35.9193   79.1982 H   0  0  0  0  0  0  0  0  0  0  0  0
  -79.6143   35.2987   80.4946 H   0  0  0  0  0  0  0  0  0  0  0  0
  -78.7835   33.6544   78.5638 H   0  0  0  0  0  0  0  0  0  0  0  0
  -80.3857   34.0408   77.8494 H   0  0  0  0  0  0  0  0  0  0  0  0
  -80.8240   33.5111   80.6144 H   0  0  0  0  0  0  0  0  0  0  0  0
  -79.6928   32.2440   80.0301 H   0  0  0  0  0  0  0  0  0  0  0  0
  -81.8981   31.5216   80.0440 H   0  0  0  0  0  0  0  0  0  0  0  0
  -82.1364   30.6566   77.8109 H   0  0  0  0  0  0  0  0  0  0  0  0
  -80.4504   30.5765   78.4256 H   0  0  0  0  0  0  0  0  0  0  0  0
  -80.9294   31.8780   77.2838 H   0  0  0  0  0  0  0  0  0  0  0  0
  -82.8776   33.0375   77.8355 H   0  0  0  0  0  0  0  0  0  0  0  0
  -82.7137   33.9333   79.3838 H   0  0  0  0  0  0  0  0  0  0  0  0
  -85.0654   33.0547   78.9310 H   0  0  0  0  0  0  0  0  0  0  0  0
  -84.9610   30.8765   78.8468 H   0  0  0  0  0  0  0  0  0  0  0  0
  -83.6667   32.1066   81.4325 H   0  0  0  0  0  0  0  0  0  0  0  0
  -85.6562   34.2666   80.8135 H   0  0  0  0  0  0  0  0  0  0  0  0
  -85.6609   30.6106   80.6509 H   0  0  0  0  0  0  0  0  0  0  0  0
  -86.6827   32.0710   80.8747 H   0  0  0  0  0  0  0  0  0  0  0  0
  -85.7053   36.0309   82.2780 H   0  0  0  0  0  0  0  0  0  0  0  0
  -84.1765   36.2215   80.2011 H   0  0  0  0  0  0  0  0  0  0  0  0
  -83.0246   37.0833   81.2768 H   0  0  0  0  0  0  0  0  0  0  0  0
  -84.4262   38.6800   79.9988 H   0  0  0  0  0  0  0  0  0  0  0  0
  -84.7593   38.7993   81.7598 H   0  0  0  0  0  0  0  0  0  0  0  0
  -85.9113   37.9375   80.6842 H   0  0  0  0  0  0  0  0  0  0  0  0
  -82.2957   37.5193   82.7579 H   0  0  0  0  0  0  0  0  0  0  0  0
  -79.4310   39.4499   83.7443 H   0  0  0  0  0  0  0  0  0  0  0  0
  -80.8463   39.0652   82.7073 H   0  0  0  0  0  0  0  0  0  0  0  0
  -80.0141   37.7560   83.6129 H   0  0  0  0  0  0  0  0  0  0  0  0
  -81.1608   38.8876   87.0133 H   0  0  0  0  0  0  0  0  0  0  0  0
  -79.6254   39.3881   86.2270 H   0  0  0  0  0  0  0  0  0  0  0  0
  -80.1685   37.6786   86.1300 H   0  0  0  0  0  0  0  0  0  0  0  0
  -82.2332   40.7725   83.9519 H   0  0  0  0  0  0  0  0  0  0  0  0
  -80.7836   41.1597   84.9394 H   0  0  0  0  0  0  0  0  0  0  0  0
  -82.3270   40.7175   85.7448 H   0  0  0  0  0  0  0  0  0  0  0  0
  -86.0033   36.7360   87.2383 H   0  0  0  0  0  0  0  0  0  0  0  0
  -84.0491   38.5630   88.3970 H   0  0  0  0  0  0  0  0  0  0  0  0
  -85.6334   38.0679   89.0837 H   0  0  0  0  0  0  0  0  0  0  0  0
  -89.2894   40.1204   87.4651 H   0  0  0  0  0  0  0  0  0  0  0  0
  -88.5423   39.0922   88.7345 H   0  0  0  0  0  0  0  0  0  0  0  0
  -88.4472   38.6006   87.0094 H   0  0  0  0  0  0  0  0  0  0  0  0
  1 42  1  0  0  0  0
  1 43  1  0  0  0  0
  1 44  1  0  0  0  0
  2  1  1  0  0  0  0
  2 45  1  0  0  0  0
  2 46  1  0  0  0  0
  3  2  1  0  0  0  0
  3 47  1  0  0  0  0
  3 48  1  0  0  0  0
  4  3  1  0  0  0  0
  4 49  1  0  0  0  0
  4 50  1  0  0  0  0
  5  4  1  0  0  0  0
  5 51  1  0  0  0  0
  5 52  1  0  0  0  0
  6  5  1  0  0  0  0
  6 53  1  0  0  0  0
  6 54  1  0  0  0  0
  7  6  1  0  0  0  0
  7  8  1  0  0  0  0
  7 55  1  1  0  0  0
  8 56  1  0  0  0  0
  8 57  1  0  0  0  0
  8 58  1  0  0  0  0
  9  7  1  0  0  0  0
  9 59  1  0  0  0  0
  9 60  1  0  0  0  0
 10  9  1  0  0  0  0
 10 11  1  0  0  0  0
 10 61  1  6  0  0  0
 11 62  1  0  0  0  0
 12 10  1  0  0  0  0
 12 14  1  0  0  0  0
 12 63  1  1  0  0  0
 13 12  1  0  0  0  0
 13 64  1  0  0  0  0
 14 15  1  0  0  0  0
 14 65  1  0  0  0  0
 14 66  1  0  0  0  0
 15 16  1  0  0  0  0
 15 17  2  0  0  0  0
 18 13  1  0  0  0  0
 18 20  2  0  0  0  0
 19 18  1  0  0  0  0
 19 21  1  0  0  0  0
 19 67  1  6  0  0  0
 21 22  1  0  0  0  0
 21 68  1  0  0  0  0
 21 69  1  0  0  0  0
 22 70  1  0  0  0  0
 22 71  1  0  0  0  0
 22 72  1  0  0  0  0
 23 19  1  0  0  0  0
 23 27  1  0  0  0  0
 24 25  2  0  0  0  0
 24 28  1  0  0  0  0
 24 34  1  0  0  0  0
 25 26  1  0  0  0  0
 26 27  2  0  0  0  0
 26 30  1  0  0  0  0
 27 73  1  0  0  0  0
 28 23  1  0  0  0  0
 28 29  2  0  0  0  0
 30 31  1  0  0  0  0
 30 32  1  0  0  0  0
 30 33  1  0  0  0  0
 31 74  1  0  0  0  0
 31 75  1  0  0  0  0
 31 76  1  0  0  0  0
 32 77  1  0  0  0  0
 32 78  1  0  0  0  0
 32 79  1  0  0  0  0
 33 80  1  0  0  0  0
 33 81  1  0  0  0  0
 33 82  1  0  0  0  0
 34 35  1  0  0  0  0
 34 83  1  0  0  0  0
 35 36  1  0  0  0  0
 35 84  1  0  0  0  0
 35 85  1  0  0  0  0
 36 37  1  0  0  0  0
 36 40  2  0  0  0  0
 37 38  2  0  0  0  0
 37 41  1  0  0  0  0
 38 39  1  0  0  0  0
 39 40  1  0  0  0  0
 41 86  1  0  0  0  0
 41 87  1  0  0  0  0
 41 88  1  0  0  0  0
M  CHG  2   7   1  16  -1
M  END
