1rhq_ligand
 OpenBabel08222323343D

 35 34  0  0  1  0  0  0  0  0999 V2000
   50.0410   29.2620   95.7490 C   0  0  0  0  0  0  0  0  0  0  0  0
   50.9980   28.7110   96.2680 O   0  0  0  0  0  0  0  0  0  0  0  0
   49.7010   30.6990   96.1230 C   0  0  0  0  0  0  0  0  0  0  0  0
   49.2650   28.6590   94.8450 N   0  0  0  0  0  0  0  0  0  0  0  0
   49.4730   27.2670   94.4230 C   0  0  2  0  0  0  0  0  0  0  0  0
   49.9000   27.0700   92.9560 C   0  0  0  0  0  0  0  0  0  0  0  0
   49.7400   27.9660   92.1180 O   0  0  0  0  0  0  0  0  0  0  0  0
   48.1880   26.4470   94.6150 C   0  0  0  0  0  0  0  0  0  0  0  0
   47.8250   26.3740   96.0680 C   0  0  0  0  0  0  0  0  0  0  0  0
   47.0640   27.0760   93.8160 C   0  0  0  0  0  0  0  0  0  0  0  0
   50.4320   25.8820   92.6600 N   0  0  0  0  0  0  0  0  0  0  0  0
   50.8500   25.5250   91.3040 C   0  0  2  0  0  0  0  0  0  0  0  0
   49.8620   24.5120   90.6770 C   0  0  0  0  0  0  0  0  0  0  0  0
   50.4120   24.0590   89.4260 O   0  0  0  0  0  0  0  0  0  0  0  0
   52.2580   24.9390   91.3230 C   0  0  0  0  0  0  0  0  0  0  0  0
   53.3190   26.0000   91.2880 C   0  0  0  0  0  0  0  0  0  0  0  0
   53.8240   26.3050   90.2000 O   0  5  0  0  0  0  0  0  0  0  0  0
   53.6430   26.5420   92.3470 O   0  0  0  0  0  0  0  0  0  0  0  0
   48.8145   31.0247   95.5591 H   0  0  0  0  0  0  0  0  0  0  0  0
   50.5514   31.3525   95.8786 H   0  0  0  0  0  0  0  0  0  0  0  0
   49.4915   30.7575   97.2013 H   0  0  0  0  0  0  0  0  0  0  0  0
   48.5115   29.1759   94.4386 H   0  0  0  0  0  0  0  0  0  0  0  0
   50.2629   26.8489   95.0642 H   0  0  0  0  0  0  0  0  0  0  0  0
   48.3592   25.4258   94.2439 H   0  0  0  0  0  0  0  0  0  0  0  0
   46.9041   25.7842   96.1867 H   0  0  0  0  0  0  0  0  0  0  0  0
   47.6623   27.3900   96.4568 H   0  0  0  0  0  0  0  0  0  0  0  0
   48.6422   25.8942   96.6265 H   0  0  0  0  0  0  0  0  0  0  0  0
   47.3491   27.1205   92.7545 H   0  0  0  0  0  0  0  0  0  0  0  0
   46.8748   28.0938   94.1878 H   0  0  0  0  0  0  0  0  0  0  0  0
   46.1525   26.4702   93.9257 H   0  0  0  0  0  0  0  0  0  0  0  0
   50.5492   25.2111   93.3922 H   0  0  0  0  0  0  0  0  0  0  0  0
   50.8559   26.4363   90.6880 H   0  0  0  0  0  0  0  0  0  0  0  0
   48.9133   24.1960   91.1083 H   0  0  0  0  0  0  0  0  0  0  0  0
   52.3813   24.2869   90.4457 H   0  0  0  0  0  0  0  0  0  0  0  0
   52.3816   24.3458   92.2411 H   0  0  0  0  0  0  0  0  0  0  0  0
  1  2  2  0  0  0  0
  1  3  1  0  0  0  0
  3 19  1  0  0  0  0
  3 20  1  0  0  0  0
  3 21  1  0  0  0  0
  4  1  1  0  0  0  0
  4 22  1  0  0  0  0
  5  4  1  0  0  0  0
  5  8  1  0  0  0  0
  5 23  1  1  0  0  0
  6  5  1  0  0  0  0
  6  7  2  0  0  0  0
  6 11  1  0  0  0  0
  8 10  1  0  0  0  0
  8  9  1  0  0  0  0
  8 24  1  0  0  0  0
  9 25  1  0  0  0  0
  9 26  1  0  0  0  0
  9 27  1  0  0  0  0
 10 28  1  0  0  0  0
 10 29  1  0  0  0  0
 10 30  1  0  0  0  0
 11 12  1  0  0  0  0
 11 31  1  0  0  0  0
 12 15  1  0  0  0  0
 12 13  1  0  0  0  0
 12 32  1  6  0  0  0
 13 14  2  0  0  0  0
 13 33  1  0  0  0  0
 15 16  1  0  0  0  0
 15 34  1  0  0  0  0
 15 35  1  0  0  0  0
 16 18  2  0  0  0  0
 16 17  1  0  0  0  0
M  CHG  1  17  -1
M  END
