1rin_ligand
 OpenBabel08222323343D

 24 24  0  0  1  0  0  0  0  0999 V2000
   15.4930    5.7790   24.4630 C   0  0  1  0  0  0  0  0  0  0  0  0
   16.0590    5.3190   25.8110 C   0  0  2  0  0  0  0  0  0  0  0  0
   16.7680    6.4850   26.4760 C   0  0  2  0  0  0  0  0  0  0  0  0
   17.8410    6.9760   25.5660 C   0  0  1  0  0  0  0  0  0  0  0  0
   17.2340    7.3580   24.2370 C   0  0  1  0  0  0  0  0  0  0  0  0
   18.2780    7.8450   23.2640 C   0  0  0  0  0  0  0  0  0  0  0  0
   14.4730    6.7840   24.5860 O   0  0  0  0  0  0  0  0  0  0  0  0
   16.9320    4.1970   25.6540 O   0  0  0  0  0  0  0  0  0  0  0  0
   17.3040    6.1310   27.7390 O   0  0  0  0  0  0  0  0  0  0  0  0
   18.4430    8.0980   26.1450 O   0  0  0  0  0  0  0  0  0  0  0  0
   16.5800    6.2370   23.6650 O   0  0  0  0  0  0  0  0  0  0  0  0
   19.0670    6.8100   22.7520 O   0  0  0  0  0  0  0  0  0  0  0  0
   15.0392    4.9080   23.9677 H   0  0  0  0  0  0  0  0  0  0  0  0
   15.2210    5.0098   26.4530 H   0  0  0  0  0  0  0  0  0  0  0  0
   16.0386    7.2938   26.6299 H   0  0  0  0  0  0  0  0  0  0  0  0
   18.5924    6.1867   25.4161 H   0  0  0  0  0  0  0  0  0  0  0  0
   16.5004    8.1605   24.4040 H   0  0  0  0  0  0  0  0  0  0  0  0
   18.9321    8.5628   23.7806 H   0  0  0  0  0  0  0  0  0  0  0  0
   17.7711    8.3474   22.4270 H   0  0  0  0  0  0  0  0  0  0  0  0
   14.8413    7.5591   24.9935 H   0  0  0  0  0  0  0  0  0  0  0  0
   17.2406    3.9155   26.5073 H   0  0  0  0  0  0  0  0  0  0  0  0
   17.7155    6.8919   28.1317 H   0  0  0  0  0  0  0  0  0  0  0  0
   19.1236    8.4240   25.5679 H   0  0  0  0  0  0  0  0  0  0  0  0
   19.5164    6.3731   23.4659 H   0  0  0  0  0  0  0  0  0  0  0  0
  1  2  1  0  0  0  0
  1  7  1  0  0  0  0
  1 11  1  0  0  0  0
  1 13  1  6  0  0  0
  2  3  1  0  0  0  0
  2  8  1  0  0  0  0
  2 14  1  1  0  0  0
  3  4  1  0  0  0  0
  3  9  1  0  0  0  0
  3 15  1  1  0  0  0
  4  5  1  0  0  0  0
  4 10  1  0  0  0  0
  4 16  1  6  0  0  0
  5  6  1  0  0  0  0
  5 11  1  0  0  0  0
  5 17  1  1  0  0  0
  6 12  1  0  0  0  0
  6 18  1  0  0  0  0
  6 19  1  0  0  0  0
  7 20  1  0  0  0  0
  8 21  1  0  0  0  0
  9 22  1  0  0  0  0
 10 23  1  0  0  0  0
 12 24  1  0  0  0  0
M  END
