1riw_ligand
 OpenBabel08222323343D

 88 92  0  0  1  0  0  0  0  0999 V2000
   18.4050  -13.5480   21.8650 N   0  0  0  0  0  0  0  0  0  0  0  0
   19.4900  -14.3840   21.2580 C   0  0  2  0  0  0  0  0  0  0  0  0
   18.3810  -12.2470   21.1490 C   0  0  1  0  0  0  0  0  0  0  0  0
   17.5840  -13.9150   22.9060 C   0  0  0  0  0  0  0  0  0  0  0  0
   20.4930  -13.3190   20.7590 C   0  0  2  0  0  0  0  0  0  0  0  0
   18.9240  -15.3080   20.1270 C   0  0  0  0  0  0  0  0  0  0  0  0
   19.5200  -12.3060   20.1090 C   0  0  0  0  0  0  0  0  0  0  0  0
   17.0690  -12.0270   20.4460 C   0  0  0  0  0  0  0  0  0  0  0  0
   17.7360  -15.2770   23.5560 C   0  0  1  0  0  0  0  0  0  0  0  0
   16.7260  -13.1460   23.3220 O   0  0  0  0  0  0  0  0  0  0  0  0
   21.4710  -13.8360   19.6810 C   0  0  0  0  0  0  0  0  0  0  0  0
   20.0350  -15.9170   19.2430 C   0  0  1  0  0  0  0  0  0  0  0  0
   16.5950  -10.7680   20.2880 N   0  0  0  0  0  0  0  0  0  0  0  0
   16.4520  -12.9840   20.0210 O   0  0  0  0  0  0  0  0  0  0  0  0
   18.1880  -15.1470   25.0260 C   0  0  0  0  0  0  0  0  0  0  0  0
   16.4580  -15.9760   23.4660 N   0  0  0  0  0  0  0  0  0  0  0  0
   20.8400  -14.7580   18.5940 C   0  0  0  0  0  0  0  0  0  0  0  0
   20.9030  -16.7430   20.0270 O   0  0  0  0  0  0  0  0  0  0  0  0
   15.3240  -10.5270   19.5950 C   0  0  0  0  0  0  0  0  0  0  0  0
   19.6350  -14.6800   25.0880 C   0  0  0  0  0  0  0  0  0  0  0  0
   16.3590  -17.1460   22.7830 C   0  0  0  0  0  0  0  0  0  0  0  0
   14.4230   -9.6100   20.4410 C   0  0  0  0  0  0  0  0  0  0  0  0
   19.9470  -13.4180   25.6400 C   0  0  0  0  0  0  0  0  0  0  0  0
   20.6780  -15.5050   24.5880 C   0  0  0  0  0  0  0  0  0  0  0  0
   15.0270  -17.8340   22.6890 C   0  0  1  0  0  0  0  0  0  0  0  0
   17.3370  -17.6390   22.2380 O   0  0  0  0  0  0  0  0  0  0  0  0
   13.6670  -10.3860   21.5090 C   0  0  0  0  0  0  0  0  0  0  0  0
   21.2890  -12.9790   25.6940 C   0  0  0  0  0  0  0  0  0  0  0  0
   22.0160  -15.0640   24.6430 C   0  0  0  0  0  0  0  0  0  0  0  0
   14.9200  -18.9580   23.7300 C   0  0  0  0  0  0  0  0  0  0  0  0
   13.9840  -16.8740   22.8990 O   0  0  0  0  0  0  0  0  0  0  0  0
   13.1040   -9.7600   22.7550 C   0  0  0  0  0  0  0  0  0  0  0  0
   13.4000  -11.6670   21.4920 C   0  0  0  0  0  0  0  0  0  0  0  0
   22.3210  -13.8010   25.1950 C   0  0  0  0  0  0  0  0  0  0  0  0
   13.7510  -19.8490   23.3690 C   0  0  0  0  0  0  0  0  0  0  0  0
   12.2350  -10.7910   23.3500 N   0  0  0  0  0  0  0  0  0  0  0  0
   12.6320  -12.0660   22.7220 C   0  0  0  0  0  0  0  0  0  0  0  0
   13.9230  -20.9320   22.4740 C   0  0  0  0  0  0  0  0  0  0  0  0
   12.4830  -19.5950   23.9250 C   0  0  0  0  0  0  0  0  0  0  0  0
   11.2620  -10.6050   24.3040 C   0  0  0  0  0  3  0  0  0  0  0  0
   12.8230  -21.7550   22.1410 C   0  0  0  0  0  0  0  0  0  0  0  0
   11.3850  -20.4150   23.5930 C   0  0  0  0  0  0  0  0  0  0  0  0
   10.5890  -11.6870   24.8210 N   0  0  0  0  0  0  0  0  0  0  0  0
   10.9720   -9.4030   24.7190 N   0  0  0  0  0  0  0  0  0  0  0  0
   11.5540  -21.4920   22.7020 C   0  0  0  0  0  0  0  0  0  0  0  0
   19.9633  -15.0196   22.0209 H   0  0  0  0  0  0  0  0  0  0  0  0
   18.5543  -11.4252   21.8593 H   0  0  0  0  0  0  0  0  0  0  0  0
   21.0596  -12.8804   21.5936 H   0  0  0  0  0  0  0  0  0  0  0  0
   18.2533  -14.7133   19.4894 H   0  0  0  0  0  0  0  0  0  0  0  0
   18.3564  -16.1270   20.5928 H   0  0  0  0  0  0  0  0  0  0  0  0
   19.9946  -11.3222   19.9790 H   0  0  0  0  0  0  0  0  0  0  0  0
   19.1556  -12.6687   19.1366 H   0  0  0  0  0  0  0  0  0  0  0  0
   18.4973  -15.8510   23.0074 H   0  0  0  0  0  0  0  0  0  0  0  0
   22.2658  -14.4032   20.1875 H   0  0  0  0  0  0  0  0  0  0  0  0
   21.9092  -12.9639   19.1737 H   0  0  0  0  0  0  0  0  0  0  0  0
   19.5761  -16.5294   18.4529 H   0  0  0  0  0  0  0  0  0  0  0  0
   17.1168   -9.9943   20.6475 H   0  0  0  0  0  0  0  0  0  0  0  0
   18.0997  -16.1249   25.5218 H   0  0  0  0  0  0  0  0  0  0  0  0
   17.5472  -14.4158   25.5405 H   0  0  0  0  0  0  0  0  0  0  0  0
   15.6492  -15.5908   23.9104 H   0  0  0  0  0  0  0  0  0  0  0  0
   21.6425  -15.1819   17.9725 H   0  0  0  0  0  0  0  0  0  0  0  0
   20.1649  -14.1605   17.9638 H   0  0  0  0  0  0  0  0  0  0  0  0
   20.3998  -17.4474   20.4183 H   0  0  0  0  0  0  0  0  0  0  0  0
   14.8126  -11.4867   19.4297 H   0  0  0  0  0  0  0  0  0  0  0  0
   15.5239  -10.0463   18.6260 H   0  0  0  0  0  0  0  0  0  0  0  0
   13.6964   -9.1163   19.7790 H   0  0  0  0  0  0  0  0  0  0  0  0
   15.0491   -8.8494   20.9304 H   0  0  0  0  0  0  0  0  0  0  0  0
   19.1551  -12.7847   26.0232 H   0  0  0  0  0  0  0  0  0  0  0  0
   20.4447  -16.4748   24.1636 H   0  0  0  0  0  0  0  0  0  0  0  0
   14.9196  -18.2691   21.6844 H   0  0  0  0  0  0  0  0  0  0  0  0
   21.5255  -12.0102   26.1190 H   0  0  0  0  0  0  0  0  0  0  0  0
   22.8106  -15.6948   24.2614 H   0  0  0  0  0  0  0  0  0  0  0  0
   14.7591  -18.5236   24.7277 H   0  0  0  0  0  0  0  0  0  0  0  0
   15.8478  -19.5488   23.7326 H   0  0  0  0  0  0  0  0  0  0  0  0
   14.0567  -16.1824   22.2518 H   0  0  0  0  0  0  0  0  0  0  0  0
   13.2972   -8.7584   23.1364 H   0  0  0  0  0  0  0  0  0  0  0  0
   13.6936  -12.3503   20.6965 H   0  0  0  0  0  0  0  0  0  0  0  0
   23.3499  -13.4623   25.2355 H   0  0  0  0  0  0  0  0  0  0  0  0
   12.4163  -13.0743   23.0722 H   0  0  0  0  0  0  0  0  0  0  0  0
   14.8981  -21.1303   22.0440 H   0  0  0  0  0  0  0  0  0  0  0  0
   12.3502  -18.7661   24.6108 H   0  0  0  0  0  0  0  0  0  0  0  0
   12.9532  -22.5857   21.4569 H   0  0  0  0  0  0  0  0  0  0  0  0
   10.4104  -20.2161   24.0239 H   0  0  0  0  0  0  0  0  0  0  0  0
    9.8604  -11.5470   25.5355 H   0  0  0  0  0  0  0  0  0  0  0  0
   10.8135  -12.6375   24.4938 H   0  0  0  0  0  0  0  0  0  0  0  0
   11.4740   -8.5902   24.3340 H   0  0  0  0  0  0  0  0  0  0  0  0
   10.2410   -9.2666   25.4317 H   0  0  0  0  0  0  0  0  0  0  0  0
   10.7086  -22.1204   22.4462 H   0  0  0  0  0  0  0  0  0  0  0  0
  1  2  1  0  0  0  0
  1  3  1  0  0  0  0
  1  4  1  0  0  0  0
  2  5  1  0  0  0  0
  2  6  1  0  0  0  0
  2 46  1  1  0  0  0
  3  7  1  0  0  0  0
  3  8  1  0  0  0  0
  3 47  1  1  0  0  0
  4  9  1  0  0  0  0
  4 10  2  0  0  0  0
  5  7  1  0  0  0  0
  5 11  1  0  0  0  0
  5 48  1  1  0  0  0
  6 12  1  0  0  0  0
  6 49  1  0  0  0  0
  6 50  1  0  0  0  0
  7 51  1  0  0  0  0
  7 52  1  0  0  0  0
  8 13  1  0  0  0  0
  8 14  2  0  0  0  0
  9 15  1  0  0  0  0
  9 16  1  0  0  0  0
  9 53  1  6  0  0  0
 11 17  1  0  0  0  0
 11 54  1  0  0  0  0
 11 55  1  0  0  0  0
 12 17  1  0  0  0  0
 12 18  1  0  0  0  0
 12 56  1  6  0  0  0
 13 19  1  0  0  0  0
 13 57  1  0  0  0  0
 15 20  1  0  0  0  0
 15 58  1  0  0  0  0
 15 59  1  0  0  0  0
 16 21  1  0  0  0  0
 16 60  1  0  0  0  0
 17 61  1  0  0  0  0
 17 62  1  0  0  0  0
 18 63  1  0  0  0  0
 19 22  1  0  0  0  0
 19 64  1  0  0  0  0
 19 65  1  0  0  0  0
 20 23  2  0  0  0  0
 20 24  1  0  0  0  0
 21 25  1  0  0  0  0
 21 26  2  0  0  0  0
 22 27  1  0  0  0  0
 22 66  1  0  0  0  0
 22 67  1  0  0  0  0
 23 28  1  0  0  0  0
 23 68  1  0  0  0  0
 24 29  2  0  0  0  0
 24 69  1  0  0  0  0
 25 30  1  0  0  0  0
 25 31  1  0  0  0  0
 25 70  1  6  0  0  0
 27 32  2  0  0  0  0
 27 33  1  0  0  0  0
 28 34  2  0  0  0  0
 28 71  1  0  0  0  0
 29 34  1  0  0  0  0
 29 72  1  0  0  0  0
 30 35  1  0  0  0  0
 30 73  1  0  0  0  0
 30 74  1  0  0  0  0
 31 75  1  0  0  0  0
 32 36  1  0  0  0  0
 32 76  1  0  0  0  0
 33 37  2  0  0  0  0
 33 77  1  0  0  0  0
 34 78  1  0  0  0  0
 35 38  2  0  0  0  0
 35 39  1  0  0  0  0
 36 37  1  0  0  0  0
 36 40  1  0  0  0  0
 37 79  1  0  0  0  0
 38 41  1  0  0  0  0
 38 80  1  0  0  0  0
 39 42  2  0  0  0  0
 39 81  1  0  0  0  0
 40 43  1  0  0  0  0
 40 44  1  0  0  0  0
 41 45  2  0  0  0  0
 41 82  1  0  0  0  0
 42 45  1  0  0  0  0
 42 83  1  0  0  0  0
 43 84  1  0  0  0  0
 43 85  1  0  0  0  0
 44 86  1  0  0  0  0
 44 87  1  0  0  0  0
 45 88  1  0  0  0  0
M  END
