1rq2_ligand
 OpenBabel08222323343D

 18 17  0  0  0  0  0  0  0  0999 V2000
  -10.6580   41.9950    4.6430 C   0  0  0  0  0  0  0  0  0  0  0  0
  -11.3460   41.0660    5.1250 O   0  5  0  0  0  0  0  0  0  0  0  0
  -10.5770   43.0840    5.2650 O   0  0  0  0  0  0  0  0  0  0  0  0
   -9.9550   41.7830    3.3270 C   0  0  0  0  0  0  0  0  0  0  0  0
   -8.4460   41.5450    3.4900 C   0  0  0  0  0  0  0  0  0  0  0  0
   -7.8450   42.6840    4.1630 O   0  0  0  0  0  0  0  0  0  0  0  0
   -8.2180   40.2660    4.3010 C   0  0  0  0  0  0  0  0  0  0  0  0
   -6.7650   40.0060    4.5800 C   0  0  0  0  0  0  0  0  0  0  0  0
   -6.4660   39.4410    5.6710 O   0  5  0  0  0  0  0  0  0  0  0  0
   -5.8950   40.3140    3.7340 O   0  0  0  0  0  0  0  0  0  0  0  0
   -7.8990   41.4360    2.0670 C   0  0  0  0  0  0  0  0  0  0  0  0
   -8.0450   40.3900    1.4040 O   0  5  0  0  0  0  0  0  0  0  0  0
   -7.3290   42.4020    1.5090 O   0  0  0  0  0  0  0  0  0  0  0  0
  -10.1045   42.6750    2.7009 H   0  0  0  0  0  0  0  0  0  0  0  0
  -10.3972   40.9073    2.8293 H   0  0  0  0  0  0  0  0  0  0  0  0
   -7.9882   43.4678    3.6457 H   0  0  0  0  0  0  0  0  0  0  0  0
   -8.6255   39.4144    3.7365 H   0  0  0  0  0  0  0  0  0  0  0  0
   -8.7491   40.3582    5.2599 H   0  0  0  0  0  0  0  0  0  0  0  0
  1  2  1  0  0  0  0
  1  3  2  0  0  0  0
  1  4  1  0  0  0  0
  4  5  1  0  0  0  0
  4 14  1  0  0  0  0
  4 15  1  0  0  0  0
  5  6  1  0  0  0  0
  5  7  1  0  0  0  0
  5 11  1  0  0  0  0
  6 16  1  0  0  0  0
  7  8  1  0  0  0  0
  7 17  1  0  0  0  0
  7 18  1  0  0  0  0
  8  9  1  0  0  0  0
  8 10  2  0  0  0  0
 11 12  1  0  0  0  0
 11 13  2  0  0  0  0
M  CHG  3   2  -1   9  -1  12  -1
M  END
