1rsi_ligand
 OpenBabel08222323343D

 23 24  0  0  0  0  0  0  0  0999 V2000
   47.8010   44.9010   78.9940 N   0  0  0  0  0  0  0  0  0  0  0  0
   47.8660   45.6470   77.8720 C   0  0  0  0  0  0  0  0  0  0  0  0
   48.9410   45.5550   77.0970 N   0  0  0  0  0  0  0  0  0  0  0  0
   49.0550   46.3020   75.9260 C   0  0  0  0  0  0  0  0  0  0  0  0
   48.0250   47.1780   75.5140 C   0  0  0  0  0  0  0  0  0  0  0  0
   48.1460   48.2120   73.8810 Br  0  0  0  0  0  0  0  0  0  0  0  0
   46.8040   47.2640   76.4030 C   0  0  0  0  0  0  0  0  0  0  0  0
   45.8350   48.0110   76.1340 O   0  0  0  0  0  0  0  0  0  0  0  0
   46.8000   46.4920   77.5330 N   0  0  0  0  0  0  0  0  0  0  0  0
   50.2730   46.1180   75.1110 C   0  0  0  0  0  0  0  0  0  0  0  0
   51.2510   47.1380   75.0150 C   0  0  0  0  0  0  0  0  0  0  0  0
   52.3990   46.9520   74.2010 C   0  0  0  0  0  0  0  0  0  0  0  0
   52.5650   45.7410   73.4750 C   0  0  0  0  0  0  0  0  0  0  0  0
   51.5910   44.7120   73.5740 C   0  0  0  0  0  0  0  0  0  0  0  0
   50.4480   44.8940   74.3850 C   0  0  0  0  0  0  0  0  0  0  0  0
   48.5829   44.2794   79.2452 H   0  0  0  0  0  0  0  0  0  0  0  0
   46.9694   44.9530   79.5995 H   0  0  0  0  0  0  0  0  0  0  0  0
   46.0064   46.5322   78.1401 H   0  0  0  0  0  0  0  0  0  0  0  0
   51.1225   48.0634   75.5647 H   0  0  0  0  0  0  0  0  0  0  0  0
   53.1482   47.7325   74.1330 H   0  0  0  0  0  0  0  0  0  0  0  0
   53.4362   45.6028   72.8450 H   0  0  0  0  0  0  0  0  0  0  0  0
   51.7245   43.7858   73.0268 H   0  0  0  0  0  0  0  0  0  0  0  0
   49.7042   44.1089   74.4581 H   0  0  0  0  0  0  0  0  0  0  0  0
  1  2  1  0  0  0  0
  1 16  1  0  0  0  0
  1 17  1  0  0  0  0
  2  3  2  0  0  0  0
  2  9  1  0  0  0  0
  3  4  1  0  0  0  0
  4  5  2  0  0  0  0
  4 10  1  0  0  0  0
  5  6  1  0  0  0  0
  5  7  1  0  0  0  0
  7  8  2  0  0  0  0
  7  9  1  0  0  0  0
  9 18  1  0  0  0  0
 10 11  2  0  0  0  0
 10 15  1  0  0  0  0
 11 12  1  0  0  0  0
 11 19  1  0  0  0  0
 12 13  2  0  0  0  0
 12 20  1  0  0  0  0
 13 14  1  0  0  0  0
 13 21  1  0  0  0  0
 14 15  2  0  0  0  0
 14 22  1  0  0  0  0
 15 23  1  0  0  0  0
M  END
