1rti_ligand
 OpenBabel08222323343D

 37 38  0  0  0  0  0  0  0  0999 V2000
   -2.8330  -34.6540   23.8230 N   0  0  0  0  0  0  0  0  0  0  0  0
   -2.6900  -34.8940   22.4570 C   0  0  0  0  0  0  0  0  0  0  0  0
   -3.3270  -34.2730   21.6050 O   0  0  0  0  0  0  0  0  0  0  0  0
   -1.7770  -35.8800   22.1120 N   0  0  0  0  0  0  0  0  0  0  0  0
   -1.0110  -36.6310   22.9960 C   0  0  0  0  0  0  0  0  0  0  0  0
   -0.2350  -37.4840   22.5690 O   0  0  0  0  0  0  0  0  0  0  0  0
   -1.2230  -36.3100   24.4010 C   0  0  0  0  0  0  0  0  0  0  0  0
   -2.1080  -35.3500   24.7600 C   0  0  0  0  0  0  0  0  0  0  0  0
   -0.4640  -37.0920   25.4750 C   0  0  0  0  0  0  0  0  0  0  0  0
   -3.8170  -33.6410   24.2480 C   0  0  0  0  0  0  0  0  0  0  0  0
   -5.1570  -34.0970   24.0420 O   0  0  0  0  0  0  0  0  0  0  0  0
   -6.0100  -33.7270   25.1320 C   0  0  0  0  0  0  0  0  0  0  0  0
   -7.4820  -33.9480   24.7960 C   0  0  0  0  0  0  0  0  0  0  0  0
   -7.6900  -35.1870   24.1380 O   0  0  0  0  0  0  0  0  0  0  0  0
   -2.3540  -34.9350   26.5170 S   0  0  0  0  0  0  0  0  0  0  0  0
   -0.8930  -33.9680   27.0150 C   0  0  0  0  0  0  0  0  0  0  0  0
   -0.7480  -33.5680   28.3380 C   0  0  0  0  0  0  0  0  0  0  0  0
    0.3860  -32.8690   28.7370 C   0  0  0  0  0  0  0  0  0  0  0  0
    1.3790  -32.5660   27.8110 C   0  0  0  0  0  0  0  0  0  0  0  0
    1.2360  -32.9650   26.4880 C   0  0  0  0  0  0  0  0  0  0  0  0
    0.0980  -33.6650   26.0900 C   0  0  0  0  0  0  0  0  0  0  0  0
   -1.6590  -36.0679   21.1369 H   0  0  0  0  0  0  0  0  0  0  0  0
    0.2034  -37.8222   24.9940 H   0  0  0  0  0  0  0  0  0  0  0  0
   -1.1816  -37.6204   26.1198 H   0  0  0  0  0  0  0  0  0  0  0  0
    0.1320  -36.3957   26.0832 H   0  0  0  0  0  0  0  0  0  0  0  0
   -3.6584  -32.7214   23.6657 H   0  0  0  0  0  0  0  0  0  0  0  0
   -3.6720  -33.4275   25.3173 H   0  0  0  0  0  0  0  0  0  0  0  0
   -5.8528  -32.6630   25.3626 H   0  0  0  0  0  0  0  0  0  0  0  0
   -5.7497  -34.3351   26.0109 H   0  0  0  0  0  0  0  0  0  0  0  0
   -7.8239  -33.1342   24.1397 H   0  0  0  0  0  0  0  0  0  0  0  0
   -8.0659  -33.9371   25.7282 H   0  0  0  0  0  0  0  0  0  0  0  0
   -7.1926  -35.2019   23.3287 H   0  0  0  0  0  0  0  0  0  0  0  0
   -1.5211  -33.8016   29.0610 H   0  0  0  0  0  0  0  0  0  0  0  0
    0.4963  -32.5600   29.7702 H   0  0  0  0  0  0  0  0  0  0  0  0
    2.2625  -32.0197   28.1211 H   0  0  0  0  0  0  0  0  0  0  0  0
    2.0094  -32.7320   25.7651 H   0  0  0  0  0  0  0  0  0  0  0  0
   -0.0137  -33.9734   25.0568 H   0  0  0  0  0  0  0  0  0  0  0  0
  1  2  1  0  0  0  0
  1  8  1  0  0  0  0
  1 10  1  0  0  0  0
  2  3  2  0  0  0  0
  2  4  1  0  0  0  0
  4  5  1  0  0  0  0
  4 22  1  0  0  0  0
  5  6  2  0  0  0  0
  5  7  1  0  0  0  0
  7  8  2  0  0  0  0
  7  9  1  0  0  0  0
  8 15  1  0  0  0  0
  9 23  1  0  0  0  0
  9 24  1  0  0  0  0
  9 25  1  0  0  0  0
 10 11  1  0  0  0  0
 10 26  1  0  0  0  0
 10 27  1  0  0  0  0
 11 12  1  0  0  0  0
 12 13  1  0  0  0  0
 12 28  1  0  0  0  0
 12 29  1  0  0  0  0
 13 14  1  0  0  0  0
 13 30  1  0  0  0  0
 13 31  1  0  0  0  0
 14 32  1  0  0  0  0
 15 16  1  0  0  0  0
 16 17  2  0  0  0  0
 16 21  1  0  0  0  0
 17 18  1  0  0  0  0
 17 33  1  0  0  0  0
 18 19  2  0  0  0  0
 18 34  1  0  0  0  0
 19 20  1  0  0  0  0
 19 35  1  0  0  0  0
 20 21  2  0  0  0  0
 20 36  1  0  0  0  0
 21 37  1  0  0  0  0
M  END
