1rwq_ligand
 OpenBabel08222323343D

 46 48  0  0  0  0  0  0  0  0999 V2000
   49.7120   53.4030   37.3160 Cl  0  0  0  0  0  0  0  0  0  0  0  0
   49.0030   51.8890   37.7150 C   0  0  0  0  0  0  0  0  0  0  0  0
   48.9580   51.4980   38.9990 C   0  0  0  0  0  0  0  0  0  0  0  0
   48.4020   50.2830   39.1680 C   0  0  0  0  0  0  0  0  0  0  0  0
   48.2710   49.6890   40.7980 Cl  0  0  0  0  0  0  0  0  0  0  0  0
   47.8940   49.5360   38.1530 C   0  0  0  0  0  0  0  0  0  0  0  0
   47.9610   49.9740   36.8460 C   0  0  0  0  0  0  0  0  0  0  0  0
   48.5410   51.1900   36.6580 C   0  0  0  0  0  0  0  0  0  0  0  0
   48.6760   51.7490   35.3720 C   0  0  0  0  0  0  0  0  0  0  0  0
   47.7750   52.8440   34.9850 C   0  0  0  0  0  0  0  0  0  0  0  0
   46.6030   53.1770   35.7970 C   0  0  0  0  0  0  0  0  0  0  0  0
   46.7590   53.9680   36.8430 N   0  3  0  0  0  0  0  0  0  0  0  0
   48.1050   53.5440   33.7510 C   0  0  0  0  0  0  0  0  0  0  0  0
   47.3510   54.5960   33.3240 N   0  0  0  0  0  0  0  0  0  0  0  0
   49.7210   51.4440   34.6400 N   0  0  0  0  0  0  0  0  0  0  0  0
   49.9730   52.1070   33.5250 C   0  0  0  0  0  0  0  0  0  0  0  0
   49.1880   53.1040   33.0970 N   0  0  0  0  0  0  0  0  0  0  0  0
   51.1550   51.6750   32.7300 C   0  0  0  0  0  0  0  0  0  0  0  0
   51.9650   50.6280   33.0980 C   0  0  0  0  0  0  0  0  0  0  0  0
   53.0750   50.2850   32.2980 C   0  0  0  0  0  0  0  0  0  0  0  0
   53.8770   49.2440   32.6210 O   0  0  0  0  0  0  0  0  0  0  0  0
   53.4690   48.3310   33.6290 C   0  0  0  0  0  0  0  0  0  0  0  0
   53.3930   50.9660   31.1500 C   0  0  0  0  0  0  0  0  0  0  0  0
   52.5550   52.0000   30.7970 C   0  0  0  0  0  0  0  0  0  0  0  0
   51.4710   52.3630   31.5880 C   0  0  0  0  0  0  0  0  0  0  0  0
   52.8140   52.7630   29.7000 O   0  0  0  0  0  0  0  0  0  0  0  0
   53.6810   53.8530   29.9870 C   0  0  0  0  0  0  0  0  0  0  0  0
   49.3323   52.1008   39.8185 H   0  0  0  0  0  0  0  0  0  0  0  0
   47.4292   48.5818   38.3732 H   0  0  0  0  0  0  0  0  0  0  0  0
   47.5756   49.3859   36.0210 H   0  0  0  0  0  0  0  0  0  0  0  0
   46.1862   52.2289   36.1677 H   0  0  0  0  0  0  0  0  0  0  0  0
   45.8747   53.6620   35.1304 H   0  0  0  0  0  0  0  0  0  0  0  0
   45.8695   54.1035   37.2974 H   0  0  0  0  0  0  0  0  0  0  0  0
   47.1205   54.8587   36.5398 H   0  0  0  0  0  0  0  0  0  0  0  0
   47.4060   53.5455   37.4903 H   0  0  0  0  0  0  0  0  0  0  0  0
   47.5946   55.0829   32.4496 H   0  0  0  0  0  0  0  0  0  0  0  0
   46.5376   54.9041   33.8757 H   0  0  0  0  0  0  0  0  0  0  0  0
   51.7516   50.0670   34.0007 H   0  0  0  0  0  0  0  0  0  0  0  0
   54.2397   47.5565   33.7559 H   0  0  0  0  0  0  0  0  0  0  0  0
   52.5201   47.8592   33.3341 H   0  0  0  0  0  0  0  0  0  0  0  0
   53.3312   48.8700   34.5779 H   0  0  0  0  0  0  0  0  0  0  0  0
   54.2585   50.7037   30.5523 H   0  0  0  0  0  0  0  0  0  0  0  0
   50.8616   53.2101   31.2945 H   0  0  0  0  0  0  0  0  0  0  0  0
   53.8560   54.4338   29.0693 H   0  0  0  0  0  0  0  0  0  0  0  0
   54.6395   53.4691   30.3663 H   0  0  0  0  0  0  0  0  0  0  0  0
   53.2182   54.4993   30.7473 H   0  0  0  0  0  0  0  0  0  0  0  0
  1  2  1  0  0  0  0
  2  3  2  0  0  0  0
  2  8  1  0  0  0  0
  3  4  1  0  0  0  0
  3 28  1  0  0  0  0
  4  5  1  0  0  0  0
  4  6  2  0  0  0  0
  6  7  1  0  0  0  0
  6 29  1  0  0  0  0
  7  8  2  0  0  0  0
  7 30  1  0  0  0  0
  8  9  1  0  0  0  0
  9 10  2  0  0  0  0
  9 15  1  0  0  0  0
 10 11  1  0  0  0  0
 10 13  1  0  0  0  0
 11 12  1  0  0  0  0
 11 31  1  0  0  0  0
 11 32  1  0  0  0  0
 12 33  1  0  0  0  0
 12 34  1  0  0  0  0
 12 35  1  0  0  0  0
 13 14  1  0  0  0  0
 13 17  2  0  0  0  0
 14 36  1  0  0  0  0
 14 37  1  0  0  0  0
 15 16  2  0  0  0  0
 16 17  1  0  0  0  0
 16 18  1  0  0  0  0
 18 19  2  0  0  0  0
 18 25  1  0  0  0  0
 19 20  1  0  0  0  0
 19 38  1  0  0  0  0
 20 21  1  0  0  0  0
 20 23  2  0  0  0  0
 21 22  1  0  0  0  0
 22 39  1  0  0  0  0
 22 40  1  0  0  0  0
 22 41  1  0  0  0  0
 23 24  1  0  0  0  0
 23 42  1  0  0  0  0
 24 25  2  0  0  0  0
 24 26  1  0  0  0  0
 25 43  1  0  0  0  0
 26 27  1  0  0  0  0
 27 44  1  0  0  0  0
 27 45  1  0  0  0  0
 27 46  1  0  0  0  0
M  CHG  1  12   1
M  END
