1rxp_ligand
 OpenBabel08222323343D

 63 63  0  0  1  0  0  0  0  0999 V2000
   -0.0580   21.7020   30.4130 C   0  0  0  0  0  0  0  0  0  0  0  0
    0.7520   21.4590   29.1230 C   0  0  0  0  0  0  0  0  0  0  0  0
    1.3380   22.8030   28.6460 C   0  0  0  0  0  0  0  0  0  0  0  0
    1.9140   20.4920   29.4290 C   0  0  0  0  0  0  0  0  0  0  0  0
   -0.7800   18.7820   27.1110 N   0  0  0  0  0  0  0  0  0  0  0  0
   -1.9520   18.5330   26.1750 C   0  0  0  0  0  0  0  0  0  0  0  0
   -1.7320   19.3560   24.8910 C   0  0  0  0  0  0  0  0  0  0  0  0
    0.6210   18.5060   26.5600 C   0  0  0  0  0  0  0  0  0  0  0  0
    0.8190   19.2190   25.2040 C   0  0  0  0  0  0  0  0  0  0  0  0
   -0.3200   17.8640   23.3350 C   0  0  0  0  0  0  0  0  0  0  0  0
    0.3170   16.8710   23.5740 O   0  0  0  0  0  0  0  0  0  0  0  0
   -0.3900   18.9840   24.3160 N   0  0  0  0  0  0  0  0  0  0  0  0
   -1.1460   16.1930   20.4830 C   0  0  1  0  0  0  0  0  0  0  0  0
   -0.9680   15.1650   21.5720 C   0  0  0  0  0  0  0  0  0  0  0  0
   -1.0250   18.0520   22.1610 N   0  0  0  0  0  0  0  0  0  0  0  0
   -0.4520   17.5140   20.9210 C   0  0  2  0  0  0  0  0  0  0  0  0
   -1.8680   14.8670   22.3280 O   0  0  0  0  0  0  0  0  0  0  0  0
   -0.6830   15.5500   19.1450 C   0  0  0  0  0  0  0  0  0  0  0  0
   -1.2950   14.1690   18.7860 C   0  0  0  0  0  0  0  0  0  0  0  0
   -0.9520   13.6370   17.3850 C   0  0  0  0  0  0  0  0  0  0  0  0
   -1.8020   14.1970   16.3760 N   0  0  0  0  0  0  0  0  0  0  0  0
   -2.0120   13.5910   15.2660 C   0  0  0  0  0  3  0  0  0  0  0  0
   -2.6570   14.1180   14.1700 N   0  0  0  0  0  0  0  0  0  0  0  0
   -1.6300   12.2950   14.9500 N   0  0  0  0  0  0  0  0  0  0  0  0
   -0.6400   18.5270   19.8500 C   0  0  0  0  0  0  0  0  0  0  0  0
   -1.6830   19.0990   19.6510 O   0  5  0  0  0  0  0  0  0  0  0  0
    0.4570   18.7500   19.0970 O   0  0  0  0  0  0  0  0  0  0  0  0
   -0.9530   19.8050   28.2040 C   0  0  0  0  0  0  0  0  0  0  0  0
   -1.7580   19.6610   29.0960 O   0  0  0  0  0  0  0  0  0  0  0  0
   -0.1210   20.8820   28.0640 N   0  0  0  0  0  0  0  0  0  0  0  0
    0.6003   22.1278   31.1845 H   0  0  0  0  0  0  0  0  0  0  0  0
   -0.4728   20.7481   30.7707 H   0  0  0  0  0  0  0  0  0  0  0  0
   -0.8791   22.4034   30.2038 H   0  0  0  0  0  0  0  0  0  0  0  0
    1.9188   22.6437   27.7255 H   0  0  0  0  0  0  0  0  0  0  0  0
    1.9942   23.2147   29.4269 H   0  0  0  0  0  0  0  0  0  0  0  0
    0.5191   23.5094   28.4452 H   0  0  0  0  0  0  0  0  0  0  0  0
    1.5086   19.5282   29.7707 H   0  0  0  0  0  0  0  0  0  0  0  0
    2.5510   20.9216   30.2162 H   0  0  0  0  0  0  0  0  0  0  0  0
    2.5111   20.3364   28.5184 H   0  0  0  0  0  0  0  0  0  0  0  0
   -2.8882   18.8454   26.6606 H   0  0  0  0  0  0  0  0  0  0  0  0
   -2.0075   17.4631   25.9256 H   0  0  0  0  0  0  0  0  0  0  0  0
   -1.7499   20.4297   25.1295 H   0  0  0  0  0  0  0  0  0  0  0  0
   -2.5247   19.1288   24.1629 H   0  0  0  0  0  0  0  0  0  0  0  0
    0.7484   17.4223   26.4211 H   0  0  0  0  0  0  0  0  0  0  0  0
    1.3706   18.8746   27.2757 H   0  0  0  0  0  0  0  0  0  0  0  0
    1.7174   18.8206   24.7100 H   0  0  0  0  0  0  0  0  0  0  0  0
    0.9424   20.2987   25.3741 H   0  0  0  0  0  0  0  0  0  0  0  0
   -2.2181   16.4162   20.3790 H   0  0  0  0  0  0  0  0  0  0  0  0
   -0.0016   14.6753   21.6828 H   0  0  0  0  0  0  0  0  0  0  0  0
   -1.8982   18.5393   22.1564 H   0  0  0  0  0  0  0  0  0  0  0  0
    0.6209   17.3236   21.0713 H   0  0  0  0  0  0  0  0  0  0  0  0
    0.4091   15.4278   19.1943 H   0  0  0  0  0  0  0  0  0  0  0  0
   -0.9376   16.2482   18.3341 H   0  0  0  0  0  0  0  0  0  0  0  0
   -2.3893   14.2544   18.8575 H   0  0  0  0  0  0  0  0  0  0  0  0
   -0.9353   13.4368   19.5239 H   0  0  0  0  0  0  0  0  0  0  0  0
   -1.0695   12.5433   17.3816 H   0  0  0  0  0  0  0  0  0  0  0  0
    0.0920   13.8943   17.1530 H   0  0  0  0  0  0  0  0  0  0  0  0
   -2.2542   15.1066   16.5465 H   0  0  0  0  0  0  0  0  0  0  0  0
   -2.7769   13.5488   13.3200 H   0  0  0  0  0  0  0  0  0  0  0  0
   -3.0197   15.0816   14.1999 H   0  0  0  0  0  0  0  0  0  0  0  0
   -1.1280   11.7224   15.6436 H   0  0  0  0  0  0  0  0  0  0  0  0
   -1.8484   11.9055   14.0218 H   0  0  0  0  0  0  0  0  0  0  0  0
   -0.0970   21.3228   27.1667 H   0  0  0  0  0  0  0  0  0  0  0  0
  1 31  1  0  0  0  0
  1 32  1  0  0  0  0
  1 33  1  0  0  0  0
  2  1  1  0  0  0  0
  2  3  1  0  0  0  0
  2  4  1  0  0  0  0
  3 34  1  0  0  0  0
  3 35  1  0  0  0  0
  3 36  1  0  0  0  0
  4 37  1  0  0  0  0
  4 38  1  0  0  0  0
  4 39  1  0  0  0  0
  5  6  1  0  0  0  0
  5  8  1  0  0  0  0
  6  7  1  0  0  0  0
  6 40  1  0  0  0  0
  6 41  1  0  0  0  0
  7 12  1  0  0  0  0
  7 42  1  0  0  0  0
  7 43  1  0  0  0  0
  8  9  1  0  0  0  0
  8 44  1  0  0  0  0
  8 45  1  0  0  0  0
  9 12  1  0  0  0  0
  9 46  1  0  0  0  0
  9 47  1  0  0  0  0
 10 11  2  0  0  0  0
 10 15  1  0  0  0  0
 12 10  1  0  0  0  0
 13 14  1  0  0  0  0
 13 18  1  0  0  0  0
 13 48  1  6  0  0  0
 14 17  2  0  0  0  0
 14 49  1  0  0  0  0
 15 16  1  0  0  0  0
 15 50  1  0  0  0  0
 16 13  1  0  0  0  0
 16 25  1  0  0  0  0
 16 51  1  1  0  0  0
 18 19  1  0  0  0  0
 18 52  1  0  0  0  0
 18 53  1  0  0  0  0
 19 20  1  0  0  0  0
 19 54  1  0  0  0  0
 19 55  1  0  0  0  0
 20 21  1  0  0  0  0
 20 56  1  0  0  0  0
 20 57  1  0  0  0  0
 21 22  1  0  0  0  0
 21 58  1  0  0  0  0
 22 23  1  0  0  0  0
 22 24  1  0  0  0  0
 23 59  1  0  0  0  0
 23 60  1  0  0  0  0
 24 61  1  0  0  0  0
 24 62  1  0  0  0  0
 25 26  1  0  0  0  0
 25 27  2  0  0  0  0
 28  5  1  0  0  0  0
 28 29  2  0  0  0  0
 28 30  1  0  0  0  0
 30  2  1  0  0  0  0
 30 63  1  0  0  0  0
M  CHG  1  26  -1
M  END
