1s17_ligand
 OpenBabel08222323343D

 26 27  0  0  1  0  0  0  0  0999 V2000
   56.2630   52.2270   37.8260 O   0  0  0  0  0  0  0  0  0  0  0  0
   56.1400   51.3030   37.0290 C   0  0  0  0  0  0  0  0  0  0  0  0
   57.1640   50.9900   36.1660 N   0  0  0  0  0  0  0  0  0  0  0  0
   57.1510   50.0330   35.1640 C   0  0  0  0  0  0  0  0  0  0  0  0
   58.3470   49.7510   34.4790 C   0  0  0  0  0  0  0  0  0  0  0  0
   58.3850   48.7380   33.5020 C   0  0  0  0  0  0  0  0  0  0  0  0
   57.2300   47.9950   33.2020 C   0  0  0  0  0  0  0  0  0  0  0  0
   56.0280   48.2600   33.8790 C   0  0  0  0  0  0  0  0  0  0  0  0
   55.9940   49.2710   34.8450 C   0  0  0  0  0  0  0  0  0  0  0  0
   54.4320   49.7140   35.6280 S   0  0  0  0  0  0  0  0  0  0  0  0
   55.0030   50.2990   37.2470 C   0  0  2  0  0  0  0  0  0  0  0  0
   53.8700   50.8890   38.0840 C   0  0  0  0  0  0  0  0  0  0  0  0
   52.9440   49.7290   38.5140 C   0  0  0  0  0  0  0  0  0  0  0  0
   53.2490   48.9950   39.4450 O   0  0  0  0  0  0  0  0  0  0  0  0
   51.8630   49.5530   37.7590 N   0  0  0  0  0  0  0  0  0  0  0  0
   50.9930   48.5650   38.0470 O   0  0  0  0  0  0  0  0  0  0  0  0
   58.0112   51.5103   36.2734 H   0  0  0  0  0  0  0  0  0  0  0  0
   59.2439   50.3165   34.7046 H   0  0  0  0  0  0  0  0  0  0  0  0
   59.3107   48.5297   32.9778 H   0  0  0  0  0  0  0  0  0  0  0  0
   57.2669   47.2172   32.4479 H   0  0  0  0  0  0  0  0  0  0  0  0
   55.1357   47.6867   33.6550 H   0  0  0  0  0  0  0  0  0  0  0  0
   55.4067   49.4376   37.7993 H   0  0  0  0  0  0  0  0  0  0  0  0
   53.3033   51.6175   37.4855 H   0  0  0  0  0  0  0  0  0  0  0  0
   54.2827   51.3872   38.9736 H   0  0  0  0  0  0  0  0  0  0  0  0
   51.6959   50.1541   36.9775 H   0  0  0  0  0  0  0  0  0  0  0  0
   50.2826   48.5764   37.4164 H   0  0  0  0  0  0  0  0  0  0  0  0
  1  2  2  0  0  0  0
  2  3  1  0  0  0  0
  2 11  1  0  0  0  0
  3  4  1  0  0  0  0
  3 17  1  0  0  0  0
  4  5  2  0  0  0  0
  4  9  1  0  0  0  0
  5  6  1  0  0  0  0
  5 18  1  0  0  0  0
  6  7  2  0  0  0  0
  6 19  1  0  0  0  0
  7  8  1  0  0  0  0
  7 20  1  0  0  0  0
  8  9  2  0  0  0  0
  8 21  1  0  0  0  0
  9 10  1  0  0  0  0
 10 11  1  0  0  0  0
 11 12  1  0  0  0  0
 11 22  1  1  0  0  0
 12 13  1  0  0  0  0
 12 23  1  0  0  0  0
 12 24  1  0  0  0  0
 13 14  2  0  0  0  0
 13 15  1  0  0  0  0
 15 16  1  0  0  0  0
 15 25  1  0  0  0  0
 16 26  1  0  0  0  0
M  END
