1s3k_ligand
 OpenBabel08222323343D

 91 94  0  0  1  0  0  0  0  0999 V2000
  -36.5030   46.2510   15.6590 C   0  0  1  0  0  0  0  0  0  0  0  0
  -37.5680   47.2350   16.1480 C   0  0  2  0  0  0  0  0  0  0  0  0
  -38.6740   46.4810   16.8880 C   0  0  1  0  0  0  0  0  0  0  0  0
  -38.0680   45.6660   18.0300 C   0  0  1  0  0  0  0  0  0  0  0  0
  -37.0060   44.7220   17.4690 C   0  0  2  0  0  0  0  0  0  0  0  0
  -36.2940   43.9450   18.5580 C   0  0  0  0  0  0  0  0  0  0  0  0
  -38.1210   47.9380   15.0460 O   0  0  0  0  0  0  0  0  0  0  0  0
  -39.6240   47.4030   17.4030 O   0  0  0  0  0  0  0  0  0  0  0  0
  -37.4680   46.5450   18.9770 O   0  0  0  0  0  0  0  0  0  0  0  0
  -36.0010   45.4840   16.7550 O   0  0  0  0  0  0  0  0  0  0  0  0
  -36.4530   43.3880   13.4410 C   0  0  1  0  0  0  0  0  0  0  0  0
  -36.0460   44.8300   13.7850 C   0  0  1  0  0  0  0  0  0  0  0  0
  -35.9170   45.6280   12.4880 C   0  0  2  0  0  0  0  0  0  0  0  0
  -34.8730   44.9570   11.5950 C   0  0  2  0  0  0  0  0  0  0  0  0
  -35.3180   43.5150   11.3250 C   0  0  1  0  0  0  0  0  0  0  0  0
  -34.3480   42.7310   10.4540 C   0  0  0  0  0  0  0  0  0  0  0  0
  -37.0280   45.4430   14.6390 O   0  0  0  0  0  0  0  0  0  0  0  0
  -35.5420   46.9710   12.7630 O   0  0  0  0  0  0  0  0  0  0  0  0
  -33.6170   44.9550   12.2620 O   0  0  0  0  0  0  0  0  0  0  0  0
  -35.4620   42.7980   12.5720 O   0  0  0  0  0  0  0  0  0  0  0  0
  -33.0300   42.7620   10.9820 O   0  0  0  0  0  0  0  0  0  0  0  0
  -38.8550   39.2100   15.5750 C   0  0  2  0  0  0  0  0  0  0  0  0
  -37.4000   38.9760   15.1180 C   0  0  1  0  0  0  0  0  0  0  0  0
  -36.5700   40.2590   15.2520 C   0  0  2  0  0  0  0  0  0  0  0  0
  -37.2740   41.3850   14.4910 C   0  0  1  0  0  0  0  0  0  0  0  0
  -38.6940   41.5550   15.0590 C   0  0  1  0  0  0  0  0  0  0  0  0
  -39.4790   42.6460   14.3660 C   0  0  0  0  0  0  0  0  0  0  0  0
  -36.2470   36.8650   15.2440 C   0  0  0  0  0  0  0  0  0  0  0  0
  -35.6940   35.7290   16.0890 C   0  0  0  0  0  0  0  0  0  0  0  0
  -39.4370   40.3300   14.8890 O   0  0  0  0  0  0  0  0  0  0  0  0
  -35.2670   40.0340   14.6830 O   0  0  0  0  0  0  0  0  0  0  0  0
  -36.5340   42.6230   14.6000 O   0  0  0  0  0  0  0  0  0  0  0  0
  -40.7200   42.8820   15.0230 O   0  0  0  0  0  0  0  0  0  0  0  0
  -36.1800   36.7970   14.0160 O   0  0  0  0  0  0  0  0  0  0  0  0
  -36.7930   37.9000   15.8790 N   0  0  0  0  0  0  0  0  0  0  0  0
  -38.9070   39.4530   16.9360 O   0  0  0  0  0  0  0  0  0  0  0  0
  -34.2280   39.8330   15.6010 C   0  0  1  0  0  0  0  0  0  0  0  0
  -33.0510   39.1570   14.8860 C   0  0  2  0  0  0  0  0  0  0  0  0
  -32.5180   40.1010   13.8000 C   0  0  1  0  0  0  0  0  0  0  0  0
  -32.1290   41.4440   14.4270 C   0  0  1  0  0  0  0  0  0  0  0  0
  -33.3130   42.0310   15.2130 C   0  0  2  0  0  0  0  0  0  0  0  0
  -32.9430   43.2870   15.9840 C   0  0  0  0  0  0  0  0  0  0  0  0
  -33.4780   37.9300   14.3050 O   0  0  0  0  0  0  0  0  0  0  0  0
  -31.3810   39.5200   13.1710 O   0  0  0  0  0  0  0  0  0  0  0  0
  -31.0280   41.2440   15.3010 O   0  0  0  0  0  0  0  0  0  0  0  0
  -33.7920   41.0620   16.1750 O   0  0  0  0  0  0  0  0  0  0  0  0
  -35.6659   46.8271   15.2378 H   0  0  0  0  0  0  0  0  0  0  0  0
  -37.1017   47.9554   16.8362 H   0  0  0  0  0  0  0  0  0  0  0  0
  -39.1775   45.7995   16.1866 H   0  0  0  0  0  0  0  0  0  0  0  0
  -38.8579   45.0799   18.5225 H   0  0  0  0  0  0  0  0  0  0  0  0
  -37.4921   44.0149   16.7807 H   0  0  0  0  0  0  0  0  0  0  0  0
  -35.5424   43.2825   18.1041 H   0  0  0  0  0  0  0  0  0  0  0  0
  -37.0253   43.3418   19.1160 H   0  0  0  0  0  0  0  0  0  0  0  0
  -35.7975   44.6467   19.2444 H   0  0  0  0  0  0  0  0  0  0  0  0
  -38.5329   47.3209   14.4526 H   0  0  0  0  0  0  0  0  0  0  0  0
  -39.9960   47.9055   16.6877 H   0  0  0  0  0  0  0  0  0  0  0  0
  -38.1287   47.1319   19.3256 H   0  0  0  0  0  0  0  0  0  0  0  0
  -37.4303   43.3962   12.9362 H   0  0  0  0  0  0  0  0  0  0  0  0
  -35.0764   44.8185   14.3044 H   0  0  0  0  0  0  0  0  0  0  0  0
  -36.8870   45.6302   11.9693 H   0  0  0  0  0  0  0  0  0  0  0  0
  -34.7861   45.5041   10.6447 H   0  0  0  0  0  0  0  0  0  0  0  0
  -36.2920   43.5509   10.8152 H   0  0  0  0  0  0  0  0  0  0  0  0
  -34.3390   43.1698    9.4454 H   0  0  0  0  0  0  0  0  0  0  0  0
  -34.6849   41.6855   10.3961 H   0  0  0  0  0  0  0  0  0  0  0  0
  -34.7022   46.9795   13.2069 H   0  0  0  0  0  0  0  0  0  0  0  0
  -32.9707   44.5227   11.7164 H   0  0  0  0  0  0  0  0  0  0  0  0
  -32.7305   43.6623   11.0303 H   0  0  0  0  0  0  0  0  0  0  0  0
  -39.4421   38.3077   15.3489 H   0  0  0  0  0  0  0  0  0  0  0  0
  -37.4151   38.6842   14.0575 H   0  0  0  0  0  0  0  0  0  0  0  0
  -36.4706   40.5319   16.3129 H   0  0  0  0  0  0  0  0  0  0  0  0
  -37.3431   41.1094   13.4283 H   0  0  0  0  0  0  0  0  0  0  0  0
  -38.6150   41.7947   16.1296 H   0  0  0  0  0  0  0  0  0  0  0  0
  -39.6748   42.3428   13.3269 H   0  0  0  0  0  0  0  0  0  0  0  0
  -38.8874   43.5733   14.3722 H   0  0  0  0  0  0  0  0  0  0  0  0
  -35.8394   35.9603   17.1545 H   0  0  0  0  0  0  0  0  0  0  0  0
  -34.6202   35.6081   15.8833 H   0  0  0  0  0  0  0  0  0  0  0  0
  -36.2222   34.7966   15.8408 H   0  0  0  0  0  0  0  0  0  0  0  0
  -41.1918   43.5700   14.5685 H   0  0  0  0  0  0  0  0  0  0  0  0
  -36.7848   37.9357   16.8783 H   0  0  0  0  0  0  0  0  0  0  0  0
  -38.4196   40.2440   17.1342 H   0  0  0  0  0  0  0  0  0  0  0  0
  -34.5884   39.1757   16.4060 H   0  0  0  0  0  0  0  0  0  0  0  0
  -32.2517   38.9520   15.6134 H   0  0  0  0  0  0  0  0  0  0  0  0
  -33.3030   40.2663   13.0474 H   0  0  0  0  0  0  0  0  0  0  0  0
  -31.8410   42.1464   13.6310 H   0  0  0  0  0  0  0  0  0  0  0  0
  -34.1171   42.2723   14.5022 H   0  0  0  0  0  0  0  0  0  0  0  0
  -33.8261   43.6593   16.5239 H   0  0  0  0  0  0  0  0  0  0  0  0
  -32.5905   44.0574   15.2825 H   0  0  0  0  0  0  0  0  0  0  0  0
  -32.1446   43.0536   16.7038 H   0  0  0  0  0  0  0  0  0  0  0  0
  -32.7440   37.5165   13.8659 H   0  0  0  0  0  0  0  0  0  0  0  0
  -30.6991   39.3812   13.8177 H   0  0  0  0  0  0  0  0  0  0  0  0
  -30.2987   40.8814   14.8120 H   0  0  0  0  0  0  0  0  0  0  0  0
  1  2  1  0  0  0  0
  1 10  1  0  0  0  0
  1 47  1  6  0  0  0
  2  3  1  0  0  0  0
  2  7  1  0  0  0  0
  2 48  1  1  0  0  0
  3  4  1  0  0  0  0
  3  8  1  0  0  0  0
  3 49  1  6  0  0  0
  4  9  1  0  0  0  0
  4 50  1  1  0  0  0
  5  4  1  0  0  0  0
  5  6  1  0  0  0  0
  5 51  1  6  0  0  0
  6 52  1  0  0  0  0
  6 53  1  0  0  0  0
  6 54  1  0  0  0  0
  7 55  1  0  0  0  0
  8 56  1  0  0  0  0
  9 57  1  0  0  0  0
 10  5  1  0  0  0  0
 11 12  1  0  0  0  0
 11 20  1  0  0  0  0
 11 58  1  6  0  0  0
 12 13  1  0  0  0  0
 12 17  1  0  0  0  0
 12 59  1  1  0  0  0
 13 14  1  0  0  0  0
 13 18  1  0  0  0  0
 13 60  1  6  0  0  0
 14 19  1  0  0  0  0
 14 61  1  6  0  0  0
 15 14  1  0  0  0  0
 15 16  1  0  0  0  0
 15 62  1  6  0  0  0
 16 21  1  0  0  0  0
 16 63  1  0  0  0  0
 16 64  1  0  0  0  0
 17  1  1  0  0  0  0
 18 65  1  0  0  0  0
 19 66  1  0  0  0  0
 20 15  1  0  0  0  0
 21 67  1  0  0  0  0
 22 30  1  0  0  0  0
 22 36  1  0  0  0  0
 22 68  1  6  0  0  0
 23 22  1  0  0  0  0
 23 24  1  0  0  0  0
 23 69  1  6  0  0  0
 24 25  1  0  0  0  0
 24 31  1  0  0  0  0
 24 70  1  1  0  0  0
 25 26  1  0  0  0  0
 25 32  1  0  0  0  0
 25 71  1  6  0  0  0
 26 27  1  0  0  0  0
 26 72  1  1  0  0  0
 27 33  1  0  0  0  0
 27 73  1  0  0  0  0
 27 74  1  0  0  0  0
 28 29  1  0  0  0  0
 28 34  2  0  0  0  0
 28 35  1  0  0  0  0
 29 75  1  0  0  0  0
 29 76  1  0  0  0  0
 29 77  1  0  0  0  0
 30 26  1  0  0  0  0
 31 37  1  0  0  0  0
 32 11  1  0  0  0  0
 33 78  1  0  0  0  0
 35 23  1  0  0  0  0
 35 79  1  0  0  0  0
 36 80  1  0  0  0  0
 37 38  1  0  0  0  0
 37 46  1  0  0  0  0
 37 81  1  1  0  0  0
 38 39  1  0  0  0  0
 38 43  1  0  0  0  0
 38 82  1  1  0  0  0
 39 40  1  0  0  0  0
 39 44  1  0  0  0  0
 39 83  1  6  0  0  0
 40 41  1  0  0  0  0
 40 45  1  0  0  0  0
 40 84  1  6  0  0  0
 41 42  1  0  0  0  0
 41 46  1  0  0  0  0
 41 85  1  6  0  0  0
 42 86  1  0  0  0  0
 42 87  1  0  0  0  0
 42 88  1  0  0  0  0
 43 89  1  0  0  0  0
 44 90  1  0  0  0  0
 45 91  1  0  0  0  0
M  END
