1s4d_ligand
 OpenBabel08222323343D

 46 48  0  0  1  0  0  0  0  0999 V2000
   81.6350   90.0850    9.8730 N   0  3  0  0  0  0  0  0  0  0  0  0
   82.2770   91.3110    9.4220 C   0  0  1  0  0  0  0  0  0  0  0  0
   83.7900   91.2960    9.6630 C   0  0  0  0  0  0  0  0  0  0  0  0
   84.2470   91.4610   11.1180 C   0  0  0  0  0  0  0  0  0  0  0  0
   86.0440   91.5690   11.3810 S   0  0  0  0  0  0  0  0  0  0  0  0
   81.9460   91.5410    7.9550 C   0  0  0  0  0  0  0  0  0  0  0  0
   81.4580   90.6390    7.2710 O   0  5  0  0  0  0  0  0  0  0  0  0
   82.1400   92.6350    7.4300 O   0  0  0  0  0  0  0  0  0  0  0  0
   86.0730   93.3900   11.3730 C   0  0  0  0  0  0  0  0  0  0  0  0
   86.8000   93.9460   10.1500 C   0  0  1  0  0  0  0  0  0  0  0  0
   85.8770   94.0850    9.0920 O   0  0  0  0  0  0  0  0  0  0  0  0
   87.4220   95.3240   10.2980 C   0  0  1  0  0  0  0  0  0  0  0  0
   88.7430   95.3200   10.7710 O   0  0  0  0  0  0  0  0  0  0  0  0
   87.3690   95.8810    8.8950 C   0  0  1  0  0  0  0  0  0  0  0  0
   88.4520   95.4500    8.1080 O   0  0  0  0  0  0  0  0  0  0  0  0
   86.1270   95.2390    8.3310 C   0  0  2  0  0  0  0  0  0  0  0  0
   84.9670   96.1560    8.3730 N   0  0  0  0  0  0  0  0  0  0  0  0
   83.8230   96.0020    9.0910 C   0  0  0  0  0  0  0  0  0  0  0  0
   83.0230   97.0430    8.8460 N   0  0  0  0  0  0  0  0  0  0  0  0
   83.6210   97.8630    7.9700 C   0  0  0  0  0  0  0  0  0  0  0  0
   83.2430   99.0680    7.3770 C   0  0  0  0  0  0  0  0  0  0  0  0
   82.0750   99.6380    7.6210 N   0  0  0  0  0  0  0  0  0  0  0  0
   84.1190   99.6820    6.5170 N   0  0  0  0  0  0  0  0  0  0  0  0
   85.3390   99.1140    6.2230 C   0  0  0  0  0  0  0  0  0  0  0  0
   85.7140   97.9320    6.8070 N   0  0  0  0  0  0  0  0  0  0  0  0
   84.8610   97.3190    7.6680 C   0  0  0  0  0  0  0  0  0  0  0  0
   81.8525   89.9298   10.8449 H   0  0  0  0  0  0  0  0  0  0  0  0
   81.9713   89.3085    9.3253 H   0  0  0  0  0  0  0  0  0  0  0  0
   80.6367   90.1677    9.7612 H   0  0  0  0  0  0  0  0  0  0  0  0
   81.8578   92.1465   10.0018 H   0  0  0  0  0  0  0  0  0  0  0  0
   84.2309   92.1165    9.0780 H   0  0  0  0  0  0  0  0  0  0  0  0
   84.1785   90.3343    9.2965 H   0  0  0  0  0  0  0  0  0  0  0  0
   83.8746   90.5970   11.6880 H   0  0  0  0  0  0  0  0  0  0  0  0
   83.7932   92.3827   11.5110 H   0  0  0  0  0  0  0  0  0  0  0  0
   86.5858   93.7409   12.2807 H   0  0  0  0  0  0  0  0  0  0  0  0
   85.0377   93.7616   11.3698 H   0  0  0  0  0  0  0  0  0  0  0  0
   87.5896   93.2316    9.8743 H   0  0  0  0  0  0  0  0  0  0  0  0
   86.8121   95.9348   10.9798 H   0  0  0  0  0  0  0  0  0  0  0  0
   89.2923   94.8321   10.1687 H   0  0  0  0  0  0  0  0  0  0  0  0
   87.3094   96.9794    8.9011 H   0  0  0  0  0  0  0  0  0  0  0  0
   88.3778   95.8232    7.2375 H   0  0  0  0  0  0  0  0  0  0  0  0
   86.3096   94.9548    7.2842 H   0  0  0  0  0  0  0  0  0  0  0  0
   83.5967   95.1690    9.7550 H   0  0  0  0  0  0  0  0  0  0  0  0
   81.8310  100.5283    7.1642 H   0  0  0  0  0  0  0  0  0  0  0  0
   81.4092   99.1917    8.2679 H   0  0  0  0  0  0  0  0  0  0  0  0
   86.0072   99.6052    5.5249 H   0  0  0  0  0  0  0  0  0  0  0  0
  1  2  1  0  0  0  0
  1 27  1  0  0  0  0
  1 28  1  0  0  0  0
  1 29  1  0  0  0  0
  2  3  1  0  0  0  0
  2  6  1  0  0  0  0
  2 30  1  1  0  0  0
  3  4  1  0  0  0  0
  3 31  1  0  0  0  0
  3 32  1  0  0  0  0
  4  5  1  0  0  0  0
  4 33  1  0  0  0  0
  4 34  1  0  0  0  0
  5  9  1  0  0  0  0
  6  7  1  0  0  0  0
  6  8  2  0  0  0  0
  9 10  1  0  0  0  0
  9 35  1  0  0  0  0
  9 36  1  0  0  0  0
 10 11  1  0  0  0  0
 10 12  1  0  0  0  0
 10 37  1  6  0  0  0
 11 16  1  0  0  0  0
 12 13  1  0  0  0  0
 12 14  1  0  0  0  0
 12 38  1  1  0  0  0
 13 39  1  0  0  0  0
 14 15  1  0  0  0  0
 14 16  1  0  0  0  0
 14 40  1  1  0  0  0
 15 41  1  0  0  0  0
 16 17  1  0  0  0  0
 16 42  1  6  0  0  0
 17 18  1  0  0  0  0
 17 26  1  0  0  0  0
 18 19  2  0  0  0  0
 18 43  1  0  0  0  0
 19 20  1  0  0  0  0
 20 21  2  0  0  0  0
 20 26  1  0  0  0  0
 21 22  1  0  0  0  0
 21 23  1  0  0  0  0
 22 44  1  0  0  0  0
 22 45  1  0  0  0  0
 23 24  2  0  0  0  0
 24 25  1  0  0  0  0
 24 46  1  0  0  0  0
 25 26  2  0  0  0  0
M  CHG  2   1   1   7  -1
M  END
