1s9t_ligand
 OpenBabel08222323343D

 20 20  0  0  1  0  0  0  0  0999 V2000
   32.8100   13.5360   39.4970 C   0  0  0  0  0  0  0  0  0  0  0  0
   33.0680   14.4890   38.3090 C   0  0  2  0  0  0  0  0  0  0  0  0
   34.5520   14.8980   38.3650 C   0  0  0  0  0  0  0  0  0  0  0  0
   35.0340   14.2410   35.9650 C   0  0  0  0  0  0  0  0  0  0  0  0
   34.4400   16.2330   35.1590 C   0  0  0  0  0  0  0  0  0  0  0  0
   32.0570   15.5950   38.4350 N   0  3  0  0  0  0  0  0  0  0  0  0
   35.0990   15.1350   37.0180 N   0  0  0  0  0  0  0  0  0  0  0  0
   34.6380   14.9360   34.8770 N   0  0  0  0  0  0  0  0  0  0  0  0
   31.8790   13.7860   40.2880 O   0  5  0  0  0  0  0  0  0  0  0  0
   33.5670   12.5240   39.6130 O   0  0  0  0  0  0  0  0  0  0  0  0
   35.2950   13.0690   36.0770 O   0  0  0  0  0  0  0  0  0  0  0  0
   34.0890   17.1520   34.4460 O   0  0  0  0  0  0  0  0  0  0  0  0
   34.7110   16.4180   36.4920 O   0  0  0  0  0  0  0  0  0  0  0  0
   32.8929   13.9670   37.3567 H   0  0  0  0  0  0  0  0  0  0  0  0
   35.1264   14.0933   38.8473 H   0  0  0  0  0  0  0  0  0  0  0  0
   34.6462   15.8208   38.9562 H   0  0  0  0  0  0  0  0  0  0  0  0
   31.1276   15.2080   38.3844 H   0  0  0  0  0  0  0  0  0  0  0  0
   32.1869   16.2561   37.6852 H   0  0  0  0  0  0  0  0  0  0  0  0
   32.1787   16.0623   39.3198 H   0  0  0  0  0  0  0  0  0  0  0  0
   34.5081   14.5331   33.9710 H   0  0  0  0  0  0  0  0  0  0  0  0
  1  2  1  0  0  0  0
  1  9  1  0  0  0  0
  1 10  2  0  0  0  0
  2  3  1  0  0  0  0
  2  6  1  0  0  0  0
  2 14  1  6  0  0  0
  3  7  1  0  0  0  0
  3 15  1  0  0  0  0
  3 16  1  0  0  0  0
  4  8  1  0  0  0  0
  4 11  2  0  0  0  0
  5 12  2  0  0  0  0
  5 13  1  0  0  0  0
  6 17  1  0  0  0  0
  6 18  1  0  0  0  0
  6 19  1  0  0  0  0
  7  4  1  0  0  0  0
  7 13  1  0  0  0  0
  8  5  1  0  0  0  0
  8 20  1  0  0  0  0
M  CHG  2   6   1   9  -1
M  END
