1shd_ligand
 OpenBabel08222323343D

 74 74  0  0  1  0  0  0  0  0999 V2000
   20.7640   10.9560    0.7630 C   0  0  0  0  0  0  0  0  0  0  0  0
   21.0510   10.5680    1.8950 O   0  5  0  0  0  0  0  0  0  0  0  0
   19.5190   10.9080    0.3160 N   0  0  0  0  0  0  0  0  0  0  0  0
   18.3880   10.5610    1.1440 C   0  0  2  0  0  0  0  0  0  0  0  0
   17.8530    9.2640    0.6210 C   0  0  0  0  0  0  0  0  0  0  0  0
   17.6700    9.1500   -0.5930 O   0  0  0  0  0  0  0  0  0  0  0  0
   17.3500   11.5990    1.0170 C   0  0  0  0  0  0  0  0  0  0  0  0
   17.8040   12.8650    1.6990 C   0  0  0  0  0  0  0  0  0  0  0  0
   17.6180   12.9890    3.0610 C   0  0  0  0  0  0  0  0  0  0  0  0
   18.4430   13.8600    0.9800 C   0  0  0  0  0  0  0  0  0  0  0  0
   18.0880   14.1120    3.7050 C   0  0  0  0  0  0  0  0  0  0  0  0
   18.9210   14.9840    1.6050 C   0  0  0  0  0  0  0  0  0  0  0  0
   18.7330   15.0940    2.9630 C   0  0  0  0  0  0  0  0  0  0  0  0
   19.1520   16.2890    3.6410 O   0  0  0  0  0  0  0  0  0  0  0  0
   19.3528   11.1235   -0.6463 H   0  0  0  0  0  0  0  0  0  0  0  0
   18.6946   10.4589    2.1954 H   0  0  0  0  0  0  0  0  0  0  0  0
   16.4206   11.2448    1.4868 H   0  0  0  0  0  0  0  0  0  0  0  0
   17.1675   11.8039   -0.0482 H   0  0  0  0  0  0  0  0  0  0  0  0
   17.1077   12.2112    3.6176 H   0  0  0  0  0  0  0  0  0  0  0  0
   18.5675   13.7499   -0.0912 H   0  0  0  0  0  0  0  0  0  0  0  0
   17.9567   14.2281    4.7747 H   0  0  0  0  0  0  0  0  0  0  0  0
   19.4306   15.7606    1.0462 H   0  0  0  0  0  0  0  0  0  0  0  0
   19.5760   16.8712    3.0214 H   0  0  0  0  0  0  0  0  0  0  0  0
   17.6570    8.2820    1.5000 N   0  0  0  0  0  0  0  0  0  0  0  0
   17.1330    6.9650    1.1670 C   0  0  2  0  0  0  0  0  0  0  0  0
   15.6590    7.0440    0.8450 C   0  0  0  0  0  0  0  0  0  0  0  0
   14.8810    7.7650    1.4790 O   0  0  0  0  0  0  0  0  0  0  0  0
   17.2630    5.9760    2.3130 C   0  0  0  0  0  0  0  0  0  0  0  0
   18.7000    5.5520    2.6270 C   0  0  0  0  0  0  0  0  0  0  0  0
   19.3780    4.6690    1.6140 C   0  0  0  0  0  0  0  0  0  0  0  0
   18.6990    4.1790    0.7490 O   0  5  0  0  0  0  0  0  0  0  0  0
   20.5720    4.4410    1.6700 O   0  0  0  0  0  0  0  0  0  0  0  0
   17.8861    8.4624    2.4565 H   0  0  0  0  0  0  0  0  0  0  0  0
   17.6829    6.5834    0.2941 H   0  0  0  0  0  0  0  0  0  0  0  0
   16.6875    5.0746    2.0556 H   0  0  0  0  0  0  0  0  0  0  0  0
   16.8364    6.4381    3.2155 H   0  0  0  0  0  0  0  0  0  0  0  0
   18.6869    5.0118    3.5851 H   0  0  0  0  0  0  0  0  0  0  0  0
   19.3030    6.4662    2.7297 H   0  0  0  0  0  0  0  0  0  0  0  0
   15.2840    6.3560   -0.2200 N   0  0  0  0  0  0  0  0  0  0  0  0
   13.8890    6.2270   -0.5920 C   0  0  2  0  0  0  0  0  0  0  0  0
   13.4520    4.8890   -0.0220 C   0  0  0  0  0  0  0  0  0  0  0  0
   14.1630    3.8740   -0.0640 O   0  0  0  0  0  0  0  0  0  0  0  0
   13.7320    6.2610   -2.1060 C   0  0  0  0  0  0  0  0  0  0  0  0
   14.0980    7.6440   -2.6690 C   0  0  0  0  0  0  0  0  0  0  0  0
   13.3130    8.8500   -2.0980 C   0  0  0  0  0  0  0  0  0  0  0  0
   12.0650    8.7970   -2.0510 O   0  5  0  0  0  0  0  0  0  0  0  0
   13.9570    9.8470   -1.7010 O   0  0  0  0  0  0  0  0  0  0  0  0
   15.9811    5.9130   -0.7837 H   0  0  0  0  0  0  0  0  0  0  0  0
   13.2971    7.0416   -0.1492 H   0  0  0  0  0  0  0  0  0  0  0  0
   12.6873    6.0330   -2.3642 H   0  0  0  0  0  0  0  0  0  0  0  0
   14.3937    5.5045   -2.5530 H   0  0  0  0  0  0  0  0  0  0  0  0
   13.9283    7.6185   -3.7555 H   0  0  0  0  0  0  0  0  0  0  0  0
   15.1660    7.8149   -2.4686 H   0  0  0  0  0  0  0  0  0  0  0  0
   12.3670    4.9510    0.7060 N   0  0  0  0  0  0  0  0  0  0  0  0
   11.7610    3.7710    1.2790 C   0  0  2  0  0  0  0  0  0  0  0  0
   10.7130    3.3260    0.2190 C   0  0  0  0  0  0  0  0  0  0  0  0
   10.1510    4.1510   -0.5300 O   0  5  0  0  0  0  0  0  0  0  0  0
   11.2130    4.1980    2.6760 C   0  0  2  0  0  0  0  0  0  0  0  0
   10.2060    3.2340    3.2000 C   0  0  0  0  0  0  0  0  0  0  0  0
   10.5300    5.5300    2.5690 C   0  0  0  0  0  0  0  0  0  0  0  0
    9.5970    3.7230    4.5410 C   0  0  0  0  0  0  0  0  0  0  0  0
   11.9441    5.8420    0.8710 H   0  0  0  0  0  0  0  0  0  0  0  0
   10.5610    2.1130    0.0300 O   0  0  0  0  0  0  0  0  0  0  0  0
   12.4992    2.9673    1.4176 H   0  0  0  0  0  0  0  0  0  0  0  0
   12.0544    4.2660    3.3813 H   0  0  0  0  0  0  0  0  0  0  0  0
   10.6927    2.2609    3.3619 H   0  0  0  0  0  0  0  0  0  0  0  0
    9.3993    3.1220    2.4606 H   0  0  0  0  0  0  0  0  0  0  0  0
   11.2404    6.2764    2.1839 H   0  0  0  0  0  0  0  0  0  0  0  0
   10.1745    5.8407    3.5625 H   0  0  0  0  0  0  0  0  0  0  0  0
    9.6746    5.4494    1.8821 H   0  0  0  0  0  0  0  0  0  0  0  0
    8.8595    2.9890    4.8980 H   0  0  0  0  0  0  0  0  0  0  0  0
    9.1032    4.6938    4.3871 H   0  0  0  0  0  0  0  0  0  0  0  0
   10.3965    3.8327    5.2885 H   0  0  0  0  0  0  0  0  0  0  0  0
   21.6723   11.4074    0.0154 O   0  0  0  0  0  0  0  0  0  0  0  0
  1  2  1  0  0  0  0
  1 74  2  0  0  0  0
  3 15  1  0  0  0  0
  3  1  1  0  0  0  0
  4  7  1  0  0  0  0
  4  3  1  0  0  0  0
  4 16  1  1  0  0  0
  5  4  1  0  0  0  0
  5  6  2  0  0  0  0
  7 17  1  0  0  0  0
  7 18  1  0  0  0  0
  7  8  1  0  0  0  0
  8 10  2  0  0  0  0
  8  9  1  0  0  0  0
  9 19  1  0  0  0  0
  9 11  2  0  0  0  0
 10 20  1  0  0  0  0
 10 12  1  0  0  0  0
 11 13  1  0  0  0  0
 11 21  1  0  0  0  0
 12 13  2  0  0  0  0
 12 22  1  0  0  0  0
 13 14  1  0  0  0  0
 14 23  1  0  0  0  0
 24 33  1  0  0  0  0
 24  5  1  0  0  0  0
 25 28  1  0  0  0  0
 25 24  1  0  0  0  0
 25 34  1  6  0  0  0
 26 25  1  0  0  0  0
 26 27  2  0  0  0  0
 28 35  1  0  0  0  0
 28 36  1  0  0  0  0
 28 29  1  0  0  0  0
 29 37  1  0  0  0  0
 29 38  1  0  0  0  0
 29 30  1  0  0  0  0
 30 31  1  0  0  0  0
 30 32  2  0  0  0  0
 39 48  1  0  0  0  0
 39 26  1  0  0  0  0
 40 43  1  0  0  0  0
 40 39  1  0  0  0  0
 40 49  1  1  0  0  0
 41 40  1  0  0  0  0
 41 42  2  0  0  0  0
 41 54  1  0  0  0  0
 43 50  1  0  0  0  0
 43 51  1  0  0  0  0
 43 44  1  0  0  0  0
 44 52  1  0  0  0  0
 44 53  1  0  0  0  0
 44 45  1  0  0  0  0
 45 46  1  0  0  0  0
 45 47  2  0  0  0  0
 54 62  1  0  0  0  0
 54 55  1  0  0  0  0
 55 56  1  0  0  0  0
 55 58  1  0  0  0  0
 55 64  1  1  0  0  0
 56 63  2  0  0  0  0
 56 57  1  0  0  0  0
 58 65  1  1  0  0  0
 58 59  1  0  0  0  0
 58 60  1  0  0  0  0
 59 66  1  0  0  0  0
 59 67  1  0  0  0  0
 59 61  1  0  0  0  0
 60 68  1  0  0  0  0
 60 69  1  0  0  0  0
 60 70  1  0  0  0  0
 61 71  1  0  0  0  0
 61 72  1  0  0  0  0
 61 73  1  0  0  0  0
M  CHG  4   2  -1  31  -1  46  -1  57  -1
M  END
