1sj0_ligand
 OpenBabel08222323343D

 63 67  0  0  1  0  0  0  0  0999 V2000
   31.1720   -0.2380   28.7070 C   0  0  2  0  0  0  0  0  0  0  0  0
   31.2760   -1.6690   28.1770 C   0  0  1  0  0  0  0  0  0  0  0  0
   30.0500   -2.3690   28.4310 O   0  0  0  0  0  0  0  0  0  0  0  0
   28.8610   -1.9480   27.9670 C   0  0  0  0  0  0  0  0  0  0  0  0
   27.9320   -2.9010   27.5800 C   0  0  0  0  0  0  0  0  0  0  0  0
   26.7240   -2.5350   27.0030 C   0  0  0  0  0  0  0  0  0  0  0  0
   26.3460   -1.1830   27.0310 C   0  0  0  0  0  0  0  0  0  0  0  0
   25.1280   -0.8570   26.5840 O   0  0  0  0  0  0  0  0  0  0  0  0
   27.2840   -0.2150   27.4260 C   0  0  0  0  0  0  0  0  0  0  0  0
   28.5550   -0.5630   27.8540 C   0  0  0  0  0  0  0  0  0  0  0  0
   29.6080    0.4570   28.1910 S   0  0  0  0  0  0  0  0  0  0  0  0
   32.4700    0.4800   28.4200 C   0  0  0  0  0  0  0  0  0  0  0  0
   32.6800    1.3800   27.3730 C   0  0  0  0  0  0  0  0  0  0  0  0
   33.9320    1.9870   27.2050 C   0  0  0  0  0  0  0  0  0  0  0  0
   34.9760    1.6980   28.0990 C   0  0  0  0  0  0  0  0  0  0  0  0
   36.1910    2.2510   27.9230 O   0  0  0  0  0  0  0  0  0  0  0  0
   34.7830    0.7840   29.1430 C   0  0  0  0  0  0  0  0  0  0  0  0
   33.5190    0.2030   29.3110 C   0  0  0  0  0  0  0  0  0  0  0  0
   31.6300   -1.8400   26.7020 C   0  0  0  0  0  0  0  0  0  0  0  0
   32.6480   -2.7670   26.4480 C   0  0  0  0  0  0  0  0  0  0  0  0
   33.0730   -3.0500   25.1480 C   0  0  0  0  0  0  0  0  0  0  0  0
   32.4960   -2.3520   24.0600 C   0  0  0  0  0  0  0  0  0  0  0  0
   31.4550   -1.4710   24.2950 C   0  0  0  0  0  0  0  0  0  0  0  0
   31.0470   -1.1710   25.6230 C   0  0  0  0  0  0  0  0  0  0  0  0
   32.9110   -2.5720   22.7850 O   0  0  0  0  0  0  0  0  0  0  0  0
   34.0020   -3.4000   22.3460 C   0  0  0  0  0  0  0  0  0  0  0  0
   33.6550   -4.3840   21.2060 C   0  0  0  0  0  0  0  0  0  0  0  0
   32.8000   -4.0120   20.0540 N   0  3  0  0  0  0  0  0  0  0  0  0
   31.5970   -3.2410   20.3190 C   0  0  0  0  0  0  0  0  0  0  0  0
   30.5570   -3.2640   19.1770 C   0  0  0  0  0  0  0  0  0  0  0  0
   31.1870   -2.9120   17.8130 C   0  0  0  0  0  0  0  0  0  0  0  0
   32.4130   -3.8420   17.6170 C   0  0  0  0  0  0  0  0  0  0  0  0
   33.4340   -3.6740   18.7760 C   0  0  0  0  0  0  0  0  0  0  0  0
   31.1121   -0.2948   29.8039 H   0  0  0  0  0  0  0  0  0  0  0  0
   32.0760   -2.1572   28.7529 H   0  0  0  0  0  0  0  0  0  0  0  0
   28.1530   -3.9515   27.7308 H   0  0  0  0  0  0  0  0  0  0  0  0
   26.0850   -3.2781   26.5399 H   0  0  0  0  0  0  0  0  0  0  0  0
   25.0050    0.0820   26.6596 H   0  0  0  0  0  0  0  0  0  0  0  0
   27.0061    0.8323   27.3952 H   0  0  0  0  0  0  0  0  0  0  0  0
   31.8719    1.6099   26.6880 H   0  0  0  0  0  0  0  0  0  0  0  0
   34.0944    2.6786   26.3862 H   0  0  0  0  0  0  0  0  0  0  0  0
   36.7758    1.9531   28.6098 H   0  0  0  0  0  0  0  0  0  0  0  0
   35.5987    0.5302   29.8104 H   0  0  0  0  0  0  0  0  0  0  0  0
   33.3484   -0.4713   30.1424 H   0  0  0  0  0  0  0  0  0  0  0  0
   33.1179   -3.2776   27.2808 H   0  0  0  0  0  0  0  0  0  0  0  0
   33.8382   -3.7978   24.9737 H   0  0  0  0  0  0  0  0  0  0  0  0
   30.9461   -1.0055   23.4587 H   0  0  0  0  0  0  0  0  0  0  0  0
   30.2829   -0.4225   25.7988 H   0  0  0  0  0  0  0  0  0  0  0  0
   34.3543   -3.9861   23.2076 H   0  0  0  0  0  0  0  0  0  0  0  0
   34.8105   -2.7419   21.9949 H   0  0  0  0  0  0  0  0  0  0  0  0
   33.1616   -5.2423   21.6855 H   0  0  0  0  0  0  0  0  0  0  0  0
   34.6165   -4.7052   20.7791 H   0  0  0  0  0  0  0  0  0  0  0  0
   32.4052   -4.9132   19.8348 H   0  0  0  0  0  0  0  0  0  0  0  0
   31.8907   -2.1957   20.4952 H   0  0  0  0  0  0  0  0  0  0  0  0
   31.1218   -3.6460   21.2246 H   0  0  0  0  0  0  0  0  0  0  0  0
   29.7664   -2.5330   19.4020 H   0  0  0  0  0  0  0  0  0  0  0  0
   30.1187   -4.2711   19.1162 H   0  0  0  0  0  0  0  0  0  0  0  0
   31.5080   -1.8599   17.8069 H   0  0  0  0  0  0  0  0  0  0  0  0
   30.4567   -3.0772   17.0072 H   0  0  0  0  0  0  0  0  0  0  0  0
   32.9052   -3.5917   16.6657 H   0  0  0  0  0  0  0  0  0  0  0  0
   32.0704   -4.8869   17.5889 H   0  0  0  0  0  0  0  0  0  0  0  0
   34.2912   -4.3422   18.6063 H   0  0  0  0  0  0  0  0  0  0  0  0
   33.7824   -2.6311   18.8065 H   0  0  0  0  0  0  0  0  0  0  0  0
  1  2  1  0  0  0  0
  1 11  1  0  0  0  0
  1 12  1  0  0  0  0
  1 34  1  1  0  0  0
  2  3  1  0  0  0  0
  2 19  1  0  0  0  0
  2 35  1  1  0  0  0
  3  4  1  0  0  0  0
  4  5  2  0  0  0  0
  4 10  1  0  0  0  0
  5  6  1  0  0  0  0
  5 36  1  0  0  0  0
  6  7  2  0  0  0  0
  6 37  1  0  0  0  0
  7  8  1  0  0  0  0
  7  9  1  0  0  0  0
  8 38  1  0  0  0  0
  9 10  2  0  0  0  0
  9 39  1  0  0  0  0
 10 11  1  0  0  0  0
 12 13  2  0  0  0  0
 12 18  1  0  0  0  0
 13 14  1  0  0  0  0
 13 40  1  0  0  0  0
 14 15  2  0  0  0  0
 14 41  1  0  0  0  0
 15 16  1  0  0  0  0
 15 17  1  0  0  0  0
 16 42  1  0  0  0  0
 17 18  2  0  0  0  0
 17 43  1  0  0  0  0
 18 44  1  0  0  0  0
 19 20  2  0  0  0  0
 19 24  1  0  0  0  0
 20 21  1  0  0  0  0
 20 45  1  0  0  0  0
 21 22  2  0  0  0  0
 21 46  1  0  0  0  0
 22 23  1  0  0  0  0
 22 25  1  0  0  0  0
 23 24  2  0  0  0  0
 23 47  1  0  0  0  0
 24 48  1  0  0  0  0
 25 26  1  0  0  0  0
 26 27  1  0  0  0  0
 26 49  1  0  0  0  0
 26 50  1  0  0  0  0
 27 28  1  0  0  0  0
 27 51  1  0  0  0  0
 27 52  1  0  0  0  0
 28 29  1  0  0  0  0
 28 33  1  0  0  0  0
 28 53  1  0  0  0  0
 29 30  1  0  0  0  0
 29 54  1  0  0  0  0
 29 55  1  0  0  0  0
 30 31  1  0  0  0  0
 30 56  1  0  0  0  0
 30 57  1  0  0  0  0
 31 32  1  0  0  0  0
 31 58  1  0  0  0  0
 31 59  1  0  0  0  0
 32 33  1  0  0  0  0
 32 60  1  0  0  0  0
 32 61  1  0  0  0  0
 33 62  1  0  0  0  0
 33 63  1  0  0  0  0
M  CHG  1  28   1
M  END
