1sme_ligand
 OpenBabel08222323343D

110109  0  0  1  0  0  0  0  0999 V2000
   53.5200   70.8800   25.7180 C   0  0  0  0  0  0  0  0  0  0  0  0
   53.7210   71.0970   24.5220 O   0  5  0  0  0  0  0  0  0  0  0  0
   52.9550   71.6440   26.4560 O   0  0  0  0  0  0  0  0  0  0  0  0
   53.9880   69.5550   26.2460 C   0  0  0  0  0  0  0  0  0  0  0  0
   55.4410   69.5720   26.7170 C   0  0  2  0  0  0  0  0  0  0  0  0
   56.4300   70.1430   25.7290 O   0  0  0  0  0  0  0  0  0  0  0  0
   55.8390   68.1240   27.1890 C   0  0  1  0  0  0  0  0  0  0  0  0
   55.7760   67.1110   26.0940 N   0  0  0  0  0  0  0  0  0  0  0  0
   54.6050   66.5380   25.8280 C   0  0  0  0  0  0  0  0  0  0  0  0
   53.6450   66.6890   26.5800 O   0  0  0  0  0  0  0  0  0  0  0  0
   54.4730   65.7590   24.5200 C   0  0  1  0  0  0  0  0  0  0  0  0
   53.7450   64.5070   24.5850 N   0  0  0  0  0  0  0  0  0  0  0  0
   54.3870   63.3990   25.0330 C   0  0  0  0  0  0  0  0  0  0  0  0
   55.5330   63.3730   25.4960 O   0  0  0  0  0  0  0  0  0  0  0  0
   53.5510   62.1400   24.9610 C   0  0  0  0  0  0  0  0  0  0  0  0
   53.9450   61.2130   23.8010 C   0  0  2  0  0  0  0  0  0  0  0  0
   52.7970   60.3630   23.6930 O   0  0  0  0  0  0  0  0  0  0  0  0
   55.1590   60.3090   24.1610 C   0  0  2  0  0  0  0  0  0  0  0  0
   55.3820   59.2390   23.0920 C   0  0  0  0  0  0  0  0  0  0  0  0
   55.0270   59.5230   25.3810 N   0  0  0  0  0  0  0  0  0  0  0  0
   55.9920   59.2750   26.2730 C   0  0  0  0  0  0  0  0  0  0  0  0
   57.0720   59.8570   26.3580 O   0  0  0  0  0  0  0  0  0  0  0  0
   55.6770   58.1150   27.2010 C   0  0  1  0  0  0  0  0  0  0  0  0
   56.7370   57.1980   26.9180 N   0  0  0  0  0  0  0  0  0  0  0  0
   56.3990   56.0080   26.4680 C   0  0  0  0  0  0  0  0  0  0  0  0
   55.2870   55.4960   26.5140 O   0  0  0  0  0  0  0  0  0  0  0  0
   57.5840   55.2020   26.0000 C   0  0  1  0  0  0  0  0  0  0  0  0
   57.4650   54.0370   26.8890 N   0  0  0  0  0  0  0  0  0  0  0  0
   58.5740   53.7130   27.5300 C   0  0  0  0  0  0  0  0  0  0  0  0
   59.6490   54.3170   27.4650 O   0  0  0  0  0  0  0  0  0  0  0  0
   58.4290   52.4840   28.3790 C   0  0  0  0  0  0  0  0  0  0  0  0
   58.3060   52.8140   29.8670 C   0  0  0  0  0  0  0  0  0  0  0  0
   57.1520   53.7940   30.1240 C   0  0  0  0  0  0  0  0  0  0  0  0
   57.2610   68.1100   27.7710 C   0  0  0  0  0  0  0  0  0  0  0  0
   57.6600   66.7750   28.4270 C   0  0  0  0  0  0  0  0  0  0  0  0
   59.1130   66.8420   28.8860 C   0  0  0  0  0  0  0  0  0  0  0  0
   56.6320   66.4180   29.4920 C   0  0  0  0  0  0  0  0  0  0  0  0
   53.8380   66.6280   23.4500 C   0  0  0  0  0  0  0  0  0  0  0  0
   56.1270   59.6520   21.8370 C   0  0  0  0  0  0  0  0  0  0  0  0
   57.5460   59.9900   22.2170 C   0  0  0  0  0  0  0  0  0  0  0  0
   56.1950   58.4960   20.8880 C   0  0  0  0  0  0  0  0  0  0  0  0
   55.6650   58.6170   28.6700 C   0  0  0  0  0  0  0  0  0  0  0  0
   54.4330   59.4990   28.9160 C   0  0  0  0  0  0  0  0  0  0  0  0
   55.4490   57.4570   29.6180 C   0  0  0  0  0  0  0  0  0  0  0  0
   57.4500   54.8200   24.4890 C   0  0  0  0  0  0  0  0  0  0  0  0
   57.5930   56.0360   23.5910 C   0  0  0  0  0  0  0  0  0  0  0  0
   58.7450   54.1520   24.0040 C   0  0  0  0  0  0  0  0  0  0  0  0
   58.2600   51.4750   30.6280 C   0  0  0  0  0  0  0  0  0  0  0  0
   53.8887   68.8058   25.4468 H   0  0  0  0  0  0  0  0  0  0  0  0
   53.3489   69.2720   27.0954 H   0  0  0  0  0  0  0  0  0  0  0  0
   55.4801   70.2266   27.6001 H   0  0  0  0  0  0  0  0  0  0  0  0
   57.3026   70.1141   26.1034 H   0  0  0  0  0  0  0  0  0  0  0  0
   55.1327   67.8233   27.9769 H   0  0  0  0  0  0  0  0  0  0  0  0
   56.5945   66.8689   25.5729 H   0  0  0  0  0  0  0  0  0  0  0  0
   55.4962   65.5156   24.1980 H   0  0  0  0  0  0  0  0  0  0  0  0
   52.7863   64.4609   24.3045 H   0  0  0  0  0  0  0  0  0  0  0  0
   52.4969   62.4278   24.8349 H   0  0  0  0  0  0  0  0  0  0  0  0
   53.6700   61.5877   25.9048 H   0  0  0  0  0  0  0  0  0  0  0  0
   54.1425   61.7783   22.8783 H   0  0  0  0  0  0  0  0  0  0  0  0
   52.6692   59.8997   24.5125 H   0  0  0  0  0  0  0  0  0  0  0  0
   56.0445   60.9565   24.2417 H   0  0  0  0  0  0  0  0  0  0  0  0
   54.3929   58.8704   22.7825 H   0  0  0  0  0  0  0  0  0  0  0  0
   55.9492   58.4199   23.5581 H   0  0  0  0  0  0  0  0  0  0  0  0
   54.1267   59.1307   25.5696 H   0  0  0  0  0  0  0  0  0  0  0  0
   54.7020   57.6639   26.9646 H   0  0  0  0  0  0  0  0  0  0  0  0
   57.6948   57.4501   27.0561 H   0  0  0  0  0  0  0  0  0  0  0  0
   58.5319   55.7371   26.1585 H   0  0  0  0  0  0  0  0  0  0  0  0
   56.6107   53.5291   26.9999 H   0  0  0  0  0  0  0  0  0  0  0  0
   59.3127   51.8460   28.2307 H   0  0  0  0  0  0  0  0  0  0  0  0
   57.5268   51.9403   28.0621 H   0  0  0  0  0  0  0  0  0  0  0  0
   59.2249   53.3311   30.1804 H   0  0  0  0  0  0  0  0  0  0  0  0
   57.0887   54.0117   31.2004 H   0  0  0  0  0  0  0  0  0  0  0  0
   56.2070   53.3448   29.7847 H   0  0  0  0  0  0  0  0  0  0  0  0
   57.3336   54.7275   29.5712 H   0  0  0  0  0  0  0  0  0  0  0  0
   57.3309   68.9024   28.5307 H   0  0  0  0  0  0  0  0  0  0  0  0
   57.9696   68.3196   26.9562 H   0  0  0  0  0  0  0  0  0  0  0  0
   57.6080   65.9885   27.6597 H   0  0  0  0  0  0  0  0  0  0  0  0
   59.3941   65.8870   29.3538 H   0  0  0  0  0  0  0  0  0  0  0  0
   59.2297   67.6563   29.6162 H   0  0  0  0  0  0  0  0  0  0  0  0
   59.7631   67.0309   28.0190 H   0  0  0  0  0  0  0  0  0  0  0  0
   55.6284   66.4014   29.0419 H   0  0  0  0  0  0  0  0  0  0  0  0
   56.6609   67.1684   30.2958 H   0  0  0  0  0  0  0  0  0  0  0  0
   56.8639   65.4263   29.9077 H   0  0  0  0  0  0  0  0  0  0  0  0
   54.3780   67.5842   23.3860 H   0  0  0  0  0  0  0  0  0  0  0  0
   52.7858   66.8178   23.7085 H   0  0  0  0  0  0  0  0  0  0  0  0
   53.8900   66.1120   22.4800 H   0  0  0  0  0  0  0  0  0  0  0  0
   55.6317   60.5129   21.3642 H   0  0  0  0  0  0  0  0  0  0  0  0
   58.1040   60.2926   21.3186 H   0  0  0  0  0  0  0  0  0  0  0  0
   58.0253   59.1078   22.6665 H   0  0  0  0  0  0  0  0  0  0  0  0
   57.5443   60.8163   22.9431 H   0  0  0  0  0  0  0  0  0  0  0  0
   55.1772   58.2127   20.5817 H   0  0  0  0  0  0  0  0  0  0  0  0
   56.6795   57.6422   21.3842 H   0  0  0  0  0  0  0  0  0  0  0  0
   56.7781   58.7837   20.0008 H   0  0  0  0  0  0  0  0  0  0  0  0
   56.5984   59.1539   28.8946 H   0  0  0  0  0  0  0  0  0  0  0  0
   54.4348   59.8487   29.9589 H   0  0  0  0  0  0  0  0  0  0  0  0
   53.5202   58.9150   28.7267 H   0  0  0  0  0  0  0  0  0  0  0  0
   54.4611   60.3653   28.2388 H   0  0  0  0  0  0  0  0  0  0  0  0
   56.2853   56.7483   29.5267 H   0  0  0  0  0  0  0  0  0  0  0  0
   54.5074   56.9475   29.3655 H   0  0  0  0  0  0  0  0  0  0  0  0
   55.3974   57.8321   30.6508 H   0  0  0  0  0  0  0  0  0  0  0  0
   56.5380   54.2323   24.3076 H   0  0  0  0  0  0  0  0  0  0  0  0
   57.4934   55.7290   22.5394 H   0  0  0  0  0  0  0  0  0  0  0  0
   58.5812   56.4932   23.7474 H   0  0  0  0  0  0  0  0  0  0  0  0
   56.8080   56.7668   23.8355 H   0  0  0  0  0  0  0  0  0  0  0  0
   58.8841   53.1963   24.5307 H   0  0  0  0  0  0  0  0  0  0  0  0
   59.5990   54.8132   24.2125 H   0  0  0  0  0  0  0  0  0  0  0  0
   58.6795   53.9679   22.9215 H   0  0  0  0  0  0  0  0  0  0  0  0
   59.1371   50.8690   30.3570 H   0  0  0  0  0  0  0  0  0  0  0  0
   57.3419   50.9319   30.3593 H   0  0  0  0  0  0  0  0  0  0  0  0
   58.2682   51.6682   31.7109 H   0  0  0  0  0  0  0  0  0  0  0  0
  1  2  1  0  0  0  0
  1  3  2  0  0  0  0
  1  4  1  0  0  0  0
  4  5  1  0  0  0  0
  4 49  1  0  0  0  0
  4 50  1  0  0  0  0
  5  6  1  0  0  0  0
  5  7  1  0  0  0  0
  5 51  1  1  0  0  0
  6 52  1  0  0  0  0
  7  8  1  0  0  0  0
  7 34  1  0  0  0  0
  7 53  1  1  0  0  0
  8  9  1  0  0  0  0
  8 54  1  0  0  0  0
  9 10  2  0  0  0  0
  9 11  1  0  0  0  0
 11 12  1  0  0  0  0
 11 38  1  0  0  0  0
 11 55  1  6  0  0  0
 12 13  1  0  0  0  0
 12 56  1  0  0  0  0
 13 14  2  0  0  0  0
 13 15  1  0  0  0  0
 15 16  1  0  0  0  0
 15 57  1  0  0  0  0
 15 58  1  0  0  0  0
 16 17  1  0  0  0  0
 16 18  1  0  0  0  0
 16 59  1  6  0  0  0
 17 60  1  0  0  0  0
 18 19  1  0  0  0  0
 18 20  1  0  0  0  0
 18 61  1  1  0  0  0
 19 39  1  0  0  0  0
 19 62  1  0  0  0  0
 19 63  1  0  0  0  0
 20 21  1  0  0  0  0
 20 64  1  0  0  0  0
 21 22  2  0  0  0  0
 21 23  1  0  0  0  0
 23 24  1  0  0  0  0
 23 42  1  0  0  0  0
 23 65  1  6  0  0  0
 24 25  1  0  0  0  0
 24 66  1  0  0  0  0
 25 26  2  0  0  0  0
 25 27  1  0  0  0  0
 27 28  1  0  0  0  0
 27 45  1  0  0  0  0
 27 67  1  1  0  0  0
 28 29  1  0  0  0  0
 28 68  1  0  0  0  0
 29 30  2  0  0  0  0
 29 31  1  0  0  0  0
 31 32  1  0  0  0  0
 31 69  1  0  0  0  0
 31 70  1  0  0  0  0
 32 33  1  0  0  0  0
 32 48  1  0  0  0  0
 32 71  1  0  0  0  0
 33 72  1  0  0  0  0
 33 73  1  0  0  0  0
 33 74  1  0  0  0  0
 34 35  1  0  0  0  0
 34 75  1  0  0  0  0
 34 76  1  0  0  0  0
 35 36  1  0  0  0  0
 35 37  1  0  0  0  0
 35 77  1  0  0  0  0
 36 78  1  0  0  0  0
 36 79  1  0  0  0  0
 36 80  1  0  0  0  0
 37 81  1  0  0  0  0
 37 82  1  0  0  0  0
 37 83  1  0  0  0  0
 38 84  1  0  0  0  0
 38 85  1  0  0  0  0
 38 86  1  0  0  0  0
 39 40  1  0  0  0  0
 39 41  1  0  0  0  0
 39 87  1  0  0  0  0
 40 88  1  0  0  0  0
 40 89  1  0  0  0  0
 40 90  1  0  0  0  0
 41 91  1  0  0  0  0
 41 92  1  0  0  0  0
 41 93  1  0  0  0  0
 42 43  1  0  0  0  0
 42 44  1  0  0  0  0
 42 94  1  0  0  0  0
 43 95  1  0  0  0  0
 43 96  1  0  0  0  0
 43 97  1  0  0  0  0
 44 98  1  0  0  0  0
 44 99  1  0  0  0  0
 44100  1  0  0  0  0
 45 46  1  0  0  0  0
 45 47  1  0  0  0  0
 45101  1  0  0  0  0
 46102  1  0  0  0  0
 46103  1  0  0  0  0
 46104  1  0  0  0  0
 47105  1  0  0  0  0
 47106  1  0  0  0  0
 47107  1  0  0  0  0
 48108  1  0  0  0  0
 48109  1  0  0  0  0
 48110  1  0  0  0  0
M  CHG  1   2  -1
M  END
