1sps_ligand
 OpenBabel08222323343D

111113  0  0  1  0  0  0  0  0999 V2000
   69.1890   95.0830   15.6060 N   0  3  0  0  0  0  0  0  0  0  0  0
   70.2630   95.4900   16.5160 C   0  0  2  0  0  0  0  0  0  0  0  0
   71.0660   94.2840   16.9690 C   0  0  0  0  0  0  0  0  0  0  0  0
   70.4880   93.2120   17.1230 O   0  0  0  0  0  0  0  0  0  0  0  0
   69.5890   96.2040   17.6710 C   0  0  0  0  0  0  0  0  0  0  0  0
   68.2580   95.4820   17.7770 C   0  0  0  0  0  0  0  0  0  0  0  0
   67.9200   95.2630   16.3100 C   0  0  0  0  0  0  0  0  0  0  0  0
   72.3680   94.4080   17.2300 N   0  0  0  0  0  0  0  0  0  0  0  0
   73.1510   93.2190   17.5880 C   0  0  2  0  0  0  0  0  0  0  0  0
   73.1020   92.9350   19.0720 C   0  0  0  0  0  0  0  0  0  0  0  0
   72.9640   93.7940   19.9420 O   0  0  0  0  0  0  0  0  0  0  0  0
   74.6320   93.3380   17.2400 C   0  0  0  0  0  0  0  0  0  0  0  0
   69.3049   94.1153   15.3487 H   0  0  0  0  0  0  0  0  0  0  0  0
   73.1430   91.6420   19.3050 N   0  0  0  0  0  0  0  0  0  0  0  0
   73.1040   91.1190   20.6440 C   0  0  2  0  0  0  0  0  0  0  0  0
   74.3120   90.2300   20.8510 C   0  0  0  0  0  0  0  0  0  0  0  0
   74.7250   89.5130   19.9420 O   0  0  0  0  0  0  0  0  0  0  0  0
   71.8360   90.3010   20.8620 C   0  0  0  0  0  0  0  0  0  0  0  0
   70.5210   91.0580   21.0580 C   0  0  0  0  0  0  0  0  0  0  0  0
   69.9530   91.7590   20.0120 C   0  0  0  0  0  0  0  0  0  0  0  0
   69.8770   90.9990   22.2780 C   0  0  0  0  0  0  0  0  0  0  0  0
   68.7370   92.3920   20.1700 C   0  0  0  0  0  0  0  0  0  0  0  0
   68.6640   91.6250   22.4540 C   0  0  0  0  0  0  0  0  0  0  0  0
   68.1180   92.3040   21.3930 C   0  0  0  0  0  0  0  0  0  0  0  0
   66.8260   92.8920   21.5470 O   0  0  0  0  0  0  0  0  0  0  0  0
   69.2060   95.6556   14.7766 H   0  0  0  0  0  0  0  0  0  0  0  0
   74.9110   90.2870   22.0330 N   0  0  0  0  0  0  0  0  0  0  0  0
   75.9820   89.3840   22.3480 C   0  0  2  0  0  0  0  0  0  0  0  0
   75.4570   87.9920   22.5910 C   0  0  0  0  0  0  0  0  0  0  0  0
   74.3720   87.7980   23.1210 O   0  0  0  0  0  0  0  0  0  0  0  0
   76.7000   89.8080   23.5820 C   0  0  0  0  0  0  0  0  0  0  0  0
   77.5070   91.0530   23.4770 C   0  0  0  0  0  0  0  0  0  0  0  0
   78.6670   90.9100   22.5290 C   0  0  0  0  0  0  0  0  0  0  0  0
   79.7530   90.4670   22.9280 O   0  5  0  0  0  0  0  0  0  0  0  0
   78.4660   91.2690   21.3760 O   0  0  0  0  0  0  0  0  0  0  0  0
   70.9409   96.1873   16.0020 H   0  0  0  0  0  0  0  0  0  0  0  0
   76.2170   87.0090   22.1430 N   0  0  0  0  0  0  0  0  0  0  0  0
   75.9160   85.6360   22.5060 C   0  0  2  0  0  0  0  0  0  0  0  0
   77.1100   85.0830   23.2660 C   0  0  0  0  0  0  0  0  0  0  0  0
   78.2470   85.4630   22.9860 O   0  0  0  0  0  0  0  0  0  0  0  0
   75.6530   84.7990   21.2550 C   0  0  0  0  0  0  0  0  0  0  0  0
   74.2700   85.0830   20.6560 C   0  0  0  0  0  0  0  0  0  0  0  0
   73.9870   84.4120   19.3130 C   0  0  0  0  0  0  0  0  0  0  0  0
   73.8540   83.1830   19.2760 O   0  5  0  0  0  0  0  0  0  0  0  0
   73.8890   85.1300   18.3090 O   0  0  0  0  0  0  0  0  0  0  0  0
   69.4447   97.2714   17.4479 H   0  0  0  0  0  0  0  0  0  0  0  0
   76.8130   84.2570   24.2800 N   0  0  0  0  0  0  0  0  0  0  0  0
   77.8270   83.5860   25.0920 C   0  0  2  0  0  0  0  0  0  0  0  0
   78.4480   82.5010   24.1970 C   0  0  0  0  0  0  0  0  0  0  0  0
   77.6740   81.7940   23.5460 O   0  0  0  0  0  0  0  0  0  0  0  0
   77.1330   82.9890   26.3620 C   0  0  2  0  0  0  0  0  0  0  0  0
   76.4920   84.1040   27.1940 C   0  0  0  0  0  0  0  0  0  0  0  0
   78.1680   82.1990   27.1700 C   0  0  0  0  0  0  0  0  0  0  0  0
   76.0240   83.6770   28.5950 C   0  0  0  0  0  0  0  0  0  0  0  0
   70.1725   96.0986   18.5975 H   0  0  0  0  0  0  0  0  0  0  0  0
   79.7670   82.3520   24.0260 N   0  0  0  0  0  0  0  0  0  0  0  0
   80.3390   81.8440   22.7780 C   0  0  2  0  0  0  0  0  0  0  0  0
   79.8830   80.4710   22.2690 C   0  0  0  0  0  0  0  0  0  0  0  0
   79.3310   80.3910   21.1430 O   0  0  0  0  0  0  0  0  0  0  0  0
   81.8410   81.9380   23.0240 C   0  0  0  0  0  0  0  0  0  0  0  0
   81.9790   82.1640   24.5110 C   0  0  0  0  0  0  0  0  0  0  0  0
   80.7850   83.0210   24.8000 C   0  0  0  0  0  0  0  0  0  0  0  0
   68.3595   94.5272   18.3137 H   0  0  0  0  0  0  0  0  0  0  0  0
   67.5009   96.1046   18.2761 H   0  0  0  0  0  0  0  0  0  0  0  0
   67.2931   94.3664   16.1957 H   0  0  0  0  0  0  0  0  0  0  0  0
   67.3858   96.1374   15.9100 H   0  0  0  0  0  0  0  0  0  0  0  0
   72.8079   95.3048   17.1822 H   0  0  0  0  0  0  0  0  0  0  0  0
   72.7256   92.3637   17.0427 H   0  0  0  0  0  0  0  0  0  0  0  0
   75.1532   92.4154   17.5351 H   0  0  0  0  0  0  0  0  0  0  0  0
   75.0675   94.1931   17.7777 H   0  0  0  0  0  0  0  0  0  0  0  0
   74.7429   93.4912   16.1564 H   0  0  0  0  0  0  0  0  0  0  0  0
   73.2026   91.0079   18.5340 H   0  0  0  0  0  0  0  0  0  0  0  0
   73.1284   91.9512   21.3629 H   0  0  0  0  0  0  0  0  0  0  0  0
   71.9948   89.6829   21.7579 H   0  0  0  0  0  0  0  0  0  0  0  0
   71.7114   89.6496   19.9844 H   0  0  0  0  0  0  0  0  0  0  0  0
   70.4668   91.8123   19.0590 H   0  0  0  0  0  0  0  0  0  0  0  0
   70.3289   90.4571   23.1009 H   0  0  0  0  0  0  0  0  0  0  0  0
   68.2839   92.9422   19.3533 H   0  0  0  0  0  0  0  0  0  0  0  0
   68.1516   91.5829   23.4083 H   0  0  0  0  0  0  0  0  0  0  0  0
   66.1929   92.2138   21.7512 H   0  0  0  0  0  0  0  0  0  0  0  0
   74.6151   90.9625   22.7084 H   0  0  0  0  0  0  0  0  0  0  0  0
   76.6871   89.3667   21.5039 H   0  0  0  0  0  0  0  0  0  0  0  0
   77.3780   88.9921   23.8729 H   0  0  0  0  0  0  0  0  0  0  0  0
   75.9494   89.9602   24.3716 H   0  0  0  0  0  0  0  0  0  0  0  0
   77.8958   91.3065   24.4743 H   0  0  0  0  0  0  0  0  0  0  0  0
   76.8573   91.8654   23.1193 H   0  0  0  0  0  0  0  0  0  0  0  0
   76.9995   87.2105   21.5539 H   0  0  0  0  0  0  0  0  0  0  0  0
   75.0245   85.6116   23.1499 H   0  0  0  0  0  0  0  0  0  0  0  0
   75.7130   83.7334   21.5212 H   0  0  0  0  0  0  0  0  0  0  0  0
   76.4209   85.0329   20.5029 H   0  0  0  0  0  0  0  0  0  0  0  0
   74.1766   86.1703   20.5184 H   0  0  0  0  0  0  0  0  0  0  0  0
   73.5117   84.7378   21.3742 H   0  0  0  0  0  0  0  0  0  0  0  0
   75.8497   84.0917   24.4913 H   0  0  0  0  0  0  0  0  0  0  0  0
   78.6044   84.2988   25.4044 H   0  0  0  0  0  0  0  0  0  0  0  0
   76.3389   82.2988   26.0411 H   0  0  0  0  0  0  0  0  0  0  0  0
   75.6190   84.4833   26.6427 H   0  0  0  0  0  0  0  0  0  0  0  0
   77.2304   84.9108   27.3113 H   0  0  0  0  0  0  0  0  0  0  0  0
   78.6028   81.4108   26.5378 H   0  0  0  0  0  0  0  0  0  0  0  0
   77.6799   81.7411   28.0430 H   0  0  0  0  0  0  0  0  0  0  0  0
   78.9643   82.8779   27.5092 H   0  0  0  0  0  0  0  0  0  0  0  0
   75.5803   84.5404   29.1123 H   0  0  0  0  0  0  0  0  0  0  0  0
   76.8842   83.3064   29.1718 H   0  0  0  0  0  0  0  0  0  0  0  0
   75.2727   82.8788   28.5032 H   0  0  0  0  0  0  0  0  0  0  0  0
   80.0725   82.5541   21.9813 H   0  0  0  0  0  0  0  0  0  0  0  0
   80.0353   79.5787   22.8744 H   0  0  0  0  0  0  0  0  0  0  0  0
   82.2729   82.7799   22.4631 H   0  0  0  0  0  0  0  0  0  0  0  0
   82.3409   81.0044   22.7267 H   0  0  0  0  0  0  0  0  0  0  0  0
   81.9357   81.2155   25.0664 H   0  0  0  0  0  0  0  0  0  0  0  0
   82.9160   82.6875   24.7517 H   0  0  0  0  0  0  0  0  0  0  0  0
   80.5401   83.0229   25.8724 H   0  0  0  0  0  0  0  0  0  0  0  0
   80.9382   84.0548   24.4569 H   0  0  0  0  0  0  0  0  0  0  0  0
  1  7  1  0  0  0  0
  1 13  1  0  0  0  0
  1 26  1  0  0  0  0
  2  5  1  0  0  0  0
  2  1  1  0  0  0  0
  2 36  1  6  0  0  0
  3  2  1  0  0  0  0
  3  4  2  0  0  0  0
  5  6  1  0  0  0  0
  5 46  1  0  0  0  0
  5 55  1  0  0  0  0
  6 63  1  0  0  0  0
  6 64  1  0  0  0  0
  7  6  1  0  0  0  0
  7 65  1  0  0  0  0
  7 66  1  0  0  0  0
  8  3  1  0  0  0  0
  8 67  1  0  0  0  0
  9  8  1  0  0  0  0
  9 12  1  0  0  0  0
  9 68  1  6  0  0  0
 10  9  1  0  0  0  0
 10 11  2  0  0  0  0
 12 69  1  0  0  0  0
 12 70  1  0  0  0  0
 12 71  1  0  0  0  0
 14 10  1  0  0  0  0
 14 72  1  0  0  0  0
 15 14  1  0  0  0  0
 15 18  1  0  0  0  0
 15 73  1  1  0  0  0
 16 15  1  0  0  0  0
 16 17  2  0  0  0  0
 18 19  1  0  0  0  0
 18 74  1  0  0  0  0
 18 75  1  0  0  0  0
 19 20  2  0  0  0  0
 19 21  1  0  0  0  0
 20 22  1  0  0  0  0
 20 76  1  0  0  0  0
 21 23  2  0  0  0  0
 21 77  1  0  0  0  0
 22 24  2  0  0  0  0
 22 78  1  0  0  0  0
 23 24  1  0  0  0  0
 23 79  1  0  0  0  0
 24 25  1  0  0  0  0
 25 80  1  0  0  0  0
 27 16  1  0  0  0  0
 27 81  1  0  0  0  0
 28 27  1  0  0  0  0
 28 31  1  0  0  0  0
 28 82  1  6  0  0  0
 29 28  1  0  0  0  0
 29 30  2  0  0  0  0
 31 32  1  0  0  0  0
 31 83  1  0  0  0  0
 31 84  1  0  0  0  0
 32 33  1  0  0  0  0
 32 85  1  0  0  0  0
 32 86  1  0  0  0  0
 33 35  2  0  0  0  0
 33 34  1  0  0  0  0
 37 29  1  0  0  0  0
 37 87  1  0  0  0  0
 38 37  1  0  0  0  0
 38 41  1  0  0  0  0
 38 88  1  1  0  0  0
 39 38  1  0  0  0  0
 39 40  2  0  0  0  0
 41 42  1  0  0  0  0
 41 89  1  0  0  0  0
 41 90  1  0  0  0  0
 42 43  1  0  0  0  0
 42 91  1  0  0  0  0
 42 92  1  0  0  0  0
 43 45  2  0  0  0  0
 43 44  1  0  0  0  0
 47 39  1  0  0  0  0
 47 93  1  0  0  0  0
 48 47  1  0  0  0  0
 48 51  1  0  0  0  0
 48 94  1  1  0  0  0
 49 48  1  0  0  0  0
 49 50  2  0  0  0  0
 49 56  1  0  0  0  0
 51 53  1  0  0  0  0
 51 52  1  0  0  0  0
 51 95  1  6  0  0  0
 52 54  1  0  0  0  0
 52 96  1  0  0  0  0
 52 97  1  0  0  0  0
 53 98  1  0  0  0  0
 53 99  1  0  0  0  0
 53100  1  0  0  0  0
 54101  1  0  0  0  0
 54102  1  0  0  0  0
 54103  1  0  0  0  0
 56 57  1  0  0  0  0
 56 62  1  0  0  0  0
 57 58  1  0  0  0  0
 57 60  1  0  0  0  0
 57104  1  6  0  0  0
 58 59  2  0  0  0  0
 58105  1  0  0  0  0
 60106  1  0  0  0  0
 60107  1  0  0  0  0
 61 60  1  0  0  0  0
 61108  1  0  0  0  0
 61109  1  0  0  0  0
 62 61  1  0  0  0  0
 62110  1  0  0  0  0
 62111  1  0  0  0  0
M  CHG  3   1   1  34  -1  44  -1
M  END
