1sqb_ligand
 OpenBabel08222323343D

 47 49  0  0  0  0  0  0  0  0999 V2000
   73.1010   52.1851  160.5192 H   0  0  0  0  0  0  0  0  0  0  0  0
   71.0207   52.7649  159.2888 H   0  0  0  0  0  0  0  0  0  0  0  0
   69.4206   54.4390  160.1695 H   0  0  0  0  0  0  0  0  0  0  0  0
   69.8003   55.5335  162.3697 H   0  0  0  0  0  0  0  0  0  0  0  0
   71.8319   56.3533  166.2675 H   0  0  0  0  0  0  0  0  0  0  0  0
   68.6734   52.5828  165.9137 H   0  0  0  0  0  0  0  0  0  0  0  0
   69.8662   53.9036  169.8563 H   0  0  0  0  0  0  0  0  0  0  0  0
   68.2379   53.7218  171.7218 H   0  0  0  0  0  0  0  0  0  0  0  0
   66.9051   55.6840  172.4239 H   0  0  0  0  0  0  0  0  0  0  0  0
   67.1410   57.8772  171.2899 H   0  0  0  0  0  0  0  0  0  0  0  0
   65.1263   57.7748  166.5651 H   0  0  0  0  0  0  0  0  0  0  0  0
   66.4855   58.6956  165.8363 H   0  0  0  0  0  0  0  0  0  0  0  0
   65.4152   59.4810  167.0463 H   0  0  0  0  0  0  0  0  0  0  0  0
   70.0128   60.3850  169.1665 H   0  0  0  0  0  0  0  0  0  0  0  0
   72.2312   59.3196  171.7607 H   0  0  0  0  0  0  0  0  0  0  0  0
   71.1303   60.6717  171.3288 H   0  0  0  0  0  0  0  0  0  0  0  0
   72.2286   59.9767  170.0889 H   0  0  0  0  0  0  0  0  0  0  0  0
   74.8120   52.9000  163.4520 N   0  0  0  0  0  0  0  0  0  0  0  0
   73.8690   53.1850  162.8790 C   0  0  0  0  0  0  0  0  0  0  0  0
   72.6690   53.5090  162.1730 C   0  0  0  0  0  0  0  0  0  0  0  0
   72.4060   52.9050  160.9360 C   0  0  0  0  0  0  0  0  0  0  0  0
   71.2270   53.2440  160.2390 C   0  0  0  0  0  0  0  0  0  0  0  0
   70.3050   54.1930  160.7460 C   0  0  0  0  0  0  0  0  0  0  0  0
   70.5200   54.8200  161.9850 C   0  0  0  0  0  0  0  0  0  0  0  0
   71.6880   54.5100  162.7270 C   0  0  0  0  0  0  0  0  0  0  0  0
   71.8990   55.0640  163.9710 O   0  0  0  0  0  0  0  0  0  0  0  0
   71.0620   54.7580  165.0250 C   0  0  0  0  0  0  0  0  0  0  0  0
   71.1060   55.5540  166.1720 C   0  0  0  0  0  0  0  0  0  0  0  0
   70.1860   55.2910  167.1960 C   0  0  0  0  0  0  0  0  0  0  0  0
   69.3380   54.2220  167.0750 N   0  0  0  0  0  0  0  0  0  0  0  0
   69.3440   53.4320  165.9780 C   0  0  0  0  0  0  0  0  0  0  0  0
   70.1890   53.7070  164.9650 N   0  0  0  0  0  0  0  0  0  0  0  0
   70.2280   56.0870  168.3290 O   0  0  0  0  0  0  0  0  0  0  0  0
   69.3540   55.9640  169.3850 C   0  0  0  0  0  0  0  0  0  0  0  0
   69.2500   54.7550  170.1220 C   0  0  0  0  0  0  0  0  0  0  0  0
   68.3500   54.6620  171.1940 C   0  0  0  0  0  0  0  0  0  0  0  0
   67.5910   55.7800  171.5900 C   0  0  0  0  0  0  0  0  0  0  0  0
   67.7000   57.0210  170.9300 C   0  0  0  0  0  0  0  0  0  0  0  0
   68.5330   57.1480  169.8060 C   0  0  0  0  0  0  0  0  0  0  0  0
   68.7050   58.4960  169.1480 C   0  0  0  0  0  0  0  0  0  0  0  0
   67.8550   58.9390  168.2230 C   0  0  0  0  0  0  0  0  0  0  0  0
   67.9810   60.0560  167.7100 O   0  0  0  0  0  0  0  0  0  0  0  0
   66.7570   58.0960  167.7990 O   0  0  0  0  0  0  0  0  0  0  0  0
   65.8970   58.5370  166.7520 C   0  0  0  0  0  0  0  0  0  0  0  0
   69.8280   59.3980  169.5880 C   0  0  0  0  0  0  0  0  0  0  0  0
   70.6100   58.8230  170.6030 O   0  0  0  0  0  0  0  0  0  0  0  0
   71.6040   59.7480  170.9650 C   0  0  0  0  0  0  0  0  0  0  0  0
 19 18  3  0  0  0  0
 20 19  1  0  0  0  0
 20 21  2  0  0  0  0
 21  1  1  0  0  0  0
 21 22  1  0  0  0  0
 22  2  1  0  0  0  0
 23  3  1  0  0  0  0
 23 22  2  0  0  0  0
 24  4  1  0  0  0  0
 24 23  1  0  0  0  0
 25 20  1  0  0  0  0
 25 24  2  0  0  0  0
 26 25  1  0  0  0  0
 27 26  1  0  0  0  0
 27 32  1  0  0  0  0
 28  5  1  0  0  0  0
 28 27  2  0  0  0  0
 29 28  1  0  0  0  0
 29 30  2  0  0  0  0
 30 31  1  0  0  0  0
 31  6  1  0  0  0  0
 31 32  2  0  0  0  0
 33 29  1  0  0  0  0
 34 33  1  0  0  0  0
 34 35  2  0  0  0  0
 35  7  1  0  0  0  0
 35 36  1  0  0  0  0
 36  8  1  0  0  0  0
 37  9  1  0  0  0  0
 37 36  2  0  0  0  0
 38 10  1  0  0  0  0
 38 37  1  0  0  0  0
 39 34  1  0  0  0  0
 39 38  2  0  0  0  0
 40 39  1  0  0  0  0
 40 41  1  0  0  0  0
 41 42  2  0  0  0  0
 41 43  1  0  0  0  0
 43 44  1  0  0  0  0
 44 11  1  0  0  0  0
 44 12  1  0  0  0  0
 44 13  1  0  0  0  0
 45 14  1  0  0  0  0
 45 40  2  0  0  0  0
 46 45  1  0  0  0  0
 47 15  1  0  0  0  0
 47 16  1  0  0  0  0
 47 17  1  0  0  0  0
 47 46  1  0  0  0  0
M  END
