1sts_ligand
 OpenBabel08222323343D

112114  0  0  1  0  0  0  0  0999 V2000
   15.4120   -2.5770   21.1650 N   0  3  0  0  0  0  0  0  0  0  0  0
   15.7730   -1.1840   20.9680 C   0  0  2  0  0  0  0  0  0  0  0  0
   17.1860   -1.1900   21.5450 C   0  0  0  0  0  0  0  0  0  0  0  0
   17.3380   -1.9530   22.4970 O   0  0  0  0  0  0  0  0  0  0  0  0
   15.0060   -0.1770   21.8490 C   0  0  0  0  0  0  0  0  0  0  0  0
   13.5060   -0.2560   22.1240 C   0  0  0  0  0  0  0  0  0  0  0  0
   12.7320   -1.3930   21.8690 C   0  0  0  0  0  0  0  0  0  0  0  0
   12.9030    0.8790   22.6730 C   0  0  0  0  0  0  0  0  0  0  0  0
   11.3640   -1.3850   22.1620 C   0  0  0  0  0  0  0  0  0  0  0  0
   11.5370    0.8800   22.9620 C   0  0  0  0  0  0  0  0  0  0  0  0
   10.7630   -0.2500   22.7070 C   0  0  0  0  0  0  0  0  0  0  0  0
   18.2050   -0.5270   20.9890 N   0  0  0  0  0  0  0  0  0  0  0  0
   19.5640   -0.4610   21.5470 C   0  0  2  0  0  0  0  0  0  0  0  0
   20.6430    0.1660   20.6640 C   0  0  0  0  0  0  0  0  0  0  0  0
   21.8170   -0.2120   20.5850 O   0  0  0  0  0  0  0  0  0  0  0  0
   20.1360   -1.8040   21.9970 C   0  0  0  0  0  0  0  0  0  0  0  0
   20.7260   -1.4620   23.6720 S   0  0  0  0  0  0  0  0  0  0  0  0
   20.1630    1.1340   19.9130 N   0  0  0  0  0  0  0  0  0  0  0  0
   20.9400    1.9930   19.0470 C   0  0  2  0  0  0  0  0  0  0  0  0
   19.8790    3.0810   18.8990 C   0  0  0  0  0  0  0  0  0  0  0  0
   18.6960    2.7630   18.6790 O   0  0  0  0  0  0  0  0  0  0  0  0
   21.3250    1.5140   17.6110 C   0  0  0  0  0  0  0  0  0  0  0  0
   22.2580    2.5970   16.9780 C   0  0  0  0  0  0  0  0  0  0  0  0
   21.7630    3.6490   16.3250 N   0  0  0  0  0  0  0  0  0  0  0  0
   23.6200    2.7390   17.2060 C   0  0  0  0  0  0  0  0  0  0  0  0
   22.8080    4.4430   16.1470 C   0  0  0  0  0  0  0  0  0  0  0  0
   23.8990    3.9080   16.6740 N   0  0  0  0  0  0  0  0  0  0  0  0
   20.2260    4.3630   19.1110 N   0  0  0  0  0  0  0  0  0  0  0  0
   19.2780    5.4490   19.0130 C   0  0  2  0  0  0  0  0  0  0  0  0
   18.5750    5.6420   17.6760 C   0  0  0  0  0  0  0  0  0  0  0  0
   17.5010    6.2460   17.6490 O   0  0  0  0  0  0  0  0  0  0  0  0
   20.0680    6.6940   19.3880 C   0  0  0  0  0  0  0  0  0  0  0  0
   21.3890    6.2190   19.9510 C   0  0  0  0  0  0  0  0  0  0  0  0
   21.5970    4.8610   19.3830 C   0  0  0  0  0  0  0  0  0  0  0  0
   19.1800    5.1970   16.5620 N   0  0  0  0  0  0  0  0  0  0  0  0
   18.6230    5.3950   15.2280 C   0  0  2  0  0  0  0  0  0  0  0  0
   17.2180    4.8570   15.0490 C   0  0  0  0  0  0  0  0  0  0  0  0
   16.3680    5.6160   14.5650 O   0  0  0  0  0  0  0  0  0  0  0  0
   19.5540    4.7760   14.2030 C   0  0  0  0  0  0  0  0  0  0  0  0
   19.1250    5.0850   12.7710 C   0  0  0  0  0  0  0  0  0  0  0  0
   20.2050    4.8740   11.7200 C   0  0  0  0  0  0  0  0  0  0  0  0
   21.3660    5.1360   11.9980 O   0  0  0  0  0  0  0  0  0  0  0  0
   19.9320    4.4070   10.5190 N   0  0  0  0  0  0  0  0  0  0  0  0
   16.8830    3.6080   15.3820 N   0  0  0  0  0  0  0  0  0  0  0  0
   15.5030    3.2400   15.1710 C   0  0  2  0  0  0  0  0  0  0  0  0
   14.9680    2.4980   16.3310 C   0  0  0  0  0  0  0  0  0  0  0  0
   15.6630    1.7490   17.0100 O   0  0  0  0  0  0  0  0  0  0  0  0
   15.2660    2.3580   13.9370 C   0  0  0  0  0  0  0  0  0  0  0  0
   15.1760    3.1570   12.6500 C   0  0  0  0  0  0  0  0  0  0  0  0
   14.3070    4.0140   12.4070 O   0  0  0  0  0  0  0  0  0  0  0  0
   16.1310    2.8830   11.7880 N   0  0  0  0  0  0  0  0  0  0  0  0
   13.7280    2.9520   16.4870 N   0  0  0  0  0  0  0  0  0  0  0  0
   12.7100    2.5560   17.4480 C   0  0  2  0  0  0  0  0  0  0  0  0
   13.0550    1.9640   18.8200 C   0  0  0  0  0  0  0  0  0  0  0  0
   14.1590    2.0670   19.3630 O   0  0  0  0  0  0  0  0  0  0  0  0
   11.7690    1.6350   16.5790 C   0  0  2  0  0  0  0  0  0  0  0  0
   10.4470    1.7990   17.0990 O   0  0  0  0  0  0  0  0  0  0  0  0
   12.2210    0.1630   16.5500 C   0  0  0  0  0  0  0  0  0  0  0  0
   12.0380    1.3770   19.4400 N   0  0  0  0  0  0  0  0  0  0  0  0
   14.4769   -2.7334   20.8227 H   0  0  0  0  0  0  0  0  0  0  0  0
   15.4516   -2.7987   22.1475 H   0  0  0  0  0  0  0  0  0  0  0  0
   16.0569   -3.1657   20.6614 H   0  0  0  0  0  0  0  0  0  0  0  0
   15.7227   -0.8963   19.9075 H   0  0  0  0  0  0  0  0  0  0  0  0
   15.1742    0.8090   21.3913 H   0  0  0  0  0  0  0  0  0  0  0  0
   15.4926   -0.2114   22.8349 H   0  0  0  0  0  0  0  0  0  0  0  0
   13.1913   -2.2787   21.4451 H   0  0  0  0  0  0  0  0  0  0  0  0
   13.4982    1.7621   22.8753 H   0  0  0  0  0  0  0  0  0  0  0  0
   10.7664   -2.2675   21.9640 H   0  0  0  0  0  0  0  0  0  0  0  0
   11.0764    1.7645   23.3869 H   0  0  0  0  0  0  0  0  0  0  0  0
    9.7022   -0.2474   22.9303 H   0  0  0  0  0  0  0  0  0  0  0  0
   18.0307   -0.0412   20.1325 H   0  0  0  0  0  0  0  0  0  0  0  0
   19.4758    0.1730   22.4416 H   0  0  0  0  0  0  0  0  0  0  0  0
   20.9634   -2.1190   21.3441 H   0  0  0  0  0  0  0  0  0  0  0  0
   19.3580   -2.5816   22.0040 H   0  0  0  0  0  0  0  0  0  0  0  0
   21.1281   -2.2996   24.0629 H   0  0  0  0  0  0  0  0  0  0  0  0
   19.1756    1.2891   19.9437 H   0  0  0  0  0  0  0  0  0  0  0  0
   21.8513    2.3372   19.5579 H   0  0  0  0  0  0  0  0  0  0  0  0
   20.4179    1.3985   16.9996 H   0  0  0  0  0  0  0  0  0  0  0  0
   21.8543    0.5514   17.6673 H   0  0  0  0  0  0  0  0  0  0  0  0
   24.2959    2.0470   17.7062 H   0  0  0  0  0  0  0  0  0  0  0  0
   22.7747    5.4046   15.6369 H   0  0  0  0  0  0  0  0  0  0  0  0
   24.8317    4.3451   16.6678 H   0  0  0  0  0  0  0  0  0  0  0  0
   18.4919    5.2792   19.7635 H   0  0  0  0  0  0  0  0  0  0  0  0
   19.5212    7.2761   20.1444 H   0  0  0  0  0  0  0  0  0  0  0  0
   20.2378    7.3174   18.4978 H   0  0  0  0  0  0  0  0  0  0  0  0
   22.2024    6.8929   19.6440 H   0  0  0  0  0  0  0  0  0  0  0  0
   21.3449    6.1739   21.0492 H   0  0  0  0  0  0  0  0  0  0  0  0
   22.1841    4.9130   18.4542 H   0  0  0  0  0  0  0  0  0  0  0  0
   22.1114    4.2109   20.1061 H   0  0  0  0  0  0  0  0  0  0  0  0
   20.0486    4.7096   16.6508 H   0  0  0  0  0  0  0  0  0  0  0  0
   18.5820    6.4791   15.0462 H   0  0  0  0  0  0  0  0  0  0  0  0
   19.5596    3.6850   14.3431 H   0  0  0  0  0  0  0  0  0  0  0  0
   20.5682    5.1713   14.3617 H   0  0  0  0  0  0  0  0  0  0  0  0
   18.8078    6.1374   12.7287 H   0  0  0  0  0  0  0  0  0  0  0  0
   18.2735    4.4350   12.5214 H   0  0  0  0  0  0  0  0  0  0  0  0
   20.6669    4.2807    9.8527 H   0  0  0  0  0  0  0  0  0  0  0  0
   18.9899    4.1787   10.2735 H   0  0  0  0  0  0  0  0  0  0  0  0
   17.5502    2.9640   15.7563 H   0  0  0  0  0  0  0  0  0  0  0  0
   14.9290    4.1700   15.0462 H   0  0  0  0  0  0  0  0  0  0  0  0
   14.3240    1.8069   14.0748 H   0  0  0  0  0  0  0  0  0  0  0  0
   16.0988    1.6447   13.8500 H   0  0  0  0  0  0  0  0  0  0  0  0
   16.1610    3.3565   10.9077 H   0  0  0  0  0  0  0  0  0  0  0  0
   16.8271    2.2012   12.0129 H   0  0  0  0  0  0  0  0  0  0  0  0
   13.4547    3.6723   15.8494 H   0  0  0  0  0  0  0  0  0  0  0  0
   12.1518    3.4723   17.6904 H   0  0  0  0  0  0  0  0  0  0  0  0
   11.7845    2.0011   15.5418 H   0  0  0  0  0  0  0  0  0  0  0  0
   10.2185    2.7211   17.0950 H   0  0  0  0  0  0  0  0  0  0  0  0
   11.5256   -0.4219   15.9301 H   0  0  0  0  0  0  0  0  0  0  0  0
   12.2265   -0.2391   17.5738 H   0  0  0  0  0  0  0  0  0  0  0  0
   13.2336    0.0987   16.1253 H   0  0  0  0  0  0  0  0  0  0  0  0
   12.1728    0.9635   20.3405 H   0  0  0  0  0  0  0  0  0  0  0  0
   11.1373    1.3484   19.0064 H   0  0  0  0  0  0  0  0  0  0  0  0
  1 60  1  0  0  0  0
  1 61  1  0  0  0  0
  1 62  1  0  0  0  0
  2  1  1  0  0  0  0
  2  5  1  0  0  0  0
  2 63  1  6  0  0  0
  3  2  1  0  0  0  0
  3  4  2  0  0  0  0
  5  6  1  0  0  0  0
  5 64  1  0  0  0  0
  5 65  1  0  0  0  0
  6  7  2  0  0  0  0
  6  8  1  0  0  0  0
  7  9  1  0  0  0  0
  7 66  1  0  0  0  0
  8 10  2  0  0  0  0
  8 67  1  0  0  0  0
  9 11  2  0  0  0  0
  9 68  1  0  0  0  0
 10 11  1  0  0  0  0
 10 69  1  0  0  0  0
 11 70  1  0  0  0  0
 12  3  1  0  0  0  0
 12 71  1  0  0  0  0
 13 12  1  0  0  0  0
 13 16  1  0  0  0  0
 13 72  1  1  0  0  0
 14 13  1  0  0  0  0
 14 15  2  0  0  0  0
 16 17  1  0  0  0  0
 16 73  1  0  0  0  0
 16 74  1  0  0  0  0
 17 75  1  0  0  0  0
 18 14  1  0  0  0  0
 18 76  1  0  0  0  0
 19 18  1  0  0  0  0
 19 22  1  0  0  0  0
 19 77  1  1  0  0  0
 20 19  1  0  0  0  0
 20 21  2  0  0  0  0
 22 23  1  0  0  0  0
 22 78  1  0  0  0  0
 22 79  1  0  0  0  0
 23 24  1  0  0  0  0
 23 25  2  0  0  0  0
 24 26  2  0  0  0  0
 25 27  1  0  0  0  0
 25 80  1  0  0  0  0
 26 81  1  0  0  0  0
 27 26  1  0  0  0  0
 27 82  1  0  0  0  0
 28 34  1  0  0  0  0
 28 20  1  0  0  0  0
 29 32  1  0  0  0  0
 29 28  1  0  0  0  0
 29 83  1  1  0  0  0
 30 29  1  0  0  0  0
 30 31  2  0  0  0  0
 32 33  1  0  0  0  0
 32 84  1  0  0  0  0
 32 85  1  0  0  0  0
 33 86  1  0  0  0  0
 33 87  1  0  0  0  0
 34 33  1  0  0  0  0
 34 88  1  0  0  0  0
 34 89  1  0  0  0  0
 35 30  1  0  0  0  0
 35 90  1  0  0  0  0
 36 35  1  0  0  0  0
 36 39  1  0  0  0  0
 36 91  1  6  0  0  0
 37 36  1  0  0  0  0
 37 38  2  0  0  0  0
 39 40  1  0  0  0  0
 39 92  1  0  0  0  0
 39 93  1  0  0  0  0
 40 41  1  0  0  0  0
 40 94  1  0  0  0  0
 40 95  1  0  0  0  0
 41 43  1  0  0  0  0
 41 42  2  0  0  0  0
 43 96  1  0  0  0  0
 43 97  1  0  0  0  0
 44 37  1  0  0  0  0
 44 98  1  0  0  0  0
 45 44  1  0  0  0  0
 45 48  1  0  0  0  0
 45 99  1  6  0  0  0
 46 45  1  0  0  0  0
 46 47  2  0  0  0  0
 46 52  1  0  0  0  0
 48 49  1  0  0  0  0
 48100  1  0  0  0  0
 48101  1  0  0  0  0
 49 51  1  0  0  0  0
 49 50  2  0  0  0  0
 51102  1  0  0  0  0
 51103  1  0  0  0  0
 52 53  1  0  0  0  0
 52104  1  0  0  0  0
 53 56  1  0  0  0  0
 53 54  1  0  0  0  0
 53105  1  1  0  0  0
 54 55  2  0  0  0  0
 54 59  1  0  0  0  0
 56 58  1  0  0  0  0
 56 57  1  0  0  0  0
 56106  1  6  0  0  0
 57107  1  0  0  0  0
 58108  1  0  0  0  0
 58109  1  0  0  0  0
 58110  1  0  0  0  0
 59111  1  0  0  0  0
 59112  1  0  0  0  0
M  CHG  1   1   1
M  END
