1swi_ligand
 OpenBabel08222323343D

 12 12  0  0  0  0  0  0  0  0999 V2000
  -10.2480   -9.5580   31.4800 C   0  0  0  0  0  0  0  0  0  0  0  0
  -10.0100   -8.6480   32.5110 C   0  0  0  0  0  0  0  0  0  0  0  0
   -8.7790   -7.9830   32.5400 C   0  0  0  0  0  0  0  0  0  0  0  0
   -7.8270   -8.1440   31.5320 C   0  0  0  0  0  0  0  0  0  0  0  0
   -8.1240   -8.9970   30.4700 C   0  0  0  0  0  0  0  0  0  0  0  0
   -9.3150   -9.7220   30.4580 C   0  0  0  0  0  0  0  0  0  0  0  0
  -11.1626  -10.1398   31.4742 H   0  0  0  0  0  0  0  0  0  0  0  0
  -10.7603   -8.4609   33.2707 H   0  0  0  0  0  0  0  0  0  0  0  0
   -8.5580   -7.3226   33.3707 H   0  0  0  0  0  0  0  0  0  0  0  0
   -6.8798   -7.6186   31.5739 H   0  0  0  0  0  0  0  0  0  0  0  0
   -7.4244   -9.0973   29.6481 H   0  0  0  0  0  0  0  0  0  0  0  0
   -9.5160  -10.4163   29.6501 H   0  0  0  0  0  0  0  0  0  0  0  0
  1  2  2  0  0  0  0
  1  6  1  0  0  0  0
  1  7  1  0  0  0  0
  2  3  1  0  0  0  0
  2  8  1  0  0  0  0
  3  4  2  0  0  0  0
  3  9  1  0  0  0  0
  4  5  1  0  0  0  0
  4 10  1  0  0  0  0
  5  6  2  0  0  0  0
  5 11  1  0  0  0  0
  6 12  1  0  0  0  0
M  END
