1swk_ligand
 OpenBabel08222323343D

 31 32  0  0  1  0  0  0  0  0999 V2000
   17.5800   19.2980   31.5830 C   0  0  0  0  0  0  0  0  0  0  0  0
   18.3440   20.1310   31.0260 O   0  5  0  0  0  0  0  0  0  0  0  0
   16.3820   19.1300   31.2620 O   0  0  0  0  0  0  0  0  0  0  0  0
   18.2140   18.4710   32.6480 C   0  0  0  0  0  0  0  0  0  0  0  0
   19.6750   18.1690   32.2560 C   0  0  0  0  0  0  0  0  0  0  0  0
   19.6780   17.0250   31.2290 C   0  0  0  0  0  0  0  0  0  0  0  0
   21.1010   16.7010   30.6990 C   0  0  0  0  0  0  0  0  0  0  0  0
   21.1970   15.6630   29.6050 C   0  0  2  0  0  0  0  0  0  0  0  0
   20.4740   14.0040   29.9520 S   0  0  0  0  0  0  0  0  0  0  0  0
   21.1850   13.4210   28.3850 C   0  0  0  0  0  0  0  0  0  0  0  0
   22.5740   14.0190   28.2790 C   0  0  2  0  0  0  0  0  0  0  0  0
   23.6050   13.2520   28.9340 N   0  0  0  0  0  0  0  0  0  0  0  0
   24.1530   13.9150   29.9720 C   0  0  0  0  0  0  0  0  0  0  0  0
   25.0690   13.4980   30.7110 O   0  0  0  0  0  0  0  0  0  0  0  0
   23.5880   15.1410   30.0730 N   0  0  0  0  0  0  0  0  0  0  0  0
   22.5750   15.3580   29.0520 C   0  0  2  0  0  0  0  0  0  0  0  0
   17.6605   17.5269   32.7587 H   0  0  0  0  0  0  0  0  0  0  0  0
   18.1952   19.0209   33.6005 H   0  0  0  0  0  0  0  0  0  0  0  0
   20.2440   17.8682   33.1481 H   0  0  0  0  0  0  0  0  0  0  0  0
   20.1335   19.0658   31.8138 H   0  0  0  0  0  0  0  0  0  0  0  0
   19.0428   17.3135   30.3786 H   0  0  0  0  0  0  0  0  0  0  0  0
   19.2658   16.1232   31.7052 H   0  0  0  0  0  0  0  0  0  0  0  0
   21.7007   16.3452   31.5497 H   0  0  0  0  0  0  0  0  0  0  0  0
   21.5331   17.6352   30.3110 H   0  0  0  0  0  0  0  0  0  0  0  0
   20.6146   16.0926   28.7766 H   0  0  0  0  0  0  0  0  0  0  0  0
   20.5642   13.7556   27.5408 H   0  0  0  0  0  0  0  0  0  0  0  0
   21.2454   12.3227   28.3830 H   0  0  0  0  0  0  0  0  0  0  0  0
   22.8268   14.1653   27.2185 H   0  0  0  0  0  0  0  0  0  0  0  0
   23.8816   12.3337   28.6506 H   0  0  0  0  0  0  0  0  0  0  0  0
   23.8373   15.8168   30.7667 H   0  0  0  0  0  0  0  0  0  0  0  0
   22.8765   16.1858   28.3934 H   0  0  0  0  0  0  0  0  0  0  0  0
  1  4  1  0  0  0  0
  1  3  2  0  0  0  0
  1  2  1  0  0  0  0
  4  5  1  0  0  0  0
  4 17  1  0  0  0  0
  4 18  1  0  0  0  0
  5  6  1  0  0  0  0
  5 19  1  0  0  0  0
  5 20  1  0  0  0  0
  6  7  1  0  0  0  0
  6 21  1  0  0  0  0
  6 22  1  0  0  0  0
  7  8  1  0  0  0  0
  7 23  1  0  0  0  0
  7 24  1  0  0  0  0
  8 16  1  0  0  0  0
  8  9  1  0  0  0  0
  8 25  1  6  0  0  0
  9 10  1  0  0  0  0
 10 11  1  0  0  0  0
 10 26  1  0  0  0  0
 10 27  1  0  0  0  0
 11 16  1  0  0  0  0
 11 12  1  0  0  0  0
 11 28  1  6  0  0  0
 12 13  1  0  0  0  0
 12 29  1  0  0  0  0
 13 15  1  0  0  0  0
 13 14  2  0  0  0  0
 15 16  1  0  0  0  0
 15 30  1  0  0  0  0
 16 31  1  6  0  0  0
M  CHG  1   2  -1
M  END
