1swn_ligand
 OpenBabel08222323343D

 31 32  0  0  1  0  0  0  0  0999 V2000
   16.5220    3.8650   29.4730 C   0  0  0  0  0  0  0  0  0  0  0  0
   15.5270    3.7200   30.2310 O   0  5  0  0  0  0  0  0  0  0  0  0
   17.1520    2.8740   29.0130 O   0  0  0  0  0  0  0  0  0  0  0  0
   16.9350    5.2480   29.1350 C   0  0  0  0  0  0  0  0  0  0  0  0
   15.7510    6.2040   28.9590 C   0  0  0  0  0  0  0  0  0  0  0  0
   15.1620    6.0920   27.5570 C   0  0  0  0  0  0  0  0  0  0  0  0
   13.9900    7.0720   27.2860 C   0  0  0  0  0  0  0  0  0  0  0  0
   13.2860    6.9630   25.9530 C   0  0  2  0  0  0  0  0  0  0  0  0
   14.2620    7.4620   24.4820 S   0  0  0  0  0  0  0  0  0  0  0  0
   12.7670    7.2340   23.4570 C   0  0  0  0  0  0  0  0  0  0  0  0
   11.6080    7.7930   24.2580 C   0  0  2  0  0  0  0  0  0  0  0  0
   11.4100    9.2220   24.1050 N   0  0  0  0  0  0  0  0  0  0  0  0
   11.5930    9.8920   25.2510 C   0  0  0  0  0  0  0  0  0  0  0  0
   11.4890   11.1330   25.4380 O   0  0  0  0  0  0  0  0  0  0  0  0
   11.9020    9.0120   26.2320 N   0  0  0  0  0  0  0  0  0  0  0  0
   11.9420    7.6410   25.7600 C   0  0  2  0  0  0  0  0  0  0  0  0
   17.5068    5.2227   28.1956 H   0  0  0  0  0  0  0  0  0  0  0  0
   17.5754    5.6295   29.9439 H   0  0  0  0  0  0  0  0  0  0  0  0
   16.0944    7.2360   29.1235 H   0  0  0  0  0  0  0  0  0  0  0  0
   14.9741    5.9541   29.6965 H   0  0  0  0  0  0  0  0  0  0  0  0
   14.7937    5.0650   27.4173 H   0  0  0  0  0  0  0  0  0  0  0  0
   15.9604    6.2975   26.8287 H   0  0  0  0  0  0  0  0  0  0  0  0
   14.3893    8.0939   27.3656 H   0  0  0  0  0  0  0  0  0  0  0  0
   13.2366    6.9105   28.0711 H   0  0  0  0  0  0  0  0  0  0  0  0
   13.0947    5.8847   25.8494 H   0  0  0  0  0  0  0  0  0  0  0  0
   12.6065    6.1654   23.2511 H   0  0  0  0  0  0  0  0  0  0  0  0
   12.8705    7.7790   22.5071 H   0  0  0  0  0  0  0  0  0  0  0  0
   10.6883    7.2511   23.9924 H   0  0  0  0  0  0  0  0  0  0  0  0
   11.1641    9.6589   23.2397 H   0  0  0  0  0  0  0  0  0  0  0  0
   12.0830    9.2780   27.1788 H   0  0  0  0  0  0  0  0  0  0  0  0
   11.1733    7.0427   26.2709 H   0  0  0  0  0  0  0  0  0  0  0  0
  1  4  1  0  0  0  0
  1  3  2  0  0  0  0
  1  2  1  0  0  0  0
  4  5  1  0  0  0  0
  4 17  1  0  0  0  0
  4 18  1  0  0  0  0
  5  6  1  0  0  0  0
  5 19  1  0  0  0  0
  5 20  1  0  0  0  0
  6  7  1  0  0  0  0
  6 21  1  0  0  0  0
  6 22  1  0  0  0  0
  7  8  1  0  0  0  0
  7 23  1  0  0  0  0
  7 24  1  0  0  0  0
  8 16  1  0  0  0  0
  8  9  1  0  0  0  0
  8 25  1  6  0  0  0
  9 10  1  0  0  0  0
 10 11  1  0  0  0  0
 10 26  1  0  0  0  0
 10 27  1  0  0  0  0
 11 16  1  0  0  0  0
 11 12  1  0  0  0  0
 11 28  1  6  0  0  0
 12 13  1  0  0  0  0
 12 29  1  0  0  0  0
 13 15  1  0  0  0  0
 13 14  2  0  0  0  0
 15 16  1  0  0  0  0
 15 30  1  0  0  0  0
 16 31  1  1  0  0  0
M  CHG  1   2  -1
M  END
