1t46_ligand
 OpenBabel08222323343D

 70 74  0  0  1  0  0  0  0  0999 V2000
   32.6960   24.7000   47.5410 C   0  0  0  0  0  0  0  0  0  0  0  0
   31.8180   25.4090   46.7190 C   0  0  0  0  0  0  0  0  0  0  0  0
   30.6070   24.8220   46.3550 C   0  0  0  0  0  0  0  0  0  0  0  0
   30.2890   23.5400   46.7930 C   0  0  0  0  0  0  0  0  0  0  0  0
   31.1560   22.8770   47.5750 N   0  0  0  0  0  0  0  0  0  0  0  0
   32.3300   23.4240   47.9550 C   0  0  0  0  0  0  0  0  0  0  0  0
   29.6570   25.5420   45.4790 C   0  0  0  0  0  0  0  0  0  0  0  0
   29.9720   26.7830   44.9260 C   0  0  0  0  0  0  0  0  0  0  0  0
   29.0340   27.3880   44.0930 C   0  0  0  0  0  0  0  0  0  0  0  0
   27.8540   26.7890   43.8490 N   0  0  0  0  0  0  0  0  0  0  0  0
   27.5660   25.5940   44.4210 C   0  0  0  0  0  0  0  0  0  0  0  0
   28.4650   24.9750   45.2160 N   0  0  0  0  0  0  0  0  0  0  0  0
   26.4040   24.9540   44.2010 N   0  0  0  0  0  0  0  0  0  0  0  0
   25.3470   25.5110   43.5600 C   0  0  0  0  0  0  0  0  0  0  0  0
   24.2990   26.0650   44.2940 C   0  0  0  0  0  0  0  0  0  0  0  0
   23.2070   26.6100   43.6280 C   0  0  0  0  0  0  0  0  0  0  0  0
   23.1490   26.6030   42.2330 C   0  0  0  0  0  0  0  0  0  0  0  0
   24.1950   26.0540   41.4950 C   0  0  0  0  0  0  0  0  0  0  0  0
   25.2830   25.4900   42.1650 C   0  0  0  0  0  0  0  0  0  0  0  0
   24.0610   26.0500   40.0970 N   0  0  0  0  0  0  0  0  0  0  0  0
   24.9820   25.6240   39.2380 C   0  0  0  0  0  0  0  0  0  0  0  0
   24.6520   25.6310   37.7790 C   0  0  0  0  0  0  0  0  0  0  0  0
   25.4430   24.8950   36.8960 C   0  0  0  0  0  0  0  0  0  0  0  0
   25.1350   24.8970   35.5390 C   0  0  0  0  0  0  0  0  0  0  0  0
   24.0400   25.6290   35.0810 C   0  0  0  0  0  0  0  0  0  0  0  0
   23.2420   26.3570   35.9610 C   0  0  0  0  0  0  0  0  0  0  0  0
   23.5530   26.3490   37.3180 C   0  0  0  0  0  0  0  0  0  0  0  0
   23.7080   25.6150   33.6100 C   0  0  0  0  0  0  0  0  0  0  0  0
   23.6120   26.9460   33.0270 N   0  3  1  0  0  0  0  0  0  0  0  0
   24.7780   27.8090   33.1870 C   0  0  0  0  0  0  0  0  0  0  0  0
   24.4070   29.2250   32.7690 C   0  0  0  0  0  0  0  0  0  0  0  0
   23.8580   29.1530   31.4220 N   0  3  2  0  0  0  0  0  0  0  0  0
   23.8300   30.4370   30.7290 C   0  0  0  0  0  0  0  0  0  0  0  0
   22.6960   28.3020   31.1910 C   0  0  0  0  0  0  0  0  0  0  0  0
   22.9660   26.9000   31.7180 C   0  0  0  0  0  0  0  0  0  0  0  0
   26.0670   25.2150   39.5910 O   0  0  0  0  0  0  0  0  0  0  0  0
   24.3250   26.0840   45.8060 C   0  0  0  0  0  0  0  0  0  0  0  0
   33.6404   25.1339   47.8491 H   0  0  0  0  0  0  0  0  0  0  0  0
   32.0744   26.4023   46.3686 H   0  0  0  0  0  0  0  0  0  0  0  0
   29.3500   23.0809   46.5055 H   0  0  0  0  0  0  0  0  0  0  0  0
   32.9990   22.8589   48.5939 H   0  0  0  0  0  0  0  0  0  0  0  0
   30.9203   27.2632   45.1386 H   0  0  0  0  0  0  0  0  0  0  0  0
   29.2558   28.3469   43.6386 H   0  0  0  0  0  0  0  0  0  0  0  0
   26.3116   23.9853   44.5387 H   0  0  0  0  0  0  0  0  0  0  0  0
   22.3931   27.0444   44.1971 H   0  0  0  0  0  0  0  0  0  0  0  0
   22.2898   27.0249   41.7242 H   0  0  0  0  0  0  0  0  0  0  0  0
   26.0848   25.0319   41.5973 H   0  0  0  0  0  0  0  0  0  0  0  0
   23.2031   26.3957   39.7168 H   0  0  0  0  0  0  0  0  0  0  0  0
   26.2897   24.3268   37.2638 H   0  0  0  0  0  0  0  0  0  0  0  0
   25.7431   24.3324   34.8415 H   0  0  0  0  0  0  0  0  0  0  0  0
   22.3919   26.9211   35.5946 H   0  0  0  0  0  0  0  0  0  0  0  0
   22.9375   26.9035   38.0171 H   0  0  0  0  0  0  0  0  0  0  0  0
   22.7430   25.1046   33.4750 H   0  0  0  0  0  0  0  0  0  0  0  0
   24.4947   25.0580   33.0801 H   0  0  0  0  0  0  0  0  0  0  0  0
   22.9265   27.4067   33.6048 H   0  0  0  0  0  0  0  0  0  0  0  0
   25.5991   27.4408   32.5543 H   0  0  0  0  0  0  0  0  0  0  0  0
   25.0969   27.8068   34.2397 H   0  0  0  0  0  0  0  0  0  0  0  0
   25.3012   29.8655   32.7765 H   0  0  0  0  0  0  0  0  0  0  0  0
   23.6558   29.6360   33.4594 H   0  0  0  0  0  0  0  0  0  0  0  0
   24.5801   28.6520   30.9285 H   0  0  0  0  0  0  0  0  0  0  0  0
   23.4046   30.3018   29.7237 H   0  0  0  0  0  0  0  0  0  0  0  0
   24.8538   30.8302   30.6440 H   0  0  0  0  0  0  0  0  0  0  0  0
   23.2105   31.1467   31.2969 H   0  0  0  0  0  0  0  0  0  0  0  0
   22.4895   28.2521   30.1117 H   0  0  0  0  0  0  0  0  0  0  0  0
   21.8247   28.7256   31.7119 H   0  0  0  0  0  0  0  0  0  0  0  0
   22.0120   26.3597   31.8069 H   0  0  0  0  0  0  0  0  0  0  0  0
   23.6226   26.3710   31.0116 H   0  0  0  0  0  0  0  0  0  0  0  0
   25.2543   25.6157   46.1626 H   0  0  0  0  0  0  0  0  0  0  0  0
   23.4606   25.5257   46.1947 H   0  0  0  0  0  0  0  0  0  0  0  0
   24.2792   27.1243   46.1605 H   0  0  0  0  0  0  0  0  0  0  0  0
  1  2  2  0  0  0  0
  1  6  1  0  0  0  0
  1 38  1  0  0  0  0
  2  3  1  0  0  0  0
  2 39  1  0  0  0  0
  3  4  2  0  0  0  0
  3  7  1  0  0  0  0
  4  5  1  0  0  0  0
  4 40  1  0  0  0  0
  5  6  2  0  0  0  0
  6 41  1  0  0  0  0
  7  8  2  0  0  0  0
  7 12  1  0  0  0  0
  8  9  1  0  0  0  0
  8 42  1  0  0  0  0
  9 10  2  0  0  0  0
  9 43  1  0  0  0  0
 10 11  1  0  0  0  0
 11 12  2  0  0  0  0
 11 13  1  0  0  0  0
 13 14  1  0  0  0  0
 13 44  1  0  0  0  0
 14 15  2  0  0  0  0
 14 19  1  0  0  0  0
 15 16  1  0  0  0  0
 15 37  1  0  0  0  0
 16 17  2  0  0  0  0
 16 45  1  0  0  0  0
 17 18  1  0  0  0  0
 17 46  1  0  0  0  0
 18 19  2  0  0  0  0
 18 20  1  0  0  0  0
 19 47  1  0  0  0  0
 20 21  1  0  0  0  0
 20 48  1  0  0  0  0
 21 22  1  0  0  0  0
 21 36  2  0  0  0  0
 22 23  2  0  0  0  0
 22 27  1  0  0  0  0
 23 24  1  0  0  0  0
 23 49  1  0  0  0  0
 24 25  2  0  0  0  0
 24 50  1  0  0  0  0
 25 26  1  0  0  0  0
 25 28  1  0  0  0  0
 26 27  2  0  0  0  0
 26 51  1  0  0  0  0
 27 52  1  0  0  0  0
 28 29  1  0  0  0  0
 28 53  1  0  0  0  0
 28 54  1  0  0  0  0
 29 30  1  0  0  0  0
 29 35  1  0  0  0  0
 29 55  1  1  0  0  0
 30 31  1  0  0  0  0
 30 56  1  0  0  0  0
 30 57  1  0  0  0  0
 31 32  1  0  0  0  0
 31 58  1  0  0  0  0
 31 59  1  0  0  0  0
 32 33  1  0  0  0  0
 32 34  1  0  0  0  0
 32 60  1  6  0  0  0
 33 61  1  0  0  0  0
 33 62  1  0  0  0  0
 33 63  1  0  0  0  0
 34 35  1  0  0  0  0
 34 64  1  0  0  0  0
 34 65  1  0  0  0  0
 35 66  1  0  0  0  0
 35 67  1  0  0  0  0
 37 68  1  0  0  0  0
 37 69  1  0  0  0  0
 37 70  1  0  0  0  0
M  CHG  2  29   1  32   1
M  END
