1t5a_ligand
 OpenBabel08222323343D

  6  5  0  0  0  0  0  0  0  0999 V2000
   70.9350    0.5140   71.7250 C   0  0  0  0  0  0  0  0  0  0  0  0
   71.5060    1.6510   72.6370 C   0  0  0  0  0  0  0  0  0  0  0  0
   70.6550    0.8880   70.5780 O   0  5  0  0  0  0  0  0  0  0  0  0
   71.8250    1.3750   73.8390 O   0  5  0  0  0  0  0  0  0  0  0  0
   70.7890   -0.6670   72.1700 O   0  0  0  0  0  0  0  0  0  0  0  0
   71.6000    2.7760   72.0800 O   0  0  0  0  0  0  0  0  0  0  0  0
  1  2  1  0  0  0  0
  1  3  1  0  0  0  0
  1  5  2  0  0  0  0
  2  4  1  0  0  0  0
  2  6  2  0  0  0  0
M  CHG  2   3  -1   4  -1
M  END
