1t79_ligand
 OpenBabel08222323343D

131133  0  0  1  0  0  0  0  0999 V2000
   14.9630    5.5030   54.0520 N   0  3  0  0  0  0  0  0  0  0  0  0
   14.7050    5.3260   52.5980 C   0  0  2  0  0  0  0  0  0  0  0  0
   14.2420    6.6340   51.9670 C   0  0  0  0  0  0  0  0  0  0  0  0
   13.9650    7.6140   52.6620 O   0  0  0  0  0  0  0  0  0  0  0  0
   13.6370    4.2520   52.3750 C   0  0  0  0  0  0  0  0  0  0  0  0
   12.3730    4.6800   52.8530 O   0  0  0  0  0  0  0  0  0  0  0  0
   14.1600    6.6300   50.6410 N   0  0  0  0  0  0  0  0  0  0  0  0
   13.7400    7.7920   49.8670 C   0  0  2  0  0  0  0  0  0  0  0  0
   12.3220    8.2420   50.2350 C   0  0  0  0  0  0  0  0  0  0  0  0
   12.0440    9.4390   50.3060 O   0  0  0  0  0  0  0  0  0  0  0  0
   13.8080    7.4610   48.3730 C   0  0  0  0  0  0  0  0  0  0  0  0
   13.5840    8.6400   47.4340 C   0  0  0  0  0  0  0  0  0  0  0  0
   13.5950    8.1780   45.9730 C   0  0  0  0  0  0  0  0  0  0  0  0
   13.3340    9.3230   45.0000 C   0  0  0  0  0  0  0  0  0  0  0  0
   13.1320    8.8300   43.5960 N   0  3  0  0  0  0  0  0  0  0  0  0
   11.4270    7.2830   50.4550 N   0  0  0  0  0  0  0  0  0  0  0  0
   10.0370    7.5960   50.8070 C   0  0  2  0  0  0  0  0  0  0  0  0
    9.9870    8.2340   52.1980 C   0  0  0  0  0  0  0  0  0  0  0  0
    9.3950    9.2980   52.3930 O   0  0  0  0  0  0  0  0  0  0  0  0
    9.1970    6.3160   50.7810 C   0  0  0  0  0  0  0  0  0  0  0  0
    7.7510    6.5220   51.1460 C   0  0  0  0  0  0  0  0  0  0  0  0
    6.8740    7.1330   50.2580 C   0  0  0  0  0  0  0  0  0  0  0  0
    7.2650    6.0850   52.3740 C   0  0  0  0  0  0  0  0  0  0  0  0
    5.5240    7.3030   50.5880 C   0  0  0  0  0  0  0  0  0  0  0  0
    5.9210    6.2490   52.7160 C   0  0  0  0  0  0  0  0  0  0  0  0
    5.0500    6.8600   51.8170 C   0  0  0  0  0  0  0  0  0  0  0  0
   10.6300    7.5790   53.1580 N   0  0  0  0  0  0  0  0  0  0  0  0
   10.6770    8.0700   54.5290 C   0  0  2  0  0  0  0  0  0  0  0  0
   11.2700    9.4800   54.6020 C   0  0  0  0  0  0  0  0  0  0  0  0
   10.8990   10.2760   55.4700 O   0  0  0  0  0  0  0  0  0  0  0  0
   11.4920    7.1100   55.3950 C   0  0  0  0  0  0  0  0  0  0  0  0
   12.1820    9.7920   53.6840 N   0  0  0  0  0  0  0  0  0  0  0  0
   12.8230   11.1030   53.6660 C   0  0  2  0  0  0  0  0  0  0  0  0
   11.8320   12.2360   53.4250 C   0  0  0  0  0  0  0  0  0  0  0  0
   12.1230   13.4020   53.7070 O   0  0  0  0  0  0  0  0  0  0  0  0
   13.9270   11.1380   52.6040 C   0  0  0  0  0  0  0  0  0  0  0  0
   10.6590   11.8960   52.9040 N   0  0  0  0  0  0  0  0  0  0  0  0
    9.6350   12.8970   52.6390 C   0  0  2  0  0  0  0  0  0  0  0  0
    9.0880   13.4900   53.9340 C   0  0  0  0  0  0  0  0  0  0  0  0
    8.3460   14.4710   53.9070 O   0  0  0  0  0  0  0  0  0  0  0  0
    8.4920   12.2840   51.8210 C   0  0  0  0  0  0  0  0  0  0  0  0
    8.8620   11.8600   50.3960 C   0  0  0  0  0  0  0  0  0  0  0  0
    7.6720   11.1890   49.7270 C   0  0  0  0  0  0  0  0  0  0  0  0
    9.3000   13.0790   49.5970 C   0  0  0  0  0  0  0  0  0  0  0  0
    9.4680   12.8940   55.0620 N   0  0  0  0  0  0  0  0  0  0  0  0
    9.0340   13.3510   56.3800 C   0  0  2  0  0  0  0  0  0  0  0  0
   10.1410   14.0810   57.1470 C   0  0  0  0  0  0  0  0  0  0  0  0
    9.8750   14.7450   58.1520 O   0  0  0  0  0  0  0  0  0  0  0  0
    8.5390   12.1610   57.2110 C   0  0  0  0  0  0  0  0  0  0  0  0
    7.0850   11.8370   56.9960 C   0  0  0  0  0  0  0  0  0  0  0  0
    6.0250   12.2650   57.7500 C   0  0  0  0  0  0  0  0  0  0  0  0
    6.5290   11.0550   55.9320 C   0  0  0  0  0  0  0  0  0  0  0  0
    4.8420   11.7990   57.2180 N   0  0  0  0  0  0  0  0  0  0  0  0
    5.1230   11.0540   56.1020 C   0  0  0  0  0  0  0  0  0  0  0  0
    7.0800   10.3570   54.8480 C   0  0  0  0  0  0  0  0  0  0  0  0
    4.2620   10.3790   55.2280 C   0  0  0  0  0  0  0  0  0  0  0  0
    6.2220    9.6870   53.9770 C   0  0  0  0  0  0  0  0  0  0  0  0
    4.8260    9.7040   54.1760 C   0  0  0  0  0  0  0  0  0  0  0  0
   11.3800   13.9560   56.6820 N   0  0  0  0  0  0  0  0  0  0  0  0
   12.4920   14.6150   57.3580 C   0  0  2  0  0  0  0  0  0  0  0  0
   12.3430   16.1310   57.3280 C   0  0  0  0  0  0  0  0  0  0  0  0
   11.7420   16.6480   56.3610 O   0  5  0  0  0  0  0  0  0  0  0  0
   13.8210   14.2280   56.7100 C   0  0  0  0  0  0  0  0  0  0  0  0
   14.0880   12.7410   56.7740 C   0  0  0  0  0  0  0  0  0  0  0  0
   13.9200   12.1470   57.8580 O   0  5  0  0  0  0  0  0  0  0  0  0
   14.4760   12.1620   55.7410 O   0  0  0  0  0  0  0  0  0  0  0  0
   12.8131   16.8452   58.2535 O   0  0  0  0  0  0  0  0  0  0  0  0
   15.2674    4.6276   54.4482 H   0  0  0  0  0  0  0  0  0  0  0  0
   14.1162    5.8024   54.5095 H   0  0  0  0  0  0  0  0  0  0  0  0
   15.6802    6.1989   54.1837 H   0  0  0  0  0  0  0  0  0  0  0  0
   15.6387    5.0077   52.1114 H   0  0  0  0  0  0  0  0  0  0  0  0
   13.9315    3.3366   52.9091 H   0  0  0  0  0  0  0  0  0  0  0  0
   13.5605    4.0399   51.2984 H   0  0  0  0  0  0  0  0  0  0  0  0
   11.7307    3.9964   52.7024 H   0  0  0  0  0  0  0  0  0  0  0  0
   14.3973    5.7912   50.1511 H   0  0  0  0  0  0  0  0  0  0  0  0
   14.4322    8.6200   50.0794 H   0  0  0  0  0  0  0  0  0  0  0  0
   13.0396    6.7040   48.1573 H   0  0  0  0  0  0  0  0  0  0  0  0
   14.8036    7.0433   48.1624 H   0  0  0  0  0  0  0  0  0  0  0  0
   14.3845    9.3792   47.5850 H   0  0  0  0  0  0  0  0  0  0  0  0
   12.6113    9.1016   47.6595 H   0  0  0  0  0  0  0  0  0  0  0  0
   12.8146    7.4146   45.8378 H   0  0  0  0  0  0  0  0  0  0  0  0
   14.5789    7.7405   45.7481 H   0  0  0  0  0  0  0  0  0  0  0  0
   14.1955   10.0068   45.0162 H   0  0  0  0  0  0  0  0  0  0  0  0
   12.4310    9.8632   45.3205 H   0  0  0  0  0  0  0  0  0  0  0  0
   12.9629    9.6142   42.9856 H   0  0  0  0  0  0  0  0  0  0  0  0
   12.3403    8.2067   43.5694 H   0  0  0  0  0  0  0  0  0  0  0  0
   13.9572    8.3383   43.2905 H   0  0  0  0  0  0  0  0  0  0  0  0
   11.7078    6.3263   50.3788 H   0  0  0  0  0  0  0  0  0  0  0  0
    9.6305    8.3065   50.0722 H   0  0  0  0  0  0  0  0  0  0  0  0
    9.6346    5.6012   51.4934 H   0  0  0  0  0  0  0  0  0  0  0  0
    9.2403    5.8950   49.7657 H   0  0  0  0  0  0  0  0  0  0  0  0
    7.2392    7.4820   49.2989 H   0  0  0  0  0  0  0  0  0  0  0  0
    7.9401    5.6097   53.0764 H   0  0  0  0  0  0  0  0  0  0  0  0
    4.8495    7.7795   49.8859 H   0  0  0  0  0  0  0  0  0  0  0  0
    5.5573    5.9024   53.6766 H   0  0  0  0  0  0  0  0  0  0  0  0
    4.0052    6.9896   52.0753 H   0  0  0  0  0  0  0  0  0  0  0  0
   11.0958    6.7232   52.9331 H   0  0  0  0  0  0  0  0  0  0  0  0
    9.6490    8.1078   54.9186 H   0  0  0  0  0  0  0  0  0  0  0  0
   11.5240    7.4857   56.4284 H   0  0  0  0  0  0  0  0  0  0  0  0
   12.5158    7.0383   54.9991 H   0  0  0  0  0  0  0  0  0  0  0  0
   11.0228    6.1152   55.3809 H   0  0  0  0  0  0  0  0  0  0  0  0
   12.4330    9.1144   52.9927 H   0  0  0  0  0  0  0  0  0  0  0  0
   13.2858   11.2643   54.6508 H   0  0  0  0  0  0  0  0  0  0  0  0
   14.4014   12.1304   52.6009 H   0  0  0  0  0  0  0  0  0  0  0  0
   13.4905   10.9373   51.6145 H   0  0  0  0  0  0  0  0  0  0  0  0
   14.6817   10.3716   52.8342 H   0  0  0  0  0  0  0  0  0  0  0  0
   10.4756   10.9365   52.6900 H   0  0  0  0  0  0  0  0  0  0  0  0
   10.0897   13.7085   52.0519 H   0  0  0  0  0  0  0  0  0  0  0  0
    7.6840   13.0275   51.7555 H   0  0  0  0  0  0  0  0  0  0  0  0
    8.1293   11.3945   52.3570 H   0  0  0  0  0  0  0  0  0  0  0  0
    9.6957   11.1438   50.4403 H   0  0  0  0  0  0  0  0  0  0  0  0
    7.9472   10.8884   48.7053 H   0  0  0  0  0  0  0  0  0  0  0  0
    6.8283   11.8937   49.6871 H   0  0  0  0  0  0  0  0  0  0  0  0
    7.3800   10.2996   50.3047 H   0  0  0  0  0  0  0  0  0  0  0  0
   10.1602   13.5526   50.0928 H   0  0  0  0  0  0  0  0  0  0  0  0
    8.4690   13.7974   49.5390 H   0  0  0  0  0  0  0  0  0  0  0  0
    9.5875   12.7681   48.5818 H   0  0  0  0  0  0  0  0  0  0  0  0
   10.0751   12.1014   55.0049 H   0  0  0  0  0  0  0  0  0  0  0  0
    8.1982   14.0519   56.2377 H   0  0  0  0  0  0  0  0  0  0  0  0
    8.6892   12.3941   58.2755 H   0  0  0  0  0  0  0  0  0  0  0  0
    9.1354   11.2769   56.9415 H   0  0  0  0  0  0  0  0  0  0  0  0
    6.1052   12.8846   58.6419 H   0  0  0  0  0  0  0  0  0  0  0  0
    3.9015   11.9806   57.5966 H   0  0  0  0  0  0  0  0  0  0  0  0
    8.1523   10.3387   54.6902 H   0  0  0  0  0  0  0  0  0  0  0  0
    3.1884   10.3897   55.3776 H   0  0  0  0  0  0  0  0  0  0  0  0
    6.6343    9.1446   53.1338 H   0  0  0  0  0  0  0  0  0  0  0  0
    4.1849    9.1720   53.4824 H   0  0  0  0  0  0  0  0  0  0  0  0
   11.5508   13.4069   55.8639 H   0  0  0  0  0  0  0  0  0  0  0  0
   12.5017   14.2852   58.4073 H   0  0  0  0  0  0  0  0  0  0  0  0
   14.6338   14.7546   57.2316 H   0  0  0  0  0  0  0  0  0  0  0  0
   13.8016   14.5373   55.6546 H   0  0  0  0  0  0  0  0  0  0  0  0
  1 68  1  0  0  0  0
  1 69  1  0  0  0  0
  1 70  1  0  0  0  0
  2  1  1  0  0  0  0
  2  5  1  0  0  0  0
  2 71  1  6  0  0  0
  3  2  1  0  0  0  0
  3  4  2  0  0  0  0
  5  6  1  0  0  0  0
  5 72  1  0  0  0  0
  5 73  1  0  0  0  0
  6 74  1  0  0  0  0
  7  3  1  0  0  0  0
  7 75  1  0  0  0  0
  8  7  1  0  0  0  0
  8 11  1  0  0  0  0
  8 76  1  1  0  0  0
  9  8  1  0  0  0  0
  9 10  2  0  0  0  0
 11 12  1  0  0  0  0
 11 77  1  0  0  0  0
 11 78  1  0  0  0  0
 12 13  1  0  0  0  0
 12 79  1  0  0  0  0
 12 80  1  0  0  0  0
 13 14  1  0  0  0  0
 13 81  1  0  0  0  0
 13 82  1  0  0  0  0
 14 15  1  0  0  0  0
 14 83  1  0  0  0  0
 14 84  1  0  0  0  0
 15 85  1  0  0  0  0
 15 86  1  0  0  0  0
 15 87  1  0  0  0  0
 16  9  1  0  0  0  0
 16 88  1  0  0  0  0
 17 16  1  0  0  0  0
 17 20  1  0  0  0  0
 17 89  1  6  0  0  0
 18 17  1  0  0  0  0
 18 19  2  0  0  0  0
 20 21  1  0  0  0  0
 20 90  1  0  0  0  0
 20 91  1  0  0  0  0
 21 22  2  0  0  0  0
 21 23  1  0  0  0  0
 22 24  1  0  0  0  0
 22 92  1  0  0  0  0
 23 25  2  0  0  0  0
 23 93  1  0  0  0  0
 24 26  2  0  0  0  0
 24 94  1  0  0  0  0
 25 26  1  0  0  0  0
 25 95  1  0  0  0  0
 26 96  1  0  0  0  0
 27 18  1  0  0  0  0
 27 97  1  0  0  0  0
 28 27  1  0  0  0  0
 28 31  1  0  0  0  0
 28 98  1  1  0  0  0
 29 28  1  0  0  0  0
 29 30  2  0  0  0  0
 31 99  1  0  0  0  0
 31100  1  0  0  0  0
 31101  1  0  0  0  0
 32 29  1  0  0  0  0
 32102  1  0  0  0  0
 33 32  1  0  0  0  0
 33 36  1  0  0  0  0
 33103  1  1  0  0  0
 34 33  1  0  0  0  0
 34 35  2  0  0  0  0
 36104  1  0  0  0  0
 36105  1  0  0  0  0
 36106  1  0  0  0  0
 37 34  1  0  0  0  0
 37107  1  0  0  0  0
 38 37  1  0  0  0  0
 38 41  1  0  0  0  0
 38108  1  6  0  0  0
 39 38  1  0  0  0  0
 39 40  2  0  0  0  0
 41 42  1  0  0  0  0
 41109  1  0  0  0  0
 41110  1  0  0  0  0
 42 43  1  0  0  0  0
 42 44  1  0  0  0  0
 42111  1  0  0  0  0
 43112  1  0  0  0  0
 43113  1  0  0  0  0
 43114  1  0  0  0  0
 44115  1  0  0  0  0
 44116  1  0  0  0  0
 44117  1  0  0  0  0
 45 39  1  0  0  0  0
 45118  1  0  0  0  0
 46 45  1  0  0  0  0
 46 49  1  0  0  0  0
 46119  1  6  0  0  0
 47 46  1  0  0  0  0
 47 48  2  0  0  0  0
 47 59  1  0  0  0  0
 49 50  1  0  0  0  0
 49120  1  0  0  0  0
 49121  1  0  0  0  0
 50 51  2  0  0  0  0
 50 52  1  0  0  0  0
 51 53  1  0  0  0  0
 51122  1  0  0  0  0
 52 55  2  0  0  0  0
 52 54  1  0  0  0  0
 53123  1  0  0  0  0
 54 56  2  0  0  0  0
 54 53  1  0  0  0  0
 55 57  1  0  0  0  0
 55124  1  0  0  0  0
 56 58  1  0  0  0  0
 56125  1  0  0  0  0
 57 58  2  0  0  0  0
 57126  1  0  0  0  0
 58127  1  0  0  0  0
 59 60  1  0  0  0  0
 59128  1  0  0  0  0
 60 63  1  0  0  0  0
 60 61  1  0  0  0  0
 60129  1  1  0  0  0
 61 62  1  0  0  0  0
 61 67  2  0  0  0  0
 63 64  1  0  0  0  0
 63130  1  0  0  0  0
 63131  1  0  0  0  0
 64 66  2  0  0  0  0
 64 65  1  0  0  0  0
M  CHG  4   1   1  15   1  62  -1  65  -1
M  END
