1t7r_ligand
 OpenBabel08222323343D

151152  0  0  1  0  0  0  0  0999 V2000
   -9.3160   30.2680   54.4180 N   0  3  0  0  0  0  0  0  0  0  0  0
  -10.7110   30.7580   54.6110 C   0  0  2  0  0  0  0  0  0  0  0  0
  -11.7080   29.6310   54.3700 C   0  0  0  0  0  0  0  0  0  0  0  0
  -11.3150   28.4900   54.1590 O   0  0  0  0  0  0  0  0  0  0  0  0
  -10.9980   31.9210   53.6610 C   0  0  0  0  0  0  0  0  0  0  0  0
  -10.0450   32.9550   53.8320 O   0  0  0  0  0  0  0  0  0  0  0  0
  -12.9950   29.9610   54.3870 N   0  0  0  0  0  0  0  0  0  0  0  0
  -14.0550   28.9750   54.2030 C   0  0  2  0  0  0  0  0  0  0  0  0
  -13.8210   27.9310   53.1080 C   0  0  0  0  0  0  0  0  0  0  0  0
  -13.8030   26.7360   53.3900 O   0  0  0  0  0  0  0  0  0  0  0  0
  -15.3900   29.6800   53.9570 C   0  0  0  0  0  0  0  0  0  0  0  0
  -16.4640   28.7590   54.0500 O   0  0  0  0  0  0  0  0  0  0  0  0
  -13.6530   28.3690   51.8620 N   0  0  0  0  0  0  0  0  0  0  0  0
  -13.4360   27.4210   50.7680 C   0  0  2  0  0  0  0  0  0  0  0  0
  -12.1600   26.6060   50.9550 C   0  0  0  0  0  0  0  0  0  0  0  0
  -12.1640   25.3820   50.8000 O   0  0  0  0  0  0  0  0  0  0  0  0
  -13.3960   28.1510   49.4240 C   0  0  0  0  0  0  0  0  0  0  0  0
  -14.7300   28.7710   49.0400 C   0  0  0  0  0  0  0  0  0  0  0  0
  -14.6760   29.4400   47.6770 C   0  0  0  0  0  0  0  0  0  0  0  0
  -15.9600   30.0390   47.3240 N   0  0  0  0  0  0  0  0  0  0  0  0
  -16.5390   31.0230   48.0060 C   0  0  0  0  0  3  0  0  0  0  0  0
  -15.9470   31.5260   49.0830 N   0  0  0  0  0  0  0  0  0  0  0  0
  -17.7110   31.5020   47.6150 N   0  0  0  0  0  0  0  0  0  0  0  0
  -11.0660   27.2790   51.2860 N   0  0  0  0  0  0  0  0  0  0  0  0
   -9.8140   26.5730   51.5010 C   0  0  2  0  0  0  0  0  0  0  0  0
   -9.9170   25.6720   52.7290 C   0  0  0  0  0  0  0  0  0  0  0  0
   -9.4280   24.5420   52.7250 O   0  0  0  0  0  0  0  0  0  0  0  0
   -8.6590   27.5530   51.7030 C   0  0  0  0  0  0  0  0  0  0  0  0
   -7.3550   26.8730   51.9770 C   0  0  0  0  0  0  0  0  0  0  0  0
   -6.6330   26.2910   50.9430 C   0  0  0  0  0  0  0  0  0  0  0  0
   -6.8880   26.7420   53.2790 C   0  0  0  0  0  0  0  0  0  0  0  0
   -5.4660   25.5840   51.2020 C   0  0  0  0  0  0  0  0  0  0  0  0
   -5.7230   26.0350   53.5530 C   0  0  0  0  0  0  0  0  0  0  0  0
   -5.0120   25.4540   52.5110 C   0  0  0  0  0  0  0  0  0  0  0  0
  -10.5410   26.1820   53.7860 N   0  0  0  0  0  0  0  0  0  0  0  0
  -10.6990   25.4140   55.0160 C   0  0  2  0  0  0  0  0  0  0  0  0
  -11.4540   24.1150   54.7620 C   0  0  0  0  0  0  0  0  0  0  0  0
  -11.1140   23.0760   55.3210 O   0  0  0  0  0  0  0  0  0  0  0  0
  -11.4360   26.2390   56.0760 C   0  0  0  0  0  0  0  0  0  0  0  0
  -10.6200   27.3700   56.6820 C   0  0  0  0  0  0  0  0  0  0  0  0
  -11.4170   28.1820   57.6850 C   0  0  0  0  0  0  0  0  0  0  0  0
  -12.4140   28.8190   57.2830 O   0  5  0  0  0  0  0  0  0  0  0  0
  -11.0510   28.1810   58.8790 O   0  0  0  0  0  0  0  0  0  0  0  0
  -12.4790   24.1810   53.9190 N   0  0  0  0  0  0  0  0  0  0  0  0
  -13.2700   23.0000   53.5930 C   0  0  2  0  0  0  0  0  0  0  0  0
  -12.4090   21.9980   52.8350 C   0  0  0  0  0  0  0  0  0  0  0  0
  -12.5070   20.7900   53.0550 O   0  0  0  0  0  0  0  0  0  0  0  0
  -14.4840   23.3900   52.7500 C   0  0  0  0  0  0  0  0  0  0  0  0
  -15.3530   24.2360   53.4840 O   0  0  0  0  0  0  0  0  0  0  0  0
  -11.5710   22.5050   51.9370 N   0  0  0  0  0  0  0  0  0  0  0  0
  -10.6740   21.6520   51.1650 C   0  0  2  0  0  0  0  0  0  0  0  0
   -9.7110   20.9890   52.1440 C   0  0  0  0  0  0  0  0  0  0  0  0
   -9.5360   19.7720   52.1400 O   0  0  0  0  0  0  0  0  0  0  0  0
   -9.8820   22.4900   50.1490 C   0  0  0  0  0  0  0  0  0  0  0  0
   -8.8210   21.8050   49.2720 C   0  0  0  0  0  0  0  0  0  0  0  0
   -8.2400   22.8180   48.3030 C   0  0  0  0  0  0  0  0  0  0  0  0
   -7.7070   21.2230   50.1220 C   0  0  0  0  0  0  0  0  0  0  0  0
   -9.0830   21.8100   52.9790 N   0  0  0  0  0  0  0  0  0  0  0  0
   -8.1240   21.3310   53.9670 C   0  0  2  0  0  0  0  0  0  0  0  0
   -8.7310   20.2560   54.8650 C   0  0  0  0  0  0  0  0  0  0  0  0
   -8.0740   19.2730   55.2020 O   0  0  0  0  0  0  0  0  0  0  0  0
   -7.6400   22.5010   54.8300 C   0  0  0  0  0  0  0  0  0  0  0  0
   -6.5290   22.1410   55.7730 C   0  0  0  0  0  0  0  0  0  0  0  0
   -5.2050   22.1520   55.3420 C   0  0  0  0  0  0  0  0  0  0  0  0
   -6.8040   21.7740   57.0850 C   0  0  0  0  0  0  0  0  0  0  0  0
   -4.1700   21.8040   56.2050 C   0  0  0  0  0  0  0  0  0  0  0  0
   -5.7750   21.4220   57.9600 C   0  0  0  0  0  0  0  0  0  0  0  0
   -4.4520   21.4380   57.5160 C   0  0  0  0  0  0  0  0  0  0  0  0
   -9.9870   20.4490   55.2500 N   0  0  0  0  0  0  0  0  0  0  0  0
  -10.6730   19.4980   56.1180 C   0  0  2  0  0  0  0  0  0  0  0  0
  -11.0100   18.1940   55.3970 C   0  0  0  0  0  0  0  0  0  0  0  0
  -11.3350   17.1910   56.0330 O   0  0  0  0  0  0  0  0  0  0  0  0
  -11.9430   20.1290   56.6790 C   0  0  0  0  0  0  0  0  0  0  0  0
  -10.9310   18.2140   54.0700 N   0  0  0  0  0  0  0  0  0  0  0  0
  -11.2260   17.0240   53.2910 C   0  0  0  0  0  0  0  0  0  0  0  0
  -12.5520   17.1080   52.5580 C   0  0  0  0  0  0  0  0  0  0  0  0
  -13.2940   18.0890   52.7770 O   0  5  0  0  0  0  0  0  0  0  0  0
  -12.8530   16.1930   51.7620 O   0  0  0  0  0  0  0  0  0  0  0  0
   -8.6690   31.0236   54.5806 H   0  0  0  0  0  0  0  0  0  0  0  0
   -9.2064   29.9289   53.4751 H   0  0  0  0  0  0  0  0  0  0  0  0
   -9.1295   29.5203   55.0678 H   0  0  0  0  0  0  0  0  0  0  0  0
  -10.8206   31.1115   55.6469 H   0  0  0  0  0  0  0  0  0  0  0  0
  -12.0025   32.3179   53.8694 H   0  0  0  0  0  0  0  0  0  0  0  0
  -10.9550   31.5585   52.6233 H   0  0  0  0  0  0  0  0  0  0  0  0
   -9.1762   32.6166   53.6499 H   0  0  0  0  0  0  0  0  0  0  0  0
  -13.2459   30.9183   54.5309 H   0  0  0  0  0  0  0  0  0  0  0  0
  -14.1358   28.4232   55.1511 H   0  0  0  0  0  0  0  0  0  0  0  0
  -15.3831   30.1273   52.9521 H   0  0  0  0  0  0  0  0  0  0  0  0
  -15.5255   30.4708   54.7095 H   0  0  0  0  0  0  0  0  0  0  0  0
  -17.2837   29.2134   53.8947 H   0  0  0  0  0  0  0  0  0  0  0  0
  -13.6752   29.3506   51.6725 H   0  0  0  0  0  0  0  0  0  0  0  0
  -14.2853   26.7221   50.7553 H   0  0  0  0  0  0  0  0  0  0  0  0
  -13.1072   27.4315   48.6437 H   0  0  0  0  0  0  0  0  0  0  0  0
  -12.6428   28.9505   49.4825 H   0  0  0  0  0  0  0  0  0  0  0  0
  -15.0019   29.5239   49.7945 H   0  0  0  0  0  0  0  0  0  0  0  0
  -15.4953   27.9812   49.0177 H   0  0  0  0  0  0  0  0  0  0  0  0
  -14.4124   28.6873   46.9195 H   0  0  0  0  0  0  0  0  0  0  0  0
  -13.9075   30.2268   47.6951 H   0  0  0  0  0  0  0  0  0  0  0  0
  -16.4488   29.6760   46.4932 H   0  0  0  0  0  0  0  0  0  0  0  0
  -16.3973   32.2881   49.6096 H   0  0  0  0  0  0  0  0  0  0  0  0
  -15.0375   31.1541   49.3918 H   0  0  0  0  0  0  0  0  0  0  0  0
  -18.1732   31.1143   46.7801 H   0  0  0  0  0  0  0  0  0  0  0  0
  -18.1598   32.2620   48.1460 H   0  0  0  0  0  0  0  0  0  0  0  0
  -11.1027   28.2731   51.3877 H   0  0  0  0  0  0  0  0  0  0  0  0
   -9.6045   25.9526   50.6171 H   0  0  0  0  0  0  0  0  0  0  0  0
   -8.8990   28.2065   52.5546 H   0  0  0  0  0  0  0  0  0  0  0  0
   -8.5524   28.1612   50.7927 H   0  0  0  0  0  0  0  0  0  0  0  0
   -6.9844   26.3897   49.9223 H   0  0  0  0  0  0  0  0  0  0  0  0
   -7.4402   27.1977   54.0929 H   0  0  0  0  0  0  0  0  0  0  0  0
   -4.9104   25.1347   50.3868 H   0  0  0  0  0  0  0  0  0  0  0  0
   -5.3715   25.9377   54.5738 H   0  0  0  0  0  0  0  0  0  0  0  0
   -4.1037   24.8994   52.7173 H   0  0  0  0  0  0  0  0  0  0  0  0
  -10.9094   27.1104   53.7370 H   0  0  0  0  0  0  0  0  0  0  0  0
   -9.6980   25.1659   55.3986 H   0  0  0  0  0  0  0  0  0  0  0  0
  -11.7385   25.5616   56.8881 H   0  0  0  0  0  0  0  0  0  0  0  0
  -12.3317   26.6748   55.6093 H   0  0  0  0  0  0  0  0  0  0  0  0
  -10.2848   28.0367   55.8738 H   0  0  0  0  0  0  0  0  0  0  0  0
   -9.7440   26.9410   57.1906 H   0  0  0  0  0  0  0  0  0  0  0  0
  -12.7127   25.0582   53.4996 H   0  0  0  0  0  0  0  0  0  0  0  0
  -13.6201   22.5363   54.5270 H   0  0  0  0  0  0  0  0  0  0  0  0
  -15.0281   22.4798   52.4577 H   0  0  0  0  0  0  0  0  0  0  0  0
  -14.1424   23.9186   51.8479 H   0  0  0  0  0  0  0  0  0  0  0  0
  -14.8872   25.0247   53.7358 H   0  0  0  0  0  0  0  0  0  0  0  0
  -11.5549   23.4936   51.7870 H   0  0  0  0  0  0  0  0  0  0  0  0
  -11.2553   20.8850   50.6323 H   0  0  0  0  0  0  0  0  0  0  0  0
   -9.3680   23.2800   50.7161 H   0  0  0  0  0  0  0  0  0  0  0  0
  -10.6156   22.9457   49.4678 H   0  0  0  0  0  0  0  0  0  0  0  0
   -9.2978   20.9924   48.7042 H   0  0  0  0  0  0  0  0  0  0  0  0
   -7.4805   22.3302   47.6743 H   0  0  0  0  0  0  0  0  0  0  0  0
   -7.7759   23.6406   48.8669 H   0  0  0  0  0  0  0  0  0  0  0  0
   -9.0423   23.2175   47.6653 H   0  0  0  0  0  0  0  0  0  0  0  0
   -8.1275   20.4886   50.8247 H   0  0  0  0  0  0  0  0  0  0  0  0
   -7.2159   22.0300   50.6855 H   0  0  0  0  0  0  0  0  0  0  0  0
   -6.9701   20.7284   49.4721 H   0  0  0  0  0  0  0  0  0  0  0  0
   -9.2748   22.7901   52.9279 H   0  0  0  0  0  0  0  0  0  0  0  0
   -7.2628   20.8988   53.4363 H   0  0  0  0  0  0  0  0  0  0  0  0
   -8.4906   22.8704   55.4216 H   0  0  0  0  0  0  0  0  0  0  0  0
   -7.2831   23.2994   54.1628 H   0  0  0  0  0  0  0  0  0  0  0  0
   -4.9774   22.4354   54.3208 H   0  0  0  0  0  0  0  0  0  0  0  0
   -7.8305   21.7610   57.4331 H   0  0  0  0  0  0  0  0  0  0  0  0
   -3.1442   21.8184   55.8549 H   0  0  0  0  0  0  0  0  0  0  0  0
   -6.0027   21.1372   58.9808 H   0  0  0  0  0  0  0  0  0  0  0  0
   -3.6480   21.1663   58.1904 H   0  0  0  0  0  0  0  0  0  0  0  0
  -10.4738   21.2648   54.9379 H   0  0  0  0  0  0  0  0  0  0  0  0
  -10.0031   19.2588   56.9571 H   0  0  0  0  0  0  0  0  0  0  0  0
  -12.4540   19.4061   57.3319 H   0  0  0  0  0  0  0  0  0  0  0  0
  -12.6098   20.4099   55.8505 H   0  0  0  0  0  0  0  0  0  0  0  0
  -11.6813   21.0260   57.2593 H   0  0  0  0  0  0  0  0  0  0  0  0
  -10.6656   19.0575   53.6031 H   0  0  0  0  0  0  0  0  0  0  0  0
  -11.2552   16.1590   53.9699 H   0  0  0  0  0  0  0  0  0  0  0  0
  -10.4248   16.8822   52.5507 H   0  0  0  0  0  0  0  0  0  0  0  0
  1  2  1  0  0  0  0
  1 79  1  0  0  0  0
  1 80  1  0  0  0  0
  1 81  1  0  0  0  0
  2  3  1  0  0  0  0
  2  5  1  0  0  0  0
  2 82  1  1  0  0  0
  3  4  2  0  0  0  0
  3  7  1  0  0  0  0
  5  6  1  0  0  0  0
  5 83  1  0  0  0  0
  5 84  1  0  0  0  0
  6 85  1  0  0  0  0
  7  8  1  0  0  0  0
  7 86  1  0  0  0  0
  8  9  1  0  0  0  0
  8 11  1  0  0  0  0
  8 87  1  1  0  0  0
  9 10  2  0  0  0  0
  9 13  1  0  0  0  0
 11 12  1  0  0  0  0
 11 88  1  0  0  0  0
 11 89  1  0  0  0  0
 12 90  1  0  0  0  0
 13 14  1  0  0  0  0
 13 91  1  0  0  0  0
 14 15  1  0  0  0  0
 14 17  1  0  0  0  0
 14 92  1  6  0  0  0
 15 16  2  0  0  0  0
 15 24  1  0  0  0  0
 17 18  1  0  0  0  0
 17 93  1  0  0  0  0
 17 94  1  0  0  0  0
 18 19  1  0  0  0  0
 18 95  1  0  0  0  0
 18 96  1  0  0  0  0
 19 20  1  0  0  0  0
 19 97  1  0  0  0  0
 19 98  1  0  0  0  0
 20 21  1  0  0  0  0
 20 99  1  0  0  0  0
 21 22  1  0  0  0  0
 21 23  1  0  0  0  0
 22100  1  0  0  0  0
 22101  1  0  0  0  0
 23102  1  0  0  0  0
 23103  1  0  0  0  0
 24 25  1  0  0  0  0
 24104  1  0  0  0  0
 25 26  1  0  0  0  0
 25 28  1  0  0  0  0
 25105  1  6  0  0  0
 26 27  2  0  0  0  0
 26 35  1  0  0  0  0
 28 29  1  0  0  0  0
 28106  1  0  0  0  0
 28107  1  0  0  0  0
 29 30  2  0  0  0  0
 29 31  1  0  0  0  0
 30 32  1  0  0  0  0
 30108  1  0  0  0  0
 31 33  2  0  0  0  0
 31109  1  0  0  0  0
 32 34  2  0  0  0  0
 32110  1  0  0  0  0
 33 34  1  0  0  0  0
 33111  1  0  0  0  0
 34112  1  0  0  0  0
 35 36  1  0  0  0  0
 35113  1  0  0  0  0
 36 37  1  0  0  0  0
 36 39  1  0  0  0  0
 36114  1  1  0  0  0
 37 38  2  0  0  0  0
 37 44  1  0  0  0  0
 39 40  1  0  0  0  0
 39115  1  0  0  0  0
 39116  1  0  0  0  0
 40 41  1  0  0  0  0
 40117  1  0  0  0  0
 40118  1  0  0  0  0
 41 42  1  0  0  0  0
 41 43  2  0  0  0  0
 44 45  1  0  0  0  0
 44119  1  0  0  0  0
 45 46  1  0  0  0  0
 45 48  1  0  0  0  0
 45120  1  1  0  0  0
 46 47  2  0  0  0  0
 46 50  1  0  0  0  0
 48 49  1  0  0  0  0
 48121  1  0  0  0  0
 48122  1  0  0  0  0
 49123  1  0  0  0  0
 50 51  1  0  0  0  0
 50124  1  0  0  0  0
 51 52  1  0  0  0  0
 51 54  1  0  0  0  0
 51125  1  6  0  0  0
 52 53  2  0  0  0  0
 52 58  1  0  0  0  0
 54 55  1  0  0  0  0
 54126  1  0  0  0  0
 54127  1  0  0  0  0
 55 56  1  0  0  0  0
 55 57  1  0  0  0  0
 55128  1  0  0  0  0
 56129  1  0  0  0  0
 56130  1  0  0  0  0
 56131  1  0  0  0  0
 57132  1  0  0  0  0
 57133  1  0  0  0  0
 57134  1  0  0  0  0
 58 59  1  0  0  0  0
 58135  1  0  0  0  0
 59 60  1  0  0  0  0
 59 62  1  0  0  0  0
 59136  1  6  0  0  0
 60 61  2  0  0  0  0
 60 69  1  0  0  0  0
 62 63  1  0  0  0  0
 62137  1  0  0  0  0
 62138  1  0  0  0  0
 63 64  2  0  0  0  0
 63 65  1  0  0  0  0
 64 66  1  0  0  0  0
 64139  1  0  0  0  0
 65 67  2  0  0  0  0
 65140  1  0  0  0  0
 66 68  2  0  0  0  0
 66141  1  0  0  0  0
 67 68  1  0  0  0  0
 67142  1  0  0  0  0
 68143  1  0  0  0  0
 69 70  1  0  0  0  0
 69144  1  0  0  0  0
 70 71  1  0  0  0  0
 70 73  1  0  0  0  0
 70145  1  1  0  0  0
 71 72  2  0  0  0  0
 71 74  1  0  0  0  0
 73146  1  0  0  0  0
 73147  1  0  0  0  0
 73148  1  0  0  0  0
 74 75  1  0  0  0  0
 74149  1  0  0  0  0
 75 76  1  0  0  0  0
 75150  1  0  0  0  0
 75151  1  0  0  0  0
 76 77  1  0  0  0  0
 76 78  2  0  0  0  0
M  CHG  3   1   1  42  -1  77  -1
M  END
