1tet_ligand
 OpenBabel08222323343D

188189  0  0  1  0  0  0  0  0999 V2000
   48.9650   52.5080   86.3390 N   0  3  0  0  0  0  0  0  0  0  0  0
   48.1100   51.4830   85.7450 C   0  0  2  0  0  0  0  0  0  0  0  0
   47.6020   52.3150   84.5640 C   0  0  0  0  0  0  0  0  0  0  0  0
   47.0620   53.4050   84.7780 O   0  0  0  0  0  0  0  0  0  0  0  0
   46.9160   51.0620   86.6810 C   0  0  0  0  0  0  0  0  0  0  0  0
   46.0520   50.1410   85.8680 C   0  0  0  0  0  0  0  0  0  0  0  0
   47.3180   50.2510   87.9380 C   0  0  0  0  0  0  0  0  0  0  0  0
   47.8860   51.9330   83.3230 N   0  0  0  0  0  0  0  0  0  0  0  0
   47.5300   52.6830   82.1170 C   0  0  2  0  0  0  0  0  0  0  0  0
   46.0610   53.0710   82.1250 C   0  0  0  0  0  0  0  0  0  0  0  0
   45.2480   52.2330   82.5050 O   0  0  0  0  0  0  0  0  0  0  0  0
   47.9020   51.7440   80.9780 C   0  0  0  0  0  0  0  0  0  0  0  0
   49.1080   51.0830   81.5240 C   0  0  0  0  0  0  0  0  0  0  0  0
   48.6590   50.7550   82.9640 C   0  0  0  0  0  0  0  0  0  0  0  0
   45.6690   54.3050   81.7800 N   0  0  0  0  0  0  0  0  0  0  0  0
   44.2530   54.6520   81.7580 C   0  0  0  0  0  0  0  0  0  0  0  0
   43.5740   54.6320   83.1010 C   0  0  0  0  0  0  0  0  0  0  0  0
   42.4010   54.3010   83.0840 O   0  0  0  0  0  0  0  0  0  0  0  0
   44.1020   55.0000   84.2740 N   0  0  0  0  0  0  0  0  0  0  0  0
   43.3510   54.7020   85.5000 C   0  0  2  0  0  0  0  0  0  0  0  0
   43.2050   55.4750   86.8110 C   0  0  0  0  0  0  0  0  0  0  0  0
   42.2160   55.2310   87.5440 O   0  0  0  0  0  0  0  0  0  0  0  0
   43.7430   53.2550   85.8620 C   0  0  0  0  0  0  0  0  0  0  0  0
   43.3630   52.8430   87.1640 O   0  0  0  0  0  0  0  0  0  0  0  0
   44.0760   56.3660   87.2140 N   0  0  0  0  0  0  0  0  0  0  0  0
   44.0750   56.9560   88.5720 C   0  0  2  0  0  0  0  0  0  0  0  0
   44.2370   55.9260   89.6930 C   0  0  0  0  0  0  0  0  0  0  0  0
   44.1550   56.2550   90.8770 O   0  0  0  0  0  0  0  0  0  0  0  0
   42.7960   57.7530   88.8990 C   0  0  0  0  0  0  0  0  0  0  0  0
   42.7870   59.1470   88.3480 C   0  0  0  0  0  0  0  0  0  0  0  0
   41.4010   59.5900   88.0120 C   0  0  0  0  0  0  0  0  0  0  0  0
   41.1600   59.7080   86.8280 O   0  0  0  0  0  0  0  0  0  0  0  0
   40.3990   59.8800   88.8410 N   0  0  0  0  0  0  0  0  0  0  0  0
   44.4190   54.6320   89.4180 N   0  0  0  0  0  0  0  0  0  0  0  0
   44.7400   53.7060   90.4970 C   0  0  2  0  0  0  0  0  0  0  0  0
   46.2250   53.3810   90.4290 C   0  0  0  0  0  0  0  0  0  0  0  0
   46.9260   53.6800   89.4600 O   0  0  0  0  0  0  0  0  0  0  0  0
   43.8480   52.4490   90.3840 C   0  0  0  0  0  0  0  0  0  0  0  0
   42.4490   52.9100   90.7070 C   0  0  0  0  0  0  0  0  0  0  0  0
   41.6240   53.6830   89.9930 N   0  0  0  0  0  0  0  0  0  0  0  0
   41.8330   52.6390   91.9020 C   0  0  0  0  0  0  0  0  0  0  0  0
   40.5510   53.8920   90.7210 C   0  0  0  0  0  0  0  0  0  0  0  0
   40.6890   53.2600   91.8650 N   0  0  0  0  0  0  0  0  0  0  0  0
   46.6650   52.8330   91.5480 N   0  0  0  0  0  0  0  0  0  0  0  0
   48.0360   52.5080   91.8730 C   0  0  2  0  0  0  0  0  0  0  0  0
   48.1040   50.9760   91.8610 C   0  0  0  0  0  0  0  0  0  0  0  0
   47.0700   50.2810   91.9390 O   0  0  0  0  0  0  0  0  0  0  0  0
   48.2210   53.1960   93.2450 C   0  0  2  0  0  0  0  0  0  0  0  0
   48.4070   54.6890   92.9750 C   0  0  0  0  0  0  0  0  0  0  0  0
   49.3900   52.6780   94.0390 C   0  0  0  0  0  0  0  0  0  0  0  0
   49.7600   55.0850   92.3200 C   0  0  0  0  0  0  0  0  0  0  0  0
   49.3120   50.4390   91.7210 N   0  0  0  0  0  0  0  0  0  0  0  0
   49.5510   49.0070   91.7310 C   0  0  2  0  0  0  0  0  0  0  0  0
   51.0110   48.8450   92.0900 C   0  0  0  0  0  0  0  0  0  0  0  0
   51.7570   49.8130   91.9010 O   0  0  0  0  0  0  0  0  0  0  0  0
   49.3170   48.4150   90.3620 C   0  0  0  0  0  0  0  0  0  0  0  0
   49.0330   46.9260   90.3200 C   0  0  0  0  0  0  0  0  0  0  0  0
   49.1650   46.2640   91.3490 O   0  5  0  0  0  0  0  0  0  0  0  0
   48.6510   46.4390   89.2460 O   0  0  0  0  0  0  0  0  0  0  0  0
   51.4580   47.6900   92.6020 N   0  0  0  0  0  0  0  0  0  0  0  0
   52.8730   47.5500   92.9080 C   0  0  2  0  0  0  0  0  0  0  0  0
   53.6360   46.9410   91.7280 C   0  0  0  0  0  0  0  0  0  0  0  0
   53.0580   46.2900   90.8550 O   0  0  0  0  0  0  0  0  0  0  0  0
   53.0160   46.6900   94.1670 C   0  0  0  0  0  0  0  0  0  0  0  0
   52.1140   45.5690   94.2270 O   0  0  0  0  0  0  0  0  0  0  0  0
   54.9430   47.1840   91.6430 N   0  0  0  0  0  0  0  0  0  0  0  0
   55.7690   46.6150   90.5950 C   0  0  2  0  0  0  0  0  0  0  0  0
   56.0460   45.1650   90.9430 C   0  0  0  0  0  0  0  0  0  0  0  0
   55.8540   44.7680   92.0970 O   0  0  0  0  0  0  0  0  0  0  0  0
   57.1110   47.2990   90.4920 C   0  0  0  0  0  0  0  0  0  0  0  0
   57.1020   48.7810   90.2510 C   0  0  0  0  0  0  0  0  0  0  0  0
   58.5520   49.1840   90.1730 C   0  0  0  0  0  0  0  0  0  0  0  0
   59.0960   49.3010   89.0920 O   0  0  0  0  0  0  0  0  0  0  0  0
   59.2780   49.3160   91.2770 N   0  0  0  0  0  0  0  0  0  0  0  0
   56.5930   44.4290   89.9800 N   0  0  0  0  0  0  0  0  0  0  0  0
   56.9010   43.0290   90.1580 C   0  0  2  0  0  0  0  0  0  0  0  0
   58.3300   42.7240   89.7840 C   0  0  0  0  0  0  0  0  0  0  0  0
   58.6270   42.8380   88.5910 O   0  0  0  0  0  0  0  0  0  0  0  0
   55.9820   42.1820   89.3050 C   0  0  0  0  0  0  0  0  0  0  0  0
   54.7560   41.6740   90.0240 C   0  0  0  0  0  0  0  0  0  0  0  0
   54.0580   40.6540   89.1180 C   0  0  0  0  0  0  0  0  0  0  0  0
   54.7080   39.2610   89.0270 C   0  0  0  0  0  0  0  0  0  0  0  0
   56.0690   39.1950   88.4900 N   0  3  0  0  0  0  0  0  0  0  0  0
   59.1870   42.4170   90.7780 N   0  0  0  0  0  0  0  0  0  0  0  0
   60.5760   42.0540   90.5060 C   0  0  2  0  0  0  0  0  0  0  0  0
   60.6750   40.6830   89.8650 C   0  0  0  0  0  0  0  0  0  0  0  0
   61.5490   40.5180   89.0230 O   0  0  0  0  0  0  0  0  0  0  0  0
   61.4170   42.1040   91.8110 C   0  0  0  0  0  0  0  0  0  0  0  0
   62.3950   40.9930   92.2250 C   0  0  0  0  0  0  0  0  0  0  0  0
   61.7410   39.9960   93.1840 C   0  0  0  0  0  0  0  0  0  0  0  0
   62.6910   38.9100   93.6980 C   0  0  0  0  0  0  0  0  0  0  0  0
   62.8690   37.8260   92.7510 N   0  3  0  0  0  0  0  0  0  0  0  0
   49.7088   52.7375   85.6986 H   0  0  0  0  0  0  0  0  0  0  0  0
   49.3580   52.1604   87.1997 H   0  0  0  0  0  0  0  0  0  0  0  0
   48.4182   53.3333   86.5284 H   0  0  0  0  0  0  0  0  0  0  0  0
   48.6744   50.5919   85.4330 H   0  0  0  0  0  0  0  0  0  0  0  0
   46.3615   51.9609   86.9884 H   0  0  0  0  0  0  0  0  0  0  0  0
   45.1952   49.8118   86.4742 H   0  0  0  0  0  0  0  0  0  0  0  0
   46.6402   49.2646   85.5582 H   0  0  0  0  0  0  0  0  0  0  0  0
   45.6877   50.6720   84.9762 H   0  0  0  0  0  0  0  0  0  0  0  0
   47.9576   50.8698   88.5845 H   0  0  0  0  0  0  0  0  0  0  0  0
   47.8690   49.3495   87.6320 H   0  0  0  0  0  0  0  0  0  0  0  0
   46.4129   49.9579   88.4902 H   0  0  0  0  0  0  0  0  0  0  0  0
   48.1300   53.6026   82.0509 H   0  0  0  0  0  0  0  0  0  0  0  0
   48.1306   52.3001   80.0569 H   0  0  0  0  0  0  0  0  0  0  0  0
   47.1009   51.0172   80.7782 H   0  0  0  0  0  0  0  0  0  0  0  0
   49.9742   51.7609   81.5186 H   0  0  0  0  0  0  0  0  0  0  0  0
   49.3537   50.1695   80.9626 H   0  0  0  0  0  0  0  0  0  0  0  0
   48.0379   49.8475   82.9907 H   0  0  0  0  0  0  0  0  0  0  0  0
   49.5238   50.6272   83.6316 H   0  0  0  0  0  0  0  0  0  0  0  0
   46.3525   54.9929   81.5359 H   0  0  0  0  0  0  0  0  0  0  0  0
   43.7358   53.9353   81.1031 H   0  0  0  0  0  0  0  0  0  0  0  0
   44.1561   55.6654   81.3414 H   0  0  0  0  0  0  0  0  0  0  0  0
   44.9857   55.4662   84.3147 H   0  0  0  0  0  0  0  0  0  0  0  0
   42.3129   54.6763   85.1370 H   0  0  0  0  0  0  0  0  0  0  0  0
   44.8364   53.1664   85.7809 H   0  0  0  0  0  0  0  0  0  0  0  0
   43.2656   52.5797   85.1367 H   0  0  0  0  0  0  0  0  0  0  0  0
   43.6406   51.9454   87.3046 H   0  0  0  0  0  0  0  0  0  0  0  0
   44.7801   56.6641   86.5695 H   0  0  0  0  0  0  0  0  0  0  0  0
   44.9297   57.6470   88.6166 H   0  0  0  0  0  0  0  0  0  0  0  0
   42.6964   57.8131   89.9928 H   0  0  0  0  0  0  0  0  0  0  0  0
   41.9347   57.2109   88.4816 H   0  0  0  0  0  0  0  0  0  0  0  0
   43.4029   59.1760   87.4370 H   0  0  0  0  0  0  0  0  0  0  0  0
   43.2096   59.8314   89.0983 H   0  0  0  0  0  0  0  0  0  0  0  0
   39.5140   60.1672   88.4745 H   0  0  0  0  0  0  0  0  0  0  0  0
   40.5320   59.8105   89.8297 H   0  0  0  0  0  0  0  0  0  0  0  0
   44.3356   54.3005   88.4782 H   0  0  0  0  0  0  0  0  0  0  0  0
   44.5325   54.1910   91.4622 H   0  0  0  0  0  0  0  0  0  0  0  0
   44.1740   51.6817   91.1016 H   0  0  0  0  0  0  0  0  0  0  0  0
   43.8906   52.0390   89.3642 H   0  0  0  0  0  0  0  0  0  0  0  0
   41.7981   54.0477   89.0456 H   0  0  0  0  0  0  0  0  0  0  0  0
   42.2215   52.0288   92.7160 H   0  0  0  0  0  0  0  0  0  0  0  0
   39.6899   54.4897   90.4257 H   0  0  0  0  0  0  0  0  0  0  0  0
   45.9779   52.6208   92.2429 H   0  0  0  0  0  0  0  0  0  0  0  0
   48.7512   52.9158   91.1435 H   0  0  0  0  0  0  0  0  0  0  0  0
   47.3089   53.0415   93.8402 H   0  0  0  0  0  0  0  0  0  0  0  0
   48.3265   55.2200   93.9350 H   0  0  0  0  0  0  0  0  0  0  0  0
   47.5975   55.0162   92.3059 H   0  0  0  0  0  0  0  0  0  0  0  0
   49.2546   51.6036   94.2324 H   0  0  0  0  0  0  0  0  0  0  0  0
   49.4517   53.2178   94.9955 H   0  0  0  0  0  0  0  0  0  0  0  0
   50.3181   52.8339   93.4694 H   0  0  0  0  0  0  0  0  0  0  0  0
   49.7899   56.1744   92.1703 H   0  0  0  0  0  0  0  0  0  0  0  0
   49.8592   54.5786   91.3486 H   0  0  0  0  0  0  0  0  0  0  0  0
   50.5882   54.7824   92.9776 H   0  0  0  0  0  0  0  0  0  0  0  0
   50.0940   51.0510   91.6031 H   0  0  0  0  0  0  0  0  0  0  0  0
   48.9049   48.5110   92.4703 H   0  0  0  0  0  0  0  0  0  0  0  0
   50.2156   48.6031   89.7561 H   0  0  0  0  0  0  0  0  0  0  0  0
   48.4571   48.9341   89.9136 H   0  0  0  0  0  0  0  0  0  0  0  0
   50.8263   46.9336   92.7716 H   0  0  0  0  0  0  0  0  0  0  0  0
   53.2918   48.5466   93.1112 H   0  0  0  0  0  0  0  0  0  0  0  0
   52.8298   47.3287   95.0430 H   0  0  0  0  0  0  0  0  0  0  0  0
   54.0458   46.3054   94.2059 H   0  0  0  0  0  0  0  0  0  0  0  0
   52.2627   45.0871   95.0321 H   0  0  0  0  0  0  0  0  0  0  0  0
   55.3691   47.7788   92.3247 H   0  0  0  0  0  0  0  0  0  0  0  0
   55.2405   46.6870   89.6330 H   0  0  0  0  0  0  0  0  0  0  0  0
   57.6597   46.8308   89.6615 H   0  0  0  0  0  0  0  0  0  0  0  0
   57.6488   47.1190   91.4345 H   0  0  0  0  0  0  0  0  0  0  0  0
   56.6020   49.3025   91.0804 H   0  0  0  0  0  0  0  0  0  0  0  0
   56.5868   49.0141   89.3075 H   0  0  0  0  0  0  0  0  0  0  0  0
   60.2394   49.5839   91.2141 H   0  0  0  0  0  0  0  0  0  0  0  0
   58.8633   49.1475   92.1712 H   0  0  0  0  0  0  0  0  0  0  0  0
   56.7984   44.8600   89.1014 H   0  0  0  0  0  0  0  0  0  0  0  0
   56.7491   42.7697   91.2162 H   0  0  0  0  0  0  0  0  0  0  0  0
   56.5522   41.3142   88.9421 H   0  0  0  0  0  0  0  0  0  0  0  0
   55.6520   42.7881   88.4484 H   0  0  0  0  0  0  0  0  0  0  0  0
   54.0748   42.5113   90.2359 H   0  0  0  0  0  0  0  0  0  0  0  0
   55.0507   41.1930   90.9683 H   0  0  0  0  0  0  0  0  0  0  0  0
   54.0260   41.0753   88.1024 H   0  0  0  0  0  0  0  0  0  0  0  0
   53.0322   40.5208   89.4922 H   0  0  0  0  0  0  0  0  0  0  0  0
   54.0678   38.6376   88.3855 H   0  0  0  0  0  0  0  0  0  0  0  0
   54.7314   38.8390   90.0425 H   0  0  0  0  0  0  0  0  0  0  0  0
   56.3808   38.2365   88.4816 H   0  0  0  0  0  0  0  0  0  0  0  0
   56.6855   39.7438   89.0686 H   0  0  0  0  0  0  0  0  0  0  0  0
   56.0774   39.5592   87.5502 H   0  0  0  0  0  0  0  0  0  0  0  0
   58.8645   42.4382   91.7243 H   0  0  0  0  0  0  0  0  0  0  0  0
   60.9892   42.7907   89.8014 H   0  0  0  0  0  0  0  0  0  0  0  0
   59.9963   39.8777   90.1423 H   0  0  0  0  0  0  0  0  0  0  0  0
   60.6925   42.1908   92.6341 H   0  0  0  0  0  0  0  0  0  0  0  0
   62.0148   43.0253   91.7500 H   0  0  0  0  0  0  0  0  0  0  0  0
   63.2638   41.4491   92.7221 H   0  0  0  0  0  0  0  0  0  0  0  0
   62.7277   40.4563   91.3243 H   0  0  0  0  0  0  0  0  0  0  0  0
   60.9080   39.5062   92.6584 H   0  0  0  0  0  0  0  0  0  0  0  0
   61.3519   40.5528   94.0492 H   0  0  0  0  0  0  0  0  0  0  0  0
   62.2811   38.4974   94.6317 H   0  0  0  0  0  0  0  0  0  0  0  0
   63.6716   39.3665   93.8982 H   0  0  0  0  0  0  0  0  0  0  0  0
   63.5005   37.1422   93.1379 H   0  0  0  0  0  0  0  0  0  0  0  0
   63.2522   38.1894   91.8924 H   0  0  0  0  0  0  0  0  0  0  0  0
   61.9781   37.3930   92.5646 H   0  0  0  0  0  0  0  0  0  0  0  0
  1  2  1  0  0  0  0
  1 93  1  0  0  0  0
  1 94  1  0  0  0  0
  1 95  1  0  0  0  0
  2  3  1  0  0  0  0
  2  5  1  0  0  0  0
  2 96  1  6  0  0  0
  3  4  2  0  0  0  0
  3  8  1  0  0  0  0
  5  6  1  0  0  0  0
  5  7  1  0  0  0  0
  5 97  1  0  0  0  0
  6 98  1  0  0  0  0
  6 99  1  0  0  0  0
  6100  1  0  0  0  0
  7101  1  0  0  0  0
  7102  1  0  0  0  0
  7103  1  0  0  0  0
  8  9  1  0  0  0  0
  8 14  1  0  0  0  0
  9 10  1  0  0  0  0
  9 12  1  0  0  0  0
  9104  1  6  0  0  0
 10 11  2  0  0  0  0
 10 15  1  0  0  0  0
 12 13  1  0  0  0  0
 12105  1  0  0  0  0
 12106  1  0  0  0  0
 13 14  1  0  0  0  0
 13107  1  0  0  0  0
 13108  1  0  0  0  0
 14109  1  0  0  0  0
 14110  1  0  0  0  0
 15 16  1  0  0  0  0
 15111  1  0  0  0  0
 16 17  1  0  0  0  0
 16112  1  0  0  0  0
 16113  1  0  0  0  0
 17 18  2  0  0  0  0
 17 19  1  0  0  0  0
 19 20  1  0  0  0  0
 19114  1  0  0  0  0
 20 21  1  0  0  0  0
 20 23  1  0  0  0  0
 20115  1  6  0  0  0
 21 22  2  0  0  0  0
 21 25  1  0  0  0  0
 23 24  1  0  0  0  0
 23116  1  0  0  0  0
 23117  1  0  0  0  0
 24118  1  0  0  0  0
 25 26  1  0  0  0  0
 25119  1  0  0  0  0
 26 27  1  0  0  0  0
 26 29  1  0  0  0  0
 26120  1  1  0  0  0
 27 28  2  0  0  0  0
 27 34  1  0  0  0  0
 29 30  1  0  0  0  0
 29121  1  0  0  0  0
 29122  1  0  0  0  0
 30 31  1  0  0  0  0
 30123  1  0  0  0  0
 30124  1  0  0  0  0
 31 32  2  0  0  0  0
 31 33  1  0  0  0  0
 33125  1  0  0  0  0
 33126  1  0  0  0  0
 34 35  1  0  0  0  0
 34127  1  0  0  0  0
 35 36  1  0  0  0  0
 35 38  1  0  0  0  0
 35128  1  1  0  0  0
 36 37  2  0  0  0  0
 36 44  1  0  0  0  0
 38 39  1  0  0  0  0
 38129  1  0  0  0  0
 38130  1  0  0  0  0
 39 40  1  0  0  0  0
 39 41  2  0  0  0  0
 40 42  1  0  0  0  0
 40131  1  0  0  0  0
 41 43  1  0  0  0  0
 41132  1  0  0  0  0
 42 43  2  0  0  0  0
 42133  1  0  0  0  0
 44 45  1  0  0  0  0
 44134  1  0  0  0  0
 45 46  1  0  0  0  0
 45 48  1  0  0  0  0
 45135  1  6  0  0  0
 46 47  2  0  0  0  0
 46 52  1  0  0  0  0
 48 49  1  0  0  0  0
 48 50  1  0  0  0  0
 48136  1  1  0  0  0
 49 51  1  0  0  0  0
 49137  1  0  0  0  0
 49138  1  0  0  0  0
 50139  1  0  0  0  0
 50140  1  0  0  0  0
 50141  1  0  0  0  0
 51142  1  0  0  0  0
 51143  1  0  0  0  0
 51144  1  0  0  0  0
 52 53  1  0  0  0  0
 52145  1  0  0  0  0
 53 54  1  0  0  0  0
 53 56  1  0  0  0  0
 53146  1  1  0  0  0
 54 55  2  0  0  0  0
 54 60  1  0  0  0  0
 56 57  1  0  0  0  0
 56147  1  0  0  0  0
 56148  1  0  0  0  0
 57 58  1  0  0  0  0
 57 59  2  0  0  0  0
 60 61  1  0  0  0  0
 60149  1  0  0  0  0
 61 62  1  0  0  0  0
 61 64  1  0  0  0  0
 61150  1  1  0  0  0
 62 63  2  0  0  0  0
 62 66  1  0  0  0  0
 64 65  1  0  0  0  0
 64151  1  0  0  0  0
 64152  1  0  0  0  0
 65153  1  0  0  0  0
 66 67  1  0  0  0  0
 66154  1  0  0  0  0
 67 68  1  0  0  0  0
 67 70  1  0  0  0  0
 67155  1  6  0  0  0
 68 69  2  0  0  0  0
 68 75  1  0  0  0  0
 70 71  1  0  0  0  0
 70156  1  0  0  0  0
 70157  1  0  0  0  0
 71 72  1  0  0  0  0
 71158  1  0  0  0  0
 71159  1  0  0  0  0
 72 73  2  0  0  0  0
 72 74  1  0  0  0  0
 74160  1  0  0  0  0
 74161  1  0  0  0  0
 75 76  1  0  0  0  0
 75162  1  0  0  0  0
 76 77  1  0  0  0  0
 76 79  1  0  0  0  0
 76163  1  1  0  0  0
 77 78  2  0  0  0  0
 77 84  1  0  0  0  0
 79 80  1  0  0  0  0
 79164  1  0  0  0  0
 79165  1  0  0  0  0
 80 81  1  0  0  0  0
 80166  1  0  0  0  0
 80167  1  0  0  0  0
 81 82  1  0  0  0  0
 81168  1  0  0  0  0
 81169  1  0  0  0  0
 82 83  1  0  0  0  0
 82170  1  0  0  0  0
 82171  1  0  0  0  0
 83172  1  0  0  0  0
 83173  1  0  0  0  0
 83174  1  0  0  0  0
 84 85  1  0  0  0  0
 84175  1  0  0  0  0
 85 86  1  0  0  0  0
 85 88  1  0  0  0  0
 85176  1  6  0  0  0
 86 87  2  0  0  0  0
 86177  1  0  0  0  0
 88 89  1  0  0  0  0
 88178  1  0  0  0  0
 88179  1  0  0  0  0
 89 90  1  0  0  0  0
 89180  1  0  0  0  0
 89181  1  0  0  0  0
 90 91  1  0  0  0  0
 90182  1  0  0  0  0
 90183  1  0  0  0  0
 91 92  1  0  0  0  0
 91184  1  0  0  0  0
 91185  1  0  0  0  0
 92186  1  0  0  0  0
 92187  1  0  0  0  0
 92188  1  0  0  0  0
M  CHG  4   1   1  58  -1  83   1  92   1
M  END
