1tfq_ligand
 OpenBabel08222323343D

 71 73  0  0  1  0  0  0  0  0999 V2000
   -0.2730  -13.4160    5.8580 C   0  0  0  0  0  0  0  0  0  0  0  0
   -1.6730  -13.9300    6.1460 C   0  0  2  0  0  0  0  0  0  0  0  0
    0.8140  -13.6500    6.7260 C   0  0  0  0  0  0  0  0  0  0  0  0
   -0.0710  -12.6760    4.6720 C   0  0  0  0  0  0  0  0  0  0  0  0
   -2.6540  -12.8450    5.8910 N   0  0  0  0  0  0  0  0  0  0  0  0
   -1.8350  -14.4300    7.6110 C   0  0  0  0  0  0  0  0  0  0  0  0
    0.6680  -14.4350    7.9970 C   0  0  0  0  0  0  0  0  0  0  0  0
    2.0880  -13.1440    6.4100 C   0  0  0  0  0  0  0  0  0  0  0  0
    1.2050  -12.1740    4.3630 C   0  0  0  0  0  0  0  0  0  0  0  0
   -3.9620  -13.0680    5.7790 C   0  0  0  0  0  0  0  0  0  0  0  0
   -0.6270  -15.2380    8.0970 C   0  0  0  0  0  0  0  0  0  0  0  0
    2.2820  -12.4080    5.2290 C   0  0  0  0  0  0  0  0  0  0  0  0
   -4.8870  -11.8860    5.6090 C   0  0  1  0  0  0  0  0  0  0  0  0
   -4.4140  -14.2160    5.8300 O   0  0  0  0  0  0  0  0  0  0  0  0
   -5.9970  -12.1870    4.6580 N   0  0  0  0  0  0  0  0  0  0  0  0
   -5.4860  -11.4790    6.9670 C   0  0  0  0  0  0  0  0  0  0  0  0
   -5.9340  -12.5090    3.3490 C   0  0  0  0  0  0  0  0  0  0  0  0
   -7.2320  -12.0520    5.4300 C   0  0  0  0  0  0  0  0  0  0  0  0
   -6.9600  -11.2180    6.6700 C   0  0  0  0  0  0  0  0  0  0  0  0
   -7.2340  -12.7050    2.5830 C   0  0  1  0  0  0  0  0  0  0  0  0
   -4.8560  -12.6270    2.7480 O   0  0  0  0  0  0  0  0  0  0  0  0
   -7.0580  -12.2410    1.1920 N   0  0  0  0  0  0  0  0  0  0  0  0
   -7.6640  -14.1940    2.5870 C   0  0  0  0  0  0  0  0  0  0  0  0
   -7.7390  -11.1820    0.7430 C   0  0  0  0  0  0  0  0  0  0  0  0
   -9.0930  -14.2870    3.1160 C   0  0  0  0  0  0  0  0  0  0  0  0
   -6.7420  -15.0080    3.4950 C   0  0  0  0  0  0  0  0  0  0  0  0
   -7.6210  -14.7660    1.1720 C   0  0  0  0  0  0  0  0  0  0  0  0
   -7.5430  -10.7070   -0.6800 C   0  0  1  0  0  0  0  0  0  0  0  0
   -8.5260  -10.5890    1.4850 O   0  0  0  0  0  0  0  0  0  0  0  0
   -8.7020   -9.9110   -1.0970 N   0  3  0  0  0  0  0  0  0  0  0  0
   -6.2810   -9.8570   -0.7780 C   0  0  0  0  0  0  0  0  0  0  0  0
   -9.6580  -10.7710   -1.7960 C   0  0  0  0  0  0  0  0  0  0  0  0
   -1.8811  -14.7700    5.4670 H   0  0  0  0  0  0  0  0  0  0  0  0
   -0.9013  -12.4949    3.9991 H   0  0  0  0  0  0  0  0  0  0  0  0
   -2.3183  -11.9075    5.7995 H   0  0  0  0  0  0  0  0  0  0  0  0
   -2.7303  -15.0665    7.6687 H   0  0  0  0  0  0  0  0  0  0  0  0
   -1.9623  -13.5575    8.2686 H   0  0  0  0  0  0  0  0  0  0  0  0
    0.7027  -13.7315    8.8419 H   0  0  0  0  0  0  0  0  0  0  0  0
    1.5133  -15.1352    8.0680 H   0  0  0  0  0  0  0  0  0  0  0  0
    2.9219  -13.3223    7.0792 H   0  0  0  0  0  0  0  0  0  0  0  0
    1.3565  -11.6047    3.4530 H   0  0  0  0  0  0  0  0  0  0  0  0
   -0.5329  -16.1440    7.4804 H   0  0  0  0  0  0  0  0  0  0  0  0
   -0.7886  -15.5241    9.1468 H   0  0  0  0  0  0  0  0  0  0  0  0
    3.2653  -12.0209    4.9874 H   0  0  0  0  0  0  0  0  0  0  0  0
   -4.3028  -11.0433    5.2108 H   0  0  0  0  0  0  0  0  0  0  0  0
   -4.9995  -10.5699    7.3501 H   0  0  0  0  0  0  0  0  0  0  0  0
   -5.3748  -12.2912    7.7004 H   0  0  0  0  0  0  0  0  0  0  0  0
   -7.5896  -13.0485    5.7286 H   0  0  0  0  0  0  0  0  0  0  0  0
   -7.9977  -11.5568    4.8148 H   0  0  0  0  0  0  0  0  0  0  0  0
   -7.1368  -10.1507    6.4711 H   0  0  0  0  0  0  0  0  0  0  0  0
   -7.5927  -11.5445    7.5085 H   0  0  0  0  0  0  0  0  0  0  0  0
   -8.0227  -12.1080    3.0642 H   0  0  0  0  0  0  0  0  0  0  0  0
   -6.4265  -12.7212    0.5833 H   0  0  0  0  0  0  0  0  0  0  0  0
   -9.4129  -15.3394    3.1249 H   0  0  0  0  0  0  0  0  0  0  0  0
   -9.7632  -13.7055    2.4659 H   0  0  0  0  0  0  0  0  0  0  0  0
   -9.1325  -13.8832    4.1384 H   0  0  0  0  0  0  0  0  0  0  0  0
   -5.7098  -14.9458    3.1200 H   0  0  0  0  0  0  0  0  0  0  0  0
   -7.0673  -16.0588    3.5007 H   0  0  0  0  0  0  0  0  0  0  0  0
   -6.7854  -14.6051    4.5176 H   0  0  0  0  0  0  0  0  0  0  0  0
   -8.2846  -14.1798    0.5193 H   0  0  0  0  0  0  0  0  0  0  0  0
   -7.9560  -15.8136    1.1896 H   0  0  0  0  0  0  0  0  0  0  0  0
   -6.5915  -14.7166    0.7876 H   0  0  0  0  0  0  0  0  0  0  0  0
   -7.4440  -11.5798   -1.3422 H   0  0  0  0  0  0  0  0  0  0  0  0
   -8.3990   -9.1741   -1.7144 H   0  0  0  0  0  0  0  0  0  0  0  0
   -9.1432   -9.5088   -0.2849 H   0  0  0  0  0  0  0  0  0  0  0  0
   -5.4117  -10.4540   -0.4652 H   0  0  0  0  0  0  0  0  0  0  0  0
   -6.3782   -8.9793   -0.1221 H   0  0  0  0  0  0  0  0  0  0  0  0
   -6.1426   -9.5245   -1.8174 H   0  0  0  0  0  0  0  0  0  0  0  0
  -10.5274  -10.1742   -2.1089 H   0  0  0  0  0  0  0  0  0  0  0  0
   -9.9886  -11.5752   -1.1222 H   0  0  0  0  0  0  0  0  0  0  0  0
   -9.1765  -11.2099   -2.6823 H   0  0  0  0  0  0  0  0  0  0  0  0
  1  2  1  0  0  0  0
  1  3  2  0  0  0  0
  1  4  1  0  0  0  0
  2  5  1  0  0  0  0
  2  6  1  0  0  0  0
  2 33  1  6  0  0  0
  3  7  1  0  0  0  0
  3  8  1  0  0  0  0
  4  9  2  0  0  0  0
  4 34  1  0  0  0  0
  5 10  1  0  0  0  0
  5 35  1  0  0  0  0
  6 11  1  0  0  0  0
  6 36  1  0  0  0  0
  6 37  1  0  0  0  0
  7 11  1  0  0  0  0
  7 38  1  0  0  0  0
  7 39  1  0  0  0  0
  8 12  2  0  0  0  0
  8 40  1  0  0  0  0
  9 12  1  0  0  0  0
  9 41  1  0  0  0  0
 10 13  1  0  0  0  0
 10 14  2  0  0  0  0
 11 42  1  0  0  0  0
 11 43  1  0  0  0  0
 12 44  1  0  0  0  0
 13 15  1  0  0  0  0
 13 16  1  0  0  0  0
 13 45  1  6  0  0  0
 15 17  1  0  0  0  0
 15 18  1  0  0  0  0
 16 19  1  0  0  0  0
 16 46  1  0  0  0  0
 16 47  1  0  0  0  0
 17 20  1  0  0  0  0
 17 21  2  0  0  0  0
 18 19  1  0  0  0  0
 18 48  1  0  0  0  0
 18 49  1  0  0  0  0
 19 50  1  0  0  0  0
 19 51  1  0  0  0  0
 20 22  1  0  0  0  0
 20 23  1  0  0  0  0
 20 52  1  1  0  0  0
 22 24  1  0  0  0  0
 22 53  1  0  0  0  0
 23 25  1  0  0  0  0
 23 26  1  0  0  0  0
 23 27  1  0  0  0  0
 24 28  1  0  0  0  0
 24 29  2  0  0  0  0
 25 54  1  0  0  0  0
 25 55  1  0  0  0  0
 25 56  1  0  0  0  0
 26 57  1  0  0  0  0
 26 58  1  0  0  0  0
 26 59  1  0  0  0  0
 27 60  1  0  0  0  0
 27 61  1  0  0  0  0
 27 62  1  0  0  0  0
 28 30  1  0  0  0  0
 28 31  1  0  0  0  0
 28 63  1  6  0  0  0
 30 32  1  0  0  0  0
 30 64  1  0  0  0  0
 30 65  1  0  0  0  0
 31 66  1  0  0  0  0
 31 67  1  0  0  0  0
 31 68  1  0  0  0  0
 32 69  1  0  0  0  0
 32 70  1  0  0  0  0
 32 71  1  0  0  0  0
M  CHG  1  30   1
M  END
