1tft_ligand
 OpenBabel08222323343D

 82 85  0  0  1  0  0  0  0  0999 V2000
   -1.0150  -13.2570    5.7930 C   0  0  0  0  0  0  0  0  0  0  0  0
   -2.4590  -13.6470    6.0690 C   0  0  2  0  0  0  0  0  0  0  0  0
    0.0440  -13.5960    6.6600 C   0  0  0  0  0  0  0  0  0  0  0  0
   -0.7420  -12.5250    4.6160 C   0  0  0  0  0  0  0  0  0  0  0  0
   -3.3250  -12.4570    5.8800 N   0  0  0  0  0  0  0  0  0  0  0  0
   -2.6650  -14.1840    7.5170 C   0  0  0  0  0  0  0  0  0  0  0  0
   -0.1760  -14.3720    7.9220 C   0  0  0  0  0  0  0  0  0  0  0  0
    1.3600  -13.2040    6.3520 C   0  0  0  0  0  0  0  0  0  0  0  0
    0.5740  -12.1370    4.3150 C   0  0  0  0  0  0  0  0  0  0  0  0
   -4.6010  -12.5420    5.5050 C   0  0  0  0  0  0  0  0  0  0  0  0
   -1.5230  -15.0810    7.9950 C   0  0  0  0  0  0  0  0  0  0  0  0
    1.6220  -12.4770    5.1800 C   0  0  0  0  0  0  0  0  0  0  0  0
   -5.3920  -11.2650    5.3430 C   0  0  1  0  0  0  0  0  0  0  0  0
   -5.1270  -13.6390    5.2950 O   0  0  0  0  0  0  0  0  0  0  0  0
   -6.5870  -11.4600    4.4750 N   0  0  0  0  0  0  0  0  0  0  0  0
   -5.8460  -10.7460    6.7150 C   0  0  0  0  0  0  0  0  0  0  0  0
   -6.6370  -11.8320    3.1780 C   0  0  0  0  0  0  0  0  0  0  0  0
   -7.7470  -11.1590    5.3150 C   0  0  0  0  0  0  0  0  0  0  0  0
   -7.3080  -10.3590    6.5270 C   0  0  1  0  0  0  0  0  0  0  0  0
   -7.9920  -11.9330    2.4890 C   0  0  1  0  0  0  0  0  0  0  0  0
   -5.6120  -12.0820    2.5280 O   0  0  0  0  0  0  0  0  0  0  0  0
   -7.8280  -11.6220    1.0530 N   0  0  0  0  0  0  0  0  0  0  0  0
   -8.6000  -13.3550    2.6470 C   0  0  0  0  0  0  0  0  0  0  0  0
   -8.3510  -10.5030    0.5400 C   0  0  0  0  0  0  0  0  0  0  0  0
   -9.9460  -13.2310    3.3590 C   0  0  0  0  0  0  0  0  0  0  0  0
   -7.6760  -14.2400    3.4850 C   0  0  0  0  0  0  0  0  0  0  0  0
   -8.8230  -14.0020    1.2820 C   0  0  0  0  0  0  0  0  0  0  0  0
   -8.1920  -10.2030   -0.9350 C   0  0  1  0  0  0  0  0  0  0  0  0
   -8.9640   -9.7140    1.2640 O   0  0  0  0  0  0  0  0  0  0  0  0
   -9.2620   -9.3020   -1.3700 N   0  3  0  0  0  0  0  0  0  0  0  0
   -6.8380   -9.5520   -1.1950 C   0  0  0  0  0  0  0  0  0  0  0  0
  -10.2120  -10.0410   -2.2000 C   0  0  0  0  0  0  0  0  0  0  0  0
   -8.0930  -10.6790    7.6910 O   0  0  0  0  0  0  0  0  0  0  0  0
   -8.6170   -9.4900    8.3020 C   0  0  0  0  0  0  0  0  0  0  0  0
   -9.9470   -9.4650    8.7420 C   0  0  0  0  0  0  0  0  0  0  0  0
  -10.4640   -8.3130    9.3460 C   0  0  0  0  0  0  0  0  0  0  0  0
   -9.6540   -7.1840    9.5130 C   0  0  0  0  0  0  0  0  0  0  0  0
   -8.3250   -7.2070    9.0750 C   0  0  0  0  0  0  0  0  0  0  0  0
   -7.8060   -8.3590    8.4720 C   0  0  0  0  0  0  0  0  0  0  0  0
   -2.7538  -14.4312    5.3562 H   0  0  0  0  0  0  0  0  0  0  0  0
   -1.5503  -12.2620    3.9433 H   0  0  0  0  0  0  0  0  0  0  0  0
   -2.9337  -11.5509    6.0412 H   0  0  0  0  0  0  0  0  0  0  0  0
   -3.5997  -14.7632    7.5454 H   0  0  0  0  0  0  0  0  0  0  0  0
   -2.7446  -13.3256    8.2002 H   0  0  0  0  0  0  0  0  0  0  0  0
   -0.1065  -13.6761    8.7710 H   0  0  0  0  0  0  0  0  0  0  0  0
    0.6171  -15.1299    8.0032 H   0  0  0  0  0  0  0  0  0  0  0  0
    2.1726  -13.4638    7.0207 H   0  0  0  0  0  0  0  0  0  0  0  0
    0.7789  -11.5736    3.4119 H   0  0  0  0  0  0  0  0  0  0  0  0
   -1.4870  -15.9793    7.3612 H   0  0  0  0  0  0  0  0  0  0  0  0
   -1.7141  -15.3752    9.0375 H   0  0  0  0  0  0  0  0  0  0  0  0
    2.6370  -12.1783    4.9440 H   0  0  0  0  0  0  0  0  0  0  0  0
   -4.7404  -10.5118    4.8761 H   0  0  0  0  0  0  0  0  0  0  0  0
   -5.2500   -9.8711    7.0139 H   0  0  0  0  0  0  0  0  0  0  0  0
   -5.7495  -11.5331    7.4773 H   0  0  0  0  0  0  0  0  0  0  0  0
   -8.2120  -12.0991    5.6465 H   0  0  0  0  0  0  0  0  0  0  0  0
   -8.4760  -10.5738    4.7353 H   0  0  0  0  0  0  0  0  0  0  0  0
   -7.3956   -9.2813    6.3251 H   0  0  0  0  0  0  0  0  0  0  0  0
   -8.6776  -11.2019    2.9423 H   0  0  0  0  0  0  0  0  0  0  0  0
   -7.3234  -12.2516    0.4622 H   0  0  0  0  0  0  0  0  0  0  0  0
  -10.3906  -14.2299    3.4791 H   0  0  0  0  0  0  0  0  0  0  0  0
  -10.6199  -12.5991    2.7619 H   0  0  0  0  0  0  0  0  0  0  0  0
   -9.7967  -12.7748    4.3487 H   0  0  0  0  0  0  0  0  0  0  0  0
   -6.7032  -14.3357    2.9805 H   0  0  0  0  0  0  0  0  0  0  0  0
   -8.1283  -15.2360    3.6012 H   0  0  0  0  0  0  0  0  0  0  0  0
   -7.5318  -13.7849    4.4760 H   0  0  0  0  0  0  0  0  0  0  0  0
   -9.4875  -13.3658    0.6789 H   0  0  0  0  0  0  0  0  0  0  0  0
   -9.2849  -14.9913    1.4162 H   0  0  0  0  0  0  0  0  0  0  0  0
   -7.8573  -14.1149    0.7676 H   0  0  0  0  0  0  0  0  0  0  0  0
   -8.2555  -11.1427   -1.5033 H   0  0  0  0  0  0  0  0  0  0  0  0
   -8.8670   -8.5442   -1.9046 H   0  0  0  0  0  0  0  0  0  0  0  0
   -9.7383   -8.9312   -0.5627 H   0  0  0  0  0  0  0  0  0  0  0  0
   -6.0362  -10.2302   -0.8677 H   0  0  0  0  0  0  0  0  0  0  0  0
   -6.7713   -8.6079   -0.6344 H   0  0  0  0  0  0  0  0  0  0  0  0
   -6.7296   -9.3483   -2.2705 H   0  0  0  0  0  0  0  0  0  0  0  0
  -11.0160   -9.3653   -2.5272 H   0  0  0  0  0  0  0  0  0  0  0  0
  -10.6429  -10.8679   -1.6165 H   0  0  0  0  0  0  0  0  0  0  0  0
   -9.6920  -10.4457   -3.0808 H   0  0  0  0  0  0  0  0  0  0  0  0
  -10.5761  -10.3385    8.6145 H   0  0  0  0  0  0  0  0  0  0  0  0
  -11.4935   -8.2953    9.6850 H   0  0  0  0  0  0  0  0  0  0  0  0
  -10.0556   -6.2926    9.9811 H   0  0  0  0  0  0  0  0  0  0  0  0
   -7.6972   -6.3325    9.2027 H   0  0  0  0  0  0  0  0  0  0  0  0
   -6.7755   -8.3766    8.1360 H   0  0  0  0  0  0  0  0  0  0  0  0
  1  2  1  0  0  0  0
  1  3  2  0  0  0  0
  1  4  1  0  0  0  0
  2  5  1  0  0  0  0
  2  6  1  0  0  0  0
  2 40  1  6  0  0  0
  3  7  1  0  0  0  0
  3  8  1  0  0  0  0
  4  9  2  0  0  0  0
  4 41  1  0  0  0  0
  5 10  1  0  0  0  0
  5 42  1  0  0  0  0
  6 11  1  0  0  0  0
  6 43  1  0  0  0  0
  6 44  1  0  0  0  0
  7 11  1  0  0  0  0
  7 45  1  0  0  0  0
  7 46  1  0  0  0  0
  8 12  2  0  0  0  0
  8 47  1  0  0  0  0
  9 12  1  0  0  0  0
  9 48  1  0  0  0  0
 10 13  1  0  0  0  0
 10 14  2  0  0  0  0
 11 49  1  0  0  0  0
 11 50  1  0  0  0  0
 12 51  1  0  0  0  0
 13 15  1  0  0  0  0
 13 16  1  0  0  0  0
 13 52  1  6  0  0  0
 15 17  1  0  0  0  0
 15 18  1  0  0  0  0
 16 19  1  0  0  0  0
 16 53  1  0  0  0  0
 16 54  1  0  0  0  0
 17 20  1  0  0  0  0
 17 21  2  0  0  0  0
 18 19  1  0  0  0  0
 18 55  1  0  0  0  0
 18 56  1  0  0  0  0
 19 33  1  0  0  0  0
 19 57  1  6  0  0  0
 20 22  1  0  0  0  0
 20 23  1  0  0  0  0
 20 58  1  1  0  0  0
 22 24  1  0  0  0  0
 22 59  1  0  0  0  0
 23 25  1  0  0  0  0
 23 26  1  0  0  0  0
 23 27  1  0  0  0  0
 24 28  1  0  0  0  0
 24 29  2  0  0  0  0
 25 60  1  0  0  0  0
 25 61  1  0  0  0  0
 25 62  1  0  0  0  0
 26 63  1  0  0  0  0
 26 64  1  0  0  0  0
 26 65  1  0  0  0  0
 27 66  1  0  0  0  0
 27 67  1  0  0  0  0
 27 68  1  0  0  0  0
 28 30  1  0  0  0  0
 28 31  1  0  0  0  0
 28 69  1  6  0  0  0
 30 32  1  0  0  0  0
 30 70  1  0  0  0  0
 30 71  1  0  0  0  0
 31 72  1  0  0  0  0
 31 73  1  0  0  0  0
 31 74  1  0  0  0  0
 32 75  1  0  0  0  0
 32 76  1  0  0  0  0
 32 77  1  0  0  0  0
 33 34  1  0  0  0  0
 34 35  2  0  0  0  0
 34 39  1  0  0  0  0
 35 36  1  0  0  0  0
 35 78  1  0  0  0  0
 36 37  2  0  0  0  0
 36 79  1  0  0  0  0
 37 38  1  0  0  0  0
 37 80  1  0  0  0  0
 38 39  2  0  0  0  0
 38 81  1  0  0  0  0
 39 82  1  0  0  0  0
M  CHG  1  30   1
M  END
