1tg5_ligand
 OpenBabel08222323343D

 50 52  0  0  0  0  0  0  0  0999 V2000
   48.3660   37.7160   51.3850 O   0  0  0  0  0  0  0  0  0  0  0  0
   47.7760   37.4200   52.4320 C   0  0  0  0  0  0  0  0  0  0  0  0
   46.7150   37.8270   52.8850 C   0  0  0  0  0  0  0  0  0  0  0  0
   45.7220   38.7610   52.5260 C   0  0  0  0  0  0  0  0  0  0  0  0
   46.1370   39.3650   51.1190 O   0  0  0  0  0  0  0  0  0  0  0  0
   44.9170   39.2020   53.3270 C   0  0  0  0  0  0  0  0  0  0  0  0
   43.5060   38.7250   53.1600 C   0  0  0  0  0  0  0  0  0  0  0  0
   43.1070   37.7850   52.0790 Cl  0  0  0  0  0  0  0  0  0  0  0  0
   42.5230   39.2190   54.0290 C   0  0  0  0  0  0  0  0  0  0  0  0
   42.7810   40.2010   55.0780 C   0  0  0  0  0  0  0  0  0  0  0  0
   44.1080   40.6280   55.2290 C   0  0  0  0  0  0  0  0  0  0  0  0
   45.1240   40.1540   54.3980 C   0  0  0  0  0  0  0  0  0  0  0  0
   41.6430   40.9740   55.9500 S   0  0  0  0  0  0  0  0  0  0  0  0
   41.1180   40.2230   56.9260 O   0  0  0  0  0  0  0  0  0  0  0  0
   42.2070   41.7590   56.9650 O   0  0  0  0  0  0  0  0  0  0  0  0
   40.9550   41.8810   54.9540 C   0  0  0  0  0  0  0  0  0  0  0  0
   46.5160   37.1100   54.1870 C   0  0  0  0  0  0  0  0  0  0  0  0
   47.6280   36.2880   54.4140 N   0  0  0  0  0  0  0  0  0  0  0  0
   48.4120   36.4880   53.2960 N   0  0  0  0  0  0  0  0  0  0  0  0
   49.6640   35.8080   53.1260 C   0  0  0  0  0  0  0  0  0  0  0  0
   49.0900   34.3640   52.7300 C   0  0  0  0  0  0  0  0  0  0  0  0
   50.6120   36.1130   51.9520 C   0  0  0  0  0  0  0  0  0  0  0  0
   50.3840   35.6340   54.4130 C   0  0  0  0  0  0  0  0  0  0  0  0
   45.6150   36.9340   55.2060 C   0  0  0  0  0  0  0  0  0  0  0  0
   46.1410   37.5230   56.5110 C   0  0  0  0  0  0  0  0  0  0  0  0
   47.4690   38.1880   56.5670 Cl  0  0  0  0  0  0  0  0  0  0  0  0
   45.1340   37.3100   57.6320 C   0  0  0  0  0  0  0  0  0  0  0  0
   43.9030   36.6690   57.4790 C   0  0  0  0  0  0  0  0  0  0  0  0
   43.1710   36.5730   58.4940 Cl  0  0  0  0  0  0  0  0  0  0  0  0
   43.5870   36.1590   56.1180 C   0  0  0  0  0  0  0  0  0  0  0  0
   44.5050   36.3780   55.1800 C   0  0  0  0  0  0  0  0  0  0  0  0
   47.8454   38.3421   50.8956 H   0  0  0  0  0  0  0  0  0  0  0  0
   41.5103   38.8495   53.9151 H   0  0  0  0  0  0  0  0  0  0  0  0
   44.3499   41.3418   56.0081 H   0  0  0  0  0  0  0  0  0  0  0  0
   46.1302   40.5212   54.5646 H   0  0  0  0  0  0  0  0  0  0  0  0
   40.1616   42.4487   55.4622 H   0  0  0  0  0  0  0  0  0  0  0  0
   40.5139   41.2744   54.1494 H   0  0  0  0  0  0  0  0  0  0  0  0
   41.6891   42.5796   54.5261 H   0  0  0  0  0  0  0  0  0  0  0  0
   49.9271   33.6728   52.5525 H   0  0  0  0  0  0  0  0  0  0  0  0
   48.4840   34.4484   51.8159 H   0  0  0  0  0  0  0  0  0  0  0  0
   48.4652   33.9803   53.5500 H   0  0  0  0  0  0  0  0  0  0  0  0
   51.5048   35.4747   52.0263 H   0  0  0  0  0  0  0  0  0  0  0  0
   50.9131   37.1703   51.9890 H   0  0  0  0  0  0  0  0  0  0  0  0
   50.0956   35.9118   51.0019 H   0  0  0  0  0  0  0  0  0  0  0  0
   51.3343   35.1099   54.2335 H   0  0  0  0  0  0  0  0  0  0  0  0
   49.7640   35.0429   55.1030 H   0  0  0  0  0  0  0  0  0  0  0  0
   50.5871   36.6202   54.8558 H   0  0  0  0  0  0  0  0  0  0  0  0
   45.3902   37.6817   58.6175 H   0  0  0  0  0  0  0  0  0  0  0  0
   42.6610   35.6383   55.9024 H   0  0  0  0  0  0  0  0  0  0  0  0
   44.2304   35.9969   54.2031 H   0  0  0  0  0  0  0  0  0  0  0  0
  1  2  1  0  0  0  0
  1 32  1  0  0  0  0
  2  3  2  0  0  0  0
  2 19  1  0  0  0  0
  3  4  1  0  0  0  0
  3 17  1  0  0  0  0
  4  5  2  0  0  0  0
  4  6  1  0  0  0  0
  6  7  2  0  0  0  0
  6 12  1  0  0  0  0
  7  8  1  0  0  0  0
  7  9  1  0  0  0  0
  9 10  2  0  0  0  0
  9 33  1  0  0  0  0
 10 11  1  0  0  0  0
 10 13  1  0  0  0  0
 11 12  2  0  0  0  0
 11 34  1  0  0  0  0
 12 35  1  0  0  0  0
 13 14  2  0  0  0  0
 13 15  2  0  0  0  0
 13 16  1  0  0  0  0
 16 36  1  0  0  0  0
 16 37  1  0  0  0  0
 16 38  1  0  0  0  0
 17 18  2  0  0  0  0
 17 24  1  0  0  0  0
 18 19  1  0  0  0  0
 19 20  1  0  0  0  0
 20 21  1  0  0  0  0
 20 22  1  0  0  0  0
 20 23  1  0  0  0  0
 21 39  1  0  0  0  0
 21 40  1  0  0  0  0
 21 41  1  0  0  0  0
 22 42  1  0  0  0  0
 22 43  1  0  0  0  0
 22 44  1  0  0  0  0
 23 45  1  0  0  0  0
 23 46  1  0  0  0  0
 23 47  1  0  0  0  0
 24 25  2  0  0  0  0
 24 31  1  0  0  0  0
 25 26  1  0  0  0  0
 25 27  1  0  0  0  0
 27 28  2  0  0  0  0
 27 48  1  0  0  0  0
 28 29  1  0  0  0  0
 28 30  1  0  0  0  0
 30 31  2  0  0  0  0
 30 49  1  0  0  0  0
 31 50  1  0  0  0  0
M  END
