1thr_ligand
 OpenBabel08222323343D

201202  0  0  1  0  0  0  0  0999 V2000
    9.1840  -11.5090   -1.5760 N   0  3  0  0  0  0  0  0  0  0  0  0
    8.4670  -12.7190   -1.0980 C   0  0  2  0  0  0  0  0  0  0  0  0
    7.5990  -12.2540    0.0740 C   0  0  0  0  0  0  0  0  0  0  0  0
    8.1800  -11.4740    0.8570 O   0  0  0  0  0  0  0  0  0  0  0  0
    9.4320  -13.7750   -0.5830 C   0  0  0  0  0  0  0  0  0  0  0  0
    9.6340  -13.6160    0.8170 O   0  0  0  0  0  0  0  0  0  0  0  0
    6.3450  -12.6680    0.1170 N   0  0  0  0  0  0  0  0  0  0  0  0
    5.5670  -12.1200    1.2830 C   0  0  2  0  0  0  0  0  0  0  0  0
    5.5280  -10.6270    0.9490 C   0  0  0  0  0  0  0  0  0  0  0  0
    4.5360   -9.9920    0.6010 O   0  0  0  0  0  0  0  0  0  0  0  0
    6.3850  -12.6120    2.4680 C   0  0  0  0  0  0  0  0  0  0  0  0
    5.8560  -12.4080    3.8810 C   0  0  0  0  0  0  0  0  0  0  0  0
    4.6070  -12.3110    3.9720 O   0  5  0  0  0  0  0  0  0  0  0  0
    6.6470  -12.3680    4.8720 O   0  0  0  0  0  0  0  0  0  0  0  0
    6.6930  -10.0380    0.9560 N   0  0  0  0  0  0  0  0  0  0  0  0
    7.0230   -8.6510    0.7100 C   0  0  2  0  0  0  0  0  0  0  0  0
    6.7020   -8.2140   -0.7130 C   0  0  0  0  0  0  0  0  0  0  0  0
    7.1170   -8.8960   -1.6610 O   0  0  0  0  0  0  0  0  0  0  0  0
    8.4930   -8.3770    1.0600 C   0  0  0  0  0  0  0  0  0  0  0  0
    8.6070   -8.3390    2.5520 C   0  0  0  0  0  0  0  0  0  0  0  0
    8.4140   -7.1360    3.2340 C   0  0  0  0  0  0  0  0  0  0  0  0
    8.8590   -9.5290    3.2420 C   0  0  0  0  0  0  0  0  0  0  0  0
    8.4850   -7.1170    4.6360 C   0  0  0  0  0  0  0  0  0  0  0  0
    8.9100   -9.5190    4.6260 C   0  0  0  0  0  0  0  0  0  0  0  0
    8.7150   -8.3230    5.3170 C   0  0  0  0  0  0  0  0  0  0  0  0
    6.0390   -7.0780   -0.8020 N   0  0  0  0  0  0  0  0  0  0  0  0
    5.6790   -6.4430   -2.0790 C   0  0  2  0  0  0  0  0  0  0  0  0
    6.9230   -5.6920   -2.5630 C   0  0  0  0  0  0  0  0  0  0  0  0
    7.5950   -5.0210   -1.7480 O   0  0  0  0  0  0  0  0  0  0  0  0
    4.5140   -5.4790   -1.9210 C   0  0  0  0  0  0  0  0  0  0  0  0
    4.2860   -4.5170   -3.0670 C   0  0  0  0  0  0  0  0  0  0  0  0
    3.2090   -3.4820   -2.9580 C   0  0  0  0  0  0  0  0  0  0  0  0
    2.4010   -3.3470   -2.0560 O   0  5  0  0  0  0  0  0  0  0  0  0
    3.1960   -2.6930   -3.9340 O   0  0  0  0  0  0  0  0  0  0  0  0
    7.2650   -5.7950   -3.8370 N   0  0  0  0  0  0  0  0  0  0  0  0
    8.4460   -5.1580   -4.4190 C   0  0  2  0  0  0  0  0  0  0  0  0
    8.3700   -3.6300   -4.5440 C   0  0  0  0  0  0  0  0  0  0  0  0
    7.3360   -2.9630   -4.7490 O   0  0  0  0  0  0  0  0  0  0  0  0
    8.7830   -5.6960   -5.8090 C   0  0  0  0  0  0  0  0  0  0  0  0
    8.0500   -5.1140   -7.0120 C   0  0  0  0  0  0  0  0  0  0  0  0
    8.6060   -5.4900   -8.3540 C   0  0  0  0  0  0  0  0  0  0  0  0
    9.6700   -6.0630   -8.5160 O   0  5  0  0  0  0  0  0  0  0  0  0
    7.8530   -5.1470   -9.2910 O   0  0  0  0  0  0  0  0  0  0  0  0
    9.5820   -3.0860   -4.4270 N   0  0  0  0  0  0  0  0  0  0  0  0
    9.7980   -1.6400   -4.5510 C   0  0  2  0  0  0  0  0  0  0  0  0
   11.0320   -1.5930   -5.4750 C   0  0  0  0  0  0  0  0  0  0  0  0
   11.7300   -2.6200   -5.5430 O   0  0  0  0  0  0  0  0  0  0  0  0
   10.0120   -0.8280   -3.2910 C   0  0  0  0  0  0  0  0  0  0  0  0
   11.1120   -1.3890   -2.4260 C   0  0  0  0  0  0  0  0  0  0  0  0
   10.7810   -2.3570   -1.4680 C   0  0  0  0  0  0  0  0  0  0  0  0
   12.4310   -0.9600   -2.5920 C   0  0  0  0  0  0  0  0  0  0  0  0
   11.7710   -2.8820   -0.6530 C   0  0  0  0  0  0  0  0  0  0  0  0
   13.4400   -1.5230   -1.7880 C   0  0  0  0  0  0  0  0  0  0  0  0
   13.1000   -2.4970   -0.8170 C   0  0  0  0  0  0  0  0  0  0  0  0
   11.1320   -0.4340   -6.0990 N   0  0  0  0  0  0  0  0  0  0  0  0
   12.2210   -0.1810   -7.0480 C   0  0  2  0  0  0  0  0  0  0  0  0
   13.3700    0.5040   -6.3200 C   0  0  0  0  0  0  0  0  0  0  0  0
   13.3080    1.1310   -5.2470 O   0  0  0  0  0  0  0  0  0  0  0  0
   11.7430    0.5400   -8.3050 C   0  0  0  0  0  0  0  0  0  0  0  0
   12.7760    1.3270   -8.8860 O   0  0  0  0  0  0  0  0  0  0  0  0
   14.4890    0.3380   -6.9920 N   0  0  0  0  0  0  0  0  0  0  0  0
   15.7500    0.9160   -6.4810 C   0  0  2  0  0  0  0  0  0  0  0  0
   15.6570    2.4140   -6.7410 C   0  0  0  0  0  0  0  0  0  0  0  0
   16.6200    3.1570   -6.4890 O   0  0  0  0  0  0  0  0  0  0  0  0
   16.8990    0.1030   -7.0780 C   0  0  0  0  0  0  0  0  0  0  0  0
   18.2250    0.7930   -7.3720 C   0  0  0  0  0  0  0  0  0  0  0  0
   18.9260    1.2090   -6.0860 C   0  0  0  0  0  0  0  0  0  0  0  0
   19.1030   -0.1720   -8.1650 C   0  0  0  0  0  0  0  0  0  0  0  0
   14.4960    2.7870   -7.2600 N   0  0  0  0  0  0  0  0  0  0  0  0
   14.1970    4.1950   -7.5640 C   0  0  2  0  0  0  0  0  0  0  0  0
   13.3340    4.7730   -6.4410 C   0  0  0  0  0  0  0  0  0  0  0  0
   12.9980    5.9610   -6.4460 O   0  0  0  0  0  0  0  0  0  0  0  0
   13.5920    4.4040   -8.9440 C   0  0  0  0  0  0  0  0  0  0  0  0
   14.5410    5.0550   -9.9320 C   0  0  0  0  0  0  0  0  0  0  0  0
   15.7530    5.0540   -9.6260 O   0  5  0  0  0  0  0  0  0  0  0  0
   14.1110    5.5590  -10.9810 O   0  0  0  0  0  0  0  0  0  0  0  0
   12.9760    3.9360   -5.5080 N   0  0  0  0  0  0  0  0  0  0  0  0
   12.1610    4.2420   -4.3260 C   0  0  2  0  0  0  0  0  0  0  0  0
   13.0530    4.5110   -3.1080 C   0  0  0  0  0  0  0  0  0  0  0  0
   12.5890    4.9930   -2.0590 O   0  0  0  0  0  0  0  0  0  0  0  0
   11.2830    2.9910   -4.1110 C   0  0  0  0  0  0  0  0  0  0  0  0
   10.4030    2.8870   -5.3630 C   0  0  0  0  0  0  0  0  0  0  0  0
   10.7190    3.8390   -6.1300 O   0  5  0  0  0  0  0  0  0  0  0  0
    9.5070    2.0570   -5.5940 O   0  0  0  0  0  0  0  0  0  0  0  0
   14.3060    4.1440   -3.3280 N   0  0  0  0  0  0  0  0  0  0  0  0
   15.4120    4.1820   -2.3630 C   0  0  2  0  0  0  0  0  0  0  0  0
   15.9450    5.5760   -2.1060 C   0  0  0  0  0  0  0  0  0  0  0  0
   15.3740    6.5030   -2.7050 O   0  0  0  0  0  0  0  0  0  0  0  0
   16.4320    3.0540   -2.7330 C   0  0  2  0  0  0  0  0  0  0  0  0
   15.6380    1.7090   -2.7060 C   0  0  0  0  0  0  0  0  0  0  0  0
   17.6930    2.9950   -1.8660 C   0  0  0  0  0  0  0  0  0  0  0  0
   16.5240    0.4470   -2.9540 C   0  0  0  0  0  0  0  0  0  0  0  0
   16.9000    5.7010   -1.2100 N   0  0  0  0  0  0  0  0  0  0  0  0
   17.5330    6.9130   -0.6940 C   0  0  2  0  0  0  0  0  0  0  0  0
   16.5110    8.0400   -0.5370 C   0  0  0  0  0  0  0  0  0  0  0  0
   16.5230    8.9770   -1.3670 O   0  0  0  0  0  0  0  0  0  0  0  0
   18.6990    7.4710   -1.4930 C   0  0  0  0  0  0  0  0  0  0  0  0
   19.2550    8.8110   -0.9920 C   0  0  0  0  0  0  0  0  0  0  0  0
   20.7560    8.9060   -0.9660 C   0  0  0  0  0  0  0  0  0  0  0  0
   21.3340    8.7800   -2.0780 O   0  5  0  0  0  0  0  0  0  0  0  0
   21.4130    9.0900    0.0400 O   0  0  0  0  0  0  0  0  0  0  0  0
   15.6760    7.9490    0.4720 N   0  0  0  0  0  0  0  0  0  0  0  0
   14.6040    8.9060    0.7780 C   0  0  2  0  0  0  0  0  0  0  0  0
   13.3070    8.5190    0.0380 C   0  0  0  0  0  0  0  0  0  0  0  0
   12.4290    9.4110   -0.1540 O   0  5  0  0  0  0  0  0  0  0  0  0
   14.8990   10.3840    0.4830 C   0  0  0  0  0  0  0  0  0  0  0  0
   14.5890   11.2680    1.7180 C   0  0  0  0  0  0  0  0  0  0  0  0
   15.3120   10.5560    2.8600 C   0  0  0  0  0  0  0  0  0  0  0  0
   14.6240    9.7180    3.4880 O   0  0  0  0  0  0  0  0  0  0  0  0
   16.6200   10.7730    3.0240 N   0  0  0  0  0  0  0  0  0  0  0  0
   13.1500    7.3360   -0.3390 O   0  0  0  0  0  0  0  0  0  0  0  0
    9.7763  -11.7547   -2.3537 H   0  0  0  0  0  0  0  0  0  0  0  0
    9.7483  -11.1357   -0.8288 H   0  0  0  0  0  0  0  0  0  0  0  0
    8.5140  -10.8156   -1.8699 H   0  0  0  0  0  0  0  0  0  0  0  0
    7.8485  -13.1398   -1.9045 H   0  0  0  0  0  0  0  0  0  0  0  0
   10.3957  -13.6711   -1.1031 H   0  0  0  0  0  0  0  0  0  0  0  0
    9.0155  -14.7741   -0.7787 H   0  0  0  0  0  0  0  0  0  0  0  0
    9.9954  -12.7542    0.9878 H   0  0  0  0  0  0  0  0  0  0  0  0
    5.9499  -13.2873   -0.5615 H   0  0  0  0  0  0  0  0  0  0  0  0
    4.5418  -12.5128    1.3519 H   0  0  0  0  0  0  0  0  0  0  0  0
    7.3604  -12.1061    2.4155 H   0  0  0  0  0  0  0  0  0  0  0  0
    6.5256  -13.6945    2.3323 H   0  0  0  0  0  0  0  0  0  0  0  0
    7.4707  -10.6321    1.1613 H   0  0  0  0  0  0  0  0  0  0  0  0
    6.4022   -8.0425    1.3840 H   0  0  0  0  0  0  0  0  0  0  0  0
    8.8052   -7.4113    0.6359 H   0  0  0  0  0  0  0  0  0  0  0  0
    9.1297   -9.1779    0.6561 H   0  0  0  0  0  0  0  0  0  0  0  0
    8.2109   -6.2236    2.6851 H   0  0  0  0  0  0  0  0  0  0  0  0
    9.0134  -10.4533    2.6971 H   0  0  0  0  0  0  0  0  0  0  0  0
    8.3645   -6.1886    5.1825 H   0  0  0  0  0  0  0  0  0  0  0  0
    9.1007  -10.4369    5.1701 H   0  0  0  0  0  0  0  0  0  0  0  0
    8.7416   -8.3248    6.4007 H   0  0  0  0  0  0  0  0  0  0  0  0
    5.7657   -6.6229    0.0455 H   0  0  0  0  0  0  0  0  0  0  0  0
    5.4025   -7.2175   -2.8095 H   0  0  0  0  0  0  0  0  0  0  0  0
    4.6908   -4.8840   -1.0129 H   0  0  0  0  0  0  0  0  0  0  0  0
    3.5985   -6.0758   -1.7959 H   0  0  0  0  0  0  0  0  0  0  0  0
    4.0566   -5.1251   -3.9544 H   0  0  0  0  0  0  0  0  0  0  0  0
    5.2320   -3.9787   -3.2259 H   0  0  0  0  0  0  0  0  0  0  0  0
    6.6811   -6.3410   -4.4379 H   0  0  0  0  0  0  0  0  0  0  0  0
    9.2866   -5.3940   -3.7499 H   0  0  0  0  0  0  0  0  0  0  0  0
    8.5797   -6.7770   -5.7968 H   0  0  0  0  0  0  0  0  0  0  0  0
    9.8578   -5.5268   -5.9708 H   0  0  0  0  0  0  0  0  0  0  0  0
    8.0797   -4.0176   -6.9285 H   0  0  0  0  0  0  0  0  0  0  0  0
    7.0056   -5.4568   -6.9703 H   0  0  0  0  0  0  0  0  0  0  0  0
   10.3662   -3.6807   -4.2497 H   0  0  0  0  0  0  0  0  0  0  0  0
    8.9292   -1.2007   -5.0630 H   0  0  0  0  0  0  0  0  0  0  0  0
    9.0766   -0.8206   -2.7123 H   0  0  0  0  0  0  0  0  0  0  0  0
   10.2759    0.2015   -3.5747 H   0  0  0  0  0  0  0  0  0  0  0  0
    9.7556   -2.6933   -1.3652 H   0  0  0  0  0  0  0  0  0  0  0  0
   12.6742   -0.2040   -3.3298 H   0  0  0  0  0  0  0  0  0  0  0  0
   11.5096   -3.5977    0.1180 H   0  0  0  0  0  0  0  0  0  0  0  0
   14.4714   -1.2130   -1.9111 H   0  0  0  0  0  0  0  0  0  0  0  0
   13.8735   -2.9425   -0.2019 H   0  0  0  0  0  0  0  0  0  0  0  0
   10.4559    0.2813   -5.9221 H   0  0  0  0  0  0  0  0  0  0  0  0
   12.5957   -1.1600   -7.3815 H   0  0  0  0  0  0  0  0  0  0  0  0
   10.9008    1.1964   -8.0408 H   0  0  0  0  0  0  0  0  0  0  0  0
   11.4089   -0.2077   -9.0394 H   0  0  0  0  0  0  0  0  0  0  0  0
   12.4435    1.7597   -9.6636 H   0  0  0  0  0  0  0  0  0  0  0  0
   14.4864   -0.1789   -7.8480 H   0  0  0  0  0  0  0  0  0  0  0  0
   15.8017    0.7822   -5.3904 H   0  0  0  0  0  0  0  0  0  0  0  0
   16.5367   -0.3148   -8.0289 H   0  0  0  0  0  0  0  0  0  0  0  0
   17.1121   -0.7159   -6.3752 H   0  0  0  0  0  0  0  0  0  0  0  0
   18.0360    1.6920   -7.9770 H   0  0  0  0  0  0  0  0  0  0  0  0
   19.8778    1.7031   -6.3306 H   0  0  0  0  0  0  0  0  0  0  0  0
   19.1226    0.3185   -5.4710 H   0  0  0  0  0  0  0  0  0  0  0  0
   18.2840    1.9060   -5.5274 H   0  0  0  0  0  0  0  0  0  0  0  0
   18.5844   -0.4636   -9.0902 H   0  0  0  0  0  0  0  0  0  0  0  0
   19.3033   -1.0679   -7.5590 H   0  0  0  0  0  0  0  0  0  0  0  0
   20.0538    0.3202   -8.4172 H   0  0  0  0  0  0  0  0  0  0  0  0
   13.8033    2.0914   -7.4504 H   0  0  0  0  0  0  0  0  0  0  0  0
   15.1525    4.7399   -7.5571 H   0  0  0  0  0  0  0  0  0  0  0  0
   12.7042    5.0452   -8.8408 H   0  0  0  0  0  0  0  0  0  0  0  0
   13.2922    3.4242   -9.3441 H   0  0  0  0  0  0  0  0  0  0  0  0
   13.2877    2.9910   -5.6074 H   0  0  0  0  0  0  0  0  0  0  0  0
   11.5298    5.1232   -4.5131 H   0  0  0  0  0  0  0  0  0  0  0  0
   10.6600    3.1086   -3.2121 H   0  0  0  0  0  0  0  0  0  0  0  0
   11.9110    2.0939   -4.0071 H   0  0  0  0  0  0  0  0  0  0  0  0
   14.5209    3.8067   -4.2445 H   0  0  0  0  0  0  0  0  0  0  0  0
   14.9837    3.8757   -1.3972 H   0  0  0  0  0  0  0  0  0  0  0  0
   16.7691    3.2355   -3.7642 H   0  0  0  0  0  0  0  0  0  0  0  0
   14.8640    1.7478   -3.4867 H   0  0  0  0  0  0  0  0  0  0  0  0
   15.1600    1.6085   -1.7204 H   0  0  0  0  0  0  0  0  0  0  0  0
   18.2176    3.9606   -1.9157 H   0  0  0  0  0  0  0  0  0  0  0  0
   18.3553    2.1984   -2.2358 H   0  0  0  0  0  0  0  0  0  0  0  0
   17.4119    2.7837   -0.8237 H   0  0  0  0  0  0  0  0  0  0  0  0
   15.8952   -0.4549   -2.9197 H   0  0  0  0  0  0  0  0  0  0  0  0
   17.2984    0.3838   -2.1753 H   0  0  0  0  0  0  0  0  0  0  0  0
   17.0024    0.5231   -3.9416 H   0  0  0  0  0  0  0  0  0  0  0  0
   17.2422    4.8431   -0.8267 H   0  0  0  0  0  0  0  0  0  0  0  0
   17.9195    6.6584    0.3039 H   0  0  0  0  0  0  0  0  0  0  0  0
   18.3643    7.6089   -2.5317 H   0  0  0  0  0  0  0  0  0  0  0  0
   19.5142    6.7330   -1.4653 H   0  0  0  0  0  0  0  0  0  0  0  0
   18.8850    8.9730    0.0312 H   0  0  0  0  0  0  0  0  0  0  0  0
   18.8741    9.6060   -1.6499 H   0  0  0  0  0  0  0  0  0  0  0  0
   15.7780    7.1636    1.0826 H   0  0  0  0  0  0  0  0  0  0  0  0
   14.4167    8.8276    1.8591 H   0  0  0  0  0  0  0  0  0  0  0  0
   14.2759   10.7139   -0.3613 H   0  0  0  0  0  0  0  0  0  0  0  0
   15.9613   10.4935    0.2195 H   0  0  0  0  0  0  0  0  0  0  0  0
   13.5063   11.3136    1.9066 H   0  0  0  0  0  0  0  0  0  0  0  0
   14.9804   12.2867    1.5800 H   0  0  0  0  0  0  0  0  0  0  0  0
   17.1134   10.3174    3.7650 H   0  0  0  0  0  0  0  0  0  0  0  0
   17.1057   11.3910    2.4058 H   0  0  0  0  0  0  0  0  0  0  0  0
  1  2  1  0  0  0  0
  1112  1  0  0  0  0
  1113  1  0  0  0  0
  1114  1  0  0  0  0
  2  3  1  0  0  0  0
  2  5  1  0  0  0  0
  2115  1  6  0  0  0
  3  4  2  0  0  0  0
  3  7  1  0  0  0  0
  5  6  1  0  0  0  0
  5116  1  0  0  0  0
  5117  1  0  0  0  0
  6118  1  0  0  0  0
  7  8  1  0  0  0  0
  7119  1  0  0  0  0
  8  9  1  0  0  0  0
  8 11  1  0  0  0  0
  8120  1  1  0  0  0
  9 10  2  0  0  0  0
  9 15  1  0  0  0  0
 11 12  1  0  0  0  0
 11121  1  0  0  0  0
 11122  1  0  0  0  0
 12 13  1  0  0  0  0
 12 14  2  0  0  0  0
 15 16  1  0  0  0  0
 15123  1  0  0  0  0
 16 17  1  0  0  0  0
 16 19  1  0  0  0  0
 16124  1  1  0  0  0
 17 18  2  0  0  0  0
 17 26  1  0  0  0  0
 19 20  1  0  0  0  0
 19125  1  0  0  0  0
 19126  1  0  0  0  0
 20 21  2  0  0  0  0
 20 22  1  0  0  0  0
 21 23  1  0  0  0  0
 21127  1  0  0  0  0
 22 24  2  0  0  0  0
 22128  1  0  0  0  0
 23 25  2  0  0  0  0
 23129  1  0  0  0  0
 24 25  1  0  0  0  0
 24130  1  0  0  0  0
 25131  1  0  0  0  0
 26 27  1  0  0  0  0
 26132  1  0  0  0  0
 27 28  1  0  0  0  0
 27 30  1  0  0  0  0
 27133  1  6  0  0  0
 28 29  2  0  0  0  0
 28 35  1  0  0  0  0
 30 31  1  0  0  0  0
 30134  1  0  0  0  0
 30135  1  0  0  0  0
 31 32  1  0  0  0  0
 31136  1  0  0  0  0
 31137  1  0  0  0  0
 32 33  1  0  0  0  0
 32 34  2  0  0  0  0
 35 36  1  0  0  0  0
 35138  1  0  0  0  0
 36 37  1  0  0  0  0
 36 39  1  0  0  0  0
 36139  1  1  0  0  0
 37 38  2  0  0  0  0
 37 44  1  0  0  0  0
 39 40  1  0  0  0  0
 39140  1  0  0  0  0
 39141  1  0  0  0  0
 40 41  1  0  0  0  0
 40142  1  0  0  0  0
 40143  1  0  0  0  0
 41 42  1  0  0  0  0
 41 43  2  0  0  0  0
 44 45  1  0  0  0  0
 44144  1  0  0  0  0
 45 46  1  0  0  0  0
 45 48  1  0  0  0  0
 45145  1  6  0  0  0
 46 47  2  0  0  0  0
 46 55  1  0  0  0  0
 48 49  1  0  0  0  0
 48146  1  0  0  0  0
 48147  1  0  0  0  0
 49 50  2  0  0  0  0
 49 51  1  0  0  0  0
 50 52  1  0  0  0  0
 50148  1  0  0  0  0
 51 53  2  0  0  0  0
 51149  1  0  0  0  0
 52 54  2  0  0  0  0
 52150  1  0  0  0  0
 53 54  1  0  0  0  0
 53151  1  0  0  0  0
 54152  1  0  0  0  0
 55 56  1  0  0  0  0
 55153  1  0  0  0  0
 56 57  1  0  0  0  0
 56 59  1  0  0  0  0
 56154  1  6  0  0  0
 57 58  2  0  0  0  0
 57 61  1  0  0  0  0
 59 60  1  0  0  0  0
 59155  1  0  0  0  0
 59156  1  0  0  0  0
 60157  1  0  0  0  0
 61 62  1  0  0  0  0
 61158  1  0  0  0  0
 62 63  1  0  0  0  0
 62 65  1  0  0  0  0
 62159  1  1  0  0  0
 63 64  2  0  0  0  0
 63 69  1  0  0  0  0
 65 66  1  0  0  0  0
 65160  1  0  0  0  0
 65161  1  0  0  0  0
 66 67  1  0  0  0  0
 66 68  1  0  0  0  0
 66162  1  0  0  0  0
 67163  1  0  0  0  0
 67164  1  0  0  0  0
 67165  1  0  0  0  0
 68166  1  0  0  0  0
 68167  1  0  0  0  0
 68168  1  0  0  0  0
 69 70  1  0  0  0  0
 69169  1  0  0  0  0
 70 71  1  0  0  0  0
 70 73  1  0  0  0  0
 70170  1  1  0  0  0
 71 72  2  0  0  0  0
 71 77  1  0  0  0  0
 73 74  1  0  0  0  0
 73171  1  0  0  0  0
 73172  1  0  0  0  0
 74 75  1  0  0  0  0
 74 76  2  0  0  0  0
 77 78  1  0  0  0  0
 77173  1  0  0  0  0
 78 79  1  0  0  0  0
 78 81  1  0  0  0  0
 78174  1  6  0  0  0
 79 80  2  0  0  0  0
 79 85  1  0  0  0  0
 81 82  1  0  0  0  0
 81175  1  0  0  0  0
 81176  1  0  0  0  0
 82 83  1  0  0  0  0
 82 84  2  0  0  0  0
 85 86  1  0  0  0  0
 85177  1  0  0  0  0
 86 87  1  0  0  0  0
 86 89  1  0  0  0  0
 86178  1  1  0  0  0
 87 88  2  0  0  0  0
 87 93  1  0  0  0  0
 89 90  1  0  0  0  0
 89 91  1  0  0  0  0
 89179  1  6  0  0  0
 90 92  1  0  0  0  0
 90180  1  0  0  0  0
 90181  1  0  0  0  0
 91182  1  0  0  0  0
 91183  1  0  0  0  0
 91184  1  0  0  0  0
 92185  1  0  0  0  0
 92186  1  0  0  0  0
 92187  1  0  0  0  0
 93 94  1  0  0  0  0
 93188  1  0  0  0  0
 94 95  1  0  0  0  0
 94 97  1  0  0  0  0
 94189  1  1  0  0  0
 95 96  2  0  0  0  0
 95102  1  0  0  0  0
 97 98  1  0  0  0  0
 97190  1  0  0  0  0
 97191  1  0  0  0  0
 98 99  1  0  0  0  0
 98192  1  0  0  0  0
 98193  1  0  0  0  0
 99100  1  0  0  0  0
 99101  2  0  0  0  0
102103  1  0  0  0  0
102194  1  0  0  0  0
103104  1  0  0  0  0
103106  1  0  0  0  0
103195  1  1  0  0  0
104105  1  0  0  0  0
104111  2  0  0  0  0
106107  1  0  0  0  0
106196  1  0  0  0  0
106197  1  0  0  0  0
107108  1  0  0  0  0
107198  1  0  0  0  0
107199  1  0  0  0  0
108109  2  0  0  0  0
108110  1  0  0  0  0
110200  1  0  0  0  0
110201  1  0  0  0  0
M  CHG  8   1   1  13  -1  33  -1  42  -1  75  -1  83  -1 100  -1 105  -1
M  END
