1ths_ligand
 OpenBabel08222323343D

147149  0  0  1  0  0  0  0  0999 V2000
    5.3770  -12.6610    3.8400 C   0  0  0  0  0  0  0  0  0  0  0  0
    6.1150  -12.7300    4.8670 O   0  5  0  0  0  0  0  0  0  0  0  0
    4.1730  -12.3450    3.9620 O   0  0  0  0  0  0  0  0  0  0  0  0
    5.9550  -13.0230    2.4820 C   0  0  0  0  0  0  0  0  0  0  0  0
    5.4800  -12.1580    1.2880 C   0  0  0  0  0  0  0  0  0  0  0  0
    6.0530  -10.7530    1.4020 C   0  0  0  0  0  0  0  0  0  0  0  0
    6.2990  -10.4480    2.5940 O   0  0  0  0  0  0  0  0  0  0  0  0
    6.3460   -9.9800    0.4210 N   0  0  0  0  0  0  0  0  0  0  0  0
    6.8920   -8.6420    0.5690 C   0  0  2  0  0  0  0  0  0  0  0  0
    6.9160   -8.0450   -0.8600 C   0  0  0  0  0  0  0  0  0  0  0  0
    7.7370   -8.5790   -1.6160 O   0  0  0  0  0  0  0  0  0  0  0  0
    8.3120   -8.3460    1.1290 C   0  0  0  0  0  0  0  0  0  0  0  0
    8.4680   -8.4340    2.6220 C   0  0  0  0  0  0  0  0  0  0  0  0
    8.2590   -7.3800    3.5300 C   0  0  0  0  0  0  0  0  0  0  0  0
    8.8240   -9.6900    3.1430 C   0  0  0  0  0  0  0  0  0  0  0  0
    8.3520   -7.5730    4.9030 C   0  0  0  0  0  0  0  0  0  0  0  0
    8.9310   -9.9110    4.5130 C   0  0  0  0  0  0  0  0  0  0  0  0
    8.6800   -8.8290    5.3840 C   0  0  0  0  0  0  0  0  0  0  0  0
    8.7710   -9.1230    6.7130 O   0  0  0  0  0  0  0  0  0  0  0  0
    6.1050   -7.0160   -1.0560 N   0  0  0  0  0  0  0  0  0  0  0  0
    6.1540   -6.3940   -2.3840 C   0  0  2  0  0  0  0  0  0  0  0  0
    7.5780   -5.8370   -2.5330 C   0  0  0  0  0  0  0  0  0  0  0  0
    8.1170   -5.3030   -1.5360 O   0  0  0  0  0  0  0  0  0  0  0  0
    5.3210   -5.1340   -2.5710 C   0  0  0  0  0  0  0  0  0  0  0  0
    3.8230   -5.2200   -2.6270 C   0  0  0  0  0  0  0  0  0  0  0  0
    3.0950   -3.9360   -2.3600 C   0  0  0  0  0  0  0  0  0  0  0  0
    3.5590   -2.9120   -2.8940 O   0  5  0  0  0  0  0  0  0  0  0  0
    2.1170   -3.8920   -1.6320 O   0  0  0  0  0  0  0  0  0  0  0  0
    8.0660   -5.9130   -3.7670 N   0  0  0  0  0  0  0  0  0  0  0  0
    9.3810   -5.3570   -4.0690 C   0  0  2  0  0  0  0  0  0  0  0  0
    9.3000   -3.8250   -3.8850 C   0  0  0  0  0  0  0  0  0  0  0  0
    8.2120   -3.2280   -4.0160 O   0  0  0  0  0  0  0  0  0  0  0  0
    9.6090   -5.6480   -5.5390 C   0  0  0  0  0  0  0  0  0  0  0  0
    8.3840   -6.3070   -6.0370 C   0  0  0  0  0  0  0  0  0  0  0  0
    7.4160   -6.5330   -4.9170 C   0  0  0  0  0  0  0  0  0  0  0  0
   10.4750   -3.2540   -3.6930 N   0  0  0  0  0  0  0  0  0  0  0  0
   10.6470   -1.8110   -3.5800 C   0  0  2  0  0  0  0  0  0  0  0  0
   11.0780   -1.1860   -4.9190 C   0  0  0  0  0  0  0  0  0  0  0  0
   12.1580   -1.5680   -5.4180 O   0  0  0  0  0  0  0  0  0  0  0  0
   11.7160   -1.4860   -2.4670 C   0  0  2  0  0  0  0  0  0  0  0  0
   11.1960   -2.0090   -1.1100 C   0  0  0  0  0  0  0  0  0  0  0  0
   12.0920    0.0210   -2.4600 C   0  0  0  0  0  0  0  0  0  0  0  0
   12.2600   -1.8910    0.0260 C   0  0  0  0  0  0  0  0  0  0  0  0
   10.3020   -0.2250   -5.4180 N   0  0  0  0  0  0  0  0  0  0  0  0
   10.5780    0.5080   -6.6400 C   0  0  2  0  0  0  0  0  0  0  0  0
   11.9860    1.0710   -6.7110 C   0  0  0  0  0  0  0  0  0  0  0  0
   12.4340    1.8130   -5.8150 O   0  0  0  0  0  0  0  0  0  0  0  0
    9.5600    1.6290   -6.7060 C   0  0  0  0  0  0  0  0  0  0  0  0
    8.6420    1.4550   -5.5450 C   0  0  0  0  0  0  0  0  0  0  0  0
    9.0660    0.2490   -4.7460 C   0  0  0  0  0  0  0  0  0  0  0  0
   12.6380    0.7140   -7.8020 N   0  0  0  0  0  0  0  0  0  0  0  0
   14.0360    1.1580   -8.0450 C   0  0  2  0  0  0  0  0  0  0  0  0
   14.0700    2.6530   -7.7570 C   0  0  0  0  0  0  0  0  0  0  0  0
   15.1560    3.2120   -7.5020 O   0  0  0  0  0  0  0  0  0  0  0  0
   14.4620    0.7860   -9.4350 C   0  0  0  0  0  0  0  0  0  0  0  0
   15.8040    0.9090  -10.1360 C   0  0  0  0  0  0  0  0  0  0  0  0
   15.8380    0.7060  -11.6510 C   0  0  0  0  0  0  0  0  0  0  0  0
   14.6570    0.5910  -12.1540 O   0  5  0  0  0  0  0  0  0  0  0  0
   16.8860    0.6700  -12.3400 O   0  0  0  0  0  0  0  0  0  0  0  0
   12.8750    3.2450   -7.7620 N   0  0  0  0  0  0  0  0  0  0  0  0
   12.5910    4.6460   -7.5040 C   0  0  2  0  0  0  0  0  0  0  0  0
   12.0000    4.8610   -6.0930 C   0  0  0  0  0  0  0  0  0  0  0  0
   10.8250    5.2470   -5.8990 O   0  0  0  0  0  0  0  0  0  0  0  0
   11.5930    5.4360   -8.4110 C   0  0  0  0  0  0  0  0  0  0  0  0
   11.7320    6.9520   -8.2880 C   0  0  0  0  0  0  0  0  0  0  0  0
   11.0990    8.1230   -8.9250 C   0  0  0  0  0  0  0  0  0  0  0  0
   10.5300    7.9810  -10.0710 O   0  5  0  0  0  0  0  0  0  0  0  0
   11.1090    9.3010   -8.4590 O   0  0  0  0  0  0  0  0  0  0  0  0
   12.8690    4.6420   -5.1400 N   0  0  0  0  0  0  0  0  0  0  0  0
   12.5180    4.7800   -3.7220 C   0  0  2  0  0  0  0  0  0  0  0  0
   13.8940    4.7300   -3.0390 C   0  0  0  0  0  0  0  0  0  0  0  0
   14.2060    5.4910   -2.1150 O   0  0  0  0  0  0  0  0  0  0  0  0
   11.6680    3.5860   -3.3000 C   0  0  0  0  0  0  0  0  0  0  0  0
   14.5950    3.7500   -3.6520 N   0  0  0  0  0  0  0  0  0  0  0  0
   15.9660    3.4920   -3.1420 C   0  0  2  0  0  0  0  0  0  0  0  0
   16.6900    4.8160   -3.3080 C   0  0  0  0  0  0  0  0  0  0  0  0
   17.7770    5.0830   -2.7970 O   0  0  0  0  0  0  0  0  0  0  0  0
   16.5920    2.2590   -3.7520 C   0  0  0  0  0  0  0  0  0  0  0  0
   16.0840    5.7040   -3.9300 N   0  0  0  0  0  0  0  0  0  0  0  0
    5.6845  -14.0677    2.2690 H   0  0  0  0  0  0  0  0  0  0  0  0
    7.0494  -12.9336    2.5476 H   0  0  0  0  0  0  0  0  0  0  0  0
    4.3813  -12.1045    1.2913 H   0  0  0  0  0  0  0  0  0  0  0  0
    5.8220  -12.6156    0.3480 H   0  0  0  0  0  0  0  0  0  0  0  0
    6.1883  -10.3207   -0.5059 H   0  0  0  0  0  0  0  0  0  0  0  0
    6.1839   -8.0879    1.2026 H   0  0  0  0  0  0  0  0  0  0  0  0
    8.5881   -7.3264    0.8222 H   0  0  0  0  0  0  0  0  0  0  0  0
    9.0086   -9.0666    0.6757 H   0  0  0  0  0  0  0  0  0  0  0  0
    8.0197   -6.3936    3.1495 H   0  0  0  0  0  0  0  0  0  0  0  0
    9.0204  -10.5082    2.4596 H   0  0  0  0  0  0  0  0  0  0  0  0
    8.1704   -6.7522    5.5873 H   0  0  0  0  0  0  0  0  0  0  0  0
    9.1997  -10.8871    4.9004 H   0  0  0  0  0  0  0  0  0  0  0  0
    8.5881   -8.3421    7.2222 H   0  0  0  0  0  0  0  0  0  0  0  0
    5.4935   -6.6818   -0.3388 H   0  0  0  0  0  0  0  0  0  0  0  0
    5.9048   -7.1401   -3.1529 H   0  0  0  0  0  0  0  0  0  0  0  0
    5.6473   -4.6762   -3.5165 H   0  0  0  0  0  0  0  0  0  0  0  0
    5.5685   -4.4639   -1.7345 H   0  0  0  0  0  0  0  0  0  0  0  0
    3.4970   -5.9570   -1.8783 H   0  0  0  0  0  0  0  0  0  0  0  0
    3.5402   -5.5680   -3.6315 H   0  0  0  0  0  0  0  0  0  0  0  0
   10.1680   -5.7952   -3.4377 H   0  0  0  0  0  0  0  0  0  0  0  0
   10.4752   -6.3145   -5.6635 H   0  0  0  0  0  0  0  0  0  0  0  0
    9.7852   -4.7112   -6.0879 H   0  0  0  0  0  0  0  0  0  0  0  0
    8.6509   -7.2754   -6.4853 H   0  0  0  0  0  0  0  0  0  0  0  0
    7.9133   -5.6677   -6.7984 H   0  0  0  0  0  0  0  0  0  0  0  0
    6.4508   -6.0501   -5.1295 H   0  0  0  0  0  0  0  0  0  0  0  0
    7.2583   -7.6081   -4.7459 H   0  0  0  0  0  0  0  0  0  0  0  0
   11.2836   -3.8381   -3.6219 H   0  0  0  0  0  0  0  0  0  0  0  0
    9.6841   -1.3686   -3.2848 H   0  0  0  0  0  0  0  0  0  0  0  0
   12.6337   -2.0436   -2.7056 H   0  0  0  0  0  0  0  0  0  0  0  0
   10.9176   -3.0671   -1.2234 H   0  0  0  0  0  0  0  0  0  0  0  0
   10.3088   -1.4250   -0.8238 H   0  0  0  0  0  0  0  0  0  0  0  0
   12.4513    0.3139   -3.4576 H   0  0  0  0  0  0  0  0  0  0  0  0
   12.8849    0.1977   -1.7183 H   0  0  0  0  0  0  0  0  0  0  0  0
   11.2062    0.6187   -2.1993 H   0  0  0  0  0  0  0  0  0  0  0  0
   11.8374   -2.2763    0.9656 H   0  0  0  0  0  0  0  0  0  0  0  0
   12.5418   -0.8357    0.1563 H   0  0  0  0  0  0  0  0  0  0  0  0
   13.1506   -2.4778   -0.2433 H   0  0  0  0  0  0  0  0  0  0  0  0
   10.4373   -0.1667   -7.4973 H   0  0  0  0  0  0  0  0  0  0  0  0
    8.9937    1.5697   -7.6471 H   0  0  0  0  0  0  0  0  0  0  0  0
   10.0668    2.6033   -6.6437 H   0  0  0  0  0  0  0  0  0  0  0  0
    7.6139    1.3110   -5.9087 H   0  0  0  0  0  0  0  0  0  0  0  0
    8.6833    2.3504   -4.9073 H   0  0  0  0  0  0  0  0  0  0  0  0
    9.2730    0.5272   -3.7021 H   0  0  0  0  0  0  0  0  0  0  0  0
    8.2873   -0.5275   -4.7711 H   0  0  0  0  0  0  0  0  0  0  0  0
   12.1830    0.1340   -8.4777 H   0  0  0  0  0  0  0  0  0  0  0  0
   14.7091    0.6499   -7.3388 H   0  0  0  0  0  0  0  0  0  0  0  0
   13.7756    1.3533  -10.0807 H   0  0  0  0  0  0  0  0  0  0  0  0
   14.2275   -0.2865   -9.5033 H   0  0  0  0  0  0  0  0  0  0  0  0
   16.4770    0.1621   -9.6897 H   0  0  0  0  0  0  0  0  0  0  0  0
   16.1897    1.9187   -9.9316 H   0  0  0  0  0  0  0  0  0  0  0  0
   12.0891    2.6610   -7.9655 H   0  0  0  0  0  0  0  0  0  0  0  0
   13.5624    5.1582   -7.5675 H   0  0  0  0  0  0  0  0  0  0  0  0
   10.5677    5.1557   -8.1279 H   0  0  0  0  0  0  0  0  0  0  0  0
   11.7746    5.1530   -9.4583 H   0  0  0  0  0  0  0  0  0  0  0  0
   12.7999    7.1131   -8.4967 H   0  0  0  0  0  0  0  0  0  0  0  0
   11.5370    7.1252   -7.2194 H   0  0  0  0  0  0  0  0  0  0  0  0
   13.8003    4.3725   -5.3852 H   0  0  0  0  0  0  0  0  0  0  0  0
   11.9904    5.7225   -3.5139 H   0  0  0  0  0  0  0  0  0  0  0  0
   11.4012    3.6832   -2.2373 H   0  0  0  0  0  0  0  0  0  0  0  0
   12.2386    2.6579   -3.4513 H   0  0  0  0  0  0  0  0  0  0  0  0
   10.7511    3.5558   -3.9069 H   0  0  0  0  0  0  0  0  0  0  0  0
   14.2098    3.2250   -4.4109 H   0  0  0  0  0  0  0  0  0  0  0  0
   15.9011    3.2895   -2.0628 H   0  0  0  0  0  0  0  0  0  0  0  0
   17.6018    2.1181   -3.3392 H   0  0  0  0  0  0  0  0  0  0  0  0
   16.6558    2.3818   -4.8432 H   0  0  0  0  0  0  0  0  0  0  0  0
   15.9741    1.3797   -3.5174 H   0  0  0  0  0  0  0  0  0  0  0  0
   16.5117    6.5970   -4.0703 H   0  0  0  0  0  0  0  0  0  0  0  0
   15.1684    5.5260   -4.2905 H   0  0  0  0  0  0  0  0  0  0  0  0
  1  2  1  0  0  0  0
  1  3  2  0  0  0  0
  1  4  1  0  0  0  0
  4  5  1  0  0  0  0
  4 80  1  0  0  0  0
  4 81  1  0  0  0  0
  5  6  1  0  0  0  0
  5 82  1  0  0  0  0
  5 83  1  0  0  0  0
  6  7  2  0  0  0  0
  6  8  1  0  0  0  0
  8  9  1  0  0  0  0
  8 84  1  0  0  0  0
  9 10  1  0  0  0  0
  9 12  1  0  0  0  0
  9 85  1  1  0  0  0
 10 11  2  0  0  0  0
 10 20  1  0  0  0  0
 12 13  1  0  0  0  0
 12 86  1  0  0  0  0
 12 87  1  0  0  0  0
 13 14  2  0  0  0  0
 13 15  1  0  0  0  0
 14 16  1  0  0  0  0
 14 88  1  0  0  0  0
 15 17  2  0  0  0  0
 15 89  1  0  0  0  0
 16 18  2  0  0  0  0
 16 90  1  0  0  0  0
 17 18  1  0  0  0  0
 17 91  1  0  0  0  0
 18 19  1  0  0  0  0
 19 92  1  0  0  0  0
 20 21  1  0  0  0  0
 20 93  1  0  0  0  0
 21 22  1  0  0  0  0
 21 24  1  0  0  0  0
 21 94  1  6  0  0  0
 22 23  2  0  0  0  0
 22 29  1  0  0  0  0
 24 25  1  0  0  0  0
 24 95  1  0  0  0  0
 24 96  1  0  0  0  0
 25 26  1  0  0  0  0
 25 97  1  0  0  0  0
 25 98  1  0  0  0  0
 26 27  1  0  0  0  0
 26 28  2  0  0  0  0
 29 30  1  0  0  0  0
 29 35  1  0  0  0  0
 30 31  1  0  0  0  0
 30 33  1  0  0  0  0
 30 99  1  1  0  0  0
 31 32  2  0  0  0  0
 31 36  1  0  0  0  0
 33 34  1  0  0  0  0
 33100  1  0  0  0  0
 33101  1  0  0  0  0
 34 35  1  0  0  0  0
 34102  1  0  0  0  0
 34103  1  0  0  0  0
 35104  1  0  0  0  0
 35105  1  0  0  0  0
 36 37  1  0  0  0  0
 36106  1  0  0  0  0
 37 38  1  0  0  0  0
 37 40  1  0  0  0  0
 37107  1  1  0  0  0
 38 39  2  0  0  0  0
 38 44  1  0  0  0  0
 40 41  1  0  0  0  0
 40 42  1  0  0  0  0
 40108  1  6  0  0  0
 41 43  1  0  0  0  0
 41109  1  0  0  0  0
 41110  1  0  0  0  0
 42111  1  0  0  0  0
 42112  1  0  0  0  0
 42113  1  0  0  0  0
 43114  1  0  0  0  0
 43115  1  0  0  0  0
 43116  1  0  0  0  0
 44 45  1  0  0  0  0
 44 50  1  0  0  0  0
 45 46  1  0  0  0  0
 45 48  1  0  0  0  0
 45117  1  6  0  0  0
 46 47  2  0  0  0  0
 46 51  1  0  0  0  0
 48 49  1  0  0  0  0
 48118  1  0  0  0  0
 48119  1  0  0  0  0
 49 50  1  0  0  0  0
 49120  1  0  0  0  0
 49121  1  0  0  0  0
 50122  1  0  0  0  0
 50123  1  0  0  0  0
 51 52  1  0  0  0  0
 51124  1  0  0  0  0
 52 53  1  0  0  0  0
 52 55  1  0  0  0  0
 52125  1  1  0  0  0
 53 54  2  0  0  0  0
 53 60  1  0  0  0  0
 55 56  1  0  0  0  0
 55126  1  0  0  0  0
 55127  1  0  0  0  0
 56 57  1  0  0  0  0
 56128  1  0  0  0  0
 56129  1  0  0  0  0
 57 58  1  0  0  0  0
 57 59  2  0  0  0  0
 60 61  1  0  0  0  0
 60130  1  0  0  0  0
 61 62  1  0  0  0  0
 61 64  1  0  0  0  0
 61131  1  6  0  0  0
 62 63  2  0  0  0  0
 62 69  1  0  0  0  0
 64 65  1  0  0  0  0
 64132  1  0  0  0  0
 64133  1  0  0  0  0
 65 66  1  0  0  0  0
 65134  1  0  0  0  0
 65135  1  0  0  0  0
 66 67  1  0  0  0  0
 66 68  2  0  0  0  0
 69 70  1  0  0  0  0
 69136  1  0  0  0  0
 70 71  1  0  0  0  0
 70 73  1  0  0  0  0
 70137  1  1  0  0  0
 71 72  2  0  0  0  0
 71 74  1  0  0  0  0
 73138  1  0  0  0  0
 73139  1  0  0  0  0
 73140  1  0  0  0  0
 74 75  1  0  0  0  0
 74141  1  0  0  0  0
 75 76  1  0  0  0  0
 75 78  1  0  0  0  0
 75142  1  1  0  0  0
 76 77  2  0  0  0  0
 76 79  1  0  0  0  0
 78143  1  0  0  0  0
 78144  1  0  0  0  0
 78145  1  0  0  0  0
 79146  1  0  0  0  0
 79147  1  0  0  0  0
M  CHG  4   2  -1  27  -1  58  -1  67  -1
M  END
