1tkz_ligand
 OpenBabel08222323343D

 44 46  0  0  0  0  0  0  0  0999 V2000
    2.5250  -36.1120   23.0990 C   0  0  0  0  0  0  0  0  0  0  0  0
    4.0300  -36.1670   23.4990 C   0  0  0  0  0  0  0  0  0  0  0  0
    4.4440  -34.9640   24.3630 C   0  0  0  0  0  0  0  0  0  0  0  0
    3.6640  -34.9480   25.6650 C   0  0  0  0  0  0  0  0  0  0  0  0
    2.1580  -34.7830   25.4080 C   0  0  0  0  0  0  0  0  0  0  0  0
    1.5800  -35.8180   24.3620 C   0  0  0  0  0  0  0  0  0  0  0  0
    1.3350  -37.0170   17.8490 N   0  0  0  0  0  0  0  0  0  0  0  0
    2.5640  -37.5470   18.2750 C   0  0  0  0  0  0  0  0  0  0  0  0
    3.4380  -37.8530   17.4410 O   0  0  0  0  0  0  0  0  0  0  0  0
    2.7660  -37.7600   19.7400 C   0  0  0  0  0  0  0  0  0  0  0  0
    1.7600  -37.4150   20.6290 C   0  0  0  0  0  0  0  0  0  0  0  0
    2.0220  -37.7240   22.4120 S   0  0  0  0  0  0  0  0  0  0  0  0
    0.3410  -36.6970   18.7630 C   0  0  0  0  0  0  0  0  0  0  0  0
    0.5560  -36.8940   20.1720 C   0  0  0  0  0  0  0  0  0  0  0  0
   -0.4910  -36.5890   21.0750 C   0  0  0  0  0  0  0  0  0  0  0  0
   -1.7240  -36.1110   20.6050 C   0  0  0  0  0  0  0  0  0  0  0  0
   -1.9320  -35.9280   19.2310 C   0  0  0  0  0  0  0  0  0  0  0  0
   -0.8920  -36.2220   18.3010 C   0  0  0  0  0  0  0  0  0  0  0  0
   -2.9710  -35.7450   21.7040 Cl  0  0  0  0  0  0  0  0  0  0  0  0
    4.0150  -38.4670   20.2460 C   0  0  0  0  0  0  0  0  0  0  0  0
    3.8790  -40.0000   20.0820 C   0  0  0  0  0  0  0  0  0  0  0  0
    3.5340  -40.7230   21.4070 C   0  0  0  0  0  0  0  0  0  0  0  0
    2.3838  -35.3232   22.3455 H   0  0  0  0  0  0  0  0  0  0  0  0
    4.6402  -36.1729   22.5838 H   0  0  0  0  0  0  0  0  0  0  0  0
    4.2123  -37.0910   24.0672 H   0  0  0  0  0  0  0  0  0  0  0  0
    4.2426  -34.0350   23.8095 H   0  0  0  0  0  0  0  0  0  0  0  0
    5.5189  -35.0321   24.5864 H   0  0  0  0  0  0  0  0  0  0  0  0
    4.0163  -34.1099   26.2842 H   0  0  0  0  0  0  0  0  0  0  0  0
    3.8355  -35.8950   26.1978 H   0  0  0  0  0  0  0  0  0  0  0  0
    1.9789  -33.7666   25.0275 H   0  0  0  0  0  0  0  0  0  0  0  0
    1.6253  -34.9169   26.3611 H   0  0  0  0  0  0  0  0  0  0  0  0
    1.4056  -36.7696   24.8855 H   0  0  0  0  0  0  0  0  0  0  0  0
    0.6234  -35.4250   23.9873 H   0  0  0  0  0  0  0  0  0  0  0  0
    1.1740  -36.8682   16.8733 H   0  0  0  0  0  0  0  0  0  0  0  0
   -0.3388  -36.7260   22.1395 H   0  0  0  0  0  0  0  0  0  0  0  0
   -2.8876  -35.5614   18.8739 H   0  0  0  0  0  0  0  0  0  0  0  0
   -1.0557  -36.0781   17.2391 H   0  0  0  0  0  0  0  0  0  0  0  0
    4.1588  -38.2289   21.3102 H   0  0  0  0  0  0  0  0  0  0  0  0
    4.8856  -38.1181   19.6713 H   0  0  0  0  0  0  0  0  0  0  0  0
    4.8322  -40.3978   19.7038 H   0  0  0  0  0  0  0  0  0  0  0  0
    3.0811  -40.2050   19.3531 H   0  0  0  0  0  0  0  0  0  0  0  0
    3.4516  -41.8045   21.2238 H   0  0  0  0  0  0  0  0  0  0  0  0
    2.5771  -40.3427   21.7939 H   0  0  0  0  0  0  0  0  0  0  0  0
    4.3282  -40.5356   22.1446 H   0  0  0  0  0  0  0  0  0  0  0  0
  1  2  1  0  0  0  0
  1  6  1  0  0  0  0
  1 23  1  0  0  0  0
  2  3  1  0  0  0  0
  2 24  1  0  0  0  0
  2 25  1  0  0  0  0
  3  4  1  0  0  0  0
  3 26  1  0  0  0  0
  3 27  1  0  0  0  0
  4 28  1  0  0  0  0
  4 29  1  0  0  0  0
  5  4  1  0  0  0  0
  5 30  1  0  0  0  0
  5 31  1  0  0  0  0
  6  5  1  0  0  0  0
  6 32  1  0  0  0  0
  6 33  1  0  0  0  0
  7 13  1  0  0  0  0
  7 34  1  0  0  0  0
  8  7  1  0  0  0  0
  8  9  2  0  0  0  0
 10  8  1  0  0  0  0
 10 20  1  0  0  0  0
 11 10  2  0  0  0  0
 11 12  1  0  0  0  0
 11 14  1  0  0  0  0
 12  1  1  0  0  0  0
 13 14  2  0  0  0  0
 13 18  1  0  0  0  0
 14 15  1  0  0  0  0
 15 16  2  0  0  0  0
 15 35  1  0  0  0  0
 16 17  1  0  0  0  0
 16 19  1  0  0  0  0
 17 18  2  0  0  0  0
 17 36  1  0  0  0  0
 18 37  1  0  0  0  0
 20 21  1  0  0  0  0
 20 38  1  0  0  0  0
 20 39  1  0  0  0  0
 21 22  1  0  0  0  0
 21 40  1  0  0  0  0
 21 41  1  0  0  0  0
 22 42  1  0  0  0  0
 22 43  1  0  0  0  0
 22 44  1  0  0  0  0
M  END
