1tl1_ligand
 OpenBabel08222323343D

 45 47  0  0  0  0  0  0  0  0999 V2000
    2.2930  -35.9620   23.6580 C   0  0  0  0  0  0  0  0  0  0  0  0
    3.8350  -35.7750   23.6930 C   0  0  0  0  0  0  0  0  0  0  0  0
    4.1540  -34.4270   24.3520 C   0  0  0  0  0  0  0  0  0  0  0  0
    3.8590  -34.5640   25.8570 C   0  0  0  0  0  0  0  0  0  0  0  0
    2.3780  -34.9640   26.1940 C   0  0  0  0  0  0  0  0  0  0  0  0
    1.5870  -35.7850   25.0900 C   0  0  0  0  0  0  0  0  0  0  0  0
    0.9710  -36.8560   18.4110 N   0  0  0  0  0  0  0  0  0  0  0  0
    2.2840  -37.3580   18.7650 C   0  0  0  0  0  0  0  0  0  0  0  0
    3.1610  -37.5850   17.8380 O   0  0  0  0  0  0  0  0  0  0  0  0
    2.5520  -37.5950   20.2560 C   0  0  0  0  0  0  0  0  0  0  0  0
    1.5140  -37.3110   21.2090 C   0  0  0  0  0  0  0  0  0  0  0  0
    1.8440  -37.5910   22.9300 S   0  0  2  0  0  0  0  0  0  0  0  0
   -0.0350  -36.5870   19.3760 C   0  0  0  0  0  0  0  0  0  0  0  0
    0.2350  -36.8180   20.8120 C   0  0  0  0  0  0  0  0  0  0  0  0
   -0.8230  -36.5280   21.7690 C   0  0  0  0  0  0  0  0  0  0  0  0
   -2.0790  -36.0420   21.3060 C   0  0  0  0  0  0  0  0  0  0  0  0
   -2.3090  -35.8320   19.9150 C   0  0  0  0  0  0  0  0  0  0  0  0
   -1.2970  -36.1010   18.9500 C   0  0  0  0  0  0  0  0  0  0  0  0
   -3.3250  -35.7010   22.3840 Cl  0  0  0  0  0  0  0  0  0  0  0  0
    3.9230  -38.1300   20.7180 C   0  0  0  0  0  0  0  0  0  0  0  0
    3.9100  -39.6550   20.5600 C   0  0  0  0  0  0  0  0  0  0  0  0
    3.4550  -40.4250   21.8220 C   0  0  0  0  0  0  0  0  0  0  0  0
    0.6250  -38.1530   23.6120 O   0  0  0  0  0  0  0  0  0  0  0  0
    1.8898  -35.1790   22.9990 H   0  0  0  0  0  0  0  0  0  0  0  0
    4.2326  -35.7885   22.6675 H   0  0  0  0  0  0  0  0  0  0  0  0
    4.2931  -36.5885   24.2746 H   0  0  0  0  0  0  0  0  0  0  0  0
    3.5235  -33.6378   23.9164 H   0  0  0  0  0  0  0  0  0  0  0  0
    5.2139  -34.1759   24.1988 H   0  0  0  0  0  0  0  0  0  0  0  0
    4.0727  -33.5985   26.3388 H   0  0  0  0  0  0  0  0  0  0  0  0
    4.5260  -35.3353   26.2696 H   0  0  0  0  0  0  0  0  0  0  0  0
    1.8180  -34.0363   26.3829 H   0  0  0  0  0  0  0  0  0  0  0  0
    2.3984  -35.5730   27.1098 H   0  0  0  0  0  0  0  0  0  0  0  0
    1.4034  -36.7912   25.4947 H   0  0  0  0  0  0  0  0  0  0  0  0
    0.6263  -35.2755   24.9243 H   0  0  0  0  0  0  0  0  0  0  0  0
    0.7651  -36.6922   17.4462 H   0  0  0  0  0  0  0  0  0  0  0  0
   -0.6556  -36.6813   22.8290 H   0  0  0  0  0  0  0  0  0  0  0  0
   -3.2726  -35.4605   19.5855 H   0  0  0  0  0  0  0  0  0  0  0  0
   -1.4903  -35.9352   17.8963 H   0  0  0  0  0  0  0  0  0  0  0  0
    4.0921  -37.8647   21.7721 H   0  0  0  0  0  0  0  0  0  0  0  0
    4.7217  -37.6967   20.0981 H   0  0  0  0  0  0  0  0  0  0  0  0
    4.9286  -39.9831   20.3056 H   0  0  0  0  0  0  0  0  0  0  0  0
    3.2264  -39.9097   19.7367 H   0  0  0  0  0  0  0  0  0  0  0  0
    3.4761  -41.5060   21.6194 H   0  0  0  0  0  0  0  0  0  0  0  0
    2.4316  -40.1216   22.0876 H   0  0  0  0  0  0  0  0  0  0  0  0
    4.1338  -40.1951   22.6565 H   0  0  0  0  0  0  0  0  0  0  0  0
  1  2  1  0  0  0  0
  1  6  1  0  0  0  0
  1 24  1  0  0  0  0
  2  3  1  0  0  0  0
  2 25  1  0  0  0  0
  2 26  1  0  0  0  0
  3  4  1  0  0  0  0
  3 27  1  0  0  0  0
  3 28  1  0  0  0  0
  4 29  1  0  0  0  0
  4 30  1  0  0  0  0
  5  4  1  0  0  0  0
  5 31  1  0  0  0  0
  5 32  1  0  0  0  0
  6  5  1  0  0  0  0
  6 33  1  0  0  0  0
  6 34  1  0  0  0  0
  7 13  1  0  0  0  0
  7 35  1  0  0  0  0
  8  7  1  0  0  0  0
  8  9  2  0  0  0  0
 10  8  1  0  0  0  0
 10 20  1  0  0  0  0
 11 10  2  0  0  0  0
 11 12  1  0  0  0  0
 11 14  1  0  0  0  0
 12  1  1  0  0  0  0
 12 23  2  1  0  0  0
 13 14  2  0  0  0  0
 13 18  1  0  0  0  0
 14 15  1  0  0  0  0
 15 16  2  0  0  0  0
 15 36  1  0  0  0  0
 16 17  1  0  0  0  0
 16 19  1  0  0  0  0
 17 18  2  0  0  0  0
 17 37  1  0  0  0  0
 18 38  1  0  0  0  0
 20 21  1  0  0  0  0
 20 39  1  0  0  0  0
 20 40  1  0  0  0  0
 21 22  1  0  0  0  0
 21 41  1  0  0  0  0
 21 42  1  0  0  0  0
 22 43  1  0  0  0  0
 22 44  1  0  0  0  0
 22 45  1  0  0  0  0
M  END
