1tl3_ligand
 OpenBabel08222323343D

 44 46  0  0  0  0  0  0  0  0999 V2000
    1.7470  -36.2970   22.9900 C   0  0  0  0  0  0  0  0  0  0  0  0
    3.2980  -36.2200   23.4220 C   0  0  0  0  0  0  0  0  0  0  0  0
    3.6290  -35.0170   24.2910 C   0  0  0  0  0  0  0  0  0  0  0  0
    2.8810  -35.1160   25.5880 C   0  0  0  0  0  0  0  0  0  0  0  0
    1.3810  -34.9300   25.3560 C   0  0  0  0  0  0  0  0  0  0  0  0
    0.7790  -35.9160   24.2690 C   0  0  0  0  0  0  0  0  0  0  0  0
    0.7080  -37.0310   18.0430 N   0  0  0  0  0  0  0  0  0  0  0  0
    1.8470  -37.6930   18.4820 C   0  0  0  0  0  0  0  0  0  0  0  0
    2.6940  -38.0800   17.6570 O   0  0  0  0  0  0  0  0  0  0  0  0
    2.0490  -37.8820   19.9320 C   0  0  0  0  0  0  0  0  0  0  0  0
    1.1080  -37.3450   20.8310 C   0  0  0  0  0  0  0  0  0  0  0  0
    1.3080  -37.4730   22.2570 O   0  0  0  0  0  0  0  0  0  0  0  0
   -0.2180  -36.5540   18.9210 C   0  0  0  0  0  0  0  0  0  0  0  0
   -0.0300  -36.7040   20.3290 C   0  0  0  0  0  0  0  0  0  0  0  0
   -1.0810  -36.2930   21.1840 C   0  0  0  0  0  0  0  0  0  0  0  0
   -2.2680  -35.7640   20.6700 C   0  0  0  0  0  0  0  0  0  0  0  0
   -2.4410  -35.6230   19.2960 C   0  0  0  0  0  0  0  0  0  0  0  0
   -1.4090  -36.0190   18.4150 C   0  0  0  0  0  0  0  0  0  0  0  0
   -3.4920  -35.2840   21.7150 Cl  0  0  0  0  0  0  0  0  0  0  0  0
    3.1660  -38.8600   20.3430 C   0  0  0  0  0  0  0  0  0  0  0  0
    4.5290  -38.2030   20.6020 C   0  0  0  0  0  0  0  0  0  0  0  0
    2.7580  -39.9620   21.3560 C   0  0  0  0  0  0  0  0  0  0  0  0
    1.6185  -35.4740   22.2716 H   0  0  0  0  0  0  0  0  0  0  0  0
    3.9109  -36.1693   22.5100 H   0  0  0  0  0  0  0  0  0  0  0  0
    3.5487  -37.1330   23.9820 H   0  0  0  0  0  0  0  0  0  0  0  0
    3.3355  -34.0949   23.7679 H   0  0  0  0  0  0  0  0  0  0  0  0
    4.7103  -34.9962   24.4920 H   0  0  0  0  0  0  0  0  0  0  0  0
    3.2408  -34.3351   26.2741 H   0  0  0  0  0  0  0  0  0  0  0  0
    3.0584  -36.1059   26.0337 H   0  0  0  0  0  0  0  0  0  0  0  0
    1.2063  -33.8964   25.0225 H   0  0  0  0  0  0  0  0  0  0  0  0
    0.8580  -35.1014   26.3084 H   0  0  0  0  0  0  0  0  0  0  0  0
    0.5185  -36.8547   24.7799 H   0  0  0  0  0  0  0  0  0  0  0  0
   -0.1338  -35.4512   23.8681 H   0  0  0  0  0  0  0  0  0  0  0  0
    0.5645  -36.9017   17.0618 H   0  0  0  0  0  0  0  0  0  0  0  0
   -0.9628  -36.3905   22.2571 H   0  0  0  0  0  0  0  0  0  0  0  0
   -3.3636  -35.2111   18.9032 H   0  0  0  0  0  0  0  0  0  0  0  0
   -1.5399  -35.9082   17.3447 H   0  0  0  0  0  0  0  0  0  0  0  0
    3.3407  -39.4327   19.4202 H   0  0  0  0  0  0  0  0  0  0  0  0
    5.2593  -38.9742   20.8880 H   0  0  0  0  0  0  0  0  0  0  0  0
    4.4335  -37.4688   21.4155 H   0  0  0  0  0  0  0  0  0  0  0  0
    4.8709  -37.6952   19.6881 H   0  0  0  0  0  0  0  0  0  0  0  0
    1.7720  -40.3652   21.0818 H   0  0  0  0  0  0  0  0  0  0  0  0
    2.7097  -39.5311   22.3669 H   0  0  0  0  0  0  0  0  0  0  0  0
    3.5030  -40.7711   21.3375 H   0  0  0  0  0  0  0  0  0  0  0  0
  1  2  1  0  0  0  0
  1  6  1  0  0  0  0
  1 23  1  0  0  0  0
  2  3  1  0  0  0  0
  2 24  1  0  0  0  0
  2 25  1  0  0  0  0
  3  4  1  0  0  0  0
  3 26  1  0  0  0  0
  3 27  1  0  0  0  0
  4 28  1  0  0  0  0
  4 29  1  0  0  0  0
  5  4  1  0  0  0  0
  5 30  1  0  0  0  0
  5 31  1  0  0  0  0
  6  5  1  0  0  0  0
  6 32  1  0  0  0  0
  6 33  1  0  0  0  0
  7 13  1  0  0  0  0
  7 34  1  0  0  0  0
  8  7  1  0  0  0  0
  8  9  2  0  0  0  0
 10  8  1  0  0  0  0
 10 20  1  0  0  0  0
 11 10  2  0  0  0  0
 11 12  1  0  0  0  0
 11 14  1  0  0  0  0
 12  1  1  0  0  0  0
 13 14  2  0  0  0  0
 13 18  1  0  0  0  0
 14 15  1  0  0  0  0
 15 16  2  0  0  0  0
 15 35  1  0  0  0  0
 16 17  1  0  0  0  0
 16 19  1  0  0  0  0
 17 18  2  0  0  0  0
 17 36  1  0  0  0  0
 18 37  1  0  0  0  0
 20 21  1  0  0  0  0
 20 22  1  0  0  0  0
 20 38  1  0  0  0  0
 21 39  1  0  0  0  0
 21 40  1  0  0  0  0
 21 41  1  0  0  0  0
 22 42  1  0  0  0  0
 22 43  1  0  0  0  0
 22 44  1  0  0  0  0
M  END
