1tl7_ligand
 OpenBabel08222323343D

 61 64  0  0  1  0  0  0  0  0999 V2000
   66.8560  -14.3330   54.3330 C   0  0  0  0  0  0  0  0  0  0  0  0
   65.4090  -14.6420   54.4560 N   0  0  0  0  0  0  0  0  0  0  0  0
   64.8280  -15.8410   54.7390 C   0  0  0  0  0  0  0  0  0  0  0  0
   65.6550  -17.0950   54.9760 C   0  0  0  0  0  0  0  0  0  0  0  0
   65.0000  -18.5110   55.3150 C   0  0  0  0  0  0  0  0  0  0  0  0
   63.5650  -18.4920   55.3720 C   0  0  0  0  0  0  0  0  0  0  0  0
   62.7670  -17.1650   55.1170 C   0  0  0  0  0  0  0  0  0  0  0  0
   63.4020  -15.9260   54.8190 C   0  0  0  0  0  0  0  0  0  0  0  0
   62.4580  -14.7050   54.5980 C   0  0  0  0  0  0  0  0  0  0  0  0
   62.7550  -13.4230   55.2390 O   0  0  0  0  0  0  0  0  0  0  0  0
   61.3290  -14.8290   53.8160 O   0  0  0  0  0  0  0  0  0  0  0  0
   60.2560  -13.8150   53.6790 C   0  0  1  0  0  0  0  0  0  0  0  0
   59.2730  -14.3570   52.6570 C   0  0  1  0  0  0  0  0  0  0  0  0
   59.9000  -15.1470   51.6340 O   0  0  0  0  0  0  0  0  0  0  0  0
   59.3130  -13.5710   54.9060 C   0  0  1  0  0  0  0  0  0  0  0  0
   58.4910  -12.2710   55.1490 C   0  0  0  0  0  0  0  0  0  0  0  0
   58.4950  -11.2170   54.1710 O   0  0  0  0  0  0  0  0  0  0  0  0
   57.5890   -9.8810   54.3680 P   0  0  1  0  0  0  0  0  0  0  0  0
   58.0320   -9.0460   53.0520 O   0  0  0  0  0  1  0  0  0  0  0  0
   56.1680  -10.3070   54.3430 O   0  0  0  0  0  0  0  0  0  0  0  0
   58.2520   -9.1530   55.6070 O   0  0  0  0  0  0  0  0  0  0  0  0
   57.3980   -8.9610   56.9440 P   0  0  2  0  0  0  0  0  0  0  0  0
   56.4720  -10.2900   57.0640 O   0  0  0  0  0  1  0  0  0  0  0  0
   56.3530   -7.9190   56.8260 O   0  0  0  0  0  0  0  0  0  0  0  0
   58.2200   -9.0260   58.2070 O   0  0  0  0  0  0  0  0  0  0  0  0
   59.0980   -7.7540   58.1750 P   0  0  0  0  0  0  0  0  0  0  0  0
   60.6860   -7.9010   58.2930 O   0  0  0  0  0  1  0  0  0  0  0  0
   58.4960   -6.2610   58.0930 O   0  0  0  0  0  1  0  0  0  0  0  0
   58.6010   -7.4670   59.5330 O   0  0  0  0  0  0  0  0  0  0  0  0
   58.3930  -14.6750   54.8900 O   0  0  0  0  0  0  0  0  0  0  0  0
   58.3650  -15.1930   53.5330 C   0  0  1  0  0  0  0  0  0  0  0  0
   56.9770  -15.3780   53.0210 N   0  0  0  0  0  0  0  0  0  0  0  0
   55.9640  -14.5140   52.8930 C   0  0  0  0  0  0  0  0  0  0  0  0
   54.9260  -15.1130   52.2970 N   0  0  0  0  0  0  0  0  0  0  0  0
   55.2900  -16.3550   52.0120 C   0  0  0  0  0  0  0  0  0  0  0  0
   56.6020  -16.5170   52.4590 C   0  0  0  0  0  0  0  0  0  0  0  0
   57.2810  -17.7020   52.3020 N   0  0  0  0  0  0  0  0  0  0  0  0
   56.7240  -18.7940   51.7060 C   0  0  0  0  0  0  0  0  0  0  0  0
   57.4210  -19.9170   51.5840 N   0  0  0  0  0  0  0  0  0  0  0  0
   55.3930  -18.7010   51.2300 N   0  0  0  0  0  0  0  0  0  0  0  0
   54.6800  -17.4770   51.3830 C   0  0  0  0  0  0  0  0  0  0  0  0
   53.5320  -17.4460   50.9480 O   0  0  0  0  0  0  0  0  0  0  0  0
   66.9843  -13.2665   54.0963 H   0  0  0  0  0  0  0  0  0  0  0  0
   67.2940  -14.9423   53.5288 H   0  0  0  0  0  0  0  0  0  0  0  0
   67.3617  -14.5611   55.2828 H   0  0  0  0  0  0  0  0  0  0  0  0
   64.7648  -13.8519   54.3091 H   0  0  0  0  0  0  0  0  0  0  0  0
   66.7348  -17.0245   54.9121 H   0  0  0  0  0  0  0  0  0  0  0  0
   65.5859  -19.4067   55.4868 H   0  0  0  0  0  0  0  0  0  0  0  0
   63.0262  -19.4061   55.5940 H   0  0  0  0  0  0  0  0  0  0  0  0
   61.6847  -17.1929   55.1701 H   0  0  0  0  0  0  0  0  0  0  0  0
   60.7063  -12.8635   53.3597 H   0  0  0  0  0  0  0  0  0  0  0  0
   58.7161  -13.5376   52.1790 H   0  0  0  0  0  0  0  0  0  0  0  0
   60.3390  -15.8890   52.0330 H   0  0  0  0  0  0  0  0  0  0  0  0
   59.9599  -13.6626   55.7910 H   0  0  0  0  0  0  0  0  0  0  0  0
   58.8621  -11.8330   56.0873 H   0  0  0  0  0  0  0  0  0  0  0  0
   57.4429  -12.5790   55.2775 H   0  0  0  0  0  0  0  0  0  0  0  0
   58.8075  -16.1995   53.5657 H   0  0  0  0  0  0  0  0  0  0  0  0
   55.9812  -13.4768   53.2246 H   0  0  0  0  0  0  0  0  0  0  0  0
   58.3876  -19.9641   51.9367 H   0  0  0  0  0  0  0  0  0  0  0  0
   56.9953  -20.7413   51.1366 H   0  0  0  0  0  0  0  0  0  0  0  0
   54.9580  -19.4870   50.7907 H   0  0  0  0  0  0  0  0  0  0  0  0
  1  2  1  0  0  0  0
  1 43  1  0  0  0  0
  1 44  1  0  0  0  0
  1 45  1  0  0  0  0
  2  3  1  0  0  0  0
  2 46  1  0  0  0  0
  3  4  2  0  0  0  0
  3  8  1  0  0  0  0
  4  5  1  0  0  0  0
  4 47  1  0  0  0  0
  5  6  2  0  0  0  0
  5 48  1  0  0  0  0
  6  7  1  0  0  0  0
  6 49  1  0  0  0  0
  7  8  2  0  0  0  0
  7 50  1  0  0  0  0
  8  9  1  0  0  0  0
  9 10  2  0  0  0  0
  9 11  1  0  0  0  0
 11 12  1  0  0  0  0
 12 13  1  0  0  0  0
 12 15  1  0  0  0  0
 12 51  1  6  0  0  0
 13 14  1  0  0  0  0
 13 31  1  0  0  0  0
 13 52  1  6  0  0  0
 14 53  1  0  0  0  0
 15 16  1  0  0  0  0
 15 30  1  0  0  0  0
 15 54  1  1  0  0  0
 16 17  1  0  0  0  0
 16 55  1  0  0  0  0
 16 56  1  0  0  0  0
 17 18  1  0  0  0  0
 18 19  1  6  0  0  0
 18 20  2  0  0  0  0
 18 21  1  0  0  0  0
 21 22  1  0  0  0  0
 22 23  1  1  0  0  0
 22 24  2  0  0  0  0
 22 25  1  0  0  0  0
 25 26  1  0  0  0  0
 26 27  1  0  0  0  0
 26 28  1  0  0  0  0
 26 29  2  0  0  0  0
 30 31  1  0  0  0  0
 31 32  1  0  0  0  0
 31 57  1  1  0  0  0
 32 33  1  0  0  0  0
 32 36  1  0  0  0  0
 33 34  2  0  0  0  0
 33 58  1  0  0  0  0
 34 35  1  0  0  0  0
 35 36  2  0  0  0  0
 35 41  1  0  0  0  0
 36 37  1  0  0  0  0
 37 38  2  0  0  0  0
 38 39  1  0  0  0  0
 38 40  1  0  0  0  0
 39 59  1  0  0  0  0
 39 60  1  0  0  0  0
 40 41  1  0  0  0  0
 40 61  1  0  0  0  0
 41 42  2  0  0  0  0
M  END
