1tlo_ligand
 OpenBabel08222323343D

 54 53  0  0  1  0  0  0  0  0999 V2000
   11.3560   38.6840   21.2470 C   0  0  0  0  0  0  0  0  0  0  0  0
   12.0590   39.1600   20.2640 O   0  5  0  0  0  0  0  0  0  0  0  0
   11.8570   38.1280   22.1950 O   0  0  0  0  0  0  0  0  0  0  0  0
    9.8560   38.8710   21.0810 C   0  0  0  0  0  0  0  0  0  0  0  0
    9.2660   40.1820   21.7920 C   0  0  2  0  0  0  0  0  0  0  0  0
    9.2680   39.9510   23.1160 O   0  0  0  0  0  0  0  0  0  0  0  0
    7.8540   40.4750   21.2040 C   0  0  0  0  0  0  0  0  0  0  0  0
    7.5320   40.6680   19.9900 O   0  0  0  0  0  0  0  0  0  0  0  0
    6.8880   40.5200   22.1490 N   0  0  0  0  0  0  0  0  0  0  0  0
    5.4980   40.4710   21.9440 C   0  0  1  0  0  0  0  0  0  0  0  0
    4.8270   39.2110   22.3620 C   0  0  0  0  0  0  0  0  0  0  0  0
    5.2350   37.8430   21.9560 C   0  0  0  0  0  0  0  0  0  0  0  0
    4.2220   36.8430   22.6590 C   0  0  0  0  0  0  0  0  0  0  0  0
    5.1860   37.8330   20.3800 C   0  0  0  0  0  0  0  0  0  0  0  0
    4.7060   41.6090   22.6330 C   0  0  0  0  0  0  0  0  0  0  0  0
    5.1170   41.8990   23.7500 O   0  0  0  0  0  0  0  0  0  0  0  0
    3.7130   42.1920   22.0040 N   0  0  0  0  0  0  0  0  0  0  0  0
    2.8940   43.2910   22.4670 C   0  0  0  0  0  0  0  0  0  0  0  0
    3.1880   44.3060   21.3730 C   0  0  0  0  0  0  0  0  0  0  0  0
    1.9970   45.2000   21.3610 C   0  0  0  0  0  0  0  0  0  0  0  0
    1.9340   45.7620   19.9430 C   0  0  0  0  0  0  0  0  0  0  0  0
    1.6180   44.5160   19.2410 N   0  0  0  0  0  0  0  0  0  0  0  0
    1.3820   44.1600   17.8120 C   0  0  0  0  0  3  0  0  0  0  0  0
    1.1290   42.8130   17.7850 N   0  0  0  0  0  0  0  0  0  0  0  0
    1.3790   44.9150   16.5860 N   0  0  0  0  0  0  0  0  0  0  0  0
    9.3509   37.9920   21.5079 H   0  0  0  0  0  0  0  0  0  0  0  0
    9.6347   38.9346   20.0054 H   0  0  0  0  0  0  0  0  0  0  0  0
    9.9161   41.0443   21.5827 H   0  0  0  0  0  0  0  0  0  0  0  0
    8.7252   39.1946   23.3052 H   0  0  0  0  0  0  0  0  0  0  0  0
    7.1959   40.5965   23.0973 H   0  0  0  0  0  0  0  0  0  0  0  0
    5.3544   40.5752   20.8584 H   0  0  0  0  0  0  0  0  0  0  0  0
    3.7830   39.3136   22.0311 H   0  0  0  0  0  0  0  0  0  0  0  0
    4.8650   39.2118   23.4613 H   0  0  0  0  0  0  0  0  0  0  0  0
    6.2583   37.6186   22.2915 H   0  0  0  0  0  0  0  0  0  0  0  0
    4.4815   35.8086   22.3894 H   0  0  0  0  0  0  0  0  0  0  0  0
    3.1976   37.0632   22.3242 H   0  0  0  0  0  0  0  0  0  0  0  0
    4.2851   36.9642   23.7505 H   0  0  0  0  0  0  0  0  0  0  0  0
    5.9182   38.5531   19.9858 H   0  0  0  0  0  0  0  0  0  0  0  0
    4.1774   38.1139   20.0427 H   0  0  0  0  0  0  0  0  0  0  0  0
    5.4283   36.8251   20.0120 H   0  0  0  0  0  0  0  0  0  0  0  0
    3.4964   41.8338   21.0958 H   0  0  0  0  0  0  0  0  0  0  0  0
    3.2126   43.6511   23.4564 H   0  0  0  0  0  0  0  0  0  0  0  0
    1.8280   43.0219   22.5005 H   0  0  0  0  0  0  0  0  0  0  0  0
    3.3078   43.8056   20.4008 H   0  0  0  0  0  0  0  0  0  0  0  0
    4.0992   44.8761   21.6067 H   0  0  0  0  0  0  0  0  0  0  0  0
    2.1167   46.0123   22.0930 H   0  0  0  0  0  0  0  0  0  0  0  0
    1.0846   44.6304   21.5912 H   0  0  0  0  0  0  0  0  0  0  0  0
    2.8955   46.1886   19.6212 H   0  0  0  0  0  0  0  0  0  0  0  0
    1.1416   46.5164   19.8291 H   0  0  0  0  0  0  0  0  0  0  0  0
    1.5420   43.7070   19.8739 H   0  0  0  0  0  0  0  0  0  0  0  0
    0.9353   42.3432   16.8891 H   0  0  0  0  0  0  0  0  0  0  0  0
    1.1326   42.2707   18.6607 H   0  0  0  0  0  0  0  0  0  0  0  0
    1.5689   45.9272   16.6040 H   0  0  0  0  0  0  0  0  0  0  0  0
    1.1870   44.4429   15.6909 H   0  0  0  0  0  0  0  0  0  0  0  0
  1  2  1  0  0  0  0
  1  3  2  0  0  0  0
  1  4  1  0  0  0  0
  4  5  1  0  0  0  0
  4 26  1  0  0  0  0
  4 27  1  0  0  0  0
  5  6  1  0  0  0  0
  5  7  1  0  0  0  0
  5 28  1  6  0  0  0
  6 29  1  0  0  0  0
  7  8  2  0  0  0  0
  7  9  1  0  0  0  0
  9 10  1  0  0  0  0
  9 30  1  0  0  0  0
 10 11  1  0  0  0  0
 10 15  1  0  0  0  0
 10 31  1  6  0  0  0
 11 12  1  0  0  0  0
 11 32  1  0  0  0  0
 11 33  1  0  0  0  0
 12 13  1  0  0  0  0
 12 14  1  0  0  0  0
 12 34  1  0  0  0  0
 13 35  1  0  0  0  0
 13 36  1  0  0  0  0
 13 37  1  0  0  0  0
 14 38  1  0  0  0  0
 14 39  1  0  0  0  0
 14 40  1  0  0  0  0
 15 16  2  0  0  0  0
 15 17  1  0  0  0  0
 17 18  1  0  0  0  0
 17 41  1  0  0  0  0
 18 19  1  0  0  0  0
 18 42  1  0  0  0  0
 18 43  1  0  0  0  0
 19 20  1  0  0  0  0
 19 44  1  0  0  0  0
 19 45  1  0  0  0  0
 20 21  1  0  0  0  0
 20 46  1  0  0  0  0
 20 47  1  0  0  0  0
 21 22  1  0  0  0  0
 21 48  1  0  0  0  0
 21 49  1  0  0  0  0
 22 23  1  0  0  0  0
 22 50  1  0  0  0  0
 23 24  1  0  0  0  0
 23 25  1  0  0  0  0
 24 51  1  0  0  0  0
 24 52  1  0  0  0  0
 25 53  1  0  0  0  0
 25 54  1  0  0  0  0
M  CHG  1   2  -1
M  END
