1tmb_ligand
 OpenBabel08222323343D

102105  0  0  1  0  0  0  0  0999 V2000
   17.6230  -16.8540   25.1640 C   0  0  0  0  0  0  0  0  0  0  0  0
   17.5130  -18.0820   24.8110 O   0  0  0  0  0  0  0  0  0  0  0  0
   16.8580  -16.0560   24.4180 N   0  3  0  0  0  0  0  0  0  0  0  0
   16.8870  -16.1180   22.9800 C   0  0  2  0  0  0  0  0  0  0  0  0
   16.7710  -14.6650   22.4860 C   0  0  0  0  0  0  0  0  0  0  0  0
   15.7640  -14.0390   22.8570 O   0  0  0  0  0  0  0  0  0  0  0  0
   15.6720  -16.8720   22.4210 C   0  0  0  0  0  0  0  0  0  0  0  0
   17.7080  -14.2500   21.6820 N   0  0  0  0  0  0  0  0  0  0  0  0
   17.6460  -12.8650   21.1500 C   0  0  2  0  0  0  0  0  0  0  0  0
   16.3190  -12.7790   20.3840 C   0  0  0  0  0  0  0  0  0  0  0  0
   15.9310  -13.8210   19.8110 O   0  0  0  0  0  0  0  0  0  0  0  0
   18.9400  -12.6760   20.4260 C   0  0  0  0  0  0  0  0  0  0  0  0
   19.7290  -13.9540   20.5240 C   0  0  0  0  0  0  0  0  0  0  0  0
   18.9090  -14.9860   21.2670 C   0  0  0  0  0  0  0  0  0  0  0  0
   15.5930  -11.6780   20.3850 N   0  0  0  0  0  0  0  0  0  0  0  0
   14.2880  -11.5340   19.7130 C   0  0  2  0  0  0  0  0  0  0  0  0
   14.3240  -10.9680   18.2940 C   0  0  0  0  0  0  0  0  0  0  0  0
   13.3520  -10.3170   17.8800 O   0  0  0  0  0  0  0  0  0  0  0  0
   13.1840  -10.8260   20.5510 C   0  0  0  0  0  0  0  0  0  0  0  0
   12.6240  -11.8840   21.5190 C   0  0  0  0  0  0  0  0  0  0  0  0
   11.9680  -11.2210   22.6650 C   0  0  0  0  0  0  0  0  0  0  0  0
   11.3490  -12.1520   23.5870 N   0  0  0  0  0  0  0  0  0  0  0  0
   10.4560  -11.9510   24.5160 C   0  0  0  0  0  3  0  0  0  0  0  0
   10.0910  -10.6940   24.8430 N   0  0  0  0  0  0  0  0  0  0  0  0
    9.8280  -12.9810   25.1760 N   0  0  0  0  0  0  0  0  0  0  0  0
   15.4760  -11.4280   17.4140 C   0  0  0  0  0  0  0  0  0  0  0  0
   16.6630  -11.0420   17.4140 O   0  0  0  0  0  0  0  0  0  0  0  0
   15.1630  -12.4930   16.6670 N   0  0  0  0  0  0  0  0  0  0  0  0
   16.0170  -13.1780   15.6900 C   0  0  1  0  0  0  0  0  0  0  0  0
   15.3040  -14.5570   15.7350 C   0  0  0  0  0  0  0  0  0  0  0  0
   14.0800  -14.5730   15.5290 O   0  0  0  0  0  0  0  0  0  0  0  0
   16.0760  -12.6180   14.3030 C   0  0  0  0  0  0  0  0  0  0  0  0
   14.7570  -12.2270   13.6880 C   0  0  0  0  0  0  0  0  0  0  0  0
   14.0050  -13.1350   12.9430 C   0  0  0  0  0  0  0  0  0  0  0  0
   14.2960  -10.9030   13.8420 C   0  0  0  0  0  0  0  0  0  0  0  0
   12.8150  -12.7210   12.3400 C   0  0  0  0  0  0  0  0  0  0  0  0
   13.1340  -10.4660   13.2200 C   0  0  0  0  0  0  0  0  0  0  0  0
   12.3830  -11.3990   12.4560 C   0  0  0  0  0  0  0  0  0  0  0  0
   16.0980  -15.5220   16.1380 N   0  0  0  0  0  0  0  0  0  0  0  0
   15.5030  -16.8440   16.3960 C   0  0  2  0  0  0  0  0  0  0  0  0
   15.5590  -16.7740   17.9190 C   0  0  0  0  0  0  0  0  0  0  0  0
   16.3640  -17.9380   15.6910 C   0  0  0  0  0  0  0  0  0  0  0  0
   16.3090  -17.5380   14.2020 C   0  0  0  0  0  0  0  0  0  0  0  0
   15.0500  -17.6780   13.5790 C   0  0  0  0  0  0  0  0  0  0  0  0
   17.3680  -17.0040   13.4760 C   0  0  0  0  0  0  0  0  0  0  0  0
   14.8420  -17.3130   12.2530 C   0  0  0  0  0  0  0  0  0  0  0  0
   17.1660  -16.6110   12.1510 C   0  0  0  0  0  0  0  0  0  0  0  0
   15.9210  -16.7720   11.5540 C   0  0  0  0  0  0  0  0  0  0  0  0
   15.7160  -16.3950   10.2370 O   0  0  0  0  0  0  0  0  0  0  0  0
   15.5590  -17.8290   18.6800 C   0  0  0  0  0  0  0  0  0  0  0  0
   15.5810  -17.7340   20.1470 C   0  0  0  0  0  0  0  0  0  0  0  0
   15.5520  -18.8550   20.6420 O   0  0  0  0  0  0  0  0  0  0  0  0
   15.6090  -16.6800   20.9130 N   0  0  0  0  0  0  0  0  0  0  0  0
   18.6730  -16.5445   25.0555 H   0  0  0  0  0  0  0  0  0  0  0  0
   17.3190  -16.7570   26.2167 H   0  0  0  0  0  0  0  0  0  0  0  0
   17.7790  -18.1746   23.9037 H   0  0  0  0  0  0  0  0  0  0  0  0
   17.1045  -15.1109   24.6672 H   0  0  0  0  0  0  0  0  0  0  0  0
   15.9051  -16.2380   24.6916 H   0  0  0  0  0  0  0  0  0  0  0  0
   17.8200  -16.5871   22.6345 H   0  0  0  0  0  0  0  0  0  0  0  0
   14.7529  -16.4787   22.8798 H   0  0  0  0  0  0  0  0  0  0  0  0
   15.7672  -17.9435   22.6510 H   0  0  0  0  0  0  0  0  0  0  0  0
   17.6078  -12.1321   21.9694 H   0  0  0  0  0  0  0  0  0  0  0  0
   19.5067  -11.8532   20.8862 H   0  0  0  0  0  0  0  0  0  0  0  0
   18.7439  -12.4404   19.3696 H   0  0  0  0  0  0  0  0  0  0  0  0
   20.6667  -13.7673   21.0680 H   0  0  0  0  0  0  0  0  0  0  0  0
   19.9585  -14.3237   19.5137 H   0  0  0  0  0  0  0  0  0  0  0  0
   18.6451  -15.8254   20.6069 H   0  0  0  0  0  0  0  0  0  0  0  0
   19.4572  -15.3657   22.1418 H   0  0  0  0  0  0  0  0  0  0  0  0
   15.9528  -10.8847   20.8761 H   0  0  0  0  0  0  0  0  0  0  0  0
   13.9356  -12.5693   19.5948 H   0  0  0  0  0  0  0  0  0  0  0  0
   12.3860  -10.4542   19.8914 H   0  0  0  0  0  0  0  0  0  0  0  0
   13.6151   -9.9856   21.1147 H   0  0  0  0  0  0  0  0  0  0  0  0
   13.4471  -12.5151   21.8853 H   0  0  0  0  0  0  0  0  0  0  0  0
   11.8896  -12.5095   20.9904 H   0  0  0  0  0  0  0  0  0  0  0  0
   11.1921  -10.5434   22.2793 H   0  0  0  0  0  0  0  0  0  0  0  0
   12.7245  -10.6389   23.2117 H   0  0  0  0  0  0  0  0  0  0  0  0
   11.6646  -13.1280   23.4938 H   0  0  0  0  0  0  0  0  0  0  0  0
    9.3856  -10.5370   25.5769 H   0  0  0  0  0  0  0  0  0  0  0  0
   10.5178   -9.8913   24.3587 H   0  0  0  0  0  0  0  0  0  0  0  0
   10.0742  -13.9574   24.9594 H   0  0  0  0  0  0  0  0  0  0  0  0
    9.1114  -12.7761   25.8870 H   0  0  0  0  0  0  0  0  0  0  0  0
   14.2425  -12.8643   16.7883 H   0  0  0  0  0  0  0  0  0  0  0  0
   17.0490  -13.2445   16.0649 H   0  0  0  0  0  0  0  0  0  0  0  0
   16.5374  -13.3767   13.6538 H   0  0  0  0  0  0  0  0  0  0  0  0
   16.7130  -11.7216   14.3295 H   0  0  0  0  0  0  0  0  0  0  0  0
   14.3430  -14.1590   12.8322 H   0  0  0  0  0  0  0  0  0  0  0  0
   14.8603  -10.2126   14.4584 H   0  0  0  0  0  0  0  0  0  0  0  0
   12.2219  -13.4327   11.7771 H   0  0  0  0  0  0  0  0  0  0  0  0
   12.8075   -9.4367   13.3152 H   0  0  0  0  0  0  0  0  0  0  0  0
   11.4715  -11.0831   11.9616 H   0  0  0  0  0  0  0  0  0  0  0  0
   17.0771  -15.3639   16.2658 H   0  0  0  0  0  0  0  0  0  0  0  0
   14.4652  -16.9251   16.0405 H   0  0  0  0  0  0  0  0  0  0  0  0
   15.6010  -15.7938   18.3917 H   0  0  0  0  0  0  0  0  0  0  0  0
   15.9321  -18.9378   15.8454 H   0  0  0  0  0  0  0  0  0  0  0  0
   17.3989  -17.9240   16.0635 H   0  0  0  0  0  0  0  0  0  0  0  0
   14.2218  -18.0814   14.1502 H   0  0  0  0  0  0  0  0  0  0  0  0
   18.3437  -16.8935   13.9353 H   0  0  0  0  0  0  0  0  0  0  0  0
   13.8757  -17.4443   11.7797 H   0  0  0  0  0  0  0  0  0  0  0  0
   17.9837  -16.1786   11.5858 H   0  0  0  0  0  0  0  0  0  0  0  0
   14.8152  -16.5741    9.9941 H   0  0  0  0  0  0  0  0  0  0  0  0
   15.5422  -18.8139   18.2157 H   0  0  0  0  0  0  0  0  0  0  0  0
   15.5894  -15.7620   20.5169 H   0  0  0  0  0  0  0  0  0  0  0  0
  1  2  1  0  0  0  0
  1  3  1  0  0  0  0
  1 54  1  0  0  0  0
  1 55  1  0  0  0  0
  2 56  1  0  0  0  0
  3  4  1  0  0  0  0
  3 57  1  0  0  0  0
  3 58  1  0  0  0  0
  4  5  1  0  0  0  0
  4  7  1  0  0  0  0
  4 59  1  6  0  0  0
  5  6  2  0  0  0  0
  5  8  1  0  0  0  0
  7 53  1  0  0  0  0
  7 60  1  0  0  0  0
  7 61  1  0  0  0  0
  8  9  1  0  0  0  0
  8 14  1  0  0  0  0
  9 10  1  0  0  0  0
  9 12  1  0  0  0  0
  9 62  1  1  0  0  0
 10 11  2  0  0  0  0
 10 15  1  0  0  0  0
 12 13  1  0  0  0  0
 12 63  1  0  0  0  0
 12 64  1  0  0  0  0
 13 14  1  0  0  0  0
 13 65  1  0  0  0  0
 13 66  1  0  0  0  0
 14 67  1  0  0  0  0
 14 68  1  0  0  0  0
 15 16  1  0  0  0  0
 15 69  1  0  0  0  0
 16 17  1  0  0  0  0
 16 19  1  0  0  0  0
 16 70  1  6  0  0  0
 17 18  2  0  0  0  0
 17 26  1  0  0  0  0
 19 20  1  0  0  0  0
 19 71  1  0  0  0  0
 19 72  1  0  0  0  0
 20 21  1  0  0  0  0
 20 73  1  0  0  0  0
 20 74  1  0  0  0  0
 21 22  1  0  0  0  0
 21 75  1  0  0  0  0
 21 76  1  0  0  0  0
 22 23  1  0  0  0  0
 22 77  1  0  0  0  0
 23 24  1  0  0  0  0
 23 25  1  0  0  0  0
 24 78  1  0  0  0  0
 24 79  1  0  0  0  0
 25 80  1  0  0  0  0
 25 81  1  0  0  0  0
 26 27  2  0  0  0  0
 26 28  1  0  0  0  0
 28 29  1  0  0  0  0
 28 82  1  0  0  0  0
 29 30  1  0  0  0  0
 29 32  1  0  0  0  0
 29 83  1  1  0  0  0
 30 31  2  0  0  0  0
 30 39  1  0  0  0  0
 32 33  1  0  0  0  0
 32 84  1  0  0  0  0
 32 85  1  0  0  0  0
 33 34  2  0  0  0  0
 33 35  1  0  0  0  0
 34 36  1  0  0  0  0
 34 86  1  0  0  0  0
 35 37  2  0  0  0  0
 35 87  1  0  0  0  0
 36 38  2  0  0  0  0
 36 88  1  0  0  0  0
 37 38  1  0  0  0  0
 37 89  1  0  0  0  0
 38 90  1  0  0  0  0
 39 40  1  0  0  0  0
 39 91  1  0  0  0  0
 40 41  1  0  0  0  0
 40 42  1  0  0  0  0
 40 92  1  6  0  0  0
 41 50  2  0  0  0  0
 41 93  1  0  0  0  0
 42 43  1  0  0  0  0
 42 94  1  0  0  0  0
 42 95  1  0  0  0  0
 43 44  2  0  0  0  0
 43 45  1  0  0  0  0
 44 46  1  0  0  0  0
 44 96  1  0  0  0  0
 45 47  2  0  0  0  0
 45 97  1  0  0  0  0
 46 48  2  0  0  0  0
 46 98  1  0  0  0  0
 47 48  1  0  0  0  0
 47 99  1  0  0  0  0
 48 49  1  0  0  0  0
 49100  1  0  0  0  0
 50 51  1  0  0  0  0
 50101  1  0  0  0  0
 51 52  2  0  0  0  0
 51 53  1  0  0  0  0
 53102  1  0  0  0  0
M  CHG  1   3   1
M  END
