1tnl_ligand
 OpenBabel08222323343D

 22 23  0  0  1  0  0  0  0  0999 V2000
   30.1900   15.4610   14.8430 C   0  0  2  0  0  0  0  0  0  0  0  0
   28.9490   15.1840   15.6180 C   0  0  2  0  0  0  0  0  0  0  0  0
   29.3470   16.5960   15.4000 C   0  0  0  0  0  0  0  0  0  0  0  0
   29.1430   14.7060   17.0310 C   0  0  0  0  0  0  0  0  0  0  0  0
   28.6820   15.4810   18.0860 C   0  0  0  0  0  0  0  0  0  0  0  0
   28.7430   14.9720   19.3680 C   0  0  0  0  0  0  0  0  0  0  0  0
   29.2640   13.6990   19.5790 C   0  0  0  0  0  0  0  0  0  0  0  0
   29.7350   12.9350   18.5160 C   0  0  0  0  0  0  0  0  0  0  0  0
   29.6770   13.4390   17.2310 C   0  0  0  0  0  0  0  0  0  0  0  0
   29.9220   15.1630   13.4350 N   0  3  0  0  0  0  0  0  0  0  0  0
   31.2151   15.2425   15.1767 H   0  0  0  0  0  0  0  0  0  0  0  0
   28.0588   14.7427   15.1460 H   0  0  0  0  0  0  0  0  0  0  0  0
   28.7638   17.2347   14.7204 H   0  0  0  0  0  0  0  0  0  0  0  0
   29.7207   17.1996   16.2402 H   0  0  0  0  0  0  0  0  0  0  0  0
   28.2799   16.4715   17.9061 H   0  0  0  0  0  0  0  0  0  0  0  0
   28.3870   15.5608   20.2056 H   0  0  0  0  0  0  0  0  0  0  0  0
   29.3034   13.2973   20.5851 H   0  0  0  0  0  0  0  0  0  0  0  0
   30.1459   11.9481   18.6953 H   0  0  0  0  0  0  0  0  0  0  0  0
   30.0419   12.8560   16.3931 H   0  0  0  0  0  0  0  0  0  0  0  0
   30.5132   14.4042   13.1338 H   0  0  0  0  0  0  0  0  0  0  0  0
   30.1131   15.9800   12.8763 H   0  0  0  0  0  0  0  0  0  0  0  0
   28.9552   14.8996   13.3254 H   0  0  0  0  0  0  0  0  0  0  0  0
  1  3  1  0  0  0  0
  1 10  1  0  0  0  0
  1 11  1  1  0  0  0
  2  1  1  0  0  0  0
  2  3  1  0  0  0  0
  2  4  1  0  0  0  0
  2 12  1  6  0  0  0
  3 13  1  0  0  0  0
  3 14  1  0  0  0  0
  4  5  2  0  0  0  0
  4  9  1  0  0  0  0
  5  6  1  0  0  0  0
  5 15  1  0  0  0  0
  6  7  2  0  0  0  0
  6 16  1  0  0  0  0
  7  8  1  0  0  0  0
  7 17  1  0  0  0  0
  8  9  2  0  0  0  0
  8 18  1  0  0  0  0
  9 19  1  0  0  0  0
 10 20  1  0  0  0  0
 10 21  1  0  0  0  0
 10 22  1  0  0  0  0
M  CHG  1  10   1
M  END
