1tpz_ligand
 OpenBabel08222323343D

 40 42  0  0  1  0  0  0  0  0999 V2000
    4.9510    5.5190   32.7040 P   0  0  0  0  0  0  0  0  0  0  0  0
    3.9220    4.5980   32.2290 O   0  0  0  0  0  1  0  0  0  0  0  0
    5.3360    5.3640   34.1410 O   0  0  0  0  0  1  0  0  0  0  0  0
    6.3090    5.4340   31.9970 O   0  0  0  0  0  0  0  0  0  0  0  0
    4.3510    7.1030   32.7110 O   0  0  0  0  0  0  0  0  0  0  0  0
    3.8330    7.8440   31.3630 P   0  0  1  0  0  0  0  0  0  0  0  0
    4.8610    8.9160   31.4290 O   0  0  0  0  0  1  0  0  0  0  0  0
    3.8560    7.1130   30.0680 O   0  0  0  0  0  0  0  0  0  0  0  0
    2.5000    8.4910   31.8890 O   0  0  0  0  0  0  0  0  0  0  0  0
    1.2420    7.8410   31.9920 C   0  0  0  0  0  0  0  0  0  0  0  0
    0.1670    8.8450   31.5110 C   0  0  1  0  0  0  0  0  0  0  0  0
   -0.0550   10.0170   32.3770 O   0  0  0  0  0  0  0  0  0  0  0  0
    0.4020    9.5530   30.1280 C   0  0  1  0  0  0  0  0  0  0  0  0
   -0.9380    9.6760   29.5610 O   0  0  0  0  0  0  0  0  0  0  0  0
    1.0120   10.9170   30.4740 C   0  0  1  0  0  0  0  0  0  0  0  0
    0.8130   11.9380   29.5040 O   0  0  0  0  0  0  0  0  0  0  0  0
    0.3910   11.2280   31.8040 C   0  0  2  0  0  0  0  0  0  0  0  0
    1.2990   11.9070   32.7980 N   0  0  0  0  0  0  0  0  0  0  0  0
    2.5650   11.6420   33.2630 C   0  0  0  0  0  0  0  0  0  0  0  0
    2.9830   12.5090   34.1400 N   0  0  0  0  0  0  0  0  0  0  0  0
    1.9450   13.4160   34.2840 C   0  0  0  0  0  0  0  0  0  0  0  0
    1.7760   14.6090   35.1020 C   0  0  0  0  0  0  0  0  0  0  0  0
    2.6000   15.0950   35.9060 O   0  0  0  0  0  0  0  0  0  0  0  0
    0.4910   15.2500   34.9140 N   0  0  0  0  0  0  0  0  0  0  0  0
   -0.5110   14.8020   34.0460 C   0  0  0  0  0  0  0  0  0  0  0  0
   -1.6280   15.5230   34.0060 N   0  0  0  0  0  0  0  0  0  0  0  0
   -0.3640   13.6790   33.2700 N   0  0  0  0  0  0  0  0  0  0  0  0
    0.8720   13.0640   33.4520 C   0  0  0  0  0  0  0  0  0  0  0  0
    1.0500    7.5551   33.0367 H   0  0  0  0  0  0  0  0  0  0  0  0
    1.2290    6.9425   31.3576 H   0  0  0  0  0  0  0  0  0  0  0  0
   -0.7676    8.2679   31.4512 H   0  0  0  0  0  0  0  0  0  0  0  0
    1.0657    8.9800   29.4639 H   0  0  0  0  0  0  0  0  0  0  0  0
   -0.8839   10.0999   28.7125 H   0  0  0  0  0  0  0  0  0  0  0  0
    2.0989   10.8011   30.5974 H   0  0  0  0  0  0  0  0  0  0  0  0
   -0.1183   12.0820   29.3840 H   0  0  0  0  0  0  0  0  0  0  0  0
   -0.4715   11.8876   31.6280 H   0  0  0  0  0  0  0  0  0  0  0  0
    3.1591   10.7918   32.9311 H   0  0  0  0  0  0  0  0  0  0  0  0
    0.3055   16.0765   35.4455 H   0  0  0  0  0  0  0  0  0  0  0  0
   -2.4006   15.2418   33.3855 H   0  0  0  0  0  0  0  0  0  0  0  0
   -1.7204   16.3626   34.5955 H   0  0  0  0  0  0  0  0  0  0  0  0
  1  2  1  0  0  0  0
  1  3  1  0  0  0  0
  1  4  2  0  0  0  0
  1  5  1  0  0  0  0
  5  6  1  0  0  0  0
  6  7  1  6  0  0  0
  6  8  2  0  0  0  0
  6  9  1  0  0  0  0
  9 10  1  0  0  0  0
 10 11  1  0  0  0  0
 10 29  1  0  0  0  0
 10 30  1  0  0  0  0
 11 12  1  0  0  0  0
 11 13  1  0  0  0  0
 11 31  1  6  0  0  0
 12 17  1  0  0  0  0
 13 14  1  0  0  0  0
 13 15  1  0  0  0  0
 13 32  1  6  0  0  0
 14 33  1  0  0  0  0
 15 16  1  0  0  0  0
 15 17  1  0  0  0  0
 15 34  1  1  0  0  0
 16 35  1  0  0  0  0
 17 18  1  0  0  0  0
 17 36  1  6  0  0  0
 18 19  1  0  0  0  0
 18 28  1  0  0  0  0
 19 20  2  0  0  0  0
 19 37  1  0  0  0  0
 20 21  1  0  0  0  0
 21 22  1  0  0  0  0
 21 28  2  0  0  0  0
 22 23  2  0  0  0  0
 22 24  1  0  0  0  0
 24 25  1  0  0  0  0
 24 38  1  0  0  0  0
 25 26  1  0  0  0  0
 25 27  2  0  0  0  0
 26 39  1  0  0  0  0
 26 40  1  0  0  0  0
 27 28  1  0  0  0  0
M  END
