1tsi_ligand
 OpenBabel08222323343D

 19 18  0  0  0  0  0  0  0  0999 V2000
   36.2570   30.8760   19.4530 C   0  0  0  0  0  0  0  0  0  0  0  0
   36.1360   31.1160   20.9330 C   0  0  0  0  0  0  0  0  0  0  0  0
   35.0510   30.1260   21.3560 C   0  0  0  0  0  0  0  0  0  0  0  0
   34.8020   29.9530   22.8710 C   0  0  0  0  0  0  0  0  0  0  0  0
   35.6270   31.7560   18.6790 N   0  0  0  0  0  0  0  0  0  0  0  0
   36.8980   29.9150   19.0440 O   0  0  0  0  0  0  0  0  0  0  0  0
   35.6400   31.7050   17.2760 O   0  0  0  0  0  0  0  0  0  0  0  0
   33.3350   28.9660   23.2360 P   0  0  0  0  0  0  0  0  0  0  0  0
   32.0700   29.8110   23.0370 O   0  0  0  0  0  1  0  0  0  0  0  0
   33.2020   27.7200   22.3420 O   0  0  0  0  0  1  0  0  0  0  0  0
   33.4560   28.5380   24.7080 O   0  0  0  0  0  0  0  0  0  0  0  0
   35.8290   32.1515   21.1415 H   0  0  0  0  0  0  0  0  0  0  0  0
   37.0855   30.9046   21.4465 H   0  0  0  0  0  0  0  0  0  0  0  0
   35.3267   29.1408   20.9518 H   0  0  0  0  0  0  0  0  0  0  0  0
   34.1057   30.4574   20.9015 H   0  0  0  0  0  0  0  0  0  0  0  0
   34.6757   30.9485   23.3215 H   0  0  0  0  0  0  0  0  0  0  0  0
   35.6775   29.4575   23.3159 H   0  0  0  0  0  0  0  0  0  0  0  0
   35.1165   32.4938   19.1206 H   0  0  0  0  0  0  0  0  0  0  0  0
   36.5354   31.7728   16.9661 H   0  0  0  0  0  0  0  0  0  0  0  0
  1  2  1  0  0  0  0
  1  5  1  0  0  0  0
  1  6  2  0  0  0  0
  2  3  1  0  0  0  0
  2 12  1  0  0  0  0
  2 13  1  0  0  0  0
  3  4  1  0  0  0  0
  3 14  1  0  0  0  0
  3 15  1  0  0  0  0
  4  8  1  0  0  0  0
  4 16  1  0  0  0  0
  4 17  1  0  0  0  0
  5  7  1  0  0  0  0
  5 18  1  0  0  0  0
  7 19  1  0  0  0  0
  8  9  1  0  0  0  0
  8 10  1  0  0  0  0
  8 11  2  0  0  0  0
M  END
