1tsm_ligand
 OpenBabel08222323343D

 46 50  0  0  0  0  0  0  0  0999 V2000
   19.1400   52.3650  -54.5110 C   0  0  0  0  0  0  0  0  0  0  0  0
   19.2490   51.3070  -53.6750 C   0  0  0  0  0  0  0  0  0  0  0  0
   19.1820   49.9760  -54.2220 C   0  0  0  0  0  0  0  0  0  0  0  0
   19.1520   48.8770  -53.3460 C   0  0  0  0  0  0  0  0  0  0  0  0
   19.2090   49.0770  -51.9510 C   0  0  0  0  0  0  0  0  0  0  0  0
   19.3070   50.4360  -51.4290 C   0  0  0  0  0  0  0  0  0  0  0  0
   19.2630   50.6410  -49.9950 C   0  0  0  0  0  0  0  0  0  0  0  0
   19.1980   52.0120  -49.4880 C   0  0  0  0  0  0  0  0  0  0  0  0
   19.2130   53.0780  -50.3440 C   0  0  0  0  0  0  0  0  0  0  0  0
   19.2950   52.8300  -51.8180 C   0  0  0  0  0  0  0  0  0  0  0  0
   19.3150   51.5100  -52.3070 C   0  0  0  0  0  0  0  0  0  0  0  0
   19.1620   53.9250  -52.7170 C   0  0  0  0  0  0  0  0  0  0  0  0
   17.9460   54.6200  -52.4750 C   0  0  0  0  0  0  0  0  0  0  0  0
   16.7900   53.9210  -51.9750 C   0  0  0  0  0  0  0  0  0  0  0  0
   15.6380   54.6100  -51.6260 C   0  0  0  0  0  0  0  0  0  0  0  0
   15.5790   55.9860  -51.8940 C   0  0  0  0  0  0  0  0  0  0  0  0
   16.6990   56.6870  -52.3590 C   0  0  0  0  0  0  0  0  0  0  0  0
   17.8610   56.0240  -52.6880 C   0  0  0  0  0  0  0  0  0  0  0  0
   20.2990   54.8550  -52.7160 C   0  0  0  0  0  0  0  0  0  0  0  0
   20.9020   55.2200  -53.9520 C   0  0  0  0  0  0  0  0  0  0  0  0
   21.9710   56.1140  -54.0190 C   0  0  0  0  0  0  0  0  0  0  0  0
   22.4350   56.7200  -52.8440 C   0  0  0  0  0  0  0  0  0  0  0  0
   21.7880   56.4720  -51.6250 C   0  0  0  0  0  0  0  0  0  0  0  0
   20.7650   55.5330  -51.5290 C   0  0  0  0  0  0  0  0  0  0  0  0
   19.2800   49.4160  -48.9600 N   0  0  0  0  0  0  0  0  0  0  0  0
   19.0840   53.5120  -54.1160 O   0  0  0  0  0  0  0  0  0  0  0  0
   19.1240   52.1170  -55.7070 O   0  0  0  0  0  0  0  0  0  0  0  0
   14.3100   56.6030  -51.8670 O   0  0  0  0  0  0  0  0  0  0  0  0
   23.6010   57.5340  -52.8860 O   0  0  0  0  0  0  0  0  0  0  0  0
   18.8190   49.6150  -47.8250 O   0  0  0  0  0  0  0  0  0  0  0  0
   19.7410   48.4290  -49.3730 O   0  0  0  0  0  0  0  0  0  0  0  0
   19.1551   49.8239  -55.2949 H   0  0  0  0  0  0  0  0  0  0  0  0
   19.0847   47.8711  -53.7445 H   0  0  0  0  0  0  0  0  0  0  0  0
   19.1803   48.2306  -51.2743 H   0  0  0  0  0  0  0  0  0  0  0  0
   19.1371   52.1848  -48.4196 H   0  0  0  0  0  0  0  0  0  0  0  0
   19.1661   54.0906  -49.9599 H   0  0  0  0  0  0  0  0  0  0  0  0
   16.8208   52.8425  -51.8701 H   0  0  0  0  0  0  0  0  0  0  0  0
   14.8046   54.0985  -51.1582 H   0  0  0  0  0  0  0  0  0  0  0  0
   16.6508   57.7651  -52.4613 H   0  0  0  0  0  0  0  0  0  0  0  0
   18.7018   56.5665  -53.1048 H   0  0  0  0  0  0  0  0  0  0  0  0
   20.5188   54.7900  -54.8703 H   0  0  0  0  0  0  0  0  0  0  0  0
   22.4382   56.3377  -54.9712 H   0  0  0  0  0  0  0  0  0  0  0  0
   22.0901   57.0218  -50.7409 H   0  0  0  0  0  0  0  0  0  0  0  0
   20.3193   55.3112  -50.5660 H   0  0  0  0  0  0  0  0  0  0  0  0
   13.6686   55.9907  -51.5260 H   0  0  0  0  0  0  0  0  0  0  0  0
   23.3924   58.4012  -52.5588 H   0  0  0  0  0  0  0  0  0  0  0  0
  1  2  1  0  0  0  0
  1 26  1  0  0  0  0
  1 27  2  0  0  0  0
  2  3  2  0  0  0  0
  2 11  1  0  0  0  0
  3  4  1  0  0  0  0
  3 32  1  0  0  0  0
  4  5  2  0  0  0  0
  4 33  1  0  0  0  0
  5  6  1  0  0  0  0
  5 34  1  0  0  0  0
  6  7  2  0  0  0  0
  6 11  1  0  0  0  0
  7  8  1  0  0  0  0
  7 25  1  0  0  0  0
  8  9  2  0  0  0  0
  8 35  1  0  0  0  0
  9 10  1  0  0  0  0
  9 36  1  0  0  0  0
 10 11  2  0  0  0  0
 10 12  1  0  0  0  0
 12 13  1  0  0  0  0
 12 19  1  0  0  0  0
 12 26  1  0  0  0  0
 13 14  2  0  0  0  0
 13 18  1  0  0  0  0
 14 15  1  0  0  0  0
 14 37  1  0  0  0  0
 15 16  2  0  0  0  0
 15 38  1  0  0  0  0
 16 17  1  0  0  0  0
 16 28  1  0  0  0  0
 17 18  2  0  0  0  0
 17 39  1  0  0  0  0
 18 40  1  0  0  0  0
 19 20  2  0  0  0  0
 19 24  1  0  0  0  0
 20 21  1  0  0  0  0
 20 41  1  0  0  0  0
 21 22  2  0  0  0  0
 21 42  1  0  0  0  0
 22 23  1  0  0  0  0
 22 29  1  0  0  0  0
 23 24  2  0  0  0  0
 23 43  1  0  0  0  0
 24 44  1  0  0  0  0
 25 30  2  0  0  0  0
 25 31  2  0  0  0  0
 28 45  1  0  0  0  0
 29 46  1  0  0  0  0
M  END
