1tt1_ligand
 OpenBabel08222323343D

 29 29  0  0  1  0  0  0  0  0999 V2000
    2.1690    0.5040   24.1980 N   0  3  0  0  0  0  0  0  0  0  0  0
    0.8890    0.0040   24.8850 C   0  0  0  0  0  0  0  0  0  0  0  0
   -0.9750   -0.0870   27.1820 C   0  0  0  0  0  0  0  0  0  0  0  0
    0.7020   -0.2880   28.9520 C   0  0  0  0  0  0  0  0  0  0  0  0
    3.1870    0.7010   25.2160 C   0  0  1  0  0  0  0  0  0  0  0  0
    2.4360    0.9210   26.5050 C   0  0  1  0  0  0  0  0  0  0  0  0
    1.8050    2.3820   26.7350 C   0  0  0  0  0  0  0  0  0  0  0  0
    1.3620   -0.1190   26.4070 C   0  0  1  0  0  0  0  0  0  0  0  0
    2.8530    3.3780   27.2490 C   0  0  0  0  0  0  0  0  0  0  0  0
    0.2610   -0.1620   27.5430 C   0  0  0  0  0  0  0  0  0  0  0  0
    4.2550   -0.4590   25.2630 C   0  0  0  0  0  0  0  0  0  0  0  0
    4.3490   -1.1400   24.2180 O   0  5  0  0  0  0  0  0  0  0  0  0
    2.4780    4.5590   27.2590 O   0  5  0  0  0  0  0  0  0  0  0  0
    3.9750    2.9610   27.6130 O   0  0  0  0  0  0  0  0  0  0  0  0
    4.9320   -0.5650   26.3310 O   0  0  0  0  0  0  0  0  0  0  0  0
    1.9847    1.3761   23.7273 H   0  0  0  0  0  0  0  0  0  0  0  0
    2.4852   -0.1793   23.5278 H   0  0  0  0  0  0  0  0  0  0  0  0
    0.5734   -0.9703   24.4837 H   0  0  0  0  0  0  0  0  0  0  0  0
    0.0679    0.7281   24.7780 H   0  0  0  0  0  0  0  0  0  0  0  0
   -1.7639   -0.1130   27.9322 H   0  0  0  0  0  0  0  0  0  0  0  0
   -1.2296    0.0023   26.1270 H   0  0  0  0  0  0  0  0  0  0  0  0
   -0.1781   -0.3033   29.6117 H   0  0  0  0  0  0  0  0  0  0  0  0
    1.3417    0.5677   29.2139 H   0  0  0  0  0  0  0  0  0  0  0  0
    1.2697   -1.2219   29.0764 H   0  0  0  0  0  0  0  0  0  0  0  0
    3.7372    1.6240   24.9809 H   0  0  0  0  0  0  0  0  0  0  0  0
    3.1016    0.7098   27.3549 H   0  0  0  0  0  0  0  0  0  0  0  0
    0.9923    2.3073   27.4725 H   0  0  0  0  0  0  0  0  0  0  0  0
    1.4012    2.7503   25.7804 H   0  0  0  0  0  0  0  0  0  0  0  0
    1.8626   -1.0942   26.4981 H   0  0  0  0  0  0  0  0  0  0  0  0
  1 16  1  0  0  0  0
  1 17  1  0  0  0  0
  2  1  1  0  0  0  0
  2 18  1  0  0  0  0
  2 19  1  0  0  0  0
  3 20  1  0  0  0  0
  3 21  1  0  0  0  0
  4 22  1  0  0  0  0
  4 23  1  0  0  0  0
  4 24  1  0  0  0  0
  5  1  1  0  0  0  0
  5 11  1  0  0  0  0
  5 25  1  6  0  0  0
  6  5  1  0  0  0  0
  6  7  1  0  0  0  0
  6 26  1  1  0  0  0
  7  9  1  0  0  0  0
  7 27  1  0  0  0  0
  7 28  1  0  0  0  0
  8  2  1  0  0  0  0
  8  6  1  0  0  0  0
  8 10  1  0  0  0  0
  8 29  1  1  0  0  0
  9 13  1  0  0  0  0
  9 14  2  0  0  0  0
 10  3  2  0  0  0  0
 10  4  1  0  0  0  0
 11 12  1  0  0  0  0
 11 15  2  0  0  0  0
M  CHG  3   1   1  12  -1  13  -1
M  END
