1tyr_ligand
 OpenBabel08222323343D

 49 49  0  0  0  0  0  0  0  0999 V2000
   21.1250   44.8670   56.3000 C   0  0  0  0  0  0  0  0  0  0  0  0
   21.0640   44.8520   54.7650 C   0  0  0  0  0  0  0  0  0  0  0  0
   21.8290   43.8200   54.1250 C   0  0  0  0  0  0  0  0  0  0  0  0
   21.3650   42.4230   54.4980 C   0  0  0  0  0  0  0  0  0  0  0  0
   21.2650   42.2620   55.9990 C   0  0  0  0  0  0  0  0  0  0  0  0
   21.1480   43.3550   56.8520 C   0  0  0  0  0  0  0  0  0  0  0  0
   20.8830   43.2370   58.3190 C   0  0  0  0  0  0  0  0  0  0  0  0
   21.8190   42.8930   59.4220 C   0  0  0  0  0  0  0  0  0  0  0  0
   21.6130   42.7170   60.8320 C   0  0  0  0  0  0  0  0  0  0  0  0
   22.7110   42.3640   61.5560 C   0  0  0  0  0  0  0  0  0  0  0  0
   22.7780   42.0890   62.9770 C   0  0  0  0  0  0  0  0  0  0  0  0
   23.9030   41.6130   63.5760 C   0  0  0  0  0  0  0  0  0  0  0  0
   25.1260   41.2590   62.8690 C   0  0  0  0  0  0  0  0  0  0  0  0
   26.1860   40.7930   63.5780 C   0  0  0  0  0  0  0  0  0  0  0  0
   26.9420   41.6530   64.4760 C   0  0  0  0  0  0  0  0  0  0  0  0
   19.8900   45.6480   56.8120 C   0  0  0  0  0  0  0  0  0  0  0  0
   22.3920   45.6070   56.7440 C   0  0  0  0  0  0  0  0  0  0  0  0
   21.4330   40.7950   56.4030 C   0  0  0  0  0  0  0  0  0  0  0  0
   20.1770   42.8650   61.3760 C   0  0  0  0  0  0  0  0  0  0  0  0
   25.0830   41.2160   61.2950 C   0  0  0  0  0  0  0  0  0  0  0  0
   26.6160   41.8320   65.8480 O   0  5  0  0  0  0  0  0  0  0  0  0
   28.0260   42.5200   64.5280 O   0  0  0  0  0  0  0  0  0  0  0  0
   21.4339   45.8222   54.4019 H   0  0  0  0  0  0  0  0  0  0  0  0
   20.0120   44.7265   54.4691 H   0  0  0  0  0  0  0  0  0  0  0  0
   22.8830   43.9302   54.4200 H   0  0  0  0  0  0  0  0  0  0  0  0
   21.7386   43.9406   53.0354 H   0  0  0  0  0  0  0  0  0  0  0  0
   22.0845   41.6893   54.1057 H   0  0  0  0  0  0  0  0  0  0  0  0
   20.3763   42.2421   54.0512 H   0  0  0  0  0  0  0  0  0  0  0  0
   19.8557   43.4311   58.6237 H   0  0  0  0  0  0  0  0  0  0  0  0
   22.8497   42.7480   59.1016 H   0  0  0  0  0  0  0  0  0  0  0  0
   23.6457   42.2786   61.0038 H   0  0  0  0  0  0  0  0  0  0  0  0
   21.8951   42.2700   63.5883 H   0  0  0  0  0  0  0  0  0  0  0  0
   23.8879   41.4882   64.6577 H   0  0  0  0  0  0  0  0  0  0  0  0
   26.4778   39.7492   63.4720 H   0  0  0  0  0  0  0  0  0  0  0  0
   19.9044   45.6768   57.9115 H   0  0  0  0  0  0  0  0  0  0  0  0
   18.9720   45.1474   56.4704 H   0  0  0  0  0  0  0  0  0  0  0  0
   19.9161   46.6747   56.4179 H   0  0  0  0  0  0  0  0  0  0  0  0
   23.2787   45.0627   56.3868 H   0  0  0  0  0  0  0  0  0  0  0  0
   22.4161   45.6665   57.8421 H   0  0  0  0  0  0  0  0  0  0  0  0
   22.3905   46.6227   56.3217 H   0  0  0  0  0  0  0  0  0  0  0  0
   21.3564   40.7048   57.4966 H   0  0  0  0  0  0  0  0  0  0  0  0
   22.4186   40.4345   56.0735 H   0  0  0  0  0  0  0  0  0  0  0  0
   20.6447   40.1916   55.9293 H   0  0  0  0  0  0  0  0  0  0  0  0
   19.5036   43.1602   60.5578 H   0  0  0  0  0  0  0  0  0  0  0  0
   20.1598   43.6354   62.1610 H   0  0  0  0  0  0  0  0  0  0  0  0
   19.8436   41.9050   61.7970 H   0  0  0  0  0  0  0  0  0  0  0  0
   24.1334   41.6448   60.9423 H   0  0  0  0  0  0  0  0  0  0  0  0
   25.1633   40.1732   60.9543 H   0  0  0  0  0  0  0  0  0  0  0  0
   25.9221   41.8000   60.8891 H   0  0  0  0  0  0  0  0  0  0  0  0
  1  2  1  0  0  0  0
  1  6  1  0  0  0  0
  1 16  1  0  0  0  0
  1 17  1  0  0  0  0
  2  3  1  0  0  0  0
  2 23  1  0  0  0  0
  2 24  1  0  0  0  0
  3  4  1  0  0  0  0
  3 25  1  0  0  0  0
  3 26  1  0  0  0  0
  4  5  1  0  0  0  0
  4 27  1  0  0  0  0
  4 28  1  0  0  0  0
  5  6  2  0  0  0  0
  5 18  1  0  0  0  0
  6  7  1  0  0  0  0
  7  8  2  0  0  0  0
  7 29  1  0  0  0  0
  8  9  1  0  0  0  0
  8 30  1  0  0  0  0
  9 10  2  0  0  0  0
  9 19  1  0  0  0  0
 10 11  1  0  0  0  0
 10 31  1  0  0  0  0
 11 12  2  0  0  0  0
 11 32  1  0  0  0  0
 12 13  1  0  0  0  0
 12 33  1  0  0  0  0
 13 14  2  0  0  0  0
 13 20  1  0  0  0  0
 14 15  1  0  0  0  0
 14 34  1  0  0  0  0
 15 21  1  0  0  0  0
 15 22  2  0  0  0  0
 16 35  1  0  0  0  0
 16 36  1  0  0  0  0
 16 37  1  0  0  0  0
 17 38  1  0  0  0  0
 17 39  1  0  0  0  0
 17 40  1  0  0  0  0
 18 41  1  0  0  0  0
 18 42  1  0  0  0  0
 18 43  1  0  0  0  0
 19 44  1  0  0  0  0
 19 45  1  0  0  0  0
 19 46  1  0  0  0  0
 20 47  1  0  0  0  0
 20 48  1  0  0  0  0
 20 49  1  0  0  0  0
M  CHG  1  21  -1
M  END
