1u9q_ligand
 OpenBabel08222323343D

 54 55  0  0  1  0  0  0  0  0999 V2000
    0.4750   13.3590    5.6950 O   0  0  0  0  0  0  0  0  0  0  0  0
    0.9950   12.3210    5.3570 C   0  0  0  0  0  0  0  0  0  0  0  0
    0.9730   12.0230    3.9440 O   0  0  0  0  0  0  0  0  0  0  0  0
    0.5600   13.1480    3.1000 C   0  0  0  0  0  0  0  0  0  0  0  0
    0.6860   12.9310    1.6070 C   0  0  0  0  0  0  0  0  0  0  0  0
   -0.3500   12.3090    0.8840 C   0  0  0  0  0  0  0  0  0  0  0  0
   -0.1760   12.0660   -0.4760 C   0  0  0  0  0  0  0  0  0  0  0  0
    1.0220   12.4600   -1.0970 C   0  0  0  0  0  0  0  0  0  0  0  0
    2.0620   13.0820   -0.4130 C   0  0  0  0  0  0  0  0  0  0  0  0
    1.8620   13.3130    0.9520 C   0  0  0  0  0  0  0  0  0  0  0  0
    1.4450   11.6290    6.3750 N   0  0  0  0  0  0  0  0  0  0  0  0
    2.1900   10.4510    6.4240 C   0  0  2  0  0  0  0  0  0  0  0  0
    1.6550    9.5380    7.5260 C   0  0  0  0  0  0  0  0  0  0  0  0
    0.4820    8.7330    6.9740 C   0  0  0  0  0  0  0  0  0  0  0  0
    0.7060    7.6150    6.1920 C   0  0  0  0  0  0  0  0  0  0  0  0
   -0.3850    6.9020    5.7020 C   0  0  0  0  0  0  0  0  0  0  0  0
   -1.6930    7.3010    5.9750 C   0  0  0  0  0  0  0  0  0  0  0  0
   -1.9320    8.4270    6.7550 C   0  0  0  0  0  0  0  0  0  0  0  0
   -0.8330    9.1340    7.2520 C   0  0  0  0  0  0  0  0  0  0  0  0
    3.4900   11.0810    6.7950 C   0  0  0  0  0  0  0  0  0  0  0  0
    4.3300   11.2030    5.9300 O   0  0  0  0  0  0  0  0  0  0  0  0
    3.7000   11.5520    8.0020 N   0  0  0  0  0  0  0  0  0  0  0  0
    5.0470   12.1390    8.2600 C   0  0  1  0  0  0  0  0  0  0  0  0
    4.9760   13.6750    8.4460 C   0  0  0  0  0  0  0  0  0  0  0  0
    5.7550   11.4910    9.4630 C   0  0  0  0  0  0  0  0  0  0  0  0
    5.8110   12.3330   10.4850 C   0  0  0  0  0  0  0  0  0  0  0  0
    6.3540   12.2420   11.8320 C   0  0  0  0  0  0  0  0  0  0  0  0
    7.4730   11.8350   12.0670 O   0  0  0  0  0  0  0  0  0  0  0  0
    5.4820   12.7690   12.8930 C   0  0  0  0  0  0  0  0  0  0  0  0
    5.5430   12.2720   13.9960 O   0  0  0  0  0  0  0  0  0  0  0  0
    1.1791   14.0167    3.3684 H   0  0  0  0  0  0  0  0  0  0  0  0
   -0.4949   13.3670    3.3216 H   0  0  0  0  0  0  0  0  0  0  0  0
   -1.2707   12.0232    1.3796 H   0  0  0  0  0  0  0  0  0  0  0  0
   -0.9559   11.5783   -1.0496 H   0  0  0  0  0  0  0  0  0  0  0  0
    1.1411   12.2705   -2.1576 H   0  0  0  0  0  0  0  0  0  0  0  0
    2.9794   13.3724   -0.9120 H   0  0  0  0  0  0  0  0  0  0  0  0
    2.6434   13.8039    1.5208 H   0  0  0  0  0  0  0  0  0  0  0  0
    1.2147   12.0111    7.2700 H   0  0  0  0  0  0  0  0  0  0  0  0
    2.2288    9.9147    5.4644 H   0  0  0  0  0  0  0  0  0  0  0  0
    1.3171   10.1462    8.3780 H   0  0  0  0  0  0  0  0  0  0  0  0
    2.4498    8.8532    7.8566 H   0  0  0  0  0  0  0  0  0  0  0  0
    1.7171    7.2979    5.9635 H   0  0  0  0  0  0  0  0  0  0  0  0
   -0.2142    6.0193    5.0964 H   0  0  0  0  0  0  0  0  0  0  0  0
   -2.5257    6.7318    5.5780 H   0  0  0  0  0  0  0  0  0  0  0  0
   -2.9443    8.7483    6.9721 H   0  0  0  0  0  0  0  0  0  0  0  0
   -1.0009   10.0116    7.8658 H   0  0  0  0  0  0  0  0  0  0  0  0
    2.9950   11.5191    8.7105 H   0  0  0  0  0  0  0  0  0  0  0  0
    5.6623   11.9401    7.3702 H   0  0  0  0  0  0  0  0  0  0  0  0
    5.9859   14.0687    8.6335 H   0  0  0  0  0  0  0  0  0  0  0  0
    4.3258   13.9111    9.3012 H   0  0  0  0  0  0  0  0  0  0  0  0
    4.5660   14.1361    7.5354 H   0  0  0  0  0  0  0  0  0  0  0  0
    6.1555   10.4784    9.4732 H   0  0  0  0  0  0  0  0  0  0  0  0
    5.3535   13.2979   10.2713 H   0  0  0  0  0  0  0  0  0  0  0  0
    4.7953   13.5896   12.6909 H   0  0  0  0  0  0  0  0  0  0  0  0
  1  2  2  0  0  0  0
  2  3  1  0  0  0  0
  2 11  1  0  0  0  0
  3  4  1  0  0  0  0
  4  5  1  0  0  0  0
  4 31  1  0  0  0  0
  4 32  1  0  0  0  0
  5  6  2  0  0  0  0
  5 10  1  0  0  0  0
  6  7  1  0  0  0  0
  6 33  1  0  0  0  0
  7  8  2  0  0  0  0
  7 34  1  0  0  0  0
  8  9  1  0  0  0  0
  8 35  1  0  0  0  0
  9 10  2  0  0  0  0
  9 36  1  0  0  0  0
 10 37  1  0  0  0  0
 11 12  1  0  0  0  0
 11 38  1  0  0  0  0
 12 13  1  0  0  0  0
 12 20  1  0  0  0  0
 12 39  1  6  0  0  0
 13 14  1  0  0  0  0
 13 40  1  0  0  0  0
 13 41  1  0  0  0  0
 14 15  2  0  0  0  0
 14 19  1  0  0  0  0
 15 16  1  0  0  0  0
 15 42  1  0  0  0  0
 16 17  2  0  0  0  0
 16 43  1  0  0  0  0
 17 18  1  0  0  0  0
 17 44  1  0  0  0  0
 18 19  2  0  0  0  0
 18 45  1  0  0  0  0
 19 46  1  0  0  0  0
 20 21  2  0  0  0  0
 20 22  1  0  0  0  0
 22 23  1  0  0  0  0
 22 47  1  0  0  0  0
 23 24  1  0  0  0  0
 23 25  1  0  0  0  0
 23 48  1  6  0  0  0
 24 49  1  0  0  0  0
 24 50  1  0  0  0  0
 24 51  1  0  0  0  0
 25 26  2  0  0  0  0
 25 52  1  0  0  0  0
 26 27  1  0  0  0  0
 26 53  1  0  0  0  0
 27 28  2  0  0  0  0
 27 29  1  0  0  0  0
 29 30  2  0  0  0  0
 29 54  1  0  0  0  0
M  END
