1u9x_ligand
 OpenBabel08222323343D

 70 74  0  0  1  0  0  0  0  0999 V2000
   63.2290   13.4970   -7.7640 N   0  0  0  0  0  0  0  0  0  0  0  0
   62.6390   12.3060   -8.1040 C   0  0  0  0  0  0  0  0  0  0  0  0
   61.4130   12.1700   -7.5960 N   0  0  0  0  0  0  0  0  0  0  0  0
   61.2040   15.7950   -5.6250 C   0  0  0  0  0  0  0  0  0  0  0  0
   62.3160   15.4290   -6.3430 N   0  0  0  0  0  0  0  0  0  0  0  0
   62.2680   14.1790   -6.9610 C   0  0  0  0  0  0  0  0  0  0  0  0
   61.2100   13.3480   -6.8880 C   0  0  0  0  0  0  0  0  0  0  0  0
   60.1310   13.7440   -6.1630 C   0  0  0  0  0  0  0  0  0  0  0  0
   60.1280   14.9810   -5.5250 N   0  0  0  0  0  0  0  0  0  0  0  0
   59.0830   12.8210   -6.1380 N   0  0  0  0  0  0  0  0  0  0  0  0
   62.1080   17.8940   -5.0030 N   0  0  0  0  0  0  0  0  0  0  0  0
   64.5490   14.0270   -8.1150 C   0  0  0  0  0  0  0  0  0  0  0  0
   64.6450   14.4460   -9.5750 C   0  0  0  0  0  0  0  0  0  0  0  0
   66.1410   14.3860   -9.8380 C   0  0  0  0  0  0  0  0  0  0  0  0
   66.5320   13.0670   -9.1810 C   0  0  0  0  0  0  0  0  0  0  0  0
   65.6930   13.0210   -7.8950 C   0  0  0  0  0  0  0  0  0  0  0  0
   57.9450   12.8490   -5.3170 C   0  0  0  0  0  0  0  0  0  0  0  0
   57.1360   14.0340   -5.1660 C   0  0  0  0  0  0  0  0  0  0  0  0
   55.9820   14.0200   -4.3210 C   0  0  0  0  0  0  0  0  0  0  0  0
   55.6210   12.8280   -3.6200 C   0  0  0  0  0  0  0  0  0  0  0  0
   56.4150   11.6500   -3.7630 C   0  0  0  0  0  0  0  0  0  0  0  0
   57.5870   11.6440   -4.6110 C   0  0  0  0  0  0  0  0  0  0  0  0
   58.3990   10.5370   -4.7910 O   0  0  0  0  0  0  0  0  0  0  0  0
   58.8220    9.7400   -3.6660 C   0  0  0  0  0  0  0  0  0  0  0  0
   59.6390    8.5610   -4.1950 C   0  0  0  0  0  0  0  0  0  0  0  0
   60.8890    9.0090   -4.9680 C   0  0  0  0  0  0  0  0  0  0  0  0
   61.6650    7.8540   -5.4760 N   0  3  1  0  0  0  0  0  0  0  0  0
   61.7120    7.7020   -6.9650 C   0  0  0  0  0  0  0  0  0  0  0  0
   62.3730    6.3640   -7.3700 C   0  0  0  0  0  0  0  0  0  0  0  0
   63.7490    6.2760   -6.7880 N   0  3  1  0  0  0  0  0  0  0  0  0
   63.7250    6.4160   -5.2940 C   0  0  0  0  0  0  0  0  0  0  0  0
   63.0520    7.7540   -4.8960 C   0  0  0  0  0  0  0  0  0  0  0  0
   64.3850    4.9880   -7.1690 C   0  0  0  0  0  0  0  0  0  0  0  0
   61.1410   17.0940   -4.9380 C   0  0  0  0  0  0  0  0  0  0  0  0
   63.1208   11.5510   -8.7235 H   0  0  0  0  0  0  0  0  0  0  0  0
   59.1532   12.0314   -6.7957 H   0  0  0  0  0  0  0  0  0  0  0  0
   62.0594   18.7829   -4.5302 H   0  0  0  0  0  0  0  0  0  0  0  0
   64.7274   14.9075   -7.4803 H   0  0  0  0  0  0  0  0  0  0  0  0
   64.2562   15.4644   -9.7225 H   0  0  0  0  0  0  0  0  0  0  0  0
   64.0989   13.7472  -10.2257 H   0  0  0  0  0  0  0  0  0  0  0  0
   66.6623   15.2342   -9.3703 H   0  0  0  0  0  0  0  0  0  0  0  0
   66.3559   14.3731  -10.9167 H   0  0  0  0  0  0  0  0  0  0  0  0
   67.6065   13.0520   -8.9461 H   0  0  0  0  0  0  0  0  0  0  0  0
   66.2880   12.2178   -9.8361 H   0  0  0  0  0  0  0  0  0  0  0  0
   65.2905   12.0100   -7.7345 H   0  0  0  0  0  0  0  0  0  0  0  0
   66.3023   13.3151   -7.0277 H   0  0  0  0  0  0  0  0  0  0  0  0
   57.4044   14.9406   -5.6962 H   0  0  0  0  0  0  0  0  0  0  0  0
   55.3802   14.9150   -4.2121 H   0  0  0  0  0  0  0  0  0  0  0  0
   54.7457   12.8183   -2.9807 H   0  0  0  0  0  0  0  0  0  0  0  0
   56.1360   10.7486   -3.2293 H   0  0  0  0  0  0  0  0  0  0  0  0
   57.9417    9.3682   -3.1213 H   0  0  0  0  0  0  0  0  0  0  0  0
   59.4411   10.3486   -2.9905 H   0  0  0  0  0  0  0  0  0  0  0  0
   59.0038    7.9652   -4.8670 H   0  0  0  0  0  0  0  0  0  0  0  0
   59.9548    7.9406   -3.3433 H   0  0  0  0  0  0  0  0  0  0  0  0
   61.5293    9.6008   -4.2974 H   0  0  0  0  0  0  0  0  0  0  0  0
   60.5769    9.6307   -5.8201 H   0  0  0  0  0  0  0  0  0  0  0  0
   61.1680    7.0439   -5.1403 H   0  0  0  0  0  0  0  0  0  0  0  0
   62.2926    8.5328   -7.3923 H   0  0  0  0  0  0  0  0  0  0  0  0
   60.6862    7.7297   -7.3611 H   0  0  0  0  0  0  0  0  0  0  0  0
   62.4370    6.3066   -8.4666 H   0  0  0  0  0  0  0  0  0  0  0  0
   61.7644    5.5285   -6.9939 H   0  0  0  0  0  0  0  0  0  0  0  0
   64.3005    7.0299   -7.1669 H   0  0  0  0  0  0  0  0  0  0  0  0
   64.7557    6.3988   -4.9102 H   0  0  0  0  0  0  0  0  0  0  0  0
   63.1578    5.5799   -4.8591 H   0  0  0  0  0  0  0  0  0  0  0  0
   62.9885    7.8125   -3.7994 H   0  0  0  0  0  0  0  0  0  0  0  0
   63.6607    8.5890   -5.2731 H   0  0  0  0  0  0  0  0  0  0  0  0
   64.3975    4.8954   -8.2650 H   0  0  0  0  0  0  0  0  0  0  0  0
   63.8120    4.1542   -6.7371 H   0  0  0  0  0  0  0  0  0  0  0  0
   65.4162    4.9611   -6.7870 H   0  0  0  0  0  0  0  0  0  0  0  0
   60.2519   17.3639   -4.3701 H   0  0  0  0  0  0  0  0  0  0  0  0
  1  2  1  0  0  0  0
  1 12  1  0  0  0  0
  2  3  2  0  0  0  0
  2 35  1  0  0  0  0
  3  7  1  0  0  0  0
  4  9  1  0  0  0  0
  4 34  1  0  0  0  0
  5  4  2  0  0  0  0
  5  6  1  0  0  0  0
  6  1  1  0  0  0  0
  6  7  2  0  0  0  0
  7  8  1  0  0  0  0
  8  9  2  0  0  0  0
  8 10  1  0  0  0  0
 10 17  1  0  0  0  0
 10 36  1  0  0  0  0
 11 37  1  0  0  0  0
 12 13  1  0  0  0  0
 12 16  1  0  0  0  0
 12 38  1  0  0  0  0
 13 14  1  0  0  0  0
 13 39  1  0  0  0  0
 13 40  1  0  0  0  0
 14 15  1  0  0  0  0
 14 41  1  0  0  0  0
 14 42  1  0  0  0  0
 15 16  1  0  0  0  0
 15 43  1  0  0  0  0
 15 44  1  0  0  0  0
 16 45  1  0  0  0  0
 16 46  1  0  0  0  0
 17 18  2  0  0  0  0
 17 22  1  0  0  0  0
 18 19  1  0  0  0  0
 18 47  1  0  0  0  0
 19 20  2  0  0  0  0
 19 48  1  0  0  0  0
 20 21  1  0  0  0  0
 20 49  1  0  0  0  0
 21 22  2  0  0  0  0
 21 50  1  0  0  0  0
 22 23  1  0  0  0  0
 23 24  1  0  0  0  0
 24 25  1  0  0  0  0
 24 51  1  0  0  0  0
 24 52  1  0  0  0  0
 25 26  1  0  0  0  0
 25 53  1  0  0  0  0
 25 54  1  0  0  0  0
 26 27  1  0  0  0  0
 26 55  1  0  0  0  0
 26 56  1  0  0  0  0
 27 28  1  0  0  0  0
 27 32  1  0  0  0  0
 27 57  1  1  0  0  0
 28 29  1  0  0  0  0
 28 58  1  0  0  0  0
 28 59  1  0  0  0  0
 29 30  1  0  0  0  0
 29 60  1  0  0  0  0
 29 61  1  0  0  0  0
 30 31  1  0  0  0  0
 30 33  1  0  0  0  0
 30 62  1  6  0  0  0
 31 32  1  0  0  0  0
 31 63  1  0  0  0  0
 31 64  1  0  0  0  0
 32 65  1  0  0  0  0
 32 66  1  0  0  0  0
 33 67  1  0  0  0  0
 33 68  1  0  0  0  0
 33 69  1  0  0  0  0
 34 11  2  0  0  0  0
 34 70  1  0  0  0  0
M  CHG  2  27   1  30   1
M  END
