1udu_ligand
 OpenBabel08222323343D

 48 53  0  0  1  0  0  0  0  0999 V2000
   24.4350   39.2430  103.9130 C   0  0  0  0  0  0  0  0  0  0  0  0
   24.1360   38.3240  102.8310 C   0  0  0  0  0  0  0  0  0  0  0  0
   22.7830   38.0950  102.3810 C   0  0  0  0  0  0  0  0  0  0  0  0
   21.6780   38.8160  103.0450 C   0  0  0  0  0  0  0  0  0  0  0  0
   20.2650   38.8320  102.8660 C   0  0  0  0  0  0  0  0  0  0  0  0
   19.7770   39.7580  103.8580 C   0  0  0  0  0  0  0  0  0  0  0  0
   20.8310   40.3200  104.6440 N   0  0  0  0  0  0  0  0  0  0  0  0
   21.9880   39.7480  104.1500 C   0  0  0  0  0  0  0  0  0  0  0  0
   23.3840   39.9550  104.5770 C   0  0  0  0  0  0  0  0  0  0  0  0
   18.2200   40.0760  104.0230 C   0  0  2  0  0  0  0  0  0  0  0  0
   17.2740   38.9820  103.3870 N   0  0  0  0  0  0  0  0  0  0  0  0
   15.8670   39.0930  103.4970 C   0  0  0  0  0  0  0  0  0  0  0  0
   15.2510   40.0230  104.0710 O   0  0  0  0  0  0  0  0  0  0  0  0
   14.9650   37.9990  102.9000 C   0  0  0  0  0  0  0  0  0  0  0  0
   15.5520   37.1460  101.8010 N   0  0  0  0  0  0  0  0  0  0  0  0
   16.9480   37.0020  101.6110 C   0  0  0  0  0  0  0  0  0  0  0  0
   17.4320   36.2930  100.6780 O   0  0  0  0  0  0  0  0  0  0  0  0
   17.9280   37.7580  102.6480 C   0  0  1  0  0  0  0  0  0  0  0  0
   19.2610   38.1050  101.8980 C   0  0  0  0  0  0  0  0  0  0  0  0
   14.5570   36.4650  100.9360 C   0  0  0  0  0  0  0  0  0  0  0  0
   18.0370   41.5720  103.4140 C   0  0  0  0  0  0  0  0  0  0  0  0
   17.2470   42.5530  104.1340 C   0  0  0  0  0  0  0  0  0  0  0  0
   17.0790   43.8830  103.6150 C   0  0  0  0  0  0  0  0  0  0  0  0
   17.7210   44.2480  102.3330 C   0  0  0  0  0  0  0  0  0  0  0  0
   17.6890   45.4370  101.6740 O   0  0  0  0  0  0  0  0  0  0  0  0
   18.4970   45.1810  100.4870 C   0  0  0  0  0  0  0  0  0  0  0  0
   18.9980   43.8120  100.4840 O   0  0  0  0  0  0  0  0  0  0  0  0
   18.4950   43.2940  101.6250 C   0  0  0  0  0  0  0  0  0  0  0  0
   18.6630   41.9880  102.1300 C   0  0  0  0  0  0  0  0  0  0  0  0
   25.4633   39.3923  104.2219 H   0  0  0  0  0  0  0  0  0  0  0  0
   24.9496   37.7953  102.3476 H   0  0  0  0  0  0  0  0  0  0  0  0
   22.5817   37.4053  101.5693 H   0  0  0  0  0  0  0  0  0  0  0  0
   20.7464   41.0023  105.4110 H   0  0  0  0  0  0  0  0  0  0  0  0
   23.6129   40.6395  105.3858 H   0  0  0  0  0  0  0  0  0  0  0  0
   17.9827   40.1091  105.0966 H   0  0  0  0  0  0  0  0  0  0  0  0
   14.0701   38.4929  102.4936 H   0  0  0  0  0  0  0  0  0  0  0  0
   14.6724   37.3270  103.7202 H   0  0  0  0  0  0  0  0  0  0  0  0
   18.1812   37.0330  103.4356 H   0  0  0  0  0  0  0  0  0  0  0  0
   19.7214   37.1763  101.5299 H   0  0  0  0  0  0  0  0  0  0  0  0
   19.0363   38.7651  101.0473 H   0  0  0  0  0  0  0  0  0  0  0  0
   15.0806   35.8723  100.1714 H   0  0  0  0  0  0  0  0  0  0  0  0
   13.9218   37.2172  100.4454 H   0  0  0  0  0  0  0  0  0  0  0  0
   13.9311   35.8006  101.5499 H   0  0  0  0  0  0  0  0  0  0  0  0
   16.7787   42.2803  105.0728 H   0  0  0  0  0  0  0  0  0  0  0  0
   16.4876   44.6115  104.1577 H   0  0  0  0  0  0  0  0  0  0  0  0
   19.3492   45.8764  100.4746 H   0  0  0  0  0  0  0  0  0  0  0  0
   17.8803   45.3407   99.5902 H   0  0  0  0  0  0  0  0  0  0  0  0
   19.2590   41.2744  101.5726 H   0  0  0  0  0  0  0  0  0  0  0  0
  1  2  2  0  0  0  0
  1  9  1  0  0  0  0
  1 30  1  0  0  0  0
  2  3  1  0  0  0  0
  2 31  1  0  0  0  0
  3  4  2  0  0  0  0
  3 32  1  0  0  0  0
  4  5  1  0  0  0  0
  4  8  1  0  0  0  0
  5  6  2  0  0  0  0
  5 19  1  0  0  0  0
  6  7  1  0  0  0  0
  6 10  1  0  0  0  0
  7  8  1  0  0  0  0
  7 33  1  0  0  0  0
  8  9  2  0  0  0  0
  9 34  1  0  0  0  0
 10 11  1  0  0  0  0
 10 21  1  0  0  0  0
 10 35  1  1  0  0  0
 11 12  1  0  0  0  0
 11 18  1  0  0  0  0
 12 13  2  0  0  0  0
 12 14  1  0  0  0  0
 14 15  1  0  0  0  0
 14 36  1  0  0  0  0
 14 37  1  0  0  0  0
 15 16  1  0  0  0  0
 15 20  1  0  0  0  0
 16 17  2  0  0  0  0
 16 18  1  0  0  0  0
 18 19  1  0  0  0  0
 18 38  1  1  0  0  0
 19 39  1  0  0  0  0
 19 40  1  0  0  0  0
 20 41  1  0  0  0  0
 20 42  1  0  0  0  0
 20 43  1  0  0  0  0
 21 22  2  0  0  0  0
 21 29  1  0  0  0  0
 22 23  1  0  0  0  0
 22 44  1  0  0  0  0
 23 24  2  0  0  0  0
 23 45  1  0  0  0  0
 24 25  1  0  0  0  0
 24 28  1  0  0  0  0
 25 26  1  0  0  0  0
 26 27  1  0  0  0  0
 26 46  1  0  0  0  0
 26 47  1  0  0  0  0
 27 28  1  0  0  0  0
 28 29  2  0  0  0  0
 29 48  1  0  0  0  0
M  END
