1ugw_ligand
 OpenBabel08222323343D

 24 24  0  0  1  0  0  0  0  0999 V2000
   51.6000   54.8790   66.4450 C   0  0  2  0  0  0  0  0  0  0  0  0
   52.3290   56.2270   66.1850 C   0  0  1  0  0  0  0  0  0  0  0  0
   52.2690   57.1440   67.4150 C   0  0  2  0  0  0  0  0  0  0  0  0
   50.8020   57.2860   67.8870 C   0  0  2  0  0  0  0  0  0  0  0  0
   50.2500   55.8880   68.1320 C   0  0  1  0  0  0  0  0  0  0  0  0
   48.8390   55.8830   68.6790 C   0  0  0  0  0  0  0  0  0  0  0  0
   51.4950   54.1580   65.2640 O   0  0  0  0  0  0  0  0  0  0  0  0
   53.6850   55.9710   65.8490 O   0  0  0  0  0  0  0  0  0  0  0  0
   52.7810   58.4100   67.0500 O   0  0  0  0  0  0  0  0  0  0  0  0
   50.0350   57.9420   66.8770 O   0  0  0  0  0  0  0  0  0  0  0  0
   50.2660   55.1280   66.9050 O   0  0  0  0  0  0  0  0  0  0  0  0
   47.8880   56.1630   67.6700 O   0  0  0  0  0  0  0  0  0  0  0  0
   52.1571   54.2979   67.1946 H   0  0  0  0  0  0  0  0  0  0  0  0
   51.8393   56.7362   65.3418 H   0  0  0  0  0  0  0  0  0  0  0  0
   52.8760   56.7178   68.2273 H   0  0  0  0  0  0  0  0  0  0  0  0
   50.7625   57.8717   68.8172 H   0  0  0  0  0  0  0  0  0  0  0  0
   50.9030   55.3921   68.8652 H   0  0  0  0  0  0  0  0  0  0  0  0
   48.7589   56.6466   69.4667 H   0  0  0  0  0  0  0  0  0  0  0  0
   48.6252   54.8920   69.1058 H   0  0  0  0  0  0  0  0  0  0  0  0
   51.0091   54.6669   64.6257 H   0  0  0  0  0  0  0  0  0  0  0  0
   54.1221   56.7916   65.6538 H   0  0  0  0  0  0  0  0  0  0  0  0
   52.7473   58.9922   67.7999 H   0  0  0  0  0  0  0  0  0  0  0  0
   49.1305   58.0071   67.1601 H   0  0  0  0  0  0  0  0  0  0  0  0
   48.0636   57.0202   67.3000 H   0  0  0  0  0  0  0  0  0  0  0  0
  1  2  1  0  0  0  0
  1  7  1  0  0  0  0
  1 11  1  0  0  0  0
  1 13  1  1  0  0  0
  2  3  1  0  0  0  0
  2  8  1  0  0  0  0
  2 14  1  6  0  0  0
  3  4  1  0  0  0  0
  3  9  1  0  0  0  0
  3 15  1  1  0  0  0
  4  5  1  0  0  0  0
  4 10  1  0  0  0  0
  4 16  1  1  0  0  0
  5  6  1  0  0  0  0
  5 11  1  0  0  0  0
  5 17  1  1  0  0  0
  6 12  1  0  0  0  0
  6 18  1  0  0  0  0
  6 19  1  0  0  0  0
  7 20  1  0  0  0  0
  8 21  1  0  0  0  0
  9 22  1  0  0  0  0
 10 23  1  0  0  0  0
 12 24  1  0  0  0  0
M  END
