1uj0_ligand
 OpenBabel08222323343D

154154  0  0  1  0  0  0  0  0999 V2000
   16.3820   23.9260   20.7840 N   0  3  0  0  0  0  0  0  0  0  0  0
   15.3740   23.0890   21.4910 C   0  0  2  0  0  0  0  0  0  0  0  0
   15.9370   22.6080   22.8270 C   0  0  0  0  0  0  0  0  0  0  0  0
   17.0570   22.0770   22.8710 O   0  0  0  0  0  0  0  0  0  0  0  0
   15.0160   21.9050   20.6200 C   0  0  2  0  0  0  0  0  0  0  0  0
   14.5860   22.3790   19.3280 O   0  0  0  0  0  0  0  0  0  0  0  0
   13.8240   21.2030   21.1620 C   0  0  0  0  0  0  0  0  0  0  0  0
   15.1770   22.7680   23.9090 N   0  0  0  0  0  0  0  0  0  0  0  0
   15.6010   22.3050   25.2280 C   0  0  2  0  0  0  0  0  0  0  0  0
   15.6390   20.7790   25.2290 C   0  0  0  0  0  0  0  0  0  0  0  0
   14.8580   20.1310   24.5230 O   0  0  0  0  0  0  0  0  0  0  0  0
   14.4670   22.7870   26.1470 C   0  0  0  0  0  0  0  0  0  0  0  0
   13.8130   23.8300   25.4030 C   0  0  0  0  0  0  0  0  0  0  0  0
   13.8280   23.3690   23.9630 C   0  0  0  0  0  0  0  0  0  0  0  0
   16.5370   20.2030   26.0040 N   0  0  0  0  0  0  0  0  0  0  0  0
   16.5530   18.7730   26.1420 C   0  0  2  0  0  0  0  0  0  0  0  0
   15.3260   18.2260   26.9000 C   0  0  0  0  0  0  0  0  0  0  0  0
   14.8240   18.8610   27.8620 O   0  0  0  0  0  0  0  0  0  0  0  0
   17.8510   18.3120   26.8130 C   0  0  0  0  0  0  0  0  0  0  0  0
   17.9330   16.8450   26.7580 C   0  0  0  0  0  0  0  0  0  0  0  0
   18.4190   16.3050   25.0850 S   0  0  0  0  0  0  0  0  0  0  0  0
   19.6110   17.2870   24.8340 C   0  0  0  0  0  0  0  0  0  0  0  0
   14.8140   17.0870   26.4450 N   0  0  0  0  0  0  0  0  0  0  0  0
   13.6470   16.4830   27.0670 C   0  0  2  0  0  0  0  0  0  0  0  0
   14.1060   15.2720   27.8250 C   0  0  0  0  0  0  0  0  0  0  0  0
   15.0100   14.5670   27.3590 O   0  0  0  0  0  0  0  0  0  0  0  0
   12.5650   16.1340   26.0240 C   0  0  0  0  0  0  0  0  0  0  0  0
   11.4030   15.3210   26.6300 C   0  0  0  0  0  0  0  0  0  0  0  0
   12.0480   17.4180   25.3970 C   0  0  0  0  0  0  0  0  0  0  0  0
   13.5140   15.0710   29.0010 N   0  0  0  0  0  0  0  0  0  0  0  0
   13.7570   13.9190   29.8460 C   0  0  2  0  0  0  0  0  0  0  0  0
   12.4620   13.2030   30.2190 C   0  0  0  0  0  0  0  0  0  0  0  0
   11.6550   13.7180   31.0000 O   0  0  0  0  0  0  0  0  0  0  0  0
   14.5250   14.3210   31.1170 C   0  0  0  0  0  0  0  0  0  0  0  0
   14.9850   13.0940   31.9340 C   0  0  0  0  0  0  0  0  0  0  0  0
   14.1670   12.2550   32.3410 O   0  0  0  0  0  0  0  0  0  0  0  0
   16.3020   12.9740   32.1440 N   0  0  0  0  0  0  0  0  0  0  0  0
   12.2590   12.0060   29.6730 N   0  0  0  0  0  0  0  0  0  0  0  0
   10.9890   11.2910   29.8660 C   0  0  2  0  0  0  0  0  0  0  0  0
   11.0220   10.3840   31.0800 C   0  0  0  0  0  0  0  0  0  0  0  0
    9.9800    9.9110   31.5590 O   0  0  0  0  0  0  0  0  0  0  0  0
   10.6350   10.4820   28.6410 C   0  0  0  0  0  0  0  0  0  0  0  0
   10.1680   11.3430   27.5100 C   0  0  0  0  0  0  0  0  0  0  0  0
    9.8320   10.5690   26.2670 C   0  0  0  0  0  0  0  0  0  0  0  0
    9.1550   11.4880   25.3490 N   0  0  0  0  0  0  0  0  0  0  0  0
    9.7380   12.3310   24.5210 C   0  0  0  0  0  3  0  0  0  0  0  0
   11.0900   12.4450   24.4100 N   0  0  0  0  0  0  0  0  0  0  0  0
    8.9630   13.0980   23.8000 N   0  0  0  0  0  0  0  0  0  0  0  0
   12.2270   10.1710   31.5880 N   0  0  0  0  0  0  0  0  0  0  0  0
   12.3760    9.3310   32.7610 C   0  0  2  0  0  0  0  0  0  0  0  0
   11.4960    9.8680   33.8980 C   0  0  0  0  0  0  0  0  0  0  0  0
   11.0460    9.1020   34.7300 O   0  0  0  0  0  0  0  0  0  0  0  0
   13.8530    9.1940   33.1360 C   0  0  0  0  0  0  0  0  0  0  0  0
   14.1330    8.4050   34.4090 C   0  0  0  0  0  0  0  0  0  0  0  0
   15.4220    7.6180   34.3110 C   0  0  0  0  0  0  0  0  0  0  0  0
   15.9570    7.2150   35.3700 O   0  5  0  0  0  0  0  0  0  0  0  0
   15.9110    7.3890   33.1770 O   0  0  0  0  0  0  0  0  0  0  0  0
   11.1670   11.1660   33.8650 N   0  0  0  0  0  0  0  0  0  0  0  0
   10.3980   11.8150   34.9500 C   0  0  2  0  0  0  0  0  0  0  0  0
    8.9220   12.2460   34.7100 C   0  0  0  0  0  0  0  0  0  0  0  0
    8.3260   12.9660   35.5400 O   0  0  0  0  0  0  0  0  0  0  0  0
   11.2070   13.0000   35.4950 C   0  0  0  0  0  0  0  0  0  0  0  0
   10.8680   14.3150   34.8070 C   0  0  0  0  0  0  0  0  0  0  0  0
   11.0380   14.4770   33.5980 O   0  0  0  0  0  0  0  0  0  0  0  0
   10.3800   15.2580   35.5880 N   0  0  0  0  0  0  0  0  0  0  0  0
    8.3270   11.7770   33.6180 N   0  0  0  0  0  0  0  0  0  0  0  0
    6.9860   12.1830   33.2080 C   0  0  2  0  0  0  0  0  0  0  0  0
    5.8850   12.0840   34.2660 C   0  0  0  0  0  0  0  0  0  0  0  0
    5.7800   11.0730   34.9550 O   0  0  0  0  0  0  0  0  0  0  0  0
    6.5620   11.3800   31.9920 C   0  0  0  0  0  0  0  0  0  0  0  0
    7.2380   11.8400   30.7550 C   0  0  0  0  0  0  0  0  0  0  0  0
    6.8010   11.0570   29.5660 C   0  0  0  0  0  0  0  0  0  0  0  0
    5.2920   11.0490   29.3320 C   0  0  0  0  0  0  0  0  0  0  0  0
    5.1660   10.3140   28.0690 N   0  3  0  0  0  0  0  0  0  0  0  0
    5.0394   13.0958   34.4398 O   0  0  0  0  0  0  0  0  0  0  0  0
   16.0018   24.2385   19.9043 H   0  0  0  0  0  0  0  0  0  0  0  0
   17.2131   23.3810   20.6161 H   0  0  0  0  0  0  0  0  0  0  0  0
   16.6135   24.7253   21.3528 H   0  0  0  0  0  0  0  0  0  0  0  0
   14.4707   23.6885   21.6771 H   0  0  0  0  0  0  0  0  0  0  0  0
   15.8749   21.2232   20.5337 H   0  0  0  0  0  0  0  0  0  0  0  0
   13.8451   22.9635   19.4369 H   0  0  0  0  0  0  0  0  0  0  0  0
   13.5784   20.3463   20.5172 H   0  0  0  0  0  0  0  0  0  0  0  0
   12.9711   21.8970   21.1902 H   0  0  0  0  0  0  0  0  0  0  0  0
   14.0400   20.8459   22.1797 H   0  0  0  0  0  0  0  0  0  0  0  0
   16.5759   22.7221   25.5206 H   0  0  0  0  0  0  0  0  0  0  0  0
   14.8729   23.1798   27.0909 H   0  0  0  0  0  0  0  0  0  0  0  0
   13.7667   21.9665   26.3623 H   0  0  0  0  0  0  0  0  0  0  0  0
   12.7788   23.9619   25.7537 H   0  0  0  0  0  0  0  0  0  0  0  0
   14.3599   24.7785   25.5088 H   0  0  0  0  0  0  0  0  0  0  0  0
   13.0408   22.6274   23.7621 H   0  0  0  0  0  0  0  0  0  0  0  0
   13.7262   24.2108   23.2623 H   0  0  0  0  0  0  0  0  0  0  0  0
   17.2061   20.7608   26.4951 H   0  0  0  0  0  0  0  0  0  0  0  0
   16.5284   18.3460   25.1286 H   0  0  0  0  0  0  0  0  0  0  0  0
   17.8589   18.6412   27.8626 H   0  0  0  0  0  0  0  0  0  0  0  0
   18.7121   18.7480   26.2854 H   0  0  0  0  0  0  0  0  0  0  0  0
   16.9512   16.4164   27.0074 H   0  0  0  0  0  0  0  0  0  0  0  0
   18.6811   16.4952   27.4846 H   0  0  0  0  0  0  0  0  0  0  0  0
   20.0388   17.0974   23.8385 H   0  0  0  0  0  0  0  0  0  0  0  0
   20.3835   17.1296   25.6011 H   0  0  0  0  0  0  0  0  0  0  0  0
   19.2487   18.3243   24.8858 H   0  0  0  0  0  0  0  0  0  0  0  0
   15.2396   16.6369   25.6599 H   0  0  0  0  0  0  0  0  0  0  0  0
   13.2134   17.2011   27.7785 H   0  0  0  0  0  0  0  0  0  0  0  0
   13.0309   15.5227   25.2371 H   0  0  0  0  0  0  0  0  0  0  0  0
   10.6628   15.0999   25.8470 H   0  0  0  0  0  0  0  0  0  0  0  0
   10.9260   15.9045   27.4312 H   0  0  0  0  0  0  0  0  0  0  0  0
   11.7914   14.3788   27.0439 H   0  0  0  0  0  0  0  0  0  0  0  0
   12.8902   17.9830   24.9710 H   0  0  0  0  0  0  0  0  0  0  0  0
   11.5497   18.0267   26.1658 H   0  0  0  0  0  0  0  0  0  0  0  0
   11.3300   17.1738   24.6003 H   0  0  0  0  0  0  0  0  0  0  0  0
   12.8612   15.7577   29.3208 H   0  0  0  0  0  0  0  0  0  0  0  0
   14.3817   13.2134   29.2787 H   0  0  0  0  0  0  0  0  0  0  0  0
   13.8687   14.9397   31.7466 H   0  0  0  0  0  0  0  0  0  0  0  0
   15.4107   14.9048   30.8259 H   0  0  0  0  0  0  0  0  0  0  0  0
   16.6564   12.1987   32.6668 H   0  0  0  0  0  0  0  0  0  0  0  0
   16.9312   13.6597   31.7781 H   0  0  0  0  0  0  0  0  0  0  0  0
   12.9814   11.5867   29.1231 H   0  0  0  0  0  0  0  0  0  0  0  0
   10.2011   12.0423   30.0233 H   0  0  0  0  0  0  0  0  0  0  0  0
    9.8335    9.7755   28.9026 H   0  0  0  0  0  0  0  0  0  0  0  0
   11.5250    9.9230   28.3164 H   0  0  0  0  0  0  0  0  0  0  0  0
   10.9645   12.0620   27.2678 H   0  0  0  0  0  0  0  0  0  0  0  0
    9.2690   11.8873   27.8349 H   0  0  0  0  0  0  0  0  0  0  0  0
    9.1675    9.7284   26.5155 H   0  0  0  0  0  0  0  0  0  0  0  0
   10.7523   10.1843   25.8032 H   0  0  0  0  0  0  0  0  0  0  0  0
    8.1251   11.4739   25.3509 H   0  0  0  0  0  0  0  0  0  0  0  0
   11.4972   13.1199   23.7470 H   0  0  0  0  0  0  0  0  0  0  0  0
   11.7057   11.8563   24.9890 H   0  0  0  0  0  0  0  0  0  0  0  0
    7.9393   13.0163   23.8797 H   0  0  0  0  0  0  0  0  0  0  0  0
    9.3760   13.7841   23.1522 H   0  0  0  0  0  0  0  0  0  0  0  0
   13.0310   10.5880   31.1641 H   0  0  0  0  0  0  0  0  0  0  0  0
   12.0091    8.3252   32.5087 H   0  0  0  0  0  0  0  0  0  0  0  0
   14.2655   10.2054   33.2659 H   0  0  0  0  0  0  0  0  0  0  0  0
   14.3691    8.6914   32.3047 H   0  0  0  0  0  0  0  0  0  0  0  0
   13.3019    7.7062   34.5848 H   0  0  0  0  0  0  0  0  0  0  0  0
   14.2074    9.1062   35.2533 H   0  0  0  0  0  0  0  0  0  0  0  0
   11.4510   11.7158   33.0795 H   0  0  0  0  0  0  0  0  0  0  0  0
   10.3457   11.0637   35.7517 H   0  0  0  0  0  0  0  0  0  0  0  0
   12.2770   12.7922   35.3471 H   0  0  0  0  0  0  0  0  0  0  0  0
   10.9985   13.1025   36.5702 H   0  0  0  0  0  0  0  0  0  0  0  0
   10.1348   16.1481   35.2039 H   0  0  0  0  0  0  0  0  0  0  0  0
   10.2549   15.0833   36.5646 H   0  0  0  0  0  0  0  0  0  0  0  0
    8.8200   11.1164   33.0518 H   0  0  0  0  0  0  0  0  0  0  0  0
    7.0527   13.2414   32.9160 H   0  0  0  0  0  0  0  0  0  0  0  0
    5.4747   11.4827   31.8609 H   0  0  0  0  0  0  0  0  0  0  0  0
    6.8127   10.3223   32.1606 H   0  0  0  0  0  0  0  0  0  0  0  0
    8.3249   11.7243   30.8784 H   0  0  0  0  0  0  0  0  0  0  0  0
    6.9984   12.9010   30.5910 H   0  0  0  0  0  0  0  0  0  0  0  0
    7.1335   10.0169   29.6986 H   0  0  0  0  0  0  0  0  0  0  0  0
    7.2843   11.4858   28.6758 H   0  0  0  0  0  0  0  0  0  0  0  0
    4.8999   12.0723   29.2363 H   0  0  0  0  0  0  0  0  0  0  0  0
    4.7668   10.5298   30.1472 H   0  0  0  0  0  0  0  0  0  0  0  0
    4.1929   10.2477   27.8145 H   0  0  0  0  0  0  0  0  0  0  0  0
    5.5482    9.3879   28.1796 H   0  0  0  0  0  0  0  0  0  0  0  0
    5.6702   10.8013   27.3449 H   0  0  0  0  0  0  0  0  0  0  0  0
    4.1523   12.7970   34.2779 H   0  0  0  0  0  0  0  0  0  0  0  0
  1 76  1  0  0  0  0
  1 77  1  0  0  0  0
  1 78  1  0  0  0  0
  2  1  1  0  0  0  0
  2  5  1  0  0  0  0
  2 79  1  1  0  0  0
  3  2  1  0  0  0  0
  3  4  2  0  0  0  0
  5  7  1  0  0  0  0
  5  6  1  0  0  0  0
  5 80  1  6  0  0  0
  6 81  1  0  0  0  0
  7 82  1  0  0  0  0
  7 83  1  0  0  0  0
  7 84  1  0  0  0  0
  8 14  1  0  0  0  0
  8  3  1  0  0  0  0
  9 12  1  0  0  0  0
  9  8  1  0  0  0  0
  9 85  1  1  0  0  0
 10  9  1  0  0  0  0
 10 11  2  0  0  0  0
 12 13  1  0  0  0  0
 12 86  1  0  0  0  0
 12 87  1  0  0  0  0
 13 88  1  0  0  0  0
 13 89  1  0  0  0  0
 14 13  1  0  0  0  0
 14 90  1  0  0  0  0
 14 91  1  0  0  0  0
 15 10  1  0  0  0  0
 15 92  1  0  0  0  0
 16 15  1  0  0  0  0
 16 19  1  0  0  0  0
 16 93  1  6  0  0  0
 17 16  1  0  0  0  0
 17 18  2  0  0  0  0
 19 20  1  0  0  0  0
 19 94  1  0  0  0  0
 19 95  1  0  0  0  0
 20 21  1  0  0  0  0
 20 96  1  0  0  0  0
 20 97  1  0  0  0  0
 21 22  1  0  0  0  0
 22 98  1  0  0  0  0
 22 99  1  0  0  0  0
 22100  1  0  0  0  0
 23 17  1  0  0  0  0
 23101  1  0  0  0  0
 24 23  1  0  0  0  0
 24 27  1  0  0  0  0
 24102  1  1  0  0  0
 25 24  1  0  0  0  0
 25 26  2  0  0  0  0
 27 29  1  0  0  0  0
 27 28  1  0  0  0  0
 27103  1  0  0  0  0
 28104  1  0  0  0  0
 28105  1  0  0  0  0
 28106  1  0  0  0  0
 29107  1  0  0  0  0
 29108  1  0  0  0  0
 29109  1  0  0  0  0
 30 25  1  0  0  0  0
 30110  1  0  0  0  0
 31 30  1  0  0  0  0
 31 34  1  0  0  0  0
 31111  1  6  0  0  0
 32 31  1  0  0  0  0
 32 33  2  0  0  0  0
 34 35  1  0  0  0  0
 34112  1  0  0  0  0
 34113  1  0  0  0  0
 35 37  1  0  0  0  0
 35 36  2  0  0  0  0
 37114  1  0  0  0  0
 37115  1  0  0  0  0
 38 32  1  0  0  0  0
 38116  1  0  0  0  0
 39 38  1  0  0  0  0
 39 42  1  0  0  0  0
 39117  1  1  0  0  0
 40 39  1  0  0  0  0
 40 41  2  0  0  0  0
 42 43  1  0  0  0  0
 42118  1  0  0  0  0
 42119  1  0  0  0  0
 43 44  1  0  0  0  0
 43120  1  0  0  0  0
 43121  1  0  0  0  0
 44 45  1  0  0  0  0
 44122  1  0  0  0  0
 44123  1  0  0  0  0
 45 46  1  0  0  0  0
 45124  1  0  0  0  0
 46 48  1  0  0  0  0
 46 47  1  0  0  0  0
 47125  1  0  0  0  0
 47126  1  0  0  0  0
 48127  1  0  0  0  0
 48128  1  0  0  0  0
 49 40  1  0  0  0  0
 49129  1  0  0  0  0
 50 49  1  0  0  0  0
 50 53  1  0  0  0  0
 50130  1  6  0  0  0
 51 50  1  0  0  0  0
 51 52  2  0  0  0  0
 53 54  1  0  0  0  0
 53131  1  0  0  0  0
 53132  1  0  0  0  0
 54 55  1  0  0  0  0
 54133  1  0  0  0  0
 54134  1  0  0  0  0
 55 57  2  0  0  0  0
 55 56  1  0  0  0  0
 58 51  1  0  0  0  0
 58135  1  0  0  0  0
 59 58  1  0  0  0  0
 59 62  1  0  0  0  0
 59136  1  1  0  0  0
 60 59  1  0  0  0  0
 60 61  2  0  0  0  0
 60 66  1  0  0  0  0
 62 63  1  0  0  0  0
 62137  1  0  0  0  0
 62138  1  0  0  0  0
 63 65  1  0  0  0  0
 63 64  2  0  0  0  0
 65139  1  0  0  0  0
 65140  1  0  0  0  0
 66 67  1  0  0  0  0
 66141  1  0  0  0  0
 67 70  1  0  0  0  0
 67 68  1  0  0  0  0
 67142  1  6  0  0  0
 68 69  2  0  0  0  0
 68 75  1  0  0  0  0
 70 71  1  0  0  0  0
 70143  1  0  0  0  0
 70144  1  0  0  0  0
 71 72  1  0  0  0  0
 71145  1  0  0  0  0
 71146  1  0  0  0  0
 72 73  1  0  0  0  0
 72147  1  0  0  0  0
 72148  1  0  0  0  0
 73 74  1  0  0  0  0
 73149  1  0  0  0  0
 73150  1  0  0  0  0
 74151  1  0  0  0  0
 74152  1  0  0  0  0
 74153  1  0  0  0  0
 75154  1  0  0  0  0
M  CHG  3   1   1  56  -1  74   1
M  END
