1ukt_ligand
 OpenBabel08222323343D

 88 91  0  0  1  0  0  0  0  0999 V2000
   47.8770   51.3150   20.5620 C   0  0  2  0  0  0  0  0  0  0  0  0
   49.2710   50.7390   20.7620 C   0  0  1  0  0  0  0  0  0  0  0  0
   49.6050   50.7190   22.2440 C   0  0  2  0  0  0  0  0  0  0  0  0
   49.7690   52.1540   22.7350 C   0  0  1  0  0  0  0  0  0  0  0  0
   48.5170   52.9900   22.4500 C   0  0  0  0  0  0  0  0  0  0  0  0
   48.1250   54.2160   23.2730 C   0  0  0  0  0  0  0  0  0  0  0  0
   47.6400   52.6100   21.3920 C   0  0  0  0  0  0  0  0  0  0  0  0
   46.8940   50.2690   20.8450 N   0  3  0  0  0  0  0  0  0  0  0  0
   49.3240   49.4140   20.2450 O   0  0  0  0  0  0  0  0  0  0  0  0
   50.8150   50.0050   22.4300 O   0  0  0  0  0  0  0  0  0  0  0  0
   50.0660   52.1610   24.1290 O   0  0  0  0  0  0  0  0  0  0  0  0
   48.4780   54.0360   24.6360 O   0  0  0  0  0  0  0  0  0  0  0  0
   42.6390   51.0570   21.2370 C   0  0  2  0  0  0  0  0  0  0  0  0
   43.5740   52.0900   20.5840 C   0  0  1  0  0  0  0  0  0  0  0  0
   44.8120   51.3610   20.0300 C   0  0  2  0  0  0  0  0  0  0  0  0
   45.5900   50.8030   21.2320 C   0  0  1  0  0  0  0  0  0  0  0  0
   44.7380   49.7010   21.8780 C   0  0  1  0  0  0  0  0  0  0  0  0
   45.3700   49.2360   23.1990 C   0  0  0  0  0  0  0  0  0  0  0  0
   42.8920   52.7520   19.5280 O   0  0  0  0  0  0  0  0  0  0  0  0
   45.6220   52.2420   19.2480 O   0  0  0  0  0  0  0  0  0  0  0  0
   43.3940   50.1890   22.1290 O   0  0  0  0  0  0  0  0  0  0  0  0
   40.8420   46.6580   22.0040 C   0  0  2  0  0  0  0  0  0  0  0  0
   41.5610   46.6840   20.6630 C   0  0  1  0  0  0  0  0  0  0  0  0
   42.3250   47.9820   20.5220 C   0  0  2  0  0  0  0  0  0  0  0  0
   41.3150   49.1180   20.4910 C   0  0  1  0  0  0  0  0  0  0  0  0
   40.5090   49.1560   21.7970 C   0  0  1  0  0  0  0  0  0  0  0  0
   39.3370   50.1360   21.6550 C   0  0  0  0  0  0  0  0  0  0  0  0
   42.4440   45.5890   20.5140 O   0  0  0  0  0  0  0  0  0  0  0  0
   43.0720   47.9610   19.3080 O   0  0  0  0  0  0  0  0  0  0  0  0
   41.9550   50.3620   20.1840 O   0  0  0  0  0  0  0  0  0  0  0  0
   39.9920   47.8280   22.0830 O   0  0  0  0  0  0  0  0  0  0  0  0
   38.5440   50.0990   22.8370 O   0  0  0  0  0  0  0  0  0  0  0  0
   41.9200   42.4520   23.9250 C   0  0  2  0  0  0  0  0  0  0  0  0
   41.1370   43.3880   24.8570 C   0  0  1  0  0  0  0  0  0  0  0  0
   40.7520   44.6230   24.0580 C   0  0  2  0  0  0  0  0  0  0  0  0
   42.0450   45.3540   23.6880 C   0  0  1  0  0  0  0  0  0  0  0  0
   42.9390   44.4450   22.8160 C   0  0  1  0  0  0  0  0  0  0  0  0
   44.3320   45.0770   22.5890 C   0  0  0  0  0  0  0  0  0  0  0  0
   42.2740   41.2560   24.6080 O   0  0  0  0  0  0  0  0  0  0  0  0
   39.9730   42.7570   25.3690 O   0  0  0  0  0  0  0  0  0  0  0  0
   39.9090   45.4600   24.8380 O   0  0  0  0  0  0  0  0  0  0  0  0
   41.7950   46.6310   23.0720 O   0  0  0  0  0  0  0  0  0  0  0  0
   43.0910   43.1460   23.4440 O   0  0  0  0  0  0  0  0  0  0  0  0
   44.9300   45.4770   23.8190 O   0  0  0  0  0  0  0  0  0  0  0  0
   47.7764   51.5908   19.5019 H   0  0  0  0  0  0  0  0  0  0  0  0
   50.0030   51.3659   20.2317 H   0  0  0  0  0  0  0  0  0  0  0  0
   48.7952   50.2272   22.8029 H   0  0  0  0  0  0  0  0  0  0  0  0
   50.6142   52.6079   22.1968 H   0  0  0  0  0  0  0  0  0  0  0  0
   47.0383   54.3694   23.1982 H   0  0  0  0  0  0  0  0  0  0  0  0
   48.6481   55.0992   22.8777 H   0  0  0  0  0  0  0  0  0  0  0  0
   46.7837   53.2411   21.1591 H   0  0  0  0  0  0  0  0  0  0  0  0
   47.2424   49.6952   21.5969 H   0  0  0  0  0  0  0  0  0  0  0  0
   46.7777   49.7048   20.0179 H   0  0  0  0  0  0  0  0  0  0  0  0
   50.1977   49.0619   20.3683 H   0  0  0  0  0  0  0  0  0  0  0  0
   50.7055   49.1129   22.1222 H   0  0  0  0  0  0  0  0  0  0  0  0
   50.2186   53.0541   24.4147 H   0  0  0  0  0  0  0  0  0  0  0  0
   49.4165   53.9059   24.7044 H   0  0  0  0  0  0  0  0  0  0  0  0
   41.8886   51.5866   21.8423 H   0  0  0  0  0  0  0  0  0  0  0  0
   43.8882   52.8293   21.3354 H   0  0  0  0  0  0  0  0  0  0  0  0
   44.4866   50.5272   19.3905 H   0  0  0  0  0  0  0  0  0  0  0  0
   45.7480   51.6126   21.9597 H   0  0  0  0  0  0  0  0  0  0  0  0
   44.6844   48.8456   21.1885 H   0  0  0  0  0  0  0  0  0  0  0  0
   44.7466   48.4478   23.6462 H   0  0  0  0  0  0  0  0  0  0  0  0
   45.4382   50.0871   23.8925 H   0  0  0  0  0  0  0  0  0  0  0  0
   46.3776   48.8401   23.0041 H   0  0  0  0  0  0  0  0  0  0  0  0
   42.6173   52.1134   18.8805 H   0  0  0  0  0  0  0  0  0  0  0  0
   45.1147   52.5696   18.5147 H   0  0  0  0  0  0  0  0  0  0  0  0
   40.2174   45.7547   22.0655 H   0  0  0  0  0  0  0  0  0  0  0  0
   40.8061   46.6294   19.8648 H   0  0  0  0  0  0  0  0  0  0  0  0
   43.0085   48.1116   21.3741 H   0  0  0  0  0  0  0  0  0  0  0  0
   40.6047   48.9105   19.6771 H   0  0  0  0  0  0  0  0  0  0  0  0
   41.1614   49.4819   22.6205 H   0  0  0  0  0  0  0  0  0  0  0  0
   38.7207   49.8484   20.7905 H   0  0  0  0  0  0  0  0  0  0  0  0
   39.7259   51.1541   21.5057 H   0  0  0  0  0  0  0  0  0  0  0  0
   42.8483   45.6242   19.6550 H   0  0  0  0  0  0  0  0  0  0  0  0
   43.7000   47.2487   19.3362 H   0  0  0  0  0  0  0  0  0  0  0  0
   38.2090   49.2193   22.9648 H   0  0  0  0  0  0  0  0  0  0  0  0
   41.2854   42.1890   23.0659 H   0  0  0  0  0  0  0  0  0  0  0  0
   41.7803   43.6814   25.6996 H   0  0  0  0  0  0  0  0  0  0  0  0
   40.2197   44.3248   23.1427 H   0  0  0  0  0  0  0  0  0  0  0  0
   42.5900   45.5508   24.6230 H   0  0  0  0  0  0  0  0  0  0  0  0
   42.4518   44.3115   21.8389 H   0  0  0  0  0  0  0  0  0  0  0  0
   44.2231   45.9591   21.9409 H   0  0  0  0  0  0  0  0  0  0  0  0
   44.9836   44.3393   22.0979 H   0  0  0  0  0  0  0  0  0  0  0  0
   41.4860   40.8215   24.9125 H   0  0  0  0  0  0  0  0  0  0  0  0
   39.5084   43.3628   25.9343 H   0  0  0  0  0  0  0  0  0  0  0  0
   39.1132   44.9898   25.0574 H   0  0  0  0  0  0  0  0  0  0  0  0
   45.7818   45.8601   23.6458 H   0  0  0  0  0  0  0  0  0  0  0  0
  1  2  1  0  0  0  0
  1  7  1  0  0  0  0
  1 45  1  6  0  0  0
  2  3  1  0  0  0  0
  2  9  1  0  0  0  0
  2 46  1  6  0  0  0
  3  4  1  0  0  0  0
  3 10  1  0  0  0  0
  3 47  1  1  0  0  0
  4 11  1  0  0  0  0
  4 48  1  6  0  0  0
  5  4  1  0  0  0  0
  5  6  1  0  0  0  0
  6 12  1  0  0  0  0
  6 49  1  0  0  0  0
  6 50  1  0  0  0  0
  7  5  2  0  0  0  0
  7 51  1  0  0  0  0
  8  1  1  0  0  0  0
  8 52  1  0  0  0  0
  8 53  1  0  0  0  0
  9 54  1  0  0  0  0
 10 55  1  0  0  0  0
 11 56  1  0  0  0  0
 12 57  1  0  0  0  0
 13 14  1  0  0  0  0
 13 21  1  0  0  0  0
 13 58  1  1  0  0  0
 14 15  1  0  0  0  0
 14 19  1  0  0  0  0
 14 59  1  1  0  0  0
 15 16  1  0  0  0  0
 15 20  1  0  0  0  0
 15 60  1  6  0  0  0
 16  8  1  0  0  0  0
 16 61  1  1  0  0  0
 17 16  1  0  0  0  0
 17 18  1  0  0  0  0
 17 62  1  6  0  0  0
 18 63  1  0  0  0  0
 18 64  1  0  0  0  0
 18 65  1  0  0  0  0
 19 66  1  0  0  0  0
 20 67  1  0  0  0  0
 21 17  1  0  0  0  0
 22 23  1  0  0  0  0
 22 31  1  0  0  0  0
 22 68  1  1  0  0  0
 23 24  1  0  0  0  0
 23 28  1  0  0  0  0
 23 69  1  6  0  0  0
 24 25  1  0  0  0  0
 24 29  1  0  0  0  0
 24 70  1  1  0  0  0
 25 30  1  0  0  0  0
 25 71  1  6  0  0  0
 26 25  1  0  0  0  0
 26 27  1  0  0  0  0
 26 72  1  1  0  0  0
 27 32  1  0  0  0  0
 27 73  1  0  0  0  0
 27 74  1  0  0  0  0
 28 75  1  0  0  0  0
 29 76  1  0  0  0  0
 30 13  1  0  0  0  0
 31 26  1  0  0  0  0
 32 77  1  0  0  0  0
 33 39  1  0  0  0  0
 33 43  1  0  0  0  0
 33 78  1  6  0  0  0
 34 33  1  0  0  0  0
 34 40  1  0  0  0  0
 34 79  1  1  0  0  0
 35 34  1  0  0  0  0
 35 41  1  0  0  0  0
 35 80  1  6  0  0  0
 36 35  1  0  0  0  0
 36 37  1  0  0  0  0
 36 42  1  0  0  0  0
 36 81  1  1  0  0  0
 37 38  1  0  0  0  0
 37 43  1  0  0  0  0
 37 82  1  6  0  0  0
 38 44  1  0  0  0  0
 38 83  1  0  0  0  0
 38 84  1  0  0  0  0
 39 85  1  0  0  0  0
 40 86  1  0  0  0  0
 41 87  1  0  0  0  0
 42 22  1  0  0  0  0
 44 88  1  0  0  0  0
M  CHG  1   8   1
M  END
