1ule_ligand
 OpenBabel08222323343D

 72 74  0  0  1  0  0  0  0  0999 V2000
   38.7030   14.5150   32.4830 C   0  0  2  0  0  0  0  0  0  0  0  0
   38.3890   15.2860   33.7630 C   0  0  1  0  0  0  0  0  0  0  0  0
   36.9560   15.8200   33.7120 C   0  0  2  0  0  0  0  0  0  0  0  0
   36.7560   16.6610   32.4480 C   0  0  2  0  0  0  0  0  0  0  0  0
   37.1170   15.8290   31.2130 C   0  0  1  0  0  0  0  0  0  0  0  0
   37.0410   16.6260   29.9210 C   0  0  0  0  0  0  0  0  0  0  0  0
   38.5340   14.4240   34.8810 O   0  0  0  0  0  0  0  0  0  0  0  0
   36.7070   16.6140   34.8610 O   0  0  0  0  0  0  0  0  0  0  0  0
   37.5900   17.8090   32.5110 O   0  0  0  0  0  0  0  0  0  0  0  0
   38.4700   15.3340   31.3330 O   0  0  0  0  0  0  0  0  0  0  0  0
   37.2670   15.7930   28.7920 O   0  0  0  0  0  0  0  0  0  0  0  0
   36.9660   10.8190   29.8670 C   0  0  1  0  0  0  0  0  0  0  0  0
   36.8270   11.6740   31.1130 C   0  0  1  0  0  0  0  0  0  0  0  0
   38.0500   12.5720   31.2450 C   0  0  2  0  0  0  0  0  0  0  0  0
   39.3370   11.7350   31.2400 C   0  0  2  0  0  0  0  0  0  0  0  0
   39.3600   10.8400   29.9940 C   0  0  1  0  0  0  0  0  0  0  0  0
   40.5370    9.8950   29.9690 C   0  0  0  0  0  0  0  0  0  0  0  0
   35.6520   12.4650   31.0020 O   0  0  0  0  0  0  0  0  0  0  0  0
   37.9560   13.3310   32.4610 O   0  0  0  0  0  0  0  0  0  0  0  0
   39.4090   10.9370   32.4130 O   0  0  0  0  0  0  0  0  0  0  0  0
   38.1650   10.0290   29.9350 O   0  0  0  0  0  0  0  0  0  0  0  0
   40.5700    9.1630   28.7530 O   0  0  0  0  0  0  0  0  0  0  0  0
   33.9100    7.8150   26.8560 C   0  0  2  0  0  0  0  0  0  0  0  0
   35.0110    7.0550   27.6000 C   0  0  1  0  0  0  0  0  0  0  0  0
   35.3300    7.8060   28.8920 C   0  0  2  0  0  0  0  0  0  0  0  0
   35.7180    9.2480   28.5660 C   0  0  1  0  0  0  0  0  0  0  0  0
   34.6240    9.9200   27.7190 C   0  0  1  0  0  0  0  0  0  0  0  0
   34.9730   11.3270   27.2620 C   0  0  0  0  0  0  0  0  0  0  0  0
   35.0020    4.6910   27.1340 C   0  0  0  0  0  0  0  0  0  0  0  0
   34.6250    3.2820   27.5760 C   0  0  0  0  0  0  0  0  0  0  0  0
   34.5790    5.7020   27.8890 N   0  0  0  0  0  0  0  0  0  0  0  0
   33.6260    7.1670   25.6690 O   0  0  0  0  0  0  0  0  0  0  0  0
   36.3940    7.1690   29.5860 O   0  0  0  0  0  0  0  0  0  0  0  0
   35.8840    9.9670   29.7950 O   0  0  0  0  0  0  0  0  0  0  0  0
   34.3660    9.1390   26.5390 O   0  0  0  0  0  0  0  0  0  0  0  0
   36.2320   11.3670   26.6050 O   0  0  0  0  0  0  0  0  0  0  0  0
   35.6760    4.8520   26.1170 O   0  0  0  0  0  0  0  0  0  0  0  0
   39.7692   14.2446   32.4924 H   0  0  0  0  0  0  0  0  0  0  0  0
   39.0879   16.1299   33.8598 H   0  0  0  0  0  0  0  0  0  0  0  0
   36.2541   14.9732   33.6970 H   0  0  0  0  0  0  0  0  0  0  0  0
   35.7043   16.9761   32.3807 H   0  0  0  0  0  0  0  0  0  0  0  0
   36.4197   14.9806   31.1499 H   0  0  0  0  0  0  0  0  0  0  0  0
   37.8044   17.4177   29.9418 H   0  0  0  0  0  0  0  0  0  0  0  0
   36.0430   17.0810   29.8377 H   0  0  0  0  0  0  0  0  0  0  0  0
   38.3470   14.9064   35.6777 H   0  0  0  0  0  0  0  0  0  0  0  0
   37.3089   17.3489   34.8732 H   0  0  0  0  0  0  0  0  0  0  0  0
   38.4983   17.5364   32.5683 H   0  0  0  0  0  0  0  0  0  0  0  0
   36.6077   15.1093   28.7672 H   0  0  0  0  0  0  0  0  0  0  0  0
   36.9973   11.4643   28.9767 H   0  0  0  0  0  0  0  0  0  0  0  0
   36.7510   11.0266   31.9991 H   0  0  0  0  0  0  0  0  0  0  0  0
   38.0764   13.2657   30.3918 H   0  0  0  0  0  0  0  0  0  0  0  0
   40.2047   12.4106   31.2140 H   0  0  0  0  0  0  0  0  0  0  0  0
   39.4055   11.4880   29.1063 H   0  0  0  0  0  0  0  0  0  0  0  0
   40.4531    9.1920   30.8109 H   0  0  0  0  0  0  0  0  0  0  0  0
   41.4669   10.4745   30.0664 H   0  0  0  0  0  0  0  0  0  0  0  0
   35.5610   13.0054   31.7779 H   0  0  0  0  0  0  0  0  0  0  0  0
   39.3942   11.4993   33.1786 H   0  0  0  0  0  0  0  0  0  0  0  0
   39.7696    8.6585   28.6665 H   0  0  0  0  0  0  0  0  0  0  0  0
   33.0073    7.8678   27.4824 H   0  0  0  0  0  0  0  0  0  0  0  0
   35.9133    7.0143   26.9721 H   0  0  0  0  0  0  0  0  0  0  0  0
   34.4364    7.8096   29.5335 H   0  0  0  0  0  0  0  0  0  0  0  0
   36.6643    9.2538   28.0053 H   0  0  0  0  0  0  0  0  0  0  0  0
   33.7089    9.9696   28.3273 H   0  0  0  0  0  0  0  0  0  0  0  0
   35.0074   11.9891   28.1397 H   0  0  0  0  0  0  0  0  0  0  0  0
   34.1966   11.6794   26.5671 H   0  0  0  0  0  0  0  0  0  0  0  0
   35.0380    2.5517   26.8645 H   0  0  0  0  0  0  0  0  0  0  0  0
   33.5295    3.1873   27.6041 H   0  0  0  0  0  0  0  0  0  0  0  0
   35.0355    3.0899   28.5783 H   0  0  0  0  0  0  0  0  0  0  0  0
   33.9623    5.5280   28.6567 H   0  0  0  0  0  0  0  0  0  0  0  0
   34.4114    7.1257   25.1363 H   0  0  0  0  0  0  0  0  0  0  0  0
   37.1721    7.1708   29.0409 H   0  0  0  0  0  0  0  0  0  0  0  0
   36.9087   11.0685   27.2012 H   0  0  0  0  0  0  0  0  0  0  0  0
  1  2  1  0  0  0  0
  1 10  1  0  0  0  0
  1 38  1  1  0  0  0
  2  3  1  0  0  0  0
  2  7  1  0  0  0  0
  2 39  1  1  0  0  0
  3  4  1  0  0  0  0
  3  8  1  0  0  0  0
  3 40  1  6  0  0  0
  4  9  1  0  0  0  0
  4 41  1  6  0  0  0
  5  4  1  0  0  0  0
  5  6  1  0  0  0  0
  5 42  1  6  0  0  0
  6 11  1  0  0  0  0
  6 43  1  0  0  0  0
  6 44  1  0  0  0  0
  7 45  1  0  0  0  0
  8 46  1  0  0  0  0
  9 47  1  0  0  0  0
 10  5  1  0  0  0  0
 11 48  1  0  0  0  0
 12 13  1  0  0  0  0
 12 21  1  0  0  0  0
 12 49  1  6  0  0  0
 13 14  1  0  0  0  0
 13 18  1  0  0  0  0
 13 50  1  1  0  0  0
 14 15  1  0  0  0  0
 14 19  1  0  0  0  0
 14 51  1  6  0  0  0
 15 20  1  0  0  0  0
 15 52  1  6  0  0  0
 16 15  1  0  0  0  0
 16 17  1  0  0  0  0
 16 53  1  6  0  0  0
 17 22  1  0  0  0  0
 17 54  1  0  0  0  0
 17 55  1  0  0  0  0
 18 56  1  0  0  0  0
 19  1  1  0  0  0  0
 20 57  1  0  0  0  0
 21 16  1  0  0  0  0
 22 58  1  0  0  0  0
 23 32  1  0  0  0  0
 23 35  1  0  0  0  0
 23 59  1  1  0  0  0
 24 23  1  0  0  0  0
 24 25  1  0  0  0  0
 24 60  1  6  0  0  0
 25 26  1  0  0  0  0
 25 33  1  0  0  0  0
 25 61  1  1  0  0  0
 26 27  1  0  0  0  0
 26 34  1  0  0  0  0
 26 62  1  6  0  0  0
 27 28  1  0  0  0  0
 27 63  1  1  0  0  0
 28 36  1  0  0  0  0
 28 64  1  0  0  0  0
 28 65  1  0  0  0  0
 29 30  1  0  0  0  0
 29 31  1  0  0  0  0
 29 37  2  0  0  0  0
 30 66  1  0  0  0  0
 30 67  1  0  0  0  0
 30 68  1  0  0  0  0
 31 24  1  0  0  0  0
 31 69  1  0  0  0  0
 32 70  1  0  0  0  0
 33 71  1  0  0  0  0
 34 12  1  0  0  0  0
 35 27  1  0  0  0  0
 36 72  1  0  0  0  0
M  END
