1ung_ligand
 OpenBabel08222323343D

 37 39  0  0  0  0  0  0  0  0999 V2000
    0.9860   70.0120    1.0710 O   0  0  0  0  0  0  0  0  0  0  0  0
    1.8070   69.0080    0.9370 C   0  0  0  0  0  0  0  0  0  0  0  0
    2.3790   68.3990    2.0550 C   0  0  0  0  0  0  0  0  0  0  0  0
    3.2490   67.3160    1.9140 C   0  0  0  0  0  0  0  0  0  0  0  0
    3.5520   66.8900    0.6280 C   0  0  0  0  0  0  0  0  0  0  0  0
    2.9860   67.5350   -0.4940 C   0  0  0  0  0  0  0  0  0  0  0  0
    2.1080   68.5970   -0.3450 C   0  0  0  0  0  0  0  0  0  0  0  0
    4.3980   65.8360    0.3110 C   0  0  0  0  0  0  0  0  0  0  0  0
    4.6370   65.4420   -0.9710 N   0  0  0  0  0  0  0  0  0  0  0  0
    5.4840   64.4360   -0.8390 C   0  0  0  0  0  0  0  0  0  0  0  0
    6.0700   63.6610   -1.9000 N   0  0  0  0  0  0  0  0  0  0  0  0
    5.7850   64.2120    0.4800 C   0  0  0  0  0  0  0  0  0  0  0  0
    6.7000   63.1680    0.8300 N   0  0  0  0  0  0  0  0  0  0  0  0
    7.2010   62.4310   -0.1540 C   0  0  0  0  0  0  0  0  0  0  0  0
    6.8800   62.6720   -1.4960 C   0  0  0  0  0  0  0  0  0  0  0  0
    5.0830   65.0800    1.2990 C   0  0  0  0  0  0  0  0  0  0  0  0
    5.1550   65.1990    2.8220 C   0  0  0  0  0  0  0  0  0  0  0  0
    4.3490   64.2710    3.7290 C   0  0  0  0  0  0  0  0  0  0  0  0
    5.1210   64.1220    5.0390 C   0  0  0  0  0  0  0  0  0  0  0  0
    4.5150   64.8330    6.2450 C   0  0  0  0  0  0  0  0  0  0  0  0
    0.6959   70.2991    0.2131 H   0  0  0  0  0  0  0  0  0  0  0  0
    2.1448   68.7716    3.0456 H   0  0  0  0  0  0  0  0  0  0  0  0
    3.6742   66.8236    2.7811 H   0  0  0  0  0  0  0  0  0  0  0  0
    3.2431   67.1930   -1.4900 H   0  0  0  0  0  0  0  0  0  0  0  0
    1.6722   69.0884   -1.2074 H   0  0  0  0  0  0  0  0  0  0  0  0
    4.2485   65.8359   -1.8398 H   0  0  0  0  0  0  0  0  0  0  0  0
    7.8778   61.6196    0.0880 H   0  0  0  0  0  0  0  0  0  0  0  0
    7.3104   62.0227   -2.2498 H   0  0  0  0  0  0  0  0  0  0  0  0
    4.8429   66.2244    3.0694 H   0  0  0  0  0  0  0  0  0  0  0  0
    6.2115   65.0612    3.0955 H   0  0  0  0  0  0  0  0  0  0  0  0
    4.2301   63.2881    3.2497 H   0  0  0  0  0  0  0  0  0  0  0  0
    3.3578   64.7057    3.9250 H   0  0  0  0  0  0  0  0  0  0  0  0
    6.1333   64.5232    4.8830 H   0  0  0  0  0  0  0  0  0  0  0  0
    5.1839   63.0494    5.2748 H   0  0  0  0  0  0  0  0  0  0  0  0
    5.1475   64.6604    7.1283 H   0  0  0  0  0  0  0  0  0  0  0  0
    3.5057   64.4387    6.4341 H   0  0  0  0  0  0  0  0  0  0  0  0
    4.4550   65.9125    6.0423 H   0  0  0  0  0  0  0  0  0  0  0  0
  1  2  1  0  0  0  0
  1 21  1  0  0  0  0
  2  3  2  0  0  0  0
  2  7  1  0  0  0  0
  3  4  1  0  0  0  0
  3 22  1  0  0  0  0
  4  5  2  0  0  0  0
  4 23  1  0  0  0  0
  5  6  1  0  0  0  0
  5  8  1  0  0  0  0
  6  7  2  0  0  0  0
  6 24  1  0  0  0  0
  7 25  1  0  0  0  0
  8  9  1  0  0  0  0
  8 16  2  0  0  0  0
  9 10  1  0  0  0  0
  9 26  1  0  0  0  0
 10 11  2  0  0  0  0
 10 12  1  0  0  0  0
 11 15  1  0  0  0  0
 12 13  2  0  0  0  0
 12 16  1  0  0  0  0
 13 14  1  0  0  0  0
 14 15  2  0  0  0  0
 14 27  1  0  0  0  0
 15 28  1  0  0  0  0
 16 17  1  0  0  0  0
 17 18  1  0  0  0  0
 17 29  1  0  0  0  0
 17 30  1  0  0  0  0
 18 19  1  0  0  0  0
 18 31  1  0  0  0  0
 18 32  1  0  0  0  0
 19 20  1  0  0  0  0
 19 33  1  0  0  0  0
 19 34  1  0  0  0  0
 20 35  1  0  0  0  0
 20 36  1  0  0  0  0
 20 37  1  0  0  0  0
M  END
