1uod_ligand
 OpenBabel08222323343D

 15 14  0  0  1  0  0  0  0  0999 V2000
   63.3140   26.8960   59.2680 O   0  0  0  0  0  0  0  0  0  0  0  0
   63.5620   27.8520   60.3120 C   0  0  0  0  0  0  0  0  0  0  0  0
   63.8350   29.2020   59.6990 C   0  0  1  0  0  0  0  0  0  0  0  0
   65.0250   29.0700   58.9500 O   0  0  0  0  0  0  0  0  0  0  0  0
   62.7380   29.5320   58.6500 C   0  0  0  0  0  0  0  0  0  0  0  0
   61.4540   29.7040   59.2660 O   0  0  0  0  0  0  0  0  0  0  0  0
   58.9590   29.8570   58.8680 O   0  0  0  0  0  1  0  0  0  0  0  0
   60.2880   31.8960   59.5290 O   0  0  0  0  0  1  0  0  0  0  0  0
   60.5870   30.8220   57.1950 O   0  0  0  0  0  0  0  0  0  0  0  0
   60.2420   30.6350   58.6600 P   0  0  0  0  0  0  0  0  0  0  0  0
   63.5540   27.6351   61.3792 H   0  0  0  0  0  0  0  0  0  0  0  0
   63.9098   29.9841   60.4689 H   0  0  0  0  0  0  0  0  0  0  0  0
   65.7335   28.8092   59.5266 H   0  0  0  0  0  0  0  0  0  0  0  0
   62.6783   28.7076   57.9243 H   0  0  0  0  0  0  0  0  0  0  0  0
   63.0109   30.4610   58.1280 H   0  0  0  0  0  0  0  0  0  0  0  0
  1  2  2  0  0  0  0
  2  3  1  0  0  0  0
  2 11  1  0  0  0  0
  3  4  1  0  0  0  0
  3  5  1  0  0  0  0
  3 12  1  1  0  0  0
  4 13  1  0  0  0  0
  5  6  1  0  0  0  0
  5 14  1  0  0  0  0
  5 15  1  0  0  0  0
  6 10  1  0  0  0  0
 10  7  1  0  0  0  0
 10  8  1  0  0  0  0
 10  9  2  0  0  0  0
M  END
