1utt_ligand
 OpenBabel08222323343D

 46 49  0  0  1  0  0  0  0  0999 V2000
  120.0250   37.5110   80.3020 C   0  0  0  0  0  0  0  0  0  0  0  0
  119.6350   36.7030   79.1170 C   0  0  0  0  0  0  0  0  0  0  0  0
  120.5530   38.7440   79.9670 N   0  0  0  0  0  0  0  0  0  0  0  0
  119.8420   36.9650   81.5940 C   0  0  0  0  0  0  0  0  0  0  0  0
  119.0800   35.4200   79.2710 C   0  0  0  0  0  0  0  0  0  0  0  0
  119.9280   37.4420   77.8680 C   0  0  0  0  0  0  0  0  0  0  0  0
  121.0080   38.7540   78.3900 S   0  0  0  0  0  0  0  0  0  0  0  0
  121.0470   39.6920   80.9670 C   0  0  0  0  0  0  0  0  0  0  0  0
  119.2800   35.6620   81.7290 C   0  0  0  0  0  0  0  0  0  0  0  0
  118.8950   34.8820   80.5830 C   0  0  0  0  0  0  0  0  0  0  0  0
  120.6250   40.0090   77.8130 O   0  0  0  0  0  0  0  0  0  0  0  0
  122.3760   38.3450   78.3490 O   0  0  0  0  0  0  0  0  0  0  0  0
  118.2820   33.5010   80.7450 C   0  0  1  0  0  0  0  0  0  0  0  0
  119.2570   32.3960   80.2780 C   0  0  0  0  0  0  0  0  0  0  0  0
  117.9630   33.2610   82.1120 O   0  0  0  0  0  0  0  0  0  0  0  0
  118.8740   31.0270   80.7130 N   0  0  0  0  0  0  0  0  0  0  0  0
  117.3400   32.0110   82.4280 C   0  0  0  0  0  0  0  0  0  0  0  0
  119.5210   29.8940   80.0020 C   0  0  0  0  0  0  0  0  0  0  0  0
  117.9660   30.7770   81.7390 C   0  0  0  0  0  0  0  0  0  0  0  0
  118.6200   29.1080   79.0530 C   0  0  0  0  0  0  0  0  0  0  0  0
  117.6500   29.6550   82.1070 O   0  0  0  0  0  0  0  0  0  0  0  0
  117.4080   29.6540   78.5350 C   0  0  0  0  0  0  0  0  0  0  0  0
  118.9880   27.7930   78.6660 C   0  0  0  0  0  0  0  0  0  0  0  0
  116.5880   28.8980   77.6580 C   0  0  0  0  0  0  0  0  0  0  0  0
  118.1720   27.0370   77.7890 C   0  0  0  0  0  0  0  0  0  0  0  0
  116.9710   27.5900   77.2850 C   0  0  0  0  0  0  0  0  0  0  0  0
  120.1264   37.5320   82.4730 H   0  0  0  0  0  0  0  0  0  0  0  0
  118.7939   34.8419   78.3998 H   0  0  0  0  0  0  0  0  0  0  0  0
  119.0051   37.8470   77.4273 H   0  0  0  0  0  0  0  0  0  0  0  0
  120.4287   36.7908   77.1364 H   0  0  0  0  0  0  0  0  0  0  0  0
  120.5882   39.4692   81.9416 H   0  0  0  0  0  0  0  0  0  0  0  0
  120.7836   40.7159   80.6633 H   0  0  0  0  0  0  0  0  0  0  0  0
  122.1404   39.6033   81.0477 H   0  0  0  0  0  0  0  0  0  0  0  0
  119.1390   35.2480   82.7209 H   0  0  0  0  0  0  0  0  0  0  0  0
  117.3634   33.4497   80.1421 H   0  0  0  0  0  0  0  0  0  0  0  0
  120.2545   32.6211   80.6834 H   0  0  0  0  0  0  0  0  0  0  0  0
  119.2959   32.4112   79.1788 H   0  0  0  0  0  0  0  0  0  0  0  0
  116.2836   32.0705   82.1273 H   0  0  0  0  0  0  0  0  0  0  0  0
  117.4038   31.8633   83.5162 H   0  0  0  0  0  0  0  0  0  0  0  0
  119.9059   29.1951   80.7592 H   0  0  0  0  0  0  0  0  0  0  0  0
  120.3596   30.2975   79.4155 H   0  0  0  0  0  0  0  0  0  0  0  0
  117.1102   30.6581   78.8147 H   0  0  0  0  0  0  0  0  0  0  0  0
  119.9064   27.3611   79.0469 H   0  0  0  0  0  0  0  0  0  0  0  0
  115.6679   29.3237   77.2742 H   0  0  0  0  0  0  0  0  0  0  0  0
  118.4679   26.0339   77.5037 H   0  0  0  0  0  0  0  0  0  0  0  0
  116.3461   27.0115   76.6142 H   0  0  0  0  0  0  0  0  0  0  0  0
  1  2  2  0  0  0  0
  1  3  1  0  0  0  0
  1  4  1  0  0  0  0
  2  5  1  0  0  0  0
  2  6  1  0  0  0  0
  3  7  1  0  0  0  0
  3  8  1  0  0  0  0
  4  9  2  0  0  0  0
  4 27  1  0  0  0  0
  5 10  2  0  0  0  0
  5 28  1  0  0  0  0
  6  7  1  0  0  0  0
  6 29  1  0  0  0  0
  6 30  1  0  0  0  0
  7 11  2  0  0  0  0
  7 12  2  0  0  0  0
  8 31  1  0  0  0  0
  8 32  1  0  0  0  0
  8 33  1  0  0  0  0
  9 10  1  0  0  0  0
  9 34  1  0  0  0  0
 10 13  1  0  0  0  0
 13 14  1  0  0  0  0
 13 15  1  0  0  0  0
 13 35  1  6  0  0  0
 14 16  1  0  0  0  0
 14 36  1  0  0  0  0
 14 37  1  0  0  0  0
 15 17  1  0  0  0  0
 16 18  1  0  0  0  0
 16 19  1  0  0  0  0
 17 19  1  0  0  0  0
 17 38  1  0  0  0  0
 17 39  1  0  0  0  0
 18 20  1  0  0  0  0
 18 40  1  0  0  0  0
 18 41  1  0  0  0  0
 19 21  2  0  0  0  0
 20 22  2  0  0  0  0
 20 23  1  0  0  0  0
 22 24  1  0  0  0  0
 22 42  1  0  0  0  0
 23 25  2  0  0  0  0
 23 43  1  0  0  0  0
 24 26  2  0  0  0  0
 24 44  1  0  0  0  0
 25 26  1  0  0  0  0
 25 45  1  0  0  0  0
 26 46  1  0  0  0  0
M  END
