1uu8_ligand
 OpenBabel08222323343D

 56 60  0  0  0  0  0  0  0  0999 V2000
   21.2110   82.7320   28.9170 C   0  0  0  0  0  0  0  0  0  0  0  0
   22.0130   83.1720   27.7670 N   0  3  0  0  0  0  0  0  0  0  0  0
   21.3240   83.3210   26.4750 C   0  0  0  0  0  0  0  0  0  0  0  0
   23.4430   82.8110   27.7940 C   0  0  0  0  0  0  0  0  0  0  0  0
   24.0330   82.4730   26.4210 C   0  0  0  0  0  0  0  0  0  0  0  0
   23.5990   81.1010   25.8940 C   0  0  0  0  0  0  0  0  0  0  0  0
   24.3450   79.9750   26.4790 N   0  0  0  0  0  0  0  0  0  0  0  0
   25.6270   80.0290   26.8540 C   0  0  0  0  0  0  0  0  0  0  0  0
   23.8380   78.7500   26.6070 C   0  0  0  0  0  0  0  0  0  0  0  0
   22.6000   78.1790   26.3290 C   0  0  0  0  0  0  0  0  0  0  0  0
   22.4150   76.8160   26.5390 C   0  0  0  0  0  0  0  0  0  0  0  0
   23.4610   76.0360   27.0260 C   0  0  0  0  0  0  0  0  0  0  0  0
   24.6950   76.6180   27.3060 C   0  0  0  0  0  0  0  0  0  0  0  0
   24.8860   77.9790   27.0950 C   0  0  0  0  0  0  0  0  0  0  0  0
   25.9910   78.8060   27.2390 C   0  0  0  0  0  0  0  0  0  0  0  0
   27.3070   78.5400   27.6120 C   0  0  0  0  0  0  0  0  0  0  0  0
   28.0140   77.4010   27.2330 C   0  0  0  0  0  0  0  0  0  0  0  0
   27.6040   76.4380   26.5910 O   0  0  0  0  0  0  0  0  0  0  0  0
   29.2570   77.5830   27.6770 N   0  0  0  0  0  0  0  0  0  0  0  0
   29.4330   78.7400   28.3140 C   0  0  0  0  0  0  0  0  0  0  0  0
   30.4810   79.1680   28.7910 O   0  0  0  0  0  0  0  0  0  0  0  0
   28.1920   79.3690   28.2920 C   0  0  0  0  0  0  0  0  0  0  0  0
   27.9160   80.5880   28.9100 C   0  0  0  0  0  0  0  0  0  0  0  0
   26.8090   81.0660   29.5920 C   0  0  0  0  0  0  0  0  0  0  0  0
   25.5640   80.5180   29.8900 C   0  0  0  0  0  0  0  0  0  0  0  0
   24.6270   81.2670   30.5960 C   0  0  0  0  0  0  0  0  0  0  0  0
   24.9300   82.5620   31.0100 C   0  0  0  0  0  0  0  0  0  0  0  0
   26.1750   83.1100   30.7190 C   0  0  0  0  0  0  0  0  0  0  0  0
   27.1060   82.3550   30.0100 C   0  0  0  0  0  0  0  0  0  0  0  0
   28.3460   82.5940   29.5830 N   0  0  0  0  0  0  0  0  0  0  0  0
   28.8430   81.5430   28.9250 C   0  0  0  0  0  0  0  0  0  0  0  0
   20.1689   83.0579   28.7834 H   0  0  0  0  0  0  0  0  0  0  0  0
   21.6180   83.1738   29.8385 H   0  0  0  0  0  0  0  0  0  0  0  0
   21.2456   81.6350   28.9900 H   0  0  0  0  0  0  0  0  0  0  0  0
   22.0999   84.1489   27.9998 H   0  0  0  0  0  0  0  0  0  0  0  0
   22.0433   83.6536   25.7121 H   0  0  0  0  0  0  0  0  0  0  0  0
   20.5210   84.0665   26.5715 H   0  0  0  0  0  0  0  0  0  0  0  0
   20.8929   82.3543   26.1757 H   0  0  0  0  0  0  0  0  0  0  0  0
   24.0049   83.6597   28.2112 H   0  0  0  0  0  0  0  0  0  0  0  0
   23.5648   81.9341   28.4469 H   0  0  0  0  0  0  0  0  0  0  0  0
   25.1301   82.4851   26.5002 H   0  0  0  0  0  0  0  0  0  0  0  0
   23.7086   83.2409   25.7033 H   0  0  0  0  0  0  0  0  0  0  0  0
   23.7471   81.0857   24.8041 H   0  0  0  0  0  0  0  0  0  0  0  0
   22.5314   80.9645   26.1210 H   0  0  0  0  0  0  0  0  0  0  0  0
   26.2609   80.9144   26.8463 H   0  0  0  0  0  0  0  0  0  0  0  0
   21.7876   78.7900   25.9525 H   0  0  0  0  0  0  0  0  0  0  0  0
   21.4553   76.3606   26.3232 H   0  0  0  0  0  0  0  0  0  0  0  0
   23.3145   74.9741   27.1874 H   0  0  0  0  0  0  0  0  0  0  0  0
   25.5067   76.0098   27.6885 H   0  0  0  0  0  0  0  0  0  0  0  0
   29.9887   76.9144   27.5447 H   0  0  0  0  0  0  0  0  0  0  0  0
   25.3249   79.5095   29.5726 H   0  0  0  0  0  0  0  0  0  0  0  0
   23.6570   80.8405   30.8247 H   0  0  0  0  0  0  0  0  0  0  0  0
   24.1965   83.1420   31.5583 H   0  0  0  0  0  0  0  0  0  0  0  0
   26.4184   84.1160   31.0413 H   0  0  0  0  0  0  0  0  0  0  0  0
   28.8553   83.4754   29.7402 H   0  0  0  0  0  0  0  0  0  0  0  0
   29.8342   81.4788   28.4785 H   0  0  0  0  0  0  0  0  0  0  0  0
  1 32  1  0  0  0  0
  1 33  1  0  0  0  0
  1 34  1  0  0  0  0
  2  3  1  0  0  0  0
  2  1  1  0  0  0  0
  2 35  1  0  0  0  0
  3 36  1  0  0  0  0
  3 37  1  0  0  0  0
  3 38  1  0  0  0  0
  4  2  1  0  0  0  0
  4 39  1  0  0  0  0
  4 40  1  0  0  0  0
  5  4  1  0  0  0  0
  5 41  1  0  0  0  0
  5 42  1  0  0  0  0
  6  5  1  0  0  0  0
  6 43  1  0  0  0  0
  6 44  1  0  0  0  0
  7  8  1  0  0  0  0
  7  9  1  0  0  0  0
  7  6  1  0  0  0  0
  8 15  2  0  0  0  0
  8 45  1  0  0  0  0
  9 10  2  0  0  0  0
  9 14  1  0  0  0  0
 10 11  1  0  0  0  0
 10 46  1  0  0  0  0
 11 12  2  0  0  0  0
 11 47  1  0  0  0  0
 12 48  1  0  0  0  0
 13 12  1  0  0  0  0
 13 49  1  0  0  0  0
 14 13  2  0  0  0  0
 14 15  1  0  0  0  0
 15 16  1  0  0  0  0
 16 17  1  0  0  0  0
 16 22  2  0  0  0  0
 17 18  2  0  0  0  0
 17 19  1  0  0  0  0
 19 50  1  0  0  0  0
 20 21  2  0  0  0  0
 20 19  1  0  0  0  0
 22 20  1  0  0  0  0
 22 23  1  0  0  0  0
 23 24  1  0  0  0  0
 23 31  2  0  0  0  0
 24 25  2  0  0  0  0
 24 29  1  0  0  0  0
 25 26  1  0  0  0  0
 25 51  1  0  0  0  0
 26 27  2  0  0  0  0
 26 52  1  0  0  0  0
 27 53  1  0  0  0  0
 28 27  1  0  0  0  0
 28 54  1  0  0  0  0
 29 28  2  0  0  0  0
 30 29  1  0  0  0  0
 30 55  1  0  0  0  0
 31 30  1  0  0  0  0
 31 56  1  0  0  0  0
M  CHG  1   2   1
M  END
