1uvs_ligand
 OpenBabel08222323343D

 67 69  0  0  1  0  0  0  0  0999 V2000
  -14.2180   71.3980  179.0320 C   0  0  0  0  0  0  0  0  0  0  0  0
  -15.2580   70.4900  178.3270 C   0  0  0  0  0  0  0  0  0  0  0  0
  -14.6890   69.0660  178.1910 C   0  0  0  0  0  0  0  0  0  0  0  0
  -13.4110   69.0900  177.3340 C   0  0  0  0  0  0  0  0  0  0  0  0
  -12.3690   69.9550  178.0720 C   0  0  0  0  0  0  0  0  0  0  0  0
  -12.8880   71.3990  178.2650 C   0  0  0  0  0  0  0  0  0  0  0  0
  -15.9430   67.9520  177.4860 S   0  0  0  0  0  0  0  0  0  0  0  0
  -17.2430   68.2660  178.0360 O   0  0  0  0  0  0  0  0  0  0  0  0
  -15.5690   66.6470  177.9620 O   0  0  0  0  0  0  0  0  0  0  0  0
  -16.1320   67.9780  175.8560 N   0  0  0  0  0  0  0  0  0  0  0  0
  -15.6040   66.9480  175.1880 C   0  0  0  0  0  0  0  0  0  0  0  0
  -14.7440   67.2670  174.0370 C   0  0  0  0  0  0  0  0  0  0  0  0
  -14.6660   68.4630  173.7340 O   0  0  0  0  0  0  0  0  0  0  0  0
  -14.0700   66.2960  173.3860 N   0  0  0  0  0  0  0  0  0  0  0  0
  -13.3320   66.6720  172.1910 C   0  0  2  0  0  0  0  0  0  0  0  0
  -14.0640   66.1050  170.9500 C   0  0  0  0  0  0  0  0  0  0  0  0
  -13.9150   67.0190  169.7090 C   0  0  0  0  0  0  0  0  0  0  0  0
  -14.4510   68.3700  169.8780 N   0  0  0  0  0  0  0  0  0  0  0  0
  -15.6700   68.6850  169.4830 C   0  0  0  0  0  0  0  0  0  0  0  0
  -16.7890   67.9140  169.8150 C   0  0  0  0  0  0  0  0  0  0  0  0
  -18.0460   68.2720  169.2880 C   0  0  0  0  0  0  0  0  0  0  0  0
  -18.2010   69.3070  168.4930 N   0  0  0  0  0  0  0  0  0  0  0  0
  -17.2510   70.2210  168.3850 C   0  0  0  0  0  0  0  0  0  0  0  0
  -15.9320   69.9520  168.7760 C   0  0  0  0  0  0  0  0  0  0  0  0
  -11.8720   66.2470  172.2530 C   0  0  0  0  0  0  0  0  0  0  0  0
  -11.4940   65.2330  171.6780 O   0  0  0  0  0  0  0  0  0  0  0  0
  -11.0460   66.9060  173.1060 N   0  0  0  0  0  0  0  0  0  0  0  0
  -11.0360   68.3670  173.1000 C   0  0  0  0  0  0  0  0  0  0  0  0
  -10.9680   68.8510  174.5720 C   0  0  0  0  0  0  0  0  0  0  0  0
   -9.8430   68.1980  175.4210 C   0  0  0  0  0  0  0  0  0  0  0  0
   -9.1660   67.0120  174.7040 C   0  0  0  0  0  0  0  0  0  0  0  0
  -10.2470   66.1270  174.0530 C   0  0  0  0  0  0  0  0  0  0  0  0
  -14.0458   71.0247  180.0523 H   0  0  0  0  0  0  0  0  0  0  0  0
  -14.6085   72.4253  179.0784 H   0  0  0  0  0  0  0  0  0  0  0  0
  -15.4790   70.8933  177.3277 H   0  0  0  0  0  0  0  0  0  0  0  0
  -16.1821   70.4600  178.9229 H   0  0  0  0  0  0  0  0  0  0  0  0
  -14.4256   68.6974  179.1934 H   0  0  0  0  0  0  0  0  0  0  0  0
  -13.6291   69.5258  176.3479 H   0  0  0  0  0  0  0  0  0  0  0  0
  -13.0262   68.0675  177.2060 H   0  0  0  0  0  0  0  0  0  0  0  0
  -11.4406   69.9817  177.4826 H   0  0  0  0  0  0  0  0  0  0  0  0
  -12.1651   69.5109  179.0575 H   0  0  0  0  0  0  0  0  0  0  0  0
  -12.1441   71.9775  178.8323 H   0  0  0  0  0  0  0  0  0  0  0  0
  -13.0396   71.8632  177.2794 H   0  0  0  0  0  0  0  0  0  0  0  0
  -16.6136   68.7204  175.3903 H   0  0  0  0  0  0  0  0  0  0  0  0
  -16.4361   66.3304  174.8190 H   0  0  0  0  0  0  0  0  0  0  0  0
  -15.0020   66.3645  175.9001 H   0  0  0  0  0  0  0  0  0  0  0  0
  -14.0778   65.3513  173.7138 H   0  0  0  0  0  0  0  0  0  0  0  0
  -13.3466   67.7694  172.1176 H   0  0  0  0  0  0  0  0  0  0  0  0
  -15.1333   66.0021  171.1868 H   0  0  0  0  0  0  0  0  0  0  0  0
  -13.6441   65.1163  170.7131 H   0  0  0  0  0  0  0  0  0  0  0  0
  -14.4416   66.5440  168.8681 H   0  0  0  0  0  0  0  0  0  0  0  0
  -12.8443   67.1023  169.4711 H   0  0  0  0  0  0  0  0  0  0  0  0
  -13.8623   69.0928  170.3160 H   0  0  0  0  0  0  0  0  0  0  0  0
  -16.6907   67.0542  170.4678 H   0  0  0  0  0  0  0  0  0  0  0  0
  -18.9128   67.6746  169.5466 H   0  0  0  0  0  0  0  0  0  0  0  0
  -17.4975   71.1982  167.9859 H   0  0  0  0  0  0  0  0  0  0  0  0
  -15.1315   70.6520  168.5656 H   0  0  0  0  0  0  0  0  0  0  0  0
  -11.9532   68.7448  172.6247 H   0  0  0  0  0  0  0  0  0  0  0  0
  -10.1587   68.7322  172.5459 H   0  0  0  0  0  0  0  0  0  0  0  0
  -11.9324   68.6263  175.0510 H   0  0  0  0  0  0  0  0  0  0  0  0
  -10.8055   69.9389  174.5674 H   0  0  0  0  0  0  0  0  0  0  0  0
  -10.2790   67.8363  176.3639 H   0  0  0  0  0  0  0  0  0  0  0  0
   -9.0796   68.9595  175.6384 H   0  0  0  0  0  0  0  0  0  0  0  0
   -8.5955   66.4185  175.4336 H   0  0  0  0  0  0  0  0  0  0  0  0
   -8.4854   67.3917  173.9278 H   0  0  0  0  0  0  0  0  0  0  0  0
   -9.7617   65.2964  173.5196 H   0  0  0  0  0  0  0  0  0  0  0  0
  -10.9055   65.7245  174.8368 H   0  0  0  0  0  0  0  0  0  0  0  0
  1  2  1  0  0  0  0
  1  6  1  0  0  0  0
  1 33  1  0  0  0  0
  1 34  1  0  0  0  0
  2  3  1  0  0  0  0
  2 35  1  0  0  0  0
  2 36  1  0  0  0  0
  3  4  1  0  0  0  0
  3  7  1  0  0  0  0
  3 37  1  0  0  0  0
  4  5  1  0  0  0  0
  4 38  1  0  0  0  0
  4 39  1  0  0  0  0
  5  6  1  0  0  0  0
  5 40  1  0  0  0  0
  5 41  1  0  0  0  0
  6 42  1  0  0  0  0
  6 43  1  0  0  0  0
  7  8  2  0  0  0  0
  7  9  2  0  0  0  0
  7 10  1  0  0  0  0
 10 11  1  0  0  0  0
 10 44  1  0  0  0  0
 11 12  1  0  0  0  0
 11 45  1  0  0  0  0
 11 46  1  0  0  0  0
 12 13  2  0  0  0  0
 12 14  1  0  0  0  0
 14 15  1  0  0  0  0
 14 47  1  0  0  0  0
 15 16  1  0  0  0  0
 15 25  1  0  0  0  0
 15 48  1  6  0  0  0
 16 17  1  0  0  0  0
 16 49  1  0  0  0  0
 16 50  1  0  0  0  0
 17 18  1  0  0  0  0
 17 51  1  0  0  0  0
 17 52  1  0  0  0  0
 18 19  1  0  0  0  0
 18 53  1  0  0  0  0
 19 20  2  0  0  0  0
 19 24  1  0  0  0  0
 20 21  1  0  0  0  0
 20 54  1  0  0  0  0
 21 22  2  0  0  0  0
 21 55  1  0  0  0  0
 22 23  1  0  0  0  0
 23 24  2  0  0  0  0
 23 56  1  0  0  0  0
 24 57  1  0  0  0  0
 25 26  2  0  0  0  0
 25 27  1  0  0  0  0
 27 28  1  0  0  0  0
 27 32  1  0  0  0  0
 28 29  1  0  0  0  0
 28 58  1  0  0  0  0
 28 59  1  0  0  0  0
 29 30  1  0  0  0  0
 29 60  1  0  0  0  0
 29 61  1  0  0  0  0
 30 31  1  0  0  0  0
 30 62  1  0  0  0  0
 30 63  1  0  0  0  0
 31 32  1  0  0  0  0
 31 64  1  0  0  0  0
 31 65  1  0  0  0  0
 32 66  1  0  0  0  0
 32 67  1  0  0  0  0
M  END
