1uvu_ligand
 OpenBabel08222323343D

 39 40  0  0  0  0  0  0  0  0999 V2000
  -40.5130  -31.7940   40.6990 C   0  0  0  0  0  3  0  0  0  0  0  0
  -41.4660  -30.9130   40.4530 N   0  0  0  0  0  0  0  0  0  0  0  0
  -40.6450  -33.1040   40.7160 N   0  0  0  0  0  0  0  0  0  0  0  0
  -39.1950  -31.1150   40.9500 C   0  0  0  0  0  0  0  0  0  0  0  0
  -38.3370  -31.6200   41.9030 C   0  0  0  0  0  0  0  0  0  0  0  0
  -37.1250  -30.9650   42.1090 C   0  0  0  0  0  0  0  0  0  0  0  0
  -36.2890  -31.5020   43.0770 C   0  0  0  0  0  0  0  0  0  0  0  0
  -35.0500  -30.9210   43.3510 C   0  0  0  0  0  0  0  0  0  0  0  0
  -34.6680  -29.7420   42.6540 C   0  0  0  0  0  0  0  0  0  0  0  0
  -35.5100  -29.1720   41.6780 C   0  0  0  0  0  0  0  0  0  0  0  0
  -36.7450  -29.7830   41.3980 C   0  0  0  0  0  0  0  0  0  0  0  0
  -37.5960  -29.2590   40.4370 C   0  0  0  0  0  0  0  0  0  0  0  0
  -38.8120  -29.9430   40.2200 C   0  0  0  0  0  0  0  0  0  0  0  0
  -34.2340  -31.5860   44.4640 C   0  0  0  0  0  0  0  0  0  0  0  0
  -34.7480  -30.9950   45.8200 C   0  0  0  0  0  0  0  0  0  0  0  0
  -34.7110  -29.4350   45.9130 C   0  0  0  0  0  0  0  0  0  0  0  0
  -35.5520  -28.8830   46.6220 O   0  0  0  0  0  0  0  0  0  0  0  0
  -33.7450  -28.7320   45.1840 O   0  0  0  0  0  0  0  0  0  0  0  0
  -33.1660  -27.4690   45.7410 C   0  0  0  0  0  0  0  0  0  0  0  0
  -32.5910  -26.8750   44.4140 C   0  0  0  0  0  0  0  0  0  0  0  0
  -41.2517  -29.9056   40.4653 H   0  0  0  0  0  0  0  0  0  0  0  0
  -42.4234  -31.2334   40.2489 H   0  0  0  0  0  0  0  0  0  0  0  0
  -39.8310  -33.7010   40.9206 H   0  0  0  0  0  0  0  0  0  0  0  0
  -41.5623  -33.5317   40.5247 H   0  0  0  0  0  0  0  0  0  0  0  0
  -38.5980  -32.5022   42.4762 H   0  0  0  0  0  0  0  0  0  0  0  0
  -36.6015  -32.3825   43.6266 H   0  0  0  0  0  0  0  0  0  0  0  0
  -33.7155  -29.2748   42.8765 H   0  0  0  0  0  0  0  0  0  0  0  0
  -35.2094  -28.2742   41.1501 H   0  0  0  0  0  0  0  0  0  0  0  0
  -37.3398  -28.3660   39.8784 H   0  0  0  0  0  0  0  0  0  0  0  0
  -39.4892  -29.5627   39.4638 H   0  0  0  0  0  0  0  0  0  0  0  0
  -33.1649  -31.3619   44.3348 H   0  0  0  0  0  0  0  0  0  0  0  0
  -34.3852  -32.6754   44.4447 H   0  0  0  0  0  0  0  0  0  0  0  0
  -34.1224  -31.4006   46.6288 H   0  0  0  0  0  0  0  0  0  0  0  0
  -35.7887  -31.3214   45.9626 H   0  0  0  0  0  0  0  0  0  0  0  0
  -32.3781  -27.6658   46.4829 H   0  0  0  0  0  0  0  0  0  0  0  0
  -33.9354  -26.8211   46.1863 H   0  0  0  0  0  0  0  0  0  0  0  0
  -32.1073  -25.9096   44.6238 H   0  0  0  0  0  0  0  0  0  0  0  0
  -33.4092  -26.7263   43.6940 H   0  0  0  0  0  0  0  0  0  0  0  0
  -31.8519  -27.5711   43.9906 H   0  0  0  0  0  0  0  0  0  0  0  0
  1  2  1  0  0  0  0
  1  3  1  0  0  0  0
  1  4  1  0  0  0  0
  2 21  1  0  0  0  0
  2 22  1  0  0  0  0
  3 23  1  0  0  0  0
  3 24  1  0  0  0  0
  4  5  2  0  0  0  0
  4 13  1  0  0  0  0
  5  6  1  0  0  0  0
  5 25  1  0  0  0  0
  6  7  2  0  0  0  0
  6 11  1  0  0  0  0
  7  8  1  0  0  0  0
  7 26  1  0  0  0  0
  8  9  2  0  0  0  0
  8 14  1  0  0  0  0
  9 10  1  0  0  0  0
  9 27  1  0  0  0  0
 10 11  2  0  0  0  0
 10 28  1  0  0  0  0
 11 12  1  0  0  0  0
 12 13  2  0  0  0  0
 12 29  1  0  0  0  0
 13 30  1  0  0  0  0
 14 15  1  0  0  0  0
 14 31  1  0  0  0  0
 14 32  1  0  0  0  0
 15 16  1  0  0  0  0
 15 33  1  0  0  0  0
 15 34  1  0  0  0  0
 16 17  2  0  0  0  0
 16 18  1  0  0  0  0
 18 19  1  0  0  0  0
 19 20  1  0  0  0  0
 19 35  1  0  0  0  0
 19 36  1  0  0  0  0
 20 37  1  0  0  0  0
 20 38  1  0  0  0  0
 20 39  1  0  0  0  0
M  END
