1uy6_ligand
 OpenBabel08222323343D

 52 54  0  0  0  0  0  0  0  0999 V2000
    8.2560   10.1870   23.0600 C   0  0  0  0  0  0  0  0  0  0  0  0
    8.0950   11.3890   23.8530 O   0  0  0  0  0  0  0  0  0  0  0  0
    6.8220   11.8930   24.0150 C   0  0  0  0  0  0  0  0  0  0  0  0
    5.6590   11.2860   23.4960 C   0  0  0  0  0  0  0  0  0  0  0  0
    6.6540   13.0700   24.8410 C   0  0  0  0  0  0  0  0  0  0  0  0
    7.7140   13.7150   25.3760 O   0  0  0  0  0  0  0  0  0  0  0  0
    8.0410   15.0020   24.8170 C   0  0  0  0  0  0  0  0  0  0  0  0
    5.3100   13.5540   25.1120 C   0  0  0  0  0  0  0  0  0  0  0  0
    5.2900   14.7170   25.8570 O   0  0  0  0  0  0  0  0  0  0  0  0
    4.1560   15.5370   25.9070 C   0  0  0  0  0  0  0  0  0  0  0  0
    4.1860   12.8870   24.5880 C   0  0  0  0  0  0  0  0  0  0  0  0
    4.3830   11.7460   23.7770 C   0  0  0  0  0  0  0  0  0  0  0  0
    3.2090   11.0270   23.1370 C   0  0  0  0  0  0  0  0  0  0  0  0
    1.9940   10.7670   23.9920 C   0  0  0  0  0  0  0  0  0  0  0  0
    0.8030   11.3050   23.7050 N   0  0  0  0  0  0  0  0  0  0  0  0
    0.0520   10.9000   24.7540 C   0  0  0  0  0  0  0  0  0  0  0  0
   -1.3510   11.0400   25.1150 C   0  0  0  0  0  0  0  0  0  0  0  0
   -2.1950   11.7260   24.3210 N   0  0  0  0  0  0  0  0  0  0  0  0
    0.8580   10.0890   25.6590 C   0  0  0  0  0  0  0  0  0  0  0  0
    0.3420    9.5640   26.7850 N   0  0  0  0  0  0  0  0  0  0  0  0
   -0.9570    9.7930   27.0860 C   0  0  0  0  0  0  0  0  0  0  0  0
   -1.7780   10.5150   26.2810 N   0  0  0  0  0  0  0  0  0  0  0  0
    2.0680   10.0630   25.1400 N   0  0  0  0  0  0  0  0  0  0  0  0
    3.1820    9.3050   25.7100 C   0  0  0  0  0  0  0  0  0  0  0  0
    2.9290    7.8460   25.3350 C   0  0  0  0  0  0  0  0  0  0  0  0
    4.0350    7.2060   24.5160 C   0  0  0  0  0  0  0  0  0  0  0  0
    4.0540    5.7230   24.9060 C   0  0  0  0  0  0  0  0  0  0  0  0
    9.3203    9.9116   23.0236 H   0  0  0  0  0  0  0  0  0  0  0  0
    7.8894   10.3694   22.0391 H   0  0  0  0  0  0  0  0  0  0  0  0
    7.6806    9.3675   23.5153 H   0  0  0  0  0  0  0  0  0  0  0  0
    5.7687   10.4227   22.8497 H   0  0  0  0  0  0  0  0  0  0  0  0
    8.9168   15.4162   25.3380 H   0  0  0  0  0  0  0  0  0  0  0  0
    7.1858   15.6829   24.9392 H   0  0  0  0  0  0  0  0  0  0  0  0
    8.2702   14.8895   23.7471 H   0  0  0  0  0  0  0  0  0  0  0  0
    4.3582   16.4033   26.5541 H   0  0  0  0  0  0  0  0  0  0  0  0
    3.3082   14.9659   26.3132 H   0  0  0  0  0  0  0  0  0  0  0  0
    3.9109   15.8860   24.8931 H   0  0  0  0  0  0  0  0  0  0  0  0
    3.1850   13.2430   24.8032 H   0  0  0  0  0  0  0  0  0  0  0  0
    3.5750   10.0524   22.7817 H   0  0  0  0  0  0  0  0  0  0  0  0
    2.8826   11.6315   22.2779 H   0  0  0  0  0  0  0  0  0  0  0  0
   -3.1865   11.8207   24.5833 H   0  0  0  0  0  0  0  0  0  0  0  0
   -1.8490   12.1561   23.4514 H   0  0  0  0  0  0  0  0  0  0  0  0
   -1.3581    9.3839   28.0062 H   0  0  0  0  0  0  0  0  0  0  0  0
    3.2041    9.4209   26.8036 H   0  0  0  0  0  0  0  0  0  0  0  0
    4.1365    9.6494   25.2854 H   0  0  0  0  0  0  0  0  0  0  0  0
    1.9976    7.7976   24.7517 H   0  0  0  0  0  0  0  0  0  0  0  0
    2.8107    7.2681   26.2634 H   0  0  0  0  0  0  0  0  0  0  0  0
    5.0025    7.6741   24.7503 H   0  0  0  0  0  0  0  0  0  0  0  0
    3.8255    7.3149   23.4416 H   0  0  0  0  0  0  0  0  0  0  0  0
    4.8419    5.2050   24.3396 H   0  0  0  0  0  0  0  0  0  0  0  0
    3.0784    5.2705   24.6747 H   0  0  0  0  0  0  0  0  0  0  0  0
    4.2554    5.6297   25.9834 H   0  0  0  0  0  0  0  0  0  0  0  0
  1  2  1  0  0  0  0
  1 28  1  0  0  0  0
  1 29  1  0  0  0  0
  1 30  1  0  0  0  0
  2  3  1  0  0  0  0
  3  4  2  0  0  0  0
  3  5  1  0  0  0  0
  4 12  1  0  0  0  0
  4 31  1  0  0  0  0
  5  6  1  0  0  0  0
  5  8  2  0  0  0  0
  6  7  1  0  0  0  0
  7 32  1  0  0  0  0
  7 33  1  0  0  0  0
  7 34  1  0  0  0  0
  8  9  1  0  0  0  0
  8 11  1  0  0  0  0
  9 10  1  0  0  0  0
 10 35  1  0  0  0  0
 10 36  1  0  0  0  0
 10 37  1  0  0  0  0
 11 12  2  0  0  0  0
 11 38  1  0  0  0  0
 12 13  1  0  0  0  0
 13 14  1  0  0  0  0
 13 39  1  0  0  0  0
 13 40  1  0  0  0  0
 14 15  2  0  0  0  0
 14 23  1  0  0  0  0
 15 16  1  0  0  0  0
 16 17  2  0  0  0  0
 16 19  1  0  0  0  0
 17 18  1  0  0  0  0
 17 22  1  0  0  0  0
 18 41  1  0  0  0  0
 18 42  1  0  0  0  0
 19 20  2  0  0  0  0
 19 23  1  0  0  0  0
 20 21  1  0  0  0  0
 21 22  2  0  0  0  0
 21 43  1  0  0  0  0
 23 24  1  0  0  0  0
 24 25  1  0  0  0  0
 24 44  1  0  0  0  0
 24 45  1  0  0  0  0
 25 26  1  0  0  0  0
 25 46  1  0  0  0  0
 25 47  1  0  0  0  0
 26 27  1  0  0  0  0
 26 48  1  0  0  0  0
 26 49  1  0  0  0  0
 27 50  1  0  0  0  0
 27 51  1  0  0  0  0
 27 52  1  0  0  0  0
M  END
