1uy9_ligand
 OpenBabel08222323343D

 43 46  0  0  0  0  0  0  0  0999 V2000
    4.9830    7.5760   23.7480 C   0  0  0  0  0  0  0  0  0  0  0  0
    3.5060    7.4260   24.1100 C   0  0  0  0  0  0  0  0  0  0  0  0
    3.1540    7.8810   25.5340 C   0  0  0  0  0  0  0  0  0  0  0  0
    3.2590    9.4030   25.7530 C   0  0  0  0  0  0  0  0  0  0  0  0
    2.0760   10.0190   25.1410 N   0  0  0  0  0  0  0  0  0  0  0  0
    0.8200   10.0430   25.6620 C   0  0  0  0  0  0  0  0  0  0  0  0
    0.3600    9.5230   26.8260 N   0  0  0  0  0  0  0  0  0  0  0  0
   -0.9510    9.6980   27.1070 C   0  0  0  0  0  0  0  0  0  0  0  0
   -1.7740   10.3570   26.2580 N   0  0  0  0  0  0  0  0  0  0  0  0
   -0.0120   10.7330   24.7930 C   0  0  0  0  0  0  0  0  0  0  0  0
   -1.3440   10.8860   25.0860 C   0  0  0  0  0  0  0  0  0  0  0  0
   -2.2200   11.5340   24.2540 N   0  0  0  0  0  0  0  0  0  0  0  0
    0.7760   11.1190   23.7730 N   0  0  0  0  0  0  0  0  0  0  0  0
    2.0420   10.6920   23.9610 C   0  0  0  0  0  0  0  0  0  0  0  0
    3.2450   10.9050   23.0700 C   0  0  0  0  0  0  0  0  0  0  0  0
    4.1030   12.0040   23.6760 C   0  0  0  0  0  0  0  0  0  0  0  0
    3.5210   13.1730   24.2180 C   0  0  0  0  0  0  0  0  0  0  0  0
    4.3850   14.1340   24.7300 C   0  0  0  0  0  0  0  0  0  0  0  0
    5.4980   11.8400   23.6620 C   0  0  0  0  0  0  0  0  0  0  0  0
    4.0980   15.3560   25.3160 O   0  0  0  0  0  0  0  0  0  0  0  0
    6.3360   12.8310   24.1870 C   0  0  0  0  0  0  0  0  0  0  0  0
    5.7420   13.9700   24.7070 C   0  0  0  0  0  0  0  0  0  0  0  0
    6.3480   15.0850   25.2850 O   0  0  0  0  0  0  0  0  0  0  0  0
    5.3240   16.0030   25.6900 C   0  0  0  0  0  0  0  0  0  0  0  0
    5.1449    7.2287   22.7169 H   0  0  0  0  0  0  0  0  0  0  0  0
    5.5926    6.9737   24.4377 H   0  0  0  0  0  0  0  0  0  0  0  0
    5.2748    8.6335   23.8288 H   0  0  0  0  0  0  0  0  0  0  0  0
    3.2330    6.3651   24.0102 H   0  0  0  0  0  0  0  0  0  0  0  0
    2.9152    8.0249   23.4013 H   0  0  0  0  0  0  0  0  0  0  0  0
    3.8400    7.3832   26.2351 H   0  0  0  0  0  0  0  0  0  0  0  0
    2.1207    7.5716   25.7499 H   0  0  0  0  0  0  0  0  0  0  0  0
    4.1723    9.7889   25.2766 H   0  0  0  0  0  0  0  0  0  0  0  0
    3.2844    9.6267   26.8297 H   0  0  0  0  0  0  0  0  0  0  0  0
   -1.3519    9.3017   28.0329 H   0  0  0  0  0  0  0  0  0  0  0  0
   -1.8863   11.9334   23.3652 H   0  0  0  0  0  0  0  0  0  0  0  0
   -3.2118   11.6214   24.5177 H   0  0  0  0  0  0  0  0  0  0  0  0
    2.9142   11.2040   22.0645 H   0  0  0  0  0  0  0  0  0  0  0  0
    3.8270    9.9740   23.0028 H   0  0  0  0  0  0  0  0  0  0  0  0
    2.4463   13.3139   24.2336 H   0  0  0  0  0  0  0  0  0  0  0  0
    5.9292   10.9388   23.2413 H   0  0  0  0  0  0  0  0  0  0  0  0
    7.4134   12.7114   24.1868 H   0  0  0  0  0  0  0  0  0  0  0  0
    5.3597   16.1717   26.7764 H   0  0  0  0  0  0  0  0  0  0  0  0
    5.4329   16.9639   25.1659 H   0  0  0  0  0  0  0  0  0  0  0  0
  1  2  1  0  0  0  0
  1 25  1  0  0  0  0
  1 26  1  0  0  0  0
  1 27  1  0  0  0  0
  2  3  1  0  0  0  0
  2 28  1  0  0  0  0
  2 29  1  0  0  0  0
  3  4  1  0  0  0  0
  3 30  1  0  0  0  0
  3 31  1  0  0  0  0
  4  5  1  0  0  0  0
  4 32  1  0  0  0  0
  4 33  1  0  0  0  0
  5  6  1  0  0  0  0
  5 14  1  0  0  0  0
  6  7  2  0  0  0  0
  6 10  1  0  0  0  0
  7  8  1  0  0  0  0
  8  9  2  0  0  0  0
  8 34  1  0  0  0  0
  9 11  1  0  0  0  0
 10 11  2  0  0  0  0
 10 13  1  0  0  0  0
 11 12  1  0  0  0  0
 12 35  1  0  0  0  0
 12 36  1  0  0  0  0
 13 14  2  0  0  0  0
 14 15  1  0  0  0  0
 15 16  1  0  0  0  0
 15 37  1  0  0  0  0
 15 38  1  0  0  0  0
 16 17  2  0  0  0  0
 16 19  1  0  0  0  0
 17 18  1  0  0  0  0
 17 39  1  0  0  0  0
 18 20  1  0  0  0  0
 18 22  2  0  0  0  0
 19 21  2  0  0  0  0
 19 40  1  0  0  0  0
 20 24  1  0  0  0  0
 21 22  1  0  0  0  0
 21 41  1  0  0  0  0
 22 23  1  0  0  0  0
 23 24  1  0  0  0  0
 24 42  1  0  0  0  0
 24 43  1  0  0  0  0
M  END
