1uyg_ligand
 OpenBabel08222323343D

 36 38  0  0  0  0  0  0  0  0999 V2000
    7.6810   10.0890   22.8450 C   0  0  0  0  0  0  0  0  0  0  0  0
    2.2600    9.9580   25.3190 N   0  0  0  0  0  0  0  0  0  0  0  0
    1.0480   10.0930   25.7560 C   0  0  0  0  0  0  0  0  0  0  0  0
    0.5710    9.6940   26.9140 N   0  0  0  0  0  0  0  0  0  0  0  0
   -0.7110    9.9290   27.0940 C   0  0  0  0  0  0  0  0  0  0  0  0
    3.5150   10.5050   23.2700 C   0  0  0  0  0  0  0  0  0  0  0  0
   -1.5560   10.4980   26.2430 N   0  0  0  0  0  0  0  0  0  0  0  0
    0.2840   10.6970   24.8250 C   0  0  0  0  0  0  0  0  0  0  0  0
   -1.0660   10.8650   25.0730 C   0  0  0  0  0  0  0  0  0  0  0  0
   -1.9680   11.4750   24.1540 N   0  0  0  0  0  0  0  0  0  0  0  0
    1.0320   10.9440   23.7520 N   0  0  0  0  0  0  0  0  0  0  0  0
    2.2550   10.4610   24.0760 C   0  0  0  0  0  0  0  0  0  0  0  0
    5.7960   11.5440   23.4120 C   0  0  0  0  0  0  0  0  0  0  0  0
    4.4370   11.6390   23.6640 C   0  0  0  0  0  0  0  0  0  0  0  0
    3.9210   12.7510   24.2870 C   0  0  0  0  0  0  0  0  0  0  0  0
    6.6830   12.5560   23.7270 C   0  0  0  0  0  0  0  0  0  0  0  0
    6.1770   13.6970   24.3390 C   0  0  0  0  0  0  0  0  0  0  0  0
    4.8010   13.7840   24.6080 C   0  0  0  0  0  0  0  0  0  0  0  0
   -1.3040    9.4820   28.5200 F   0  0  0  0  0  0  0  0  0  0  0  0
    4.2350   14.9180   25.2610 O   0  0  0  0  0  0  0  0  0  0  0  0
    6.2690   10.3840   22.8050 O   0  0  0  0  0  0  0  0  0  0  0  0
    5.0310   16.0220   25.7110 C   0  0  0  0  0  0  0  0  0  0  0  0
    7.8726    9.1416   22.3199 H   0  0  0  0  0  0  0  0  0  0  0  0
    8.0077   10.0007   23.8916 H   0  0  0  0  0  0  0  0  0  0  0  0
    8.2391   10.8997   22.3538 H   0  0  0  0  0  0  0  0  0  0  0  0
    3.0608    9.5494   25.8217 H   0  0  0  0  0  0  0  0  0  0  0  0
    3.2475   10.6245   22.2097 H   0  0  0  0  0  0  0  0  0  0  0  0
    4.0514    9.5546   23.4080 H   0  0  0  0  0  0  0  0  0  0  0  0
   -1.6332   11.7785   23.2284 H   0  0  0  0  0  0  0  0  0  0  0  0
   -2.9548   11.6124   24.4153 H   0  0  0  0  0  0  0  0  0  0  0  0
    2.8649   12.8222   24.5209 H   0  0  0  0  0  0  0  0  0  0  0  0
    7.7397   12.4630   23.5039 H   0  0  0  0  0  0  0  0  0  0  0  0
    6.8388   14.5128   24.6064 H   0  0  0  0  0  0  0  0  0  0  0  0
    4.3814   16.7744   26.1821 H   0  0  0  0  0  0  0  0  0  0  0  0
    5.5515   16.4725   24.8531 H   0  0  0  0  0  0  0  0  0  0  0  0
    5.7708   15.6663   26.4432 H   0  0  0  0  0  0  0  0  0  0  0  0
  1 23  1  0  0  0  0
  1 24  1  0  0  0  0
  1 25  1  0  0  0  0
  2  3  1  0  0  0  0
  2 26  1  0  0  0  0
  3  4  2  0  0  0  0
  4  5  1  0  0  0  0
  5 19  1  0  0  0  0
  6 12  1  0  0  0  0
  6 27  1  0  0  0  0
  6 28  1  0  0  0  0
  7  5  2  0  0  0  0
  8  3  1  0  0  0  0
  8  9  2  0  0  0  0
  9  7  1  0  0  0  0
  9 10  1  0  0  0  0
 10 29  1  0  0  0  0
 10 30  1  0  0  0  0
 11  8  1  0  0  0  0
 12  2  1  0  0  0  0
 12 11  2  0  0  0  0
 13 14  2  0  0  0  0
 13 16  1  0  0  0  0
 13 21  1  0  0  0  0
 14  6  1  0  0  0  0
 14 15  1  0  0  0  0
 15 18  2  0  0  0  0
 15 31  1  0  0  0  0
 16 17  2  0  0  0  0
 16 32  1  0  0  0  0
 17 18  1  0  0  0  0
 17 33  1  0  0  0  0
 18 20  1  0  0  0  0
 20 22  1  0  0  0  0
 21  1  1  0  0  0  0
 22 34  1  0  0  0  0
 22 35  1  0  0  0  0
 22 36  1  0  0  0  0
M  END
