1uyk_ligand
 OpenBabel08222323343D

 43 46  0  0  0  0  0  0  0  0999 V2000
    5.3940    7.6590   24.4680 C   0  0  0  0  0  0  0  0  0  0  0  0
    4.0100    7.1350   24.8390 C   0  0  0  0  0  0  0  0  0  0  0  0
    3.3890    7.7240   26.1230 C   0  0  0  0  0  0  0  0  0  0  0  0
    3.2200    9.2470   26.2410 C   0  0  0  0  0  0  0  0  0  0  0  0
    2.0930    9.8900   25.5500 N   0  0  0  0  0  0  0  0  0  0  0  0
    0.8250   10.0070   26.0520 C   0  0  0  0  0  0  0  0  0  0  0  0
    0.3140    9.5400   27.2570 N   0  0  0  0  0  0  0  0  0  0  0  0
   -0.9760    9.6780   27.6180 C   0  0  0  0  0  0  0  0  0  0  0  0
   -1.7200   10.3440   26.6920 N   0  0  0  0  0  0  0  0  0  0  0  0
    0.0060   10.6760   25.1210 C   0  0  0  0  0  0  0  0  0  0  0  0
   -1.3120   10.8640   25.4670 C   0  0  0  0  0  0  0  0  0  0  0  0
   -2.1950   11.5520   24.6520 N   0  0  0  0  0  0  0  0  0  0  0  0
    0.7570   10.9790   24.0390 N   0  0  0  0  0  0  0  0  0  0  0  0
    2.0730   10.5310   24.2650 C   0  0  0  0  0  0  0  0  0  0  0  0
    3.3060   10.7450   23.2830 C   0  0  0  0  0  0  0  0  0  0  0  0
    4.1450   11.9080   23.7980 C   0  0  0  0  0  0  0  0  0  0  0  0
    3.5400   13.0490   24.3440 C   0  0  0  0  0  0  0  0  0  0  0  0
    4.4210   14.0360   24.8000 C   0  0  0  0  0  0  0  0  0  0  0  0
    5.5280   11.7650   23.7620 C   0  0  0  0  0  0  0  0  0  0  0  0
    4.1730   15.2730   25.3690 O   0  0  0  0  0  0  0  0  0  0  0  0
    6.4250   12.7800   24.2490 C   0  0  0  0  0  0  0  0  0  0  0  0
    5.7770   13.9010   24.7390 C   0  0  0  0  0  0  0  0  0  0  0  0
    6.3090   14.9930   25.2870 O   0  0  0  0  0  0  0  0  0  0  0  0
    5.3560   15.8990   25.8170 C   0  0  0  0  0  0  0  0  0  0  0  0
   -1.8330    9.3920   29.0180 F   0  0  0  0  0  0  0  0  0  0  0  0
    5.7342    7.1723   23.5421 H   0  0  0  0  0  0  0  0  0  0  0  0
    6.1007    7.4355   25.2807 H   0  0  0  0  0  0  0  0  0  0  0  0
    5.3449    8.7470   24.3136 H   0  0  0  0  0  0  0  0  0  0  0  0
    4.0860    6.0455   24.9704 H   0  0  0  0  0  0  0  0  0  0  0  0
    3.3302    7.3570   24.0032 H   0  0  0  0  0  0  0  0  0  0  0  0
    4.0232    7.4046   26.9631 H   0  0  0  0  0  0  0  0  0  0  0  0
    2.3883    7.2800   26.2295 H   0  0  0  0  0  0  0  0  0  0  0  0
    4.1414    9.7056   25.8528 H   0  0  0  0  0  0  0  0  0  0  0  0
    3.1178    9.4790   27.3114 H   0  0  0  0  0  0  0  0  0  0  0  0
   -1.8747   11.9296   23.7488 H   0  0  0  0  0  0  0  0  0  0  0  0
   -3.1721   11.6862   24.9489 H   0  0  0  0  0  0  0  0  0  0  0  0
    2.9384   10.9732   22.2717 H   0  0  0  0  0  0  0  0  0  0  0  0
    3.9183    9.8317   23.2532 H   0  0  0  0  0  0  0  0  0  0  0  0
    2.4635   13.1590   24.4085 H   0  0  0  0  0  0  0  0  0  0  0  0
    5.9468   10.8535   23.3511 H   0  0  0  0  0  0  0  0  0  0  0  0
    7.5040   12.6766   24.2336 H   0  0  0  0  0  0  0  0  0  0  0  0
    5.4037   15.9505   26.9147 H   0  0  0  0  0  0  0  0  0  0  0  0
    5.4711   16.9092   25.3972 H   0  0  0  0  0  0  0  0  0  0  0  0
  1  2  1  0  0  0  0
  1 26  1  0  0  0  0
  1 27  1  0  0  0  0
  1 28  1  0  0  0  0
  2  3  1  0  0  0  0
  2 29  1  0  0  0  0
  2 30  1  0  0  0  0
  3  4  1  0  0  0  0
  3 31  1  0  0  0  0
  3 32  1  0  0  0  0
  4  5  1  0  0  0  0
  4 33  1  0  0  0  0
  4 34  1  0  0  0  0
  5  6  1  0  0  0  0
  5 14  1  0  0  0  0
  6  7  2  0  0  0  0
  6 10  1  0  0  0  0
  7  8  1  0  0  0  0
  8  9  2  0  0  0  0
  8 25  1  0  0  0  0
  9 11  1  0  0  0  0
 10 11  2  0  0  0  0
 10 13  1  0  0  0  0
 11 12  1  0  0  0  0
 12 35  1  0  0  0  0
 12 36  1  0  0  0  0
 13 14  2  0  0  0  0
 14 15  1  0  0  0  0
 15 16  1  0  0  0  0
 15 37  1  0  0  0  0
 15 38  1  0  0  0  0
 16 17  2  0  0  0  0
 16 19  1  0  0  0  0
 17 18  1  0  0  0  0
 17 39  1  0  0  0  0
 18 20  1  0  0  0  0
 18 22  2  0  0  0  0
 19 21  2  0  0  0  0
 19 40  1  0  0  0  0
 20 24  1  0  0  0  0
 21 22  1  0  0  0  0
 21 41  1  0  0  0  0
 22 23  1  0  0  0  0
 23 24  1  0  0  0  0
 24 42  1  0  0  0  0
 24 43  1  0  0  0  0
M  END
