1v0o_ligand
 OpenBabel08222323343D

 33 36  0  0  0  0  0  0  0  0999 V2000
   24.5200    3.0550   37.4810 C   0  0  0  0  0  0  0  0  0  0  0  0
   24.7150    3.9990   36.5040 C   0  0  0  0  0  0  0  0  0  0  0  0
   25.6460    2.5550   38.1180 C   0  0  0  0  0  0  0  0  0  0  0  0
   23.1810    2.7430   37.6870 N   0  0  0  0  0  0  0  0  0  0  0  0
   25.9590    4.4770   36.1080 C   0  0  0  0  0  0  0  0  0  0  0  0
   23.3610    4.3460   36.0350 C   0  0  0  0  0  0  0  0  0  0  0  0
   27.0780    3.9640   36.7600 C   0  0  0  0  0  0  0  0  0  0  0  0
   26.9210    3.0010   37.7650 C   0  0  0  0  0  0  0  0  0  0  0  0
   23.0550    5.1830   35.1180 O   0  0  0  0  0  0  0  0  0  0  0  0
   22.4480    3.4940   36.8400 C   0  0  0  0  0  0  0  0  0  0  0  0
   21.0570    3.4010   36.8100 C   0  0  0  0  0  0  0  0  0  0  0  0
   20.2650    2.4990   37.6880 C   0  0  0  0  0  0  0  0  0  0  0  0
   20.0040    4.0580   36.0100 C   0  0  0  0  0  0  0  0  0  0  0  0
   20.7540    1.7050   38.5860 O   0  0  0  0  0  0  0  0  0  0  0  0
   18.9500    2.6010   37.4510 N   0  0  0  0  0  0  0  0  0  0  0  0
   18.8260    3.5160   36.4740 C   0  0  0  0  0  0  0  0  0  0  0  0
   20.0000    5.0530   34.9640 C   0  0  0  0  0  0  0  0  0  0  0  0
   18.7640    5.4550   34.4190 C   0  0  0  0  0  0  0  0  0  0  0  0
   17.5690    4.8890   34.8970 C   0  0  0  0  0  0  0  0  0  0  0  0
   18.7130    6.5590   33.2370 S   0  0  0  0  0  0  0  0  0  0  0  0
   17.5760    3.9310   35.9120 C   0  0  0  0  0  0  0  0  0  0  0  0
   18.9740    7.9090   33.8110 O   0  0  0  0  0  1  0  0  0  0  0  0
   17.3720    6.6050   32.6280 O   0  0  0  0  0  1  0  0  0  0  0  0
   19.7360    6.3050   32.2200 O   0  0  0  0  0  1  0  0  0  0  0  0
   25.5350    1.8103   38.8979 H   0  0  0  0  0  0  0  0  0  0  0  0
   22.8143    2.0602   38.3654 H   0  0  0  0  0  0  0  0  0  0  0  0
   26.0543    5.2190   35.3235 H   0  0  0  0  0  0  0  0  0  0  0  0
   28.0693    4.3097   36.4899 H   0  0  0  0  0  0  0  0  0  0  0  0
   27.7924    2.6007   38.2704 H   0  0  0  0  0  0  0  0  0  0  0  0
   18.2138    2.1004   37.9064 H   0  0  0  0  0  0  0  0  0  0  0  0
   20.9285    5.4821   34.6052 H   0  0  0  0  0  0  0  0  0  0  0  0
   16.6238    5.2028   34.4689 H   0  0  0  0  0  0  0  0  0  0  0  0
   16.6456    3.5059   36.2709 H   0  0  0  0  0  0  0  0  0  0  0  0
  1  2  2  0  0  0  0
  1  3  1  0  0  0  0
  1  4  1  0  0  0  0
  2  5  1  0  0  0  0
  2  6  1  0  0  0  0
  3  8  2  0  0  0  0
  3 25  1  0  0  0  0
  4 10  1  0  0  0  0
  4 26  1  0  0  0  0
  5  7  2  0  0  0  0
  5 27  1  0  0  0  0
  6  9  2  0  0  0  0
  6 10  1  0  0  0  0
  7  8  1  0  0  0  0
  7 28  1  0  0  0  0
  8 29  1  0  0  0  0
 10 11  2  0  0  0  0
 11 12  1  0  0  0  0
 11 13  1  0  0  0  0
 12 14  2  0  0  0  0
 12 15  1  0  0  0  0
 13 16  2  0  0  0  0
 13 17  1  0  0  0  0
 15 16  1  0  0  0  0
 15 30  1  0  0  0  0
 16 21  1  0  0  0  0
 17 18  2  0  0  0  0
 17 31  1  0  0  0  0
 18 19  1  0  0  0  0
 18 20  1  0  0  0  0
 19 21  2  0  0  0  0
 19 32  1  0  0  0  0
 20 22  1  0  0  0  0
 20 23  1  0  0  0  0
 20 24  1  0  0  0  0
 21 33  1  0  0  0  0
M  END
