1v1k_ligand
 OpenBabel08222323343D

 57 59  0  0  1  0  0  0  0  0999 V2000
   13.6820   -8.5830   13.3310 C   0  0  0  0  0  0  0  0  0  0  0  0
   11.9190  -10.3240   14.4390 N   0  0  0  0  0  0  0  0  0  0  0  0
   12.6230   -9.1040   12.5640 C   0  0  0  0  0  0  0  0  0  0  0  0
   14.2580   -5.4090    9.3020 C   0  0  0  0  0  0  0  0  0  0  0  0
   13.2990   -5.2970   10.3030 C   0  0  0  0  0  0  0  0  0  0  0  0
   13.4090   -6.0450   11.4740 C   0  0  0  0  0  0  0  0  0  0  0  0
   14.4870   -6.9260   11.6460 C   0  0  0  0  0  0  0  0  0  0  0  0
   11.7200  -10.0030   13.1650 C   0  0  0  0  0  0  0  0  0  0  0  0
    9.5630  -11.5030   10.5110 C   0  0  0  0  0  0  0  0  0  0  0  0
   10.1720  -10.4300   11.1890 C   0  0  0  0  0  0  0  0  0  0  0  0
   15.4470   -7.0190   10.6380 C   0  0  0  0  0  0  0  0  0  0  0  0
   15.3400   -6.2760    9.4650 C   0  0  0  0  0  0  0  0  0  0  0  0
    9.1030  -11.3750    9.1970 C   0  0  0  0  0  0  0  0  0  0  0  0
    9.2860  -10.5320    6.1020 C   0  0  0  0  0  0  0  0  0  0  0  0
    9.8250   -9.0790    9.2400 C   0  0  0  0  0  0  0  0  0  0  0  0
    9.2580  -10.1480    8.5420 C   0  0  0  0  0  0  0  0  0  0  0  0
   10.2890   -9.2010   10.5380 C   0  0  0  0  0  0  0  0  0  0  0  0
   12.9250   -9.8250   15.1460 C   0  0  0  0  0  0  0  0  0  0  0  0
   13.7980   -8.9810   14.6210 N   0  0  0  0  0  0  0  0  0  0  0  0
   14.6340   -7.6940   12.8110 N   0  0  0  0  0  0  0  0  0  0  0  0
   12.4700   -5.9310   12.4440 F   0  0  0  0  0  0  0  0  0  0  0  0
   10.6150  -10.5950   12.5240 N   0  0  0  0  0  0  0  0  0  0  0  0
    8.7970   -9.8710    7.2750 O   0  0  0  0  0  0  0  0  0  0  0  0
   16.4170   -6.4150    8.3870 C   0  0  0  0  0  0  0  0  0  0  0  0
   16.7700   -5.1930    7.7780 F   0  0  0  0  0  0  0  0  0  0  0  0
   17.5840   -6.8690    9.0030 F   0  0  0  0  0  0  0  0  0  0  0  0
   16.0260   -7.3450    7.3990 F   0  0  0  0  0  0  0  0  0  0  0  0
    8.5310   -9.8690    4.9180 C   0  0  1  0  0  0  0  0  0  0  0  0
    7.8630  -10.8470    3.9230 C   0  0  0  0  0  0  0  0  0  0  0  0
    5.8170  -11.4900    5.0570 C   0  0  0  0  0  0  0  0  0  0  0  0
    6.6690  -12.7830    3.3390 C   0  0  0  0  0  0  0  0  0  0  0  0
    7.0890  -11.9730    4.4970 N   0  3  0  0  0  0  0  0  0  0  0  0
    7.5400   -8.9230    5.3700 O   0  0  0  0  0  0  0  0  0  0  0  0
   12.5039   -8.8175   11.5253 H   0  0  0  0  0  0  0  0  0  0  0  0
   14.1653   -4.8229    8.3949 H   0  0  0  0  0  0  0  0  0  0  0  0
   12.4601   -4.6232   10.1716 H   0  0  0  0  0  0  0  0  0  0  0  0
    9.4478  -12.4527   11.0208 H   0  0  0  0  0  0  0  0  0  0  0  0
   16.2934   -7.6831   10.7705 H   0  0  0  0  0  0  0  0  0  0  0  0
    8.6339  -12.2126    8.6936 H   0  0  0  0  0  0  0  0  0  0  0  0
    9.0657  -11.6088    6.1456 H   0  0  0  0  0  0  0  0  0  0  0  0
   10.3711  -10.3835    5.9993 H   0  0  0  0  0  0  0  0  0  0  0  0
    9.9045   -8.1173    8.7461 H   0  0  0  0  0  0  0  0  0  0  0  0
   10.7376   -8.3529   11.0426 H   0  0  0  0  0  0  0  0  0  0  0  0
   13.0346  -10.1175   16.1840 H   0  0  0  0  0  0  0  0  0  0  0  0
   15.5185   -7.5964   13.3297 H   0  0  0  0  0  0  0  0  0  0  0  0
   10.0531  -11.2342   13.1042 H   0  0  0  0  0  0  0  0  0  0  0  0
    9.2876   -9.3075    4.3504 H   0  0  0  0  0  0  0  0  0  0  0  0
    8.6587  -11.2774    3.2972 H   0  0  0  0  0  0  0  0  0  0  0  0
    7.1774  -10.2613    3.2930 H   0  0  0  0  0  0  0  0  0  0  0  0
    5.2564  -12.3376    5.4780 H   0  0  0  0  0  0  0  0  0  0  0  0
    5.2227  -11.0161    4.2619 H   0  0  0  0  0  0  0  0  0  0  0  0
    6.0209  -10.7553    5.8498 H   0  0  0  0  0  0  0  0  0  0  0  0
    7.5573  -13.1980    2.8403 H   0  0  0  0  0  0  0  0  0  0  0  0
    6.1132  -12.1504    2.6312 H   0  0  0  0  0  0  0  0  0  0  0  0
    6.0232  -13.6050    3.6814 H   0  0  0  0  0  0  0  0  0  0  0  0
    7.6283  -12.4928    5.1716 H   0  0  0  0  0  0  0  0  0  0  0  0
    7.9391   -8.3163    5.9825 H   0  0  0  0  0  0  0  0  0  0  0  0
  1 19  1  0  0  0  0
  1 20  1  0  0  0  0
  2 18  1  0  0  0  0
  3  1  2  0  0  0  0
  3 34  1  0  0  0  0
  4 35  1  0  0  0  0
  5  4  2  0  0  0  0
  5 36  1  0  0  0  0
  6  5  1  0  0  0  0
  6 21  1  0  0  0  0
  7  6  2  0  0  0  0
  7 11  1  0  0  0  0
  8  2  2  0  0  0  0
  8  3  1  0  0  0  0
  9 10  2  0  0  0  0
  9 37  1  0  0  0  0
 10 22  1  0  0  0  0
 11 12  2  0  0  0  0
 11 38  1  0  0  0  0
 12  4  1  0  0  0  0
 12 24  1  0  0  0  0
 13  9  1  0  0  0  0
 13 39  1  0  0  0  0
 14 28  1  0  0  0  0
 14 40  1  0  0  0  0
 14 41  1  0  0  0  0
 15 17  2  0  0  0  0
 15 42  1  0  0  0  0
 16 13  2  0  0  0  0
 16 15  1  0  0  0  0
 16 23  1  0  0  0  0
 17 10  1  0  0  0  0
 17 43  1  0  0  0  0
 18 19  2  0  0  0  0
 18 44  1  0  0  0  0
 20  7  1  0  0  0  0
 20 45  1  0  0  0  0
 22  8  1  0  0  0  0
 22 46  1  0  0  0  0
 23 14  1  0  0  0  0
 24 25  1  0  0  0  0
 24 26  1  0  0  0  0
 24 27  1  0  0  0  0
 28 29  1  0  0  0  0
 28 33  1  0  0  0  0
 28 47  1  6  0  0  0
 29 32  1  0  0  0  0
 29 48  1  0  0  0  0
 29 49  1  0  0  0  0
 30 50  1  0  0  0  0
 30 51  1  0  0  0  0
 30 52  1  0  0  0  0
 31 53  1  0  0  0  0
 31 54  1  0  0  0  0
 31 55  1  0  0  0  0
 32 30  1  0  0  0  0
 32 31  1  0  0  0  0
 32 56  1  0  0  0  0
 33 57  1  0  0  0  0
M  CHG  1  32   1
M  END
