1v2v_ligand
 OpenBabel08222323343D

 18 18  0  0  0  0  0  0  0  0999 V2000
   -3.1900    8.9750   19.6480 C   0  0  0  0  0  0  0  0  0  0  0  0
   -1.8280    8.7350   19.2290 C   0  0  0  0  0  0  0  0  0  0  0  0
   -1.2400    7.4330   19.3660 C   0  0  0  0  0  0  0  0  0  0  0  0
   -2.0070    6.3540   19.9250 C   0  0  0  0  0  0  0  0  0  0  0  0
   -3.3530    6.5790   20.3430 C   0  0  0  0  0  0  0  0  0  0  0  0
   -3.9450    7.8830   20.2070 C   0  0  0  0  0  0  0  0  0  0  0  0
   -3.8220   10.3670   19.4980 C   0  0  0  0  0  3  0  0  0  0  0  0
   -5.1220   10.5100   19.6390 N   0  0  0  0  0  0  0  0  0  0  0  0
   -3.0550   11.4030   19.2200 N   0  0  0  0  0  0  0  0  0  0  0  0
   -1.2451    9.5458   18.8073 H   0  0  0  0  0  0  0  0  0  0  0  0
   -0.2177    7.2636   19.0479 H   0  0  0  0  0  0  0  0  0  0  0  0
   -1.5638    5.3702   20.0291 H   0  0  0  0  0  0  0  0  0  0  0  0
   -3.9311    5.7646   20.7644 H   0  0  0  0  0  0  0  0  0  0  0  0
   -4.9677    8.0452   20.5278 H   0  0  0  0  0  0  0  0  0  0  0  0
   -5.5515   11.4409   19.5396 H   0  0  0  0  0  0  0  0  0  0  0  0
   -5.7104    9.6911   19.8488 H   0  0  0  0  0  0  0  0  0  0  0  0
   -2.0384   11.2770   19.1122 H   0  0  0  0  0  0  0  0  0  0  0  0
   -3.4725   12.3382   19.1106 H   0  0  0  0  0  0  0  0  0  0  0  0
  1  2  2  0  0  0  0
  1  6  1  0  0  0  0
  1  7  1  0  0  0  0
  2  3  1  0  0  0  0
  2 10  1  0  0  0  0
  3  4  2  0  0  0  0
  3 11  1  0  0  0  0
  4  5  1  0  0  0  0
  4 12  1  0  0  0  0
  5  6  2  0  0  0  0
  5 13  1  0  0  0  0
  6 14  1  0  0  0  0
  7  8  1  0  0  0  0
  7  9  1  0  0  0  0
  8 15  1  0  0  0  0
  8 16  1  0  0  0  0
  9 17  1  0  0  0  0
  9 18  1  0  0  0  0
M  END
