1vcj_ligand
 OpenBabel08222323343D

 52 53  0  0  1  0  0  0  0  0999 V2000
   33.9140   -9.4170   64.8000 C   0  0  0  0  0  0  0  0  0  0  0  0
   32.6210   -9.0360   64.3580 C   0  0  0  0  0  0  0  0  0  0  0  0
   31.5040   -9.8770   64.6320 C   0  0  0  0  0  0  0  0  0  0  0  0
   31.7220  -11.0950   65.3350 C   0  0  0  0  0  0  0  0  0  0  0  0
   33.0130  -11.4650   65.7570 C   0  0  0  0  0  0  0  0  0  0  0  0
   34.1040  -10.6170   65.4910 C   0  0  0  0  0  0  0  0  0  0  0  0
   33.2040  -12.7410   66.4500 C   0  0  0  0  0  0  0  0  0  0  0  0
   32.3210  -13.7140   66.1440 O   0  5  0  0  0  0  0  0  0  0  0  0
   34.1010  -12.9090   67.1950 O   0  0  0  0  0  0  0  0  0  0  0  0
   30.2750   -9.4810   64.1950 N   0  0  0  0  0  0  0  0  0  0  0  0
   29.0320  -10.2580   64.2940 C   0  0  0  0  0  0  0  0  0  0  0  0
   28.7160  -10.8760   62.9100 C   0  0  0  0  0  0  0  0  0  0  0  0
   27.9150   -9.3170   64.8210 C   0  0  0  0  0  0  0  0  0  0  0  0
   28.2790  -12.3520   62.9670 C   0  0  0  0  0  0  0  0  0  0  0  0
   27.5770   -8.1140   63.9220 C   0  0  0  0  0  0  0  0  0  0  0  0
   32.4790   -7.8500   63.6470 N   0  0  0  0  0  0  0  0  0  0  0  0
   33.0240   -7.6000   62.2720 C   0  0  1  0  0  0  0  0  0  0  0  0
   32.0750   -6.4670   61.7890 C   0  0  0  0  0  0  0  0  0  0  0  0
   31.5810   -5.7250   63.0360 C   0  0  0  0  0  0  0  0  0  0  0  0
   31.7640   -6.7950   64.0770 C   0  0  0  0  0  0  0  0  0  0  0  0
   31.2610   -6.6900   65.2020 O   0  0  0  0  0  0  0  0  0  0  0  0
   34.5440   -7.1480   62.2720 C   0  0  0  0  0  0  0  0  0  0  0  0
   34.8240   -6.2980   63.3880 O   0  0  0  0  0  0  0  0  0  0  0  0
   32.8670   -8.8250   61.3170 C   0  0  0  0  0  0  0  0  0  0  0  0
   31.5340   -9.3880   61.1180 N   0  3  0  0  0  0  0  0  0  0  0  0
   34.7619   -8.7719   64.6001 H   0  0  0  0  0  0  0  0  0  0  0  0
   30.8825  -11.7467   65.5484 H   0  0  0  0  0  0  0  0  0  0  0  0
   35.0972  -10.8959   65.8238 H   0  0  0  0  0  0  0  0  0  0  0  0
   30.2120   -8.5518   63.7550 H   0  0  0  0  0  0  0  0  0  0  0  0
   29.1684  -11.0765   65.0160 H   0  0  0  0  0  0  0  0  0  0  0  0
   29.6193  -10.8068   62.2860 H   0  0  0  0  0  0  0  0  0  0  0  0
   27.9056  -10.2931   62.4480 H   0  0  0  0  0  0  0  0  0  0  0  0
   28.2339   -8.9287   65.7995 H   0  0  0  0  0  0  0  0  0  0  0  0
   26.9997   -9.9146   64.9442 H   0  0  0  0  0  0  0  0  0  0  0  0
   28.0744  -12.7134   61.9484 H   0  0  0  0  0  0  0  0  0  0  0  0
   27.3684  -12.4415   63.5776 H   0  0  0  0  0  0  0  0  0  0  0  0
   29.0821  -12.9551   63.4156 H   0  0  0  0  0  0  0  0  0  0  0  0
   26.7781   -7.5198   64.3897 H   0  0  0  0  0  0  0  0  0  0  0  0
   27.2386   -8.4742   62.9393 H   0  0  0  0  0  0  0  0  0  0  0  0
   28.4727   -7.4883   63.7946 H   0  0  0  0  0  0  0  0  0  0  0  0
   31.2218   -6.8971   61.2441 H   0  0  0  0  0  0  0  0  0  0  0  0
   32.6197   -5.7748   61.1301 H   0  0  0  0  0  0  0  0  0  0  0  0
   30.5266   -5.4264   62.9407 H   0  0  0  0  0  0  0  0  0  0  0  0
   32.1952   -4.8383   63.2518 H   0  0  0  0  0  0  0  0  0  0  0  0
   34.7574   -6.6021   61.3412 H   0  0  0  0  0  0  0  0  0  0  0  0
   35.1850   -8.0401   62.3291 H   0  0  0  0  0  0  0  0  0  0  0  0
   34.2748   -5.5242   63.3410 H   0  0  0  0  0  0  0  0  0  0  0  0
   33.5032   -9.6297   61.7140 H   0  0  0  0  0  0  0  0  0  0  0  0
   33.2397   -8.5164   60.3292 H   0  0  0  0  0  0  0  0  0  0  0  0
   31.5900  -10.1671   60.4809 H   0  0  0  0  0  0  0  0  0  0  0  0
   30.9253   -8.6826   60.7333 H   0  0  0  0  0  0  0  0  0  0  0  0
   31.1668   -9.7029   62.0023 H   0  0  0  0  0  0  0  0  0  0  0  0
  1  2  2  0  0  0  0
  1  6  1  0  0  0  0
  1 26  1  0  0  0  0
  2  3  1  0  0  0  0
  2 16  1  0  0  0  0
  3  4  2  0  0  0  0
  3 10  1  0  0  0  0
  4  5  1  0  0  0  0
  4 27  1  0  0  0  0
  5  6  2  0  0  0  0
  5  7  1  0  0  0  0
  6 28  1  0  0  0  0
  7  8  1  0  0  0  0
  7  9  2  0  0  0  0
 10 11  1  0  0  0  0
 10 29  1  0  0  0  0
 11 12  1  0  0  0  0
 11 13  1  0  0  0  0
 11 30  1  0  0  0  0
 12 14  1  0  0  0  0
 12 31  1  0  0  0  0
 12 32  1  0  0  0  0
 13 15  1  0  0  0  0
 13 33  1  0  0  0  0
 13 34  1  0  0  0  0
 14 35  1  0  0  0  0
 14 36  1  0  0  0  0
 14 37  1  0  0  0  0
 15 38  1  0  0  0  0
 15 39  1  0  0  0  0
 15 40  1  0  0  0  0
 16 17  1  0  0  0  0
 16 20  1  0  0  0  0
 17 18  1  0  0  0  0
 17 22  1  1  0  0  0
 17 24  1  0  0  0  0
 18 19  1  0  0  0  0
 18 41  1  0  0  0  0
 18 42  1  0  0  0  0
 19 20  1  0  0  0  0
 19 43  1  0  0  0  0
 19 44  1  0  0  0  0
 20 21  2  0  0  0  0
 22 23  1  0  0  0  0
 22 45  1  0  0  0  0
 22 46  1  0  0  0  0
 23 47  1  0  0  0  0
 24 25  1  0  0  0  0
 24 48  1  0  0  0  0
 24 49  1  0  0  0  0
 25 50  1  0  0  0  0
 25 51  1  0  0  0  0
 25 52  1  0  0  0  0
M  CHG  2   8  -1  25   1
M  END
