1vea_ligand
 OpenBabel08222323343D

 38 40  0  0  1  0  0  0  0  0999 V2000
   47.5760 -104.1540   85.8410 C   0  0  0  0  0  0  0  0  0  0  0  0
   48.7270 -103.3370   85.8210 C   0  0  0  0  0  0  0  0  0  0  0  0
   49.0690 -102.5490   86.9540 C   0  0  0  0  0  0  0  0  0  0  0  0
   48.2600 -102.5680   88.1270 C   0  0  0  0  0  0  0  0  0  0  0  0
   47.0960 -103.3810   88.1770 C   0  0  0  0  0  0  0  0  0  0  0  0
   46.7520 -104.1930   86.9960 C   0  0  0  0  0  0  0  0  0  0  0  0
   45.6150 -104.9930   87.0380 C   0  0  0  0  0  0  0  0  0  0  0  0
   44.7720 -105.0540   88.1830 C   0  0  0  0  0  0  0  0  0  0  0  0
   45.0930 -104.2690   89.3340 C   0  0  0  0  0  0  0  0  0  0  0  0
   46.2500 -103.4340   89.3320 C   0  0  0  0  0  0  0  0  0  0  0  0
   43.7410 -105.8130   88.1690 N   0  0  0  0  0  0  0  0  0  0  0  0
   40.7010 -107.8190   89.1320 N   0  3  0  0  0  0  0  0  0  0  0  0
   41.8840 -107.4200   88.3920 C   0  0  1  0  0  0  0  0  0  0  0  0
   43.0920 -106.7670   89.0460 C   0  0  0  0  0  0  0  0  0  0  0  0
   43.4620 -107.0920   90.1560 O   0  0  0  0  0  0  0  0  0  0  0  0
   42.0380 -107.6090   87.0730 C   0  0  0  0  0  0  0  0  0  0  0  0
   41.2440 -108.1990   85.9550 C   0  0  0  0  0  0  0  0  0  0  0  0
   41.6720 -108.0770   84.6490 N   0  0  0  0  0  0  0  0  0  0  0  0
   40.0600 -108.9180   86.0510 C   0  0  0  0  0  0  0  0  0  0  0  0
   40.6730 -108.7600   84.0420 C   0  0  0  0  0  0  0  0  0  0  0  0
   39.6590 -109.3010   84.7860 N   0  0  0  0  0  0  0  0  0  0  0  0
   47.3213 -104.7521   84.9735 H   0  0  0  0  0  0  0  0  0  0  0  0
   49.3536 -103.3102   84.9369 H   0  0  0  0  0  0  0  0  0  0  0  0
   49.9558 -101.9263   86.9252 H   0  0  0  0  0  0  0  0  0  0  0  0
   48.5332 -101.9611   88.9826 H   0  0  0  0  0  0  0  0  0  0  0  0
   45.3624 -105.5902   86.1693 H   0  0  0  0  0  0  0  0  0  0  0  0
   44.4559 -104.3083   90.2102 H   0  0  0  0  0  0  0  0  0  0  0  0
   46.4893 -102.8388   90.2058 H   0  0  0  0  0  0  0  0  0  0  0  0
   43.2412 -105.7215   87.3077 H   0  0  0  0  0  0  0  0  0  0  0  0
   40.0312 -108.2281   88.4995 H   0  0  0  0  0  0  0  0  0  0  0  0
   40.2938 -107.0108   89.5759 H   0  0  0  0  0  0  0  0  0  0  0  0
   40.9563 -108.4953   89.8345 H   0  0  0  0  0  0  0  0  0  0  0  0
   41.4201 -106.4381   88.2168 H   0  0  0  0  0  0  0  0  0  0  0  0
   42.9707 -108.1905   87.0284 H   0  0  0  0  0  0  0  0  0  0  0  0
   42.2253 -106.5871   86.7116 H   0  0  0  0  0  0  0  0  0  0  0  0
   42.5004 -107.6084   84.2552 H   0  0  0  0  0  0  0  0  0  0  0  0
   39.5318 -109.1439   86.9762 H   0  0  0  0  0  0  0  0  0  0  0  0
   40.6760 -108.8793   82.9596 H   0  0  0  0  0  0  0  0  0  0  0  0
  1  2  2  0  0  0  0
  1 22  1  0  0  0  0
  2  3  1  0  0  0  0
  2 23  1  0  0  0  0
  3 24  1  0  0  0  0
  4  3  2  0  0  0  0
  4 25  1  0  0  0  0
  5  4  1  0  0  0  0
  6  1  1  0  0  0  0
  6  5  2  0  0  0  0
  7  6  1  0  0  0  0
  7 26  1  0  0  0  0
  8  7  2  0  0  0  0
  8  9  1  0  0  0  0
  9 10  2  0  0  0  0
  9 27  1  0  0  0  0
 10  5  1  0  0  0  0
 10 28  1  0  0  0  0
 11  8  1  0  0  0  0
 11 29  1  0  0  0  0
 12 30  1  0  0  0  0
 12 31  1  0  0  0  0
 12 32  1  0  0  0  0
 13 12  1  0  0  0  0
 13 14  1  0  0  0  0
 13 16  1  0  0  0  0
 13 33  1  6  0  0  0
 14 11  1  0  0  0  0
 14 15  2  0  0  0  0
 16 17  1  0  0  0  0
 16 34  1  0  0  0  0
 16 35  1  0  0  0  0
 17 18  1  0  0  0  0
 17 19  2  0  0  0  0
 18 20  1  0  0  0  0
 18 36  1  0  0  0  0
 19 21  1  0  0  0  0
 19 37  1  0  0  0  0
 20 21  2  0  0  0  0
 20 38  1  0  0  0  0
M  CHG  1  12   1
M  END
