1veb_ligand
 OpenBabel08222323343D

 65 68  0  0  1  0  0  0  0  0999 V2000
   16.8240   11.9770   -3.3020 F   0  0  0  0  0  0  0  0  0  0  0  0
   15.8530   11.7290   -4.1690 C   0  0  0  0  0  0  0  0  0  0  0  0
   16.1500   11.0570   -5.3140 C   0  0  0  0  0  0  0  0  0  0  0  0
   17.4690   10.7100   -5.4620 O   0  0  0  0  0  0  0  0  0  0  0  0
   18.0560   10.6450   -6.7560 C   0  0  0  0  0  0  0  0  0  0  0  0
   15.1360   10.7910   -6.2300 C   0  0  0  0  0  0  0  0  0  0  0  0
   13.8390   11.2110   -5.9470 C   0  0  0  0  0  0  0  0  0  0  0  0
   13.5570   11.8930   -4.7480 C   0  0  0  0  0  0  0  0  0  0  0  0
   12.3110   12.2920   -4.4700 O   0  0  0  0  0  0  0  0  0  0  0  0
   14.5960   12.1430   -3.8540 C   0  0  0  0  0  0  0  0  0  0  0  0
   14.5430   12.8900   -2.5590 C   0  0  0  0  0  0  0  0  0  0  0  0
   15.2520   13.8790   -2.4840 O   0  0  0  0  0  0  0  0  0  0  0  0
   13.8030   12.5010   -1.3470 C   0  0  0  0  0  0  0  0  0  0  0  0
   13.5010   11.1890   -1.1020 C   0  0  0  0  0  0  0  0  0  0  0  0
   12.8310   10.8320    0.0810 C   0  0  0  0  0  0  0  0  0  0  0  0
   13.4680   13.4670   -0.4180 C   0  0  0  0  0  0  0  0  0  0  0  0
   12.8010   13.1110    0.7520 C   0  0  0  0  0  0  0  0  0  0  0  0
   12.4680   11.7820    1.0270 C   0  0  0  0  0  0  0  0  0  0  0  0
   11.7440   11.4020    2.3160 C   0  0  0  0  0  0  0  0  0  0  0  0
   11.1540   10.1240    2.2150 O   0  0  0  0  0  0  0  0  0  0  0  0
   10.4810    9.6310    3.3640 C   0  0  2  0  0  0  0  0  0  0  0  0
   11.5120    9.1520    4.3610 C   0  0  0  0  0  0  0  0  0  0  0  0
   12.6820    8.3870    3.7700 C   0  0  0  0  0  0  0  0  0  0  0  0
   12.3730    6.9230    3.6020 C   0  0  0  0  0  0  0  0  0  0  0  0
   11.2480    6.7470    2.7220 N   0  3  0  0  0  0  0  0  0  0  0  0
    9.9620    7.0790    3.2880 C   0  0  0  0  0  0  0  0  0  0  0  0
    9.5220    8.5090    2.9420 C   0  0  1  0  0  0  0  0  0  0  0  0
    8.1780    8.7210    3.4780 N   0  0  0  0  0  0  0  0  0  0  0  0
    7.1590    8.9870    2.6590 C   0  0  0  0  0  0  0  0  0  0  0  0
    7.3670    9.1610    1.4620 O   0  0  0  0  0  0  0  0  0  0  0  0
    5.7400    9.0830    3.1800 C   0  0  0  0  0  0  0  0  0  0  0  0
    4.6720    9.2630    2.3010 C   0  0  0  0  0  0  0  0  0  0  0  0
    3.3770    9.3330    2.7790 C   0  0  0  0  0  0  0  0  0  0  0  0
    3.1440    9.2170    4.0740 N   0  0  0  0  0  0  0  0  0  0  0  0
    4.1200    9.0440    4.9540 C   0  0  0  0  0  0  0  0  0  0  0  0
    5.4440    8.9780    4.5360 C   0  0  0  0  0  0  0  0  0  0  0  0
   19.1123   10.3519   -6.6651 H   0  0  0  0  0  0  0  0  0  0  0  0
   17.9894   11.6311   -7.2388 H   0  0  0  0  0  0  0  0  0  0  0  0
   17.5203    9.9017   -7.3647 H   0  0  0  0  0  0  0  0  0  0  0  0
   15.3534   10.2636   -7.1518 H   0  0  0  0  0  0  0  0  0  0  0  0
   13.0417   11.0117   -6.6539 H   0  0  0  0  0  0  0  0  0  0  0  0
   12.0132   12.8903   -5.1452 H   0  0  0  0  0  0  0  0  0  0  0  0
   13.7783   10.4255   -1.8198 H   0  0  0  0  0  0  0  0  0  0  0  0
   12.5918    9.7899    0.2593 H   0  0  0  0  0  0  0  0  0  0  0  0
   13.7247   14.5043   -0.5999 H   0  0  0  0  0  0  0  0  0  0  0  0
   12.5342   13.8824    1.4653 H   0  0  0  0  0  0  0  0  0  0  0  0
   10.9580   12.1446    2.5178 H   0  0  0  0  0  0  0  0  0  0  0  0
   12.4667   11.3985    3.1453 H   0  0  0  0  0  0  0  0  0  0  0  0
    9.8957   10.4425    3.8211 H   0  0  0  0  0  0  0  0  0  0  0  0
   11.0061    8.4940    5.0829 H   0  0  0  0  0  0  0  0  0  0  0  0
   11.9121   10.0324    4.8851 H   0  0  0  0  0  0  0  0  0  0  0  0
   13.5490    8.4922    4.4387 H   0  0  0  0  0  0  0  0  0  0  0  0
   12.9242    8.8138    2.7856 H   0  0  0  0  0  0  0  0  0  0  0  0
   12.1370    6.4870    4.5840 H   0  0  0  0  0  0  0  0  0  0  0  0
   13.2499    6.4137    3.1759 H   0  0  0  0  0  0  0  0  0  0  0  0
   11.2229    5.7800    2.4387 H   0  0  0  0  0  0  0  0  0  0  0  0
   11.3917    7.3306    1.9128 H   0  0  0  0  0  0  0  0  0  0  0  0
   10.0221    6.9829    4.3821 H   0  0  0  0  0  0  0  0  0  0  0  0
    9.2121    6.3747    2.8986 H   0  0  0  0  0  0  0  0  0  0  0  0
    9.4547    8.5621    1.8454 H   0  0  0  0  0  0  0  0  0  0  0  0
    8.0218    8.6663    4.4642 H   0  0  0  0  0  0  0  0  0  0  0  0
    4.8588    9.3485    1.2366 H   0  0  0  0  0  0  0  0  0  0  0  0
    2.5527    9.4831    2.0912 H   0  0  0  0  0  0  0  0  0  0  0  0
    3.8838    8.9533    6.0081 H   0  0  0  0  0  0  0  0  0  0  0  0
    6.2396    8.8458    5.2603 H   0  0  0  0  0  0  0  0  0  0  0  0
  1  2  1  0  0  0  0
  2  3  2  0  0  0  0
  2 10  1  0  0  0  0
  3  4  1  0  0  0  0
  3  6  1  0  0  0  0
  4  5  1  0  0  0  0
  5 37  1  0  0  0  0
  5 38  1  0  0  0  0
  5 39  1  0  0  0  0
  6  7  2  0  0  0  0
  6 40  1  0  0  0  0
  7  8  1  0  0  0  0
  7 41  1  0  0  0  0
  8  9  1  0  0  0  0
  8 10  2  0  0  0  0
  9 42  1  0  0  0  0
 10 11  1  0  0  0  0
 11 12  2  0  0  0  0
 11 13  1  0  0  0  0
 13 14  2  0  0  0  0
 13 16  1  0  0  0  0
 14 15  1  0  0  0  0
 14 43  1  0  0  0  0
 15 18  2  0  0  0  0
 15 44  1  0  0  0  0
 16 17  2  0  0  0  0
 16 45  1  0  0  0  0
 17 18  1  0  0  0  0
 17 46  1  0  0  0  0
 18 19  1  0  0  0  0
 19 20  1  0  0  0  0
 19 47  1  0  0  0  0
 19 48  1  0  0  0  0
 20 21  1  0  0  0  0
 21 22  1  0  0  0  0
 21 27  1  0  0  0  0
 21 49  1  1  0  0  0
 22 23  1  0  0  0  0
 22 50  1  0  0  0  0
 22 51  1  0  0  0  0
 23 24  1  0  0  0  0
 23 52  1  0  0  0  0
 23 53  1  0  0  0  0
 24 25  1  0  0  0  0
 24 54  1  0  0  0  0
 24 55  1  0  0  0  0
 25 26  1  0  0  0  0
 25 56  1  0  0  0  0
 25 57  1  0  0  0  0
 26 27  1  0  0  0  0
 26 58  1  0  0  0  0
 26 59  1  0  0  0  0
 27 28  1  0  0  0  0
 27 60  1  6  0  0  0
 28 29  1  0  0  0  0
 28 61  1  0  0  0  0
 29 30  2  0  0  0  0
 29 31  1  0  0  0  0
 31 32  2  0  0  0  0
 31 36  1  0  0  0  0
 32 33  1  0  0  0  0
 32 62  1  0  0  0  0
 33 34  2  0  0  0  0
 33 63  1  0  0  0  0
 34 35  1  0  0  0  0
 35 36  2  0  0  0  0
 35 64  1  0  0  0  0
 36 65  1  0  0  0  0
M  CHG  1  25   1
M  END
