1vij_ligand
 OpenBabel08222323343D

162167  0  0  1  0  0  0  0  0999 V2000
  -14.3120   12.9870   37.3370 C   0  0  0  0  0  0  0  0  0  0  0  0
  -12.8550   10.9880   37.8450 C   0  0  0  0  0  0  0  0  0  0  0  0
  -12.2350   13.1680   38.8290 C   0  0  0  0  0  0  0  0  0  0  0  0
  -12.8260   12.5340   37.5440 C   0  0  0  0  0  0  0  0  0  0  0  0
  -11.7520   12.9340   36.1420 S   0  0  0  0  0  0  0  0  0  0  0  0
  -11.2410   14.2950   36.1100 O   0  0  0  0  0  0  0  0  0  0  0  0
  -10.8370   11.8590   35.8870 O   0  0  0  0  0  0  0  0  0  0  0  0
  -13.2130   12.6850   35.0930 C   0  0  0  0  0  0  0  0  0  0  0  0
  -13.6010   13.9310   34.2130 C   0  0  2  0  0  0  0  0  0  0  0  0
  -14.8280   13.6800   33.2500 C   0  0  0  0  0  0  0  0  0  0  0  0
  -14.8910   12.1560   32.7900 C   0  0  0  0  0  0  0  0  0  0  0  0
  -13.6580   11.5130   32.7150 C   0  0  0  0  0  0  0  0  0  0  0  0
  -13.3900   10.1470   32.3380 C   0  0  0  0  0  0  0  0  0  0  0  0
  -14.6010    9.4610   32.0220 C   0  0  0  0  0  0  0  0  0  0  0  0
  -15.8990   10.0770   32.0830 C   0  0  0  0  0  0  0  0  0  0  0  0
  -17.0690    9.3750   31.7690 C   0  0  0  0  0  0  0  0  0  0  0  0
  -18.4780    9.8550   31.7810 C   0  0  0  0  0  0  0  0  0  0  0  0
  -18.6390   11.2130   32.1580 C   0  0  0  0  0  0  0  0  0  0  0  0
  -17.4550   11.9480   32.4780 C   0  0  0  0  0  0  0  0  0  0  0  0
  -16.0780   11.5090   32.4870 C   0  0  0  0  0  0  0  0  0  0  0  0
  -12.5580   14.8040   33.5210 C   0  0  0  0  0  0  0  0  0  0  0  0
  -12.7380   15.9770   33.8050 O   0  0  0  0  0  0  0  0  0  0  0  0
  -11.5330   14.4870   32.6930 N   0  0  0  0  0  0  0  0  0  0  0  0
  -10.6460   15.5740   32.1550 C   0  0  1  0  0  0  0  0  0  0  0  0
   -9.3020   15.5260   32.9690 C   0  0  0  0  0  0  0  0  0  0  0  0
   -9.3910   16.3130   34.2830 C   0  0  0  0  0  0  0  0  0  0  0  0
   -8.3810   16.6520   32.4460 C   0  0  0  0  0  0  0  0  0  0  0  0
  -10.2420   15.2440   30.7020 C   0  0  0  0  0  0  0  0  0  0  0  0
   -9.3390   14.4500   30.5180 O   0  0  0  0  0  0  0  0  0  0  0  0
  -10.9010   15.8410   29.6860 N   0  0  0  0  0  0  0  0  0  0  0  0
  -10.6670   15.6770   28.2520 C   0  0  1  0  0  0  0  0  0  0  0  0
  -11.8240   15.0660   27.4250 C   0  0  0  0  0  0  0  0  0  0  0  0
  -12.8070   14.2740   28.2860 C   0  0  0  0  0  0  0  0  0  0  0  0
  -12.4570   12.8550   28.4430 C   0  0  0  0  0  0  0  0  0  0  0  0
  -13.3770   12.1390   29.2310 C   0  0  0  0  0  0  0  0  0  0  0  0
  -14.4630   12.7690   29.7780 C   0  0  0  0  0  0  0  0  0  0  0  0
  -14.8550   14.1420   29.6730 C   0  0  0  0  0  0  0  0  0  0  0  0
  -13.9540   14.8860   28.8860 C   0  0  0  0  0  0  0  0  0  0  0  0
  -10.7810   17.0840   27.5850 C   0  0  1  0  0  0  0  0  0  0  0  0
  -12.0610   17.5880   27.9780 O   0  0  0  0  0  0  0  0  0  0  0  0
   -9.6760   18.0690   28.0400 C   0  0  2  0  0  0  0  0  0  0  0  0
  -10.2590   19.3430   27.8220 O   0  0  0  0  0  0  0  0  0  0  0  0
   -8.3490   17.9570   27.2710 C   0  0  2  0  0  0  0  0  0  0  0  0
   -7.2240   18.7860   27.8120 C   0  0  0  0  0  0  0  0  0  0  0  0
   -5.8170   18.1700   27.7030 C   0  0  0  0  0  0  0  0  0  0  0  0
   -5.2810   17.2310   28.5840 C   0  0  0  0  0  0  0  0  0  0  0  0
   -3.9560   16.7740   28.3680 C   0  0  0  0  0  0  0  0  0  0  0  0
   -3.1910   17.2390   27.2850 C   0  0  0  0  0  0  0  0  0  0  0  0
   -3.7320   18.1810   26.4000 C   0  0  0  0  0  0  0  0  0  0  0  0
   -5.0380   18.6370   26.6220 C   0  0  0  0  0  0  0  0  0  0  0  0
   -8.4750   17.6210   25.8860 N   0  0  0  0  0  0  0  0  0  0  0  0
   -8.1410   16.3850   25.3890 C   0  0  0  0  0  0  0  0  0  0  0  0
   -7.6590   15.5380   26.1570 O   0  0  0  0  0  0  0  0  0  0  0  0
   -8.3180   16.0800   23.9410 C   0  0  2  0  0  0  0  0  0  0  0  0
   -9.4800   15.4240   23.2380 C   0  0  0  0  0  0  0  0  0  0  0  0
  -10.8320   15.7260   23.9350 C   0  0  0  0  0  0  0  0  0  0  0  0
   -9.5460   15.6420   21.7140 C   0  0  0  0  0  0  0  0  0  0  0  0
   -7.1660   16.4790   23.2360 N   0  0  0  0  0  0  0  0  0  0  0  0
   -7.1220   17.5580   22.3980 C   0  0  0  0  0  0  0  0  0  0  0  0
   -8.0270   18.3170   22.1630 O   0  0  0  0  0  0  0  0  0  0  0  0
   -5.7100   17.6930   21.8710 C   0  0  2  0  0  0  0  0  0  0  0  0
   -5.1820   18.5260   23.0970 C   0  0  0  0  0  0  0  0  0  0  0  0
   -3.8250   19.2740   23.1210 C   0  0  0  0  0  0  0  0  0  0  0  0
   -4.0520   20.6510   23.3410 C   0  0  0  0  0  0  0  0  0  0  0  0
   -2.9620   21.5240   23.4070 C   0  0  0  0  0  0  0  0  0  0  0  0
   -1.6460   21.0580   23.2640 C   0  0  0  0  0  0  0  0  0  0  0  0
   -1.4170   19.6800   23.0430 C   0  0  0  0  0  0  0  0  0  0  0  0
   -0.0830   19.2500   22.9040 C   0  0  0  0  0  0  0  0  0  0  0  0
    0.2040   17.8940   22.6890 C   0  0  0  0  0  0  0  0  0  0  0  0
   -0.8590   16.9870   22.6180 C   0  0  0  0  0  0  0  0  0  0  0  0
   -2.1800   17.4170   22.7530 C   0  0  0  0  0  0  0  0  0  0  0  0
   -2.5140   18.7760   22.9650 C   0  0  0  0  0  0  0  0  0  0  0  0
   -5.1540   18.2180   20.5470 C   0  0  0  0  0  0  0  0  0  0  0  0
   -5.0770   16.8710   19.3000 S   0  0  0  0  0  0  0  0  0  0  0  0
   -4.0840   15.9110   19.8270 O   0  0  0  0  0  0  0  0  0  0  0  0
   -6.4350   16.3640   19.1460 O   0  0  0  0  0  0  0  0  0  0  0  0
   -4.1960   17.6720   17.8700 C   0  0  0  0  0  0  0  0  0  0  0  0
   -3.6060   16.4140   17.0670 C   0  0  0  0  0  0  0  0  0  0  0  0
   -5.2810   18.0260   16.7970 C   0  0  0  0  0  0  0  0  0  0  0  0
   -3.7420   19.1330   18.2660 C   0  0  0  0  0  0  0  0  0  0  0  0
  -14.9052   12.7141   38.2222 H   0  0  0  0  0  0  0  0  0  0  0  0
  -14.7273   12.4877   36.4492 H   0  0  0  0  0  0  0  0  0  0  0  0
  -14.3465   14.0772   37.1944 H   0  0  0  0  0  0  0  0  0  0  0  0
  -13.5177   10.7935   38.7011 H   0  0  0  0  0  0  0  0  0  0  0  0
  -11.8383   10.6415   38.0822 H   0  0  0  0  0  0  0  0  0  0  0  0
  -13.2293   10.4494   36.9619 H   0  0  0  0  0  0  0  0  0  0  0  0
  -12.8818   12.9297   39.6863 H   0  0  0  0  0  0  0  0  0  0  0  0
  -12.1767   14.2595   38.7060 H   0  0  0  0  0  0  0  0  0  0  0  0
  -11.2272   12.7647   39.0068 H   0  0  0  0  0  0  0  0  0  0  0  0
  -14.0667   12.4439   35.7435 H   0  0  0  0  0  0  0  0  0  0  0  0
  -13.0135   11.8376   34.4206 H   0  0  0  0  0  0  0  0  0  0  0  0
  -14.0032   14.6156   34.9743 H   0  0  0  0  0  0  0  0  0  0  0  0
  -14.7245   14.3199   32.3613 H   0  0  0  0  0  0  0  0  0  0  0  0
  -15.7583   13.9347   33.7789 H   0  0  0  0  0  0  0  0  0  0  0  0
  -12.7928   12.1134   32.9717 H   0  0  0  0  0  0  0  0  0  0  0  0
  -12.4025    9.7016   32.2998 H   0  0  0  0  0  0  0  0  0  0  0  0
  -14.5391    8.4217   31.7203 H   0  0  0  0  0  0  0  0  0  0  0  0
  -16.9297    8.3403   31.4772 H   0  0  0  0  0  0  0  0  0  0  0  0
  -19.3152    9.2170   31.5220 H   0  0  0  0  0  0  0  0  0  0  0  0
  -19.6189   11.6744   32.2017 H   0  0  0  0  0  0  0  0  0  0  0  0
  -17.6130   12.9844   32.7537 H   0  0  0  0  0  0  0  0  0  0  0  0
  -11.3677   13.5335   32.4411 H   0  0  0  0  0  0  0  0  0  0  0  0
  -11.1366   16.5560   32.2250 H   0  0  0  0  0  0  0  0  0  0  0  0
   -8.8817   14.5113   33.0300 H   0  0  0  0  0  0  0  0  0  0  0  0
   -8.4299   16.2495   34.8142 H   0  0  0  0  0  0  0  0  0  0  0  0
  -10.1865   15.8873   34.9122 H   0  0  0  0  0  0  0  0  0  0  0  0
   -9.6203   17.3664   34.0647 H   0  0  0  0  0  0  0  0  0  0  0  0
   -8.0718   16.4237   31.4153 H   0  0  0  0  0  0  0  0  0  0  0  0
   -7.4908   16.7255   33.0880 H   0  0  0  0  0  0  0  0  0  0  0  0
   -8.9249   17.6079   32.4624 H   0  0  0  0  0  0  0  0  0  0  0  0
  -11.6351   16.4689   29.9445 H   0  0  0  0  0  0  0  0  0  0  0  0
   -9.7084   15.1651   28.0817 H   0  0  0  0  0  0  0  0  0  0  0  0
  -11.3978   14.3925   26.6668 H   0  0  0  0  0  0  0  0  0  0  0  0
  -12.3695   15.8809   26.9266 H   0  0  0  0  0  0  0  0  0  0  0  0
  -11.5778   12.4050   27.9963 H   0  0  0  0  0  0  0  0  0  0  0  0
  -13.2249   11.0802   29.4065 H   0  0  0  0  0  0  0  0  0  0  0  0
  -15.1164   12.1411   30.3729 H   0  0  0  0  0  0  0  0  0  0  0  0
  -15.7387   14.5589   30.1425 H   0  0  0  0  0  0  0  0  0  0  0  0
  -14.1328   15.9439   28.7315 H   0  0  0  0  0  0  0  0  0  0  0  0
  -10.7314   16.9779   26.4913 H   0  0  0  0  0  0  0  0  0  0  0  0
  -12.1905   18.4499   27.5998 H   0  0  0  0  0  0  0  0  0  0  0  0
   -9.4675   17.9183   29.1095 H   0  0  0  0  0  0  0  0  0  0  0  0
   -9.6431   20.0197   28.0772 H   0  0  0  0  0  0  0  0  0  0  0  0
   -8.0077   16.9773   27.6367 H   0  0  0  0  0  0  0  0  0  0  0  0
   -7.4269   18.9747   28.8765 H   0  0  0  0  0  0  0  0  0  0  0  0
   -7.2165   19.7405   27.2653 H   0  0  0  0  0  0  0  0  0  0  0  0
   -5.8655   16.8580   29.4172 H   0  0  0  0  0  0  0  0  0  0  0  0
   -3.5249   16.0518   29.0518 H   0  0  0  0  0  0  0  0  0  0  0  0
   -2.1832   16.8693   27.1343 H   0  0  0  0  0  0  0  0  0  0  0  0
   -3.1523   18.5492   25.5613 H   0  0  0  0  0  0  0  0  0  0  0  0
   -5.4624   19.3691   25.9446 H   0  0  0  0  0  0  0  0  0  0  0  0
   -8.8204   18.3146   25.2539 H   0  0  0  0  0  0  0  0  0  0  0  0
   -8.8092   17.0513   23.7817 H   0  0  0  0  0  0  0  0  0  0  0  0
   -9.3159   14.3436   23.3638 H   0  0  0  0  0  0  0  0  0  0  0  0
  -11.6459   15.2279   23.3877 H   0  0  0  0  0  0  0  0  0  0  0  0
  -11.0061   16.8121   23.9425 H   0  0  0  0  0  0  0  0  0  0  0  0
  -10.8030   15.3521   24.9691 H   0  0  0  0  0  0  0  0  0  0  0  0
   -8.5661   15.4154   21.2684 H   0  0  0  0  0  0  0  0  0  0  0  0
   -9.8107   16.6889   21.5044 H   0  0  0  0  0  0  0  0  0  0  0  0
  -10.3081   14.9773   21.2812 H   0  0  0  0  0  0  0  0  0  0  0  0
   -6.3313   15.9414   23.3555 H   0  0  0  0  0  0  0  0  0  0  0  0
   -5.2922   16.6763   21.9112 H   0  0  0  0  0  0  0  0  0  0  0  0
   -5.1489   17.8228   23.9422 H   0  0  0  0  0  0  0  0  0  0  0  0
   -5.9475   19.2926   23.2875 H   0  0  0  0  0  0  0  0  0  0  0  0
   -5.0619   21.0271   23.4575 H   0  0  0  0  0  0  0  0  0  0  0  0
   -3.1367   22.5811   23.5718 H   0  0  0  0  0  0  0  0  0  0  0  0
   -0.8122   21.7483   23.3224 H   0  0  0  0  0  0  0  0  0  0  0  0
    0.7252   19.9700   22.9634 H   0  0  0  0  0  0  0  0  0  0  0  0
    1.2281   17.5557   22.5801 H   0  0  0  0  0  0  0  0  0  0  0  0
   -0.6536   15.9351   22.4558 H   0  0  0  0  0  0  0  0  0  0  0  0
   -2.9774   16.6851   22.6934 H   0  0  0  0  0  0  0  0  0  0  0  0
   -4.1420   18.6162   20.7122 H   0  0  0  0  0  0  0  0  0  0  0  0
   -5.8072   19.0201   20.1730 H   0  0  0  0  0  0  0  0  0  0  0  0
   -3.0542   16.7687   16.1840 H   0  0  0  0  0  0  0  0  0  0  0  0
   -4.4328   15.7635   16.7457 H   0  0  0  0  0  0  0  0  0  0  0  0
   -2.9265   15.8476   17.7208 H   0  0  0  0  0  0  0  0  0  0  0  0
   -4.7986   18.5036   15.9315 H   0  0  0  0  0  0  0  0  0  0  0  0
   -6.0171   18.7169   17.2339 H   0  0  0  0  0  0  0  0  0  0  0  0
   -5.7892   17.1061   16.4721 H   0  0  0  0  0  0  0  0  0  0  0  0
   -3.2225   19.5987   17.4155 H   0  0  0  0  0  0  0  0  0  0  0  0
   -3.0618   19.0843   19.1291 H   0  0  0  0  0  0  0  0  0  0  0  0
   -4.6257   19.7330   18.5289 H   0  0  0  0  0  0  0  0  0  0  0  0
  1  4  1  0  0  0  0
  1 81  1  0  0  0  0
  1 82  1  0  0  0  0
  1 83  1  0  0  0  0
  2 84  1  0  0  0  0
  2 85  1  0  0  0  0
  2 86  1  0  0  0  0
  3 87  1  0  0  0  0
  3 88  1  0  0  0  0
  3 89  1  0  0  0  0
  4  2  1  0  0  0  0
  4  3  1  0  0  0  0
  4  5  1  0  0  0  0
  5  6  2  0  0  0  0
  5  7  2  0  0  0  0
  5  8  1  0  0  0  0
  8  9  1  0  0  0  0
  8 90  1  0  0  0  0
  8 91  1  0  0  0  0
  9 10  1  0  0  0  0
  9 21  1  0  0  0  0
  9 92  1  1  0  0  0
 10 11  1  0  0  0  0
 10 93  1  0  0  0  0
 10 94  1  0  0  0  0
 11 12  2  0  0  0  0
 11 20  1  0  0  0  0
 12 13  1  0  0  0  0
 12 95  1  0  0  0  0
 13 14  2  0  0  0  0
 13 96  1  0  0  0  0
 14 15  1  0  0  0  0
 14 97  1  0  0  0  0
 15 16  2  0  0  0  0
 15 20  1  0  0  0  0
 16 17  1  0  0  0  0
 16 98  1  0  0  0  0
 17 18  2  0  0  0  0
 17 99  1  0  0  0  0
 18 19  1  0  0  0  0
 18100  1  0  0  0  0
 19 20  2  0  0  0  0
 19101  1  0  0  0  0
 21 22  2  0  0  0  0
 21 23  1  0  0  0  0
 23 24  1  0  0  0  0
 23102  1  0  0  0  0
 24 25  1  0  0  0  0
 24 28  1  0  0  0  0
 24103  1  1  0  0  0
 25 26  1  0  0  0  0
 25 27  1  0  0  0  0
 25104  1  0  0  0  0
 26105  1  0  0  0  0
 26106  1  0  0  0  0
 26107  1  0  0  0  0
 27108  1  0  0  0  0
 27109  1  0  0  0  0
 27110  1  0  0  0  0
 28 29  2  0  0  0  0
 28 30  1  0  0  0  0
 30 31  1  0  0  0  0
 30111  1  0  0  0  0
 31 32  1  0  0  0  0
 31 39  1  0  0  0  0
 31112  1  6  0  0  0
 32 33  1  0  0  0  0
 32113  1  0  0  0  0
 32114  1  0  0  0  0
 33 34  2  0  0  0  0
 33 38  1  0  0  0  0
 34 35  1  0  0  0  0
 34115  1  0  0  0  0
 35 36  2  0  0  0  0
 35116  1  0  0  0  0
 36 37  1  0  0  0  0
 36117  1  0  0  0  0
 37 38  2  0  0  0  0
 37118  1  0  0  0  0
 38119  1  0  0  0  0
 39 40  1  0  0  0  0
 39 41  1  0  0  0  0
 39120  1  6  0  0  0
 40121  1  0  0  0  0
 41 42  1  0  0  0  0
 41 43  1  0  0  0  0
 41122  1  1  0  0  0
 42123  1  0  0  0  0
 43 44  1  0  0  0  0
 43 51  1  0  0  0  0
 43124  1  1  0  0  0
 44 45  1  0  0  0  0
 44125  1  0  0  0  0
 44126  1  0  0  0  0
 45 46  2  0  0  0  0
 45 50  1  0  0  0  0
 46 47  1  0  0  0  0
 46127  1  0  0  0  0
 47 48  2  0  0  0  0
 47128  1  0  0  0  0
 48 49  1  0  0  0  0
 48129  1  0  0  0  0
 49 50  2  0  0  0  0
 49130  1  0  0  0  0
 50131  1  0  0  0  0
 51 52  1  0  0  0  0
 51132  1  0  0  0  0
 52 53  2  0  0  0  0
 52 54  1  0  0  0  0
 54 55  1  0  0  0  0
 54 58  1  0  0  0  0
 54133  1  6  0  0  0
 55 56  1  0  0  0  0
 55 57  1  0  0  0  0
 55134  1  0  0  0  0
 56135  1  0  0  0  0
 56136  1  0  0  0  0
 56137  1  0  0  0  0
 57138  1  0  0  0  0
 57139  1  0  0  0  0
 57140  1  0  0  0  0
 58 59  1  0  0  0  0
 58141  1  0  0  0  0
 59 60  2  0  0  0  0
 59 61  1  0  0  0  0
 61 62  1  0  0  0  0
 61 73  1  0  0  0  0
 61142  1  1  0  0  0
 62 63  1  0  0  0  0
 62143  1  0  0  0  0
 62144  1  0  0  0  0
 63 64  2  0  0  0  0
 63 72  1  0  0  0  0
 64 65  1  0  0  0  0
 64145  1  0  0  0  0
 65 66  2  0  0  0  0
 65146  1  0  0  0  0
 66 67  1  0  0  0  0
 66147  1  0  0  0  0
 67 68  2  0  0  0  0
 67 72  1  0  0  0  0
 68 69  1  0  0  0  0
 68148  1  0  0  0  0
 69 70  2  0  0  0  0
 69149  1  0  0  0  0
 70 71  1  0  0  0  0
 70150  1  0  0  0  0
 71 72  2  0  0  0  0
 71151  1  0  0  0  0
 73 74  1  0  0  0  0
 73152  1  0  0  0  0
 73153  1  0  0  0  0
 74 75  2  0  0  0  0
 74 76  2  0  0  0  0
 74 77  1  0  0  0  0
 77 78  1  0  0  0  0
 77 79  1  0  0  0  0
 77 80  1  0  0  0  0
 78154  1  0  0  0  0
 78155  1  0  0  0  0
 78156  1  0  0  0  0
 79157  1  0  0  0  0
 79158  1  0  0  0  0
 79159  1  0  0  0  0
 80160  1  0  0  0  0
 80161  1  0  0  0  0
 80162  1  0  0  0  0
M  END
