1vj6_ligand
 OpenBabel08222323343D

100100  0  0  1  0  0  0  0  0999 V2000
   11.9420   -2.3830   14.9530 N   0  3  0  0  0  0  0  0  0  0  0  0
   11.0820   -1.3430   15.4280 C   0  0  2  0  0  0  0  0  0  0  0  0
    9.6590   -1.7130   15.1920 C   0  0  0  0  0  0  0  0  0  0  0  0
    8.8380   -1.7160   16.1090 O   0  0  0  0  0  0  0  0  0  0  0  0
   11.4400   -0.0250   14.7200 C   0  0  0  0  0  0  0  0  0  0  0  0
   11.3170    1.1540   15.6240 C   0  0  0  0  0  0  0  0  0  0  0  0
   10.1350    1.8460   15.7380 C   0  0  0  0  0  0  0  0  0  0  0  0
   12.4200    1.5860   16.3220 C   0  0  0  0  0  0  0  0  0  0  0  0
   10.0580    2.9680   16.5300 C   0  0  0  0  0  0  0  0  0  0  0  0
   12.3520    2.7100   17.1110 C   0  0  0  0  0  0  0  0  0  0  0  0
   11.1710    3.4080   17.2050 C   0  0  0  0  0  0  0  0  0  0  0  0
   11.1170    4.5830   17.9840 O   0  0  0  0  0  0  0  0  0  0  0  0
    9.3280   -2.0240   13.9260 N   0  0  0  0  0  0  0  0  0  0  0  0
    8.0190   -2.2450   13.3950 C   0  0  2  0  0  0  0  0  0  0  0  0
    7.1010   -1.0750   13.4870 C   0  0  0  0  0  0  0  0  0  0  0  0
    7.4670   -0.0070   13.9760 O   0  0  0  0  0  0  0  0  0  0  0  0
    7.3700   -3.5170   13.9650 C   0  0  0  0  0  0  0  0  0  0  0  0
    6.4510   -4.3350   13.0430 C   0  0  0  0  0  0  0  0  0  0  0  0
    7.2470   -4.9730   11.8920 C   0  0  0  0  0  0  0  0  0  0  0  0
    5.8150   -5.4380   13.9060 C   0  0  0  0  0  0  0  0  0  0  0  0
    5.8630   -1.2500   12.9920 N   0  0  0  0  0  0  0  0  0  0  0  0
    4.7130   -0.4030   13.0740 C   0  0  2  0  0  0  0  0  0  0  0  0
    4.9610    1.0670   13.0850 C   0  0  0  0  0  0  0  0  0  0  0  0
    5.1430    1.7280   14.1060 O   0  0  0  0  0  0  0  0  0  0  0  0
    3.6410   -0.8570   14.0210 C   0  0  0  0  0  0  0  0  0  0  0  0
    2.9960   -2.1150   13.4170 C   0  0  0  0  0  0  0  0  0  0  0  0
    4.1980   -1.1220   15.4300 C   0  0  0  0  0  0  0  0  0  0  0  0
    4.9880    1.6100   11.8550 N   0  0  0  0  0  0  0  0  0  0  0  0
    5.3730    2.9560   11.5700 C   0  0  2  0  0  0  0  0  0  0  0  0
    4.1880    3.4640   10.8220 C   0  0  0  0  0  0  0  0  0  0  0  0
    3.8120    2.8720    9.8130 O   0  0  0  0  0  0  0  0  0  0  0  0
    6.5680    3.0700   10.6700 C   0  0  2  0  0  0  0  0  0  0  0  0
    7.6800    2.3760   11.2140 O   0  0  0  0  0  0  0  0  0  0  0  0
    7.0000    4.5340   10.4790 C   0  0  0  0  0  0  0  0  0  0  0  0
    3.5680    4.5410   11.3360 N   0  0  0  0  0  0  0  0  0  0  0  0
    2.5430    5.2840   10.6680 C   0  0  2  0  0  0  0  0  0  0  0  0
    3.1360    6.0640    9.5450 C   0  0  0  0  0  0  0  0  0  0  0  0
    4.0560    6.8610    9.7270 O   0  0  0  0  0  0  0  0  0  0  0  0
    1.7630    6.2100   11.6150 C   0  0  0  0  0  0  0  0  0  0  0  0
    2.5840    7.1710   12.2630 O   0  0  0  0  0  0  0  0  0  0  0  0
    2.6550    5.8130    8.3150 N   0  0  0  0  0  0  0  0  0  0  0  0
    3.1450    6.4260    7.1190 C   0  0  2  0  0  0  0  0  0  0  0  0
    1.9200    6.4650    6.2180 C   0  0  0  0  0  0  0  0  0  0  0  0
    0.8730    5.8280    6.5110 O   0  5  0  0  0  0  0  0  0  0  0  0
    4.3960    5.8060    6.5720 C   0  0  0  0  0  0  0  0  0  0  0  0
    4.6980    4.4030    7.1250 C   0  0  0  0  0  0  0  0  0  0  0  0
    4.4840    5.7930    5.0360 C   0  0  0  0  0  0  0  0  0  0  0  0
    1.9750    7.2710    5.2510 O   0  0  0  0  0  0  0  0  0  0  0  0
   12.9027   -2.1253   15.1162 H   0  0  0  0  0  0  0  0  0  0  0  0
   11.7933   -2.5170   13.9651 H   0  0  0  0  0  0  0  0  0  0  0  0
   11.7360   -3.2394   15.4431 H   0  0  0  0  0  0  0  0  0  0  0  0
   11.2369   -1.2164   16.5096 H   0  0  0  0  0  0  0  0  0  0  0  0
   10.7621    0.1127   13.8648 H   0  0  0  0  0  0  0  0  0  0  0  0
   12.4773   -0.0875   14.3593 H   0  0  0  0  0  0  0  0  0  0  0  0
    9.2576    1.5053   15.2002 H   0  0  0  0  0  0  0  0  0  0  0  0
   13.3512    1.0358   16.2497 H   0  0  0  0  0  0  0  0  0  0  0  0
    9.1205    3.5044   16.6215 H   0  0  0  0  0  0  0  0  0  0  0  0
   13.2265    3.0448   17.6571 H   0  0  0  0  0  0  0  0  0  0  0  0
   10.2396    4.9454   17.9480 H   0  0  0  0  0  0  0  0  0  0  0  0
   10.0866   -2.1109   13.2802 H   0  0  0  0  0  0  0  0  0  0  0  0
    8.1626   -2.4277   12.3198 H   0  0  0  0  0  0  0  0  0  0  0  0
    6.7727   -3.2161   14.8383 H   0  0  0  0  0  0  0  0  0  0  0  0
    8.1839   -4.1823   14.2890 H   0  0  0  0  0  0  0  0  0  0  0  0
    5.6685   -3.6844   12.6255 H   0  0  0  0  0  0  0  0  0  0  0  0
    6.5650   -5.5505   11.2506 H   0  0  0  0  0  0  0  0  0  0  0  0
    8.0164   -5.6419   12.3049 H   0  0  0  0  0  0  0  0  0  0  0  0
    7.7288   -4.1830   11.2973 H   0  0  0  0  0  0  0  0  0  0  0  0
    5.2466   -4.9784   14.7280 H   0  0  0  0  0  0  0  0  0  0  0  0
    6.6056   -6.0804   14.3212 H   0  0  0  0  0  0  0  0  0  0  0  0
    5.1379   -6.0440   13.2861 H   0  0  0  0  0  0  0  0  0  0  0  0
    5.7250   -2.1034   12.4893 H   0  0  0  0  0  0  0  0  0  0  0  0
    4.2439   -0.5549   12.0907 H   0  0  0  0  0  0  0  0  0  0  0  0
    2.8781   -0.0684   14.0995 H   0  0  0  0  0  0  0  0  0  0  0  0
    2.2022   -2.4776   14.0867 H   0  0  0  0  0  0  0  0  0  0  0  0
    3.7600   -2.8972   13.2969 H   0  0  0  0  0  0  0  0  0  0  0  0
    2.5641   -1.8704   12.4354 H   0  0  0  0  0  0  0  0  0  0  0  0
    4.6493   -0.2000   15.8252 H   0  0  0  0  0  0  0  0  0  0  0  0
    4.9620   -1.9118   15.3797 H   0  0  0  0  0  0  0  0  0  0  0  0
    3.3811   -1.4436   16.0927 H   0  0  0  0  0  0  0  0  0  0  0  0
    4.7196    1.0307   11.0854 H   0  0  0  0  0  0  0  0  0  0  0  0
    5.5512    3.5185   12.4984 H   0  0  0  0  0  0  0  0  0  0  0  0
    6.3102    2.6377    9.6919 H   0  0  0  0  0  0  0  0  0  0  0  0
    7.4599    1.4574   11.3153 H   0  0  0  0  0  0  0  0  0  0  0  0
    7.8761    4.5741    9.8151 H   0  0  0  0  0  0  0  0  0  0  0  0
    7.2593    4.9701   11.4550 H   0  0  0  0  0  0  0  0  0  0  0  0
    6.1735    5.1046   10.0303 H   0  0  0  0  0  0  0  0  0  0  0  0
    3.8422    4.8440   12.2487 H   0  0  0  0  0  0  0  0  0  0  0  0
    1.8280    4.5628   10.2453 H   0  0  0  0  0  0  0  0  0  0  0  0
    1.2750    5.5926   12.3836 H   0  0  0  0  0  0  0  0  0  0  0  0
    0.9973    6.7418   11.0312 H   0  0  0  0  0  0  0  0  0  0  0  0
    3.0054    7.7175   11.6102 H   0  0  0  0  0  0  0  0  0  0  0  0
    1.9064    5.1554    8.2307 H   0  0  0  0  0  0  0  0  0  0  0  0
    3.4147    7.4663    7.3534 H   0  0  0  0  0  0  0  0  0  0  0  0
    5.2148    6.4538    6.9182 H   0  0  0  0  0  0  0  0  0  0  0  0
    5.6270    4.0235    6.6745 H   0  0  0  0  0  0  0  0  0  0  0  0
    3.8675    3.7251    6.8786 H   0  0  0  0  0  0  0  0  0  0  0  0
    4.8156    4.4569    8.2174 H   0  0  0  0  0  0  0  0  0  0  0  0
    4.2670    6.7991    4.6478 H   0  0  0  0  0  0  0  0  0  0  0  0
    3.7513    5.0785    4.6328 H   0  0  0  0  0  0  0  0  0  0  0  0
    5.4966    5.4922    4.7292 H   0  0  0  0  0  0  0  0  0  0  0  0
  1  2  1  0  0  0  0
  1 49  1  0  0  0  0
  1 50  1  0  0  0  0
  1 51  1  0  0  0  0
  2  3  1  0  0  0  0
  2  5  1  0  0  0  0
  2 52  1  1  0  0  0
  3  4  2  0  0  0  0
  3 13  1  0  0  0  0
  5  6  1  0  0  0  0
  5 53  1  0  0  0  0
  5 54  1  0  0  0  0
  6  7  2  0  0  0  0
  6  8  1  0  0  0  0
  7  9  1  0  0  0  0
  7 55  1  0  0  0  0
  8 10  2  0  0  0  0
  8 56  1  0  0  0  0
  9 11  2  0  0  0  0
  9 57  1  0  0  0  0
 10 11  1  0  0  0  0
 10 58  1  0  0  0  0
 11 12  1  0  0  0  0
 12 59  1  0  0  0  0
 13 14  1  0  0  0  0
 13 60  1  0  0  0  0
 14 15  1  0  0  0  0
 14 17  1  0  0  0  0
 14 61  1  6  0  0  0
 15 16  2  0  0  0  0
 15 21  1  0  0  0  0
 17 18  1  0  0  0  0
 17 62  1  0  0  0  0
 17 63  1  0  0  0  0
 18 19  1  0  0  0  0
 18 20  1  0  0  0  0
 18 64  1  0  0  0  0
 19 65  1  0  0  0  0
 19 66  1  0  0  0  0
 19 67  1  0  0  0  0
 20 68  1  0  0  0  0
 20 69  1  0  0  0  0
 20 70  1  0  0  0  0
 21 22  1  0  0  0  0
 21 71  1  0  0  0  0
 22 23  1  0  0  0  0
 22 25  1  0  0  0  0
 22 72  1  6  0  0  0
 23 24  2  0  0  0  0
 23 28  1  0  0  0  0
 25 26  1  0  0  0  0
 25 27  1  0  0  0  0
 25 73  1  0  0  0  0
 26 74  1  0  0  0  0
 26 75  1  0  0  0  0
 26 76  1  0  0  0  0
 27 77  1  0  0  0  0
 27 78  1  0  0  0  0
 27 79  1  0  0  0  0
 28 29  1  0  0  0  0
 28 80  1  0  0  0  0
 29 30  1  0  0  0  0
 29 32  1  0  0  0  0
 29 81  1  1  0  0  0
 30 31  2  0  0  0  0
 30 35  1  0  0  0  0
 32 33  1  0  0  0  0
 32 34  1  0  0  0  0
 32 82  1  6  0  0  0
 33 83  1  0  0  0  0
 34 84  1  0  0  0  0
 34 85  1  0  0  0  0
 34 86  1  0  0  0  0
 35 36  1  0  0  0  0
 35 87  1  0  0  0  0
 36 37  1  0  0  0  0
 36 39  1  0  0  0  0
 36 88  1  6  0  0  0
 37 38  2  0  0  0  0
 37 41  1  0  0  0  0
 39 40  1  0  0  0  0
 39 89  1  0  0  0  0
 39 90  1  0  0  0  0
 40 91  1  0  0  0  0
 41 42  1  0  0  0  0
 41 92  1  0  0  0  0
 42 43  1  0  0  0  0
 42 45  1  0  0  0  0
 42 93  1  1  0  0  0
 43 44  1  0  0  0  0
 43 48  2  0  0  0  0
 45 46  1  0  0  0  0
 45 47  1  0  0  0  0
 45 94  1  0  0  0  0
 46 95  1  0  0  0  0
 46 96  1  0  0  0  0
 46 97  1  0  0  0  0
 47 98  1  0  0  0  0
 47 99  1  0  0  0  0
 47100  1  0  0  0  0
M  CHG  2   1   1  44  -1
M  END
