1vr1_ligand
 OpenBabel08222323343D

168170  0  0  1  0  0  0  0  0999 V2000
    5.3570  -13.2390    2.0960 N   0  3  0  0  0  0  0  0  0  0  0  0
    5.1930  -12.1460    1.0910 C   0  0  2  0  0  0  0  0  0  0  0  0
    6.4890  -11.3480    0.9920 C   0  0  0  0  0  0  0  0  0  0  0  0
    7.6330  -11.8020    0.9640 O   0  0  0  0  0  0  0  0  0  0  0  0
    3.9990  -11.2600    1.4250 C   0  0  0  0  0  0  0  0  0  0  0  0
    3.6490  -10.1420    0.4690 C   0  0  0  0  0  0  0  0  0  0  0  0
    4.2640  -10.0650   -0.6190 O   0  5  0  0  0  0  0  0  0  0  0  0
    2.7780   -9.3110    0.8020 O   0  0  0  0  0  0  0  0  0  0  0  0
    6.3280  -10.0640    0.9800 N   0  0  0  0  0  0  0  0  0  0  0  0
    7.0800   -8.8860    0.8630 C   0  0  2  0  0  0  0  0  0  0  0  0
    6.9430   -8.4100   -0.5920 C   0  0  0  0  0  0  0  0  0  0  0  0
    7.4370   -9.0200   -1.5270 O   0  0  0  0  0  0  0  0  0  0  0  0
    8.5250   -8.8210    1.3320 C   0  0  0  0  0  0  0  0  0  0  0  0
    8.5540   -8.8620    2.8400 C   0  0  0  0  0  0  0  0  0  0  0  0
    8.1040   -7.7850    3.5900 C   0  0  0  0  0  0  0  0  0  0  0  0
    9.0010  -10.0030    3.4760 C   0  0  0  0  0  0  0  0  0  0  0  0
    8.1200   -7.8450    4.9670 C   0  0  0  0  0  0  0  0  0  0  0  0
    9.0030  -10.0670    4.8660 C   0  0  0  0  0  0  0  0  0  0  0  0
    8.5560   -8.9860    5.6050 C   0  0  0  0  0  0  0  0  0  0  0  0
    6.0860   -7.3910   -0.6850 N   0  0  0  0  0  0  0  0  0  0  0  0
    5.8790   -6.7850   -2.0070 C   0  0  2  0  0  0  0  0  0  0  0  0
    7.2280   -6.1830   -2.3490 C   0  0  0  0  0  0  0  0  0  0  0  0
    7.9370   -5.7550   -1.4380 O   0  0  0  0  0  0  0  0  0  0  0  0
    4.7350   -5.8030   -1.9480 C   0  0  0  0  0  0  0  0  0  0  0  0
    4.7050   -4.7540   -3.0290 C   0  0  0  0  0  0  0  0  0  0  0  0
    3.4790   -3.8670   -2.9160 C   0  0  0  0  0  0  0  0  0  0  0  0
    2.8390   -3.8500   -1.8430 O   0  5  0  0  0  0  0  0  0  0  0  0
    3.2020   -3.2040   -3.9410 O   0  0  0  0  0  0  0  0  0  0  0  0
    7.6210   -6.2550   -3.6080 N   0  0  0  0  0  0  0  0  0  0  0  0
    8.9130   -5.7170   -4.0220 C   0  0  2  0  0  0  0  0  0  0  0  0
    8.9240   -4.2100   -3.8310 C   0  0  0  0  0  0  0  0  0  0  0  0
    7.8790   -3.5620   -3.9440 O   0  0  0  0  0  0  0  0  0  0  0  0
    9.1690   -6.0700   -5.4960 C   0  0  0  0  0  0  0  0  0  0  0  0
   10.6190   -6.4660   -5.7660 C   0  0  0  0  0  0  0  0  0  0  0  0
   11.0280   -7.7610   -5.0890 C   0  0  0  0  0  0  0  0  0  0  0  0
   10.1360   -8.5180   -4.6470 O   0  5  0  0  0  0  0  0  0  0  0  0
   12.2290   -8.0840   -4.9600 O   0  0  0  0  0  0  0  0  0  0  0  0
   10.0790   -3.6500   -3.5580 N   0  0  0  0  0  0  0  0  0  0  0  0
   10.2810   -2.2180   -3.4120 C   0  0  2  0  0  0  0  0  0  0  0  0
   10.9790   -1.7320   -4.6780 C   0  0  0  0  0  0  0  0  0  0  0  0
   11.6940   -2.5170   -5.2950 O   0  0  0  0  0  0  0  0  0  0  0  0
   11.1360   -1.9160   -2.1660 C   0  0  2  0  0  0  0  0  0  0  0  0
   12.5700   -2.4170   -2.2920 C   0  0  0  0  0  0  0  0  0  0  0  0
   10.4590   -2.5130   -0.9290 C   0  0  0  0  0  0  0  0  0  0  0  0
   13.3810   -2.3160   -1.0200 C   0  0  0  0  0  0  0  0  0  0  0  0
   10.7910   -0.4860   -5.0700 N   0  0  0  0  0  0  0  0  0  0  0  0
   11.4020    0.0900   -6.2460 C   0  0  2  0  0  0  0  0  0  0  0  0
   12.8910   -0.1830   -6.3230 C   0  0  0  0  0  0  0  0  0  0  0  0
   13.5760   -0.2370   -5.3040 O   0  0  0  0  0  0  0  0  0  0  0  0
   11.1220    1.5860   -6.1180 C   0  0  0  0  0  0  0  0  0  0  0  0
    9.8180    1.6200   -5.3780 C   0  0  0  0  0  0  0  0  0  0  0  0
    9.9310    0.5060   -4.3590 C   0  0  0  0  0  0  0  0  0  0  0  0
   13.3960   -0.3340   -7.5540 N   0  0  0  0  0  0  0  0  0  0  0  0
   14.7800   -0.6710   -7.8090 C   0  0  2  0  0  0  0  0  0  0  0  0
   15.8340    0.3730   -7.4730 C   0  0  0  0  0  0  0  0  0  0  0  0
   16.9230    0.0540   -7.2360 O   0  0  0  0  0  0  0  0  0  0  0  0
   15.0270   -0.9600   -9.2970 C   0  0  0  0  0  0  0  0  0  0  0  0
   15.8250   -2.1950   -9.6330 C   0  0  0  0  0  0  0  0  0  0  0  0
   17.1820   -2.3890   -9.0070 C   0  0  0  0  0  0  0  0  0  0  0  0
   18.1050   -1.5940   -9.2840 O   0  5  0  0  0  0  0  0  0  0  0  0
   17.3720   -3.3510   -8.2280 O   0  0  0  0  0  0  0  0  0  0  0  0
   15.4580    1.6500   -7.5670 N   0  0  0  0  0  0  0  0  0  0  0  0
   16.2660    2.6720   -6.8860 C   0  0  2  0  0  0  0  0  0  0  0  0
   16.8380    2.4670   -5.5070 C   0  0  0  0  0  0  0  0  0  0  0  0
   17.8140    2.9290   -5.1490 O   0  0  0  0  0  0  0  0  0  0  0  0
   15.7030    4.0560   -7.2340 C   0  0  0  0  0  0  0  0  0  0  0  0
   15.7140    5.0600   -6.0880 C   0  0  0  0  0  0  0  0  0  0  0  0
   14.3380    5.6520   -5.8340 C   0  0  0  0  0  0  0  0  0  0  0  0
   13.3460    4.9000   -6.0060 O   0  5  0  0  0  0  0  0  0  0  0  0
   14.2360    6.8400   -5.4540 O   0  0  0  0  0  0  0  0  0  0  0  0
   16.0430    1.6050   -4.6250 N   0  0  0  0  0  0  0  0  0  0  0  0
   16.5880    1.4220   -3.2720 C   0  0  2  0  0  0  0  0  0  0  0  0
   17.5560    0.2370   -3.2500 C   0  0  0  0  0  0  0  0  0  0  0  0
   18.3010    0.0410   -2.2790 O   0  0  0  0  0  0  0  0  0  0  0  0
   15.3990    1.1730   -2.2550 C   0  0  0  0  0  0  0  0  0  0  0  0
   14.6090    2.4810   -2.3420 C   0  0  0  0  0  0  0  0  0  0  0  0
   15.2680    3.7070   -2.1840 C   0  0  0  0  0  0  0  0  0  0  0  0
   13.2290    2.4550   -2.5790 C   0  0  0  0  0  0  0  0  0  0  0  0
   14.5480    4.9050   -2.2620 C   0  0  0  0  0  0  0  0  0  0  0  0
   12.5090    3.6530   -2.6580 C   0  0  0  0  0  0  0  0  0  0  0  0
   13.1680    4.8780   -2.5000 C   0  0  0  0  0  0  0  0  0  0  0  0
   12.4690    6.0420   -2.5760 O   0  0  0  0  0  0  0  0  0  0  0  0
   17.4380   -0.4850   -4.0980 N   0  0  0  0  0  0  0  0  0  0  0  0
   18.2610   -1.3920   -4.8990 C   0  0  2  0  0  0  0  0  0  0  0  0
   17.9140   -2.8430   -4.5740 C   0  0  0  0  0  0  0  0  0  0  0  0
   16.7330   -3.2010   -4.4480 O   0  5  0  0  0  0  0  0  0  0  0  0
   19.7390   -1.1300   -4.6260 C   0  0  0  0  0  0  0  0  0  0  0  0
   20.2610    0.0590   -5.4280 C   0  0  0  0  0  0  0  0  0  0  0  0
   21.2470    0.9260   -4.6480 C   0  0  0  0  0  0  0  0  0  0  0  0
   20.9860   -0.3570   -6.7090 C   0  0  0  0  0  0  0  0  0  0  0  0
   18.8386   -3.6871   -4.4320 O   0  0  0  0  0  0  0  0  0  0  0  0
    4.5005  -13.7665    2.1615 H   0  0  0  0  0  0  0  0  0  0  0  0
    5.5747  -12.8388    2.9952 H   0  0  0  0  0  0  0  0  0  0  0  0
    6.1063  -13.8493    1.8095 H   0  0  0  0  0  0  0  0  0  0  0  0
    5.0019  -12.6073    0.1109 H   0  0  0  0  0  0  0  0  0  0  0  0
    4.1974  -10.8011    2.4048 H   0  0  0  0  0  0  0  0  0  0  0  0
    3.1178  -11.9143    1.4982 H   0  0  0  0  0  0  0  0  0  0  0  0
    5.3593   -9.8408    1.0887 H   0  0  0  0  0  0  0  0  0  0  0  0
    6.5582   -8.1509    1.4933 H   0  0  0  0  0  0  0  0  0  0  0  0
    8.9855   -7.8863    0.9796 H   0  0  0  0  0  0  0  0  0  0  0  0
    9.0826   -9.6793    0.9289 H   0  0  0  0  0  0  0  0  0  0  0  0
    7.7389   -6.8941    3.0918 H   0  0  0  0  0  0  0  0  0  0  0  0
    9.3499  -10.8478    2.8933 H   0  0  0  0  0  0  0  0  0  0  0  0
    7.7889   -6.9928    5.5493 H   0  0  0  0  0  0  0  0  0  0  0  0
    9.3537  -10.9612    5.3685 H   0  0  0  0  0  0  0  0  0  0  0  0
    8.5488   -9.0367    6.6878 H   0  0  0  0  0  0  0  0  0  0  0  0
    5.6001   -7.0508    0.1201 H   0  0  0  0  0  0  0  0  0  0  0  0
    5.6283   -7.5586   -2.7478 H   0  0  0  0  0  0  0  0  0  0  0  0
    4.7862   -5.2853   -0.9788 H   0  0  0  0  0  0  0  0  0  0  0  0
    3.7975   -6.3752   -2.0090 H   0  0  0  0  0  0  0  0  0  0  0  0
    4.6952   -5.2526   -4.0095 H   0  0  0  0  0  0  0  0  0  0  0  0
    5.6062   -4.1290   -2.9444 H   0  0  0  0  0  0  0  0  0  0  0  0
    7.0251   -6.6840   -4.2868 H   0  0  0  0  0  0  0  0  0  0  0  0
    9.7055   -6.1629   -3.4031 H   0  0  0  0  0  0  0  0  0  0  0  0
    8.9226   -5.1948   -6.1150 H   0  0  0  0  0  0  0  0  0  0  0  0
    8.5172   -6.9112   -5.7744 H   0  0  0  0  0  0  0  0  0  0  0  0
   11.2737   -5.6606   -5.4016 H   0  0  0  0  0  0  0  0  0  0  0  0
   10.7516   -6.5835   -6.8516 H   0  0  0  0  0  0  0  0  0  0  0  0
   10.8723   -4.2478   -3.4428 H   0  0  0  0  0  0  0  0  0  0  0  0
    9.3084   -1.7147   -3.3090 H   0  0  0  0  0  0  0  0  0  0  0  0
   11.1765   -0.8237   -2.0428 H   0  0  0  0  0  0  0  0  0  0  0  0
   13.0744   -1.8245   -3.0695 H   0  0  0  0  0  0  0  0  0  0  0  0
   12.5398   -3.4732   -2.5977 H   0  0  0  0  0  0  0  0  0  0  0  0
    9.4273   -2.1380   -0.8588 H   0  0  0  0  0  0  0  0  0  0  0  0
   11.0177   -2.2200   -0.0279 H   0  0  0  0  0  0  0  0  0  0  0  0
   10.4457   -3.6098   -1.0117 H   0  0  0  0  0  0  0  0  0  0  0  0
   14.3967   -2.6973   -1.2015 H   0  0  0  0  0  0  0  0  0  0  0  0
   12.9009   -2.9130   -0.2306 H   0  0  0  0  0  0  0  0  0  0  0  0
   13.4355   -1.2643   -0.7024 H   0  0  0  0  0  0  0  0  0  0  0  0
   10.9244   -0.3110   -7.1521 H   0  0  0  0  0  0  0  0  0  0  0  0
   11.0280    2.0572   -7.1075 H   0  0  0  0  0  0  0  0  0  0  0  0
   11.9150    2.0896   -5.5458 H   0  0  0  0  0  0  0  0  0  0  0  0
    8.9773    1.4363   -6.0631 H   0  0  0  0  0  0  0  0  0  0  0  0
    9.6792    2.5905   -4.8792 H   0  0  0  0  0  0  0  0  0  0  0  0
   10.4104    0.8588   -3.4340 H   0  0  0  0  0  0  0  0  0  0  0  0
    8.9445    0.0810   -4.1218 H   0  0  0  0  0  0  0  0  0  0  0  0
   12.7861   -0.2075   -8.3363 H   0  0  0  0  0  0  0  0  0  0  0  0
   14.9956   -1.5755   -7.2214 H   0  0  0  0  0  0  0  0  0  0  0  0
   15.5609   -0.0955   -9.7185 H   0  0  0  0  0  0  0  0  0  0  0  0
   14.0451   -1.0573   -9.7833 H   0  0  0  0  0  0  0  0  0  0  0  0
   15.9715   -2.1957  -10.7232 H   0  0  0  0  0  0  0  0  0  0  0  0
   15.2118   -3.0616   -9.3448 H   0  0  0  0  0  0  0  0  0  0  0  0
   14.6445    1.9061   -8.0892 H   0  0  0  0  0  0  0  0  0  0  0  0
   17.1940    2.6425   -7.4759 H   0  0  0  0  0  0  0  0  0  0  0  0
   14.6621    3.9279   -7.5659 H   0  0  0  0  0  0  0  0  0  0  0  0
   16.3021    4.4713   -8.0578 H   0  0  0  0  0  0  0  0  0  0  0  0
   16.4102    5.8745   -6.3366 H   0  0  0  0  0  0  0  0  0  0  0  0
   16.0556    4.5517   -5.1743 H   0  0  0  0  0  0  0  0  0  0  0  0
   15.1917    1.1731   -4.9228 H   0  0  0  0  0  0  0  0  0  0  0  0
   17.1303    2.3321   -2.9761 H   0  0  0  0  0  0  0  0  0  0  0  0
   15.7766    1.0038   -1.2358 H   0  0  0  0  0  0  0  0  0  0  0  0
   14.7836    0.3156   -2.5652 H   0  0  0  0  0  0  0  0  0  0  0  0
   16.3363    3.7281   -2.0012 H   0  0  0  0  0  0  0  0  0  0  0  0
   12.7181    1.5068   -2.7013 H   0  0  0  0  0  0  0  0  0  0  0  0
   15.0584    5.8533   -2.1382 H   0  0  0  0  0  0  0  0  0  0  0  0
   11.4409    3.6321   -2.8416 H   0  0  0  0  0  0  0  0  0  0  0  0
   11.7995    6.0526   -1.9021 H   0  0  0  0  0  0  0  0  0  0  0  0
   16.4846   -0.5205   -4.3976 H   0  0  0  0  0  0  0  0  0  0  0  0
   18.0583   -1.2089   -5.9645 H   0  0  0  0  0  0  0  0  0  0  0  0
   20.3160   -2.0254   -4.9003 H   0  0  0  0  0  0  0  0  0  0  0  0
   19.8718   -0.9223   -3.5540 H   0  0  0  0  0  0  0  0  0  0  0  0
   19.3916    0.6753   -5.7004 H   0  0  0  0  0  0  0  0  0  0  0  0
   21.5821    1.7606   -5.2814 H   0  0  0  0  0  0  0  0  0  0  0  0
   22.1151    0.3186   -4.3523 H   0  0  0  0  0  0  0  0  0  0  0  0
   20.7540    1.3234   -3.7486 H   0  0  0  0  0  0  0  0  0  0  0  0
   20.3219   -0.9883   -7.3176 H   0  0  0  0  0  0  0  0  0  0  0  0
   21.8932   -0.9225   -6.4498 H   0  0  0  0  0  0  0  0  0  0  0  0
   21.2642    0.5405   -7.2809 H   0  0  0  0  0  0  0  0  0  0  0  0
  1  2  1  0  0  0  0
  1 92  1  0  0  0  0
  1 93  1  0  0  0  0
  1 94  1  0  0  0  0
  2  3  1  0  0  0  0
  2  5  1  0  0  0  0
  2 95  1  6  0  0  0
  3  4  2  0  0  0  0
  3  9  1  0  0  0  0
  5  6  1  0  0  0  0
  5 96  1  0  0  0  0
  5 97  1  0  0  0  0
  6  7  1  0  0  0  0
  6  8  2  0  0  0  0
  9 10  1  0  0  0  0
  9 98  1  0  0  0  0
 10 11  1  0  0  0  0
 10 13  1  0  0  0  0
 10 99  1  1  0  0  0
 11 12  2  0  0  0  0
 11 20  1  0  0  0  0
 13 14  1  0  0  0  0
 13100  1  0  0  0  0
 13101  1  0  0  0  0
 14 15  2  0  0  0  0
 14 16  1  0  0  0  0
 15 17  1  0  0  0  0
 15102  1  0  0  0  0
 16 18  2  0  0  0  0
 16103  1  0  0  0  0
 17 19  2  0  0  0  0
 17104  1  0  0  0  0
 18 19  1  0  0  0  0
 18105  1  0  0  0  0
 19106  1  0  0  0  0
 20 21  1  0  0  0  0
 20107  1  0  0  0  0
 21 22  1  0  0  0  0
 21 24  1  0  0  0  0
 21108  1  6  0  0  0
 22 23  2  0  0  0  0
 22 29  1  0  0  0  0
 24 25  1  0  0  0  0
 24109  1  0  0  0  0
 24110  1  0  0  0  0
 25 26  1  0  0  0  0
 25111  1  0  0  0  0
 25112  1  0  0  0  0
 26 27  1  0  0  0  0
 26 28  2  0  0  0  0
 29 30  1  0  0  0  0
 29113  1  0  0  0  0
 30 31  1  0  0  0  0
 30 33  1  0  0  0  0
 30114  1  1  0  0  0
 31 32  2  0  0  0  0
 31 38  1  0  0  0  0
 33 34  1  0  0  0  0
 33115  1  0  0  0  0
 33116  1  0  0  0  0
 34 35  1  0  0  0  0
 34117  1  0  0  0  0
 34118  1  0  0  0  0
 35 36  1  0  0  0  0
 35 37  2  0  0  0  0
 38 39  1  0  0  0  0
 38119  1  0  0  0  0
 39 40  1  0  0  0  0
 39 42  1  0  0  0  0
 39120  1  1  0  0  0
 40 41  2  0  0  0  0
 40 46  1  0  0  0  0
 42 43  1  0  0  0  0
 42 44  1  0  0  0  0
 42121  1  1  0  0  0
 43 45  1  0  0  0  0
 43122  1  0  0  0  0
 43123  1  0  0  0  0
 44124  1  0  0  0  0
 44125  1  0  0  0  0
 44126  1  0  0  0  0
 45127  1  0  0  0  0
 45128  1  0  0  0  0
 45129  1  0  0  0  0
 46 47  1  0  0  0  0
 46 52  1  0  0  0  0
 47 48  1  0  0  0  0
 47 50  1  0  0  0  0
 47130  1  6  0  0  0
 48 49  2  0  0  0  0
 48 53  1  0  0  0  0
 50 51  1  0  0  0  0
 50131  1  0  0  0  0
 50132  1  0  0  0  0
 51 52  1  0  0  0  0
 51133  1  0  0  0  0
 51134  1  0  0  0  0
 52135  1  0  0  0  0
 52136  1  0  0  0  0
 53 54  1  0  0  0  0
 53137  1  0  0  0  0
 54 55  1  0  0  0  0
 54 57  1  0  0  0  0
 54138  1  1  0  0  0
 55 56  2  0  0  0  0
 55 62  1  0  0  0  0
 57 58  1  0  0  0  0
 57139  1  0  0  0  0
 57140  1  0  0  0  0
 58 59  1  0  0  0  0
 58141  1  0  0  0  0
 58142  1  0  0  0  0
 59 60  1  0  0  0  0
 59 61  2  0  0  0  0
 62 63  1  0  0  0  0
 62143  1  0  0  0  0
 63 64  1  0  0  0  0
 63 66  1  0  0  0  0
 63144  1  6  0  0  0
 64 65  2  0  0  0  0
 64 71  1  0  0  0  0
 66 67  1  0  0  0  0
 66145  1  0  0  0  0
 66146  1  0  0  0  0
 67 68  1  0  0  0  0
 67147  1  0  0  0  0
 67148  1  0  0  0  0
 68 69  1  0  0  0  0
 68 70  2  0  0  0  0
 71 72  1  0  0  0  0
 71149  1  0  0  0  0
 72 73  1  0  0  0  0
 72 75  1  0  0  0  0
 72150  1  1  0  0  0
 73 74  2  0  0  0  0
 73 83  1  0  0  0  0
 75 76  1  0  0  0  0
 75151  1  0  0  0  0
 75152  1  0  0  0  0
 76 77  2  0  0  0  0
 76 78  1  0  0  0  0
 77 79  1  0  0  0  0
 77153  1  0  0  0  0
 78 80  2  0  0  0  0
 78154  1  0  0  0  0
 79 81  2  0  0  0  0
 79155  1  0  0  0  0
 80 81  1  0  0  0  0
 80156  1  0  0  0  0
 81 82  1  0  0  0  0
 82157  1  0  0  0  0
 83 84  1  0  0  0  0
 83158  1  0  0  0  0
 84 85  1  0  0  0  0
 84 87  1  0  0  0  0
 84159  1  6  0  0  0
 85 86  1  0  0  0  0
 85 91  2  0  0  0  0
 87 88  1  0  0  0  0
 87160  1  0  0  0  0
 87161  1  0  0  0  0
 88 89  1  0  0  0  0
 88 90  1  0  0  0  0
 88162  1  0  0  0  0
 89163  1  0  0  0  0
 89164  1  0  0  0  0
 89165  1  0  0  0  0
 90166  1  0  0  0  0
 90167  1  0  0  0  0
 90168  1  0  0  0  0
M  CHG  7   1   1   7  -1  27  -1  36  -1  60  -1  69  -1  86  -1
M  END
