1vwl_ligand
 OpenBabel08222323343D

132136  0  0  1  0  0  0  0  0999 V2000
   32.8650   14.1820  -13.2150 N   0  0  0  0  0  0  0  0  0  0  0  0
   32.1150   14.4180  -11.9520 C   0  0  2  0  0  0  0  0  0  0  0  0
   33.2130   14.8690  -11.0020 C   0  0  0  0  0  0  0  0  0  0  0  0
   34.2130   14.1640  -10.9210 O   0  0  0  0  0  0  0  0  0  0  0  0
   31.4320   13.1080  -11.3810 C   0  0  0  0  0  0  0  0  0  0  0  0
   30.5270   13.5520  -10.1980 C   0  0  0  0  0  0  0  0  0  0  0  0
   31.0300   13.8560   -9.0070 N   0  0  0  0  0  0  0  0  0  0  0  0
   29.1370   13.7330  -10.2150 C   0  0  0  0  0  0  0  0  0  0  0  0
   29.9780   14.2200   -8.3150 C   0  0  0  0  0  0  0  0  0  0  0  0
   28.8720   14.1480   -9.0090 N   0  0  0  0  0  0  0  0  0  0  0  0
   33.2241   13.2755  -13.4369 H   0  0  0  0  0  0  0  0  0  0  0  0
   31.3525   15.1987  -12.0898 H   0  0  0  0  0  0  0  0  0  0  0  0
   32.1997   12.4043  -11.0269 H   0  0  0  0  0  0  0  0  0  0  0  0
   30.8251   12.6263  -12.1618 H   0  0  0  0  0  0  0  0  0  0  0  0
   28.4447   13.5666  -11.0389 H   0  0  0  0  0  0  0  0  0  0  0  0
   30.0203   14.5463   -7.2769 H   0  0  0  0  0  0  0  0  0  0  0  0
   27.9337   14.3837   -8.6556 H   0  0  0  0  0  0  0  0  0  0  0  0
   33.0150   16.0000  -10.3280 N   0  0  0  0  0  0  0  0  0  0  0  0
   33.9450   16.5280   -9.2710 C   0  0  2  0  0  0  0  0  0  0  0  0
   34.3510   15.5430   -8.1420 C   0  0  0  0  0  0  0  0  0  0  0  0
   35.1280   15.8900   -7.2660 O   0  0  0  0  0  0  0  0  0  0  0  0
   33.2360   17.7980   -8.7120 C   0  0  0  0  0  0  0  0  0  0  0  0
   31.7490   17.5950   -9.0920 C   0  0  0  0  0  0  0  0  0  0  0  0
   31.8460   16.9520  -10.4880 C   0  0  0  0  0  0  0  0  0  0  0  0
   34.8780   16.8336   -9.7671 H   0  0  0  0  0  0  0  0  0  0  0  0
   33.6383   18.7084   -9.1802 H   0  0  0  0  0  0  0  0  0  0  0  0
   33.3551   17.8637   -7.6205 H   0  0  0  0  0  0  0  0  0  0  0  0
   31.2448   16.9251   -8.3800 H   0  0  0  0  0  0  0  0  0  0  0  0
   31.2146   18.5556   -9.1331 H   0  0  0  0  0  0  0  0  0  0  0  0
   30.9231   16.4097  -10.7412 H   0  0  0  0  0  0  0  0  0  0  0  0
   32.0511   17.7076  -11.2606 H   0  0  0  0  0  0  0  0  0  0  0  0
   33.8230   14.3510   -8.1620 N   0  0  0  0  0  0  0  0  0  0  0  0
   34.2210   13.4000   -7.0780 C   0  0  2  0  0  0  0  0  0  0  0  0
   35.2410   12.4280   -7.6620 C   0  0  0  0  0  0  0  0  0  0  0  0
   35.8770   11.7160   -6.9050 O   0  0  0  0  0  0  0  0  0  0  0  0
   33.0210   12.5790   -6.5760 C   0  0  0  0  0  0  0  0  0  0  0  0
   33.4550   11.8980   -5.2410 C   0  0  0  0  0  0  0  0  0  0  0  0
   32.2400   11.2030   -4.7060 C   0  0  0  0  0  0  0  0  0  0  0  0
   31.1580   11.7480   -4.7710 O   0  0  0  0  0  0  0  0  0  0  0  0
   32.3700   10.0230   -4.1800 N   0  0  0  0  0  0  0  0  0  0  0  0
   33.1759   14.0824   -8.8756 H   0  0  0  0  0  0  0  0  0  0  0  0
   34.6618   13.9594   -6.2397 H   0  0  0  0  0  0  0  0  0  0  0  0
   32.7503   11.8141   -7.3187 H   0  0  0  0  0  0  0  0  0  0  0  0
   32.1595   13.2398   -6.3994 H   0  0  0  0  0  0  0  0  0  0  0  0
   33.8066   12.6550   -4.5245 H   0  0  0  0  0  0  0  0  0  0  0  0
   34.2579   11.1699   -5.4288 H   0  0  0  0  0  0  0  0  0  0  0  0
   31.5691    9.5457   -3.8184 H   0  0  0  0  0  0  0  0  0  0  0  0
   33.2711    9.5915   -4.1365 H   0  0  0  0  0  0  0  0  0  0  0  0
   35.3650   12.4310   -8.9600 N   0  0  0  0  0  0  0  0  0  0  0  0
   36.3240   11.5150   -9.6010 C   0  0  0  0  0  0  0  0  0  0  0  0
   37.5950   12.2700   -9.9190 C   0  0  0  0  0  0  0  0  0  0  0  0
   37.6670   13.4830   -9.7270 O   0  0  0  0  0  0  0  0  0  0  0  0
   34.8125   13.0513   -9.5168 H   0  0  0  0  0  0  0  0  0  0  0  0
   35.8893   11.1183  -10.5303 H   0  0  0  0  0  0  0  0  0  0  0  0
   36.5512   10.6831   -8.9181 H   0  0  0  0  0  0  0  0  0  0  0  0
   38.5600   11.4940  -10.3990 N   0  0  0  0  0  0  0  0  0  0  0  0
   39.9210   12.0080  -10.7110 C   0  0  2  0  0  0  0  0  0  0  0  0
   39.8400   13.0960  -11.8160 C   0  0  0  0  0  0  0  0  0  0  0  0
   38.7760   13.3920  -12.3360 O   0  0  0  0  0  0  0  0  0  0  0  0
   40.7500   10.7110  -11.1170 C   0  0  0  0  0  0  0  0  0  0  0  0
   39.6790    9.7110  -11.6510 C   0  0  0  0  0  0  0  0  0  0  0  0
   38.4480   10.0110  -10.7190 C   0  0  0  0  0  0  0  0  0  0  0  0
   40.3709   12.4611   -9.8153 H   0  0  0  0  0  0  0  0  0  0  0  0
   41.2699   10.2928  -10.2424 H   0  0  0  0  0  0  0  0  0  0  0  0
   41.4841   10.9489  -11.9009 H   0  0  0  0  0  0  0  0  0  0  0  0
   39.4384    9.9104  -12.7057 H   0  0  0  0  0  0  0  0  0  0  0  0
   40.0167    8.6698  -11.5424 H   0  0  0  0  0  0  0  0  0  0  0  0
   37.5042    9.7969  -11.2418 H   0  0  0  0  0  0  0  0  0  0  0  0
   38.5022    9.4102   -9.7991 H   0  0  0  0  0  0  0  0  0  0  0  0
   40.9830   13.6490  -12.1440 N   0  0  0  0  0  0  0  0  0  0  0  0
   41.0970   14.5530  -13.3130 C   0  0  2  0  0  0  0  0  0  0  0  0
   40.6770   13.7210  -14.5380 C   0  0  0  0  0  0  0  0  0  0  0  0
   40.5740   12.5090  -14.4700 O   0  0  0  0  0  0  0  0  0  0  0  0
   42.5740   14.9830  -13.3180 C   0  0  0  0  0  0  0  0  0  0  0  0
   43.0030   14.7810  -11.8150 C   0  0  0  0  0  0  0  0  0  0  0  0
   42.2900   13.4780  -11.4370 C   0  0  0  0  0  0  0  0  0  0  0  0
   40.4446   15.4334  -13.2168 H   0  0  0  0  0  0  0  0  0  0  0  0
   42.6792   16.0350  -13.6218 H   0  0  0  0  0  0  0  0  0  0  0  0
   43.1696   14.3463  -13.9887 H   0  0  0  0  0  0  0  0  0  0  0  0
   44.0943   14.6775  -11.7239 H   0  0  0  0  0  0  0  0  0  0  0  0
   42.6604   15.6176  -11.1883 H   0  0  0  0  0  0  0  0  0  0  0  0
   42.8363   12.5975  -11.8061 H   0  0  0  0  0  0  0  0  0  0  0  0
   42.1523   13.3945  -10.3489 H   0  0  0  0  0  0  0  0  0  0  0  0
   40.4630   14.3760  -15.6360 N   0  0  0  0  0  0  0  0  0  0  0  0
   40.0480   13.6080  -16.8470 C   0  0  2  0  0  0  0  0  0  0  0  0
   41.2940   12.9800  -17.4950 C   0  0  0  0  0  0  0  0  0  0  0  0
   42.3430   12.9030  -16.8820 O   0  0  0  0  0  0  0  0  0  0  0  0
   39.3540   14.5890  -17.7930 C   0  0  0  0  0  0  0  0  0  0  0  0
   38.0800   15.6060  -17.0000 S   0  0  0  0  0  0  0  0  0  0  0  0
   40.5730   15.3693  -15.6709 H   0  0  0  0  0  0  0  0  0  0  0  0
   39.3458   12.8096  -16.5651 H   0  0  0  0  0  0  0  0  0  0  0  0
   38.8818   14.0130  -18.6025 H   0  0  0  0  0  0  0  0  0  0  0  0
   40.1168   15.2590  -18.2164 H   0  0  0  0  0  0  0  0  0  0  0  0
   41.1060   12.5540  -18.7160 N   0  0  0  0  0  0  0  0  0  0  0  0
   42.2020   11.9200  -19.4990 C   0  0  2  0  0  0  0  0  0  0  0  0
   43.3270   12.9430  -19.6290 C   0  0  0  0  0  0  0  0  0  0  0  0
   43.1040   14.1350  -19.6150 O   0  0  0  0  0  0  0  0  0  0  0  0
   41.6610   11.5360  -20.8990 C   0  0  0  0  0  0  0  0  0  0  0  0
   42.7830   10.9910  -21.8130 C   0  0  0  0  0  0  0  0  0  0  0  0
   42.2100   10.7190  -23.2290 C   0  0  0  0  0  0  0  0  0  0  0  0
   43.3650   10.3680  -24.1860 C   0  0  0  0  0  0  0  0  0  0  0  0
   42.8330   10.1080  -25.5540 N   0  3  0  0  0  0  0  0  0  0  0  0
   40.2037   12.6564  -19.1347 H   0  0  0  0  0  0  0  0  0  0  0  0
   42.5689   11.0207  -18.9827 H   0  0  0  0  0  0  0  0  0  0  0  0
   41.2200   12.4278  -21.3682 H   0  0  0  0  0  0  0  0  0  0  0  0
   40.8877   10.7623  -20.7830 H   0  0  0  0  0  0  0  0  0  0  0  0
   43.1774   10.0549  -21.3910 H   0  0  0  0  0  0  0  0  0  0  0  0
   43.5928   11.7323  -21.8814 H   0  0  0  0  0  0  0  0  0  0  0  0
   41.6903   11.6171  -23.5940 H   0  0  0  0  0  0  0  0  0  0  0  0
   41.5018    9.8785  -23.1838 H   0  0  0  0  0  0  0  0  0  0  0  0
   43.8815    9.4688  -23.8191 H   0  0  0  0  0  0  0  0  0  0  0  0
   44.0741   11.2081  -24.2246 H   0  0  0  0  0  0  0  0  0  0  0  0
   43.5950    9.8793  -26.1730 H   0  0  0  0  0  0  0  0  0  0  0  0
   42.3604   10.9313  -25.8929 H   0  0  0  0  0  0  0  0  0  0  0  0
   42.1839    9.3375  -25.5213 H   0  0  0  0  0  0  0  0  0  0  0  0
   44.5450   12.5250  -19.7620 N   0  0  0  0  0  0  0  0  0  0  0  0
   45.2929   13.1832  -19.8483 H   0  0  0  0  0  0  0  0  0  0  0  0
   44.7380   11.5439  -19.7784 H   0  0  0  0  0  0  0  0  0  0  0  0
   33.0430   15.1960  -14.0310 C   0  0  0  0  0  0  0  0  0  0  0  0
   32.6020   16.3040  -13.7610 O   0  0  0  0  0  0  0  0  0  0  0  0
   33.8290   14.9530  -15.3590 C   0  0  0  0  0  0  0  0  0  0  0  0
   35.3690   14.8180  -15.0790 C   0  0  0  0  0  0  0  0  0  0  0  0
   36.0580   13.8120  -16.0810 C   0  0  0  0  0  0  0  0  0  0  0  0
   36.6410   14.5410  -17.3100 C   0  0  0  0  0  0  0  0  0  0  0  0
   33.6591   15.8008  -16.0390 H   0  0  0  0  0  0  0  0  0  0  0  0
   33.4655   14.0273  -15.8291 H   0  0  0  0  0  0  0  0  0  0  0  0
   35.5140   14.4531  -14.0515 H   0  0  0  0  0  0  0  0  0  0  0  0
   35.8391   15.8066  -15.1868 H   0  0  0  0  0  0  0  0  0  0  0  0
   35.3108   13.0802  -16.4218 H   0  0  0  0  0  0  0  0  0  0  0  0
   36.8718   13.2886  -15.5577 H   0  0  0  0  0  0  0  0  0  0  0  0
   35.8449   15.1681  -17.7376 H   0  0  0  0  0  0  0  0  0  0  0  0
   36.9399   13.7774  -18.0431 H   0  0  0  0  0  0  0  0  0  0  0  0
  1 11  1  0  0  0  0
  1119  1  0  0  0  0
  2  1  1  0  0  0  0
  2  5  1  0  0  0  0
  2 12  1  6  0  0  0
  3  2  1  0  0  0  0
  3  4  2  0  0  0  0
  5  6  1  0  0  0  0
  5 13  1  0  0  0  0
  5 14  1  0  0  0  0
  6  7  1  0  0  0  0
  6  8  2  0  0  0  0
  7  9  2  0  0  0  0
  8 10  1  0  0  0  0
  8 15  1  0  0  0  0
  9 16  1  0  0  0  0
 10  9  1  0  0  0  0
 10 17  1  0  0  0  0
 18 24  1  0  0  0  0
 18  3  1  0  0  0  0
 19 22  1  0  0  0  0
 19 18  1  0  0  0  0
 19 25  1  6  0  0  0
 20 19  1  0  0  0  0
 20 21  2  0  0  0  0
 22 23  1  0  0  0  0
 22 26  1  0  0  0  0
 22 27  1  0  0  0  0
 23 28  1  0  0  0  0
 23 29  1  0  0  0  0
 24 23  1  0  0  0  0
 24 30  1  0  0  0  0
 24 31  1  0  0  0  0
 32 41  1  0  0  0  0
 32 20  1  0  0  0  0
 33 32  1  0  0  0  0
 33 36  1  0  0  0  0
 33 42  1  1  0  0  0
 34 33  1  0  0  0  0
 34 35  2  0  0  0  0
 36 37  1  0  0  0  0
 36 43  1  0  0  0  0
 36 44  1  0  0  0  0
 37 38  1  0  0  0  0
 37 45  1  0  0  0  0
 37 46  1  0  0  0  0
 38 40  1  0  0  0  0
 38 39  2  0  0  0  0
 40 47  1  0  0  0  0
 40 48  1  0  0  0  0
 49 53  1  0  0  0  0
 49 34  1  0  0  0  0
 50 49  1  0  0  0  0
 50 54  1  0  0  0  0
 50 55  1  0  0  0  0
 51 50  1  0  0  0  0
 51 52  2  0  0  0  0
 56 62  1  0  0  0  0
 56 51  1  0  0  0  0
 57 60  1  0  0  0  0
 57 56  1  0  0  0  0
 57 63  1  1  0  0  0
 58 57  1  0  0  0  0
 58 59  2  0  0  0  0
 60 61  1  0  0  0  0
 60 64  1  0  0  0  0
 60 65  1  0  0  0  0
 61 66  1  0  0  0  0
 61 67  1  0  0  0  0
 62 61  1  0  0  0  0
 62 68  1  0  0  0  0
 62 69  1  0  0  0  0
 70 76  1  0  0  0  0
 70 58  1  0  0  0  0
 71 74  1  0  0  0  0
 71 70  1  0  0  0  0
 71 77  1  1  0  0  0
 72 71  1  0  0  0  0
 72 73  2  0  0  0  0
 74 75  1  0  0  0  0
 74 78  1  0  0  0  0
 74 79  1  0  0  0  0
 75 80  1  0  0  0  0
 75 81  1  0  0  0  0
 76 75  1  0  0  0  0
 76 82  1  0  0  0  0
 76 83  1  0  0  0  0
 84 90  1  0  0  0  0
 84 72  1  0  0  0  0
 85 84  1  0  0  0  0
 85 88  1  0  0  0  0
 85 91  1  1  0  0  0
 86 85  1  0  0  0  0
 86 87  2  0  0  0  0
 86 94  1  0  0  0  0
 88 89  1  0  0  0  0
 88 92  1  0  0  0  0
 88 93  1  0  0  0  0
 94 95  1  0  0  0  0
 94103  1  0  0  0  0
 95 98  1  0  0  0  0
 95 96  1  0  0  0  0
 95104  1  1  0  0  0
 96 97  2  0  0  0  0
 96116  1  0  0  0  0
 98 99  1  0  0  0  0
 98105  1  0  0  0  0
 98106  1  0  0  0  0
 99100  1  0  0  0  0
 99107  1  0  0  0  0
 99108  1  0  0  0  0
100101  1  0  0  0  0
100109  1  0  0  0  0
100110  1  0  0  0  0
101102  1  0  0  0  0
101111  1  0  0  0  0
101112  1  0  0  0  0
102113  1  0  0  0  0
102114  1  0  0  0  0
102115  1  0  0  0  0
116117  1  0  0  0  0
116118  1  0  0  0  0
119120  2  0  0  0  0
119121  1  0  0  0  0
121122  1  0  0  0  0
121125  1  0  0  0  0
121126  1  0  0  0  0
122123  1  0  0  0  0
122127  1  0  0  0  0
122128  1  0  0  0  0
123124  1  0  0  0  0
123129  1  0  0  0  0
123130  1  0  0  0  0
124 89  1  0  0  0  0
124131  1  0  0  0  0
124132  1  0  0  0  0
M  CHG  1 102   1
M  END
