1vwn_ligand
 OpenBabel08222323343D

 95 98  0  0  1  0  0  0  0  0999 V2000
    7.9710   -0.5070  -19.9300 C   0  0  0  0  0  0  0  0  0  0  0  0
    7.4420   -0.4090  -18.8350 O   0  0  0  0  0  0  0  0  0  0  0  0
    9.2120   -0.8750  -20.0760 N   0  0  0  0  0  0  0  0  0  0  0  0
    9.9750   -1.1680  -18.8420 C   0  0  2  0  0  0  0  0  0  0  0  0
   10.1370    0.2380  -18.2380 C   0  0  0  0  0  0  0  0  0  0  0  0
   10.0500    1.2110  -18.9660 O   0  0  0  0  0  0  0  0  0  0  0  0
   11.3270   -1.8060  -19.2040 C   0  0  0  0  0  0  0  0  0  0  0  0
   12.3510   -2.1550  -17.7640 S   0  0  0  0  0  0  0  0  0  0  0  0
    7.1618   -0.1918  -21.1543 C   0  0  0  0  0  0  0  0  0  0  0  0
   10.3690    0.3400  -16.9620 N   0  0  0  0  0  0  0  0  0  0  0  0
   10.5210    1.6960  -16.3310 C   0  0  2  0  0  0  0  0  0  0  0  0
   11.8950    1.7910  -15.6770 C   0  0  0  0  0  0  0  0  0  0  0  0
   12.3680    0.8010  -15.1530 O   0  0  0  0  0  0  0  0  0  0  0  0
    9.3540    1.8420  -15.3000 C   0  0  0  0  0  0  0  0  0  0  0  0
    9.4010    3.0530  -14.3570 C   0  0  0  0  0  0  0  0  0  0  0  0
   10.2340    3.1080  -13.3440 N   0  0  0  0  0  0  0  0  0  0  0  0
    8.6150    4.1910  -14.3950 C   0  0  0  0  0  0  0  0  0  0  0  0
    9.9580    4.2550  -12.7760 C   0  0  0  0  0  0  0  0  0  0  0  0
    9.0150    4.8920  -13.3820 N   0  0  0  0  0  0  0  0  0  0  0  0
   12.5000    2.9630  -15.7030 N   0  0  0  0  0  0  0  0  0  0  0  0
   13.8300    3.1840  -15.1160 C   0  0  2  0  0  0  0  0  0  0  0  0
   14.0420    2.6110  -13.7270 C   0  0  0  0  0  0  0  0  0  0  0  0
   15.1520    2.2420  -13.3880 O   0  0  0  0  0  0  0  0  0  0  0  0
   14.0140    4.6970  -15.1860 C   0  0  0  0  0  0  0  0  0  0  0  0
   12.6060    5.2790  -15.4320 C   0  0  0  0  0  0  0  0  0  0  0  0
   11.9570    4.2270  -16.3000 C   0  0  0  0  0  0  0  0  0  0  0  0
   13.0070    2.5560  -12.9340 N   0  0  0  0  0  0  0  0  0  0  0  0
   13.1760    2.0000  -11.5650 C   0  0  2  0  0  0  0  0  0  0  0  0
   13.7740    0.6110  -11.6740 C   0  0  0  0  0  0  0  0  0  0  0  0
   14.4860    0.1510  -10.7960 O   0  0  0  0  0  0  0  0  0  0  0  0
   11.8090    1.9250  -10.8430 C   0  0  0  0  0  0  0  0  0  0  0  0
   12.0330    1.3320   -9.4220 C   0  0  0  0  0  0  0  0  0  0  0  0
   10.8900    1.6520   -8.4700 C   0  0  0  0  0  0  0  0  0  0  0  0
   10.3140    2.7010   -8.6170 O   0  0  0  0  0  0  0  0  0  0  0  0
   10.5010    0.8640   -7.4990 N   0  0  0  0  0  0  0  0  0  0  0  0
   13.4420    0.0160  -12.7740 N   0  0  0  0  0  0  0  0  0  0  0  0
   13.9030   -1.3570  -13.0840 C   0  0  2  0  0  0  0  0  0  0  0  0
   14.9990   -1.4240  -14.1850 C   0  0  0  0  0  0  0  0  0  0  0  0
   15.9970   -2.1000  -13.9900 O   0  0  0  0  0  0  0  0  0  0  0  0
   12.6040   -2.1590  -13.4580 C   0  0  0  0  0  0  0  0  0  0  0  0
   11.5390   -1.8830  -12.3470 C   0  0  0  0  0  0  0  0  0  0  0  0
   11.6550   -2.4140  -11.0640 C   0  0  0  0  0  0  0  0  0  0  0  0
   10.4540   -1.0620  -12.6120 C   0  0  0  0  0  0  0  0  0  0  0  0
   10.7060   -2.1310  -10.0840 C   0  0  0  0  0  0  0  0  0  0  0  0
    9.5100   -0.7790  -11.6360 C   0  0  0  0  0  0  0  0  0  0  0  0
    9.6280   -1.3030  -10.3700 C   0  0  0  0  0  0  0  0  0  0  0  0
   14.8500   -0.7510  -15.2910 N   0  0  0  0  0  0  0  0  0  0  0  0
   15.9110   -0.8310  -16.3590 C   0  0  2  0  0  0  0  0  0  0  0  0
   16.7200    0.4470  -16.6850 C   0  0  0  0  0  0  0  0  0  0  0  0
   16.2250    1.5540  -16.7610 O   0  5  0  0  0  0  0  0  0  0  0  0
   15.2210   -1.3320  -17.6340 C   0  0  0  0  0  0  0  0  0  0  0  0
   13.6080   -0.5890  -17.9830 S   0  0  0  0  0  0  0  0  0  0  0  0
   17.9593    0.3336  -16.8824 O   0  0  0  0  0  0  0  0  0  0  0  0
    9.6302   -0.9559  -20.9807 H   0  0  0  0  0  0  0  0  0  0  0  0
    9.4194   -1.8334  -18.1648 H   0  0  0  0  0  0  0  0  0  0  0  0
   11.8741   -1.1166  -19.8639 H   0  0  0  0  0  0  0  0  0  0  0  0
   11.1375   -2.7500  -19.7360 H   0  0  0  0  0  0  0  0  0  0  0  0
    7.7843   -0.3295  -22.0507 H   0  0  0  0  0  0  0  0  0  0  0  0
    6.8143    0.8507  -21.1058 H   0  0  0  0  0  0  0  0  0  0  0  0
    6.2938   -0.8657  -21.2037 H   0  0  0  0  0  0  0  0  0  0  0  0
   10.4463   -0.4840  -16.4006 H   0  0  0  0  0  0  0  0  0  0  0  0
   10.4343    2.4817  -17.0959 H   0  0  0  0  0  0  0  0  0  0  0  0
    9.3479    0.9362  -14.6759 H   0  0  0  0  0  0  0  0  0  0  0  0
    8.4146    1.9015  -15.8691 H   0  0  0  0  0  0  0  0  0  0  0  0
   10.9392    2.4122  -13.0621 H   0  0  0  0  0  0  0  0  0  0  0  0
    7.8362    4.4408  -15.1140 H   0  0  0  0  0  0  0  0  0  0  0  0
   10.4684    4.6294  -11.8899 H   0  0  0  0  0  0  0  0  0  0  0  0
   14.5777    2.7067  -15.7665 H   0  0  0  0  0  0  0  0  0  0  0  0
   14.6887    4.9633  -16.0130 H   0  0  0  0  0  0  0  0  0  0  0  0
   14.4260    5.0773  -14.2396 H   0  0  0  0  0  0  0  0  0  0  0  0
   12.6622    6.2450  -15.9552 H   0  0  0  0  0  0  0  0  0  0  0  0
   12.0586    5.4055  -14.4863 H   0  0  0  0  0  0  0  0  0  0  0  0
   12.2574    4.3345  -17.3527 H   0  0  0  0  0  0  0  0  0  0  0  0
   10.8602    4.2666  -16.2257 H   0  0  0  0  0  0  0  0  0  0  0  0
   12.1136    2.8828  -13.2423 H   0  0  0  0  0  0  0  0  0  0  0  0
   13.8538    2.6474  -10.9893 H   0  0  0  0  0  0  0  0  0  0  0  0
   11.1243    1.2783  -11.4112 H   0  0  0  0  0  0  0  0  0  0  0  0
   11.3772    2.9333  -10.7604 H   0  0  0  0  0  0  0  0  0  0  0  0
   12.9634    1.7485   -9.0086 H   0  0  0  0  0  0  0  0  0  0  0  0
   12.1262    0.2392   -9.5065 H   0  0  0  0  0  0  0  0  0  0  0  0
    9.7410    1.1357   -6.9086 H   0  0  0  0  0  0  0  0  0  0  0  0
   10.9639   -0.0094   -7.3480 H   0  0  0  0  0  0  0  0  0  0  0  0
   12.8598    0.4950  -13.4310 H   0  0  0  0  0  0  0  0  0  0  0  0
   14.3363   -1.7935  -12.1720 H   0  0  0  0  0  0  0  0  0  0  0  0
   12.8279   -3.2350  -13.5033 H   0  0  0  0  0  0  0  0  0  0  0  0
   12.2236   -1.8222  -14.4336 H   0  0  0  0  0  0  0  0  0  0  0  0
   12.4951   -3.0561  -10.8251 H   0  0  0  0  0  0  0  0  0  0  0  0
   10.3411   -0.6329  -13.6010 H   0  0  0  0  0  0  0  0  0  0  0  0
   10.8094   -2.5591   -9.0935 H   0  0  0  0  0  0  0  0  0  0  0  0
    8.6694   -0.1373  -11.8739 H   0  0  0  0  0  0  0  0  0  0  0  0
    8.8920   -1.0737   -9.6079 H   0  0  0  0  0  0  0  0  0  0  0  0
   14.0373   -0.1853  -15.4303 H   0  0  0  0  0  0  0  0  0  0  0  0
   16.6399   -1.5866  -16.0307 H   0  0  0  0  0  0  0  0  0  0  0  0
   15.0813   -2.4190  -17.5402 H   0  0  0  0  0  0  0  0  0  0  0  0
   15.8844   -1.1196  -18.4854 H   0  0  0  0  0  0  0  0  0  0  0  0
  1  2  2  0  0  0  0
  1  9  1  0  0  0  0
  3  1  1  0  0  0  0
  3 54  1  0  0  0  0
  4  7  1  0  0  0  0
  4  3  1  0  0  0  0
  4 55  1  1  0  0  0
  5  4  1  0  0  0  0
  5  6  2  0  0  0  0
  7  8  1  0  0  0  0
  7 56  1  0  0  0  0
  7 57  1  0  0  0  0
  8 52  1  0  0  0  0
  9 58  1  0  0  0  0
  9 59  1  0  0  0  0
  9 60  1  0  0  0  0
 10  5  1  0  0  0  0
 10 61  1  0  0  0  0
 11 14  1  0  0  0  0
 11 10  1  0  0  0  0
 11 62  1  6  0  0  0
 12 11  1  0  0  0  0
 12 13  2  0  0  0  0
 14 15  1  0  0  0  0
 14 63  1  0  0  0  0
 14 64  1  0  0  0  0
 15 17  2  0  0  0  0
 15 16  1  0  0  0  0
 16 18  1  0  0  0  0
 16 65  1  0  0  0  0
 17 19  1  0  0  0  0
 17 66  1  0  0  0  0
 18 19  2  0  0  0  0
 18 67  1  0  0  0  0
 20 26  1  0  0  0  0
 20 12  1  0  0  0  0
 21 20  1  0  0  0  0
 21 24  1  0  0  0  0
 21 68  1  6  0  0  0
 22 21  1  0  0  0  0
 22 23  2  0  0  0  0
 24 25  1  0  0  0  0
 24 69  1  0  0  0  0
 24 70  1  0  0  0  0
 25 26  1  0  0  0  0
 25 71  1  0  0  0  0
 25 72  1  0  0  0  0
 26 73  1  0  0  0  0
 26 74  1  0  0  0  0
 27 22  1  0  0  0  0
 27 75  1  0  0  0  0
 28 31  1  0  0  0  0
 28 27  1  0  0  0  0
 28 76  1  1  0  0  0
 29 28  1  0  0  0  0
 29 30  2  0  0  0  0
 31 32  1  0  0  0  0
 31 77  1  0  0  0  0
 31 78  1  0  0  0  0
 32 33  1  0  0  0  0
 32 79  1  0  0  0  0
 32 80  1  0  0  0  0
 33 34  2  0  0  0  0
 33 35  1  0  0  0  0
 35 81  1  0  0  0  0
 35 82  1  0  0  0  0
 36 29  1  0  0  0  0
 36 83  1  0  0  0  0
 37 40  1  0  0  0  0
 37 36  1  0  0  0  0
 37 84  1  1  0  0  0
 38 37  1  0  0  0  0
 38 39  2  0  0  0  0
 38 47  1  0  0  0  0
 40 41  1  0  0  0  0
 40 85  1  0  0  0  0
 40 86  1  0  0  0  0
 41 43  2  0  0  0  0
 41 42  1  0  0  0  0
 42 44  2  0  0  0  0
 42 87  1  0  0  0  0
 43 45  1  0  0  0  0
 43 88  1  0  0  0  0
 44 46  1  0  0  0  0
 44 89  1  0  0  0  0
 45 46  2  0  0  0  0
 45 90  1  0  0  0  0
 46 91  1  0  0  0  0
 47 48  1  0  0  0  0
 47 92  1  0  0  0  0
 48 49  1  0  0  0  0
 48 51  1  0  0  0  0
 48 93  1  1  0  0  0
 49 50  1  0  0  0  0
 49 53  2  0  0  0  0
 51 52  1  0  0  0  0
 51 94  1  0  0  0  0
 51 95  1  0  0  0  0
M  CHG  1  50  -1
M  END
