1vyw_ligand
 OpenBabel08222323343D

 39 42  0  0  0  0  0  0  0  0999 V2000
  -14.2880  203.6300  112.0780 C   0  0  0  0  0  0  0  0  0  0  0  0
  -15.1160  204.8880  111.8320 C   0  0  0  0  0  0  0  0  0  0  0  0
  -14.1370  204.3990  110.7650 C   0  0  0  0  0  0  0  0  0  0  0  0
  -12.8620  205.2490  110.5460 C   0  0  0  0  0  0  0  0  0  0  0  0
  -11.9040  205.6350  111.4730 C   0  0  0  0  0  0  0  0  0  0  0  0
  -10.9660  206.3880  110.7680 C   0  0  0  0  0  0  0  0  0  0  0  0
  -11.3450  206.4530  109.4490 N   0  0  0  0  0  0  0  0  0  0  0  0
  -12.4870  205.7650  109.3270 N   0  0  0  0  0  0  0  0  0  0  0  0
   -9.7770  207.0220  111.3320 N   0  0  0  0  0  0  0  0  0  0  0  0
   -9.2810  207.0700  112.5820 C   0  0  0  0  0  0  0  0  0  0  0  0
   -7.9730  207.8680  112.7690 C   0  0  0  0  0  0  0  0  0  0  0  0
   -6.8060  206.9370  113.0810 C   0  0  0  0  0  0  0  0  0  0  0  0
   -5.9760  206.4610  112.0280 C   0  0  0  0  0  0  0  0  0  0  0  0
   -4.9020  205.5870  112.3160 C   0  0  0  0  0  0  0  0  0  0  0  0
   -4.6480  205.1820  113.7330 C   0  0  0  0  0  0  0  0  0  0  0  0
   -5.4940  205.6730  114.7540 C   0  0  0  0  0  0  0  0  0  0  0  0
   -6.5600  206.5420  114.4320 C   0  0  0  0  0  0  0  0  0  0  0  0
   -3.5670  204.3020  114.0230 C   0  0  0  0  0  0  0  0  0  0  0  0
   -4.0550  205.0930  111.2910 C   0  0  0  0  0  0  0  0  0  0  0  0
   -2.9830  204.2160  111.6190 C   0  0  0  0  0  0  0  0  0  0  0  0
   -2.7420  203.8280  112.9670 C   0  0  0  0  0  0  0  0  0  0  0  0
   -9.8080  206.5270  113.5570 O   0  0  0  0  0  0  0  0  0  0  0  0
  -14.7750  202.6437  112.0847 H   0  0  0  0  0  0  0  0  0  0  0  0
  -13.4754  203.6428  112.8193 H   0  0  0  0  0  0  0  0  0  0  0  0
  -14.9002  205.8073  112.3962 H   0  0  0  0  0  0  0  0  0  0  0  0
  -16.1998  204.8082  111.6616 H   0  0  0  0  0  0  0  0  0  0  0  0
  -14.4898  203.9698  109.8156 H   0  0  0  0  0  0  0  0  0  0  0  0
  -11.8881  205.3978  112.5357 H   0  0  0  0  0  0  0  0  0  0  0  0
  -13.0091  205.6401  108.4480 H   0  0  0  0  0  0  0  0  0  0  0  0
   -9.2253  207.5155  110.6596 H   0  0  0  0  0  0  0  0  0  0  0  0
   -8.0997  208.5772  113.6002 H   0  0  0  0  0  0  0  0  0  0  0  0
   -7.7541  208.4221  111.8443 H   0  0  0  0  0  0  0  0  0  0  0  0
   -6.1666  206.7679  111.0060 H   0  0  0  0  0  0  0  0  0  0  0  0
   -5.3244  205.3824  115.7845 H   0  0  0  0  0  0  0  0  0  0  0  0
   -7.2015  206.9151  115.2222 H   0  0  0  0  0  0  0  0  0  0  0  0
   -3.3740  203.9949  115.0445 H   0  0  0  0  0  0  0  0  0  0  0  0
   -4.2238  205.3828  110.2602 H   0  0  0  0  0  0  0  0  0  0  0  0
   -2.3412  203.8384  110.8312 H   0  0  0  0  0  0  0  0  0  0  0  0
   -1.9173  203.1613  113.1916 H   0  0  0  0  0  0  0  0  0  0  0  0
  1  2  1  0  0  0  0
  1  3  1  0  0  0  0
  1 23  1  0  0  0  0
  1 24  1  0  0  0  0
  2  3  1  0  0  0  0
  2 25  1  0  0  0  0
  2 26  1  0  0  0  0
  3  4  1  0  0  0  0
  3 27  1  0  0  0  0
  4  5  2  0  0  0  0
  4  8  1  0  0  0  0
  5  6  1  0  0  0  0
  5 28  1  0  0  0  0
  6  7  2  0  0  0  0
  6  9  1  0  0  0  0
  7  8  1  0  0  0  0
  8 29  1  0  0  0  0
  9 10  1  0  0  0  0
  9 30  1  0  0  0  0
 10 11  1  0  0  0  0
 10 22  2  0  0  0  0
 11 12  1  0  0  0  0
 11 31  1  0  0  0  0
 11 32  1  0  0  0  0
 12 13  2  0  0  0  0
 12 17  1  0  0  0  0
 13 14  1  0  0  0  0
 13 33  1  0  0  0  0
 14 15  2  0  0  0  0
 14 19  1  0  0  0  0
 15 16  1  0  0  0  0
 15 18  1  0  0  0  0
 16 17  2  0  0  0  0
 16 34  1  0  0  0  0
 17 35  1  0  0  0  0
 18 21  2  0  0  0  0
 18 36  1  0  0  0  0
 19 20  2  0  0  0  0
 19 37  1  0  0  0  0
 20 21  1  0  0  0  0
 20 38  1  0  0  0  0
 21 39  1  0  0  0  0
M  END
