1w1t_ligand
 OpenBabel08222323343D

 31 33  0  0  1  0  0  0  0  0999 V2000
   17.5970   42.2780  101.9110 N   0  0  0  0  0  0  0  0  0  0  0  0
   18.9300   42.2000  102.5310 C   0  0  2  0  0  0  0  0  0  0  0  0
   19.4770   43.5730  102.9430 C   0  0  0  0  0  0  0  0  0  0  0  0
   20.6640   43.6740  103.2510 O   0  0  0  0  0  0  0  0  0  0  0  0
   19.8800   41.5830  101.5000 C   0  0  0  0  0  0  0  0  0  0  0  0
   21.2190   42.5810   99.5840 N   0  0  0  0  0  0  0  0  0  0  0  0
   20.9440   43.4340   98.6040 C   0  0  0  0  0  0  0  0  0  0  0  0
   19.6800   43.8410   98.6170 N   0  0  0  0  0  0  0  0  0  0  0  0
   19.1470   43.2070   99.6590 C   0  0  0  0  0  0  0  0  0  0  0  0
   20.0720   42.4480  100.2490 C   0  0  0  0  0  0  0  0  0  0  0  0
   18.6790   44.7210  103.0080 N   0  0  0  0  0  0  0  0  0  0  0  0
   17.2360   44.6550  102.7270 C   0  0  2  0  0  0  0  0  0  0  0  0
   16.8080   43.4350  101.9060 C   0  0  0  0  0  0  0  0  0  0  0  0
   15.7460   43.4430  101.2830 O   0  0  0  0  0  0  0  0  0  0  0  0
   17.0640   45.9700  101.9650 C   0  0  0  0  0  0  0  0  0  0  0  0
   17.8430   46.9080  102.8920 C   0  0  0  0  0  0  0  0  0  0  0  0
   19.1300   46.1230  103.1650 C   0  0  0  0  0  0  0  0  0  0  0  0
   17.2343   41.4580  101.4682 H   0  0  0  0  0  0  0  0  0  0  0  0
   18.8752   41.5574  103.4221 H   0  0  0  0  0  0  0  0  0  0  0  0
   19.4727   40.6092  101.1905 H   0  0  0  0  0  0  0  0  0  0  0  0
   20.8611   41.4358  101.9751 H   0  0  0  0  0  0  0  0  0  0  0  0
   21.6763   43.7642   97.8688 H   0  0  0  0  0  0  0  0  0  0  0  0
   19.2185   44.4962   97.9700 H   0  0  0  0  0  0  0  0  0  0  0  0
   18.1106   43.2948   99.9817 H   0  0  0  0  0  0  0  0  0  0  0  0
   16.6564   44.6607  103.6619 H   0  0  0  0  0  0  0  0  0  0  0  0
   16.0063   46.2606  101.8830 H   0  0  0  0  0  0  0  0  0  0  0  0
   17.5103   45.9230  100.9607 H   0  0  0  0  0  0  0  0  0  0  0  0
   17.2882   47.0956  103.8231 H   0  0  0  0  0  0  0  0  0  0  0  0
   18.0605   47.8652  102.3955 H   0  0  0  0  0  0  0  0  0  0  0  0
   19.9132   46.3744  102.4347 H   0  0  0  0  0  0  0  0  0  0  0  0
   19.5035   46.3105  104.1825 H   0  0  0  0  0  0  0  0  0  0  0  0
  1 13  1  0  0  0  0
  1 18  1  0  0  0  0
  2  1  1  0  0  0  0
  2  3  1  0  0  0  0
  2 19  1  1  0  0  0
  3  4  2  0  0  0  0
  3 11  1  0  0  0  0
  5  2  1  0  0  0  0
  5 20  1  0  0  0  0
  5 21  1  0  0  0  0
  6  7  2  0  0  0  0
  6 10  1  0  0  0  0
  7  8  1  0  0  0  0
  7 22  1  0  0  0  0
  8  9  1  0  0  0  0
  8 23  1  0  0  0  0
  9 10  2  0  0  0  0
  9 24  1  0  0  0  0
 10  5  1  0  0  0  0
 11 12  1  0  0  0  0
 11 17  1  0  0  0  0
 12 13  1  0  0  0  0
 12 15  1  0  0  0  0
 12 25  1  1  0  0  0
 13 14  2  0  0  0  0
 15 16  1  0  0  0  0
 15 26  1  0  0  0  0
 15 27  1  0  0  0  0
 16 17  1  0  0  0  0
 16 28  1  0  0  0  0
 16 29  1  0  0  0  0
 17 30  1  0  0  0  0
 17 31  1  0  0  0  0
M  END
