1w1y_ligand
 OpenBabel08222323343D

 35 37  0  0  1  0  0  0  0  0999 V2000
   17.9710   43.0160  100.4770 N   0  0  0  0  0  0  0  0  0  0  0  0
   18.8720   42.5860  101.5650 C   0  0  2  0  0  0  0  0  0  0  0  0
   19.4970   43.8150  102.2060 C   0  0  0  0  0  0  0  0  0  0  0  0
   20.6540   43.8030  102.5850 O   0  0  0  0  0  0  0  0  0  0  0  0
   19.9510   41.6650  100.9840 C   0  0  0  0  0  0  0  0  0  0  0  0
   19.3380   40.3010  100.6820 C   0  0  0  0  0  0  0  0  0  0  0  0
   18.6840   40.0680   99.4470 C   0  0  0  0  0  0  0  0  0  0  0  0
   18.1010   38.8100   99.1950 C   0  0  0  0  0  0  0  0  0  0  0  0
   18.8270   38.0250  101.3960 C   0  0  0  0  0  0  0  0  0  0  0  0
   19.4100   39.2790  101.6540 C   0  0  0  0  0  0  0  0  0  0  0  0
   18.1710   37.7900  100.1700 C   0  0  0  0  0  0  0  0  0  0  0  0
   17.5920   36.5780   99.9300 O   0  0  0  0  0  0  0  0  0  0  0  0
   18.7050   44.9510  102.3990 N   0  0  0  0  0  0  0  0  0  0  0  0
   17.2770   44.8930  101.9930 C   0  0  2  0  0  0  0  0  0  0  0  0
   17.1890   44.1680  100.6480 C   0  0  0  0  0  0  0  0  0  0  0  0
   16.4730   44.5830   99.7290 O   0  0  0  0  0  0  0  0  0  0  0  0
   16.8370   46.3580  101.9130 C   0  0  0  0  0  0  0  0  0  0  0  0
   18.1340   47.1680  101.9520 C   0  0  0  0  0  0  0  0  0  0  0  0
   19.1040   46.3240  102.7740 C   0  0  0  0  0  0  0  0  0  0  0  0
   17.9188   42.4915   99.6272 H   0  0  0  0  0  0  0  0  0  0  0  0
   18.2967   42.0354  102.3239 H   0  0  0  0  0  0  0  0  0  0  0  0
   20.7665   41.5484  101.7129 H   0  0  0  0  0  0  0  0  0  0  0  0
   20.3481   42.1032  100.0565 H   0  0  0  0  0  0  0  0  0  0  0  0
   18.6324   40.8524   98.7006 H   0  0  0  0  0  0  0  0  0  0  0  0
   17.5985   38.6249   98.2525 H   0  0  0  0  0  0  0  0  0  0  0  0
   18.8821   37.2387  102.1402 H   0  0  0  0  0  0  0  0  0  0  0  0
   19.9134   39.4604  102.5967 H   0  0  0  0  0  0  0  0  0  0  0  0
   17.1959   36.5830   99.0665 H   0  0  0  0  0  0  0  0  0  0  0  0
   16.6735   44.3558  102.7394 H   0  0  0  0  0  0  0  0  0  0  0  0
   16.1954   46.6155  102.7686 H   0  0  0  0  0  0  0  0  0  0  0  0
   16.2922   46.5467  100.9762 H   0  0  0  0  0  0  0  0  0  0  0  0
   17.9664   48.1428  102.4334 H   0  0  0  0  0  0  0  0  0  0  0  0
   18.5232   47.3233  100.9350 H   0  0  0  0  0  0  0  0  0  0  0  0
   20.1481   46.5279  102.4943 H   0  0  0  0  0  0  0  0  0  0  0  0
   18.9723   46.4988  103.8520 H   0  0  0  0  0  0  0  0  0  0  0  0
  1  2  1  0  0  0  0
  1 15  1  0  0  0  0
  1 20  1  0  0  0  0
  2  3  1  0  0  0  0
  2  5  1  0  0  0  0
  2 21  1  1  0  0  0
  3  4  2  0  0  0  0
  3 13  1  0  0  0  0
  5  6  1  0  0  0  0
  5 22  1  0  0  0  0
  5 23  1  0  0  0  0
  6  7  2  0  0  0  0
  6 10  1  0  0  0  0
  7  8  1  0  0  0  0
  7 24  1  0  0  0  0
  8 11  2  0  0  0  0
  8 25  1  0  0  0  0
  9 11  1  0  0  0  0
  9 26  1  0  0  0  0
 10  9  2  0  0  0  0
 10 27  1  0  0  0  0
 11 12  1  0  0  0  0
 12 28  1  0  0  0  0
 13 14  1  0  0  0  0
 13 19  1  0  0  0  0
 14 15  1  0  0  0  0
 14 17  1  0  0  0  0
 14 29  1  1  0  0  0
 15 16  2  0  0  0  0
 17 18  1  0  0  0  0
 17 30  1  0  0  0  0
 17 31  1  0  0  0  0
 18 19  1  0  0  0  0
 18 32  1  0  0  0  0
 18 33  1  0  0  0  0
 19 34  1  0  0  0  0
 19 35  1  0  0  0  0
M  END
