1w22_ligand
 OpenBabel08222323343D

 41 43  0  0  0  0  0  0  0  0999 V2000
    0.0760   16.7330   26.0190 C   0  0  0  0  0  0  0  0  0  0  0  0
   -0.5380   17.4090   24.9680 C   0  0  0  0  0  0  0  0  0  0  0  0
    0.2230   17.6680   23.8330 C   0  0  0  0  0  0  0  0  0  0  0  0
    1.5680   17.2580   23.7770 C   0  0  0  0  0  0  0  0  0  0  0  0
    2.1420   16.6230   24.7980 N   0  0  0  0  0  0  0  0  0  0  0  0
    1.4250   16.3410   25.9190 C   0  0  0  0  0  0  0  0  0  0  0  0
    2.0230   15.6770   26.9930 C   0  0  0  0  0  0  0  0  0  0  0  0
    1.5490   15.9510   28.5730 S   0  0  0  0  0  0  0  0  0  0  0  0
    3.0260   14.7700   27.0280 C   0  0  0  0  0  0  0  0  0  0  0  0
    3.3760   14.3300   28.2650 C   0  0  0  0  0  0  0  0  0  0  0  0
    2.6550   14.8870   29.2430 C   0  0  0  0  0  0  0  0  0  0  0  0
    2.8020   14.5870   30.9670 S   0  0  0  0  0  0  0  0  0  0  0  0
    2.5870   15.8440   31.7380 O   0  0  0  0  0  0  0  0  0  0  0  0
    4.1650   14.0270   31.3020 O   0  0  0  0  0  0  0  0  0  0  0  0
    1.5790   13.5120   31.1630 N   0  0  0  0  0  0  0  0  0  0  0  0
    0.2250   14.0170   31.3970 C   0  0  0  0  0  0  0  0  0  0  0  0
    1.7900   12.1950   31.0620 C   0  0  0  0  0  0  0  0  0  0  0  0
    1.9010   11.4010   32.1890 C   0  0  0  0  0  0  0  0  0  0  0  0
    2.1070   10.0300   32.0740 C   0  0  0  0  0  0  0  0  0  0  0  0
    1.8930   11.5980   29.8170 C   0  0  0  0  0  0  0  0  0  0  0  0
    2.0970   10.2230   29.7070 C   0  0  0  0  0  0  0  0  0  0  0  0
    2.2150    9.4130   30.8330 C   0  0  0  0  0  0  0  0  0  0  0  0
    2.4840    7.8900   30.7090 C   0  0  0  0  0  0  0  0  0  0  0  0
    2.6220    7.3530   29.6230 O   0  0  0  0  0  0  0  0  0  0  0  0
    2.6130    7.2120   31.8290 N   0  0  0  0  0  0  0  0  0  0  0  0
    3.0030    5.9130   31.8090 O   0  0  0  0  0  0  0  0  0  0  0  0
   -0.4865   16.5075   26.9178 H   0  0  0  0  0  0  0  0  0  0  0  0
   -1.5736   17.7227   25.0321 H   0  0  0  0  0  0  0  0  0  0  0  0
   -0.2205   18.1863   22.9905 H   0  0  0  0  0  0  0  0  0  0  0  0
    2.1489   17.4630   22.8850 H   0  0  0  0  0  0  0  0  0  0  0  0
    3.5203   14.4159   26.1245 H   0  0  0  0  0  0  0  0  0  0  0  0
    4.1632   13.5985   28.4415 H   0  0  0  0  0  0  0  0  0  0  0  0
   -0.4685   13.1701   31.5058 H   0  0  0  0  0  0  0  0  0  0  0  0
   -0.0867   14.6390   30.5450 H   0  0  0  0  0  0  0  0  0  0  0  0
    0.2127   14.6213   32.3161 H   0  0  0  0  0  0  0  0  0  0  0  0
    1.8267   11.8517   33.1721 H   0  0  0  0  0  0  0  0  0  0  0  0
    2.1851    9.4290   32.9728 H   0  0  0  0  0  0  0  0  0  0  0  0
    1.8145   12.2038   28.9215 H   0  0  0  0  0  0  0  0  0  0  0  0
    2.1652    9.7747   28.7224 H   0  0  0  0  0  0  0  0  0  0  0  0
    2.4218    7.6584   32.7032 H   0  0  0  0  0  0  0  0  0  0  0  0
    3.0434    5.5819   32.6985 H   0  0  0  0  0  0  0  0  0  0  0  0
  1  2  2  0  0  0  0
  1  6  1  0  0  0  0
  1 27  1  0  0  0  0
  2  3  1  0  0  0  0
  2 28  1  0  0  0  0
  3  4  2  0  0  0  0
  3 29  1  0  0  0  0
  4  5  1  0  0  0  0
  4 30  1  0  0  0  0
  5  6  2  0  0  0  0
  6  7  1  0  0  0  0
  7  8  1  0  0  0  0
  7  9  2  0  0  0  0
  8 11  1  0  0  0  0
  9 10  1  0  0  0  0
  9 31  1  0  0  0  0
 10 11  2  0  0  0  0
 10 32  1  0  0  0  0
 11 12  1  0  0  0  0
 12 13  2  0  0  0  0
 12 14  2  0  0  0  0
 12 15  1  0  0  0  0
 15 16  1  0  0  0  0
 15 17  1  0  0  0  0
 16 33  1  0  0  0  0
 16 34  1  0  0  0  0
 16 35  1  0  0  0  0
 17 18  2  0  0  0  0
 17 20  1  0  0  0  0
 18 19  1  0  0  0  0
 18 36  1  0  0  0  0
 19 22  2  0  0  0  0
 19 37  1  0  0  0  0
 20 21  2  0  0  0  0
 20 38  1  0  0  0  0
 21 22  1  0  0  0  0
 21 39  1  0  0  0  0
 22 23  1  0  0  0  0
 23 24  2  0  0  0  0
 23 25  1  0  0  0  0
 25 26  1  0  0  0  0
 25 40  1  0  0  0  0
 26 41  1  0  0  0  0
M  END
