1w2k_ligand
 OpenBabel08222323343D

 58 60  0  0  1  0  0  0  0  0999 V2000
   30.3400    6.7100   15.0520 C   0  0  0  0  0  3  0  0  0  0  0  0
   29.3360    7.3050   15.7410 N   0  0  0  0  0  0  0  0  0  0  0  0
   31.0110    5.8030   15.7980 N   0  0  0  0  0  0  0  0  0  0  0  0
   30.5660    6.8970   13.6060 C   0  0  0  0  0  0  0  0  0  0  0  0
   29.7360    7.7560   12.8270 C   0  0  0  0  0  0  0  0  0  0  0  0
   29.7840    7.7520   11.4310 C   0  0  0  0  0  0  0  0  0  0  0  0
   30.6720    6.8820   10.7800 C   0  0  0  0  0  0  0  0  0  0  0  0
   30.9540    6.9830    9.3970 N   0  0  0  0  0  0  0  0  0  0  0  0
   32.1720    6.2720    8.8890 C   0  0  1  0  0  0  0  0  0  0  0  0
   32.0320    5.8400    7.4840 C   0  0  0  0  0  0  0  0  0  0  0  0
   31.6530    6.7080    6.5150 N   0  0  0  0  0  0  0  0  0  0  0  0
   31.8630    6.0460    5.1950 C   0  0  0  0  0  0  0  0  0  0  0  0
   33.0760    6.6070    4.5110 C   0  0  0  0  0  0  0  0  0  0  0  0
   32.8430    7.7450    3.7500 C   0  0  0  0  0  0  0  0  0  0  0  0
   33.8150    8.7260    3.6590 C   0  0  0  0  0  0  0  0  0  0  0  0
   35.0290    8.5640    4.3200 C   0  0  0  0  0  0  0  0  0  0  0  0
   35.2950    7.3990    5.0330 C   0  0  0  0  0  0  0  0  0  0  0  0
   34.3150    6.4170    5.1120 C   0  0  0  0  0  0  0  0  0  0  0  0
   32.3920    4.7420    7.0860 O   0  0  0  0  0  0  0  0  0  0  0  0
   33.5420    6.9460    9.1030 C   0  0  0  0  0  0  0  0  0  0  0  0
   33.8560    8.2680    8.7430 C   0  0  0  0  0  0  0  0  0  0  0  0
   35.1750    8.7390    8.8960 C   0  0  0  0  0  0  0  0  0  0  0  0
   35.5840    9.9840    8.4470 O   0  0  0  0  0  0  0  0  0  0  0  0
   34.6260   10.8800    7.8900 C   0  0  0  0  0  0  0  0  0  0  0  0
   36.1770    7.9160    9.4180 C   0  0  0  0  0  0  0  0  0  0  0  0
   37.3910    8.5160    9.7640 O   0  0  0  0  0  0  0  0  0  0  0  0
   38.3870    7.8460   10.5560 C   0  0  0  0  0  0  0  0  0  0  0  0
   34.5650    6.1410    9.6010 C   0  0  0  0  0  0  0  0  0  0  0  0
   35.8680    6.6030    9.7650 C   0  0  0  0  0  0  0  0  0  0  0  0
   31.5080    6.0460   11.5460 C   0  0  0  0  0  0  0  0  0  0  0  0
   31.4620    6.0530   12.9360 C   0  0  0  0  0  0  0  0  0  0  0  0
   28.7485    8.0166   15.2834 H   0  0  0  0  0  0  0  0  0  0  0  0
   29.1605    7.0456   16.7222 H   0  0  0  0  0  0  0  0  0  0  0  0
   31.7987    5.2809   15.3884 H   0  0  0  0  0  0  0  0  0  0  0  0
   30.7343    5.6344   16.7757 H   0  0  0  0  0  0  0  0  0  0  0  0
   29.0510    8.4286   13.3306 H   0  0  0  0  0  0  0  0  0  0  0  0
   29.1435    8.4125   10.8578 H   0  0  0  0  0  0  0  0  0  0  0  0
   30.3466    7.5235    8.7646 H   0  0  0  0  0  0  0  0  0  0  0  0
   32.2169    5.3483    9.4846 H   0  0  0  0  0  0  0  0  0  0  0  0
   31.2953    7.6306    6.6595 H   0  0  0  0  0  0  0  0  0  0  0  0
   30.9799    6.2146    4.5612 H   0  0  0  0  0  0  0  0  0  0  0  0
   32.0023    4.9659    5.3500 H   0  0  0  0  0  0  0  0  0  0  0  0
   31.9007    7.8648    3.2277 H   0  0  0  0  0  0  0  0  0  0  0  0
   33.6310    9.6195    3.0735 H   0  0  0  0  0  0  0  0  0  0  0  0
   35.7730    9.3513    4.2791 H   0  0  0  0  0  0  0  0  0  0  0  0
   36.2533    7.2595    5.5200 H   0  0  0  0  0  0  0  0  0  0  0  0
   34.5182    5.4959    5.6463 H   0  0  0  0  0  0  0  0  0  0  0  0
   33.0866    8.9223    8.3493 H   0  0  0  0  0  0  0  0  0  0  0  0
   35.1269   11.8123    7.5901 H   0  0  0  0  0  0  0  0  0  0  0  0
   33.8535   11.1038    8.6405 H   0  0  0  0  0  0  0  0  0  0  0  0
   34.1581   10.4156    7.0094 H   0  0  0  0  0  0  0  0  0  0  0  0
   39.2512    8.5116   10.6980 H   0  0  0  0  0  0  0  0  0  0  0  0
   38.7106    6.9300   10.0400 H   0  0  0  0  0  0  0  0  0  0  0  0
   37.9611    7.5840   11.5358 H   0  0  0  0  0  0  0  0  0  0  0  0
   34.3374    5.1161    9.8709 H   0  0  0  0  0  0  0  0  0  0  0  0
   36.6353    5.9466   10.1593 H   0  0  0  0  0  0  0  0  0  0  0  0
   32.2017    5.3833   11.0414 H   0  0  0  0  0  0  0  0  0  0  0  0
   32.1205    5.4043   13.5023 H   0  0  0  0  0  0  0  0  0  0  0  0
  1  2  1  0  0  0  0
  1  3  1  0  0  0  0
  1  4  1  0  0  0  0
  2 32  1  0  0  0  0
  2 33  1  0  0  0  0
  3 34  1  0  0  0  0
  3 35  1  0  0  0  0
  4  5  2  0  0  0  0
  4 31  1  0  0  0  0
  5  6  1  0  0  0  0
  5 36  1  0  0  0  0
  6  7  2  0  0  0  0
  6 37  1  0  0  0  0
  7  8  1  0  0  0  0
  7 30  1  0  0  0  0
  8  9  1  0  0  0  0
  8 38  1  0  0  0  0
  9 10  1  0  0  0  0
  9 20  1  0  0  0  0
  9 39  1  1  0  0  0
 10 11  1  0  0  0  0
 10 19  2  0  0  0  0
 11 12  1  0  0  0  0
 11 40  1  0  0  0  0
 12 13  1  0  0  0  0
 12 41  1  0  0  0  0
 12 42  1  0  0  0  0
 13 14  2  0  0  0  0
 13 18  1  0  0  0  0
 14 15  1  0  0  0  0
 14 43  1  0  0  0  0
 15 16  2  0  0  0  0
 15 44  1  0  0  0  0
 16 17  1  0  0  0  0
 16 45  1  0  0  0  0
 17 18  2  0  0  0  0
 17 46  1  0  0  0  0
 18 47  1  0  0  0  0
 20 21  2  0  0  0  0
 20 28  1  0  0  0  0
 21 22  1  0  0  0  0
 21 48  1  0  0  0  0
 22 23  1  0  0  0  0
 22 25  2  0  0  0  0
 23 24  1  0  0  0  0
 24 49  1  0  0  0  0
 24 50  1  0  0  0  0
 24 51  1  0  0  0  0
 25 26  1  0  0  0  0
 25 29  1  0  0  0  0
 26 27  1  0  0  0  0
 27 52  1  0  0  0  0
 27 53  1  0  0  0  0
 27 54  1  0  0  0  0
 28 29  2  0  0  0  0
 28 55  1  0  0  0  0
 29 56  1  0  0  0  0
 30 31  2  0  0  0  0
 30 57  1  0  0  0  0
 31 58  1  0  0  0  0
M  END
