1w4l_ligand
 OpenBabel08222323343D

 76 81  0  0  1  0  0  0  0  0999 V2000
    2.5360   67.5520   63.2280 C   0  0  0  0  0  0  0  0  0  0  0  0
    2.7100   68.0920   62.0010 C   0  0  0  0  0  0  0  0  0  0  0  0
    4.1320   68.3020   61.4100 C   0  0  1  0  0  0  0  0  0  0  0  0
    5.2970   68.3180   62.5910 C   0  0  0  0  0  0  0  0  0  0  0  0
    5.0440   67.0660   63.5100 C   0  0  1  0  0  0  0  0  0  0  0  0
    3.6920   67.1980   64.2430 C   0  0  1  0  0  0  0  0  0  0  0  0
    4.4880   63.6460   63.6910 C   0  0  0  0  0  0  0  0  0  0  0  0
    3.6700   62.9440   64.6380 C   0  0  0  0  0  0  0  0  0  0  0  0
    2.8550   63.6770   65.5220 C   0  0  0  0  0  0  0  0  0  0  0  0
    1.9870   65.7690   66.5040 C   0  0  0  0  0  0  0  0  0  0  0  0
    2.2390   68.2480   66.1490 C   0  0  0  0  0  0  0  0  0  0  0  0
    3.6250   68.2300   65.4320 C   0  0  0  0  0  0  0  0  0  0  0  0
    4.4060   65.0350   63.6680 C   0  0  0  0  0  0  0  0  0  0  0  0
    3.5790   65.7690   64.5550 C   0  0  0  0  0  0  0  0  0  0  0  0
    2.8100   65.1200   65.4940 C   0  0  0  0  0  0  0  0  0  0  0  0
    5.7100   61.6650   63.0940 C   0  0  0  0  0  0  0  0  0  0  0  0
    1.0430   67.1130   68.1070 C   0  0  0  0  0  0  0  0  0  0  0  0
    2.0370   67.4500   69.2870 C   0  0  0  0  0  0  0  0  0  0  0  0
    3.3170   66.5040   69.3880 C   0  0  0  0  0  0  0  0  0  0  0  0
    2.8790   65.0570   69.6490 C   0  0  0  0  0  0  0  0  0  0  0  0
    4.1040   64.1260   69.7210 C   0  0  0  0  0  0  0  0  0  0  0  0
    3.6160   62.6360   69.6090 C   0  0  0  0  0  0  0  0  0  0  0  0
    3.0940   62.1600   71.0020 C   0  0  0  0  0  0  0  0  0  0  0  0
    1.7820   61.6910   70.6310 C   0  0  0  0  0  0  0  0  0  0  0  0
   -0.1760   61.7490   72.0520 C   0  0  0  0  0  0  0  0  0  0  0  0
   -0.9030   60.8300   72.7950 C   0  0  0  0  0  0  0  0  0  0  0  0
   -2.1520   60.9480   73.4290 C   0  0  0  0  0  0  0  0  0  0  0  0
   -2.6640   59.7760   74.0900 C   0  0  0  0  0  0  0  0  0  0  0  0
   -1.9120   58.5710   74.0890 C   0  0  0  0  0  0  0  0  0  0  0  0
   -0.6410   58.4900   73.4420 C   0  0  0  0  0  0  0  0  0  0  0  0
   -0.1780   59.6540   72.7990 C   0  0  0  0  0  0  0  0  0  0  0  0
    0.9650   59.8740   72.0410 C   0  0  0  0  0  0  0  0  0  0  0  0
    5.1150   65.8430   62.7910 O   0  0  0  0  0  0  0  0  0  0  0  0
    5.4730   63.0580   62.8690 O   0  0  0  0  0  0  0  0  0  0  0  0
    4.1590   67.1110   60.5120 O   0  0  0  0  0  0  0  0  0  0  0  0
   -0.4610   62.9940   71.8990 O   0  0  0  0  0  0  0  0  0  0  0  0
    1.9030   59.0260   71.8380 O   0  0  0  0  0  0  0  0  0  0  0  0
    1.7570   66.9850   66.8270 N   0  0  0  0  0  4  0  0  0  0  0  0
    0.9000   61.1240   71.6040 N   0  0  0  0  0  0  0  0  0  0  0  0
    1.5142   67.3441   63.5421 H   0  0  0  0  0  0  0  0  0  0  0  0
    1.8389   68.3849   61.4167 H   0  0  0  0  0  0  0  0  0  0  0  0
    4.2038   69.2367   60.8345 H   0  0  0  0  0  0  0  0  0  0  0  0
    5.2209   69.2418   63.1832 H   0  0  0  0  0  0  0  0  0  0  0  0
    6.2964   68.2556   62.1356 H   0  0  0  0  0  0  0  0  0  0  0  0
    5.8385   67.0475   64.2705 H   0  0  0  0  0  0  0  0  0  0  0  0
    3.6793   61.8606   64.6726 H   0  0  0  0  0  0  0  0  0  0  0  0
    2.2453   63.1439   66.2425 H   0  0  0  0  0  0  0  0  0  0  0  0
    1.4441   65.0583   67.1254 H   0  0  0  0  0  0  0  0  0  0  0  0
    1.4866   68.5173   65.3931 H   0  0  0  0  0  0  0  0  0  0  0  0
    2.2826   69.0325   66.9188 H   0  0  0  0  0  0  0  0  0  0  0  0
    3.8267   69.2357   65.0346 H   0  0  0  0  0  0  0  0  0  0  0  0
    4.3972   67.9654   66.1693 H   0  0  0  0  0  0  0  0  0  0  0  0
    6.4906   61.3099   62.4051 H   0  0  0  0  0  0  0  0  0  0  0  0
    4.7817   61.1019   62.9177 H   0  0  0  0  0  0  0  0  0  0  0  0
    6.0400   61.5122   64.1321 H   0  0  0  0  0  0  0  0  0  0  0  0
    0.2994   67.9193   68.0235 H   0  0  0  0  0  0  0  0  0  0  0  0
    0.5320   66.1645   68.3287 H   0  0  0  0  0  0  0  0  0  0  0  0
    1.4810   67.3723   70.2330 H   0  0  0  0  0  0  0  0  0  0  0  0
    2.3878   68.4837   69.1517 H   0  0  0  0  0  0  0  0  0  0  0  0
    3.9583   66.8453   70.2140 H   0  0  0  0  0  0  0  0  0  0  0  0
    3.8796   66.5499   68.4439 H   0  0  0  0  0  0  0  0  0  0  0  0
    2.2202   64.7256   68.8328 H   0  0  0  0  0  0  0  0  0  0  0  0
    2.3329   65.0107   70.6027 H   0  0  0  0  0  0  0  0  0  0  0  0
    4.6244   64.2734   70.6788 H   0  0  0  0  0  0  0  0  0  0  0  0
    4.7903   64.3534   68.8920 H   0  0  0  0  0  0  0  0  0  0  0  0
    4.4538   61.9974   69.2923 H   0  0  0  0  0  0  0  0  0  0  0  0
    2.8043   62.5694   68.8697 H   0  0  0  0  0  0  0  0  0  0  0  0
    3.0423   62.9887   71.7235 H   0  0  0  0  0  0  0  0  0  0  0  0
    3.7145   61.3515   71.4160 H   0  0  0  0  0  0  0  0  0  0  0  0
    1.9315   60.9221   69.8587 H   0  0  0  0  0  0  0  0  0  0  0  0
    1.2541   62.5516   70.1943 H   0  0  0  0  0  0  0  0  0  0  0  0
   -2.7052   61.8802   73.4206 H   0  0  0  0  0  0  0  0  0  0  0  0
   -3.6254   59.8132   74.5895 H   0  0  0  0  0  0  0  0  0  0  0  0
   -2.3104   57.6956   74.5890 H   0  0  0  0  0  0  0  0  0  0  0  0
   -0.0599   57.5749   73.4459 H   0  0  0  0  0  0  0  0  0  0  0  0
    4.0339   66.3235   61.0285 H   0  0  0  0  0  0  0  0  0  0  0  0
  1  2  2  0  0  0  0
  1 40  1  0  0  0  0
  2  3  1  0  0  0  0
  2 41  1  0  0  0  0
  3 35  1  0  0  0  0
  3 42  1  6  0  0  0
  4  3  1  0  0  0  0
  4 43  1  0  0  0  0
  4 44  1  0  0  0  0
  5  4  1  0  0  0  0
  5 33  1  0  0  0  0
  5 45  1  1  0  0  0
  6  1  1  6  0  0  0
  6  5  1  0  0  0  0
  6 14  1  0  0  0  0
  7 34  1  0  0  0  0
  8  7  2  0  0  0  0
  8 46  1  0  0  0  0
  9  8  1  0  0  0  0
  9 47  1  0  0  0  0
 10 15  1  0  0  0  0
 10 48  1  0  0  0  0
 11 12  1  0  0  0  0
 11 49  1  0  0  0  0
 11 50  1  0  0  0  0
 12  6  1  0  0  0  0
 12 51  1  0  0  0  0
 12 52  1  0  0  0  0
 13  7  1  0  0  0  0
 13 33  1  0  0  0  0
 14 13  2  0  0  0  0
 15  9  2  0  0  0  0
 15 14  1  0  0  0  0
 16 53  1  0  0  0  0
 16 54  1  0  0  0  0
 16 55  1  0  0  0  0
 17 38  1  0  0  0  0
 17 56  1  0  0  0  0
 17 57  1  0  0  0  0
 18 17  1  0  0  0  0
 18 58  1  0  0  0  0
 18 59  1  0  0  0  0
 19 18  1  0  0  0  0
 19 60  1  0  0  0  0
 19 61  1  0  0  0  0
 20 19  1  0  0  0  0
 20 62  1  0  0  0  0
 20 63  1  0  0  0  0
 21 20  1  0  0  0  0
 21 64  1  0  0  0  0
 21 65  1  0  0  0  0
 22 21  1  0  0  0  0
 22 66  1  0  0  0  0
 22 67  1  0  0  0  0
 23 22  1  0  0  0  0
 23 68  1  0  0  0  0
 23 69  1  0  0  0  0
 24 23  1  0  0  0  0
 24 70  1  0  0  0  0
 24 71  1  0  0  0  0
 25 26  1  0  0  0  0
 25 36  2  0  0  0  0
 25 39  1  0  0  0  0
 26 27  2  0  0  0  0
 26 31  1  0  0  0  0
 27 28  1  0  0  0  0
 27 72  1  0  0  0  0
 28 29  2  0  0  0  0
 28 73  1  0  0  0  0
 29 30  1  0  0  0  0
 29 74  1  0  0  0  0
 30 31  2  0  0  0  0
 30 75  1  0  0  0  0
 31 32  1  0  0  0  0
 32 37  2  0  0  0  0
 32 39  1  0  0  0  0
 34 16  1  0  0  0  0
 35 76  1  0  0  0  0
 38 10  2  0  0  0  0
 38 11  1  0  0  0  0
 39 24  1  0  0  0  0
M  END
