1w6h_ligand
 OpenBabel08222323343D

 91 92  0  0  1  0  0  0  0  0999 V2000
   14.2640    6.8750   19.9020 C   0  0  0  0  0  0  0  0  0  0  0  0
   13.7890    8.2290   19.9480 C   0  0  0  0  0  0  0  0  0  0  0  0
   14.0280    9.1180   18.8510 C   0  0  0  0  0  0  0  0  0  0  0  0
   14.7430    8.6620   17.6970 C   0  0  0  0  0  0  0  0  0  0  0  0
   15.2170    7.3120   17.6370 C   0  0  0  0  0  0  0  0  0  0  0  0
   14.9730    6.4280   18.7380 C   0  0  0  0  0  0  0  0  0  0  0  0
   14.1040    5.9980   21.0050 C   0  0  0  0  0  0  0  0  0  0  0  0
   12.5740    5.4380   22.8140 C   0  0  0  0  0  0  0  0  0  0  0  0
   12.8720    6.1410   21.6480 O   0  0  0  0  0  0  0  0  0  0  0  0
   15.0000    9.6050   16.5400 Br  0  0  0  0  0  0  0  0  0  0  0  0
   12.2500    6.3350   23.8870 C   0  0  1  0  0  0  0  0  0  0  0  0
   11.4420    5.6770   24.8960 C   0  0  2  0  0  0  0  0  0  0  0  0
   10.9070    6.5970   25.8690 C   0  0  0  0  0  0  0  0  0  0  0  0
    9.7050    7.2010   25.4400 C   0  0  0  0  0  0  0  0  0  0  0  0
    9.7560    8.4300   24.8620 O   0  0  0  0  0  0  0  0  0  0  0  0
   12.2070    4.7630   25.5740 O   0  0  0  0  0  0  0  0  0  0  0  0
    3.7740   10.0710   28.1230 N   0  0  0  0  0  0  0  0  0  0  0  0
   13.3970    6.8510   24.4110 N   0  0  0  0  0  0  0  0  0  0  0  0
    6.0460    9.0780   25.7220 N   0  0  0  0  0  0  0  0  0  0  0  0
    5.5330   10.0410   26.5260 C   0  0  1  0  0  0  0  0  0  0  0  0
    5.4980   11.2590   25.8510 C   0  0  0  0  0  0  0  0  0  0  0  0
    6.4320   12.1360   26.4170 C   0  0  0  0  0  0  0  0  0  0  0  0
    7.2770   12.6290   25.4230 C   0  0  0  0  0  0  0  0  0  0  0  0
    5.7760   13.2050   27.0540 C   0  0  0  0  0  0  0  0  0  0  0  0
    4.2390    9.6740   26.9320 C   0  0  0  0  0  0  0  0  0  0  0  0
    3.4520    8.9040   26.1080 O   0  0  0  0  0  0  0  0  0  0  0  0
    8.5090    6.5850   25.6400 N   0  0  0  0  0  0  0  0  0  0  0  0
    7.3150    7.1340   25.2760 C   0  0  1  0  0  0  0  0  0  0  0  0
    6.3240    6.1300   25.1810 C   0  0  0  0  0  0  0  0  0  0  0  0
    6.8750    8.1260   26.1710 C   0  0  0  0  0  0  0  0  0  0  0  0
    7.2510    8.1040   27.4860 O   0  0  0  0  0  0  0  0  0  0  0  0
   15.7150    9.1100   23.7350 N   0  0  0  0  0  0  0  0  0  0  0  0
   14.9870    8.6100   24.7720 C   0  0  1  0  0  0  0  0  0  0  0  0
   14.7300    9.6360   25.7780 C   0  0  0  0  0  0  0  0  0  0  0  0
   14.1080    9.1060   26.9140 C   0  0  0  0  0  0  0  0  0  0  0  0
   15.9100   10.2630   26.2060 C   0  0  0  0  0  0  0  0  0  0  0  0
   13.7750    8.1310   24.2140 C   0  0  0  0  0  0  0  0  0  0  0  0
   13.0020    8.9670   23.4720 O   0  0  0  0  0  0  0  0  0  0  0  0
   17.4720    8.8050   22.0370 C   0  0  0  0  0  0  0  0  0  0  0  0
   17.5300   10.1250   20.0540 C   0  0  0  0  0  0  0  0  0  0  0  0
   18.5230    9.2800   19.4950 C   0  0  0  0  0  0  0  0  0  0  0  0
   18.4650    7.9480   21.4990 C   0  0  0  0  0  0  0  0  0  0  0  0
   18.9740    8.2150   20.2090 C   0  0  0  0  0  0  0  0  0  0  0  0
   16.8870    8.5860   23.2980 C   0  0  0  0  0  0  0  0  0  0  0  0
   17.4320    7.4850   23.9110 O   0  0  0  0  0  0  0  0  0  0  0  0
   17.0340    9.8710   21.3010 N   0  0  0  0  0  0  0  0  0  0  0  0
   13.2463    8.5805   20.8181 H   0  0  0  0  0  0  0  0  0  0  0  0
   13.6666   10.1391   18.8943 H   0  0  0  0  0  0  0  0  0  0  0  0
   15.7566    6.9613   16.7647 H   0  0  0  0  0  0  0  0  0  0  0  0
   15.3298    5.4055   18.6905 H   0  0  0  0  0  0  0  0  0  0  0  0
   14.9036    6.2017   21.7324 H   0  0  0  0  0  0  0  0  0  0  0  0
   14.1917    4.9627   20.6440 H   0  0  0  0  0  0  0  0  0  0  0  0
   13.4462    4.8329   23.1021 H   0  0  0  0  0  0  0  0  0  0  0  0
   11.7151    4.7770   22.6260 H   0  0  0  0  0  0  0  0  0  0  0  0
   11.6594    7.1660   23.4740 H   0  0  0  0  0  0  0  0  0  0  0  0
   10.6090    5.1618   24.3954 H   0  0  0  0  0  0  0  0  0  0  0  0
   11.6510    7.3856   26.0549 H   0  0  0  0  0  0  0  0  0  0  0  0
   10.7124    6.0490   26.8027 H   0  0  0  0  0  0  0  0  0  0  0  0
   12.9093    5.2140   26.0278 H   0  0  0  0  0  0  0  0  0  0  0  0
    2.8531    9.8101   28.4125 H   0  0  0  0  0  0  0  0  0  0  0  0
    4.3476   10.6285   28.7232 H   0  0  0  0  0  0  0  0  0  0  0  0
   13.9819    6.2573   24.9636 H   0  0  0  0  0  0  0  0  0  0  0  0
    5.7955    9.0780   24.7539 H   0  0  0  0  0  0  0  0  0  0  0  0
    6.1720   10.1443   27.4153 H   0  0  0  0  0  0  0  0  0  0  0  0
    4.4910   11.6941   25.9324 H   0  0  0  0  0  0  0  0  0  0  0  0
    5.7430   11.0974   24.7909 H   0  0  0  0  0  0  0  0  0  0  0  0
    7.0309   11.5897   27.1605 H   0  0  0  0  0  0  0  0  0  0  0  0
    8.0086   13.3170   25.8718 H   0  0  0  0  0  0  0  0  0  0  0  0
    6.6824   13.1665   24.6696 H   0  0  0  0  0  0  0  0  0  0  0  0
    7.8065   11.7924   24.9437 H   0  0  0  0  0  0  0  0  0  0  0  0
    5.1106   12.8125   27.8371 H   0  0  0  0  0  0  0  0  0  0  0  0
    5.1829   13.7638   26.3152 H   0  0  0  0  0  0  0  0  0  0  0  0
    6.5214   13.8745   27.5079 H   0  0  0  0  0  0  0  0  0  0  0  0
    8.5051    5.6849   26.0756 H   0  0  0  0  0  0  0  0  0  0  0  0
    7.4433    7.5973   24.2866 H   0  0  0  0  0  0  0  0  0  0  0  0
    5.3671    6.5860   24.8870 H   0  0  0  0  0  0  0  0  0  0  0  0
    6.2096    5.6343   26.1563 H   0  0  0  0  0  0  0  0  0  0  0  0
    6.6242    5.3887   24.4258 H   0  0  0  0  0  0  0  0  0  0  0  0
   15.3613    9.9182   23.2640 H   0  0  0  0  0  0  0  0  0  0  0  0
   15.5334    7.7797   25.2433 H   0  0  0  0  0  0  0  0  0  0  0  0
   14.0686   10.3920   25.3296 H   0  0  0  0  0  0  0  0  0  0  0  0
   13.9328    9.9095   27.6446 H   0  0  0  0  0  0  0  0  0  0  0  0
   14.7556    8.3379   27.3620 H   0  0  0  0  0  0  0  0  0  0  0  0
   13.1466    8.6541   26.6285 H   0  0  0  0  0  0  0  0  0  0  0  0
   16.4311   10.6947   25.3388 H   0  0  0  0  0  0  0  0  0  0  0  0
   16.5616    9.5237   26.6946 H   0  0  0  0  0  0  0  0  0  0  0  0
   15.6624   11.0622   26.9200 H   0  0  0  0  0  0  0  0  0  0  0  0
   17.1637   10.9750   19.4897 H   0  0  0  0  0  0  0  0  0  0  0  0
   18.9189    9.4821   18.5063 H   0  0  0  0  0  0  0  0  0  0  0  0
   18.8281    7.1006   22.0692 H   0  0  0  0  0  0  0  0  0  0  0  0
   19.7307    7.5651   19.7847 H   0  0  0  0  0  0  0  0  0  0  0  0
  1  2  2  0  0  0  0
  1  6  1  0  0  0  0
  2  3  1  0  0  0  0
  2 47  1  0  0  0  0
  3  4  2  0  0  0  0
  3 48  1  0  0  0  0
  4 10  1  0  0  0  0
  5  4  1  0  0  0  0
  5 49  1  0  0  0  0
  6  5  2  0  0  0  0
  6 50  1  0  0  0  0
  7  1  1  0  0  0  0
  7 51  1  0  0  0  0
  7 52  1  0  0  0  0
  8  9  1  0  0  0  0
  8 53  1  0  0  0  0
  8 54  1  0  0  0  0
  9  7  1  0  0  0  0
 11  8  1  0  0  0  0
 11 12  1  0  0  0  0
 11 55  1  6  0  0  0
 12 13  1  0  0  0  0
 12 16  1  0  0  0  0
 12 56  1  6  0  0  0
 13 14  1  0  0  0  0
 13 57  1  0  0  0  0
 13 58  1  0  0  0  0
 14 15  2  0  0  0  0
 14 27  1  0  0  0  0
 16 59  1  0  0  0  0
 17 60  1  0  0  0  0
 17 61  1  0  0  0  0
 18 11  1  0  0  0  0
 18 62  1  0  0  0  0
 19 20  1  0  0  0  0
 19 63  1  0  0  0  0
 20 21  1  0  0  0  0
 20 25  1  0  0  0  0
 20 64  1  1  0  0  0
 21 22  1  0  0  0  0
 21 65  1  0  0  0  0
 21 66  1  0  0  0  0
 22 23  1  0  0  0  0
 22 24  1  0  0  0  0
 22 67  1  0  0  0  0
 23 68  1  0  0  0  0
 23 69  1  0  0  0  0
 23 70  1  0  0  0  0
 24 71  1  0  0  0  0
 24 72  1  0  0  0  0
 24 73  1  0  0  0  0
 25 17  1  0  0  0  0
 25 26  2  0  0  0  0
 27 28  1  0  0  0  0
 27 74  1  0  0  0  0
 28 29  1  0  0  0  0
 28 30  1  0  0  0  0
 28 75  1  6  0  0  0
 29 76  1  0  0  0  0
 29 77  1  0  0  0  0
 29 78  1  0  0  0  0
 30 19  1  0  0  0  0
 30 31  2  0  0  0  0
 32 33  1  0  0  0  0
 32 79  1  0  0  0  0
 33 34  1  0  0  0  0
 33 37  1  0  0  0  0
 33 80  1  1  0  0  0
 34 35  1  0  0  0  0
 34 36  1  0  0  0  0
 34 81  1  0  0  0  0
 35 82  1  0  0  0  0
 35 83  1  0  0  0  0
 35 84  1  0  0  0  0
 36 85  1  0  0  0  0
 36 86  1  0  0  0  0
 36 87  1  0  0  0  0
 37 18  1  0  0  0  0
 37 38  2  0  0  0  0
 39 42  2  0  0  0  0
 39 44  1  0  0  0  0
 40 41  1  0  0  0  0
 40 46  2  0  0  0  0
 40 88  1  0  0  0  0
 41 43  2  0  0  0  0
 41 89  1  0  0  0  0
 42 43  1  0  0  0  0
 42 90  1  0  0  0  0
 43 91  1  0  0  0  0
 44 32  1  0  0  0  0
 44 45  2  0  0  0  0
 46 39  1  0  0  0  0
M  END
