1w6r_ligand
 OpenBabel08222323343D

 41 44  0  0  1  0  0  0  0  0999 V2000
    2.6500   67.6610   63.4320 C   0  0  0  0  0  0  0  0  0  0  0  0
    2.7990   68.1720   62.1980 C   0  0  0  0  0  0  0  0  0  0  0  0
    4.1930   68.4080   61.5850 C   0  0  1  0  0  0  0  0  0  0  0  0
    5.3690   68.4590   62.7340 C   0  0  0  0  0  0  0  0  0  0  0  0
    5.1530   67.2270   63.6640 C   0  0  1  0  0  0  0  0  0  0  0  0
    3.8460   67.3510   64.4300 C   0  0  1  0  0  0  0  0  0  0  0  0
    5.1900   65.9910   62.9580 O   0  0  0  0  0  0  0  0  0  0  0  0
    4.5890   63.7660   63.9110 C   0  0  0  0  0  0  0  0  0  0  0  0
    3.8270   63.1050   64.9120 C   0  0  0  0  0  0  0  0  0  0  0  0
    3.0760   63.8470   65.8210 C   0  0  0  0  0  0  0  0  0  0  0  0
    2.2290   65.9650   66.8100 C   0  0  0  0  0  0  0  0  0  0  0  0
    1.9940   67.2200   67.0670 N   0  0  0  0  0  4  0  0  0  0  0  0
    2.4530   68.4310   66.3370 C   0  0  0  0  0  0  0  0  0  0  0  0
    3.8090   68.4240   65.5990 C   0  0  0  0  0  0  0  0  0  0  0  0
    4.5190   65.1850   63.8760 C   0  0  0  0  0  0  0  0  0  0  0  0
    3.7520   65.9240   64.7850 C   0  0  0  0  0  0  0  0  0  0  0  0
    3.0290   65.2880   65.7800 C   0  0  0  0  0  0  0  0  0  0  0  0
    5.8240   61.7850   63.3060 C   0  0  0  0  0  0  0  0  0  0  0  0
    5.4870   63.1330   63.0060 O   0  0  0  0  0  0  0  0  0  0  0  0
    4.3180   67.2490   60.6900 O   0  0  0  0  0  0  0  0  0  0  0  0
    1.2120   67.4310   68.2710 C   0  0  0  0  0  0  0  0  0  0  0  0
    1.6382   67.4443   63.7715 H   0  0  0  0  0  0  0  0  0  0  0  0
    1.9133   68.4254   61.6173 H   0  0  0  0  0  0  0  0  0  0  0  0
    4.2176   69.3471   61.0127 H   0  0  0  0  0  0  0  0  0  0  0  0
    5.2888   69.3894   63.3153 H   0  0  0  0  0  0  0  0  0  0  0  0
    6.3610   68.4061   62.2616 H   0  0  0  0  0  0  0  0  0  0  0  0
    5.9752   67.2172   64.3947 H   0  0  0  0  0  0  0  0  0  0  0  0
    3.8301   62.0225   64.9683 H   0  0  0  0  0  0  0  0  0  0  0  0
    2.5090   63.3248   66.5832 H   0  0  0  0  0  0  0  0  0  0  0  0
    1.7331   65.2799   67.4961 H   0  0  0  0  0  0  0  0  0  0  0  0
    2.4973   69.2470   67.0733 H   0  0  0  0  0  0  0  0  0  0  0  0
    1.6837   68.6577   65.5841 H   0  0  0  0  0  0  0  0  0  0  0  0
    3.9849   69.4217   65.1706 H   0  0  0  0  0  0  0  0  0  0  0  0
    4.6048   68.1895   66.3213 H   0  0  0  0  0  0  0  0  0  0  0  0
    6.5189   61.4025   62.5439 H   0  0  0  0  0  0  0  0  0  0  0  0
    4.9112   61.1712   63.3110 H   0  0  0  0  0  0  0  0  0  0  0  0
    6.3028   61.7382   64.2952 H   0  0  0  0  0  0  0  0  0  0  0  0
    4.2605   66.4493   61.1994 H   0  0  0  0  0  0  0  0  0  0  0  0
    0.9406   66.4583   68.7071 H   0  0  0  0  0  0  0  0  0  0  0  0
    0.2974   67.9888   68.0212 H   0  0  0  0  0  0  0  0  0  0  0  0
    1.8051   68.0058   68.9975 H   0  0  0  0  0  0  0  0  0  0  0  0
  1  2  2  0  0  0  0
  1 22  1  0  0  0  0
  2 23  1  0  0  0  0
  3  2  1  0  0  0  0
  3 20  1  0  0  0  0
  3 24  1  6  0  0  0
  4  3  1  0  0  0  0
  4 25  1  0  0  0  0
  4 26  1  0  0  0  0
  5  4  1  0  0  0  0
  5  6  1  0  0  0  0
  5 27  1  1  0  0  0
  6  1  1  6  0  0  0
  6 14  1  0  0  0  0
  6 16  1  0  0  0  0
  7  5  1  0  0  0  0
  8 15  1  0  0  0  0
  8 19  1  0  0  0  0
  9  8  2  0  0  0  0
  9 28  1  0  0  0  0
 10  9  1  0  0  0  0
 10 29  1  0  0  0  0
 11 12  2  0  0  0  0
 11 17  1  0  0  0  0
 11 30  1  0  0  0  0
 12 13  1  0  0  0  0
 12 21  1  0  0  0  0
 13 14  1  0  0  0  0
 13 31  1  0  0  0  0
 13 32  1  0  0  0  0
 14 33  1  0  0  0  0
 14 34  1  0  0  0  0
 15  7  1  0  0  0  0
 15 16  2  0  0  0  0
 16 17  1  0  0  0  0
 17 10  2  0  0  0  0
 18 35  1  0  0  0  0
 18 36  1  0  0  0  0
 18 37  1  0  0  0  0
 19 18  1  0  0  0  0
 20 38  1  0  0  0  0
 21 39  1  0  0  0  0
 21 40  1  0  0  0  0
 21 41  1  0  0  0  0
M  END
