1w76_ligand
 OpenBabel08222323343D

 41 44  0  0  1  0  0  0  0  0999 V2000
   93.0260   49.4920   19.8460 C   0  0  0  0  0  0  0  0  0  0  0  0
   91.8600   48.8880   19.4540 C   0  0  0  0  0  0  0  0  0  0  0  0
   91.0690   47.9260   20.3810 C   0  0  1  0  0  0  0  0  0  0  0  0
   91.9650   47.3780   21.5940 C   0  0  0  0  0  0  0  0  0  0  0  0
   92.6950   48.5840   22.2030 C   0  0  1  0  0  0  0  0  0  0  0  0
   93.7260   49.1760   21.2180 C   0  0  1  0  0  0  0  0  0  0  0  0
   91.8280   49.6980   22.6240 O   0  0  0  0  0  0  0  0  0  0  0  0
   92.6530   51.8990   23.4410 C   0  0  0  0  0  0  0  0  0  0  0  0
   93.7320   52.8190   23.3950 C   0  0  0  0  0  0  0  0  0  0  0  0
   94.8990   52.5340   22.6330 C   0  0  0  0  0  0  0  0  0  0  0  0
   96.3030   51.1460   21.1140 C   0  0  0  0  0  0  0  0  0  0  0  0
   96.7090   50.1650   20.3220 N   0  0  0  0  0  4  0  0  0  0  0  0
   95.9740   48.9230   19.9320 C   0  0  0  0  0  0  0  0  0  0  0  0
   94.9580   48.2770   20.9210 C   0  0  0  0  0  0  0  0  0  0  0  0
   92.7920   50.7300   22.6990 C   0  0  0  0  0  0  0  0  0  0  0  0
   93.9510   50.4520   21.9280 C   0  0  0  0  0  0  0  0  0  0  0  0
   95.0370   51.3480   21.8860 C   0  0  0  0  0  0  0  0  0  0  0  0
   91.6240   52.6470   25.5210 C   0  0  0  0  0  0  0  0  0  0  0  0
   91.4580   52.0820   24.2070 O   0  0  0  0  0  0  0  0  0  0  0  0
   89.9980   48.7290   20.8770 O   0  0  0  0  0  0  0  0  0  0  0  0
   98.0600   50.2920   19.7870 C   0  0  0  0  0  0  0  0  0  0  0  0
   93.4865   50.2204   19.1802 H   0  0  0  0  0  0  0  0  0  0  0  0
   91.4742   49.0902   18.4559 H   0  0  0  0  0  0  0  0  0  0  0  0
   90.6816   47.0724   19.8055 H   0  0  0  0  0  0  0  0  0  0  0  0
   92.6954   46.6447   21.2213 H   0  0  0  0  0  0  0  0  0  0  0  0
   91.3237   46.9042   22.3517 H   0  0  0  0  0  0  0  0  0  0  0  0
   93.2291   48.2185   23.0925 H   0  0  0  0  0  0  0  0  0  0  0  0
   93.6664   53.7497   23.9468 H   0  0  0  0  0  0  0  0  0  0  0  0
   95.7094   53.2539   22.6271 H   0  0  0  0  0  0  0  0  0  0  0  0
   97.0236   51.9551   21.2236 H   0  0  0  0  0  0  0  0  0  0  0  0
   96.7346   48.1589   19.7138 H   0  0  0  0  0  0  0  0  0  0  0  0
   95.4170   49.1587   19.0132 H   0  0  0  0  0  0  0  0  0  0  0  0
   94.6023   47.3312   20.4864 H   0  0  0  0  0  0  0  0  0  0  0  0
   95.4768   48.0727   21.8692 H   0  0  0  0  0  0  0  0  0  0  0  0
   90.6417   52.7380   26.0077 H   0  0  0  0  0  0  0  0  0  0  0  0
   92.0850   53.6422   25.4367 H   0  0  0  0  0  0  0  0  0  0  0  0
   92.2719   51.9925   26.1224 H   0  0  0  0  0  0  0  0  0  0  0  0
   90.3535   49.4671   21.3579 H   0  0  0  0  0  0  0  0  0  0  0  0
   98.5048   51.2360   20.1347 H   0  0  0  0  0  0  0  0  0  0  0  0
   98.0210   50.2881   18.6877 H   0  0  0  0  0  0  0  0  0  0  0  0
   98.6731   49.4477   20.1351 H   0  0  0  0  0  0  0  0  0  0  0  0
  1  2  2  0  0  0  0
  1 22  1  0  0  0  0
  2 23  1  0  0  0  0
  3  2  1  0  0  0  0
  3 20  1  0  0  0  0
  3 24  1  6  0  0  0
  4  3  1  0  0  0  0
  4 25  1  0  0  0  0
  4 26  1  0  0  0  0
  5  4  1  0  0  0  0
  5  6  1  0  0  0  0
  5 27  1  1  0  0  0
  6  1  1  6  0  0  0
  6 14  1  0  0  0  0
  6 16  1  0  0  0  0
  7  5  1  0  0  0  0
  8 15  1  0  0  0  0
  8 19  1  0  0  0  0
  9  8  2  0  0  0  0
  9 28  1  0  0  0  0
 10  9  1  0  0  0  0
 10 29  1  0  0  0  0
 11 12  2  0  0  0  0
 11 17  1  0  0  0  0
 11 30  1  0  0  0  0
 12 13  1  0  0  0  0
 12 21  1  0  0  0  0
 13 14  1  0  0  0  0
 13 31  1  0  0  0  0
 13 32  1  0  0  0  0
 14 33  1  0  0  0  0
 14 34  1  0  0  0  0
 15  7  1  0  0  0  0
 15 16  2  0  0  0  0
 16 17  1  0  0  0  0
 17 10  2  0  0  0  0
 18 35  1  0  0  0  0
 18 36  1  0  0  0  0
 18 37  1  0  0  0  0
 19 18  1  0  0  0  0
 20 38  1  0  0  0  0
 21 39  1  0  0  0  0
 21 40  1  0  0  0  0
 21 41  1  0  0  0  0
M  END
