1w80_ligand
 OpenBabel08222323343D

135138  0  0  1  0  0  0  0  0999 V2000
   22.0180  -19.3770   -7.2980 N   0  3  0  0  0  0  0  0  0  0  0  0
   22.3770  -19.2690   -8.7150 C   0  0  2  0  0  0  0  0  0  0  0  0
   23.7860  -18.7080   -8.9120 C   0  0  0  0  0  0  0  0  0  0  0  0
   24.1310  -17.6500   -8.3700 O   0  0  0  0  0  0  0  0  0  0  0  0
   21.3030  -18.3330   -9.2720 C   0  0  0  0  0  0  0  0  0  0  0  0
   20.0850  -18.6810   -8.4420 C   0  0  0  0  0  0  0  0  0  0  0  0
   20.6140  -18.9790   -7.0550 C   0  0  0  0  0  0  0  0  0  0  0  0
   24.6120  -19.4210   -9.6700 N   0  0  0  0  0  0  0  0  0  0  0  0
   26.0360  -19.0650   -9.7580 C   0  0  2  0  0  0  0  0  0  0  0  0
   26.2990  -17.6850  -10.4230 C   0  0  0  0  0  0  0  0  0  0  0  0
   27.3650  -17.1130  -10.2210 O   0  0  0  0  0  0  0  0  0  0  0  0
   26.8090  -20.1760  -10.4850 C   0  0  0  0  0  0  0  0  0  0  0  0
   28.2970  -20.2960  -10.1260 C   0  0  0  0  0  0  0  0  0  0  0  0
   28.8240  -21.7100  -10.4770 C   0  0  0  0  0  0  0  0  0  0  0  0
   28.3460  -22.8460   -9.4880 C   0  0  0  0  0  0  0  0  0  0  0  0
   29.1860  -24.1340   -9.5980 N   0  3  0  0  0  0  0  0  0  0  0  0
   25.3710  -17.1380  -11.2050 N   0  0  0  0  0  0  0  0  0  0  0  0
   25.5960  -15.7820  -11.7370 C   0  0  0  0  0  0  0  0  0  0  0  0
   25.4550  -14.6560  -10.6720 C   0  0  0  0  0  0  0  0  0  0  0  0
   25.5410  -13.4710  -11.0250 O   0  0  0  0  0  0  0  0  0  0  0  0
   25.1520  -14.9820   -9.4070 N   0  0  0  0  0  0  0  0  0  0  0  0
   24.8260  -13.9050   -8.4260 C   0  0  2  0  0  0  0  0  0  0  0  0
   26.0400  -13.3510   -7.6930 C   0  0  0  0  0  0  0  0  0  0  0  0
   26.9190  -14.0840   -7.2340 O   0  0  0  0  0  0  0  0  0  0  0  0
   23.7820  -14.3410   -7.3540 C   0  0  0  0  0  0  0  0  0  0  0  0
   22.4390  -14.6500   -7.8780 C   0  0  0  0  0  0  0  0  0  0  0  0
   21.9840  -14.5310   -9.1650 C   0  0  0  0  0  0  0  0  0  0  0  0
   21.3020  -15.0100   -7.0710 C   0  0  0  0  0  0  0  0  0  0  0  0
   20.6130  -14.8450   -9.2050 N   0  0  0  0  0  0  0  0  0  0  0  0
   20.2030  -15.1690   -7.9310 C   0  0  0  0  0  0  0  0  0  0  0  0
   21.1510  -15.2620   -5.7130 C   0  0  0  0  0  0  0  0  0  0  0  0
   18.9140  -15.5640   -7.4530 C   0  0  0  0  0  0  0  0  0  0  0  0
   19.9150  -15.6170   -5.2310 C   0  0  0  0  0  0  0  0  0  0  0  0
   18.8120  -15.7660   -6.1150 C   0  0  0  0  0  0  0  0  0  0  0  0
   25.9700  -12.0400   -7.3940 N   0  0  0  0  0  0  0  0  0  0  0  0
   26.8490  -11.4930   -6.3350 C   0  0  2  0  0  0  0  0  0  0  0  0
   26.6000  -12.2390   -5.0490 C   0  0  0  0  0  0  0  0  0  0  0  0
   25.4530  -12.5290   -4.7220 O   0  0  0  0  0  0  0  0  0  0  0  0
   26.5600   -9.9440   -6.1590 C   0  0  0  0  0  0  0  0  0  0  0  0
   27.3910   -9.3940   -5.0750 C   0  0  0  0  0  0  0  0  0  0  0  0
   26.7990   -9.2630   -7.4690 C   0  0  0  0  0  0  0  0  0  0  0  0
   27.6500  -12.5230   -4.2820 N   0  0  0  0  0  0  0  0  0  0  0  0
   27.5830  -13.2230   -3.0310 C   0  0  2  0  0  0  0  0  0  0  0  0
   28.1360  -12.3710   -1.9710 C   0  0  0  0  0  0  0  0  0  0  0  0
   28.6800  -11.2810   -2.2470 O   0  0  0  0  0  0  0  0  0  0  0  0
   28.4500  -14.5150   -3.0990 C   0  0  2  0  0  0  0  0  0  0  0  0
   29.7500  -14.1390   -3.6430 O   0  0  0  0  0  0  0  0  0  0  0  0
   27.7380  -15.5230   -3.9450 C   0  0  0  0  0  0  0  0  0  0  0  0
   27.9410  -12.7900   -0.7430 N   0  0  0  0  0  0  0  0  0  0  0  0
   28.1150  -11.9120    0.4590 C   0  0  2  0  0  0  0  0  0  0  0  0
   28.9880  -12.5660    1.5340 C   0  0  0  0  0  0  0  0  0  0  0  0
   28.9310  -12.2340    2.7160 O   0  0  0  0  0  0  0  0  0  0  0  0
   26.7550  -11.3970    0.9760 C   0  0  0  0  0  0  0  0  0  0  0  0
   25.9410  -10.8040   -0.1160 C   0  0  0  0  0  0  0  0  0  0  0  0
   25.0470  -11.5660   -0.8110 C   0  0  0  0  0  0  0  0  0  0  0  0
   26.1750   -9.5060   -0.5130 C   0  0  0  0  0  0  0  0  0  0  0  0
   24.3710  -11.0270   -1.8970 C   0  0  0  0  0  0  0  0  0  0  0  0
   25.4950   -8.9900   -1.5660 C   0  0  0  0  0  0  0  0  0  0  0  0
   24.6030   -9.7800   -2.2700 C   0  0  0  0  0  0  0  0  0  0  0  0
   29.9000  -13.4370    1.0950 N   0  0  0  0  0  0  0  0  0  0  0  0
   30.7720  -14.1160    2.0880 C   0  0  2  0  0  0  0  0  0  0  0  0
   31.7190  -13.0390    2.6220 C   0  0  0  0  0  0  0  0  0  0  0  0
   32.3270  -12.3160    1.8040 O   0  5  0  0  0  0  0  0  0  0  0  0
   31.5340  -15.2930    1.4620 C   0  0  0  0  0  0  0  0  0  0  0  0
   30.6230  -16.2410    0.6780 C   0  0  0  0  0  0  0  0  0  0  0  0
   31.2100  -17.6580    0.3860 C   0  0  0  0  0  0  0  0  0  0  0  0
   31.1820  -18.0360   -0.8400 O   0  5  0  0  0  0  0  0  0  0  0  0
   31.6560  -18.4030    1.3540 O   0  0  0  0  0  0  0  0  0  0  0  0
   31.8530  -12.9180    3.8580 O   0  0  0  0  0  0  0  0  0  0  0  0
   22.6247  -18.7773   -6.7611 H   0  0  0  0  0  0  0  0  0  0  0  0
   22.1421  -20.3325   -7.0019 H   0  0  0  0  0  0  0  0  0  0  0  0
   22.3189  -20.2536   -9.2020 H   0  0  0  0  0  0  0  0  0  0  0  0
   21.1231  -18.5284  -10.3394 H   0  0  0  0  0  0  0  0  0  0  0  0
   21.5870  -17.2792   -9.1349 H   0  0  0  0  0  0  0  0  0  0  0  0
   19.5758  -19.5632   -8.8572 H   0  0  0  0  0  0  0  0  0  0  0  0
   19.3846  -17.8334   -8.4126 H   0  0  0  0  0  0  0  0  0  0  0  0
   20.5638  -18.0858   -6.4150 H   0  0  0  0  0  0  0  0  0  0  0  0
   20.0488  -19.7981   -6.5864 H   0  0  0  0  0  0  0  0  0  0  0  0
   24.2631  -20.2047  -10.1839 H   0  0  0  0  0  0  0  0  0  0  0  0
   26.4206  -19.0054   -8.7291 H   0  0  0  0  0  0  0  0  0  0  0  0
   26.7364  -19.9865  -11.5661 H   0  0  0  0  0  0  0  0  0  0  0  0
   26.3256  -21.1351  -10.2475 H   0  0  0  0  0  0  0  0  0  0  0  0
   28.4254  -20.1185   -9.0481 H   0  0  0  0  0  0  0  0  0  0  0  0
   28.8682  -19.5454  -10.6919 H   0  0  0  0  0  0  0  0  0  0  0  0
   29.9235  -21.6812  -10.4629 H   0  0  0  0  0  0  0  0  0  0  0  0
   28.4768  -21.9657  -11.4889 H   0  0  0  0  0  0  0  0  0  0  0  0
   27.2980  -23.0907   -9.7156 H   0  0  0  0  0  0  0  0  0  0  0  0
   28.4187  -22.4672   -8.4579 H   0  0  0  0  0  0  0  0  0  0  0  0
   28.8366  -24.8196   -8.9469 H   0  0  0  0  0  0  0  0  0  0  0  0
   30.1488  -23.9267   -9.3832 H   0  0  0  0  0  0  0  0  0  0  0  0
   29.1218  -24.4980  -10.5358 H   0  0  0  0  0  0  0  0  0  0  0  0
   24.5347  -17.6390  -11.4279 H   0  0  0  0  0  0  0  0  0  0  0  0
   24.8627  -15.5971  -12.5358 H   0  0  0  0  0  0  0  0  0  0  0  0
   26.6125  -15.7381  -12.1551 H   0  0  0  0  0  0  0  0  0  0  0  0
   25.1445  -15.9407   -9.1226 H   0  0  0  0  0  0  0  0  0  0  0  0
   24.3842  -13.0805   -9.0048 H   0  0  0  0  0  0  0  0  0  0  0  0
   23.6830  -13.5250   -6.6231 H   0  0  0  0  0  0  0  0  0  0  0  0
   24.1662  -15.2401   -6.8501 H   0  0  0  0  0  0  0  0  0  0  0  0
   22.5886  -14.2392  -10.0224 H   0  0  0  0  0  0  0  0  0  0  0  0
   20.0170  -14.8343  -10.0450 H   0  0  0  0  0  0  0  0  0  0  0  0
   21.9985  -15.1794   -5.0421 H   0  0  0  0  0  0  0  0  0  0  0  0
   18.0692  -15.6942   -8.1197 H   0  0  0  0  0  0  0  0  0  0  0  0
   19.7796  -15.7848   -4.1687 H   0  0  0  0  0  0  0  0  0  0  0  0
   17.8508  -16.0525   -5.7039 H   0  0  0  0  0  0  0  0  0  0  0  0
   25.3324  -11.4431   -7.8810 H   0  0  0  0  0  0  0  0  0  0  0  0
   27.9002  -11.6287   -6.6292 H   0  0  0  0  0  0  0  0  0  0  0  0
   25.5039   -9.8071   -5.8836 H   0  0  0  0  0  0  0  0  0  0  0  0
   27.1823   -8.3199   -4.9620 H   0  0  0  0  0  0  0  0  0  0  0  0
   28.4540   -9.5373   -5.3191 H   0  0  0  0  0  0  0  0  0  0  0  0
   27.1575   -9.9138   -4.1341 H   0  0  0  0  0  0  0  0  0  0  0  0
   26.1545   -9.7124   -8.2388 H   0  0  0  0  0  0  0  0  0  0  0  0
   27.8536   -9.3833   -7.7578 H   0  0  0  0  0  0  0  0  0  0  0  0
   26.5647   -8.1925   -7.3739 H   0  0  0  0  0  0  0  0  0  0  0  0
   28.5506  -12.2272   -4.6004 H   0  0  0  0  0  0  0  0  0  0  0  0
   26.5380  -13.4812   -2.8047 H   0  0  0  0  0  0  0  0  0  0  0  0
   28.5873  -14.9298   -2.0895 H   0  0  0  0  0  0  0  0  0  0  0  0
   30.1556  -13.4949   -3.0746 H   0  0  0  0  0  0  0  0  0  0  0  0
   28.3385  -16.4428   -4.0029 H   0  0  0  0  0  0  0  0  0  0  0  0
   27.5926  -15.1157   -4.9564 H   0  0  0  0  0  0  0  0  0  0  0  0
   26.7595  -15.7516   -3.4976 H   0  0  0  0  0  0  0  0  0  0  0  0
   27.6631  -13.7403   -0.6025 H   0  0  0  0  0  0  0  0  0  0  0  0
   28.6687  -11.0242    0.1198 H   0  0  0  0  0  0  0  0  0  0  0  0
   26.9329  -10.6304    1.7446 H   0  0  0  0  0  0  0  0  0  0  0  0
   26.2001  -12.2376    1.4180 H   0  0  0  0  0  0  0  0  0  0  0  0
   24.8648  -12.5927   -0.5147 H   0  0  0  0  0  0  0  0  0  0  0  0
   26.9011   -8.8987    0.0153 H   0  0  0  0  0  0  0  0  0  0  0  0
   23.6518  -11.6294   -2.4401 H   0  0  0  0  0  0  0  0  0  0  0  0
   25.6501   -7.9574   -1.8570 H   0  0  0  0  0  0  0  0  0  0  0  0
   24.0904   -9.3731   -3.1342 H   0  0  0  0  0  0  0  0  0  0  0  0
   29.9941  -13.6283    0.1180 H   0  0  0  0  0  0  0  0  0  0  0  0
   30.1561  -14.5032    2.9131 H   0  0  0  0  0  0  0  0  0  0  0  0
   32.0240  -15.8617    2.2660 H   0  0  0  0  0  0  0  0  0  0  0  0
   32.2971  -14.8934    0.7779 H   0  0  0  0  0  0  0  0  0  0  0  0
   30.3913  -15.7660   -0.2867 H   0  0  0  0  0  0  0  0  0  0  0  0
   29.6954  -16.3719    1.2545 H   0  0  0  0  0  0  0  0  0  0  0  0
  1  2  1  0  0  0  0
  1  7  1  0  0  0  0
  1 70  1  0  0  0  0
  1 71  1  0  0  0  0
  2  3  1  0  0  0  0
  2  5  1  0  0  0  0
  2 72  1  6  0  0  0
  3  4  2  0  0  0  0
  3  8  1  0  0  0  0
  5  6  1  0  0  0  0
  5 73  1  0  0  0  0
  5 74  1  0  0  0  0
  6  7  1  0  0  0  0
  6 75  1  0  0  0  0
  6 76  1  0  0  0  0
  7 77  1  0  0  0  0
  7 78  1  0  0  0  0
  8  9  1  0  0  0  0
  8 79  1  0  0  0  0
  9 10  1  0  0  0  0
  9 12  1  0  0  0  0
  9 80  1  1  0  0  0
 10 11  2  0  0  0  0
 10 17  1  0  0  0  0
 12 13  1  0  0  0  0
 12 81  1  0  0  0  0
 12 82  1  0  0  0  0
 13 14  1  0  0  0  0
 13 83  1  0  0  0  0
 13 84  1  0  0  0  0
 14 15  1  0  0  0  0
 14 85  1  0  0  0  0
 14 86  1  0  0  0  0
 15 16  1  0  0  0  0
 15 87  1  0  0  0  0
 15 88  1  0  0  0  0
 16 89  1  0  0  0  0
 16 90  1  0  0  0  0
 16 91  1  0  0  0  0
 17 18  1  0  0  0  0
 17 92  1  0  0  0  0
 18 19  1  0  0  0  0
 18 93  1  0  0  0  0
 18 94  1  0  0  0  0
 19 20  2  0  0  0  0
 19 21  1  0  0  0  0
 21 22  1  0  0  0  0
 21 95  1  0  0  0  0
 22 23  1  0  0  0  0
 22 25  1  0  0  0  0
 22 96  1  6  0  0  0
 23 24  2  0  0  0  0
 23 35  1  0  0  0  0
 25 26  1  0  0  0  0
 25 97  1  0  0  0  0
 25 98  1  0  0  0  0
 26 27  2  0  0  0  0
 26 28  1  0  0  0  0
 27 29  1  0  0  0  0
 27 99  1  0  0  0  0
 28 30  2  0  0  0  0
 28 31  1  0  0  0  0
 29 30  1  0  0  0  0
 29100  1  0  0  0  0
 30 32  1  0  0  0  0
 31 33  2  0  0  0  0
 31101  1  0  0  0  0
 32 34  2  0  0  0  0
 32102  1  0  0  0  0
 33 34  1  0  0  0  0
 33103  1  0  0  0  0
 34104  1  0  0  0  0
 35 36  1  0  0  0  0
 35105  1  0  0  0  0
 36 37  1  0  0  0  0
 36 39  1  0  0  0  0
 36106  1  6  0  0  0
 37 38  2  0  0  0  0
 37 42  1  0  0  0  0
 39 40  1  0  0  0  0
 39 41  1  0  0  0  0
 39107  1  0  0  0  0
 40108  1  0  0  0  0
 40109  1  0  0  0  0
 40110  1  0  0  0  0
 41111  1  0  0  0  0
 41112  1  0  0  0  0
 41113  1  0  0  0  0
 42 43  1  0  0  0  0
 42114  1  0  0  0  0
 43 44  1  0  0  0  0
 43 46  1  0  0  0  0
 43115  1  1  0  0  0
 44 45  2  0  0  0  0
 44 49  1  0  0  0  0
 46 47  1  0  0  0  0
 46 48  1  0  0  0  0
 46116  1  1  0  0  0
 47117  1  0  0  0  0
 48118  1  0  0  0  0
 48119  1  0  0  0  0
 48120  1  0  0  0  0
 49 50  1  0  0  0  0
 49121  1  0  0  0  0
 50 51  1  0  0  0  0
 50 53  1  0  0  0  0
 50122  1  6  0  0  0
 51 52  2  0  0  0  0
 51 60  1  0  0  0  0
 53 54  1  0  0  0  0
 53123  1  0  0  0  0
 53124  1  0  0  0  0
 54 55  2  0  0  0  0
 54 56  1  0  0  0  0
 55 57  1  0  0  0  0
 55125  1  0  0  0  0
 56 58  2  0  0  0  0
 56126  1  0  0  0  0
 57 59  2  0  0  0  0
 57127  1  0  0  0  0
 58 59  1  0  0  0  0
 58128  1  0  0  0  0
 59129  1  0  0  0  0
 60 61  1  0  0  0  0
 60130  1  0  0  0  0
 61 62  1  0  0  0  0
 61 64  1  0  0  0  0
 61131  1  1  0  0  0
 62 63  1  0  0  0  0
 62 69  2  0  0  0  0
 64 65  1  0  0  0  0
 64132  1  0  0  0  0
 64133  1  0  0  0  0
 65 66  1  0  0  0  0
 65134  1  0  0  0  0
 65135  1  0  0  0  0
 66 67  1  0  0  0  0
 66 68  2  0  0  0  0
M  CHG  4   1   1  16   1  63  -1  67  -1
M  END
