1wax_ligand
 OpenBabel08222323343D

 24 24  0  0  0  0  0  0  0  0999 V2000
   42.4890   16.7100   64.1080 C   0  0  0  0  0  0  0  0  0  0  0  0
   43.6980   17.1380   64.1070 O   0  5  0  0  0  0  0  0  0  0  0  0
   41.4680   17.3540   63.6650 O   0  0  0  0  0  0  0  0  0  0  0  0
   42.2500   15.3770   64.6800 C   0  0  0  0  0  0  0  0  0  0  0  0
   41.7020   14.5610   63.9600 O   0  0  0  0  0  0  0  0  0  0  0  0
   42.6030   14.0600   66.7720 C   0  0  0  0  0  0  0  0  0  0  0  0
   43.5000   13.9710   67.8270 C   0  0  0  0  0  0  0  0  0  0  0  0
   43.4860   12.8690   68.6610 C   0  0  0  0  0  0  0  0  0  0  0  0
   42.5770   11.8590   68.4510 C   0  0  0  0  0  0  0  0  0  0  0  0
   41.6690   11.9400   67.4130 C   0  0  0  0  0  0  0  0  0  0  0  0
   41.6730   13.0350   66.5680 C   0  0  0  0  0  0  0  0  0  0  0  0
   42.5730   10.6750   69.3680 C   0  0  0  0  0  0  0  0  0  0  0  0
   41.5260   10.9510   70.3490 N   0  3  0  0  0  0  0  0  0  0  0  0
   42.6730   15.2070   65.9650 N   0  0  0  0  0  0  0  0  0  0  0  0
   44.2141   14.7685   67.9976 H   0  0  0  0  0  0  0  0  0  0  0  0
   44.1918   12.8009   69.4809 H   0  0  0  0  0  0  0  0  0  0  0  0
   40.9508   11.1425   67.2602 H   0  0  0  0  0  0  0  0  0  0  0  0
   40.9606   13.0985   65.7535 H   0  0  0  0  0  0  0  0  0  0  0  0
   43.5486   10.5693   69.8651 H   0  0  0  0  0  0  0  0  0  0  0  0
   42.3446    9.7555   68.8091 H   0  0  0  0  0  0  0  0  0  0  0  0
   41.4688   10.1865   71.0034 H   0  0  0  0  0  0  0  0  0  0  0  0
   40.6418   11.0556   69.8764 H   0  0  0  0  0  0  0  0  0  0  0  0
   41.7451   11.8013   70.8440 H   0  0  0  0  0  0  0  0  0  0  0  0
   43.0905   16.0095   66.3913 H   0  0  0  0  0  0  0  0  0  0  0  0
  1  2  1  0  0  0  0
  1  3  2  0  0  0  0
  4  1  1  0  0  0  0
  4  5  2  0  0  0  0
  6  7  2  0  0  0  0
  6 11  1  0  0  0  0
  6 14  1  0  0  0  0
  7  8  1  0  0  0  0
  7 15  1  0  0  0  0
  8  9  2  0  0  0  0
  8 16  1  0  0  0  0
  9 10  1  0  0  0  0
  9 12  1  0  0  0  0
 10 11  2  0  0  0  0
 10 17  1  0  0  0  0
 11 18  1  0  0  0  0
 12 13  1  0  0  0  0
 12 19  1  0  0  0  0
 12 20  1  0  0  0  0
 13 21  1  0  0  0  0
 13 22  1  0  0  0  0
 13 23  1  0  0  0  0
 14  4  1  0  0  0  0
 14 24  1  0  0  0  0
M  CHG  2   2  -1  13   1
M  END
