1wbn_ligand
 OpenBabel08222323343D

 50 52  0  0  0  0  0  0  0  0999 V2000
    4.6140   14.2610   41.5920 C   0  0  0  0  0  0  0  0  0  0  0  0
    5.8450   15.1930   41.5340 C   0  0  0  0  0  0  0  0  0  0  0  0
    5.6740   16.3200   42.5570 C   0  0  0  0  0  0  0  0  0  0  0  0
    7.1040   14.3520   41.9250 C   0  0  0  0  0  0  0  0  0  0  0  0
    6.0560   15.7640   40.1200 C   0  0  0  0  0  0  0  0  0  0  0  0
    6.0610   15.0720   38.9340 C   0  0  0  0  0  0  0  0  0  0  0  0
    6.3100   15.9840   37.9150 C   0  0  0  0  0  0  0  0  0  0  0  0
    6.3900   15.7740   36.5020 N   0  0  0  0  0  0  0  0  0  0  0  0
    6.1000   14.6060   35.8160 C   0  0  0  0  0  0  0  0  0  0  0  0
    5.5610   13.6520   36.3430 O   0  0  0  0  0  0  0  0  0  0  0  0
    6.4220   14.5830   34.4770 N   0  0  0  0  0  0  0  0  0  0  0  0
    6.2570   13.5100   33.5470 C   0  0  0  0  0  0  0  0  0  0  0  0
    7.3000   13.3640   32.5670 C   0  0  0  0  0  0  0  0  0  0  0  0
    7.2450   12.3610   31.5820 C   0  0  0  0  0  0  0  0  0  0  0  0
    6.1150   11.4670   31.5390 C   0  0  0  0  0  0  0  0  0  0  0  0
    6.1290   10.2730   30.2850 Cl  0  0  0  0  0  0  0  0  0  0  0  0
    5.0540   11.5830   32.5100 C   0  0  0  0  0  0  0  0  0  0  0  0
    3.8350   10.6570   32.4930 C   0  0  0  0  0  0  0  0  0  0  0  0
    3.0610   10.9960   31.3230 O   0  0  0  0  0  0  0  0  0  0  0  0
    2.0590   10.0990   30.9970 C   0  0  0  0  0  0  0  0  0  0  0  0
    1.1460   10.4820   29.9550 C   0  0  0  0  0  0  0  0  0  0  0  0
    0.0820    9.6050   29.5550 C   0  0  0  0  0  0  0  0  0  0  0  0
   -0.0400    8.3630   30.2040 C   0  0  0  0  0  0  0  0  0  0  0  0
    0.8350    8.0040   31.1960 N   0  0  0  0  0  0  0  0  0  0  0  0
    1.8600    8.7960   31.6140 C   0  0  0  0  0  0  0  0  0  0  0  0
    5.1170   12.6090   33.5070 C   0  0  0  0  0  0  0  0  0  0  0  0
    6.4480   17.1660   38.4640 N   0  0  0  0  0  0  0  0  0  0  0  0
    6.2940   17.0560   39.8300 N   0  0  0  0  0  0  0  0  0  0  0  0
    4.4955   13.8734   42.6146 H   0  0  0  0  0  0  0  0  0  0  0  0
    4.7567   13.4213   40.8959 H   0  0  0  0  0  0  0  0  0  0  0  0
    3.7135   14.8247   41.3069 H   0  0  0  0  0  0  0  0  0  0  0  0
    6.5488   16.9858   42.5186 H   0  0  0  0  0  0  0  0  0  0  0  0
    5.5848   15.8895   43.5653 H   0  0  0  0  0  0  0  0  0  0  0  0
    4.7657   16.8941   42.3217 H   0  0  0  0  0  0  0  0  0  0  0  0
    7.2407   13.5372   41.1987 H   0  0  0  0  0  0  0  0  0  0  0  0
    6.9638   13.9276   42.9301 H   0  0  0  0  0  0  0  0  0  0  0  0
    7.9932   14.9995   41.9212 H   0  0  0  0  0  0  0  0  0  0  0  0
    5.8991   14.0019   38.8135 H   0  0  0  0  0  0  0  0  0  0  0  0
    6.6870   16.5537   35.9507 H   0  0  0  0  0  0  0  0  0  0  0  0
    6.8215   15.4227   34.1091 H   0  0  0  0  0  0  0  0  0  0  0  0
    8.1462   14.0412   32.5880 H   0  0  0  0  0  0  0  0  0  0  0  0
    8.0473   12.2611   30.8599 H   0  0  0  0  0  0  0  0  0  0  0  0
    3.2328   10.8092   33.4009 H   0  0  0  0  0  0  0  0  0  0  0  0
    4.1593    9.6072   32.4397 H   0  0  0  0  0  0  0  0  0  0  0  0
    1.2620   11.4426   29.4663 H   0  0  0  0  0  0  0  0  0  0  0  0
   -0.6103    9.8929   28.7721 H   0  0  0  0  0  0  0  0  0  0  0  0
   -0.8339    7.6831   29.9167 H   0  0  0  0  0  0  0  0  0  0  0  0
    2.5240    8.4584   32.4015 H   0  0  0  0  0  0  0  0  0  0  0  0
    4.3164   12.7135   34.2303 H   0  0  0  0  0  0  0  0  0  0  0  0
    6.3512   17.8280   40.5094 H   0  0  0  0  0  0  0  0  0  0  0  0
  1  2  1  0  0  0  0
  1 29  1  0  0  0  0
  1 30  1  0  0  0  0
  1 31  1  0  0  0  0
  2  3  1  0  0  0  0
  2  4  1  0  0  0  0
  2  5  1  0  0  0  0
  3 32  1  0  0  0  0
  3 33  1  0  0  0  0
  3 34  1  0  0  0  0
  4 35  1  0  0  0  0
  4 36  1  0  0  0  0
  4 37  1  0  0  0  0
  5  6  2  0  0  0  0
  5 28  1  0  0  0  0
  6  7  1  0  0  0  0
  6 38  1  0  0  0  0
  7  8  1  0  0  0  0
  7 27  2  0  0  0  0
  8  9  1  0  0  0  0
  8 39  1  0  0  0  0
  9 10  2  0  0  0  0
  9 11  1  0  0  0  0
 11 12  1  0  0  0  0
 11 40  1  0  0  0  0
 12 13  2  0  0  0  0
 12 26  1  0  0  0  0
 13 14  1  0  0  0  0
 13 41  1  0  0  0  0
 14 15  2  0  0  0  0
 14 42  1  0  0  0  0
 15 16  1  0  0  0  0
 15 17  1  0  0  0  0
 17 18  1  0  0  0  0
 17 26  2  0  0  0  0
 18 19  1  0  0  0  0
 18 43  1  0  0  0  0
 18 44  1  0  0  0  0
 19 20  1  0  0  0  0
 20 21  2  0  0  0  0
 20 25  1  0  0  0  0
 21 22  1  0  0  0  0
 21 45  1  0  0  0  0
 22 23  2  0  0  0  0
 22 46  1  0  0  0  0
 23 24  1  0  0  0  0
 23 47  1  0  0  0  0
 24 25  2  0  0  0  0
 25 48  1  0  0  0  0
 26 49  1  0  0  0  0
 27 28  1  0  0  0  0
 28 50  1  0  0  0  0
M  END
