1wdq_ligand
 OpenBabel08222323343D

 43 44  0  0  1  0  0  0  0  0999 V2000
    0.9230   28.6920   21.9830 C   0  0  1  0  0  0  0  0  0  0  0  0
    1.7170   27.4070   21.6590 C   0  0  1  0  0  0  0  0  0  0  0  0
    3.1030   27.8610   21.1930 C   0  0  2  0  0  0  0  0  0  0  0  0
    2.9420   28.6640   19.9090 C   0  0  1  0  0  0  0  0  0  0  0  0
    2.0870   29.9040   20.1930 C   0  0  1  0  0  0  0  0  0  0  0  0
    1.7200   30.7580   18.9850 C   0  0  0  0  0  0  0  0  0  0  0  0
    1.5100   29.4120   23.0670 O   0  0  0  0  0  0  0  0  0  0  0  0
    1.8620   26.6610   22.8710 O   0  0  0  0  0  0  0  0  0  0  0  0
    3.8820   26.6820   20.9530 O   0  0  0  0  0  0  0  0  0  0  0  0
    4.2560   29.1080   19.5140 O   0  0  0  0  0  0  0  0  0  0  0  0
    0.8360   29.4530   20.7540 O   0  0  0  0  0  0  0  0  0  0  0  0
    0.9830   30.0210   17.9800 O   0  0  0  0  0  0  0  0  0  0  0  0
   -0.2160   32.8410   24.5710 C   0  0  0  0  0  0  0  0  0  0  0  0
   -0.6380   31.5880   25.1980 C   0  0  1  0  0  0  0  0  0  0  0  0
    0.0570   30.3000   24.8200 C   0  0  2  0  0  0  0  0  0  0  0  0
    0.8690   30.5740   23.5570 C   0  0  1  0  0  0  0  0  0  0  0  0
    1.8850   31.6670   23.9480 C   0  0  1  0  0  0  0  0  0  0  0  0
    2.8230   32.2800   22.9300 C   0  0  0  0  0  0  0  0  0  0  0  0
   -0.8270   34.1190   24.3720 O   0  0  0  0  0  0  0  0  0  0  0  0
   -1.0670   31.4000   26.5250 O   0  0  0  0  0  0  0  0  0  0  0  0
   -0.8750   29.2780   24.5270 O   0  0  0  0  0  0  0  0  0  0  0  0
    1.1980   32.8420   24.4530 O   0  0  0  0  0  0  0  0  0  0  0  0
    2.0480   32.8510   21.7950 O   0  0  0  0  0  0  0  0  0  0  0  0
   -0.0958   28.4111   22.2882 H   0  0  0  0  0  0  0  0  0  0  0  0
    1.2131   26.8077   20.8864 H   0  0  0  0  0  0  0  0  0  0  0  0
    3.5842   28.4811   21.9637 H   0  0  0  0  0  0  0  0  0  0  0  0
    2.4814   28.0497   19.1213 H   0  0  0  0  0  0  0  0  0  0  0  0
    2.6246   30.5342   20.9168 H   0  0  0  0  0  0  0  0  0  0  0  0
    2.6458   31.1413   18.5312 H   0  0  0  0  0  0  0  0  0  0  0  0
    1.1020   31.6017   19.3258 H   0  0  0  0  0  0  0  0  0  0  0  0
    1.0068   26.3741   23.1692 H   0  0  0  0  0  0  0  0  0  0  0  0
    3.9727   26.1935   21.7626 H   0  0  0  0  0  0  0  0  0  0  0  0
    4.1863   29.6445   18.7330 H   0  0  0  0  0  0  0  0  0  0  0  0
    1.5105   29.2933   17.6722 H   0  0  0  0  0  0  0  0  0  0  0  0
   -1.5982   31.4833   24.6716 H   0  0  0  0  0  0  0  0  0  0  0  0
    0.7159   29.9771   25.6395 H   0  0  0  0  0  0  0  0  0  0  0  0
    0.2026   30.9563   22.7697 H   0  0  0  0  0  0  0  0  0  0  0  0
    2.5046   31.2280   24.7438 H   0  0  0  0  0  0  0  0  0  0  0  0
    3.5046   31.5044   22.5507 H   0  0  0  0  0  0  0  0  0  0  0  0
    3.4073   33.0792   23.4094 H   0  0  0  0  0  0  0  0  0  0  0  0
   -1.6599   30.6586   26.5630 H   0  0  0  0  0  0  0  0  0  0  0  0
   -0.4099   28.4942   24.2588 H   0  0  0  0  0  0  0  0  0  0  0  0
    1.4599   33.5224   22.1205 H   0  0  0  0  0  0  0  0  0  0  0  0
  1  2  1  0  0  0  0
  1 11  1  0  0  0  0
  1 24  1  1  0  0  0
  2  3  1  0  0  0  0
  2  8  1  0  0  0  0
  2 25  1  6  0  0  0
  3  4  1  0  0  0  0
  3  9  1  0  0  0  0
  3 26  1  1  0  0  0
  4 10  1  0  0  0  0
  4 27  1  6  0  0  0
  5  4  1  0  0  0  0
  5  6  1  0  0  0  0
  5 28  1  1  0  0  0
  6 12  1  0  0  0  0
  6 29  1  0  0  0  0
  6 30  1  0  0  0  0
  7  1  1  0  0  0  0
  8 31  1  0  0  0  0
  9 32  1  0  0  0  0
 10 33  1  0  0  0  0
 11  5  1  0  0  0  0
 12 34  1  0  0  0  0
 13 19  2  0  0  0  0
 13 22  1  0  0  0  0
 14 13  1  0  0  0  0
 14 20  1  0  0  0  0
 14 35  1  6  0  0  0
 15 14  1  0  0  0  0
 15 16  1  0  0  0  0
 15 21  1  0  0  0  0
 15 36  1  1  0  0  0
 16  7  1  0  0  0  0
 16 17  1  0  0  0  0
 16 37  1  6  0  0  0
 17 18  1  0  0  0  0
 17 22  1  0  0  0  0
 17 38  1  1  0  0  0
 18 23  1  0  0  0  0
 18 39  1  0  0  0  0
 18 40  1  0  0  0  0
 20 41  1  0  0  0  0
 21 42  1  0  0  0  0
 23 43  1  0  0  0  0
M  END
