1wdr_ligand
 OpenBabel08222323343D

 45 46  0  0  1  0  0  0  0  0999 V2000
    1.0040   29.0760   22.0650 C   0  0  1  0  0  0  0  0  0  0  0  0
    1.7940   27.7970   21.7070 C   0  0  1  0  0  0  0  0  0  0  0  0
    3.2030   28.1500   21.2210 C   0  0  2  0  0  0  0  0  0  0  0  0
    3.0080   28.9350   19.9050 C   0  0  1  0  0  0  0  0  0  0  0  0
    2.1880   30.2240   20.2430 C   0  0  1  0  0  0  0  0  0  0  0  0
    1.8470   31.0510   18.9930 C   0  0  0  0  0  0  0  0  0  0  0  0
    1.7330   29.8190   23.0650 O   0  0  0  0  0  0  0  0  0  0  0  0
    1.9070   26.9510   22.8950 O   0  0  0  0  0  0  0  0  0  0  0  0
    3.8700   26.9030   20.8850 O   0  0  0  0  0  0  0  0  0  0  0  0
    4.3310   29.3240   19.4950 O   0  0  0  0  0  0  0  0  0  0  0  0
    0.9210   29.8420   20.8390 O   0  0  0  0  0  0  0  0  0  0  0  0
    1.0810   30.2610   18.0500 O   0  0  0  0  0  0  0  0  0  0  0  0
    0.6910   32.7760   25.8260 C   0  0  2  0  0  0  0  0  0  0  0  0
   -0.4190   31.7790   25.4540 C   0  0  1  0  0  0  0  0  0  0  0  0
    0.2690   30.5490   24.9090 C   0  0  2  0  0  0  0  0  0  0  0  0
    1.0510   30.9620   23.6390 C   0  0  1  0  0  0  0  0  0  0  0  0
    2.1840   31.8730   24.0970 C   0  0  1  0  0  0  0  0  0  0  0  0
    3.0410   32.4590   22.9990 C   0  0  0  0  0  0  0  0  0  0  0  0
    0.1300   34.0410   26.0500 O   0  0  0  0  0  0  0  0  0  0  0  0
   -0.9520   31.4040   26.7710 O   0  0  0  0  0  0  0  0  0  0  0  0
   -0.7720   29.6300   24.5420 O   0  0  0  0  0  0  0  0  0  0  0  0
    1.5270   33.0380   24.6550 O   0  0  0  0  0  0  0  0  0  0  0  0
    2.2560   33.0900   21.9490 O   0  0  0  0  0  0  0  0  0  0  0  0
   -0.0004   28.8265   22.4376 H   0  0  0  0  0  0  0  0  0  0  0  0
    1.2609   27.2517   20.9143 H   0  0  0  0  0  0  0  0  0  0  0  0
    3.7671   28.7271   21.9685 H   0  0  0  0  0  0  0  0  0  0  0  0
    2.5042   28.3311   19.1359 H   0  0  0  0  0  0  0  0  0  0  0  0
    2.7669   30.8417   20.9454 H   0  0  0  0  0  0  0  0  0  0  0  0
    2.7799   31.3817   18.5131 H   0  0  0  0  0  0  0  0  0  0  0  0
    1.2566   31.9298   19.2913 H   0  0  0  0  0  0  0  0  0  0  0  0
    1.0380   26.7255   23.2056 H   0  0  0  0  0  0  0  0  0  0  0  0
    4.0054   26.3945   21.6759 H   0  0  0  0  0  0  0  0  0  0  0  0
    4.2726   29.8804   18.7273 H   0  0  0  0  0  0  0  0  0  0  0  0
    1.5892   29.5023   17.7879 H   0  0  0  0  0  0  0  0  0  0  0  0
    1.2720   32.4134   26.6868 H   0  0  0  0  0  0  0  0  0  0  0  0
   -1.1740   32.1894   24.7673 H   0  0  0  0  0  0  0  0  0  0  0  0
    0.9439   30.1047   25.6554 H   0  0  0  0  0  0  0  0  0  0  0  0
    0.3894   31.4493   22.9077 H   0  0  0  0  0  0  0  0  0  0  0  0
    2.8118   31.3494   24.8330 H   0  0  0  0  0  0  0  0  0  0  0  0
    3.6412   31.6523   22.5528 H   0  0  0  0  0  0  0  0  0  0  0  0
    3.7099   33.2131   23.4394 H   0  0  0  0  0  0  0  0  0  0  0  0
   -0.3651   34.3067   25.2841 H   0  0  0  0  0  0  0  0  0  0  0  0
   -1.3965   32.1503   27.1557 H   0  0  0  0  0  0  0  0  0  0  0  0
   -0.3864   28.8609   24.1393 H   0  0  0  0  0  0  0  0  0  0  0  0
    1.7386   33.7941   22.3217 H   0  0  0  0  0  0  0  0  0  0  0  0
  1  2  1  0  0  0  0
  1 11  1  0  0  0  0
  1 24  1  1  0  0  0
  2  3  1  0  0  0  0
  2  8  1  0  0  0  0
  2 25  1  6  0  0  0
  3  4  1  0  0  0  0
  3  9  1  0  0  0  0
  3 26  1  1  0  0  0
  4 10  1  0  0  0  0
  4 27  1  6  0  0  0
  5  4  1  0  0  0  0
  5  6  1  0  0  0  0
  5 28  1  1  0  0  0
  6 12  1  0  0  0  0
  6 29  1  0  0  0  0
  6 30  1  0  0  0  0
  7  1  1  0  0  0  0
  8 31  1  0  0  0  0
  9 32  1  0  0  0  0
 10 33  1  0  0  0  0
 11  5  1  0  0  0  0
 12 34  1  0  0  0  0
 13 19  1  0  0  0  0
 13 22  1  0  0  0  0
 13 35  1  1  0  0  0
 14 13  1  0  0  0  0
 14 20  1  0  0  0  0
 14 36  1  6  0  0  0
 15 14  1  0  0  0  0
 15 16  1  0  0  0  0
 15 21  1  0  0  0  0
 15 37  1  1  0  0  0
 16  7  1  0  0  0  0
 16 17  1  0  0  0  0
 16 38  1  6  0  0  0
 17 18  1  0  0  0  0
 17 22  1  0  0  0  0
 17 39  1  1  0  0  0
 18 23  1  0  0  0  0
 18 40  1  0  0  0  0
 18 41  1  0  0  0  0
 19 42  1  0  0  0  0
 20 43  1  0  0  0  0
 21 44  1  0  0  0  0
 23 45  1  0  0  0  0
M  END
