1wok_ligand
 OpenBabel08222323343D

 30 32  0  0  0  0  0  0  0  0999 V2000
   12.0690   -4.7890   46.7380 C   0  0  0  0  0  0  0  0  0  0  0  0
   10.8480   -4.1000   46.9430 C   0  0  0  0  0  0  0  0  0  0  0  0
   10.3020   -3.2880   45.9170 C   0  0  0  0  0  0  0  0  0  0  0  0
   10.9960   -3.1530   44.6310 C   0  0  0  0  0  0  0  0  0  0  0  0
   12.2440   -3.8600   44.4230 C   0  0  0  0  0  0  0  0  0  0  0  0
   12.7620   -4.6730   45.4930 C   0  0  0  0  0  0  0  0  0  0  0  0
    9.1070   -2.6100   46.1120 N   0  0  0  0  0  0  0  0  0  0  0  0
    8.5560   -1.8210   45.1440 C   0  0  0  0  0  0  0  0  0  0  0  0
    9.1960   -1.6670   43.8870 C   0  0  0  0  0  0  0  0  0  0  0  0
   10.4000   -2.3360   43.6600 N   0  0  0  0  0  0  0  0  0  0  0  0
   13.0090   -3.7840   43.1510 C   0  0  0  0  0  0  0  0  0  0  0  0
   12.9910   -2.5780   42.5520 N   0  0  0  0  0  0  0  0  0  0  0  0
   13.6160   -4.6940   42.6060 O   0  0  0  0  0  0  0  0  0  0  0  0
    8.6760   -0.8300   42.7570 C   0  0  0  0  0  0  0  0  0  0  0  0
    7.2890   -0.8570   42.4700 C   0  0  0  0  0  0  0  0  0  0  0  0
    6.7440   -0.0860   41.4130 C   0  0  0  0  0  0  0  0  0  0  0  0
    7.6130    0.7180   40.6380 C   0  0  0  0  0  0  0  0  0  0  0  0
    8.9990    0.7620   40.9040 C   0  0  0  0  0  0  0  0  0  0  0  0
    9.5220   -0.0190   41.9690 C   0  0  0  0  0  0  0  0  0  0  0  0
    6.9770    1.6500   39.3560 Cl  0  0  0  0  0  0  0  0  0  0  0  0
   12.4794   -5.4067   47.5286 H   0  0  0  0  0  0  0  0  0  0  0  0
   10.3284   -4.1942   47.8897 H   0  0  0  0  0  0  0  0  0  0  0  0
   13.6948   -5.2069   45.3517 H   0  0  0  0  0  0  0  0  0  0  0  0
    7.6211   -1.3075   45.3373 H   0  0  0  0  0  0  0  0  0  0  0  0
   13.4807   -2.4399   41.6911 H   0  0  0  0  0  0  0  0  0  0  0  0
   12.4879   -1.8205   42.9681 H   0  0  0  0  0  0  0  0  0  0  0  0
    6.6331   -1.4781   43.0692 H   0  0  0  0  0  0  0  0  0  0  0  0
    5.6810   -0.1118   41.2022 H   0  0  0  0  0  0  0  0  0  0  0  0
    9.6545    1.3829   40.3041 H   0  0  0  0  0  0  0  0  0  0  0  0
   10.5850    0.0079   42.1798 H   0  0  0  0  0  0  0  0  0  0  0  0
  1  2  2  0  0  0  0
  1  6  1  0  0  0  0
  1 21  1  0  0  0  0
  2  3  1  0  0  0  0
  2 22  1  0  0  0  0
  3  4  2  0  0  0  0
  3  7  1  0  0  0  0
  4  5  1  0  0  0  0
  4 10  1  0  0  0  0
  5  6  2  0  0  0  0
  5 11  1  0  0  0  0
  6 23  1  0  0  0  0
  7  8  2  0  0  0  0
  8  9  1  0  0  0  0
  8 24  1  0  0  0  0
  9 10  2  0  0  0  0
  9 14  1  0  0  0  0
 11 12  1  0  0  0  0
 11 13  2  0  0  0  0
 12 25  1  0  0  0  0
 12 26  1  0  0  0  0
 14 15  2  0  0  0  0
 14 19  1  0  0  0  0
 15 16  1  0  0  0  0
 15 27  1  0  0  0  0
 16 17  2  0  0  0  0
 16 28  1  0  0  0  0
 17 18  1  0  0  0  0
 17 20  1  0  0  0  0
 18 19  2  0  0  0  0
 18 29  1  0  0  0  0
 19 30  1  0  0  0  0
M  END
