1wqv_ligand
 OpenBabel08222323343D

 66 66  0  0  1  0  0  0  0  0999 V2000
   35.7210    6.8580   10.2520 C   0  0  0  0  0  0  0  0  0  0  0  0
   34.8600    7.1780   11.0710 O   0  0  0  0  0  0  0  0  0  0  0  0
   35.6850    7.1580    8.9410 N   0  0  0  0  0  0  0  0  0  0  0  0
   34.6010    7.9960    8.5170 C   0  0  1  0  0  0  0  0  0  0  0  0
   34.8210    8.5880    7.1290 C   0  0  0  0  0  0  0  0  0  0  0  0
   36.1320    9.4050    7.0500 C   0  0  0  0  0  0  0  0  0  0  0  0
   33.2660    7.2910    8.7430 C   0  0  0  0  0  0  0  0  0  0  0  0
   33.1530    6.0740    8.5970 O   0  0  0  0  0  0  0  0  0  0  0  0
   32.2980    8.1570    9.1280 N   0  0  0  0  0  0  0  0  0  0  0  0
   31.0040    7.6190    9.4260 C   0  0  0  0  0  0  0  0  0  0  0  0
   31.5870    6.4110   11.5780 C   0  0  0  0  0  0  0  0  0  0  0  0
   31.3830    6.1550   12.9350 C   0  0  0  0  0  0  0  0  0  0  0  0
   30.3810    6.8510   13.6590 C   0  0  0  0  0  0  0  0  0  0  0  0
   29.5340    7.7550   12.9600 C   0  0  0  0  0  0  0  0  0  0  0  0
   29.7170    7.9760   11.5790 C   0  0  0  0  0  0  0  0  0  0  0  0
   30.7600    7.3300   10.8880 C   0  0  0  0  0  0  0  0  0  0  0  0
   30.2370    6.6420   15.1310 C   0  0  0  0  0  3  0  0  0  0  0  0
   30.8140    5.6160   15.7290 N   0  0  0  0  0  0  0  0  0  0  0  0
   36.4010   10.5630    8.4490 S   0  0  0  0  0  0  0  0  0  0  0  0
   38.0640    6.9970   11.2430 C   0  0  2  0  0  0  0  0  0  0  0  0
   39.1720    6.2450   11.7560 O   0  0  0  0  0  0  0  0  0  0  0  0
   36.6300    5.0550   11.6950 N   0  0  0  0  0  0  0  0  0  0  0  0
   36.9700    6.0480   10.6700 C   0  0  1  0  0  0  0  0  0  0  0  0
   38.4400    8.2660   10.4070 C   0  0  0  0  0  0  0  0  0  0  0  0
   36.3490    3.4150   11.2040 S   0  0  0  0  0  0  0  0  0  0  0  0
   36.2250    2.6990   12.4130 O   0  0  0  0  0  0  0  0  0  0  0  0
   37.4440    3.1100   10.3350 O   0  0  0  0  0  0  0  0  0  0  0  0
   34.8370    3.3420   10.3280 C   0  0  0  0  0  0  0  0  0  0  0  0
   33.7030    3.3120   11.3070 C   0  0  0  0  0  0  0  0  0  0  0  0
   29.5190    7.4510   15.9080 N   0  0  0  0  0  0  0  0  0  0  0  0
   34.9610   11.6560    8.2330 C   0  0  0  0  0  0  0  0  0  0  0  0
   32.3880    3.1950   10.5600 C   0  0  0  0  0  0  0  0  0  0  0  0
   36.3730    6.8170    8.3004 H   0  0  0  0  0  0  0  0  0  0  0  0
   34.5966    8.8596    9.1983 H   0  0  0  0  0  0  0  0  0  0  0  0
   33.9756    9.2485    6.8863 H   0  0  0  0  0  0  0  0  0  0  0  0
   34.8683    7.7687    6.3966 H   0  0  0  0  0  0  0  0  0  0  0  0
   36.1150    9.9907    6.1191 H   0  0  0  0  0  0  0  0  0  0  0  0
   36.9747    8.6985    7.0234 H   0  0  0  0  0  0  0  0  0  0  0  0
   32.4803    9.1375    9.2016 H   0  0  0  0  0  0  0  0  0  0  0  0
   30.8873    6.6787    8.8672 H   0  0  0  0  0  0  0  0  0  0  0  0
   30.2468    8.3422    9.0891 H   0  0  0  0  0  0  0  0  0  0  0  0
   32.3845    5.9024   11.0486 H   0  0  0  0  0  0  0  0  0  0  0  0
   31.9960    5.4175   13.4403 H   0  0  0  0  0  0  0  0  0  0  0  0
   28.7451    8.2759   13.4905 H   0  0  0  0  0  0  0  0  0  0  0  0
   29.0515    8.6463   11.0471 H   0  0  0  0  0  0  0  0  0  0  0  0
   30.7060    5.4846   16.7449 H   0  0  0  0  0  0  0  0  0  0  0  0
   31.3722    4.9470   15.1797 H   0  0  0  0  0  0  0  0  0  0  0  0
   37.5927    7.4266   12.1392 H   0  0  0  0  0  0  0  0  0  0  0  0
   39.8262    6.8418   12.0998 H   0  0  0  0  0  0  0  0  0  0  0  0
   36.5616    5.3182   12.6573 H   0  0  0  0  0  0  0  0  0  0  0  0
   37.3678    5.5299    9.7850 H   0  0  0  0  0  0  0  0  0  0  0  0
   37.5214    8.7647   10.0643 H   0  0  0  0  0  0  0  0  0  0  0  0
   39.0413    7.9664    9.5360 H   0  0  0  0  0  0  0  0  0  0  0  0
   39.0215    8.9586   11.0332 H   0  0  0  0  0  0  0  0  0  0  0  0
   34.8134    2.4328    9.7094 H   0  0  0  0  0  0  0  0  0  0  0  0
   34.7425    4.2274    9.6822 H   0  0  0  0  0  0  0  0  0  0  0  0
   33.7062    4.2389   11.8993 H   0  0  0  0  0  0  0  0  0  0  0  0
   33.8211    2.4480   11.9775 H   0  0  0  0  0  0  0  0  0  0  0  0
   29.0443    8.2691   15.5003 H   0  0  0  0  0  0  0  0  0  0  0  0
   29.4384    7.2585   16.9166 H   0  0  0  0  0  0  0  0  0  0  0  0
   34.9688   12.4312    9.0133 H   0  0  0  0  0  0  0  0  0  0  0  0
   34.0368   11.0649    8.3127 H   0  0  0  0  0  0  0  0  0  0  0  0
   35.0074   12.1323    7.2426 H   0  0  0  0  0  0  0  0  0  0  0  0
   31.5575    3.1732   11.2809 H   0  0  0  0  0  0  0  0  0  0  0  0
   32.3839    2.2680    9.9678 H   0  0  0  0  0  0  0  0  0  0  0  0
   32.2690    4.0589    9.8896 H   0  0  0  0  0  0  0  0  0  0  0  0
  1  2  2  0  0  0  0
  1  3  1  0  0  0  0
  3  4  1  0  0  0  0
  3 33  1  0  0  0  0
  4  5  1  0  0  0  0
  4  7  1  0  0  0  0
  4 34  1  1  0  0  0
  5  6  1  0  0  0  0
  5 35  1  0  0  0  0
  5 36  1  0  0  0  0
  6 19  1  0  0  0  0
  6 37  1  0  0  0  0
  6 38  1  0  0  0  0
  7  8  2  0  0  0  0
  7  9  1  0  0  0  0
  9 10  1  0  0  0  0
  9 39  1  0  0  0  0
 10 16  1  0  0  0  0
 10 40  1  0  0  0  0
 10 41  1  0  0  0  0
 11 12  2  0  0  0  0
 11 42  1  0  0  0  0
 12 13  1  0  0  0  0
 12 43  1  0  0  0  0
 13 17  1  0  0  0  0
 14 13  2  0  0  0  0
 14 44  1  0  0  0  0
 15 14  1  0  0  0  0
 15 45  1  0  0  0  0
 16 11  1  0  0  0  0
 16 15  2  0  0  0  0
 17 18  1  0  0  0  0
 17 30  1  0  0  0  0
 18 46  1  0  0  0  0
 18 47  1  0  0  0  0
 19 31  1  0  0  0  0
 20 21  1  0  0  0  0
 20 23  1  0  0  0  0
 20 24  1  0  0  0  0
 20 48  1  1  0  0  0
 21 49  1  0  0  0  0
 22 25  1  0  0  0  0
 22 50  1  0  0  0  0
 23  1  1  0  0  0  0
 23 22  1  0  0  0  0
 23 51  1  6  0  0  0
 24 52  1  0  0  0  0
 24 53  1  0  0  0  0
 24 54  1  0  0  0  0
 25 26  2  0  0  0  0
 25 27  2  0  0  0  0
 25 28  1  0  0  0  0
 28 29  1  0  0  0  0
 28 55  1  0  0  0  0
 28 56  1  0  0  0  0
 29 32  1  0  0  0  0
 29 57  1  0  0  0  0
 29 58  1  0  0  0  0
 30 59  1  0  0  0  0
 30 60  1  0  0  0  0
 31 61  1  0  0  0  0
 31 62  1  0  0  0  0
 31 63  1  0  0  0  0
 32 64  1  0  0  0  0
 32 65  1  0  0  0  0
 32 66  1  0  0  0  0
M  END
