1wss_ligand
 OpenBabel08222323343D

 79 80  0  0  1  0  0  0  0  0999 V2000
   35.6350    6.9440    9.8530 C   0  0  0  0  0  0  0  0  0  0  0  0
   34.8950    7.3560   10.7500 O   0  0  0  0  0  0  0  0  0  0  0  0
   35.4600    7.2150    8.5260 N   0  0  0  0  0  0  0  0  0  0  0  0
   34.3770    8.1620    8.2570 C   0  0  1  0  0  0  0  0  0  0  0  0
   34.3420    8.7070    6.8330 C   0  0  0  0  0  0  0  0  0  0  0  0
   35.7170    9.1260    6.3340 C   0  0  0  0  0  0  0  0  0  0  0  0
   33.0670    7.4660    8.6220 C   0  0  0  0  0  0  0  0  0  0  0  0
   32.9150    6.2610    8.4110 O   0  0  0  0  0  0  0  0  0  0  0  0
   32.1530    8.2830    9.1740 N   0  0  0  0  0  0  0  0  0  0  0  0
   30.7850    7.8120    9.3680 C   0  0  0  0  0  0  0  0  0  0  0  0
   31.2230    6.5300   11.4540 C   0  0  0  0  0  0  0  0  0  0  0  0
   31.0710    6.3040   12.8190 C   0  0  0  0  0  0  0  0  0  0  0  0
   30.1680    7.0620   13.5950 C   0  0  0  0  0  0  0  0  0  0  0  0
   29.3760    8.0410   12.9440 C   0  0  0  0  0  0  0  0  0  0  0  0
   29.5480    8.2900   11.5610 C   0  0  0  0  0  0  0  0  0  0  0  0
   30.4880    7.5400   10.8150 C   0  0  0  0  0  0  0  0  0  0  0  0
   30.0880    6.8150   15.0720 C   0  0  0  0  0  3  0  0  0  0  0  0
   30.7370    5.7890   15.6480 N   0  0  0  0  0  0  0  0  0  0  0  0
   35.7020    9.6530    4.9350 C   0  0  0  0  0  3  0  0  0  0  0  0
   35.5980    8.8570    3.8740 N   0  0  0  0  0  0  0  0  0  0  0  0
   35.8490   10.9690    4.7870 N   0  0  0  0  0  0  0  0  0  0  0  0
   37.9540    7.0460   10.7650 C   0  0  2  0  0  0  0  0  0  0  0  0
   39.1810    6.3040   11.2910 C   0  0  0  0  0  0  0  0  0  0  0  0
   36.5420    5.0920   11.2670 N   0  0  0  0  0  0  0  0  0  0  0  0
   36.8590    6.0720   10.2120 C   0  0  1  0  0  0  0  0  0  0  0  0
   38.3460    8.1880    9.7960 C   0  0  0  0  0  0  0  0  0  0  0  0
   35.6830    3.6380   10.8750 S   0  0  0  0  0  0  0  0  0  0  0  0
   35.8400    2.8040   12.0080 O   0  0  0  0  0  0  0  0  0  0  0  0
   36.2380    3.2460    9.6320 O   0  0  0  0  0  0  0  0  0  0  0  0
   33.9860    4.0530   10.6240 C   0  0  0  0  0  0  0  0  0  0  0  0
   39.8250    5.4620   10.1910 C   0  0  0  0  0  0  0  0  0  0  0  0
   33.1190    2.9000   10.2910 C   0  0  0  0  0  0  0  0  0  0  0  0
   33.1420    2.3650    8.9960 C   0  0  0  0  0  0  0  0  0  0  0  0
   32.3720    1.2360    8.6800 C   0  0  0  0  0  0  0  0  0  0  0  0
   31.5960    0.6220    9.6860 C   0  0  0  0  0  0  0  0  0  0  0  0
   31.5630    1.1520   10.9870 C   0  0  0  0  0  0  0  0  0  0  0  0
   32.3150    2.3060   11.2810 C   0  0  0  0  0  0  0  0  0  0  0  0
   29.3430    7.5940   15.8580 N   0  0  0  0  0  0  0  0  0  0  0  0
   32.3730    0.7070    7.3180 C   0  0  0  0  0  0  0  0  0  0  0  0
   31.7120   -0.3020    7.0750 O   0  5  0  0  0  0  0  0  0  0  0  0
   33.0290    1.2970    6.4610 O   0  0  0  0  0  0  0  0  0  0  0  0
   36.0194    6.8049    7.8057 H   0  0  0  0  0  0  0  0  0  0  0  0
   34.5111    9.0242    8.9268 H   0  0  0  0  0  0  0  0  0  0  0  0
   33.6758    9.5819    6.8067 H   0  0  0  0  0  0  0  0  0  0  0  0
   33.9480    7.9259    6.1662 H   0  0  0  0  0  0  0  0  0  0  0  0
   36.3834    8.2516    6.3707 H   0  0  0  0  0  0  0  0  0  0  0  0
   36.1056    9.9114    6.9989 H   0  0  0  0  0  0  0  0  0  0  0  0
   32.4092    9.2093    9.4505 H   0  0  0  0  0  0  0  0  0  0  0  0
   30.6435    6.8837    8.7951 H   0  0  0  0  0  0  0  0  0  0  0  0
   30.0886    8.5798    9.0000 H   0  0  0  0  0  0  0  0  0  0  0  0
   31.9136    5.9219   10.8810 H   0  0  0  0  0  0  0  0  0  0  0  0
   31.6591    5.5287   13.2966 H   0  0  0  0  0  0  0  0  0  0  0  0
   28.6370    8.6002   13.5064 H   0  0  0  0  0  0  0  0  0  0  0  0
   28.9582    9.0570   11.0723 H   0  0  0  0  0  0  0  0  0  0  0  0
   30.6662    5.6405   16.6648 H   0  0  0  0  0  0  0  0  0  0  0  0
   31.3053    5.1510   15.0727 H   0  0  0  0  0  0  0  0  0  0  0  0
   35.5914    9.2603    2.9263 H   0  0  0  0  0  0  0  0  0  0  0  0
   35.5241    7.8375    4.0003 H   0  0  0  0  0  0  0  0  0  0  0  0
   35.8461   11.3848    3.8447 H   0  0  0  0  0  0  0  0  0  0  0  0
   35.9656   11.5705    5.6149 H   0  0  0  0  0  0  0  0  0  0  0  0
   37.4982    7.5385   11.6366 H   0  0  0  0  0  0  0  0  0  0  0  0
   38.8759    5.6444   12.1167 H   0  0  0  0  0  0  0  0  0  0  0  0
   39.9143    7.0368   11.6588 H   0  0  0  0  0  0  0  0  0  0  0  0
   36.8231    5.2664   12.2107 H   0  0  0  0  0  0  0  0  0  0  0  0
   37.2219    5.5469    9.3161 H   0  0  0  0  0  0  0  0  0  0  0  0
   39.1159    8.8185   10.2647 H   0  0  0  0  0  0  0  0  0  0  0  0
   37.4591    8.7986    9.5710 H   0  0  0  0  0  0  0  0  0  0  0  0
   38.7416    7.7584    8.8638 H   0  0  0  0  0  0  0  0  0  0  0  0
   33.9271    4.7778    9.7986 H   0  0  0  0  0  0  0  0  0  0  0  0
   33.6045    4.5156   11.5462 H   0  0  0  0  0  0  0  0  0  0  0  0
   40.7042    4.9397   10.5963 H   0  0  0  0  0  0  0  0  0  0  0  0
   40.1365    6.1162    9.3634 H   0  0  0  0  0  0  0  0  0  0  0  0
   39.0982    4.7238    9.8213 H   0  0  0  0  0  0  0  0  0  0  0  0
   33.7589    2.8267    8.2335 H   0  0  0  0  0  0  0  0  0  0  0  0
   31.0202   -0.2664    9.4531 H   0  0  0  0  0  0  0  0  0  0  0  0
   30.9649    0.6775   11.7565 H   0  0  0  0  0  0  0  0  0  0  0  0
   32.2741    2.7383   12.2742 H   0  0  0  0  0  0  0  0  0  0  0  0
   28.8296    8.3910   15.4555 H   0  0  0  0  0  0  0  0  0  0  0  0
   29.2812    7.3984   16.8674 H   0  0  0  0  0  0  0  0  0  0  0  0
  1  2  2  0  0  0  0
  1  3  1  0  0  0  0
  3  4  1  0  0  0  0
  3 42  1  0  0  0  0
  4  5  1  0  0  0  0
  4  7  1  0  0  0  0
  4 43  1  1  0  0  0
  5  6  1  0  0  0  0
  5 44  1  0  0  0  0
  5 45  1  0  0  0  0
  6 19  1  0  0  0  0
  6 46  1  0  0  0  0
  6 47  1  0  0  0  0
  7  8  2  0  0  0  0
  7  9  1  0  0  0  0
  9 10  1  0  0  0  0
  9 48  1  0  0  0  0
 10 16  1  0  0  0  0
 10 49  1  0  0  0  0
 10 50  1  0  0  0  0
 11 12  2  0  0  0  0
 11 51  1  0  0  0  0
 12 13  1  0  0  0  0
 12 52  1  0  0  0  0
 13 17  1  0  0  0  0
 14 13  2  0  0  0  0
 14 53  1  0  0  0  0
 15 14  1  0  0  0  0
 15 54  1  0  0  0  0
 16 11  1  0  0  0  0
 16 15  2  0  0  0  0
 17 18  1  0  0  0  0
 17 38  1  0  0  0  0
 18 55  1  0  0  0  0
 18 56  1  0  0  0  0
 19 20  1  0  0  0  0
 19 21  1  0  0  0  0
 20 57  1  0  0  0  0
 20 58  1  0  0  0  0
 21 59  1  0  0  0  0
 21 60  1  0  0  0  0
 22 23  1  0  0  0  0
 22 25  1  0  0  0  0
 22 26  1  0  0  0  0
 22 61  1  1  0  0  0
 23 31  1  0  0  0  0
 23 62  1  0  0  0  0
 23 63  1  0  0  0  0
 24 27  1  0  0  0  0
 24 64  1  0  0  0  0
 25  1  1  0  0  0  0
 25 24  1  0  0  0  0
 25 65  1  6  0  0  0
 26 66  1  0  0  0  0
 26 67  1  0  0  0  0
 26 68  1  0  0  0  0
 27 28  2  0  0  0  0
 27 29  2  0  0  0  0
 27 30  1  0  0  0  0
 30 32  1  0  0  0  0
 30 69  1  0  0  0  0
 30 70  1  0  0  0  0
 31 71  1  0  0  0  0
 31 72  1  0  0  0  0
 31 73  1  0  0  0  0
 32 33  2  0  0  0  0
 32 37  1  0  0  0  0
 33 34  1  0  0  0  0
 33 74  1  0  0  0  0
 34 35  2  0  0  0  0
 34 39  1  0  0  0  0
 35 36  1  0  0  0  0
 35 75  1  0  0  0  0
 36 37  2  0  0  0  0
 36 76  1  0  0  0  0
 37 77  1  0  0  0  0
 38 78  1  0  0  0  0
 38 79  1  0  0  0  0
 39 40  1  0  0  0  0
 39 41  2  0  0  0  0
M  CHG  1  40  -1
M  END
