1wtg_ligand
 OpenBabel08222323343D

 79 81  0  0  1  0  0  0  0  0999 V2000
   35.7990    7.0160   10.2910 C   0  0  0  0  0  0  0  0  0  0  0  0
   34.8940    7.2350   11.0940 O   0  0  0  0  0  0  0  0  0  0  0  0
   35.8450    7.4860    9.0220 N   0  0  0  0  0  0  0  0  0  0  0  0
   34.7430    8.2670    8.5040 C   0  0  1  0  0  0  0  0  0  0  0  0
   34.8870    8.5250    7.0170 C   0  0  0  0  0  0  0  0  0  0  0  0
   36.1800    9.2600    6.6340 C   0  0  0  0  0  0  0  0  0  0  0  0
   33.4260    7.5020    8.7810 C   0  0  0  0  0  0  0  0  0  0  0  0
   33.3140    6.2890    8.6010 O   0  0  0  0  0  0  0  0  0  0  0  0
   32.4510    8.2970    9.2420 N   0  0  0  0  0  0  0  0  0  0  0  0
   31.1870    7.6600    9.4950 C   0  0  0  0  0  0  0  0  0  0  0  0
   31.7910    6.5070   11.6580 C   0  0  0  0  0  0  0  0  0  0  0  0
   31.5360    6.2620   13.0220 C   0  0  0  0  0  0  0  0  0  0  0  0
   30.4890    6.9410   13.6950 C   0  0  0  0  0  0  0  0  0  0  0  0
   29.6560    7.7930   12.9620 C   0  0  0  0  0  0  0  0  0  0  0  0
   29.8920    8.0170   11.6050 C   0  0  0  0  0  0  0  0  0  0  0  0
   30.9620    7.3840   10.9480 C   0  0  0  0  0  0  0  0  0  0  0  0
   30.2710    6.7680   15.1330 C   0  0  0  0  0  3  0  0  0  0  0  0
   30.8220    5.7580   15.7920 N   0  0  0  0  0  0  0  0  0  0  0  0
   36.0630    9.5590    5.1570 C   0  0  0  0  0  0  0  0  0  0  0  0
   35.8960    8.6690    4.3290 O   0  0  0  0  0  0  0  0  0  0  0  0
   36.0580   10.8540    4.8820 N   0  0  0  0  0  0  0  0  0  0  0  0
   38.0010    7.0940   11.3860 C   0  0  0  0  0  0  0  0  0  0  0  0
   36.5400    5.0990   11.5910 N   0  0  0  0  0  0  0  0  0  0  0  0
   37.0110    6.1530   10.7090 C   0  0  1  0  0  0  0  0  0  0  0  0
   36.3720    3.5130   10.9500 S   0  0  0  0  0  0  0  0  0  0  0  0
   35.7390    3.7160    9.6870 O   0  0  0  0  0  0  0  0  0  0  0  0
   35.7030    2.8060   11.9870 O   0  0  0  0  0  0  0  0  0  0  0  0
   37.9810    2.8520   10.7010 C   0  0  0  0  0  0  0  0  0  0  0  0
   38.5800    2.5600   12.0900 C   0  0  0  0  0  0  0  0  0  0  0  0
   29.4980    7.5940   15.8220 N   0  0  0  0  0  0  0  0  0  0  0  0
   40.2550    5.9640   11.1010 C   0  0  0  0  0  0  0  0  0  0  0  0
   39.1800    6.3580   11.9300 C   0  0  0  0  0  0  0  0  0  0  0  0
   39.2760    6.0170   13.2960 C   0  0  0  0  0  0  0  0  0  0  0  0
   40.3770    5.2820   13.7960 C   0  0  0  0  0  0  0  0  0  0  0  0
   41.4320    4.8550   12.9650 C   0  0  0  0  0  0  0  0  0  0  0  0
   41.3500    5.2350   11.6160 C   0  0  0  0  0  0  0  0  0  0  0  0
   44.9690    3.6190   13.7640 C   0  0  0  0  0  0  0  0  0  0  0  0
   43.8860    4.2960   13.1440 C   0  0  0  0  0  0  0  0  0  0  0  0
   42.5510    4.0440   13.4990 C   0  0  0  0  0  0  0  0  0  0  0  0
   42.3410    3.0250   14.4510 C   0  0  0  0  0  0  0  0  0  0  0  0
   43.4150    2.3380   15.0700 C   0  0  0  0  0  0  0  0  0  0  0  0
   44.7530    2.6470   14.7600 C   0  0  0  0  0  0  0  0  0  0  0  0
   36.6385    7.2938    8.4445 H   0  0  0  0  0  0  0  0  0  0  0  0
   34.7165    9.2346    9.0265 H   0  0  0  0  0  0  0  0  0  0  0  0
   34.0322    9.1336    6.6869 H   0  0  0  0  0  0  0  0  0  0  0  0
   34.8714    7.5571    6.4947 H   0  0  0  0  0  0  0  0  0  0  0  0
   37.0548    8.6218    6.8272 H   0  0  0  0  0  0  0  0  0  0  0  0
   36.2737   10.1940    7.2074 H   0  0  0  0  0  0  0  0  0  0  0  0
   32.5937    9.2740    9.4005 H   0  0  0  0  0  0  0  0  0  0  0  0
   31.1569    6.7069    8.9467 H   0  0  0  0  0  0  0  0  0  0  0  0
   30.3827    8.3171    9.1327 H   0  0  0  0  0  0  0  0  0  0  0  0
   32.6229    6.0201   11.1620 H   0  0  0  0  0  0  0  0  0  0  0  0
   32.1464    5.5473   13.5621 H   0  0  0  0  0  0  0  0  0  0  0  0
   28.8217    8.2824   13.4514 H   0  0  0  0  0  0  0  0  0  0  0  0
   29.2434    8.6862   11.0514 H   0  0  0  0  0  0  0  0  0  0  0  0
   30.6577    5.6521   16.8033 H   0  0  0  0  0  0  0  0  0  0  0  0
   31.4144    5.0793   15.2927 H   0  0  0  0  0  0  0  0  0  0  0  0
   35.9845   11.1635    3.9340 H   0  0  0  0  0  0  0  0  0  0  0  0
   36.1277   11.5226    5.6223 H   0  0  0  0  0  0  0  0  0  0  0  0
   37.4922    7.6121   12.2122 H   0  0  0  0  0  0  0  0  0  0  0  0
   38.3508    7.8328   10.6499 H   0  0  0  0  0  0  0  0  0  0  0  0
   36.3191    5.2914   12.5471 H   0  0  0  0  0  0  0  0  0  0  0  0
   37.4821    5.6992    9.8246 H   0  0  0  0  0  0  0  0  0  0  0  0
   38.6083    3.5809   10.1669 H   0  0  0  0  0  0  0  0  0  0  0  0
   37.9192    1.9228   10.1155 H   0  0  0  0  0  0  0  0  0  0  0  0
   39.5913    2.1433   11.9729 H   0  0  0  0  0  0  0  0  0  0  0  0
   37.9437    1.8350   12.6187 H   0  0  0  0  0  0  0  0  0  0  0  0
   38.6328    3.4931   12.6701 H   0  0  0  0  0  0  0  0  0  0  0  0
   29.0492    8.3926   15.3511 H   0  0  0  0  0  0  0  0  0  0  0  0
   29.3458    7.4377   16.8286 H   0  0  0  0  0  0  0  0  0  0  0  0
   40.2388    6.2264   10.0494 H   0  0  0  0  0  0  0  0  0  0  0  0
   38.4901    6.3245   13.9763 H   0  0  0  0  0  0  0  0  0  0  0  0
   40.4099    5.0397   14.8521 H   0  0  0  0  0  0  0  0  0  0  0  0
   42.1558    4.9591   10.9455 H   0  0  0  0  0  0  0  0  0  0  0  0
   45.9836    3.8552   13.4644 H   0  0  0  0  0  0  0  0  0  0  0  0
   44.0959    5.0292   12.3737 H   0  0  0  0  0  0  0  0  0  0  0  0
   41.3248    2.7584   14.7181 H   0  0  0  0  0  0  0  0  0  0  0  0
   43.2024    1.5607   15.7951 H   0  0  0  0  0  0  0  0  0  0  0  0
   45.5791    2.1592   15.2647 H   0  0  0  0  0  0  0  0  0  0  0  0
  1  2  2  0  0  0  0
  1  3  1  0  0  0  0
  3  4  1  0  0  0  0
  3 43  1  0  0  0  0
  4  5  1  0  0  0  0
  4  7  1  0  0  0  0
  4 44  1  1  0  0  0
  5  6  1  0  0  0  0
  5 45  1  0  0  0  0
  5 46  1  0  0  0  0
  6 19  1  0  0  0  0
  6 47  1  0  0  0  0
  6 48  1  0  0  0  0
  7  8  2  0  0  0  0
  7  9  1  0  0  0  0
  9 10  1  0  0  0  0
  9 49  1  0  0  0  0
 10 16  1  0  0  0  0
 10 50  1  0  0  0  0
 10 51  1  0  0  0  0
 11 12  2  0  0  0  0
 11 52  1  0  0  0  0
 12 13  1  0  0  0  0
 12 53  1  0  0  0  0
 13 17  1  0  0  0  0
 14 13  2  0  0  0  0
 14 54  1  0  0  0  0
 15 14  1  0  0  0  0
 15 55  1  0  0  0  0
 16 11  1  0  0  0  0
 16 15  2  0  0  0  0
 17 18  1  0  0  0  0
 17 30  1  0  0  0  0
 18 56  1  0  0  0  0
 18 57  1  0  0  0  0
 19 20  2  0  0  0  0
 19 21  1  0  0  0  0
 21 58  1  0  0  0  0
 21 59  1  0  0  0  0
 22 24  1  0  0  0  0
 22 60  1  0  0  0  0
 22 61  1  0  0  0  0
 23 25  1  0  0  0  0
 23 62  1  0  0  0  0
 24  1  1  0  0  0  0
 24 23  1  0  0  0  0
 24 63  1  6  0  0  0
 25 26  2  0  0  0  0
 25 27  2  0  0  0  0
 25 28  1  0  0  0  0
 28 29  1  0  0  0  0
 28 64  1  0  0  0  0
 28 65  1  0  0  0  0
 29 66  1  0  0  0  0
 29 67  1  0  0  0  0
 29 68  1  0  0  0  0
 30 69  1  0  0  0  0
 30 70  1  0  0  0  0
 31 32  2  0  0  0  0
 31 71  1  0  0  0  0
 32 22  1  0  0  0  0
 33 32  1  0  0  0  0
 33 72  1  0  0  0  0
 34 33  2  0  0  0  0
 34 73  1  0  0  0  0
 35 34  1  0  0  0  0
 35 36  2  0  0  0  0
 36 31  1  0  0  0  0
 36 74  1  0  0  0  0
 37 42  1  0  0  0  0
 37 75  1  0  0  0  0
 38 37  2  0  0  0  0
 38 39  1  0  0  0  0
 38 76  1  0  0  0  0
 39 35  1  0  0  0  0
 39 40  2  0  0  0  0
 40 41  1  0  0  0  0
 40 77  1  0  0  0  0
 41 42  2  0  0  0  0
 41 78  1  0  0  0  0
 42 79  1  0  0  0  0
M  END
