1wva_ligand
 OpenBabel08222323343D

 26 25  0  0  1  0  0  0  0  0999 V2000
   23.4010   13.7150   -6.3660 O   0  5  0  0  0  0  0  0  0  0  0  0
   22.5730   11.5070   -3.5050 N   0  3  0  0  0  0  0  0  0  0  0  0
   22.4030   12.0810   -4.8680 C   0  0  2  0  0  0  0  0  0  0  0  0
   23.4980   13.1820   -5.1440 C   0  0  0  0  0  0  0  0  0  0  0  0
   24.3580   13.5380   -4.3760 O   0  0  0  0  0  0  0  0  0  0  0  0
   20.9530   12.5710   -4.8350 C   0  0  0  0  0  0  0  0  0  0  0  0
   20.4570   13.3760   -6.3520 S   0  0  0  0  0  0  0  0  0  0  0  0
   18.7770   13.7350   -5.8610 C   0  0  0  0  0  0  0  0  0  0  0  0
   18.6130   15.2220   -5.5710 C   0  0  0  0  0  0  0  0  0  0  0  0
   17.1830   15.6360   -5.1390 B   0  0  0  0  0  0  0  0  0  0  0  0
   16.7690   15.0130   -3.9140 O   0  0  0  0  0  0  0  0  0  0  0  0
   17.1090   17.0480   -4.9300 O   0  0  0  0  0  0  0  0  0  0  0  0
   16.1950   15.3090   -6.1570 O   0  0  0  0  0  0  0  0  0  0  0  0
   21.8664   10.8061   -3.3451 H   0  0  0  0  0  0  0  0  0  0  0  0
   22.4815   12.2392   -2.8182 H   0  0  0  0  0  0  0  0  0  0  0  0
   23.4861   11.0870   -3.4288 H   0  0  0  0  0  0  0  0  0  0  0  0
   22.5088   11.2989   -5.6342 H   0  0  0  0  0  0  0  0  0  0  0  0
   20.8426   13.2856   -4.0060 H   0  0  0  0  0  0  0  0  0  0  0  0
   20.2941   11.7068   -4.6645 H   0  0  0  0  0  0  0  0  0  0  0  0
   18.5338   13.1604   -4.9551 H   0  0  0  0  0  0  0  0  0  0  0  0
   18.0929   13.4468   -6.6728 H   0  0  0  0  0  0  0  0  0  0  0  0
   18.8725   15.7810   -6.4822 H   0  0  0  0  0  0  0  0  0  0  0  0
   19.3086   15.4939   -4.7634 H   0  0  0  0  0  0  0  0  0  0  0  0
   17.3497   15.2813   -3.2116 H   0  0  0  0  0  0  0  0  0  0  0  0
   17.6856   17.2919   -4.2155 H   0  0  0  0  0  0  0  0  0  0  0  0
   16.4458   15.7104   -6.9806 H   0  0  0  0  0  0  0  0  0  0  0  0
  2 14  1  0  0  0  0
  2 15  1  0  0  0  0
  2 16  1  0  0  0  0
  3  2  1  0  0  0  0
  3  4  1  0  0  0  0
  3  6  1  0  0  0  0
  3 17  1  6  0  0  0
  4  1  1  0  0  0  0
  4  5  2  0  0  0  0
  6  7  1  0  0  0  0
  6 18  1  0  0  0  0
  6 19  1  0  0  0  0
  7  8  1  0  0  0  0
  8  9  1  0  0  0  0
  8 20  1  0  0  0  0
  8 21  1  0  0  0  0
  9 10  1  0  0  0  0
  9 22  1  0  0  0  0
  9 23  1  0  0  0  0
 10 11  1  0  0  0  0
 10 12  1  0  0  0  0
 10 13  1  0  0  0  0
 11 24  1  0  0  0  0
 12 25  1  0  0  0  0
 13 26  1  0  0  0  0
M  CHG  2   1  -1   2   1
M  END
