1x0n_ligand
 OpenBabel08222323343D

 92 96  0  0  1  0  0  0  0  0999 V2000
   20.3270  -10.7830   -8.4540 C   0  0  0  0  0  0  0  0  0  0  0  0
   21.1480   -9.6480   -8.3740 C   0  0  0  0  0  0  0  0  0  0  0  0
   21.8310   -9.3390   -7.2050 C   0  0  0  0  0  0  0  0  0  0  0  0
   21.7360  -10.1730   -6.0990 C   0  0  0  0  0  0  0  0  0  0  0  0
   20.9400  -11.3100   -6.1350 C   0  0  0  0  0  0  0  0  0  0  0  0
   20.2170  -11.6260   -7.2890 C   0  0  0  0  0  0  0  0  0  0  0  0
   19.3920  -12.7460   -7.3230 C   0  0  0  0  0  0  0  0  0  0  0  0
   18.6920  -13.0680   -8.4770 C   0  0  0  0  0  0  0  0  0  0  0  0
   18.8020  -12.2770   -9.6130 C   0  0  0  0  0  0  0  0  0  0  0  0
   19.6040  -11.1300   -9.6230 C   0  0  0  0  0  0  0  0  0  0  0  0
   19.6930  -10.3540  -10.9680 C   0  0  0  0  0  0  0  0  0  0  0  0
   19.0930   -8.9040  -10.9630 C   0  0  2  0  0  0  0  0  0  0  0  0
   17.5830   -8.9700  -11.3410 C   0  0  0  0  0  0  0  0  0  0  0  0
   16.8340   -7.6620  -11.5150 C   0  0  0  0  0  0  0  0  0  0  0  0
   15.8970   -7.4800  -12.4530 C   0  0  0  0  0  0  0  0  0  0  0  0
   20.0230   -7.9340  -11.7690 C   0  0  0  0  0  0  0  0  0  0  0  0
   19.7950   -6.4800  -11.5650 N   0  0  0  0  0  0  0  0  0  0  0  0
   19.9520   -5.8460  -10.3810 C   0  0  0  0  0  0  0  0  0  0  0  0
   20.4060   -6.4330   -9.3950 O   0  0  0  0  0  0  0  0  0  0  0  0
   19.5830   -4.3150  -10.2710 C   0  0  2  0  0  0  0  0  0  0  0  0
   19.1510   -3.8090   -8.8630 C   0  0  0  0  0  0  0  0  0  0  0  0
   17.9990   -4.5400   -8.1590 C   0  0  0  0  0  0  0  0  0  0  0  0
   16.8240   -4.3060   -8.4130 O   0  0  0  0  0  0  0  0  0  0  0  0
   18.2950   -5.4240   -7.2440 N   0  0  0  0  0  0  0  0  0  0  0  0
   18.5380   -3.8080  -11.2130 N   0  0  0  0  0  0  0  0  0  0  0  0
   18.7720   -2.8870  -12.1670 C   0  0  0  0  0  0  0  0  0  0  0  0
   19.9060   -2.4130  -12.2970 O   0  0  0  0  0  0  0  0  0  0  0  0
   17.5550   -2.3690  -13.0720 C   0  0  0  0  0  0  0  0  0  0  0  0
   18.0840   -1.7780  -14.4330 C   0  0  0  0  0  0  0  0  0  0  0  0
   17.1090   -0.8940  -15.2600 C   0  0  0  0  0  0  0  0  0  0  0  0
   16.3750    0.1660  -14.4040 C   0  0  0  0  0  0  0  0  0  0  0  0
   15.7830   -0.3890  -13.0900 C   0  0  0  0  0  0  0  0  0  0  0  0
   16.8380   -1.2070  -12.2890 C   0  0  0  0  0  0  0  0  0  0  0  0
   16.4490   -3.3570  -13.3220 N   0  0  0  0  0  0  0  0  0  0  0  0
   16.6020   -4.5860  -13.8140 C   0  0  0  0  0  0  0  0  0  0  0  0
   17.6800   -5.0500  -14.1780 O   0  0  0  0  0  0  0  0  0  0  0  0
   15.3160   -5.4140  -13.8580 C   0  0  0  0  0  0  0  0  0  0  0  0
   15.0110   -6.2400  -12.5710 C   0  0  1  0  0  0  0  0  0  0  0  0
   13.5180   -6.6650  -12.4720 C   0  0  0  0  0  0  0  0  0  0  0  0
   12.7800   -6.3450  -11.3230 C   0  0  0  0  0  0  0  0  0  0  0  0
   11.4570   -6.7620  -11.1920 C   0  0  0  0  0  0  0  0  0  0  0  0
   12.8850   -7.3810  -13.5020 C   0  0  0  0  0  0  0  0  0  0  0  0
   11.5660   -7.7970  -13.3700 C   0  0  0  0  0  0  0  0  0  0  0  0
   10.8520   -7.5050  -12.2070 C   0  0  0  0  0  0  0  0  0  0  0  0
    9.4310   -8.0440  -12.0290 C   0  0  0  0  0  0  0  0  0  0  0  0
    8.4080   -7.8840  -13.4290 P   0  0  0  0  0  0  0  0  0  0  0  0
    8.9080   -8.8090  -14.5570 O   0  0  0  0  0  1  0  0  0  0  0  0
    8.3710   -6.4360  -13.9700 O   0  0  0  0  0  1  0  0  0  0  0  0
    6.9240   -8.3120  -13.0460 O   0  0  0  0  0  0  0  0  0  0  0  0
   21.2508   -9.0020   -9.2384 H   0  0  0  0  0  0  0  0  0  0  0  0
   22.4403   -8.4438   -7.1558 H   0  0  0  0  0  0  0  0  0  0  0  0
   22.2891   -9.9339   -5.1979 H   0  0  0  0  0  0  0  0  0  0  0  0
   20.8790  -11.9546   -5.2656 H   0  0  0  0  0  0  0  0  0  0  0  0
   19.2955  -13.3709   -6.4425 H   0  0  0  0  0  0  0  0  0  0  0  0
   18.0540  -13.9443   -8.4918 H   0  0  0  0  0  0  0  0  0  0  0  0
   18.2568  -12.5529  -10.5084 H   0  0  0  0  0  0  0  0  0  0  0  0
   19.1567  -10.9381  -11.7304 H   0  0  0  0  0  0  0  0  0  0  0  0
   20.7551  -10.2784  -11.2440 H   0  0  0  0  0  0  0  0  0  0  0  0
   19.1222   -8.5422   -9.9246 H   0  0  0  0  0  0  0  0  0  0  0  0
   17.0720   -9.5365  -10.5486 H   0  0  0  0  0  0  0  0  0  0  0  0
   17.5074   -9.5189  -12.2912 H   0  0  0  0  0  0  0  0  0  0  0  0
   17.0693   -6.8347  -10.8470 H   0  0  0  0  0  0  0  0  0  0  0  0
   15.7554   -8.2732  -13.1857 H   0  0  0  0  0  0  0  0  0  0  0  0
   19.8831   -8.1479  -12.8389 H   0  0  0  0  0  0  0  0  0  0  0  0
   21.0626   -8.1531  -11.4841 H   0  0  0  0  0  0  0  0  0  0  0  0
   19.5073   -5.9359  -12.3531 H   0  0  0  0  0  0  0  0  0  0  0  0
   20.5151   -3.7881  -10.5231 H   0  0  0  0  0  0  0  0  0  0  0  0
   18.8532   -2.7556   -8.9707 H   0  0  0  0  0  0  0  0  0  0  0  0
   20.0311   -3.8760   -8.2066 H   0  0  0  0  0  0  0  0  0  0  0  0
   17.5651   -5.9155   -6.7690 H   0  0  0  0  0  0  0  0  0  0  0  0
   19.2515   -5.6092   -7.0186 H   0  0  0  0  0  0  0  0  0  0  0  0
   17.6113   -4.1744  -11.1295 H   0  0  0  0  0  0  0  0  0  0  0  0
   18.3783   -2.6265  -15.0682 H   0  0  0  0  0  0  0  0  0  0  0  0
   18.9694   -1.1666  -14.2045 H   0  0  0  0  0  0  0  0  0  0  0  0
   16.3577   -1.5462  -15.7292 H   0  0  0  0  0  0  0  0  0  0  0  0
   17.6839   -0.3756  -16.0415 H   0  0  0  0  0  0  0  0  0  0  0  0
   15.5538    0.5864  -15.0031 H   0  0  0  0  0  0  0  0  0  0  0  0
   17.0902    0.9628  -14.1519 H   0  0  0  0  0  0  0  0  0  0  0  0
   14.9312   -1.0424  -13.3297 H   0  0  0  0  0  0  0  0  0  0  0  0
   15.4374    0.4517  -12.4706 H   0  0  0  0  0  0  0  0  0  0  0  0
   17.6129   -0.5074  -11.9425 H   0  0  0  0  0  0  0  0  0  0  0  0
   16.3298   -1.6510  -11.4203 H   0  0  0  0  0  0  0  0  0  0  0  0
   15.5183   -3.0666  -13.0998 H   0  0  0  0  0  0  0  0  0  0  0  0
   15.3921   -6.1155  -14.7019 H   0  0  0  0  0  0  0  0  0  0  0  0
   14.4745   -4.7262  -14.0277 H   0  0  0  0  0  0  0  0  0  0  0  0
   15.2299   -5.5896  -11.7113 H   0  0  0  0  0  0  0  0  0  0  0  0
   13.2428   -5.7684  -10.5303 H   0  0  0  0  0  0  0  0  0  0  0  0
   10.8962   -6.5088  -10.2996 H   0  0  0  0  0  0  0  0  0  0  0  0
   13.4316   -7.6113  -14.4093 H   0  0  0  0  0  0  0  0  0  0  0  0
   11.0904   -8.3496  -14.1722 H   0  0  0  0  0  0  0  0  0  0  0  0
    8.9602   -7.4994  -11.1973 H   0  0  0  0  0  0  0  0  0  0  0  0
    9.4995   -9.1122  -11.7757 H   0  0  0  0  0  0  0  0  0  0  0  0
  1  2  2  0  0  0  0
  1  6  1  0  0  0  0
  1 10  1  0  0  0  0
  2  3  1  0  0  0  0
  2 50  1  0  0  0  0
  3  4  2  0  0  0  0
  3 51  1  0  0  0  0
  4  5  1  0  0  0  0
  4 52  1  0  0  0  0
  5  6  2  0  0  0  0
  5 53  1  0  0  0  0
  6  7  1  0  0  0  0
  7  8  2  0  0  0  0
  7 54  1  0  0  0  0
  8  9  1  0  0  0  0
  8 55  1  0  0  0  0
  9 10  2  0  0  0  0
  9 56  1  0  0  0  0
 10 11  1  0  0  0  0
 11 12  1  0  0  0  0
 11 57  1  0  0  0  0
 11 58  1  0  0  0  0
 12 13  1  0  0  0  0
 12 16  1  0  0  0  0
 12 59  1  1  0  0  0
 13 14  1  0  0  0  0
 13 60  1  0  0  0  0
 13 61  1  0  0  0  0
 14 15  2  0  0  0  0
 14 62  1  0  0  0  0
 15 38  1  0  0  0  0
 15 63  1  0  0  0  0
 16 17  1  0  0  0  0
 16 64  1  0  0  0  0
 16 65  1  0  0  0  0
 17 18  1  0  0  0  0
 17 66  1  0  0  0  0
 18 19  2  0  0  0  0
 18 20  1  0  0  0  0
 20 21  1  0  0  0  0
 20 25  1  0  0  0  0
 20 67  1  6  0  0  0
 21 22  1  0  0  0  0
 21 68  1  0  0  0  0
 21 69  1  0  0  0  0
 22 23  2  0  0  0  0
 22 24  1  0  0  0  0
 24 70  1  0  0  0  0
 24 71  1  0  0  0  0
 25 26  1  0  0  0  0
 25 72  1  0  0  0  0
 26 27  2  0  0  0  0
 26 28  1  0  0  0  0
 28 29  1  0  0  0  0
 28 33  1  0  0  0  0
 28 34  1  0  0  0  0
 29 30  1  0  0  0  0
 29 73  1  0  0  0  0
 29 74  1  0  0  0  0
 30 31  1  0  0  0  0
 30 75  1  0  0  0  0
 30 76  1  0  0  0  0
 31 32  1  0  0  0  0
 31 77  1  0  0  0  0
 31 78  1  0  0  0  0
 32 33  1  0  0  0  0
 32 79  1  0  0  0  0
 32 80  1  0  0  0  0
 33 81  1  0  0  0  0
 33 82  1  0  0  0  0
 34 35  1  0  0  0  0
 34 83  1  0  0  0  0
 35 36  2  0  0  0  0
 35 37  1  0  0  0  0
 37 38  1  0  0  0  0
 37 84  1  0  0  0  0
 37 85  1  0  0  0  0
 38 39  1  0  0  0  0
 38 86  1  1  0  0  0
 39 40  2  0  0  0  0
 39 42  1  0  0  0  0
 40 41  1  0  0  0  0
 40 87  1  0  0  0  0
 41 44  2  0  0  0  0
 41 88  1  0  0  0  0
 42 43  2  0  0  0  0
 42 89  1  0  0  0  0
 43 44  1  0  0  0  0
 43 90  1  0  0  0  0
 44 45  1  0  0  0  0
 45 46  1  0  0  0  0
 45 91  1  0  0  0  0
 45 92  1  0  0  0  0
 46 47  1  0  0  0  0
 46 48  1  0  0  0  0
 46 49  2  0  0  0  0
M  END
