1x78_ligand
 OpenBabel08222323343D

 31 33  0  0  0  0  0  0  0  0999 V2000
   32.2650   36.7640   35.7030 C   0  0  0  0  0  0  0  0  0  0  0  0
   30.9230   36.9990   36.1130 C   0  0  0  0  0  0  0  0  0  0  0  0
   30.4370   36.4310   37.3150 C   0  0  0  0  0  0  0  0  0  0  0  0
   31.2870   35.6010   38.1510 C   0  0  0  0  0  0  0  0  0  0  0  0
   32.6300   35.3740   37.7260 C   0  0  0  0  0  0  0  0  0  0  0  0
   33.1120   35.9530   36.5100 C   0  0  0  0  0  0  0  0  0  0  0  0
   29.2090   36.5180   37.9020 O   0  0  0  0  0  0  0  0  0  0  0  0
   29.2700   35.7920   39.0470 C   0  0  0  0  0  0  0  0  0  0  0  0
   30.5270   35.1870   39.2750 C   0  0  0  0  0  0  0  0  0  0  0  0
   34.3970   35.7390   36.1000 O   0  0  0  0  0  0  0  0  0  0  0  0
   30.0230   37.8700   35.2370 C   0  0  0  0  0  0  0  0  0  0  0  0
   29.4930   39.0590   35.9520 C   0  0  0  0  0  0  0  0  0  0  0  0
   29.0470   39.9600   36.5260 N   0  0  0  0  0  0  0  0  0  0  0  0
   28.0680   35.7120   39.9480 C   0  0  0  0  0  0  0  0  0  0  0  0
   26.7950   36.1430   39.4230 C   0  0  0  0  0  0  0  0  0  0  0  0
   25.6260   36.1150   40.2410 C   0  0  0  0  0  0  0  0  0  0  0  0
   25.7220   35.6590   41.5840 C   0  0  0  0  0  0  0  0  0  0  0  0
   26.9810   35.2230   42.1290 C   0  0  0  0  0  0  0  0  0  0  0  0
   28.1560   35.2500   41.3130 C   0  0  0  0  0  0  0  0  0  0  0  0
   24.5830   35.6430   42.3610 O   0  0  0  0  0  0  0  0  0  0  0  0
   32.6395   37.1990   34.7835 H   0  0  0  0  0  0  0  0  0  0  0  0
   33.2890   34.7591   38.3282 H   0  0  0  0  0  0  0  0  0  0  0  0
   30.8360   34.5579   40.1085 H   0  0  0  0  0  0  0  0  0  0  0  0
   34.5463   36.1939   35.2794 H   0  0  0  0  0  0  0  0  0  0  0  0
   29.1743   37.2613   34.8920 H   0  0  0  0  0  0  0  0  0  0  0  0
   30.6048   38.2134   34.3690 H   0  0  0  0  0  0  0  0  0  0  0  0
   26.7260   36.4910   38.3987 H   0  0  0  0  0  0  0  0  0  0  0  0
   24.6719   36.4390   39.8412 H   0  0  0  0  0  0  0  0  0  0  0  0
   27.0387   34.8754   43.1541 H   0  0  0  0  0  0  0  0  0  0  0  0
   29.1077   34.9251   41.7177 H   0  0  0  0  0  0  0  0  0  0  0  0
   24.4101   34.7545   42.6492 H   0  0  0  0  0  0  0  0  0  0  0  0
  1  2  2  0  0  0  0
  1  6  1  0  0  0  0
  1 21  1  0  0  0  0
  2  3  1  0  0  0  0
  2 11  1  0  0  0  0
  3  4  2  0  0  0  0
  3  7  1  0  0  0  0
  4  5  1  0  0  0  0
  4  9  1  0  0  0  0
  5  6  2  0  0  0  0
  5 22  1  0  0  0  0
  6 10  1  0  0  0  0
  7  8  1  0  0  0  0
  8  9  2  0  0  0  0
  8 14  1  0  0  0  0
  9 23  1  0  0  0  0
 10 24  1  0  0  0  0
 11 12  1  0  0  0  0
 11 25  1  0  0  0  0
 11 26  1  0  0  0  0
 12 13  3  0  0  0  0
 14 15  2  0  0  0  0
 14 19  1  0  0  0  0
 15 16  1  0  0  0  0
 15 27  1  0  0  0  0
 16 17  2  0  0  0  0
 16 28  1  0  0  0  0
 17 18  1  0  0  0  0
 17 20  1  0  0  0  0
 18 19  2  0  0  0  0
 18 29  1  0  0  0  0
 19 30  1  0  0  0  0
 20 31  1  0  0  0  0
M  END
