1x7e_ligand
 OpenBabel08222323343D

 31 33  0  0  0  0  0  0  0  0999 V2000
   23.7510   19.5780   26.0370 C   0  0  0  0  0  0  0  0  0  0  0  0
   24.1800   18.8920   24.8340 C   0  0  0  0  0  0  0  0  0  0  0  0
   25.4350   19.2420   24.2230 C   0  0  0  0  0  0  0  0  0  0  0  0
   26.2970   20.2860   24.7920 C   0  0  0  0  0  0  0  0  0  0  0  0
   25.8530   20.9610   25.9920 C   0  0  0  0  0  0  0  0  0  0  0  0
   24.5880   20.6100   26.6130 C   0  0  0  0  0  0  0  0  0  0  0  0
   26.0430   18.7450   23.1120 O   0  0  0  0  0  0  0  0  0  0  0  0
   27.2080   19.4080   22.9630 C   0  0  0  0  0  0  0  0  0  0  0  0
   27.4370   20.3890   23.9720 C   0  0  0  0  0  0  0  0  0  0  0  0
   24.1640   21.2530   27.7500 O   0  0  0  0  0  0  0  0  0  0  0  0
   23.2770   17.8010   24.2280 C   0  0  0  0  0  0  0  0  0  0  0  0
   23.9710   16.5070   23.9890 C   0  0  0  0  0  0  0  0  0  0  0  0
   24.5630   15.5320   23.8230 N   0  0  0  0  0  0  0  0  0  0  0  0
   28.1190   19.0820   21.7990 C   0  0  0  0  0  0  0  0  0  0  0  0
   27.5770   18.2830   20.7020 C   0  0  0  0  0  0  0  0  0  0  0  0
   28.3860   17.9570   19.5580 C   0  0  0  0  0  0  0  0  0  0  0  0
   29.7410   18.4300   19.5040 C   0  0  0  0  0  0  0  0  0  0  0  0
   30.3120   19.2210   20.5820 C   0  0  0  0  0  0  0  0  0  0  0  0
   29.5070   19.5480   21.7270 C   0  0  0  0  0  0  0  0  0  0  0  0
   30.4990   18.1240   18.4110 O   0  0  0  0  0  0  0  0  0  0  0  0
   22.8073   19.3195   26.5036 H   0  0  0  0  0  0  0  0  0  0  0  0
   26.4703   21.7360   26.4318 H   0  0  0  0  0  0  0  0  0  0  0  0
   28.2894   21.0577   24.0821 H   0  0  0  0  0  0  0  0  0  0  0  0
   23.3232   20.9004   28.0170 H   0  0  0  0  0  0  0  0  0  0  0  0
   22.8882   18.1680   23.2667 H   0  0  0  0  0  0  0  0  0  0  0  0
   22.4393   17.6222   24.9181 H   0  0  0  0  0  0  0  0  0  0  0  0
   26.5527   17.9316   20.7509 H   0  0  0  0  0  0  0  0  0  0  0  0
   27.9786   17.3627   18.7481 H   0  0  0  0  0  0  0  0  0  0  0  0
   31.3392   19.5623   20.5225 H   0  0  0  0  0  0  0  0  0  0  0  0
   29.9251   20.1375   22.5349 H   0  0  0  0  0  0  0  0  0  0  0  0
   30.7788   18.9264   17.9863 H   0  0  0  0  0  0  0  0  0  0  0  0
  1  2  2  0  0  0  0
  1  6  1  0  0  0  0
  1 21  1  0  0  0  0
  2  3  1  0  0  0  0
  2 11  1  0  0  0  0
  3  4  2  0  0  0  0
  3  7  1  0  0  0  0
  4  5  1  0  0  0  0
  4  9  1  0  0  0  0
  5  6  2  0  0  0  0
  5 22  1  0  0  0  0
  6 10  1  0  0  0  0
  7  8  1  0  0  0  0
  8  9  2  0  0  0  0
  8 14  1  0  0  0  0
  9 23  1  0  0  0  0
 10 24  1  0  0  0  0
 11 12  1  0  0  0  0
 11 25  1  0  0  0  0
 11 26  1  0  0  0  0
 12 13  3  0  0  0  0
 14 15  2  0  0  0  0
 14 19  1  0  0  0  0
 15 16  1  0  0  0  0
 15 27  1  0  0  0  0
 16 17  2  0  0  0  0
 16 28  1  0  0  0  0
 17 18  1  0  0  0  0
 17 20  1  0  0  0  0
 18 19  2  0  0  0  0
 18 29  1  0  0  0  0
 19 30  1  0  0  0  0
 20 31  1  0  0  0  0
M  END
