1x7q_ligand
 OpenBabel08222323343D

152155  0  0  1  0  0  0  0  0999 V2000
    1.4240   41.2080   34.7880 N   0  3  0  0  0  0  0  0  0  0  0  0
    0.8730   42.5350   34.6040 C   0  0  2  0  0  0  0  0  0  0  0  0
    1.4520   43.5340   35.6050 C   0  0  0  0  0  0  0  0  0  0  0  0
    1.6160   43.2000   36.7800 O   0  0  0  0  0  0  0  0  0  0  0  0
   -0.6330   42.5150   34.8100 C   0  0  0  0  0  0  0  0  0  0  0  0
   -1.3770   42.0720   33.5660 C   0  0  0  0  0  0  0  0  0  0  0  0
   -2.8380   42.4430   33.6090 C   0  0  0  0  0  0  0  0  0  0  0  0
   -3.5330   41.9530   32.3390 C   0  0  0  0  0  0  0  0  0  0  0  0
   -4.9540   42.4580   32.3280 N   0  3  0  0  0  0  0  0  0  0  0  0
    1.7130   44.7370   35.1000 N   0  0  0  0  0  0  0  0  0  0  0  0
    2.3220   45.8140   35.8730 C   0  0  2  0  0  0  0  0  0  0  0  0
    1.3670   46.4080   36.9040 C   0  0  0  0  0  0  0  0  0  0  0  0
    0.1370   46.2840   36.8150 O   0  0  0  0  0  0  0  0  0  0  0  0
    2.8000   46.9420   34.9660 C   0  0  2  0  0  0  0  0  0  0  0  0
    1.7340   47.3360   34.0730 O   0  0  0  0  0  0  0  0  0  0  0  0
    4.0160   46.5440   34.1570 C   0  0  0  0  0  0  0  0  0  0  0  0
    1.9590   47.0350   37.9070 N   0  0  0  0  0  0  0  0  0  0  0  0
    1.2480   47.8810   38.8650 C   0  0  2  0  0  0  0  0  0  0  0  0
    1.1820   49.2970   38.3230 C   0  0  0  0  0  0  0  0  0  0  0  0
    2.1900   49.7970   37.8010 O   0  0  0  0  0  0  0  0  0  0  0  0
    2.0330   47.8170   40.1630 C   0  0  0  0  0  0  0  0  0  0  0  0
    1.5160   48.6170   41.3460 C   0  0  0  0  0  0  0  0  0  0  0  0
    0.2370   48.4080   41.8260 C   0  0  0  0  0  0  0  0  0  0  0  0
    2.3060   49.5760   41.9810 C   0  0  0  0  0  0  0  0  0  0  0  0
   -0.2690   49.1220   42.9100 C   0  0  0  0  0  0  0  0  0  0  0  0
    1.8270   50.2850   43.0570 C   0  0  0  0  0  0  0  0  0  0  0  0
    0.5440   50.0520   43.5330 C   0  0  0  0  0  0  0  0  0  0  0  0
    0.0800   50.0510   38.3490 N   0  0  0  0  0  0  0  0  0  0  0  0
    0.0990   51.4280   37.8520 C   0  0  2  0  0  0  0  0  0  0  0  0
    1.0460   52.3070   38.6670 C   0  0  0  0  0  0  0  0  0  0  0  0
    1.4750   51.9330   39.7380 O   0  0  0  0  0  0  0  0  0  0  0  0
   -1.3000   51.9330   38.0410 C   0  0  0  0  0  0  0  0  0  0  0  0
   -2.1480   50.7770   38.4200 C   0  0  0  0  0  0  0  0  0  0  0  0
   -1.2680   49.6390   38.7930 C   0  0  0  0  0  0  0  0  0  0  0  0
    1.4490   53.4440   38.1180 N   0  0  0  0  0  0  0  0  0  0  0  0
    2.4530   54.2710   38.8030 C   0  0  2  0  0  0  0  0  0  0  0  0
    2.0790   54.6200   40.2310 C   0  0  0  0  0  0  0  0  0  0  0  0
    0.9510   54.9620   40.5560 O   0  0  0  0  0  0  0  0  0  0  0  0
    2.5390   55.5060   37.9090 C   0  0  0  0  0  0  0  0  0  0  0  0
    1.9050   55.1470   36.6310 C   0  0  0  0  0  0  0  0  0  0  0  0
    1.0070   53.9490   36.8070 C   0  0  0  0  0  0  0  0  0  0  0  0
    3.0080   54.5170   41.1970 N   0  0  0  0  0  0  0  0  0  0  0  0
    2.6180   54.9240   42.5430 C   0  0  2  0  0  0  0  0  0  0  0  0
    2.8380   56.4300   42.7210 C   0  0  0  0  0  0  0  0  0  0  0  0
    3.1550   57.1830   41.7810 O   0  0  0  0  0  0  0  0  0  0  0  0
    3.4100   54.1420   43.6030 C   0  0  2  0  0  0  0  0  0  0  0  0
    2.7130   54.1190   44.8480 O   0  0  0  0  0  0  0  0  0  0  0  0
    4.7620   54.8290   43.7510 C   0  0  0  0  0  0  0  0  0  0  0  0
    2.5980   56.8900   43.9530 N   0  0  0  0  0  0  0  0  0  0  0  0
    2.5440   58.2790   44.3310 C   0  0  2  0  0  0  0  0  0  0  0  0
    3.9100   58.8980   43.9930 C   0  0  0  0  0  0  0  0  0  0  0  0
    4.9520   58.2530   44.1530 O   0  0  0  0  0  0  0  0  0  0  0  0
    2.1770   58.5310   45.8130 C   0  0  0  0  0  0  0  0  0  0  0  0
    0.7710   59.1340   45.9410 C   0  0  0  0  0  0  0  0  0  0  0  0
    0.8140   60.6260   46.1960 C   0  0  0  0  0  0  0  0  0  0  0  0
    1.4070   61.0700   47.2110 O   0  5  0  0  0  0  0  0  0  0  0  0
    0.2690   61.4200   45.3990 O   0  0  0  0  0  0  0  0  0  0  0  0
    3.9210   60.1260   43.5350 N   0  0  0  0  0  0  0  0  0  0  0  0
    5.1980   60.8150   43.3490 C   0  0  2  0  0  0  0  0  0  0  0  0
    6.0110   60.8710   44.6370 C   0  0  0  0  0  0  0  0  0  0  0  0
    5.4960   60.9030   45.7540 O   0  0  0  0  0  0  0  0  0  0  0  0
    4.7720   62.2190   42.8880 C   0  0  0  0  0  0  0  0  0  0  0  0
    3.4980   61.9150   42.1310 C   0  0  0  0  0  0  0  0  0  0  0  0
    2.8060   60.9970   43.1020 C   0  0  0  0  0  0  0  0  0  0  0  0
    7.3280   60.9100   44.4540 N   0  0  0  0  0  0  0  0  0  0  0  0
    8.3010   60.9930   45.5320 C   0  0  2  0  0  0  0  0  0  0  0  0
    8.4050   62.3830   46.1540 C   0  0  0  0  0  0  0  0  0  0  0  0
    9.0340   62.4900   47.2620 O   0  5  0  0  0  0  0  0  0  0  0  0
    9.6650   60.5160   44.9930 C   0  0  0  0  0  0  0  0  0  0  0  0
    9.6300   58.9880   44.7510 C   0  0  0  0  0  0  0  0  0  0  0  0
   10.9180   58.4740   44.1450 C   0  0  0  0  0  0  0  0  0  0  0  0
   11.0360   56.9810   44.3300 C   0  0  0  0  0  0  0  0  0  0  0  0
   10.8310   56.2510   43.1180 N   0  3  0  0  0  0  0  0  0  0  0  0
    7.8600   63.3260   45.5330 O   0  0  0  0  0  0  0  0  0  0  0  0
    1.0193   40.5794   34.1118 H   0  0  0  0  0  0  0  0  0  0  0  0
    1.2125   40.8823   35.7182 H   0  0  0  0  0  0  0  0  0  0  0  0
    2.4236   41.2388   34.6619 H   0  0  0  0  0  0  0  0  0  0  0  0
    1.1006   42.8718   33.5819 H   0  0  0  0  0  0  0  0  0  0  0  0
   -0.9668   43.5277   35.0801 H   0  0  0  0  0  0  0  0  0  0  0  0
   -0.8689   41.8203   35.6296 H   0  0  0  0  0  0  0  0  0  0  0  0
   -1.2924   40.9792   33.4738 H   0  0  0  0  0  0  0  0  0  0  0  0
   -0.9164   42.5507   32.6893 H   0  0  0  0  0  0  0  0  0  0  0  0
   -2.9354   43.5364   33.6801 H   0  0  0  0  0  0  0  0  0  0  0  0
   -3.3082   41.9751   34.4865 H   0  0  0  0  0  0  0  0  0  0  0  0
   -3.5328   40.8532   32.3199 H   0  0  0  0  0  0  0  0  0  0  0  0
   -2.9995   42.3352   31.4562 H   0  0  0  0  0  0  0  0  0  0  0  0
   -5.4179   42.1379   31.4923 H   0  0  0  0  0  0  0  0  0  0  0  0
   -4.9526   43.4658   32.3464 H   0  0  0  0  0  0  0  0  0  0  0  0
   -5.4414   42.1078   33.1379 H   0  0  0  0  0  0  0  0  0  0  0  0
    1.4802   44.9115   34.1433 H   0  0  0  0  0  0  0  0  0  0  0  0
    3.1905   45.3970   36.4039 H   0  0  0  0  0  0  0  0  0  0  0  0
    3.0701   47.8017   35.5969 H   0  0  0  0  0  0  0  0  0  0  0  0
    1.4765   46.5920   33.5414 H   0  0  0  0  0  0  0  0  0  0  0  0
    4.3240   47.3860   33.5197 H   0  0  0  0  0  0  0  0  0  0  0  0
    3.7690   45.6777   33.5258 H   0  0  0  0  0  0  0  0  0  0  0  0
    4.8386   46.2792   34.8376 H   0  0  0  0  0  0  0  0  0  0  0  0
    2.9469   46.9245   38.0162 H   0  0  0  0  0  0  0  0  0  0  0  0
    0.2274   47.5037   39.0259 H   0  0  0  0  0  0  0  0  0  0  0  0
    3.0517   48.1718   39.9477 H   0  0  0  0  0  0  0  0  0  0  0  0
    2.0698   46.7619   40.4720 H   0  0  0  0  0  0  0  0  0  0  0  0
   -0.3909   47.6668   41.3450 H   0  0  0  0  0  0  0  0  0  0  0  0
    3.3110   49.7645   41.6210 H   0  0  0  0  0  0  0  0  0  0  0  0
   -1.2811   48.9520   43.2589 H   0  0  0  0  0  0  0  0  0  0  0  0
    2.4536   51.0289   43.5356 H   0  0  0  0  0  0  0  0  0  0  0  0
    0.1786   50.5996   44.3942 H   0  0  0  0  0  0  0  0  0  0  0  0
    0.3888   51.4506   36.7911 H   0  0  0  0  0  0  0  0  0  0  0  0
   -1.6681   52.3767   37.1042 H   0  0  0  0  0  0  0  0  0  0  0  0
   -1.3206   52.6904   38.8384 H   0  0  0  0  0  0  0  0  0  0  0  0
   -2.7831   50.4897   37.5691 H   0  0  0  0  0  0  0  0  0  0  0  0
   -2.7830   51.0492   39.2760 H   0  0  0  0  0  0  0  0  0  0  0  0
   -1.2856   49.4745   39.8805 H   0  0  0  0  0  0  0  0  0  0  0  0
   -1.5827   48.7194   38.2779 H   0  0  0  0  0  0  0  0  0  0  0  0
    3.4203   53.7476   38.8217 H   0  0  0  0  0  0  0  0  0  0  0  0
    3.5908   55.7835   37.7457 H   0  0  0  0  0  0  0  0  0  0  0  0
    2.0054   56.3483   38.3735 H   0  0  0  0  0  0  0  0  0  0  0  0
    2.6857   54.9092   35.8935 H   0  0  0  0  0  0  0  0  0  0  0  0
    1.3076   55.9977   36.2713 H   0  0  0  0  0  0  0  0  0  0  0  0
   -0.0535   54.2405   36.8249 H   0  0  0  0  0  0  0  0  0  0  0  0
    1.1694   53.2046   36.0136 H   0  0  0  0  0  0  0  0  0  0  0  0
    3.9275   54.1759   41.0015 H   0  0  0  0  0  0  0  0  0  0  0  0
    1.5480   54.7069   42.6771 H   0  0  0  0  0  0  0  0  0  0  0  0
    3.5587   53.1071   43.2612 H   0  0  0  0  0  0  0  0  0  0  0  0
    3.2214   53.6311   45.4853 H   0  0  0  0  0  0  0  0  0  0  0  0
    5.3627   54.2978   44.5040 H   0  0  0  0  0  0  0  0  0  0  0  0
    4.6110   55.8706   44.0706 H   0  0  0  0  0  0  0  0  0  0  0  0
    5.2884   54.8144   42.7853 H   0  0  0  0  0  0  0  0  0  0  0  0
    2.4429   56.2131   44.6726 H   0  0  0  0  0  0  0  0  0  0  0  0
    1.7735   58.7676   43.7166 H   0  0  0  0  0  0  0  0  0  0  0  0
    2.9074   59.2276   46.2503 H   0  0  0  0  0  0  0  0  0  0  0  0
    2.2090   57.5761   46.3581 H   0  0  0  0  0  0  0  0  0  0  0  0
    0.2501   58.6457   46.7778 H   0  0  0  0  0  0  0  0  0  0  0  0
    0.2191   58.9492   45.0076 H   0  0  0  0  0  0  0  0  0  0  0  0
    5.7960   60.3165   42.5719 H   0  0  0  0  0  0  0  0  0  0  0  0
    5.5296   62.6738   42.2330 H   0  0  0  0  0  0  0  0  0  0  0  0
    4.5817   62.8825   43.7444 H   0  0  0  0  0  0  0  0  0  0  0  0
    3.7052   61.4115   41.1752 H   0  0  0  0  0  0  0  0  0  0  0  0
    2.9099   62.8259   41.9457 H   0  0  0  0  0  0  0  0  0  0  0  0
    2.3808   61.5555   43.9489 H   0  0  0  0  0  0  0  0  0  0  0  0
    2.0117   60.4170   42.6094 H   0  0  0  0  0  0  0  0  0  0  0  0
    7.6711   60.8804   43.5152 H   0  0  0  0  0  0  0  0  0  0  0  0
    7.9832   60.3024   46.3270 H   0  0  0  0  0  0  0  0  0  0  0  0
   10.4498   60.7512   45.7270 H   0  0  0  0  0  0  0  0  0  0  0  0
    9.8830   61.0305   44.0455 H   0  0  0  0  0  0  0  0  0  0  0  0
    8.8001   58.7568   44.0670 H   0  0  0  0  0  0  0  0  0  0  0  0
    9.4644   58.4809   45.7130 H   0  0  0  0  0  0  0  0  0  0  0  0
   11.7700   58.9671   44.6358 H   0  0  0  0  0  0  0  0  0  0  0  0
   10.9293   58.7066   43.0699 H   0  0  0  0  0  0  0  0  0  0  0  0
   10.2842   56.6582   45.0652 H   0  0  0  0  0  0  0  0  0  0  0  0
   12.0426   56.7532   44.7106 H   0  0  0  0  0  0  0  0  0  0  0  0
   10.9213   55.2639   43.3010 H   0  0  0  0  0  0  0  0  0  0  0  0
   11.5193   56.5307   42.4367 H   0  0  0  0  0  0  0  0  0  0  0  0
    9.9080   56.4436   42.7617 H   0  0  0  0  0  0  0  0  0  0  0  0
  1  2  1  0  0  0  0
  1 75  1  0  0  0  0
  1 76  1  0  0  0  0
  1 77  1  0  0  0  0
  2  3  1  0  0  0  0
  2  5  1  0  0  0  0
  2 78  1  6  0  0  0
  3  4  2  0  0  0  0
  3 10  1  0  0  0  0
  5  6  1  0  0  0  0
  5 79  1  0  0  0  0
  5 80  1  0  0  0  0
  6  7  1  0  0  0  0
  6 81  1  0  0  0  0
  6 82  1  0  0  0  0
  7  8  1  0  0  0  0
  7 83  1  0  0  0  0
  7 84  1  0  0  0  0
  8  9  1  0  0  0  0
  8 85  1  0  0  0  0
  8 86  1  0  0  0  0
  9 87  1  0  0  0  0
  9 88  1  0  0  0  0
  9 89  1  0  0  0  0
 10 11  1  0  0  0  0
 10 90  1  0  0  0  0
 11 12  1  0  0  0  0
 11 14  1  0  0  0  0
 11 91  1  1  0  0  0
 12 13  2  0  0  0  0
 12 17  1  0  0  0  0
 14 15  1  0  0  0  0
 14 16  1  0  0  0  0
 14 92  1  1  0  0  0
 15 93  1  0  0  0  0
 16 94  1  0  0  0  0
 16 95  1  0  0  0  0
 16 96  1  0  0  0  0
 17 18  1  0  0  0  0
 17 97  1  0  0  0  0
 18 19  1  0  0  0  0
 18 21  1  0  0  0  0
 18 98  1  1  0  0  0
 19 20  2  0  0  0  0
 19 28  1  0  0  0  0
 21 22  1  0  0  0  0
 21 99  1  0  0  0  0
 21100  1  0  0  0  0
 22 23  2  0  0  0  0
 22 24  1  0  0  0  0
 23 25  1  0  0  0  0
 23101  1  0  0  0  0
 24 26  2  0  0  0  0
 24102  1  0  0  0  0
 25 27  2  0  0  0  0
 25103  1  0  0  0  0
 26 27  1  0  0  0  0
 26104  1  0  0  0  0
 27105  1  0  0  0  0
 28 29  1  0  0  0  0
 28 34  1  0  0  0  0
 29 30  1  0  0  0  0
 29 32  1  0  0  0  0
 29106  1  6  0  0  0
 30 31  2  0  0  0  0
 30 35  1  0  0  0  0
 32 33  1  0  0  0  0
 32107  1  0  0  0  0
 32108  1  0  0  0  0
 33 34  1  0  0  0  0
 33109  1  0  0  0  0
 33110  1  0  0  0  0
 34111  1  0  0  0  0
 34112  1  0  0  0  0
 35 36  1  0  0  0  0
 35 41  1  0  0  0  0
 36 37  1  0  0  0  0
 36 39  1  0  0  0  0
 36113  1  6  0  0  0
 37 38  2  0  0  0  0
 37 42  1  0  0  0  0
 39 40  1  0  0  0  0
 39114  1  0  0  0  0
 39115  1  0  0  0  0
 40 41  1  0  0  0  0
 40116  1  0  0  0  0
 40117  1  0  0  0  0
 41118  1  0  0  0  0
 41119  1  0  0  0  0
 42 43  1  0  0  0  0
 42120  1  0  0  0  0
 43 44  1  0  0  0  0
 43 46  1  0  0  0  0
 43121  1  1  0  0  0
 44 45  2  0  0  0  0
 44 49  1  0  0  0  0
 46 47  1  0  0  0  0
 46 48  1  0  0  0  0
 46122  1  6  0  0  0
 47123  1  0  0  0  0
 48124  1  0  0  0  0
 48125  1  0  0  0  0
 48126  1  0  0  0  0
 49 50  1  0  0  0  0
 49127  1  0  0  0  0
 50 51  1  0  0  0  0
 50 53  1  0  0  0  0
 50128  1  6  0  0  0
 51 52  2  0  0  0  0
 51 58  1  0  0  0  0
 53 54  1  0  0  0  0
 53129  1  0  0  0  0
 53130  1  0  0  0  0
 54 55  1  0  0  0  0
 54131  1  0  0  0  0
 54132  1  0  0  0  0
 55 56  1  0  0  0  0
 55 57  2  0  0  0  0
 58 59  1  0  0  0  0
 58 64  1  0  0  0  0
 59 60  1  0  0  0  0
 59 62  1  0  0  0  0
 59133  1  6  0  0  0
 60 61  2  0  0  0  0
 60 65  1  0  0  0  0
 62 63  1  0  0  0  0
 62134  1  0  0  0  0
 62135  1  0  0  0  0
 63 64  1  0  0  0  0
 63136  1  0  0  0  0
 63137  1  0  0  0  0
 64138  1  0  0  0  0
 64139  1  0  0  0  0
 65 66  1  0  0  0  0
 65140  1  0  0  0  0
 66 67  1  0  0  0  0
 66 69  1  0  0  0  0
 66141  1  1  0  0  0
 67 68  1  0  0  0  0
 67 74  2  0  0  0  0
 69 70  1  0  0  0  0
 69142  1  0  0  0  0
 69143  1  0  0  0  0
 70 71  1  0  0  0  0
 70144  1  0  0  0  0
 70145  1  0  0  0  0
 71 72  1  0  0  0  0
 71146  1  0  0  0  0
 71147  1  0  0  0  0
 72 73  1  0  0  0  0
 72148  1  0  0  0  0
 72149  1  0  0  0  0
 73150  1  0  0  0  0
 73151  1  0  0  0  0
 73152  1  0  0  0  0
M  CHG  5   1   1   9   1  56  -1  68  -1  73   1
M  END
