1x8s_ligand
 OpenBabel08222323343D

139140  0  0  1  0  0  0  0  0999 V2000
  -10.5610   11.8060    2.4030 N   0  3  0  0  0  0  0  0  0  0  0  0
   -9.8460   13.0400    1.9580 C   0  0  2  0  0  0  0  0  0  0  0  0
  -10.4970   13.6230    0.7020 C   0  0  0  0  0  0  0  0  0  0  0  0
  -10.5680   12.9560   -0.3340 O   0  0  0  0  0  0  0  0  0  0  0  0
   -8.3690   12.7410    1.6610 C   0  0  0  0  0  0  0  0  0  0  0  0
   -7.6040   12.1960    2.8290 C   0  0  0  0  0  0  0  0  0  0  0  0
   -7.3580   12.9310    3.9690 N   0  0  0  0  0  0  0  0  0  0  0  0
   -7.0090   10.9950    3.0210 C   0  0  0  0  0  0  0  0  0  0  0  0
   -6.6540   12.2020    4.8170 C   0  0  0  0  0  0  0  0  0  0  0  0
   -6.4290   11.0220    4.2670 N   0  0  0  0  0  0  0  0  0  0  0  0
  -10.9710   14.8630    0.7990 N   0  0  0  0  0  0  0  0  0  0  0  0
  -11.5310   15.5680   -0.3600 C   0  0  2  0  0  0  0  0  0  0  0  0
  -10.4290   16.2750   -1.1320 C   0  0  0  0  0  0  0  0  0  0  0  0
   -9.4650   16.7500   -0.5370 O   0  0  0  0  0  0  0  0  0  0  0  0
  -12.5980   16.5800    0.0620 C   0  0  0  0  0  0  0  0  0  0  0  0
  -12.1300   17.6620    1.0290 C   0  0  0  0  0  0  0  0  0  0  0  0
  -13.2410   18.6570    1.3250 C   0  0  0  0  0  0  0  0  0  0  0  0
  -12.8930   20.0250    0.9360 N   0  0  0  0  0  0  0  0  0  0  0  0
  -12.9520   20.5240   -0.2990 C   0  0  0  0  0  3  0  0  0  0  0  0
  -13.3410   19.7810   -1.3350 N   0  0  0  0  0  0  0  0  0  0  0  0
  -12.6070   21.7920   -0.4950 N   0  0  0  0  0  0  0  0  0  0  0  0
  -10.5820   16.3510   -2.4510 N   0  0  0  0  0  0  0  0  0  0  0  0
   -9.5440   16.9160   -3.3100 C   0  0  2  0  0  0  0  0  0  0  0  0
  -10.0640   18.0260   -4.2070 C   0  0  0  0  0  0  0  0  0  0  0  0
  -11.2680   18.1690   -4.4160 O   0  0  0  0  0  0  0  0  0  0  0  0
   -8.8930   15.8260   -4.1680 C   0  0  0  0  0  0  0  0  0  0  0  0
   -9.7390   15.3440   -5.3420 C   0  0  0  0  0  0  0  0  0  0  0  0
   -9.2250   14.0450   -5.9380 C   0  0  0  0  0  0  0  0  0  0  0  0
   -7.9920   13.8510   -5.9810 O   0  5  0  0  0  0  0  0  0  0  0  0
  -10.0580   13.2200   -6.3690 O   0  0  0  0  0  0  0  0  0  0  0  0
   -9.1250   18.8030   -4.7360 N   0  0  0  0  0  0  0  0  0  0  0  0
   -9.4300   19.9050   -5.6340 C   0  0  2  0  0  0  0  0  0  0  0  0
   -8.3360   20.0610   -6.6800 C   0  0  0  0  0  0  0  0  0  0  0  0
   -7.1660   19.7770   -6.4230 O   0  0  0  0  0  0  0  0  0  0  0  0
   -9.6030   21.1980   -4.8450 C   0  0  0  0  0  0  0  0  0  0  0  0
  -10.9790   21.3370   -4.2260 C   0  0  0  0  0  0  0  0  0  0  0  0
  -11.3470   23.0360   -3.7690 S   0  0  0  0  0  0  0  0  0  0  0  0
  -13.1410   22.9930   -3.7810 C   0  0  0  0  0  0  0  0  0  0  0  0
   -8.7390   20.5220   -7.8590 N   0  0  0  0  0  0  0  0  0  0  0  0
   -7.8780   20.5290   -9.0350 C   0  0  2  0  0  0  0  0  0  0  0  0
   -7.2470   21.8920   -9.2630 C   0  0  0  0  0  0  0  0  0  0  0  0
   -7.9380   22.9150   -9.2700 O   0  0  0  0  0  0  0  0  0  0  0  0
   -8.6750   20.1160  -10.2680 C   0  0  0  0  0  0  0  0  0  0  0  0
   -5.9310   21.8890   -9.4580 N   0  0  0  0  0  0  0  0  0  0  0  0
   -5.2030   23.0850   -9.8490 C   0  0  2  0  0  0  0  0  0  0  0  0
   -4.9460   23.0320  -11.3560 C   0  0  0  0  0  0  0  0  0  0  0  0
   -4.1330   22.2340  -11.8240 O   0  0  0  0  0  0  0  0  0  0  0  0
   -3.8720   23.1990   -9.0900 C   0  0  0  0  0  0  0  0  0  0  0  0
   -3.1140   24.4530   -9.5240 C   0  0  0  0  0  0  0  0  0  0  0  0
   -4.1270   23.2040   -7.5870 C   0  0  0  0  0  0  0  0  0  0  0  0
   -5.6560   23.8760  -12.1030 N   0  0  0  0  0  0  0  0  0  0  0  0
   -5.5020   23.9720  -13.5540 C   0  0  2  0  0  0  0  0  0  0  0  0
   -5.4880   22.5940  -14.2160 C   0  0  0  0  0  0  0  0  0  0  0  0
   -4.4250   22.0320  -14.4930 O   0  0  0  0  0  0  0  0  0  0  0  0
   -4.2320   24.7580  -13.9080 C   0  0  0  0  0  0  0  0  0  0  0  0
   -4.1730   25.1630  -15.3770 C   0  0  0  0  0  0  0  0  0  0  0  0
   -5.1030   24.8310  -16.1440 O   0  5  0  0  0  0  0  0  0  0  0  0
   -3.1900   25.8240  -15.7710 O   0  0  0  0  0  0  0  0  0  0  0  0
   -6.6840   22.0600  -14.4570 N   0  0  0  0  0  0  0  0  0  0  0  0
   -6.8450   20.7640  -15.1140 C   0  0  2  0  0  0  0  0  0  0  0  0
   -7.8380   20.8770  -16.2750 C   0  0  0  0  0  0  0  0  0  0  0  0
   -8.8870   21.4990  -16.1260 O   0  0  0  0  0  0  0  0  0  0  0  0
   -7.3150   19.7150  -14.1020 C   0  0  0  0  0  0  0  0  0  0  0  0
   -6.1150   19.3870  -12.7660 S   0  0  0  0  0  0  0  0  0  0  0  0
   -7.5100   20.2740  -17.4350 N   0  0  0  0  0  0  0  0  0  0  0  0
   -8.3490   20.3810  -18.6330 C   0  0  2  0  0  0  0  0  0  0  0  0
   -9.5790   19.4670  -18.6060 C   0  0  0  0  0  0  0  0  0  0  0  0
   -9.9010   18.8570  -17.5840 O   0  5  0  0  0  0  0  0  0  0  0  0
   -7.3970   19.9520  -19.7510 C   0  0  0  0  0  0  0  0  0  0  0  0
   -6.5020   18.9640  -19.0990 C   0  0  0  0  0  0  0  0  0  0  0  0
   -6.3200   19.4380  -17.6800 C   0  0  0  0  0  0  0  0  0  0  0  0
  -10.2840   19.3130  -19.6080 O   0  0  0  0  0  0  0  0  0  0  0  0
  -10.1161   11.4397    3.2300 H   0  0  0  0  0  0  0  0  0  0  0  0
  -10.5275   11.1153    1.6696 H   0  0  0  0  0  0  0  0  0  0  0  0
  -11.5217   12.0304    2.6097 H   0  0  0  0  0  0  0  0  0  0  0  0
   -9.9018   13.7849    2.7654 H   0  0  0  0  0  0  0  0  0  0  0  0
   -7.8862   13.6753    1.3385 H   0  0  0  0  0  0  0  0  0  0  0  0
   -8.3237   12.0044    0.8454 H   0  0  0  0  0  0  0  0  0  0  0  0
   -6.9929   10.1626    2.3190 H   0  0  0  0  0  0  0  0  0  0  0  0
   -6.3164   12.5200    5.8023 H   0  0  0  0  0  0  0  0  0  0  0  0
   -5.9048   10.2488    4.7009 H   0  0  0  0  0  0  0  0  0  0  0  0
  -10.9449   15.3264    1.6848 H   0  0  0  0  0  0  0  0  0  0  0  0
  -12.0007   14.8248   -1.0211 H   0  0  0  0  0  0  0  0  0  0  0  0
  -13.4182   16.0271    0.5432 H   0  0  0  0  0  0  0  0  0  0  0  0
  -12.9729   17.0757   -0.8456 H   0  0  0  0  0  0  0  0  0  0  0  0
  -11.2790   18.1975    0.5829 H   0  0  0  0  0  0  0  0  0  0  0  0
  -11.8129   17.1888    1.9700 H   0  0  0  0  0  0  0  0  0  0  0  0
  -13.4496   18.6406    2.4049 H   0  0  0  0  0  0  0  0  0  0  0  0
  -14.1423   18.3527    0.7727 H   0  0  0  0  0  0  0  0  0  0  0  0
  -12.5742   20.6584    1.6831 H   0  0  0  0  0  0  0  0  0  0  0  0
  -13.3774   20.1920   -2.2787 H   0  0  0  0  0  0  0  0  0  0  0  0
  -13.6052   18.7958   -1.1918 H   0  0  0  0  0  0  0  0  0  0  0  0
  -12.3053   22.3725    0.3005 H   0  0  0  0  0  0  0  0  0  0  0  0
  -12.6412   22.1945   -1.4425 H   0  0  0  0  0  0  0  0  0  0  0  0
  -11.4276   16.0134   -2.8646 H   0  0  0  0  0  0  0  0  0  0  0  0
   -8.7706   17.3461   -2.6567 H   0  0  0  0  0  0  0  0  0  0  0  0
   -8.6822   14.9618   -3.5209 H   0  0  0  0  0  0  0  0  0  0  0  0
   -7.9486   16.2239   -4.5677 H   0  0  0  0  0  0  0  0  0  0  0  0
   -9.7304   16.1179   -6.1237 H   0  0  0  0  0  0  0  0  0  0  0  0
  -10.7701   15.1874   -4.9924 H   0  0  0  0  0  0  0  0  0  0  0  0
   -8.1685   18.6223   -4.5069 H   0  0  0  0  0  0  0  0  0  0  0  0
  -10.3755   19.6824   -6.1502 H   0  0  0  0  0  0  0  0  0  0  0  0
   -9.4372   22.0473   -5.5240 H   0  0  0  0  0  0  0  0  0  0  0  0
   -8.8533   21.2201   -4.0403 H   0  0  0  0  0  0  0  0  0  0  0  0
  -11.0273   20.7089   -3.3243 H   0  0  0  0  0  0  0  0  0  0  0  0
  -11.7308   20.9944   -4.9522 H   0  0  0  0  0  0  0  0  0  0  0  0
  -13.5333   23.9854   -3.5141 H   0  0  0  0  0  0  0  0  0  0  0  0
  -13.4949   22.2503   -3.0508 H   0  0  0  0  0  0  0  0  0  0  0  0
  -13.4945   22.7170   -4.7854 H   0  0  0  0  0  0  0  0  0  0  0  0
   -9.6696   20.8782   -7.9429 H   0  0  0  0  0  0  0  0  0  0  0  0
   -7.0719   19.7976   -8.8762 H   0  0  0  0  0  0  0  0  0  0  0  0
   -8.0171   20.1243  -11.1495 H   0  0  0  0  0  0  0  0  0  0  0  0
   -9.5039   20.8225  -10.4224 H   0  0  0  0  0  0  0  0  0  0  0  0
   -9.0788   19.1033  -10.1214 H   0  0  0  0  0  0  0  0  0  0  0  0
   -5.4257   21.0354   -9.3314 H   0  0  0  0  0  0  0  0  0  0  0  0
   -5.8167   23.9682   -9.6181 H   0  0  0  0  0  0  0  0  0  0  0  0
   -3.2551   22.3215   -9.3339 H   0  0  0  0  0  0  0  0  0  0  0  0
   -2.1653   24.5178   -8.9710 H   0  0  0  0  0  0  0  0  0  0  0  0
   -3.7244   25.3428   -9.3103 H   0  0  0  0  0  0  0  0  0  0  0  0
   -2.9066   24.4011  -10.6030 H   0  0  0  0  0  0  0  0  0  0  0  0
   -4.6728   22.2916   -7.3047 H   0  0  0  0  0  0  0  0  0  0  0  0
   -4.7259   24.0870   -7.3196 H   0  0  0  0  0  0  0  0  0  0  0  0
   -3.1663   23.2369   -7.0522 H   0  0  0  0  0  0  0  0  0  0  0  0
   -6.3229   24.4694  -11.6522 H   0  0  0  0  0  0  0  0  0  0  0  0
   -6.3666   24.5257  -13.9488 H   0  0  0  0  0  0  0  0  0  0  0  0
   -3.3570   24.1310  -13.6817 H   0  0  0  0  0  0  0  0  0  0  0  0
   -4.1999   25.6685  -13.2917 H   0  0  0  0  0  0  0  0  0  0  0  0
   -7.5016   22.5639  -14.1784 H   0  0  0  0  0  0  0  0  0  0  0  0
   -5.8705   20.4504  -15.5165 H   0  0  0  0  0  0  0  0  0  0  0  0
   -7.5005   18.7735  -14.6398 H   0  0  0  0  0  0  0  0  0  0  0  0
   -8.2521   20.0681  -13.6469 H   0  0  0  0  0  0  0  0  0  0  0  0
   -6.4908   18.6902  -12.1420 H   0  0  0  0  0  0  0  0  0  0  0  0
   -8.6812   21.4200  -18.7746 H   0  0  0  0  0  0  0  0  0  0  0  0
   -6.8228   20.8115  -20.1272 H   0  0  0  0  0  0  0  0  0  0  0  0
   -7.9513   19.4897  -20.5810 H   0  0  0  0  0  0  0  0  0  0  0  0
   -5.5321   18.9274  -19.6167 H   0  0  0  0  0  0  0  0  0  0  0  0
   -6.9623   17.9651  -19.1117 H   0  0  0  0  0  0  0  0  0  0  0  0
   -6.2881   18.5873  -16.9834 H   0  0  0  0  0  0  0  0  0  0  0  0
   -5.3979   20.0292  -17.5793 H   0  0  0  0  0  0  0  0  0  0  0  0
  1  2  1  0  0  0  0
  1 73  1  0  0  0  0
  1 74  1  0  0  0  0
  1 75  1  0  0  0  0
  2  3  1  0  0  0  0
  2  5  1  0  0  0  0
  2 76  1  1  0  0  0
  3  4  2  0  0  0  0
  3 11  1  0  0  0  0
  5  6  1  0  0  0  0
  5 77  1  0  0  0  0
  5 78  1  0  0  0  0
  6  7  1  0  0  0  0
  6  8  2  0  0  0  0
  7  9  2  0  0  0  0
  8 10  1  0  0  0  0
  8 79  1  0  0  0  0
  9 10  1  0  0  0  0
  9 80  1  0  0  0  0
 10 81  1  0  0  0  0
 11 12  1  0  0  0  0
 11 82  1  0  0  0  0
 12 13  1  0  0  0  0
 12 15  1  0  0  0  0
 12 83  1  6  0  0  0
 13 14  2  0  0  0  0
 13 22  1  0  0  0  0
 15 16  1  0  0  0  0
 15 84  1  0  0  0  0
 15 85  1  0  0  0  0
 16 17  1  0  0  0  0
 16 86  1  0  0  0  0
 16 87  1  0  0  0  0
 17 18  1  0  0  0  0
 17 88  1  0  0  0  0
 17 89  1  0  0  0  0
 18 19  1  0  0  0  0
 18 90  1  0  0  0  0
 19 20  1  0  0  0  0
 19 21  1  0  0  0  0
 20 91  1  0  0  0  0
 20 92  1  0  0  0  0
 21 93  1  0  0  0  0
 21 94  1  0  0  0  0
 22 23  1  0  0  0  0
 22 95  1  0  0  0  0
 23 24  1  0  0  0  0
 23 26  1  0  0  0  0
 23 96  1  1  0  0  0
 24 25  2  0  0  0  0
 24 31  1  0  0  0  0
 26 27  1  0  0  0  0
 26 97  1  0  0  0  0
 26 98  1  0  0  0  0
 27 28  1  0  0  0  0
 27 99  1  0  0  0  0
 27100  1  0  0  0  0
 28 29  1  0  0  0  0
 28 30  2  0  0  0  0
 31 32  1  0  0  0  0
 31101  1  0  0  0  0
 32 33  1  0  0  0  0
 32 35  1  0  0  0  0
 32102  1  6  0  0  0
 33 34  2  0  0  0  0
 33 39  1  0  0  0  0
 35 36  1  0  0  0  0
 35103  1  0  0  0  0
 35104  1  0  0  0  0
 36 37  1  0  0  0  0
 36105  1  0  0  0  0
 36106  1  0  0  0  0
 37 38  1  0  0  0  0
 38107  1  0  0  0  0
 38108  1  0  0  0  0
 38109  1  0  0  0  0
 39 40  1  0  0  0  0
 39110  1  0  0  0  0
 40 41  1  0  0  0  0
 40 43  1  0  0  0  0
 40111  1  1  0  0  0
 41 42  2  0  0  0  0
 41 44  1  0  0  0  0
 43112  1  0  0  0  0
 43113  1  0  0  0  0
 43114  1  0  0  0  0
 44 45  1  0  0  0  0
 44115  1  0  0  0  0
 45 46  1  0  0  0  0
 45 48  1  0  0  0  0
 45116  1  1  0  0  0
 46 47  2  0  0  0  0
 46 51  1  0  0  0  0
 48 49  1  0  0  0  0
 48 50  1  0  0  0  0
 48117  1  0  0  0  0
 49118  1  0  0  0  0
 49119  1  0  0  0  0
 49120  1  0  0  0  0
 50121  1  0  0  0  0
 50122  1  0  0  0  0
 50123  1  0  0  0  0
 51 52  1  0  0  0  0
 51124  1  0  0  0  0
 52 53  1  0  0  0  0
 52 55  1  0  0  0  0
 52125  1  6  0  0  0
 53 54  2  0  0  0  0
 53 59  1  0  0  0  0
 55 56  1  0  0  0  0
 55126  1  0  0  0  0
 55127  1  0  0  0  0
 56 57  1  0  0  0  0
 56 58  2  0  0  0  0
 59 60  1  0  0  0  0
 59128  1  0  0  0  0
 60 61  1  0  0  0  0
 60 63  1  0  0  0  0
 60129  1  6  0  0  0
 61 62  2  0  0  0  0
 61 65  1  0  0  0  0
 63 64  1  0  0  0  0
 63130  1  0  0  0  0
 63131  1  0  0  0  0
 64132  1  0  0  0  0
 65 66  1  0  0  0  0
 65 71  1  0  0  0  0
 66 67  1  0  0  0  0
 66 69  1  0  0  0  0
 66133  1  6  0  0  0
 67 68  1  0  0  0  0
 67 72  2  0  0  0  0
 69 70  1  0  0  0  0
 69134  1  0  0  0  0
 69135  1  0  0  0  0
 70 71  1  0  0  0  0
 70136  1  0  0  0  0
 70137  1  0  0  0  0
 71138  1  0  0  0  0
 71139  1  0  0  0  0
M  CHG  4   1   1  29  -1  57  -1  68  -1
M  END
