1xb7_ligand
 OpenBabel08222323343D

158158  0  0  1  0  0  0  0  0999 V2000
  -13.3380   71.0180   12.7420 N   0  3  0  0  0  0  0  0  0  0  0  0
  -12.4910   72.2520   12.8970 C   0  0  2  0  0  0  0  0  0  0  0  0
  -11.8790   72.4070   14.2920 C   0  0  0  0  0  0  0  0  0  0  0  0
  -10.6640   72.3470   14.4080 O   0  0  0  0  0  0  0  0  0  0  0  0
  -13.2520   73.5260   12.5130 C   0  0  0  0  0  0  0  0  0  0  0  0
  -12.3870   74.6720   12.5670 O   0  0  0  0  0  0  0  0  0  0  0  0
  -12.6650   72.6110   15.3480 N   0  0  0  0  0  0  0  0  0  0  0  0
  -12.1050   72.3910   16.7040 C   0  0  2  0  0  0  0  0  0  0  0  0
  -11.6570   70.9230   16.8050 C   0  0  0  0  0  0  0  0  0  0  0  0
  -10.5930   70.6010   17.3000 O   0  0  0  0  0  0  0  0  0  0  0  0
  -13.1110   72.6770   17.8290 C   0  0  0  0  0  0  0  0  0  0  0  0
  -13.2290   74.1310   18.2840 C   0  0  0  0  0  0  0  0  0  0  0  0
  -11.8900   74.8160   18.5440 C   0  0  0  0  0  0  0  0  0  0  0  0
  -11.1340   74.3890   19.4660 O   0  5  0  0  0  0  0  0  0  0  0  0
  -11.5910   75.7910   17.8090 O   0  0  0  0  0  0  0  0  0  0  0  0
  -12.5140   70.0530   16.3150 N   0  0  0  0  0  0  0  0  0  0  0  0
  -12.2330   68.6450   16.1820 C   0  0  2  0  0  0  0  0  0  0  0  0
  -10.9830   68.3990   15.3380 C   0  0  0  0  0  0  0  0  0  0  0  0
  -10.1580   67.5580   15.6850 O   0  0  0  0  0  0  0  0  0  0  0  0
  -13.4580   67.9650   15.5700 C   0  0  0  0  0  0  0  0  0  0  0  0
  -13.4020   66.4780   15.2880 C   0  0  0  0  0  0  0  0  0  0  0  0
  -12.8200   65.6970   16.4580 C   0  0  0  0  0  0  0  0  0  0  0  0
  -14.7910   65.9880   14.9340 C   0  0  0  0  0  0  0  0  0  0  0  0
  -10.8140   69.1250   14.2390 N   0  0  0  0  0  0  0  0  0  0  0  0
   -9.5840   68.9400   13.4560 C   0  0  2  0  0  0  0  0  0  0  0  0
   -8.3610   69.3040   14.2860 C   0  0  0  0  0  0  0  0  0  0  0  0
   -7.3530   68.6050   14.2240 O   0  0  0  0  0  0  0  0  0  0  0  0
   -9.5910   69.7170   12.1390 C   0  0  0  0  0  0  0  0  0  0  0  0
   -8.3190   69.5270   11.3090 C   0  0  0  0  0  0  0  0  0  0  0  0
   -8.2260   68.1260   10.7440 C   0  0  0  0  0  0  0  0  0  0  0  0
   -8.2290   70.5620   10.1830 C   0  0  0  0  0  0  0  0  0  0  0  0
   -8.4530   70.3680   15.0800 N   0  0  0  0  0  0  0  0  0  0  0  0
   -7.3250   70.7950   15.9070 C   0  0  2  0  0  0  0  0  0  0  0  0
   -6.9330   69.7530   16.9480 C   0  0  0  0  0  0  0  0  0  0  0  0
   -5.7490   69.4960   17.1320 O   0  0  0  0  0  0  0  0  0  0  0  0
   -7.6080   72.1370   16.5790 C   0  0  0  0  0  0  0  0  0  0  0  0
   -7.5850   73.3320   15.6280 C   0  0  0  0  0  0  0  0  0  0  0  0
   -8.1660   74.5940   16.3010 C   0  0  0  0  0  0  0  0  0  0  0  0
   -8.9590   75.4770   15.3140 C   0  0  0  0  0  0  0  0  0  0  0  0
   -9.8690   76.4480   16.0110 N   0  3  0  0  0  0  0  0  0  0  0  0
   -7.8950   69.1230   17.6220 N   0  0  0  0  0  0  0  0  0  0  0  0
   -7.5020   68.0710   18.5890 C   0  0  2  0  0  0  0  0  0  0  0  0
   -7.0490   66.7720   17.9290 C   0  0  0  0  0  0  0  0  0  0  0  0
   -6.2600   66.0340   18.5240 O   0  0  0  0  0  0  0  0  0  0  0  0
   -8.6060   67.7470   19.5810 C   0  0  0  0  0  0  0  0  0  0  0  0
   -8.9400   68.8390   20.5700 C   0  0  0  0  0  0  0  0  0  0  0  0
  -10.0030   69.7070   20.3260 C   0  0  0  0  0  0  0  0  0  0  0  0
   -8.2340   68.9760   21.7650 C   0  0  0  0  0  0  0  0  0  0  0  0
  -10.3450   70.7000   21.2290 C   0  0  0  0  0  0  0  0  0  0  0  0
   -8.5760   69.9720   22.6980 C   0  0  0  0  0  0  0  0  0  0  0  0
   -9.6400   70.8270   22.4150 C   0  0  0  0  0  0  0  0  0  0  0  0
  -10.0100   71.8060   23.3000 O   0  0  0  0  0  0  0  0  0  0  0  0
   -7.5290   66.4870   16.7200 N   0  0  0  0  0  0  0  0  0  0  0  0
   -7.1540   65.2490   16.0340 C   0  0  2  0  0  0  0  0  0  0  0  0
   -5.7090   65.2560   15.5290 C   0  0  0  0  0  0  0  0  0  0  0  0
   -5.0450   64.2200   15.4650 O   0  0  0  0  0  0  0  0  0  0  0  0
   -8.0720   64.9850   14.8490 C   0  0  0  0  0  0  0  0  0  0  0  0
   -9.1420   63.9260   15.0690 C   0  0  0  0  0  0  0  0  0  0  0  0
  -10.0680   63.9080   13.8710 C   0  0  0  0  0  0  0  0  0  0  0  0
   -8.5080   62.5560   15.3020 C   0  0  0  0  0  0  0  0  0  0  0  0
   -5.2620   66.4410   15.1410 N   0  0  0  0  0  0  0  0  0  0  0  0
   -3.9750   66.6610   14.4810 C   0  0  2  0  0  0  0  0  0  0  0  0
   -2.9540   67.2070   15.4620 C   0  0  0  0  0  0  0  0  0  0  0  0
   -1.8220   67.4740   15.0790 O   0  0  0  0  0  0  0  0  0  0  0  0
   -4.1320   67.6390   13.3170 C   0  0  2  0  0  0  0  0  0  0  0  0
   -4.6380   68.8970   13.8000 O   0  0  0  0  0  0  0  0  0  0  0  0
   -5.1680   67.1310   12.3390 C   0  0  0  0  0  0  0  0  0  0  0  0
   -3.3640   67.3850   16.7200 N   0  0  0  0  0  0  0  0  0  0  0  0
   -2.4140   67.5460   17.8220 C   0  0  2  0  0  0  0  0  0  0  0  0
   -1.6120   66.2370   17.9400 C   0  0  0  0  0  0  0  0  0  0  0  0
   -0.4710   66.2210   18.4180 O   0  0  0  0  0  0  0  0  0  0  0  0
   -3.1530   67.8200   19.1560 C   0  0  2  0  0  0  0  0  0  0  0  0
   -3.6580   69.1620   19.1670 O   0  0  0  0  0  0  0  0  0  0  0  0
   -2.2200   67.7810   20.3350 C   0  0  0  0  0  0  0  0  0  0  0  0
   -2.1574   65.0993   17.5191 O   0  0  0  0  0  0  0  0  0  0  0  0
  -13.7072   70.9794   11.8048 H   0  0  0  0  0  0  0  0  0  0  0  0
  -14.0993   71.0479   13.4020 H   0  0  0  0  0  0  0  0  0  0  0  0
  -12.7750   70.2000   12.9152 H   0  0  0  0  0  0  0  0  0  0  0  0
  -11.6543   72.1472   12.1907 H   0  0  0  0  0  0  0  0  0  0  0  0
  -14.0879   73.6717   13.2129 H   0  0  0  0  0  0  0  0  0  0  0  0
  -13.6441   73.4178   11.4910 H   0  0  0  0  0  0  0  0  0  0  0  0
  -11.6651   74.5513   11.9614 H   0  0  0  0  0  0  0  0  0  0  0  0
  -13.6130   72.9063   15.2291 H   0  0  0  0  0  0  0  0  0  0  0  0
  -11.2353   73.0513   16.8365 H   0  0  0  0  0  0  0  0  0  0  0  0
  -12.8159   72.0765   18.7021 H   0  0  0  0  0  0  0  0  0  0  0  0
  -14.1031   72.3543   17.4804 H   0  0  0  0  0  0  0  0  0  0  0  0
  -13.8150   74.1548   19.2146 H   0  0  0  0  0  0  0  0  0  0  0  0
  -13.7590   74.6951   17.5024 H   0  0  0  0  0  0  0  0  0  0  0  0
  -13.4090   70.3865   16.0187 H   0  0  0  0  0  0  0  0  0  0  0  0
  -12.0581   68.2242   17.1832 H   0  0  0  0  0  0  0  0  0  0  0  0
  -13.6629   68.4680   14.6134 H   0  0  0  0  0  0  0  0  0  0  0  0
  -14.2987   68.1319   16.2595 H   0  0  0  0  0  0  0  0  0  0  0  0
  -12.7470   66.3177   14.4190 H   0  0  0  0  0  0  0  0  0  0  0  0
  -12.7987   64.6257   16.2093 H   0  0  0  0  0  0  0  0  0  0  0  0
  -13.4439   65.8540   17.3502 H   0  0  0  0  0  0  0  0  0  0  0  0
  -11.7969   66.0469   16.6598 H   0  0  0  0  0  0  0  0  0  0  0  0
  -15.1810   66.5719   14.0873 H   0  0  0  0  0  0  0  0  0  0  0  0
  -15.4557   66.1116   15.8017 H   0  0  0  0  0  0  0  0  0  0  0  0
  -14.7450   64.9247   14.6559 H   0  0  0  0  0  0  0  0  0  0  0  0
  -11.5089   69.7836   13.9503 H   0  0  0  0  0  0  0  0  0  0  0  0
   -9.5136   67.8714   13.2050 H   0  0  0  0  0  0  0  0  0  0  0  0
   -9.7006   70.7874   12.3673 H   0  0  0  0  0  0  0  0  0  0  0  0
  -10.4502   69.3797   11.5407 H   0  0  0  0  0  0  0  0  0  0  0  0
   -7.4587   69.6788   11.9774 H   0  0  0  0  0  0  0  0  0  0  0  0
   -7.3017   68.0286   10.1556 H   0  0  0  0  0  0  0  0  0  0  0  0
   -9.0945   67.9331   10.0970 H   0  0  0  0  0  0  0  0  0  0  0  0
   -8.2142   67.3981   11.5686 H   0  0  0  0  0  0  0  0  0  0  0  0
   -8.2980   71.5739   10.6088 H   0  0  0  0  0  0  0  0  0  0  0  0
   -9.0554   70.4054    9.4741 H   0  0  0  0  0  0  0  0  0  0  0  0
   -7.2690   70.4499    9.6578 H   0  0  0  0  0  0  0  0  0  0  0  0
   -9.3086   70.8847   15.1117 H   0  0  0  0  0  0  0  0  0  0  0  0
   -6.4631   70.9317   15.2373 H   0  0  0  0  0  0  0  0  0  0  0  0
   -6.8472   72.3005   17.3564 H   0  0  0  0  0  0  0  0  0  0  0  0
   -8.6032   72.0863   17.0448 H   0  0  0  0  0  0  0  0  0  0  0  0
   -8.1841   73.0928   14.7370 H   0  0  0  0  0  0  0  0  0  0  0  0
   -6.5457   73.5318   15.3283 H   0  0  0  0  0  0  0  0  0  0  0  0
   -7.3371   75.1859   16.7164 H   0  0  0  0  0  0  0  0  0  0  0  0
   -8.8380   74.2827   17.1143 H   0  0  0  0  0  0  0  0  0  0  0  0
   -9.5666   74.8258   14.6685 H   0  0  0  0  0  0  0  0  0  0  0  0
   -8.2461   76.0432   14.6966 H   0  0  0  0  0  0  0  0  0  0  0  0
  -10.3617   76.9983   15.3251 H   0  0  0  0  0  0  0  0  0  0  0  0
   -9.3229   77.0564   16.6006 H   0  0  0  0  0  0  0  0  0  0  0  0
  -10.5330   75.9408   16.5748 H   0  0  0  0  0  0  0  0  0  0  0  0
   -8.8573   69.3543   17.4788 H   0  0  0  0  0  0  0  0  0  0  0  0
   -6.6480   68.4680   19.1574 H   0  0  0  0  0  0  0  0  0  0  0  0
   -8.2981   66.8579   20.1507 H   0  0  0  0  0  0  0  0  0  0  0  0
   -9.5176   67.5186   19.0093 H   0  0  0  0  0  0  0  0  0  0  0  0
  -10.5739   69.6027   19.4104 H   0  0  0  0  0  0  0  0  0  0  0  0
   -7.4096   68.3052   21.9781 H   0  0  0  0  0  0  0  0  0  0  0  0
  -11.1627   71.3765   21.0082 H   0  0  0  0  0  0  0  0  0  0  0  0
   -8.0203   70.0730   23.6232 H   0  0  0  0  0  0  0  0  0  0  0  0
  -10.7474   72.2891   22.9460 H   0  0  0  0  0  0  0  0  0  0  0  0
   -8.1544   67.1275   16.2743 H   0  0  0  0  0  0  0  0  0  0  0  0
   -7.2622   64.4234   16.7527 H   0  0  0  0  0  0  0  0  0  0  0  0
   -7.4476   64.6642   14.0021 H   0  0  0  0  0  0  0  0  0  0  0  0
   -8.5771   65.9287   14.5954 H   0  0  0  0  0  0  0  0  0  0  0  0
   -9.7263   64.1927   15.9620 H   0  0  0  0  0  0  0  0  0  0  0  0
  -10.8460   63.1448   14.0204 H   0  0  0  0  0  0  0  0  0  0  0  0
   -9.4910   63.6708   12.9650 H   0  0  0  0  0  0  0  0  0  0  0  0
  -10.5398   64.8952   13.7573 H   0  0  0  0  0  0  0  0  0  0  0  0
   -7.8431   62.6037   16.1770 H   0  0  0  0  0  0  0  0  0  0  0  0
   -7.9262   62.2655   14.4148 H   0  0  0  0  0  0  0  0  0  0  0  0
   -9.2981   61.8121   15.4821 H   0  0  0  0  0  0  0  0  0  0  0  0
   -5.8424   67.2376   15.3103 H   0  0  0  0  0  0  0  0  0  0  0  0
   -3.6122   65.6987   14.0906 H   0  0  0  0  0  0  0  0  0  0  0  0
   -3.1628   67.7776   12.8155 H   0  0  0  0  0  0  0  0  0  0  0  0
   -5.4763   68.7578   14.2247 H   0  0  0  0  0  0  0  0  0  0  0  0
   -5.2692   67.8449   11.5083 H   0  0  0  0  0  0  0  0  0  0  0  0
   -6.1355   67.0254   12.8516 H   0  0  0  0  0  0  0  0  0  0  0  0
   -4.8527   66.1533   11.9458 H   0  0  0  0  0  0  0  0  0  0  0  0
   -4.3446   67.4089   16.9143 H   0  0  0  0  0  0  0  0  0  0  0  0
   -1.7348   68.3836   17.6048 H   0  0  0  0  0  0  0  0  0  0  0  0
   -3.9664   67.0900   19.2806 H   0  0  0  0  0  0  0  0  0  0  0  0
   -4.2644   69.2769   18.4448 H   0  0  0  0  0  0  0  0  0  0  0  0
   -2.7858   67.9801   21.2571 H   0  0  0  0  0  0  0  0  0  0  0  0
   -1.4400   68.5467   20.2109 H   0  0  0  0  0  0  0  0  0  0  0  0
   -1.7518   66.7877   20.3994 H   0  0  0  0  0  0  0  0  0  0  0  0
   -2.2138   64.4889   18.2449 H   0  0  0  0  0  0  0  0  0  0  0  0
  1 76  1  0  0  0  0
  1 77  1  0  0  0  0
  1 78  1  0  0  0  0
  2  1  1  0  0  0  0
  2  5  1  0  0  0  0
  2 79  1  6  0  0  0
  3  2  1  0  0  0  0
  3  4  2  0  0  0  0
  5  6  1  0  0  0  0
  5 80  1  0  0  0  0
  5 81  1  0  0  0  0
  6 82  1  0  0  0  0
  7  3  1  0  0  0  0
  7 83  1  0  0  0  0
  8  7  1  0  0  0  0
  8 11  1  0  0  0  0
  8 84  1  1  0  0  0
  9  8  1  0  0  0  0
  9 10  2  0  0  0  0
 11 12  1  0  0  0  0
 11 85  1  0  0  0  0
 11 86  1  0  0  0  0
 12 13  1  0  0  0  0
 12 87  1  0  0  0  0
 12 88  1  0  0  0  0
 13 15  2  0  0  0  0
 13 14  1  0  0  0  0
 16  9  1  0  0  0  0
 16 89  1  0  0  0  0
 17 16  1  0  0  0  0
 17 20  1  0  0  0  0
 17 90  1  1  0  0  0
 18 17  1  0  0  0  0
 18 19  2  0  0  0  0
 20 21  1  0  0  0  0
 20 91  1  0  0  0  0
 20 92  1  0  0  0  0
 21 22  1  0  0  0  0
 21 23  1  0  0  0  0
 21 93  1  0  0  0  0
 22 94  1  0  0  0  0
 22 95  1  0  0  0  0
 22 96  1  0  0  0  0
 23 97  1  0  0  0  0
 23 98  1  0  0  0  0
 23 99  1  0  0  0  0
 24 18  1  0  0  0  0
 24100  1  0  0  0  0
 25 24  1  0  0  0  0
 25 28  1  0  0  0  0
 25101  1  6  0  0  0
 26 25  1  0  0  0  0
 26 27  2  0  0  0  0
 28 29  1  0  0  0  0
 28102  1  0  0  0  0
 28103  1  0  0  0  0
 29 30  1  0  0  0  0
 29 31  1  0  0  0  0
 29104  1  0  0  0  0
 30105  1  0  0  0  0
 30106  1  0  0  0  0
 30107  1  0  0  0  0
 31108  1  0  0  0  0
 31109  1  0  0  0  0
 31110  1  0  0  0  0
 32 26  1  0  0  0  0
 32111  1  0  0  0  0
 33 32  1  0  0  0  0
 33 36  1  0  0  0  0
 33112  1  6  0  0  0
 34 33  1  0  0  0  0
 34 35  2  0  0  0  0
 36 37  1  0  0  0  0
 36113  1  0  0  0  0
 36114  1  0  0  0  0
 37 38  1  0  0  0  0
 37115  1  0  0  0  0
 37116  1  0  0  0  0
 38 39  1  0  0  0  0
 38117  1  0  0  0  0
 38118  1  0  0  0  0
 39 40  1  0  0  0  0
 39119  1  0  0  0  0
 39120  1  0  0  0  0
 40121  1  0  0  0  0
 40122  1  0  0  0  0
 40123  1  0  0  0  0
 41 34  1  0  0  0  0
 41124  1  0  0  0  0
 42 41  1  0  0  0  0
 42 45  1  0  0  0  0
 42125  1  1  0  0  0
 43 42  1  0  0  0  0
 43 44  2  0  0  0  0
 45 46  1  0  0  0  0
 45126  1  0  0  0  0
 45127  1  0  0  0  0
 46 47  2  0  0  0  0
 46 48  1  0  0  0  0
 47 49  1  0  0  0  0
 47128  1  0  0  0  0
 48 50  2  0  0  0  0
 48129  1  0  0  0  0
 49 51  2  0  0  0  0
 49130  1  0  0  0  0
 50 51  1  0  0  0  0
 50131  1  0  0  0  0
 51 52  1  0  0  0  0
 52132  1  0  0  0  0
 53 43  1  0  0  0  0
 53133  1  0  0  0  0
 54 53  1  0  0  0  0
 54 57  1  0  0  0  0
 54134  1  1  0  0  0
 55 54  1  0  0  0  0
 55 56  2  0  0  0  0
 57 58  1  0  0  0  0
 57135  1  0  0  0  0
 57136  1  0  0  0  0
 58 59  1  0  0  0  0
 58 60  1  0  0  0  0
 58137  1  0  0  0  0
 59138  1  0  0  0  0
 59139  1  0  0  0  0
 59140  1  0  0  0  0
 60141  1  0  0  0  0
 60142  1  0  0  0  0
 60143  1  0  0  0  0
 61 55  1  0  0  0  0
 61144  1  0  0  0  0
 62 61  1  0  0  0  0
 62 65  1  0  0  0  0
 62145  1  6  0  0  0
 63 62  1  0  0  0  0
 63 64  2  0  0  0  0
 63 68  1  0  0  0  0
 65 67  1  0  0  0  0
 65 66  1  0  0  0  0
 65146  1  6  0  0  0
 66147  1  0  0  0  0
 67148  1  0  0  0  0
 67149  1  0  0  0  0
 67150  1  0  0  0  0
 68 69  1  0  0  0  0
 68151  1  0  0  0  0
 69 72  1  0  0  0  0
 69 70  1  0  0  0  0
 69152  1  6  0  0  0
 70 71  2  0  0  0  0
 70 75  1  0  0  0  0
 72 74  1  0  0  0  0
 72 73  1  0  0  0  0
 72153  1  1  0  0  0
 73154  1  0  0  0  0
 74155  1  0  0  0  0
 74156  1  0  0  0  0
 74157  1  0  0  0  0
 75158  1  0  0  0  0
M  CHG  3   1   1  14  -1  40   1
M  END
