1xbc_ligand
 OpenBabel08222323343D

 62 69  0  0  1  0  0  0  0  0999 V2000
    6.0430    3.6690   12.5560 C   0  0  0  0  0  0  0  0  0  0  0  0
    6.3950    4.7720   11.7760 C   0  0  0  0  0  0  0  0  0  0  0  0
    5.4350    5.4420   11.0070 C   0  0  0  0  0  0  0  0  0  0  0  0
    4.0950    5.0400   10.9830 C   0  0  0  0  0  0  0  0  0  0  0  0
    3.6630    3.9390   11.7300 C   0  0  0  0  0  0  0  0  0  0  0  0
    2.4570    3.3470   11.9160 N   0  0  0  0  0  0  0  0  0  0  0  0
    2.5470    2.3070   12.7690 C   0  0  0  0  0  0  0  0  0  0  0  0
    1.6340    1.4040   13.3240 C   0  0  0  0  0  0  0  0  0  0  0  0
    0.2450    1.2880   13.0930 N   0  0  0  0  0  0  0  0  0  0  0  0
   -0.2510    0.2190   13.8730 C   0  0  0  0  0  0  0  0  0  0  0  0
   -1.5470   -0.2800   13.9900 C   0  0  0  0  0  0  0  0  0  0  0  0
   -1.7380   -1.3670   14.8540 C   0  0  0  0  0  0  0  0  0  0  0  0
   -0.6820   -1.9480   15.5800 C   0  0  0  0  0  0  0  0  0  0  0  0
    0.6320   -1.4730   15.4890 C   0  0  0  0  0  0  0  0  0  0  0  0
    0.8460   -0.4050   14.6310 C   0  0  0  0  0  0  0  0  0  0  0  0
    2.0590    0.3580   14.2780 C   0  0  0  0  0  0  0  0  0  0  0  0
    3.4820    0.2660   14.6600 C   0  0  0  0  0  0  0  0  0  0  0  0
    4.2400   -0.6050   15.5820 C   0  0  0  0  0  0  0  0  0  0  0  0
    5.5020   -0.1520   15.6180 N   0  0  0  0  0  0  0  0  0  0  0  0
    5.8020    0.9420   14.6740 C   0  0  0  0  0  0  0  0  0  0  0  0
    4.4300    1.2250   14.1040 C   0  0  0  0  0  0  0  0  0  0  0  0
    3.9800    2.1920   13.2040 C   0  0  0  0  0  0  0  0  0  0  0  0
    4.7130    3.2710   12.5110 C   0  0  0  0  0  0  0  0  0  0  0  0
    1.1240    3.8070   11.4150 C   0  0  2  0  0  0  0  0  0  0  0  0
    0.5130    4.7680   12.4570 C   0  0  1  0  0  0  0  0  0  0  0  0
   -0.9940    4.5980   12.4890 C   0  0  1  0  0  0  0  0  0  0  0  0
   -1.3200    3.1870   12.9850 C   0  0  0  0  0  0  0  0  0  0  0  0
   -0.5530    2.1140   12.1830 C   0  0  1  0  0  0  0  0  0  0  0  0
    0.2880    2.6620   11.1590 O   0  0  0  0  0  0  0  0  0  0  0  0
    3.7620   -1.5520   16.1890 O   0  0  0  0  0  0  0  0  0  0  0  0
   -1.5810    5.6430   13.3080 N   0  3  0  0  0  0  0  0  0  0  0  0
   -1.4970    7.0250   12.8450 C   0  0  0  0  0  0  0  0  0  0  0  0
    0.9760    4.5220   13.7920 O   0  0  0  0  0  0  0  0  0  0  0  0
    1.8980    5.4880   14.2970 C   0  0  0  0  0  0  0  0  0  0  0  0
    1.2270    4.4960   10.0540 C   0  0  0  0  0  0  0  0  0  0  0  0
    6.7719    3.1487   13.1668 H   0  0  0  0  0  0  0  0  0  0  0  0
    7.4236    5.1140   11.7654 H   0  0  0  0  0  0  0  0  0  0  0  0
    5.7389    6.2966   10.4134 H   0  0  0  0  0  0  0  0  0  0  0  0
    3.3825    5.5888   10.3778 H   0  0  0  0  0  0  0  0  0  0  0  0
   -2.3719    0.1539   13.4366 H   0  0  0  0  0  0  0  0  0  0  0  0
   -2.7359   -1.7750   14.9670 H   0  0  0  0  0  0  0  0  0  0  0  0
   -0.8923   -2.7896   16.2300 H   0  0  0  0  0  0  0  0  0  0  0  0
    1.4398   -1.9170   16.0595 H   0  0  0  0  0  0  0  0  0  0  0  0
    6.1895   -0.5282   16.2392 H   0  0  0  0  0  0  0  0  0  0  0  0
    6.5041    0.6179   13.8917 H   0  0  0  0  0  0  0  0  0  0  0  0
    6.2116    1.8210   15.1931 H   0  0  0  0  0  0  0  0  0  0  0  0
    0.7667    5.7995   12.1714 H   0  0  0  0  0  0  0  0  0  0  0  0
   -1.3878    4.7031   11.4673 H   0  0  0  0  0  0  0  0  0  0  0  0
   -2.4002    3.0105   12.8759 H   0  0  0  0  0  0  0  0  0  0  0  0
   -1.0408    3.1077   14.0460 H   0  0  0  0  0  0  0  0  0  0  0  0
   -1.2972    1.4690   11.6930 H   0  0  0  0  0  0  0  0  0  0  0  0
   -1.1295    5.6035   14.2084 H   0  0  0  0  0  0  0  0  0  0  0  0
   -2.5593    5.4239   13.4128 H   0  0  0  0  0  0  0  0  0  0  0  0
   -1.9863    7.6866   13.5750 H   0  0  0  0  0  0  0  0  0  0  0  0
   -2.0009    7.1169   11.8715 H   0  0  0  0  0  0  0  0  0  0  0  0
   -0.4406    7.3129   12.7397 H   0  0  0  0  0  0  0  0  0  0  0  0
    2.1925    5.2136   15.3207 H   0  0  0  0  0  0  0  0  0  0  0  0
    1.4220    6.4796   14.3058 H   0  0  0  0  0  0  0  0  0  0  0  0
    2.7898    5.5150   13.6537 H   0  0  0  0  0  0  0  0  0  0  0  0
    0.2261    4.8154    9.7281 H   0  0  0  0  0  0  0  0  0  0  0  0
    1.6454    3.7936    9.3181 H   0  0  0  0  0  0  0  0  0  0  0  0
    1.8834    5.3748   10.1366 H   0  0  0  0  0  0  0  0  0  0  0  0
  1  2  2  0  0  0  0
  1 23  1  0  0  0  0
  1 36  1  0  0  0  0
  2  3  1  0  0  0  0
  2 37  1  0  0  0  0
  3  4  2  0  0  0  0
  3 38  1  0  0  0  0
  4  5  1  0  0  0  0
  4 39  1  0  0  0  0
  5  6  1  0  0  0  0
  5 23  2  0  0  0  0
  6  7  1  0  0  0  0
  6 24  1  0  0  0  0
  7  8  2  0  0  0  0
  7 22  1  0  0  0  0
  8  9  1  0  0  0  0
  8 16  1  0  0  0  0
  9 10  1  0  0  0  0
  9 28  1  0  0  0  0
 10 11  2  0  0  0  0
 10 15  1  0  0  0  0
 11 12  1  0  0  0  0
 11 40  1  0  0  0  0
 12 13  2  0  0  0  0
 12 41  1  0  0  0  0
 13 14  1  0  0  0  0
 13 42  1  0  0  0  0
 14 15  2  0  0  0  0
 14 43  1  0  0  0  0
 15 16  1  0  0  0  0
 16 17  2  0  0  0  0
 17 18  1  0  0  0  0
 17 21  1  0  0  0  0
 18 19  1  0  0  0  0
 18 30  2  0  0  0  0
 19 20  1  0  0  0  0
 19 44  1  0  0  0  0
 20 21  1  0  0  0  0
 20 45  1  0  0  0  0
 20 46  1  0  0  0  0
 21 22  2  0  0  0  0
 22 23  1  0  0  0  0
 24 25  1  0  0  0  0
 24 29  1  0  0  0  0
 24 35  1  6  0  0  0
 25 26  1  0  0  0  0
 25 33  1  0  0  0  0
 25 47  1  6  0  0  0
 26 27  1  0  0  0  0
 26 31  1  0  0  0  0
 26 48  1  6  0  0  0
 27 28  1  0  0  0  0
 27 49  1  0  0  0  0
 27 50  1  0  0  0  0
 28 29  1  0  0  0  0
 28 51  1  6  0  0  0
 31 32  1  0  0  0  0
 31 52  1  0  0  0  0
 31 53  1  0  0  0  0
 32 54  1  0  0  0  0
 32 55  1  0  0  0  0
 32 56  1  0  0  0  0
 33 34  1  0  0  0  0
 34 57  1  0  0  0  0
 34 58  1  0  0  0  0
 34 59  1  0  0  0  0
 35 60  1  0  0  0  0
 35 61  1  0  0  0  0
 35 62  1  0  0  0  0
M  CHG  1  31   1
M  END
