1xfv_ligand
 OpenBabel08222323343D

 42 44  0  0  1  0  0  0  0  0999 V2000
   64.1200  293.1510   37.0150 P   0  0  0  0  0  0  0  0  0  0  0  0
   63.1460  292.8380   38.0660 O   0  0  0  0  0  1  0  0  0  0  0  0
   65.1840  293.8870   37.6320 O   0  0  0  0  0  1  0  0  0  0  0  0
   64.6200  291.8820   36.3420 O   0  0  0  0  0  0  0  0  0  0  0  0
   63.6320  295.7340   35.2210 P   0  0  2  0  0  0  0  0  0  0  0  0
   62.2990  296.1110   34.4800 O   0  0  0  0  0  1  0  0  0  0  0  0
   64.8680  295.7790   34.3890 O   0  0  0  0  0  0  0  0  0  0  0  0
   63.4830  294.1900   35.8960 O   0  0  0  0  0  0  0  0  0  0  0  0
   64.2970  296.9320   37.8740 P   0  0  1  0  0  0  0  0  0  0  0  0
   63.3830  296.0230   38.5900 O   0  0  0  0  0  1  0  0  0  0  0  0
   65.7720  296.7020   38.0760 O   0  0  0  0  0  0  0  0  0  0  0  0
   63.7110  296.8800   36.3370 O   0  0  0  0  0  0  0  0  0  0  0  0
   64.0340  298.4170   38.3150 O   0  0  0  0  0  0  0  0  0  0  0  0
   62.7360  299.0430   38.3200 C   0  0  0  0  0  0  0  0  0  0  0  0
   62.2430  299.3590   39.7100 C   0  0  1  0  0  0  0  0  0  0  0  0
   61.9540  300.7490   39.8100 O   0  0  0  0  0  0  0  0  0  0  0  0
   60.9820  298.6380   40.1250 C   0  0  0  0  0  0  0  0  0  0  0  0
   60.2850  299.6910   40.9250 C   0  0  1  0  0  0  0  0  0  0  0  0
   59.9770  299.2790   42.2370 O   0  0  0  0  0  0  0  0  0  0  0  0
   61.1780  300.9390   40.9570 C   0  0  2  0  0  0  0  0  0  0  0  0
   60.4250  302.2090   40.8110 N   0  0  0  0  0  0  0  0  0  0  0  0
   60.3910  303.0880   39.7430 C   0  0  0  0  0  0  0  0  0  0  0  0
   59.6400  304.1290   39.9040 N   0  0  0  0  0  0  0  0  0  0  0  0
   59.1400  303.9320   41.1550 C   0  0  0  0  0  0  0  0  0  0  0  0
   58.2630  304.6930   41.9530 C   0  0  0  0  0  0  0  0  0  0  0  0
   57.7720  305.8150   41.4970 N   0  0  0  0  0  0  0  0  0  0  0  0
   57.9230  304.2430   43.2080 N   0  0  0  0  0  0  0  0  0  0  0  0
   58.4450  303.0740   43.6660 C   0  0  0  0  0  0  0  0  0  0  0  0
   59.3010  302.2540   43.0000 N   0  0  0  0  0  0  0  0  0  0  0  0
   59.6130  302.7610   41.7340 C   0  0  0  0  0  0  0  0  0  0  0  0
   62.0169  298.3642   37.8383 H   0  0  0  0  0  0  0  0  0  0  0  0
   62.7959  299.9802   37.7472 H   0  0  0  0  0  0  0  0  0  0  0  0
   63.0430  299.0966   40.4179 H   0  0  0  0  0  0  0  0  0  0  0  0
   61.2085  297.7527   40.7372 H   0  0  0  0  0  0  0  0  0  0  0  0
   60.3855  298.3368   39.2513 H   0  0  0  0  0  0  0  0  0  0  0  0
   59.3411  299.9412   40.4186 H   0  0  0  0  0  0  0  0  0  0  0  0
   59.5374  299.9860   42.6948 H   0  0  0  0  0  0  0  0  0  0  0  0
   61.7870  300.9696   41.8725 H   0  0  0  0  0  0  0  0  0  0  0  0
   60.9577  302.9153   38.8293 H   0  0  0  0  0  0  0  0  0  0  0  0
   57.1309  306.3714   42.0803 H   0  0  0  0  0  0  0  0  0  0  0  0
   58.0262  306.1429   40.5543 H   0  0  0  0  0  0  0  0  0  0  0  0
   58.1490  302.7648   44.6619 H   0  0  0  0  0  0  0  0  0  0  0  0
  1  2  1  0  0  0  0
  1  3  1  0  0  0  0
  1  4  2  0  0  0  0
  5  6  1  6  0  0  0
  5  7  2  0  0  0  0
  5  8  1  0  0  0  0
  8  1  1  0  0  0  0
  9 10  1  1  0  0  0
  9 11  2  0  0  0  0
  9 12  1  0  0  0  0
  9 13  1  0  0  0  0
 12  5  1  0  0  0  0
 13 14  1  0  0  0  0
 14 15  1  0  0  0  0
 14 31  1  0  0  0  0
 14 32  1  0  0  0  0
 15 16  1  0  0  0  0
 15 17  1  0  0  0  0
 15 33  1  1  0  0  0
 16 20  1  0  0  0  0
 17 18  1  0  0  0  0
 17 34  1  0  0  0  0
 17 35  1  0  0  0  0
 18 19  1  0  0  0  0
 18 20  1  0  0  0  0
 18 36  1  6  0  0  0
 19 37  1  0  0  0  0
 20 21  1  0  0  0  0
 20 38  1  1  0  0  0
 21 22  1  0  0  0  0
 21 30  1  0  0  0  0
 22 23  2  0  0  0  0
 22 39  1  0  0  0  0
 23 24  1  0  0  0  0
 24 25  2  0  0  0  0
 24 30  1  0  0  0  0
 25 26  1  0  0  0  0
 25 27  1  0  0  0  0
 26 40  1  0  0  0  0
 26 41  1  0  0  0  0
 27 28  2  0  0  0  0
 28 29  1  0  0  0  0
 28 42  1  0  0  0  0
 29 30  2  0  0  0  0
M  END
