1xh6_ligand
 OpenBabel08222323343D

 76 80  0  0  1  0  0  0  0  0999 V2000
    1.0590   37.0850   17.1780 O   0  0  0  0  0  0  0  0  0  0  0  0
    2.0490   36.3820   16.9600 C   0  0  0  0  0  0  0  0  0  0  0  0
    2.9150   36.7430   15.8230 C   0  0  0  0  0  0  0  0  0  0  0  0
    3.2520   35.8760   14.7710 C   0  0  0  0  0  0  0  0  0  0  0  0
    4.0700   36.3320   13.7130 C   0  0  0  0  0  0  0  0  0  0  0  0
    4.5570   37.6370   13.7220 C   0  0  0  0  0  0  0  0  0  0  0  0
    4.2340   38.5370   14.7620 C   0  0  0  0  0  0  0  0  0  0  0  0
    4.7240   39.8280   14.7530 N   0  0  0  0  0  0  0  0  0  0  0  0
    5.0870   40.4190   13.4470 C   0  0  0  0  0  0  0  0  0  0  0  0
    6.1200   41.5400   13.6260 C   0  0  0  0  0  0  0  0  0  0  0  0
    5.6070   42.5680   14.6420 C   0  0  0  0  0  0  0  0  0  0  0  0
    5.3080   41.8820   15.9840 C   0  0  0  0  0  0  0  0  0  0  0  0
    4.2700   40.7680   15.7990 C   0  0  0  0  0  0  0  0  0  0  0  0
    3.4220   38.0680   15.8090 C   0  0  0  0  0  0  0  0  0  0  0  0
    2.7830   34.5790   14.7380 O   0  0  0  0  0  0  0  0  0  0  0  0
    2.3290   35.3920   17.9960 C   0  0  0  0  0  0  0  0  0  0  0  0
    3.6400   34.9000   18.1880 C   0  0  0  0  0  0  0  0  0  0  0  0
    3.8910   34.0040   19.2250 C   0  0  0  0  0  0  0  0  0  0  0  0
    1.2890   34.9850   18.8480 C   0  0  0  0  0  0  0  0  0  0  0  0
    1.5430   34.0910   19.8780 C   0  0  0  0  0  0  0  0  0  0  0  0
    2.8420   33.5940   20.0710 C   0  0  0  0  0  0  0  0  0  0  0  0
    3.1180   32.6760   21.1680 C   0  0  0  0  0  0  0  0  0  0  0  0
    2.3840   32.5910   22.1620 O   0  0  0  0  0  0  0  0  0  0  0  0
    4.3020   31.9500   21.1250 N   0  0  0  0  0  0  0  0  0  0  0  0
    4.8260   31.2720   22.3510 C   0  0  2  0  0  0  0  0  0  0  0  0
    5.3170   32.3850   23.3020 C   0  0  0  0  0  0  0  0  0  0  0  0
    6.3600   33.3590   22.7450 C   0  0  0  0  0  0  0  0  0  0  0  0
    7.7540   32.7450   22.7840 C   0  0  0  0  0  0  0  0  0  0  0  0
    7.8310   31.5730   21.8140 N   0  3  0  0  0  0  0  0  0  0  0  0
    7.2760   30.2750   22.3610 C   0  0  0  0  0  0  0  0  0  0  0  0
    5.7950   30.1130   21.9840 C   0  0  1  0  0  0  0  0  0  0  0  0
    5.3390   28.8370   22.5820 N   0  0  0  0  0  0  0  0  0  0  0  0
    5.1350   27.7290   21.7710 C   0  0  0  0  0  0  0  0  0  0  0  0
    5.0420   27.9100   20.5470 O   0  0  0  0  0  0  0  0  0  0  0  0
    4.9520   26.3930   22.3360 C   0  0  0  0  0  0  0  0  0  0  0  0
    4.7250   25.3160   21.4600 C   0  0  0  0  0  0  0  0  0  0  0  0
    4.5500   24.0400   21.9890 C   0  0  0  0  0  0  0  0  0  0  0  0
    4.5340   23.8190   23.3090 N   0  0  0  0  0  0  0  0  0  0  0  0
    4.7440   24.8330   24.1500 C   0  0  0  0  0  0  0  0  0  0  0  0
    4.9400   26.1380   23.7050 C   0  0  0  0  0  0  0  0  0  0  0  0
    4.3186   35.6663   12.8944 H   0  0  0  0  0  0  0  0  0  0  0  0
    5.1979   37.9693   12.9133 H   0  0  0  0  0  0  0  0  0  0  0  0
    4.1839   40.8326   12.9745 H   0  0  0  0  0  0  0  0  0  0  0  0
    5.5124   39.6359   12.8022 H   0  0  0  0  0  0  0  0  0  0  0  0
    6.2899   42.0367   12.6593 H   0  0  0  0  0  0  0  0  0  0  0  0
    7.0653   41.1099   13.9885 H   0  0  0  0  0  0  0  0  0  0  0  0
    4.6864   43.0312   14.2574 H   0  0  0  0  0  0  0  0  0  0  0  0
    6.3724   43.3435   14.7927 H   0  0  0  0  0  0  0  0  0  0  0  0
    4.9167   42.6272   16.6921 H   0  0  0  0  0  0  0  0  0  0  0  0
    6.2366   41.4486   16.3837 H   0  0  0  0  0  0  0  0  0  0  0  0
    4.1440   40.2254   16.7475 H   0  0  0  0  0  0  0  0  0  0  0  0
    3.3088   41.2110   15.4994 H   0  0  0  0  0  0  0  0  0  0  0  0
    3.1768   38.7359   16.6269 H   0  0  0  0  0  0  0  0  0  0  0  0
    3.5183   33.9778   14.7265 H   0  0  0  0  0  0  0  0  0  0  0  0
    4.4438   35.2173   17.5336 H   0  0  0  0  0  0  0  0  0  0  0  0
    4.8936   33.6224   19.3808 H   0  0  0  0  0  0  0  0  0  0  0  0
    0.2865   35.3700   18.7005 H   0  0  0  0  0  0  0  0  0  0  0  0
    0.7390   33.7763   20.5335 H   0  0  0  0  0  0  0  0  0  0  0  0
    4.8088   31.8801   20.2658 H   0  0  0  0  0  0  0  0  0  0  0  0
    3.9758   30.7907   22.8565 H   0  0  0  0  0  0  0  0  0  0  0  0
    5.7549   31.8983   24.1859 H   0  0  0  0  0  0  0  0  0  0  0  0
    4.4394   32.9748   23.6052 H   0  0  0  0  0  0  0  0  0  0  0  0
    6.3542   34.2775   23.3502 H   0  0  0  0  0  0  0  0  0  0  0  0
    6.1037   33.6042   21.7038 H   0  0  0  0  0  0  0  0  0  0  0  0
    7.9679   32.3899   23.8029 H   0  0  0  0  0  0  0  0  0  0  0  0
    8.4956   33.5051   22.4973 H   0  0  0  0  0  0  0  0  0  0  0  0
    8.7985   31.4259   21.5726 H   0  0  0  0  0  0  0  0  0  0  0  0
    7.3108   31.8144   20.9851 H   0  0  0  0  0  0  0  0  0  0  0  0
    7.3712   30.2754   23.4569 H   0  0  0  0  0  0  0  0  0  0  0  0
    7.8485   29.4336   21.9435 H   0  0  0  0  0  0  0  0  0  0  0  0
    5.7531   30.0151   20.8892 H   0  0  0  0  0  0  0  0  0  0  0  0
    5.1786   28.7739   23.5670 H   0  0  0  0  0  0  0  0  0  0  0  0
    4.6869   25.4771   20.3887 H   0  0  0  0  0  0  0  0  0  0  0  0
    4.4232   23.2022   21.3129 H   0  0  0  0  0  0  0  0  0  0  0  0
    4.7627   24.6345   25.2155 H   0  0  0  0  0  0  0  0  0  0  0  0
    5.0814   26.9448   24.4150 H   0  0  0  0  0  0  0  0  0  0  0  0
  1  2  2  0  0  0  0
  2  3  1  0  0  0  0
  2 16  1  0  0  0  0
  3  4  2  0  0  0  0
  3 14  1  0  0  0  0
  4  5  1  0  0  0  0
  4 15  1  0  0  0  0
  5  6  2  0  0  0  0
  5 41  1  0  0  0  0
  6  7  1  0  0  0  0
  6 42  1  0  0  0  0
  7  8  1  0  0  0  0
  7 14  2  0  0  0  0
  8  9  1  0  0  0  0
  8 13  1  0  0  0  0
  9 10  1  0  0  0  0
  9 43  1  0  0  0  0
  9 44  1  0  0  0  0
 10 11  1  0  0  0  0
 10 45  1  0  0  0  0
 10 46  1  0  0  0  0
 11 12  1  0  0  0  0
 11 47  1  0  0  0  0
 11 48  1  0  0  0  0
 12 13  1  0  0  0  0
 12 49  1  0  0  0  0
 12 50  1  0  0  0  0
 13 51  1  0  0  0  0
 13 52  1  0  0  0  0
 14 53  1  0  0  0  0
 15 54  1  0  0  0  0
 16 17  2  0  0  0  0
 16 19  1  0  0  0  0
 17 18  1  0  0  0  0
 17 55  1  0  0  0  0
 18 21  2  0  0  0  0
 18 56  1  0  0  0  0
 19 20  2  0  0  0  0
 19 57  1  0  0  0  0
 20 21  1  0  0  0  0
 20 58  1  0  0  0  0
 21 22  1  0  0  0  0
 22 23  2  0  0  0  0
 22 24  1  0  0  0  0
 24 25  1  0  0  0  0
 24 59  1  0  0  0  0
 25 26  1  0  0  0  0
 25 31  1  0  0  0  0
 25 60  1  1  0  0  0
 26 27  1  0  0  0  0
 26 61  1  0  0  0  0
 26 62  1  0  0  0  0
 27 28  1  0  0  0  0
 27 63  1  0  0  0  0
 27 64  1  0  0  0  0
 28 29  1  0  0  0  0
 28 65  1  0  0  0  0
 28 66  1  0  0  0  0
 29 30  1  0  0  0  0
 29 67  1  0  0  0  0
 29 68  1  0  0  0  0
 30 31  1  0  0  0  0
 30 69  1  0  0  0  0
 30 70  1  0  0  0  0
 31 32  1  0  0  0  0
 31 71  1  6  0  0  0
 32 33  1  0  0  0  0
 32 72  1  0  0  0  0
 33 34  2  0  0  0  0
 33 35  1  0  0  0  0
 35 36  2  0  0  0  0
 35 40  1  0  0  0  0
 36 37  1  0  0  0  0
 36 73  1  0  0  0  0
 37 38  2  0  0  0  0
 37 74  1  0  0  0  0
 38 39  1  0  0  0  0
 39 40  2  0  0  0  0
 39 75  1  0  0  0  0
 40 76  1  0  0  0  0
M  CHG  1  29   1
M  END
