1xh7_ligand
 OpenBabel08222323343D

 82 86  0  0  1  0  0  0  0  0999 V2000
    7.2550    9.2200    1.5990 O   0  0  0  0  0  0  0  0  0  0  0  0
    7.1140    9.2490    2.8150 C   0  0  0  0  0  0  0  0  0  0  0  0
    5.8160    9.4150    3.4710 C   0  0  0  0  0  0  0  0  0  0  0  0
    4.6640    9.6220    2.7130 C   0  0  0  0  0  0  0  0  0  0  0  0
    3.4280    9.7470    3.3420 C   0  0  0  0  0  0  0  0  0  0  0  0
    3.3400    9.7130    4.6700 N   0  0  0  0  0  0  0  0  0  0  0  0
    4.4130    9.5140    5.4430 C   0  0  0  0  0  0  0  0  0  0  0  0
    5.6650    9.3590    4.8640 C   0  0  0  0  0  0  0  0  0  0  0  0
    8.2530    9.1150    3.5910 N   0  0  0  0  0  0  0  0  0  0  0  0
    9.5620    8.7770    2.9980 C   0  0  2  0  0  0  0  0  0  0  0  0
    9.8560    7.3430    3.4360 C   0  0  0  0  0  0  0  0  0  0  0  0
   11.1320    6.8610    2.8810 N   0  3  0  0  0  0  0  0  0  0  0  0
   12.2370    7.0400    3.8210 C   0  0  0  0  0  0  0  0  0  0  0  0
   12.8030    8.4720    3.7340 C   0  0  0  0  0  0  0  0  0  0  0  0
   11.7990    9.4990    4.2980 C   0  0  0  0  0  0  0  0  0  0  0  0
   10.6270    9.8850    3.3410 C   0  0  1  0  0  0  0  0  0  0  0  0
   11.1130   10.5010    2.0760 N   0  0  0  0  0  0  0  0  0  0  0  0
   11.8290   11.6940    2.0960 C   0  0  0  0  0  0  0  0  0  0  0  0
   11.7920   12.4130    3.0990 O   0  0  0  0  0  0  0  0  0  0  0  0
   12.6450   12.0500    0.9570 C   0  0  0  0  0  0  0  0  0  0  0  0
   12.9490   13.4010    0.7040 C   0  0  0  0  0  0  0  0  0  0  0  0
   13.7650   13.7430   -0.3730 C   0  0  0  0  0  0  0  0  0  0  0  0
   13.1450   11.0400    0.1400 C   0  0  0  0  0  0  0  0  0  0  0  0
   13.9490   11.3800   -0.9360 C   0  0  0  0  0  0  0  0  0  0  0  0
   14.2490   12.7180   -1.2040 C   0  0  0  0  0  0  0  0  0  0  0  0
   15.1220   13.0330   -2.3330 C   0  0  0  0  0  0  0  0  0  0  0  0
   15.8390   14.0520   -2.2330 O   0  0  0  0  0  0  0  0  0  0  0  0
   15.3260   12.1950   -3.5210 C   0  0  0  0  0  0  0  0  0  0  0  0
   14.4090   11.8770   -4.5530 C   0  0  0  0  0  0  0  0  0  0  0  0
   13.1080   12.2590   -4.5980 O   0  0  0  0  0  0  0  0  0  0  0  0
   14.8050   11.0920   -5.6290 C   0  0  0  0  0  0  0  0  0  0  0  0
   16.1040   10.5870   -5.7060 C   0  0  0  0  0  0  0  0  0  0  0  0
   16.6270   11.6820   -3.6080 C   0  0  0  0  0  0  0  0  0  0  0  0
   17.0360   10.8890   -4.6980 C   0  0  0  0  0  0  0  0  0  0  0  0
   18.3840   10.3860   -4.7750 N   0  0  0  0  0  0  0  0  0  0  0  0
   18.8920    9.9130   -6.0970 C   0  0  0  0  0  0  0  0  0  0  0  0
   20.4130    9.6220   -6.2180 C   0  0  0  0  0  0  0  0  0  0  0  0
   21.2940   10.3330   -5.1880 C   0  0  0  0  0  0  0  0  0  0  0  0
   20.7660   10.0420   -3.7800 C   0  0  0  0  0  0  0  0  0  0  0  0
   21.7940   10.6660   -2.8030 C   0  0  0  0  0  0  0  0  0  0  0  0
   20.6980    8.5480   -3.4320 C   0  0  0  0  0  0  0  0  0  0  0  0
   19.3430   10.6340   -3.6400 C   0  0  0  0  0  0  0  0  0  0  0  0
    4.7307    9.6857    1.6329 H   0  0  0  0  0  0  0  0  0  0  0  0
    2.5312    9.8729    2.7462 H   0  0  0  0  0  0  0  0  0  0  0  0
    4.3051    9.4738    6.5209 H   0  0  0  0  0  0  0  0  0  0  0  0
    6.5321    9.1935    5.4931 H   0  0  0  0  0  0  0  0  0  0  0  0
    8.1871    9.2508    4.5795 H   0  0  0  0  0  0  0  0  0  0  0  0
    9.4635    8.7704    1.9024 H   0  0  0  0  0  0  0  0  0  0  0  0
    9.0440    6.6886    3.0862 H   0  0  0  0  0  0  0  0  0  0  0  0
    9.9078    7.3080    4.5342 H   0  0  0  0  0  0  0  0  0  0  0  0
   11.3352    7.3742    2.0376 H   0  0  0  0  0  0  0  0  0  0  0  0
   11.0437    5.8805    2.6647 H   0  0  0  0  0  0  0  0  0  0  0  0
   13.0347    6.3217    3.5810 H   0  0  0  0  0  0  0  0  0  0  0  0
   11.8742    6.8571    4.8432 H   0  0  0  0  0  0  0  0  0  0  0  0
   13.0109    8.7132    2.6811 H   0  0  0  0  0  0  0  0  0  0  0  0
   13.7363    8.5257    4.3137 H   0  0  0  0  0  0  0  0  0  0  0  0
   12.3537   10.4169    4.5426 H   0  0  0  0  0  0  0  0  0  0  0  0
   11.3629    9.0784    5.2161 H   0  0  0  0  0  0  0  0  0  0  0  0
   10.0717   10.6683    3.8777 H   0  0  0  0  0  0  0  0  0  0  0  0
   10.9229   10.0527    1.2025 H   0  0  0  0  0  0  0  0  0  0  0  0
   12.5482   14.1760    1.3473 H   0  0  0  0  0  0  0  0  0  0  0  0
   14.0211   14.7785   -0.5658 H   0  0  0  0  0  0  0  0  0  0  0  0
   12.9086   10.0017    0.3428 H   0  0  0  0  0  0  0  0  0  0  0  0
   14.3487   10.6012   -1.5754 H   0  0  0  0  0  0  0  0  0  0  0  0
   12.7068   11.9201   -5.3897 H   0  0  0  0  0  0  0  0  0  0  0  0
   14.0963   10.8690   -6.4184 H   0  0  0  0  0  0  0  0  0  0  0  0
   16.3940    9.9621   -6.5429 H   0  0  0  0  0  0  0  0  0  0  0  0
   17.3358   11.9006   -2.8175 H   0  0  0  0  0  0  0  0  0  0  0  0
   18.6440   10.6847   -6.8406 H   0  0  0  0  0  0  0  0  0  0  0  0
   18.3581    8.9829   -6.3416 H   0  0  0  0  0  0  0  0  0  0  0  0
   20.7410    9.9343   -7.2204 H   0  0  0  0  0  0  0  0  0  0  0  0
   20.5627    8.5382   -6.1042 H   0  0  0  0  0  0  0  0  0  0  0  0
   21.2713   11.4173   -5.3716 H   0  0  0  0  0  0  0  0  0  0  0  0
   22.3280    9.9679   -5.2749 H   0  0  0  0  0  0  0  0  0  0  0  0
   21.4691   10.4896   -1.7670 H   0  0  0  0  0  0  0  0  0  0  0  0
   21.8637   11.7484   -2.9861 H   0  0  0  0  0  0  0  0  0  0  0  0
   22.7790   10.2030   -2.9622 H   0  0  0  0  0  0  0  0  0  0  0  0
   19.9787    8.0488   -4.0979 H   0  0  0  0  0  0  0  0  0  0  0  0
   20.3742    8.4292   -2.3875 H   0  0  0  0  0  0  0  0  0  0  0  0
   21.6923    8.0957   -3.5614 H   0  0  0  0  0  0  0  0  0  0  0  0
   18.8955   10.2101   -2.7289 H   0  0  0  0  0  0  0  0  0  0  0  0
   19.4466   11.7231   -3.5251 H   0  0  0  0  0  0  0  0  0  0  0  0
  1  2  2  0  0  0  0
  2  3  1  0  0  0  0
  2  9  1  0  0  0  0
  3  4  2  0  0  0  0
  3  8  1  0  0  0  0
  4  5  1  0  0  0  0
  4 43  1  0  0  0  0
  5  6  2  0  0  0  0
  5 44  1  0  0  0  0
  6  7  1  0  0  0  0
  7  8  2  0  0  0  0
  7 45  1  0  0  0  0
  8 46  1  0  0  0  0
  9 10  1  0  0  0  0
  9 47  1  0  0  0  0
 10 11  1  0  0  0  0
 10 16  1  0  0  0  0
 10 48  1  6  0  0  0
 11 12  1  0  0  0  0
 11 49  1  0  0  0  0
 11 50  1  0  0  0  0
 12 13  1  0  0  0  0
 12 51  1  0  0  0  0
 12 52  1  0  0  0  0
 13 14  1  0  0  0  0
 13 53  1  0  0  0  0
 13 54  1  0  0  0  0
 14 15  1  0  0  0  0
 14 55  1  0  0  0  0
 14 56  1  0  0  0  0
 15 16  1  0  0  0  0
 15 57  1  0  0  0  0
 15 58  1  0  0  0  0
 16 17  1  0  0  0  0
 16 59  1  1  0  0  0
 17 18  1  0  0  0  0
 17 60  1  0  0  0  0
 18 19  2  0  0  0  0
 18 20  1  0  0  0  0
 20 21  2  0  0  0  0
 20 23  1  0  0  0  0
 21 22  1  0  0  0  0
 21 61  1  0  0  0  0
 22 25  2  0  0  0  0
 22 62  1  0  0  0  0
 23 24  2  0  0  0  0
 23 63  1  0  0  0  0
 24 25  1  0  0  0  0
 24 64  1  0  0  0  0
 25 26  1  0  0  0  0
 26 27  2  0  0  0  0
 26 28  1  0  0  0  0
 28 29  2  0  0  0  0
 28 33  1  0  0  0  0
 29 30  1  0  0  0  0
 29 31  1  0  0  0  0
 30 65  1  0  0  0  0
 31 32  2  0  0  0  0
 31 66  1  0  0  0  0
 32 34  1  0  0  0  0
 32 67  1  0  0  0  0
 33 34  2  0  0  0  0
 33 68  1  0  0  0  0
 34 35  1  0  0  0  0
 35 36  1  0  0  0  0
 35 42  1  0  0  0  0
 36 37  1  0  0  0  0
 36 69  1  0  0  0  0
 36 70  1  0  0  0  0
 37 38  1  0  0  0  0
 37 71  1  0  0  0  0
 37 72  1  0  0  0  0
 38 39  1  0  0  0  0
 38 73  1  0  0  0  0
 38 74  1  0  0  0  0
 39 40  1  0  0  0  0
 39 41  1  0  0  0  0
 39 42  1  0  0  0  0
 40 75  1  0  0  0  0
 40 76  1  0  0  0  0
 40 77  1  0  0  0  0
 41 78  1  0  0  0  0
 41 79  1  0  0  0  0
 41 80  1  0  0  0  0
 42 81  1  0  0  0  0
 42 82  1  0  0  0  0
M  CHG  1  12   1
M  END
