1xlx_ligand
 OpenBabel08222323343D

 49 51  0  0  1  0  0  0  0  0999 V2000
    7.9420    4.6870   -6.5890 O   0  5  0  0  0  0  0  0  0  0  0  0
    7.5860    3.4940   -6.9050 C   0  0  0  0  0  0  0  0  0  0  0  0
    8.3870    2.5060   -6.9390 O   0  0  0  0  0  0  0  0  0  0  0  0
    6.1320    3.2870   -7.3190 C   0  0  1  0  0  0  0  0  0  0  0  0
    6.0640    2.7220   -8.7220 C   0  0  0  0  0  0  0  0  0  0  0  0
    4.6350    2.7440   -9.2690 C   0  0  0  0  0  0  0  0  0  0  0  0
    5.3430    2.3310   -6.4460 C   0  0  0  0  0  0  0  0  0  0  0  0
    3.8900    2.3100   -6.9890 C   0  0  0  0  0  0  0  0  0  0  0  0
    3.7010    1.8680   -8.4480 C   0  0  2  0  0  0  0  0  0  0  0  0
    4.1120    0.4820   -8.6500 C   0  0  0  0  0  0  0  0  0  0  0  0
    4.4000   -0.6190   -8.8760 N   0  0  0  0  0  0  0  0  0  0  0  0
    2.2530    1.8440   -8.9660 C   0  0  0  0  0  0  0  0  0  0  0  0
    1.1400    2.1900   -8.1900 C   0  0  0  0  0  0  0  0  0  0  0  0
   -0.1550    2.1250   -8.7190 C   0  0  0  0  0  0  0  0  0  0  0  0
   -0.4000    1.7080  -10.0480 C   0  0  0  0  0  0  0  0  0  0  0  0
   -1.6840    1.6250  -10.6010 O   0  0  0  0  0  0  0  0  0  0  0  0
   -2.8660    1.8650   -9.8090 C   0  0  0  0  0  0  0  0  0  0  0  0
    0.6990    1.3670  -10.8250 C   0  0  0  0  0  0  0  0  0  0  0  0
    2.0010    1.4220  -10.2850 C   0  0  0  0  0  0  0  0  0  0  0  0
    0.4640    0.9490  -12.1020 O   0  0  0  0  0  0  0  0  0  0  0  0
    1.6130    0.8440  -12.9960 C   0  0  0  0  0  0  0  0  0  0  0  0
    1.5100   -0.4340  -13.7600 C   0  0  0  0  0  0  0  0  0  0  0  0
    0.4070   -0.1240  -14.7200 C   0  0  0  0  0  0  0  0  0  0  0  0
    0.4930    1.3530  -14.9750 C   0  0  0  0  0  0  0  0  0  0  0  0
    1.6120    1.8690  -14.1020 C   0  0  0  0  0  0  0  0  0  0  0  0
    5.6363    4.2687   -7.2953 H   0  0  0  0  0  0  0  0  0  0  0  0
    6.4243    1.6828   -8.7063 H   0  0  0  0  0  0  0  0  0  0  0  0
    6.7077    3.3234   -9.3807 H   0  0  0  0  0  0  0  0  0  0  0  0
    4.6454    2.3784  -10.3064 H   0  0  0  0  0  0  0  0  0  0  0  0
    4.2620    3.7786   -9.2485 H   0  0  0  0  0  0  0  0  0  0  0  0
    5.3507    2.6792   -5.4026 H   0  0  0  0  0  0  0  0  0  0  0  0
    5.7802    1.3231   -6.4995 H   0  0  0  0  0  0  0  0  0  0  0  0
    3.4851    3.3284   -6.8950 H   0  0  0  0  0  0  0  0  0  0  0  0
    3.3082    1.6241   -6.3557 H   0  0  0  0  0  0  0  0  0  0  0  0
    1.2828    2.5128   -7.1651 H   0  0  0  0  0  0  0  0  0  0  0  0
   -0.9942    2.4024   -8.0915 H   0  0  0  0  0  0  0  0  0  0  0  0
   -3.7598    1.7475  -10.4394 H   0  0  0  0  0  0  0  0  0  0  0  0
   -2.8347    2.8873   -9.4040 H   0  0  0  0  0  0  0  0  0  0  0  0
   -2.9047    1.1432   -8.9799 H   0  0  0  0  0  0  0  0  0  0  0  0
    2.8379    1.1286  -10.9084 H   0  0  0  0  0  0  0  0  0  0  0  0
    2.5425    0.8991  -12.4104 H   0  0  0  0  0  0  0  0  0  0  0  0
    1.2446   -1.2745  -13.1019 H   0  0  0  0  0  0  0  0  0  0  0  0
    2.4479   -0.6630  -14.2871 H   0  0  0  0  0  0  0  0  0  0  0  0
   -0.5679   -0.3810  -14.2800 H   0  0  0  0  0  0  0  0  0  0  0  0
    0.5455   -0.6835  -15.6569 H   0  0  0  0  0  0  0  0  0  0  0  0
   -0.4554    1.8417  -14.7071 H   0  0  0  0  0  0  0  0  0  0  0  0
    0.7175    1.5442  -16.0347 H   0  0  0  0  0  0  0  0  0  0  0  0
    2.5709    1.8823  -14.6408 H   0  0  0  0  0  0  0  0  0  0  0  0
    1.3929    2.8764  -13.7185 H   0  0  0  0  0  0  0  0  0  0  0  0
  1  2  1  0  0  0  0
  2  3  2  0  0  0  0
  2  4  1  0  0  0  0
  4  5  1  0  0  0  0
  4  7  1  0  0  0  0
  4 26  1  1  0  0  0
  5  6  1  0  0  0  0
  5 27  1  0  0  0  0
  5 28  1  0  0  0  0
  6  9  1  0  0  0  0
  6 29  1  0  0  0  0
  6 30  1  0  0  0  0
  7  8  1  0  0  0  0
  7 31  1  0  0  0  0
  7 32  1  0  0  0  0
  8  9  1  0  0  0  0
  8 33  1  0  0  0  0
  8 34  1  0  0  0  0
  9 10  1  6  0  0  0
  9 12  1  0  0  0  0
 10 11  3  0  0  0  0
 12 13  2  0  0  0  0
 12 19  1  0  0  0  0
 13 14  1  0  0  0  0
 13 35  1  0  0  0  0
 14 15  2  0  0  0  0
 14 36  1  0  0  0  0
 15 16  1  0  0  0  0
 15 18  1  0  0  0  0
 16 17  1  0  0  0  0
 17 37  1  0  0  0  0
 17 38  1  0  0  0  0
 17 39  1  0  0  0  0
 18 19  2  0  0  0  0
 18 20  1  0  0  0  0
 19 40  1  0  0  0  0
 20 21  1  0  0  0  0
 21 22  1  0  0  0  0
 21 25  1  0  0  0  0
 21 41  1  0  0  0  0
 22 23  1  0  0  0  0
 22 42  1  0  0  0  0
 22 43  1  0  0  0  0
 23 24  1  0  0  0  0
 23 44  1  0  0  0  0
 23 45  1  0  0  0  0
 24 25  1  0  0  0  0
 24 46  1  0  0  0  0
 24 47  1  0  0  0  0
 25 48  1  0  0  0  0
 25 49  1  0  0  0  0
M  CHG  1   1  -1
M  END
