1xm4_ligand
 OpenBabel08222323343D

 43 45  0  0  0  0  0  0  0  0999 V2000
   84.2230    4.1420   62.1940 Cl  0  0  0  0  0  0  0  0  0  0  0  0
   83.7590    3.1500   60.8640 C   0  0  0  0  0  0  0  0  0  0  0  0
   82.4610    3.2340   60.4140 C   0  0  0  0  0  0  0  0  0  0  0  0
   82.1200    2.4890   59.3530 N   0  0  0  0  0  0  0  0  0  0  0  0
   83.0170    1.6920   58.7430 C   0  0  0  0  0  0  0  0  0  0  0  0
   84.3220    1.6080   59.2090 C   0  0  0  0  0  0  0  0  0  0  0  0
   85.4620    0.5040   58.4430 Cl  0  0  0  0  0  0  0  0  0  0  0  0
   84.7170    2.3150   60.3070 C   0  0  0  0  0  0  0  0  0  0  0  0
   86.0210    2.2750   60.8080 N   0  0  0  0  0  0  0  0  0  0  0  0
   86.2890    1.8620   62.0590 C   0  0  0  0  0  0  0  0  0  0  0  0
   85.4190    1.5040   62.8300 O   0  0  0  0  0  0  0  0  0  0  0  0
   87.6950    1.9120   62.5860 C   0  0  0  0  0  0  0  0  0  0  0  0
   88.7810    2.2920   61.7990 C   0  0  0  0  0  0  0  0  0  0  0  0
   90.0540    2.3500   62.3450 C   0  0  0  0  0  0  0  0  0  0  0  0
   90.2810    2.0350   63.6840 C   0  0  0  0  0  0  0  0  0  0  0  0
   91.5310    2.0800   64.3100 O   0  0  0  0  0  0  0  0  0  0  0  0
   92.7290    2.3910   63.5910 C   0  0  0  0  0  0  0  0  0  0  0  0
   89.2070    1.6580   64.4510 C   0  0  0  0  0  0  0  0  0  0  0  0
   87.9190    1.5910   63.9060 C   0  0  0  0  0  0  0  0  0  0  0  0
   89.4720    1.3550   65.7500 O   0  0  0  0  0  0  0  0  0  0  0  0
   88.4730    0.7980   66.6020 C   0  0  0  0  0  0  0  0  0  0  0  0
   87.4590    1.8730   66.9680 C   0  0  0  0  0  0  0  0  0  0  0  0
   87.9550    2.4290   68.2830 C   0  0  0  0  0  0  0  0  0  0  0  0
   88.6440    1.2750   68.9620 C   0  0  0  0  0  0  0  0  0  0  0  0
   89.1190    0.3490   67.8870 C   0  0  0  0  0  0  0  0  0  0  0  0
   81.7395    3.8802   60.9007 H   0  0  0  0  0  0  0  0  0  0  0  0
   82.7173    1.1098   57.8791 H   0  0  0  0  0  0  0  0  0  0  0  0
   86.7765    2.5618   60.2190 H   0  0  0  0  0  0  0  0  0  0  0  0
   88.6295    2.5433   60.7555 H   0  0  0  0  0  0  0  0  0  0  0  0
   90.8883    2.6457   61.7192 H   0  0  0  0  0  0  0  0  0  0  0  0
   93.5862    2.3691   64.2800 H   0  0  0  0  0  0  0  0  0  0  0  0
   92.6406    3.3937   63.1474 H   0  0  0  0  0  0  0  0  0  0  0  0
   92.8809    1.6492   62.7931 H   0  0  0  0  0  0  0  0  0  0  0  0
   87.0884    1.2828   64.5307 H   0  0  0  0  0  0  0  0  0  0  0  0
   87.9766   -0.0465   66.1016 H   0  0  0  0  0  0  0  0  0  0  0  0
   86.4555    1.4377   67.0837 H   0  0  0  0  0  0  0  0  0  0  0  0
   87.4312    2.6592   66.1992 H   0  0  0  0  0  0  0  0  0  0  0  0
   87.1129    2.7886   68.8925 H   0  0  0  0  0  0  0  0  0  0  0  0
   88.6621    3.2540   68.1114 H   0  0  0  0  0  0  0  0  0  0  0  0
   87.9390    0.7524   69.6252 H   0  0  0  0  0  0  0  0  0  0  0  0
   89.4990    1.6397   69.5502 H   0  0  0  0  0  0  0  0  0  0  0  0
   90.2141    0.4032   67.7984 H   0  0  0  0  0  0  0  0  0  0  0  0
   88.8205   -0.6840   68.1191 H   0  0  0  0  0  0  0  0  0  0  0  0
  1  2  1  0  0  0  0
  2  3  2  0  0  0  0
  2  8  1  0  0  0  0
  3  4  1  0  0  0  0
  3 26  1  0  0  0  0
  4  5  2  0  0  0  0
  5  6  1  0  0  0  0
  5 27  1  0  0  0  0
  6  7  1  0  0  0  0
  6  8  2  0  0  0  0
  8  9  1  0  0  0  0
  9 10  1  0  0  0  0
  9 28  1  0  0  0  0
 10 11  2  0  0  0  0
 10 12  1  0  0  0  0
 12 13  2  0  0  0  0
 12 19  1  0  0  0  0
 13 14  1  0  0  0  0
 13 29  1  0  0  0  0
 14 15  2  0  0  0  0
 14 30  1  0  0  0  0
 15 16  1  0  0  0  0
 15 18  1  0  0  0  0
 16 17  1  0  0  0  0
 17 31  1  0  0  0  0
 17 32  1  0  0  0  0
 17 33  1  0  0  0  0
 18 19  2  0  0  0  0
 18 20  1  0  0  0  0
 19 34  1  0  0  0  0
 20 21  1  0  0  0  0
 21 22  1  0  0  0  0
 21 25  1  0  0  0  0
 21 35  1  0  0  0  0
 22 23  1  0  0  0  0
 22 36  1  0  0  0  0
 22 37  1  0  0  0  0
 23 24  1  0  0  0  0
 23 38  1  0  0  0  0
 23 39  1  0  0  0  0
 24 25  1  0  0  0  0
 24 40  1  0  0  0  0
 24 41  1  0  0  0  0
 25 42  1  0  0  0  0
 25 43  1  0  0  0  0
M  END
