1xmy_ligand
 OpenBabel08222323343D

 41 43  0  0  1  0  0  0  0  0999 V2000
   42.7690    1.9210   61.6930 C   0  0  0  0  0  0  0  0  0  0  0  0
   42.8690    1.6580   63.0710 C   0  0  0  0  0  0  0  0  0  0  0  0
   44.1190    1.4740   63.7140 C   0  0  0  0  0  0  0  0  0  0  0  0
   45.2880    1.5110   62.9460 C   0  0  0  0  0  0  0  0  0  0  0  0
   45.1830    1.7440   61.5780 C   0  0  0  0  0  0  0  0  0  0  0  0
   43.9520    1.9370   60.9670 C   0  0  0  0  0  0  0  0  0  0  0  0
   41.4730    2.1000   60.8260 C   0  0  1  0  0  0  0  0  0  0  0  0
   40.4790    1.0970   61.4040 C   0  0  0  0  0  0  0  0  0  0  0  0
   39.7570    2.0300   62.2930 C   0  0  0  0  0  0  0  0  0  0  0  0
   38.9610    1.6460   63.1230 O   0  0  0  0  0  0  0  0  0  0  0  0
   40.1640    3.2950   62.0950 N   0  0  0  0  0  0  0  0  0  0  0  0
   40.9230    3.5040   60.8930 C   0  0  0  0  0  0  0  0  0  0  0  0
   44.2790    1.2380   65.1040 O   0  0  0  0  0  0  0  0  0  0  0  0
   43.1130    1.3130   65.9190 C   0  0  0  0  0  0  0  0  0  0  0  0
   42.5890   -0.0590   66.3550 C   0  0  0  0  0  0  0  0  0  0  0  0
   42.6170    0.0890   67.9000 C   0  0  0  0  0  0  0  0  0  0  0  0
   43.9760    0.7200   68.1660 C   0  0  0  0  0  0  0  0  0  0  0  0
   43.9160    1.8620   67.1350 C   0  0  0  0  0  0  0  0  0  0  0  0
   46.5620    1.3250   63.5180 O   0  0  0  0  0  0  0  0  0  0  0  0
   47.7590    1.9950   63.0260 C   0  0  0  0  0  0  0  0  0  0  0  0
   41.9614    1.5939   63.6602 H   0  0  0  0  0  0  0  0  0  0  0  0
   46.0837    1.7755   60.9757 H   0  0  0  0  0  0  0  0  0  0  0  0
   43.9134    2.1043   59.8967 H   0  0  0  0  0  0  0  0  0  0  0  0
   41.6897    1.8571   59.7753 H   0  0  0  0  0  0  0  0  0  0  0  0
   40.9758    0.2886   61.9605 H   0  0  0  0  0  0  0  0  0  0  0  0
   39.8254    0.6635   60.6327 H   0  0  0  0  0  0  0  0  0  0  0  0
   39.9548    4.0343   62.7350 H   0  0  0  0  0  0  0  0  0  0  0  0
   40.2924    3.7577   60.0281 H   0  0  0  0  0  0  0  0  0  0  0  0
   41.7081    4.2654   61.0103 H   0  0  0  0  0  0  0  0  0  0  0  0
   42.3145    1.9586   65.5244 H   0  0  0  0  0  0  0  0  0  0  0  0
   43.2496   -0.8702   66.0151 H   0  0  0  0  0  0  0  0  0  0  0  0
   41.5686   -0.2377   65.9850 H   0  0  0  0  0  0  0  0  0  0  0  0
   42.5348   -0.8916   68.3915 H   0  0  0  0  0  0  0  0  0  0  0  0
   41.8039    0.7430   68.2481 H   0  0  0  0  0  0  0  0  0  0  0  0
   44.8018    0.0227   67.9617 H   0  0  0  0  0  0  0  0  0  0  0  0
   44.0612    1.0977   69.1956 H   0  0  0  0  0  0  0  0  0  0  0  0
   43.4055    2.7364   67.5648 H   0  0  0  0  0  0  0  0  0  0  0  0
   44.9316    2.1470   66.8231 H   0  0  0  0  0  0  0  0  0  0  0  0
   48.6250    1.6903   63.6320 H   0  0  0  0  0  0  0  0  0  0  0  0
   47.6256    3.0844   63.0989 H   0  0  0  0  0  0  0  0  0  0  0  0
   47.9300    1.7159   61.9758 H   0  0  0  0  0  0  0  0  0  0  0  0
  1  2  2  0  0  0  0
  1  6  1  0  0  0  0
  1  7  1  0  0  0  0
  2  3  1  0  0  0  0
  2 21  1  0  0  0  0
  3  4  2  0  0  0  0
  3 13  1  0  0  0  0
  4  5  1  0  0  0  0
  4 19  1  0  0  0  0
  5  6  2  0  0  0  0
  5 22  1  0  0  0  0
  6 23  1  0  0  0  0
  7  8  1  0  0  0  0
  7 12  1  0  0  0  0
  7 24  1  6  0  0  0
  8  9  1  0  0  0  0
  8 25  1  0  0  0  0
  8 26  1  0  0  0  0
  9 10  2  0  0  0  0
  9 11  1  0  0  0  0
 11 12  1  0  0  0  0
 11 27  1  0  0  0  0
 12 28  1  0  0  0  0
 12 29  1  0  0  0  0
 13 14  1  0  0  0  0
 14 15  1  0  0  0  0
 14 18  1  0  0  0  0
 14 30  1  0  0  0  0
 15 16  1  0  0  0  0
 15 31  1  0  0  0  0
 15 32  1  0  0  0  0
 16 17  1  0  0  0  0
 16 33  1  0  0  0  0
 16 34  1  0  0  0  0
 17 18  1  0  0  0  0
 17 35  1  0  0  0  0
 17 36  1  0  0  0  0
 18 37  1  0  0  0  0
 18 38  1  0  0  0  0
 19 20  1  0  0  0  0
 20 39  1  0  0  0  0
 20 40  1  0  0  0  0
 20 41  1  0  0  0  0
M  END
