1xn3_ligand
 OpenBabel08222323343D

231231  0  0  1  0  0  0  0  0999 V2000
   13.9050   70.0070   19.5250 N   0  3  0  0  0  0  0  0  0  0  0  0
   14.3590   70.9760   20.5730 C   0  0  2  0  0  0  0  0  0  0  0  0
   13.3170   71.0870   21.6970 C   0  0  0  0  0  0  0  0  0  0  0  0
   12.4160   70.2450   21.7990 O   0  0  0  0  0  0  0  0  0  0  0  0
   14.6000   72.3580   19.9450 C   0  0  0  0  0  0  0  0  0  0  0  0
   15.6940   72.4030   18.8710 C   0  0  0  0  0  0  0  0  0  0  0  0
   15.3250   71.5780   17.6490 C   0  0  0  0  0  0  0  0  0  0  0  0
   16.3910   71.6630   16.5780 C   0  0  0  0  0  0  0  0  0  0  0  0
   16.0490   70.7890   15.4220 N   0  3  0  0  0  0  0  0  0  0  0  0
   13.4490   72.1180   22.5380 N   0  0  0  0  0  0  0  0  0  0  0  0
   12.5200   72.3480   23.6560 C   0  0  2  0  0  0  0  0  0  0  0  0
   12.5700   73.8030   24.1780 C   0  0  0  0  0  0  0  0  0  0  0  0
   11.7500   74.1980   25.0200 O   0  0  0  0  0  0  0  0  0  0  0  0
   12.8150   71.3830   24.8570 C   0  0  2  0  0  0  0  0  0  0  0  0
   12.8620   70.0240   24.3970 O   0  0  0  0  0  0  0  0  0  0  0  0
   11.7210   71.4960   25.9140 C   0  0  0  0  0  0  0  0  0  0  0  0
   13.5260   74.5890   23.6720 N   0  0  0  0  0  0  0  0  0  0  0  0
   13.7160   75.9950   24.0760 C   0  0  2  0  0  0  0  0  0  0  0  0
   12.6180   76.9400   23.5650 C   0  0  0  0  0  0  0  0  0  0  0  0
   12.4250   77.0780   22.3510 O   0  0  0  0  0  0  0  0  0  0  0  0
   15.0760   76.5100   23.5760 C   0  0  0  0  0  0  0  0  0  0  0  0
   16.2770   75.6390   23.9510 C   0  0  0  0  0  0  0  0  0  0  0  0
   17.6080   76.2080   23.4510 C   0  0  0  0  0  0  0  0  0  0  0  0
   17.9270   77.3710   23.7980 O   0  5  0  0  0  0  0  0  0  0  0  0
   18.3350   75.4940   22.7180 O   0  0  0  0  0  0  0  0  0  0  0  0
   11.9130   77.6010   24.4860 N   0  0  0  0  0  0  0  0  0  0  0  0
   10.8440   78.5270   24.1040 C   0  0  2  0  0  0  0  0  0  0  0  0
   10.4490   79.5570   25.1670 C   0  0  0  0  0  0  0  0  0  0  0  0
   10.4280   79.2660   26.3680 O   0  0  0  0  0  0  0  0  0  0  0  0
    9.5960   77.7480   23.6550 C   0  0  0  0  0  0  0  0  0  0  0  0
    9.3770   76.3910   24.3340 C   0  0  0  0  0  0  0  0  0  0  0  0
    9.2730   76.4770   25.8450 C   0  0  0  0  0  0  0  0  0  0  0  0
    8.4740   77.3030   26.3350 O   0  5  0  0  0  0  0  0  0  0  0  0
    9.9800   75.7080   26.5390 O   0  0  0  0  0  0  0  0  0  0  0  0
   10.1260   80.7590   24.6920 N   0  0  0  0  0  0  0  0  0  0  0  0
    9.7230   81.8910   25.5240 C   0  0  2  0  0  0  0  0  0  0  0  0
    8.2030   81.8810   25.7270 C   0  0  0  0  0  0  0  0  0  0  0  0
    7.4420   81.6760   24.7720 O   0  0  0  0  0  0  0  0  0  0  0  0
   10.1420   83.2020   24.8370 C   0  0  2  0  0  0  0  0  0  0  0  0
   11.6620   83.2020   24.6600 C   0  0  0  0  0  0  0  0  0  0  0  0
    9.6580   84.3970   25.6390 C   0  0  0  0  0  0  0  0  0  0  0  0
   12.1690   84.1250   23.5780 C   0  0  0  0  0  0  0  0  0  0  0  0
    7.7620   82.1260   26.9600 N   0  0  0  0  0  0  0  0  0  0  0  0
    6.3360   82.1000   27.2750 C   0  0  2  0  0  0  0  0  0  0  0  0
    5.7390   83.4600   27.6720 C   0  0  0  0  0  0  0  0  0  0  0  0
    6.4520   84.4410   27.8180 O   0  0  0  0  0  0  0  0  0  0  0  0
    6.0930   81.0760   28.3920 C   0  0  0  0  0  0  0  0  0  0  0  0
    4.7130   80.7980   28.5410 O   0  0  0  0  0  0  0  0  0  0  0  0
    4.4180   83.5000   27.8400 N   0  0  0  0  0  0  0  0  0  0  0  0
    3.7180   84.7250   28.2270 C   0  0  2  0  0  0  0  0  0  0  0  0
    2.3290   84.3890   28.7910 C   0  0  0  0  0  0  0  0  0  0  0  0
    1.6600   83.4740   28.3090 O   0  0  0  0  0  0  0  0  0  0  0  0
    3.5760   85.6510   27.0170 C   0  0  0  0  0  0  0  0  0  0  0  0
    3.1840   87.0730   27.3610 C   0  0  0  0  0  0  0  0  0  0  0  0
    2.9800   87.9410   26.1280 C   0  0  0  0  0  0  0  0  0  0  0  0
    3.8380   87.8900   25.2140 O   0  5  0  0  0  0  0  0  0  0  0  0
    1.9700   88.6790   26.0780 O   0  0  0  0  0  0  0  0  0  0  0  0
    1.9160   85.1100   29.8280 N   0  0  0  0  0  0  0  0  0  0  0  0
    0.6020   84.9010   30.4410 C   0  0  2  0  0  0  0  0  0  0  0  0
   -0.2350   86.1910   30.3700 C   0  0  0  0  0  0  0  0  0  0  0  0
    0.3140   87.3000   30.3910 O   0  0  0  0  0  0  0  0  0  0  0  0
    0.7220   84.4400   31.9370 C   0  0  0  0  0  0  0  0  0  0  0  0
    1.1880   82.9770   32.0070 C   0  0  0  0  0  0  0  0  0  0  0  0
    1.6740   85.3430   32.6980 C   0  0  0  0  0  0  0  0  0  0  0  0
   -1.5560   86.0270   30.2610 N   0  0  0  0  0  0  0  0  0  0  0  0
   -2.5060   87.1400   30.1870 C   0  0  2  0  0  0  0  0  0  0  0  0
   -3.8160   86.6320   30.7800 C   0  0  0  0  0  0  0  0  0  0  0  0
   -4.7890   86.3630   30.0600 O   0  0  0  0  0  0  0  0  0  0  0  0
   -2.7110   87.5750   28.7330 C   0  0  0  0  0  0  0  0  0  0  0  0
   -1.4920   88.2560   28.1600 C   0  0  0  0  0  0  0  0  0  0  0  0
   -1.2590   89.4540   28.3950 O   0  0  0  0  0  0  0  0  0  0  0  0
   -0.6910   87.5010   27.4190 N   0  0  0  0  0  0  0  0  0  0  0  0
   -3.8310   86.5170   32.1040 N   0  0  0  0  0  0  0  0  0  0  0  0
   -4.9690   85.9780   32.8340 C   0  0  1  0  0  0  0  0  0  0  0  0
   -4.5030   84.6980   33.5530 C   0  0  0  0  0  0  0  0  0  0  0  0
   -3.6900   83.7100   32.6940 C   0  0  0  0  0  0  0  0  0  0  0  0
   -2.6830   82.9080   33.5190 C   0  0  0  0  0  0  0  0  0  0  0  0
   -4.5810   82.7840   31.8900 C   0  0  0  0  0  0  0  0  0  0  0  0
   -5.5300   86.9930   33.8650 C   0  0  1  0  0  0  0  0  0  0  0  0
   -4.4570   87.5840   34.5830 O   0  0  0  0  0  0  0  0  0  0  0  0
   -6.3300   88.0950   33.1770 C   0  0  0  0  0  0  0  0  0  0  0  0
   -7.6190   87.5800   32.5620 C   0  0  0  0  0  0  0  0  0  0  0  0
   -7.6460   87.2410   31.3780 O   0  0  0  0  0  0  0  0  0  0  0  0
   -8.6850   87.5190   33.3570 N   0  0  0  0  0  0  0  0  0  0  0  0
   -9.9790   87.0740   32.8390 C   0  0  2  0  0  0  0  0  0  0  0  0
  -10.5930   88.1690   31.9520 C   0  0  0  0  0  0  0  0  0  0  0  0
  -10.4000   89.3630   32.1990 O   0  0  0  0  0  0  0  0  0  0  0  0
  -10.9350   86.7220   33.9950 C   0  0  0  0  0  0  0  0  0  0  0  0
  -11.3780   87.9840   34.7010 C   0  0  0  0  0  0  0  0  0  0  0  0
  -12.1190   85.9030   33.4760 C   0  0  0  0  0  0  0  0  0  0  0  0
  -11.3190   87.7610   30.9120 N   0  0  0  0  0  0  0  0  0  0  0  0
  -11.9420   88.7150   29.9850 C   0  0  2  0  0  0  0  0  0  0  0  0
  -13.2380   89.3080   30.5290 C   0  0  0  0  0  0  0  0  0  0  0  0
  -14.0420   88.5860   31.1140 O   0  0  0  0  0  0  0  0  0  0  0  0
  -12.2100   88.0330   28.6450 C   0  0  0  0  0  0  0  0  0  0  0  0
  -13.4280   90.6200   30.3360 N   0  0  0  0  0  0  0  0  0  0  0  0
  -14.6360   91.3350   30.7890 C   0  0  2  0  0  0  0  0  0  0  0  0
  -14.4820   92.8650   30.9390 C   0  0  0  0  0  0  0  0  0  0  0  0
  -13.3730   93.4100   30.9480 O   0  0  0  0  0  0  0  0  0  0  0  0
  -15.1400   90.7540   32.1300 C   0  0  0  0  0  0  0  0  0  0  0  0
  -16.6320   91.0110   32.4290 C   0  0  0  0  0  0  0  0  0  0  0  0
  -16.8700   92.0960   33.4800 C   0  0  0  0  0  0  0  0  0  0  0  0
  -16.1690   93.1260   33.4410 O   0  5  0  0  0  0  0  0  0  0  0  0
  -17.7680   91.9290   34.3400 O   0  0  0  0  0  0  0  0  0  0  0  0
  -15.6280   93.5400   31.0360 N   0  0  0  0  0  0  0  0  0  0  0  0
  -15.7340   94.9920   31.2370 C   0  0  2  0  0  0  0  0  0  0  0  0
  -17.2180   95.3220   31.4350 C   0  0  0  0  0  0  0  0  0  0  0  0
  -18.0430   94.3950   31.2660 O   0  5  0  0  0  0  0  0  0  0  0  0
  -15.1910   95.7920   30.0440 C   0  0  0  0  0  0  0  0  0  0  0  0
  -15.3930   97.2970   30.1780 C   0  0  0  0  0  0  0  0  0  0  0  0
  -14.6930   98.0310   31.1470 C   0  0  0  0  0  0  0  0  0  0  0  0
  -16.3240   97.9700   29.3720 C   0  0  0  0  0  0  0  0  0  0  0  0
  -14.9180   99.4130   31.3170 C   0  0  0  0  0  0  0  0  0  0  0  0
  -16.5580   99.3530   29.5320 C   0  0  0  0  0  0  0  0  0  0  0  0
  -15.8530  100.0730   30.5080 C   0  0  0  0  0  0  0  0  0  0  0  0
  -17.5480   96.4860   31.7570 O   0  0  0  0  0  0  0  0  0  0  0  0
   14.6006   69.9482   18.7978 H   0  0  0  0  0  0  0  0  0  0  0  0
   13.0327   70.3227   19.1307 H   0  0  0  0  0  0  0  0  0  0  0  0
   13.7763   69.0979   19.9410 H   0  0  0  0  0  0  0  0  0  0  0  0
   15.3039   70.6122   21.0029 H   0  0  0  0  0  0  0  0  0  0  0  0
   14.8833   73.0530   20.7492 H   0  0  0  0  0  0  0  0  0  0  0  0
   13.6580   72.6927   19.4860 H   0  0  0  0  0  0  0  0  0  0  0  0
   16.6275   72.0077   19.2979 H   0  0  0  0  0  0  0  0  0  0  0  0
   15.8457   73.4477   18.5618 H   0  0  0  0  0  0  0  0  0  0  0  0
   14.3757   71.9526   17.2385 H   0  0  0  0  0  0  0  0  0  0  0  0
   15.2048   70.5270   17.9506 H   0  0  0  0  0  0  0  0  0  0  0  0
   17.3540   71.3411   17.0011 H   0  0  0  0  0  0  0  0  0  0  0  0
   16.4722   72.7039   16.2316 H   0  0  0  0  0  0  0  0  0  0  0  0
   16.7705   70.8605   14.7218 H   0  0  0  0  0  0  0  0  0  0  0  0
   15.1685   71.0818   15.0283 H   0  0  0  0  0  0  0  0  0  0  0  0
   15.9765   69.8331   15.7334 H   0  0  0  0  0  0  0  0  0  0  0  0
   14.2068   72.7563   22.4024 H   0  0  0  0  0  0  0  0  0  0  0  0
   11.5021   72.1478   23.2902 H   0  0  0  0  0  0  0  0  0  0  0  0
   13.7833   71.6521   25.3041 H   0  0  0  0  0  0  0  0  0  0  0  0
   13.5497   69.9342   23.7477 H   0  0  0  0  0  0  0  0  0  0  0  0
   11.9442   70.8133   26.7471 H   0  0  0  0  0  0  0  0  0  0  0  0
   10.7518   71.2266   25.4689 H   0  0  0  0  0  0  0  0  0  0  0  0
   11.6780   72.5295   26.2883 H   0  0  0  0  0  0  0  0  0  0  0  0
   14.1430   74.2045   22.9854 H   0  0  0  0  0  0  0  0  0  0  0  0
   13.7086   76.0299   25.1754 H   0  0  0  0  0  0  0  0  0  0  0  0
   15.2371   77.5128   23.9985 H   0  0  0  0  0  0  0  0  0  0  0  0
   15.0328   76.5769   22.4789 H   0  0  0  0  0  0  0  0  0  0  0  0
   16.1361   74.6400   23.5126 H   0  0  0  0  0  0  0  0  0  0  0  0
   16.3210   75.5556   25.0469 H   0  0  0  0  0  0  0  0  0  0  0  0
   12.1184   77.4614   25.4547 H   0  0  0  0  0  0  0  0  0  0  0  0
   11.2154   79.0936   23.2374 H   0  0  0  0  0  0  0  0  0  0  0  0
    9.6781   77.5742   22.5719 H   0  0  0  0  0  0  0  0  0  0  0  0
    8.7152   78.3742   23.8602 H   0  0  0  0  0  0  0  0  0  0  0  0
   10.2228   75.7349   24.0806 H   0  0  0  0  0  0  0  0  0  0  0  0
    8.4450   75.9544   23.9457 H   0  0  0  0  0  0  0  0  0  0  0  0
   10.1616   80.8956   23.7020 H   0  0  0  0  0  0  0  0  0  0  0  0
   10.2195   81.8171   26.5028 H   0  0  0  0  0  0  0  0  0  0  0  0
    9.6756   83.2459   23.8418 H   0  0  0  0  0  0  0  0  0  0  0  0
   11.9787   82.1779   24.4134 H   0  0  0  0  0  0  0  0  0  0  0  0
   12.1184   83.5075   25.6131 H   0  0  0  0  0  0  0  0  0  0  0  0
    8.5634   84.3526   25.7387 H   0  0  0  0  0  0  0  0  0  0  0  0
    9.9416   85.3252   25.1213 H   0  0  0  0  0  0  0  0  0  0  0  0
   10.1182   84.3789   26.6379 H   0  0  0  0  0  0  0  0  0  0  0  0
   13.2657   84.0587   23.5237 H   0  0  0  0  0  0  0  0  0  0  0  0
   11.8753   85.1592   23.8108 H   0  0  0  0  0  0  0  0  0  0  0  0
   11.7356   83.8295   22.6111 H   0  0  0  0  0  0  0  0  0  0  0  0
    8.4203   82.3318   27.6841 H   0  0  0  0  0  0  0  0  0  0  0  0
    5.8053   81.7621   26.3727 H   0  0  0  0  0  0  0  0  0  0  0  0
    6.4820   81.4788   29.3388 H   0  0  0  0  0  0  0  0  0  0  0  0
    6.6221   80.1437   28.1453 H   0  0  0  0  0  0  0  0  0  0  0  0
    4.5924   80.1630   29.2372 H   0  0  0  0  0  0  0  0  0  0  0  0
    3.8871   82.6647   27.6968 H   0  0  0  0  0  0  0  0  0  0  0  0
    4.3033   85.2390   29.0037 H   0  0  0  0  0  0  0  0  0  0  0  0
    2.8058   85.2330   26.3521 H   0  0  0  0  0  0  0  0  0  0  0  0
    4.5407   85.6781   26.4892 H   0  0  0  0  0  0  0  0  0  0  0  0
    3.9794   87.5181   27.9768 H   0  0  0  0  0  0  0  0  0  0  0  0
    2.2456   87.0504   27.9344 H   0  0  0  0  0  0  0  0  0  0  0  0
    2.5193   85.8152   30.2005 H   0  0  0  0  0  0  0  0  0  0  0  0
    0.0820   84.1130   29.8765 H   0  0  0  0  0  0  0  0  0  0  0  0
   -0.2713   84.5113   32.4042 H   0  0  0  0  0  0  0  0  0  0  0  0
    1.2677   82.6676   33.0596 H   0  0  0  0  0  0  0  0  0  0  0  0
    2.1704   82.8814   31.5214 H   0  0  0  0  0  0  0  0  0  0  0  0
    0.4595   82.3350   31.4902 H   0  0  0  0  0  0  0  0  0  0  0  0
    1.3220   86.3832   32.6348 H   0  0  0  0  0  0  0  0  0  0  0  0
    2.6797   85.2690   32.2586 H   0  0  0  0  0  0  0  0  0  0  0  0
    1.7106   85.0318   33.7524 H   0  0  0  0  0  0  0  0  0  0  0  0
   -1.9160   85.0946   30.2281 H   0  0  0  0  0  0  0  0  0  0  0  0
   -2.1329   87.9936   30.7720 H   0  0  0  0  0  0  0  0  0  0  0  0
   -3.5594   88.2737   28.6893 H   0  0  0  0  0  0  0  0  0  0  0  0
   -2.9368   86.6856   28.1264 H   0  0  0  0  0  0  0  0  0  0  0  0
    0.1327   87.8957   27.0119 H   0  0  0  0  0  0  0  0  0  0  0  0
   -0.9111   86.5373   27.2676 H   0  0  0  0  0  0  0  0  0  0  0  0
   -3.0272   86.8130   32.6200 H   0  0  0  0  0  0  0  0  0  0  0  0
   -5.7669   85.7264   32.1198 H   0  0  0  0  0  0  0  0  0  0  0  0
   -5.3964   84.1716   33.9199 H   0  0  0  0  0  0  0  0  0  0  0  0
   -3.8777   84.9980   34.4068 H   0  0  0  0  0  0  0  0  0  0  0  0
   -3.1140   84.3117   31.9756 H   0  0  0  0  0  0  0  0  0  0  0  0
   -2.1324   82.2215   32.8591 H   0  0  0  0  0  0  0  0  0  0  0  0
   -3.2166   82.3291   34.2872 H   0  0  0  0  0  0  0  0  0  0  0  0
   -1.9755   83.5964   34.0042 H   0  0  0  0  0  0  0  0  0  0  0  0
   -5.2966   83.3804   31.3049 H   0  0  0  0  0  0  0  0  0  0  0  0
   -5.1300   82.1190   32.5729 H   0  0  0  0  0  0  0  0  0  0  0  0
   -3.9631   82.1808   31.2086 H   0  0  0  0  0  0  0  0  0  0  0  0
   -6.1873   86.4593   34.5673 H   0  0  0  0  0  0  0  0  0  0  0  0
   -4.8031   88.2048   35.2133 H   0  0  0  0  0  0  0  0  0  0  0  0
   -5.7113   88.5361   32.3816 H   0  0  0  0  0  0  0  0  0  0  0  0
   -6.5776   88.8675   33.9199 H   0  0  0  0  0  0  0  0  0  0  0  0
   -8.6005   87.7801   34.3186 H   0  0  0  0  0  0  0  0  0  0  0  0
   -9.8219   86.1727   32.2283 H   0  0  0  0  0  0  0  0  0  0  0  0
  -10.3875   86.1020   34.7202 H   0  0  0  0  0  0  0  0  0  0  0  0
  -12.0597   87.7236   35.5241 H   0  0  0  0  0  0  0  0  0  0  0  0
  -11.8984   88.6399   33.9876 H   0  0  0  0  0  0  0  0  0  0  0  0
  -10.4982   88.5063   35.1049 H   0  0  0  0  0  0  0  0  0  0  0  0
  -11.7466   84.9987   32.9724 H   0  0  0  0  0  0  0  0  0  0  0  0
  -12.6985   86.5075   32.7628 H   0  0  0  0  0  0  0  0  0  0  0  0
  -12.7629   85.6140   34.3197 H   0  0  0  0  0  0  0  0  0  0  0  0
  -11.4429   86.7806   30.7587 H   0  0  0  0  0  0  0  0  0  0  0  0
  -11.2337   89.5407   29.8220 H   0  0  0  0  0  0  0  0  0  0  0  0
  -12.6764   88.7514   27.9548 H   0  0  0  0  0  0  0  0  0  0  0  0
  -12.8861   87.1788   28.7970 H   0  0  0  0  0  0  0  0  0  0  0  0
  -11.2606   87.6777   28.2180 H   0  0  0  0  0  0  0  0  0  0  0  0
  -12.7169   91.1394   29.8622 H   0  0  0  0  0  0  0  0  0  0  0  0
  -15.4115   91.1607   30.0286 H   0  0  0  0  0  0  0  0  0  0  0  0
  -14.5469   91.2018   32.9410 H   0  0  0  0  0  0  0  0  0  0  0  0
  -14.9771   89.6663   32.1140 H   0  0  0  0  0  0  0  0  0  0  0  0
  -17.0804   90.0736   32.7899 H   0  0  0  0  0  0  0  0  0  0  0  0
  -17.1256   91.3179   31.4951 H   0  0  0  0  0  0  0  0  0  0  0  0
  -16.4789   93.0192   30.9668 H   0  0  0  0  0  0  0  0  0  0  0  0
  -15.1678   95.2727   32.1373 H   0  0  0  0  0  0  0  0  0  0  0  0
  -15.7056   95.4515   29.1334 H   0  0  0  0  0  0  0  0  0  0  0  0
  -14.1132   95.5923   29.9526 H   0  0  0  0  0  0  0  0  0  0  0  0
  -13.9672   97.5278   31.7755 H   0  0  0  0  0  0  0  0  0  0  0  0
  -16.8716   97.4198   28.6154 H   0  0  0  0  0  0  0  0  0  0  0  0
  -14.3687   99.9637   32.0720 H   0  0  0  0  0  0  0  0  0  0  0  0
  -17.2812   99.8577   28.9017 H   0  0  0  0  0  0  0  0  0  0  0  0
  -16.0305  101.1347   30.6358 H   0  0  0  0  0  0  0  0  0  0  0  0
  1  2  1  0  0  0  0
  1117  1  0  0  0  0
  1118  1  0  0  0  0
  1119  1  0  0  0  0
  2  3  1  0  0  0  0
  2  5  1  0  0  0  0
  2120  1  1  0  0  0
  3  4  2  0  0  0  0
  3 10  1  0  0  0  0
  5  6  1  0  0  0  0
  5121  1  0  0  0  0
  5122  1  0  0  0  0
  6  7  1  0  0  0  0
  6123  1  0  0  0  0
  6124  1  0  0  0  0
  7  8  1  0  0  0  0
  7125  1  0  0  0  0
  7126  1  0  0  0  0
  8  9  1  0  0  0  0
  8127  1  0  0  0  0
  8128  1  0  0  0  0
  9129  1  0  0  0  0
  9130  1  0  0  0  0
  9131  1  0  0  0  0
 10 11  1  0  0  0  0
 10132  1  0  0  0  0
 11 12  1  0  0  0  0
 11 14  1  0  0  0  0
 11133  1  6  0  0  0
 12 13  2  0  0  0  0
 12 17  1  0  0  0  0
 14 15  1  0  0  0  0
 14 16  1  0  0  0  0
 14134  1  1  0  0  0
 15135  1  0  0  0  0
 16136  1  0  0  0  0
 16137  1  0  0  0  0
 16138  1  0  0  0  0
 17 18  1  0  0  0  0
 17139  1  0  0  0  0
 18 19  1  0  0  0  0
 18 21  1  0  0  0  0
 18140  1  1  0  0  0
 19 20  2  0  0  0  0
 19 26  1  0  0  0  0
 21 22  1  0  0  0  0
 21141  1  0  0  0  0
 21142  1  0  0  0  0
 22 23  1  0  0  0  0
 22143  1  0  0  0  0
 22144  1  0  0  0  0
 23 24  1  0  0  0  0
 23 25  2  0  0  0  0
 26 27  1  0  0  0  0
 26145  1  0  0  0  0
 27 28  1  0  0  0  0
 27 30  1  0  0  0  0
 27146  1  6  0  0  0
 28 29  2  0  0  0  0
 28 35  1  0  0  0  0
 30 31  1  0  0  0  0
 30147  1  0  0  0  0
 30148  1  0  0  0  0
 31 32  1  0  0  0  0
 31149  1  0  0  0  0
 31150  1  0  0  0  0
 32 33  1  0  0  0  0
 32 34  2  0  0  0  0
 35 36  1  0  0  0  0
 35151  1  0  0  0  0
 36 37  1  0  0  0  0
 36 39  1  0  0  0  0
 36152  1  1  0  0  0
 37 38  2  0  0  0  0
 37 43  1  0  0  0  0
 39 40  1  0  0  0  0
 39 41  1  0  0  0  0
 39153  1  6  0  0  0
 40 42  1  0  0  0  0
 40154  1  0  0  0  0
 40155  1  0  0  0  0
 41156  1  0  0  0  0
 41157  1  0  0  0  0
 41158  1  0  0  0  0
 42159  1  0  0  0  0
 42160  1  0  0  0  0
 42161  1  0  0  0  0
 43 44  1  0  0  0  0
 43162  1  0  0  0  0
 44 45  1  0  0  0  0
 44 47  1  0  0  0  0
 44163  1  6  0  0  0
 45 46  2  0  0  0  0
 45 49  1  0  0  0  0
 47 48  1  0  0  0  0
 47164  1  0  0  0  0
 47165  1  0  0  0  0
 48166  1  0  0  0  0
 49 50  1  0  0  0  0
 49167  1  0  0  0  0
 50 51  1  0  0  0  0
 50 53  1  0  0  0  0
 50168  1  1  0  0  0
 51 52  2  0  0  0  0
 51 58  1  0  0  0  0
 53 54  1  0  0  0  0
 53169  1  0  0  0  0
 53170  1  0  0  0  0
 54 55  1  0  0  0  0
 54171  1  0  0  0  0
 54172  1  0  0  0  0
 55 56  1  0  0  0  0
 55 57  2  0  0  0  0
 58 59  1  0  0  0  0
 58173  1  0  0  0  0
 59 60  1  0  0  0  0
 59 62  1  0  0  0  0
 59174  1  6  0  0  0
 60 61  2  0  0  0  0
 60 65  1  0  0  0  0
 62 63  1  0  0  0  0
 62 64  1  0  0  0  0
 62175  1  0  0  0  0
 63176  1  0  0  0  0
 63177  1  0  0  0  0
 63178  1  0  0  0  0
 64179  1  0  0  0  0
 64180  1  0  0  0  0
 64181  1  0  0  0  0
 65 66  1  0  0  0  0
 65182  1  0  0  0  0
 66 67  1  0  0  0  0
 66 69  1  0  0  0  0
 66183  1  1  0  0  0
 67 68  2  0  0  0  0
 67 73  1  0  0  0  0
 69 70  1  0  0  0  0
 69184  1  0  0  0  0
 69185  1  0  0  0  0
 70 71  2  0  0  0  0
 70 72  1  0  0  0  0
 72186  1  0  0  0  0
 72187  1  0  0  0  0
 73 74  1  0  0  0  0
 73188  1  0  0  0  0
 74 75  1  0  0  0  0
 74 79  1  0  0  0  0
 74189  1  6  0  0  0
 75 76  1  0  0  0  0
 75190  1  0  0  0  0
 75191  1  0  0  0  0
 76 77  1  0  0  0  0
 76 78  1  0  0  0  0
 76192  1  0  0  0  0
 77193  1  0  0  0  0
 77194  1  0  0  0  0
 77195  1  0  0  0  0
 78196  1  0  0  0  0
 78197  1  0  0  0  0
 78198  1  0  0  0  0
 79 80  1  0  0  0  0
 79 81  1  0  0  0  0
 79199  1  1  0  0  0
 80200  1  0  0  0  0
 81 82  1  0  0  0  0
 81201  1  0  0  0  0
 81202  1  0  0  0  0
 82 83  2  0  0  0  0
 82 84  1  0  0  0  0
 84 85  1  0  0  0  0
 84203  1  0  0  0  0
 85 86  1  0  0  0  0
 85 88  1  0  0  0  0
 85204  1  6  0  0  0
 86 87  2  0  0  0  0
 86 91  1  0  0  0  0
 88 89  1  0  0  0  0
 88 90  1  0  0  0  0
 88205  1  0  0  0  0
 89206  1  0  0  0  0
 89207  1  0  0  0  0
 89208  1  0  0  0  0
 90209  1  0  0  0  0
 90210  1  0  0  0  0
 90211  1  0  0  0  0
 91 92  1  0  0  0  0
 91212  1  0  0  0  0
 92 93  1  0  0  0  0
 92 95  1  0  0  0  0
 92213  1  6  0  0  0
 93 94  2  0  0  0  0
 93 96  1  0  0  0  0
 95214  1  0  0  0  0
 95215  1  0  0  0  0
 95216  1  0  0  0  0
 96 97  1  0  0  0  0
 96217  1  0  0  0  0
 97 98  1  0  0  0  0
 97100  1  0  0  0  0
 97218  1  6  0  0  0
 98 99  2  0  0  0  0
 98105  1  0  0  0  0
100101  1  0  0  0  0
100219  1  0  0  0  0
100220  1  0  0  0  0
101102  1  0  0  0  0
101221  1  0  0  0  0
101222  1  0  0  0  0
102103  1  0  0  0  0
102104  2  0  0  0  0
105106  1  0  0  0  0
105223  1  0  0  0  0
106107  1  0  0  0  0
106109  1  0  0  0  0
106224  1  1  0  0  0
107108  1  0  0  0  0
107116  2  0  0  0  0
109110  1  0  0  0  0
109225  1  0  0  0  0
109226  1  0  0  0  0
110111  2  0  0  0  0
110112  1  0  0  0  0
111113  1  0  0  0  0
111227  1  0  0  0  0
112114  2  0  0  0  0
112228  1  0  0  0  0
113115  2  0  0  0  0
113229  1  0  0  0  0
114115  1  0  0  0  0
114230  1  0  0  0  0
115231  1  0  0  0  0
M  CHG  7   1   1   9   1  24  -1  33  -1  56  -1 103  -1 108  -1
M  END
