1xor_ligand
 OpenBabel08222323343D

 29 30  0  0  0  0  0  0  0  0999 V2000
    8.9550    2.0750   53.5620 O   0  0  0  0  0  0  0  0  0  0  0  0
    8.4970    1.1650   54.2480 C   0  0  0  0  0  0  0  0  0  0  0  0
    7.1500    0.9280   54.2980 N   0  0  0  0  0  0  0  0  0  0  0  0
    6.5470   -0.0400   55.0070 N   0  0  0  0  0  0  0  0  0  0  0  0
    7.2800   -0.7640   55.7880 C   0  0  0  0  0  0  0  0  0  0  0  0
    8.7570   -0.7050   55.7980 C   0  0  0  0  0  0  0  0  0  0  0  0
    9.3290    0.2750   55.0890 C   0  0  0  0  0  0  0  0  0  0  0  0
    6.5140   -1.8080   56.5080 C   0  0  0  0  0  0  0  0  0  0  0  0
    6.7860   -1.9950   57.8750 C   0  0  0  0  0  0  0  0  0  0  0  0
    6.0580   -2.9440   58.6230 C   0  0  0  0  0  0  0  0  0  0  0  0
    5.0450   -3.6950   57.9990 C   0  0  0  0  0  0  0  0  0  0  0  0
    4.7590   -3.4740   56.6370 C   0  0  0  0  0  0  0  0  0  0  0  0
    5.4850   -2.5300   55.8990 C   0  0  0  0  0  0  0  0  0  0  0  0
    3.7670   -5.8100   58.5700 C   0  0  0  0  0  0  0  0  0  0  0  0
    4.4090   -4.5710   58.8760 O   0  0  0  0  0  0  0  0  0  0  0  0
    3.6540   -6.0670   57.2470 F   0  0  0  0  0  0  0  0  0  0  0  0
    2.5020   -5.7300   59.0710 F   0  0  0  0  0  0  0  0  0  0  0  0
    6.2600   -3.2270   59.9760 O   0  0  0  0  0  0  0  0  0  0  0  0
    6.8840   -2.2270   60.7960 C   0  0  0  0  0  0  0  0  0  0  0  0
    6.5618    1.5299   53.7579 H   0  0  0  0  0  0  0  0  0  0  0  0
    9.3521   -1.4259   56.3566 H   0  0  0  0  0  0  0  0  0  0  0  0
   10.4078    0.4181   55.1306 H   0  0  0  0  0  0  0  0  0  0  0  0
    7.5590   -1.4069   58.3564 H   0  0  0  0  0  0  0  0  0  0  0  0
    3.9696   -4.0399   56.1556 H   0  0  0  0  0  0  0  0  0  0  0  0
    5.2481   -2.3599   54.8550 H   0  0  0  0  0  0  0  0  0  0  0  0
    4.3214   -6.6306   59.0488 H   0  0  0  0  0  0  0  0  0  0  0  0
    6.9705   -2.6001   61.8272 H   0  0  0  0  0  0  0  0  0  0  0  0
    6.2733   -1.3122   60.7872 H   0  0  0  0  0  0  0  0  0  0  0  0
    7.8862   -2.0027   60.4019 H   0  0  0  0  0  0  0  0  0  0  0  0
  1  2  2  0  0  0  0
  2  3  1  0  0  0  0
  2  7  1  0  0  0  0
  3  4  1  0  0  0  0
  3 20  1  0  0  0  0
  4  5  2  0  0  0  0
  5  6  1  0  0  0  0
  5  8  1  0  0  0  0
  6  7  2  0  0  0  0
  6 21  1  0  0  0  0
  7 22  1  0  0  0  0
  8  9  2  0  0  0  0
  8 13  1  0  0  0  0
  9 10  1  0  0  0  0
  9 23  1  0  0  0  0
 10 11  2  0  0  0  0
 10 18  1  0  0  0  0
 11 12  1  0  0  0  0
 11 15  1  0  0  0  0
 12 13  2  0  0  0  0
 12 24  1  0  0  0  0
 13 25  1  0  0  0  0
 14 16  1  0  0  0  0
 14 17  1  0  0  0  0
 14 26  1  0  0  0  0
 15 14  1  0  0  0  0
 18 19  1  0  0  0  0
 19 27  1  0  0  0  0
 19 28  1  0  0  0  0
 19 29  1  0  0  0  0
M  END
