1xp0_ligand
 OpenBabel08222323343D

 68 71  0  0  1  0  0  0  0  0999 V2000
  -17.3110   28.7690   59.4250 C   0  0  0  0  0  0  0  0  0  0  0  0
  -18.4240   27.7500   59.5520 C   0  0  0  0  0  0  0  0  0  0  0  0
  -19.4990   28.3170   60.2890 O   0  0  0  0  0  0  0  0  0  0  0  0
  -20.6790   27.6470   60.5320 C   0  0  0  0  0  0  0  0  0  0  0  0
  -20.8720   26.3220   60.1320 C   0  0  0  0  0  0  0  0  0  0  0  0
  -22.0880   25.7000   60.4070 C   0  0  0  0  0  0  0  0  0  0  0  0
  -23.1120   26.3870   61.0750 C   0  0  0  0  0  0  0  0  0  0  0  0
  -22.9030   27.7070   61.4740 C   0  0  0  0  0  0  0  0  0  0  0  0
  -21.7100   28.3360   61.1660 C   0  0  0  0  0  0  0  0  0  0  0  0
  -24.5130   25.6830   61.4210 S   0  0  0  0  0  0  0  0  0  0  0  0
  -25.6280   26.5010   61.0510 O   0  0  0  0  0  0  0  0  0  0  0  0
  -24.5590   24.4480   60.7000 O   0  0  0  0  0  0  0  0  0  0  0  0
  -23.9260   24.9690   67.8530 C   0  0  0  0  0  0  0  0  0  0  0  0
  -24.6520   25.3890   62.9190 N   0  0  0  0  0  0  0  0  0  0  0  0
  -23.5890   24.5300   63.4650 C   0  0  0  0  0  0  0  0  0  0  0  0
  -23.7010   24.3520   64.9680 C   0  0  0  0  0  0  0  0  0  0  0  0
  -23.9540   25.6730   65.5070 N   0  3  1  0  0  0  0  0  0  0  0  0
  -25.3030   26.1390   65.2360 C   0  0  0  0  0  0  0  0  0  0  0  0
  -25.4770   26.3040   63.7200 C   0  0  0  0  0  0  0  0  0  0  0  0
  -23.3800   25.9480   66.8200 C   0  0  0  0  0  0  0  0  0  0  0  0
  -21.3890   29.7160   61.6140 C   0  0  0  0  0  0  0  0  0  0  0  0
  -21.0380   30.7260   60.6430 N   0  0  0  0  0  0  0  0  0  0  0  0
  -20.9950   32.0290   60.9210 C   0  0  0  0  0  0  0  0  0  0  0  0
  -21.5360   32.3970   62.2430 C   0  0  0  0  0  0  0  0  0  0  0  0
  -21.9910   31.5330   63.1240 N   0  0  0  0  0  4  0  0  0  0  0  0
  -22.0380   30.1810   62.8070 N   0  0  0  0  0  0  0  0  0  0  0  0
  -20.5730   32.8270   60.0980 O   0  0  0  0  0  0  0  0  0  0  0  0
  -21.7100   33.6360   62.8500 C   0  0  0  0  0  0  0  0  0  0  0  0
  -22.2670   33.3890   64.0670 N   0  0  0  0  0  0  0  0  0  0  0  0
  -22.4610   32.0570   64.2250 C   0  0  0  0  0  0  0  0  0  0  0  0
  -21.3840   35.0070   62.3250 C   0  0  0  0  0  0  0  0  0  0  0  0
  -23.0180   31.3240   65.4100 C   0  0  0  0  0  0  0  0  0  0  0  0
  -21.8600   30.6260   66.1240 C   0  0  0  0  0  0  0  0  0  0  0  0
  -22.4100   29.8920   67.3240 C   0  0  0  0  0  0  0  0  0  0  0  0
  -16.4776   28.3326   58.8549 H   0  0  0  0  0  0  0  0  0  0  0  0
  -16.9595   29.0549   60.4273 H   0  0  0  0  0  0  0  0  0  0  0  0
  -17.6873   29.6596   58.9005 H   0  0  0  0  0  0  0  0  0  0  0  0
  -18.0484   26.8592   60.0768 H   0  0  0  0  0  0  0  0  0  0  0  0
  -18.7762   27.4639   58.5500 H   0  0  0  0  0  0  0  0  0  0  0  0
  -20.0855   25.7849   59.6143 H   0  0  0  0  0  0  0  0  0  0  0  0
  -22.2446   24.6720   60.1007 H   0  0  0  0  0  0  0  0  0  0  0  0
  -23.6722   28.2378   62.0232 H   0  0  0  0  0  0  0  0  0  0  0  0
  -23.4843   25.1891   68.8361 H   0  0  0  0  0  0  0  0  0  0  0  0
  -23.6678   23.9416   67.5569 H   0  0  0  0  0  0  0  0  0  0  0  0
  -25.0198   25.0699   67.9116 H   0  0  0  0  0  0  0  0  0  0  0  0
  -22.6144   24.9854   63.2353 H   0  0  0  0  0  0  0  0  0  0  0  0
  -23.6536   23.5415   62.9869 H   0  0  0  0  0  0  0  0  0  0  0  0
  -22.7638   23.9455   65.3760 H   0  0  0  0  0  0  0  0  0  0  0  0
  -24.5319   23.6737   65.2120 H   0  0  0  0  0  0  0  0  0  0  0  0
  -23.3975   26.2668   64.9122 H   0  0  0  0  0  0  0  0  0  0  0  0
  -25.4665   27.1062   65.7338 H   0  0  0  0  0  0  0  0  0  0  0  0
  -26.0300   25.4048   65.6133 H   0  0  0  0  0  0  0  0  0  0  0  0
  -26.5334   26.1238   63.4718 H   0  0  0  0  0  0  0  0  0  0  0  0
  -25.2082   27.3363   63.4517 H   0  0  0  0  0  0  0  0  0  0  0  0
  -22.2861   25.8458   66.7661 H   0  0  0  0  0  0  0  0  0  0  0  0
  -23.6381   26.9741   67.1209 H   0  0  0  0  0  0  0  0  0  0  0  0
  -20.8156   30.4324   59.7133 H   0  0  0  0  0  0  0  0  0  0  0  0
  -22.5058   34.1080   64.7648 H   0  0  0  0  0  0  0  0  0  0  0  0
  -20.9440   34.9199   61.3206 H   0  0  0  0  0  0  0  0  0  0  0  0
  -20.6654   35.4964   62.9989 H   0  0  0  0  0  0  0  0  0  0  0  0
  -22.3041   35.6075   62.2714 H   0  0  0  0  0  0  0  0  0  0  0  0
  -23.7534   30.5778   65.0749 H   0  0  0  0  0  0  0  0  0  0  0  0
  -23.5032   32.0356   66.0942 H   0  0  0  0  0  0  0  0  0  0  0  0
  -21.1220   31.3728   66.4520 H   0  0  0  0  0  0  0  0  0  0  0  0
  -21.3792   29.9111   65.4401 H   0  0  0  0  0  0  0  0  0  0  0  0
  -21.5891   29.3831   67.8505 H   0  0  0  0  0  0  0  0  0  0  0  0
  -23.1493   29.1483   66.9918 H   0  0  0  0  0  0  0  0  0  0  0  0
  -22.8921   30.6100   68.0037 H   0  0  0  0  0  0  0  0  0  0  0  0
  1 35  1  0  0  0  0
  1 36  1  0  0  0  0
  1 37  1  0  0  0  0
  2  1  1  0  0  0  0
  2 38  1  0  0  0  0
  2 39  1  0  0  0  0
  3  2  1  0  0  0  0
  4  3  1  0  0  0  0
  5  4  2  0  0  0  0
  5 40  1  0  0  0  0
  6  5  1  0  0  0  0
  6 41  1  0  0  0  0
  7  6  2  0  0  0  0
  7  8  1  0  0  0  0
  8  9  2  0  0  0  0
  8 42  1  0  0  0  0
  9  4  1  0  0  0  0
  9 21  1  0  0  0  0
 10  7  1  0  0  0  0
 10 11  2  0  0  0  0
 10 12  2  0  0  0  0
 13 43  1  0  0  0  0
 13 44  1  0  0  0  0
 13 45  1  0  0  0  0
 14 10  1  0  0  0  0
 14 19  1  0  0  0  0
 15 14  1  0  0  0  0
 15 46  1  0  0  0  0
 15 47  1  0  0  0  0
 16 15  1  0  0  0  0
 16 48  1  0  0  0  0
 16 49  1  0  0  0  0
 17 16  1  0  0  0  0
 17 18  1  0  0  0  0
 17 20  1  0  0  0  0
 17 50  1  6  0  0  0
 18 19  1  0  0  0  0
 18 51  1  0  0  0  0
 18 52  1  0  0  0  0
 19 53  1  0  0  0  0
 19 54  1  0  0  0  0
 20 13  1  0  0  0  0
 20 55  1  0  0  0  0
 20 56  1  0  0  0  0
 21 22  1  0  0  0  0
 21 26  2  0  0  0  0
 22 23  1  0  0  0  0
 22 57  1  0  0  0  0
 23 24  1  0  0  0  0
 23 27  2  0  0  0  0
 24 25  1  0  0  0  0
 24 28  2  0  0  0  0
 25 26  1  0  0  0  0
 25 30  2  0  0  0  0
 28 29  1  0  0  0  0
 28 31  1  0  0  0  0
 29 30  1  0  0  0  0
 29 58  1  0  0  0  0
 30 32  1  0  0  0  0
 31 59  1  0  0  0  0
 31 60  1  0  0  0  0
 31 61  1  0  0  0  0
 32 33  1  0  0  0  0
 32 62  1  0  0  0  0
 32 63  1  0  0  0  0
 33 34  1  0  0  0  0
 33 64  1  0  0  0  0
 33 65  1  0  0  0  0
 34 66  1  0  0  0  0
 34 67  1  0  0  0  0
 34 68  1  0  0  0  0
M  CHG  1  17   1
M  END
