1xp9_ligand
 OpenBabel08222323343D

 63 67  0  0  1  0  0  0  0  0999 V2000
   31.1360   -0.2850   28.6940 C   0  0  2  0  0  0  0  0  0  0  0  0
   31.2950   -1.7190   28.1530 C   0  0  1  0  0  0  0  0  0  0  0  0
   30.0630   -2.4370   28.4040 O   0  0  0  0  0  0  0  0  0  0  0  0
   28.8690   -1.9850   27.9520 C   0  0  0  0  0  0  0  0  0  0  0  0
   27.9440   -2.9910   27.6600 C   0  0  0  0  0  0  0  0  0  0  0  0
   26.6930   -2.6550   27.1630 C   0  0  0  0  0  0  0  0  0  0  0  0
   26.3510   -1.3020   27.0590 C   0  0  0  0  0  0  0  0  0  0  0  0
   25.1290   -1.0050   26.5700 O   0  0  0  0  0  0  0  0  0  0  0  0
   27.2910   -0.3120   27.3510 C   0  0  0  0  0  0  0  0  0  0  0  0
   28.5930   -0.6260   27.7340 C   0  0  0  0  0  0  0  0  0  0  0  0
   29.6230    0.4540   28.0710 S   0  0  0  0  0  0  0  0  0  0  0  0
   32.4330    0.4380   28.4150 C   0  0  0  0  0  0  0  0  0  0  0  0
   32.6620    1.2840   27.3150 C   0  0  0  0  0  0  0  0  0  0  0  0
   33.9100    1.8730   27.1470 C   0  0  0  0  0  0  0  0  0  0  0  0
   34.9420    1.6480   28.0870 C   0  0  0  0  0  0  0  0  0  0  0  0
   36.1450    2.2380   27.9740 O   0  0  0  0  0  0  0  0  0  0  0  0
   34.7100    0.8310   29.2040 C   0  0  0  0  0  0  0  0  0  0  0  0
   33.4530    0.2370   29.3560 C   0  0  0  0  0  0  0  0  0  0  0  0
   31.6520   -1.9240   26.6840 C   0  0  0  0  0  0  0  0  0  0  0  0
   32.4950   -2.9860   26.3360 C   0  0  0  0  0  0  0  0  0  0  0  0
   32.8720   -3.2650   25.0010 C   0  0  0  0  0  0  0  0  0  0  0  0
   32.4110   -2.4520   23.9480 C   0  0  0  0  0  0  0  0  0  0  0  0
   31.5630   -1.3830   24.3090 C   0  0  0  0  0  0  0  0  0  0  0  0
   31.1840   -1.1260   25.6300 C   0  0  0  0  0  0  0  0  0  0  0  0
   32.7620   -2.6460   22.6350 O   0  0  0  0  0  0  0  0  0  0  0  0
   33.3630   -3.9180   22.2850 C   0  0  0  0  0  0  0  0  0  0  0  0
   33.8170   -4.1220   20.7900 C   0  0  2  0  0  0  0  0  0  0  0  0
   34.6270   -2.8600   20.5950 C   0  0  0  0  0  0  0  0  0  0  0  0
   32.7160   -4.2020   19.7730 N   0  3  0  0  0  0  0  0  0  0  0  0
   33.0520   -3.9170   18.3300 C   0  0  0  0  0  0  0  0  0  0  0  0
   31.7550   -3.3470   17.6770 C   0  0  0  0  0  0  0  0  0  0  0  0
   30.7560   -3.3120   18.8490 C   0  0  0  0  0  0  0  0  0  0  0  0
   31.6690   -3.2350   20.0840 C   0  0  0  0  0  0  0  0  0  0  0  0
   31.0268   -0.3366   29.7873 H   0  0  0  0  0  0  0  0  0  0  0  0
   32.1013   -2.1843   28.7390 H   0  0  0  0  0  0  0  0  0  0  0  0
   28.2032   -4.0311   27.8214 H   0  0  0  0  0  0  0  0  0  0  0  0
   25.9936   -3.4261   26.8609 H   0  0  0  0  0  0  0  0  0  0  0  0
   25.0479   -1.3538   25.6902 H   0  0  0  0  0  0  0  0  0  0  0  0
   26.9997    0.7296   27.2777 H   0  0  0  0  0  0  0  0  0  0  0  0
   31.8689    1.4759   26.6014 H   0  0  0  0  0  0  0  0  0  0  0  0
   34.0933    2.5095   26.2889 H   0  0  0  0  0  0  0  0  0  0  0  0
   36.6995    1.9647   28.6953 H   0  0  0  0  0  0  0  0  0  0  0  0
   35.4914    0.6632   29.9363 H   0  0  0  0  0  0  0  0  0  0  0  0
   33.2634   -0.3915   30.2186 H   0  0  0  0  0  0  0  0  0  0  0  0
   32.8764   -3.6237   27.1252 H   0  0  0  0  0  0  0  0  0  0  0  0
   33.5187   -4.1085   24.7880 H   0  0  0  0  0  0  0  0  0  0  0  0
   31.1888   -0.7321   23.5271 H   0  0  0  0  0  0  0  0  0  0  0  0
   30.5183   -0.2973   25.8427 H   0  0  0  0  0  0  0  0  0  0  0  0
   32.6290   -4.7039   22.5164 H   0  0  0  0  0  0  0  0  0  0  0  0
   34.2519   -4.0481   22.9198 H   0  0  0  0  0  0  0  0  0  0  0  0
   34.4412   -5.0230   20.6974 H   0  0  0  0  0  0  0  0  0  0  0  0
   35.0315   -2.8383   19.5723 H   0  0  0  0  0  0  0  0  0  0  0  0
   35.4561   -2.8411   21.3177 H   0  0  0  0  0  0  0  0  0  0  0  0
   33.9827   -1.9826   20.7531 H   0  0  0  0  0  0  0  0  0  0  0  0
   32.3402   -5.1358   19.8255 H   0  0  0  0  0  0  0  0  0  0  0  0
   33.3582   -4.8429   17.8212 H   0  0  0  0  0  0  0  0  0  0  0  0
   33.8648   -3.1784   18.2679 H   0  0  0  0  0  0  0  0  0  0  0  0
   31.3961   -4.0059   16.8726 H   0  0  0  0  0  0  0  0  0  0  0  0
   31.9267   -2.3376   17.2750 H   0  0  0  0  0  0  0  0  0  0  0  0
   30.1398   -4.2229   18.8698 H   0  0  0  0  0  0  0  0  0  0  0  0
   30.1032   -2.4290   18.7851 H   0  0  0  0  0  0  0  0  0  0  0  0
   32.0864   -2.2246   20.2057 H   0  0  0  0  0  0  0  0  0  0  0  0
   31.1253   -3.5196   20.9969 H   0  0  0  0  0  0  0  0  0  0  0  0
  1  2  1  0  0  0  0
  1 11  1  0  0  0  0
  1 12  1  0  0  0  0
  1 34  1  1  0  0  0
  2  3  1  0  0  0  0
  2 19  1  0  0  0  0
  2 35  1  1  0  0  0
  3  4  1  0  0  0  0
  4  5  2  0  0  0  0
  4 10  1  0  0  0  0
  5  6  1  0  0  0  0
  5 36  1  0  0  0  0
  6  7  2  0  0  0  0
  6 37  1  0  0  0  0
  7  8  1  0  0  0  0
  7  9  1  0  0  0  0
  8 38  1  0  0  0  0
  9 10  2  0  0  0  0
  9 39  1  0  0  0  0
 10 11  1  0  0  0  0
 12 13  2  0  0  0  0
 12 18  1  0  0  0  0
 13 14  1  0  0  0  0
 13 40  1  0  0  0  0
 14 15  2  0  0  0  0
 14 41  1  0  0  0  0
 15 16  1  0  0  0  0
 15 17  1  0  0  0  0
 16 42  1  0  0  0  0
 17 18  2  0  0  0  0
 17 43  1  0  0  0  0
 18 44  1  0  0  0  0
 19 20  2  0  0  0  0
 19 24  1  0  0  0  0
 20 21  1  0  0  0  0
 20 45  1  0  0  0  0
 21 22  2  0  0  0  0
 21 46  1  0  0  0  0
 22 23  1  0  0  0  0
 22 25  1  0  0  0  0
 23 24  2  0  0  0  0
 23 47  1  0  0  0  0
 24 48  1  0  0  0  0
 25 26  1  0  0  0  0
 26 27  1  0  0  0  0
 26 49  1  0  0  0  0
 26 50  1  0  0  0  0
 27 28  1  0  0  0  0
 27 29  1  0  0  0  0
 27 51  1  6  0  0  0
 28 52  1  0  0  0  0
 28 53  1  0  0  0  0
 28 54  1  0  0  0  0
 29 30  1  0  0  0  0
 29 33  1  0  0  0  0
 29 55  1  0  0  0  0
 30 31  1  0  0  0  0
 30 56  1  0  0  0  0
 30 57  1  0  0  0  0
 31 32  1  0  0  0  0
 31 58  1  0  0  0  0
 31 59  1  0  0  0  0
 32 33  1  0  0  0  0
 32 60  1  0  0  0  0
 32 61  1  0  0  0  0
 33 62  1  0  0  0  0
 33 63  1  0  0  0  0
M  CHG  1  29   1
M  END
