1xqc_ligand
 OpenBabel08222323343D

 67 72  0  0  1  0  0  0  0  0999 V2000
   18.8540   -0.1960   39.2410 O   0  0  0  0  0  0  0  0  0  0  0  0
   17.6290    0.0460   38.5970 C   0  0  0  0  0  0  0  0  0  0  0  0
   16.5280    0.5650   39.2780 C   0  0  0  0  0  0  0  0  0  0  0  0
   15.3320    0.8090   38.5640 C   0  0  0  0  0  0  0  0  0  0  0  0
   15.2680    0.5430   37.2000 C   0  0  0  0  0  0  0  0  0  0  0  0
   16.3690    0.0200   36.5750 C   0  0  0  0  0  0  0  0  0  0  0  0
   17.5450   -0.2360   37.2650 C   0  0  0  0  0  0  0  0  0  0  0  0
   14.0460    0.7780   36.3970 C   0  0  2  0  0  0  0  0  0  0  0  0
   14.0520    0.5680   34.9440 N   0  0  0  0  0  0  0  0  0  0  0  0
   12.8780    0.7390   34.1870 C   0  0  0  0  0  0  0  0  0  0  0  0
   11.6290    0.3610   34.6890 C   0  0  0  0  0  0  0  0  0  0  0  0
   10.4470    0.5970   33.9230 C   0  0  0  0  0  0  0  0  0  0  0  0
   10.5000    1.2140   32.6800 C   0  0  0  0  0  0  0  0  0  0  0  0
   11.7330    1.6120   32.1640 C   0  0  0  0  0  0  0  0  0  0  0  0
   12.8990    1.3850   32.9160 C   0  0  0  0  0  0  0  0  0  0  0  0
   15.0810   -0.2110   34.3390 C   0  0  0  0  0  0  0  0  0  0  0  0
   16.3700   -0.3080   35.1340 C   0  0  0  0  0  0  0  0  0  0  0  0
   13.9360    2.2900   36.5180 C   0  0  0  0  0  0  0  0  0  0  0  0
   14.9480    3.1820   36.1900 C   0  0  0  0  0  0  0  0  0  0  0  0
   14.7820    4.5700   36.3210 C   0  0  0  0  0  0  0  0  0  0  0  0
   13.5790    5.1390   36.7930 C   0  0  0  0  0  0  0  0  0  0  0  0
   12.6020    4.2140   37.1090 C   0  0  0  0  0  0  0  0  0  0  0  0
   12.7650    2.8330   36.9690 C   0  0  0  0  0  0  0  0  0  0  0  0
   13.3830    6.4520   36.9550 N   0  0  0  0  0  0  0  0  0  0  0  0
   12.0810    6.9150   37.4730 C   0  0  0  0  0  0  0  0  0  0  0  0
   11.8740    8.4370   37.4610 C   0  0  0  0  0  0  0  0  0  0  0  0
   13.0200    9.2050   37.9430 N   0  3  1  0  0  0  0  0  0  0  0  0
   14.2240    8.7620   37.2280 C   0  0  2  0  0  0  0  0  0  0  0  0
   14.4790    7.2890   37.4700 C   0  0  0  0  0  0  0  0  0  0  0  0
   15.3990    9.6160   37.7570 C   0  0  0  0  0  0  0  0  0  0  0  0
   15.0860   11.1190   37.6320 C   0  0  0  0  0  0  0  0  0  0  0  0
   13.7650   11.5030   38.3340 C   0  0  0  0  0  0  0  0  0  0  0  0
   12.7280   10.6250   37.6050 C   0  0  0  0  0  0  0  0  0  0  0  0
   19.1885    0.6179   39.5989 H   0  0  0  0  0  0  0  0  0  0  0  0
   16.5882    0.7782   40.3391 H   0  0  0  0  0  0  0  0  0  0  0  0
   14.4642    1.2037   39.0800 H   0  0  0  0  0  0  0  0  0  0  0  0
   18.3969   -0.6600   36.7458 H   0  0  0  0  0  0  0  0  0  0  0  0
   13.1977    0.2359   36.8402 H   0  0  0  0  0  0  0  0  0  0  0  0
   11.5577   -0.1122   35.6617 H   0  0  0  0  0  0  0  0  0  0  0  0
    9.4872    0.2877   34.3206 H   0  0  0  0  0  0  0  0  0  0  0  0
    9.5905    1.3848   32.1155 H   0  0  0  0  0  0  0  0  0  0  0  0
   11.7917    2.0913   31.1935 H   0  0  0  0  0  0  0  0  0  0  0  0
   13.8506    1.7137   32.5141 H   0  0  0  0  0  0  0  0  0  0  0  0
   15.3166    0.2363   33.3621 H   0  0  0  0  0  0  0  0  0  0  0  0
   14.6944   -1.2303   34.1920 H   0  0  0  0  0  0  0  0  0  0  0  0
   16.7230   -1.3459   35.0435 H   0  0  0  0  0  0  0  0  0  0  0  0
   17.0924    0.3682   34.6536 H   0  0  0  0  0  0  0  0  0  0  0  0
   15.8921    2.7963   35.8227 H   0  0  0  0  0  0  0  0  0  0  0  0
   15.6026    5.2250   36.0515 H   0  0  0  0  0  0  0  0  0  0  0  0
   11.6546    4.5807   37.4873 H   0  0  0  0  0  0  0  0  0  0  0  0
   11.9419    2.1755   37.2245 H   0  0  0  0  0  0  0  0  0  0  0  0
   11.9854    6.5672   38.5122 H   0  0  0  0  0  0  0  0  0  0  0  0
   11.2897    6.4595   36.8596 H   0  0  0  0  0  0  0  0  0  0  0  0
   11.0094    8.6719   38.0991 H   0  0  0  0  0  0  0  0  0  0  0  0
   11.6619    8.7474   36.4273 H   0  0  0  0  0  0  0  0  0  0  0  0
   13.1415    9.0897   38.9370 H   0  0  0  0  0  0  0  0  0  0  0  0
   14.0986    8.9308   36.1483 H   0  0  0  0  0  0  0  0  0  0  0  0
   15.4134    7.0020   36.9655 H   0  0  0  0  0  0  0  0  0  0  0  0
   14.5791    7.1182   38.5520 H   0  0  0  0  0  0  0  0  0  0  0  0
   16.3025    9.3866   37.1731 H   0  0  0  0  0  0  0  0  0  0  0  0
   15.5743    9.3715   38.8150 H   0  0  0  0  0  0  0  0  0  0  0  0
   15.0076   11.3765   36.5655 H   0  0  0  0  0  0  0  0  0  0  0  0
   15.9079   11.6906   38.0878 H   0  0  0  0  0  0  0  0  0  0  0  0
   13.5421   12.5722   38.2029 H   0  0  0  0  0  0  0  0  0  0  0  0
   13.8021   11.2650   39.4073 H   0  0  0  0  0  0  0  0  0  0  0  0
   11.7134   10.8885   37.9384 H   0  0  0  0  0  0  0  0  0  0  0  0
   12.8075   10.7755   36.5183 H   0  0  0  0  0  0  0  0  0  0  0  0
  1  2  1  0  0  0  0
  1 34  1  0  0  0  0
  2  3  2  0  0  0  0
  2  7  1  0  0  0  0
  3  4  1  0  0  0  0
  3 35  1  0  0  0  0
  4  5  2  0  0  0  0
  4 36  1  0  0  0  0
  5  6  1  0  0  0  0
  5  8  1  0  0  0  0
  6  7  2  0  0  0  0
  6 17  1  0  0  0  0
  7 37  1  0  0  0  0
  8  9  1  0  0  0  0
  8 18  1  0  0  0  0
  8 38  1  1  0  0  0
  9 10  1  0  0  0  0
  9 16  1  0  0  0  0
 10 11  2  0  0  0  0
 10 15  1  0  0  0  0
 11 12  1  0  0  0  0
 11 39  1  0  0  0  0
 12 13  2  0  0  0  0
 12 40  1  0  0  0  0
 13 14  1  0  0  0  0
 13 41  1  0  0  0  0
 14 15  2  0  0  0  0
 14 42  1  0  0  0  0
 15 43  1  0  0  0  0
 16 17  1  0  0  0  0
 16 44  1  0  0  0  0
 16 45  1  0  0  0  0
 17 46  1  0  0  0  0
 17 47  1  0  0  0  0
 18 19  2  0  0  0  0
 18 23  1  0  0  0  0
 19 20  1  0  0  0  0
 19 48  1  0  0  0  0
 20 21  2  0  0  0  0
 20 49  1  0  0  0  0
 21 22  1  0  0  0  0
 21 24  1  0  0  0  0
 22 23  2  0  0  0  0
 22 50  1  0  0  0  0
 23 51  1  0  0  0  0
 24 25  1  0  0  0  0
 24 29  1  0  0  0  0
 25 26  1  0  0  0  0
 25 52  1  0  0  0  0
 25 53  1  0  0  0  0
 26 27  1  0  0  0  0
 26 54  1  0  0  0  0
 26 55  1  0  0  0  0
 27 28  1  0  0  0  0
 27 33  1  0  0  0  0
 27 56  1  1  0  0  0
 28 29  1  0  0  0  0
 28 30  1  0  0  0  0
 28 57  1  6  0  0  0
 29 58  1  0  0  0  0
 29 59  1  0  0  0  0
 30 31  1  0  0  0  0
 30 60  1  0  0  0  0
 30 61  1  0  0  0  0
 31 32  1  0  0  0  0
 31 62  1  0  0  0  0
 31 63  1  0  0  0  0
 32 33  1  0  0  0  0
 32 64  1  0  0  0  0
 32 65  1  0  0  0  0
 33 66  1  0  0  0  0
 33 67  1  0  0  0  0
M  CHG  1  27   1
M  END
