1xuc_ligand
 OpenBabel08222323343D

 50 52  0  0  0  0  0  0  0  0999 V2000
  -11.6440   27.4240   44.9340 C   0  0  0  0  0  0  0  0  0  0  0  0
  -11.0940   27.9990   46.0710 C   0  0  0  0  0  0  0  0  0  0  0  0
   -9.7160   28.0400   46.1830 C   0  0  0  0  0  0  0  0  0  0  0  0
  -10.8160   26.8970   43.9190 N   0  0  0  0  0  0  0  0  0  0  0  0
   -5.9120   27.9920   53.6390 C   0  0  0  0  0  0  0  0  0  0  0  0
  -18.2710   22.2390   44.1490 C   0  0  0  0  0  0  0  0  0  0  0  0
   -9.1310   28.6250   47.3770 C   0  0  0  0  0  0  0  0  0  0  0  0
   -7.0140   28.8070   48.7260 C   0  0  0  0  0  0  0  0  0  0  0  0
   -7.1980   27.9930   50.0040 C   0  0  0  0  0  0  0  0  0  0  0  0
  -13.1020   27.3630   44.8160 C   0  0  0  0  0  0  0  0  0  0  0  0
  -16.6420   24.2110   43.9590 C   0  0  0  0  0  0  0  0  0  0  0  0
  -15.7220   23.6980   46.6590 C   0  0  0  0  0  0  0  0  0  0  0  0
   -8.0850   26.8410   50.0560 C   0  0  0  0  0  0  0  0  0  0  0  0
   -8.2640   26.0830   51.2480 C   0  0  0  0  0  0  0  0  0  0  0  0
   -7.5510   26.4620   52.4200 C   0  0  0  0  0  0  0  0  0  0  0  0
   -6.4910   28.3600   51.1880 C   0  0  0  0  0  0  0  0  0  0  0  0
   -8.8800   27.5130   45.1690 N   0  0  0  0  0  0  0  0  0  0  0  0
   -9.4260   26.9340   44.0180 C   0  0  0  0  0  0  0  0  0  0  0  0
   -7.7950   28.3330   47.5470 N   0  0  0  0  0  0  0  0  0  0  0  0
  -13.5970   26.4180   43.9180 N   0  0  0  0  0  0  0  0  0  0  0  0
  -15.0460   26.1940   43.6840 C   0  0  0  0  0  0  0  0  0  0  0  0
  -15.6270   25.0460   44.5180 C   0  0  0  0  0  0  0  0  0  0  0  0
  -17.1850   23.1330   44.7490 C   0  0  0  0  0  0  0  0  0  0  0  0
  -16.7340   22.8730   46.0870 C   0  0  0  0  0  0  0  0  0  0  0  0
  -15.1780   24.7720   45.8770 C   0  0  0  0  0  0  0  0  0  0  0  0
   -6.6750   27.5910   52.3780 C   0  0  0  0  0  0  0  0  0  0  0  0
  -13.9190   28.0490   45.4520 O   0  0  0  0  0  0  0  0  0  0  0  0
   -9.7050   29.3010   48.2330 O   0  0  0  0  0  0  0  0  0  0  0  0
  -11.7278   28.4054   46.8509 H   0  0  0  0  0  0  0  0  0  0  0  0
   -6.1663   27.3014   54.4566 H   0  0  0  0  0  0  0  0  0  0  0  0
   -6.1898   29.0171   53.9253 H   0  0  0  0  0  0  0  0  0  0  0  0
   -4.8305   27.9462   53.4434 H   0  0  0  0  0  0  0  0  0  0  0  0
  -18.4973   22.5734   43.1258 H   0  0  0  0  0  0  0  0  0  0  0  0
  -19.1801   22.3027   44.7650 H   0  0  0  0  0  0  0  0  0  0  0  0
  -17.9168   21.1979   44.1245 H   0  0  0  0  0  0  0  0  0  0  0  0
   -5.9473   28.7822   48.4585 H   0  0  0  0  0  0  0  0  0  0  0  0
   -7.3149   29.8436   48.9377 H   0  0  0  0  0  0  0  0  0  0  0  0
  -17.0008   24.3856   42.9511 H   0  0  0  0  0  0  0  0  0  0  0  0
  -15.3690   23.5174   47.6679 H   0  0  0  0  0  0  0  0  0  0  0  0
   -8.6250   26.5515   49.1618 H   0  0  0  0  0  0  0  0  0  0  0  0
   -8.9331   25.2303   51.2626 H   0  0  0  0  0  0  0  0  0  0  0  0
   -7.6713   25.8985   53.3382 H   0  0  0  0  0  0  0  0  0  0  0  0
   -5.8218   29.2128   51.1846 H   0  0  0  0  0  0  0  0  0  0  0  0
   -8.7938   26.5307   43.2352 H   0  0  0  0  0  0  0  0  0  0  0  0
   -7.3313   27.7821   46.8531 H   0  0  0  0  0  0  0  0  0  0  0  0
  -12.9424   25.8626   43.4052 H   0  0  0  0  0  0  0  0  0  0  0  0
  -15.1955   25.9618   42.6192 H   0  0  0  0  0  0  0  0  0  0  0  0
  -15.5870   27.1176   43.9374 H   0  0  0  0  0  0  0  0  0  0  0  0
  -17.1597   22.0557   46.6578 H   0  0  0  0  0  0  0  0  0  0  0  0
  -14.4083   25.3995   46.3115 H   0  0  0  0  0  0  0  0  0  0  0  0
  1  2  2  0  0  0  0
  1  4  1  0  0  0  0
  2  3  1  0  0  0  0
  2 29  1  0  0  0  0
  3  7  1  0  0  0  0
  3 17  2  0  0  0  0
  4 18  2  0  0  0  0
  5 30  1  0  0  0  0
  5 31  1  0  0  0  0
  5 32  1  0  0  0  0
  6 33  1  0  0  0  0
  6 34  1  0  0  0  0
  6 35  1  0  0  0  0
  7 19  1  0  0  0  0
  7 28  2  0  0  0  0
  8  9  1  0  0  0  0
  8 36  1  0  0  0  0
  8 37  1  0  0  0  0
  9 13  2  0  0  0  0
  9 16  1  0  0  0  0
 10  1  1  0  0  0  0
 10 27  2  0  0  0  0
 11 23  1  0  0  0  0
 11 38  1  0  0  0  0
 12 24  1  0  0  0  0
 12 39  1  0  0  0  0
 13 14  1  0  0  0  0
 13 40  1  0  0  0  0
 14 15  2  0  0  0  0
 14 41  1  0  0  0  0
 15 42  1  0  0  0  0
 16 26  2  0  0  0  0
 16 43  1  0  0  0  0
 18 17  1  0  0  0  0
 18 44  1  0  0  0  0
 19  8  1  0  0  0  0
 19 45  1  0  0  0  0
 20 10  1  0  0  0  0
 20 46  1  0  0  0  0
 21 20  1  0  0  0  0
 21 47  1  0  0  0  0
 21 48  1  0  0  0  0
 22 11  2  0  0  0  0
 22 21  1  0  0  0  0
 22 25  1  0  0  0  0
 23  6  1  0  0  0  0
 23 24  2  0  0  0  0
 24 49  1  0  0  0  0
 25 12  2  0  0  0  0
 25 50  1  0  0  0  0
 26  5  1  0  0  0  0
 26 15  1  0  0  0  0
M  END
