1xud_ligand
 OpenBabel08222323343D

 50 52  0  0  0  0  0  0  0  0999 V2000
  -11.6020   27.3320   44.8470 C   0  0  0  0  0  0  0  0  0  0  0  0
  -11.0420   27.9400   45.9640 C   0  0  0  0  0  0  0  0  0  0  0  0
   -9.6600   27.9910   46.0580 C   0  0  0  0  0  0  0  0  0  0  0  0
   -5.8050   27.9660   53.4540 C   0  0  0  0  0  0  0  0  0  0  0  0
  -18.2930   22.1760   44.2470 C   0  0  0  0  0  0  0  0  0  0  0  0
   -9.0580   28.6100   47.2290 C   0  0  0  0  0  0  0  0  0  0  0  0
   -6.9290   28.8230   48.5460 C   0  0  0  0  0  0  0  0  0  0  0  0
   -7.0870   28.0030   49.8160 C   0  0  0  0  0  0  0  0  0  0  0  0
  -13.0640   27.2600   44.7390 C   0  0  0  0  0  0  0  0  0  0  0  0
  -15.0110   26.0620   43.6260 C   0  0  0  0  0  0  0  0  0  0  0  0
  -15.6040   24.9540   44.5050 C   0  0  0  0  0  0  0  0  0  0  0  0
  -16.6340   24.1120   43.9820 C   0  0  0  0  0  0  0  0  0  0  0  0
  -16.7340   22.8610   46.1670 C   0  0  0  0  0  0  0  0  0  0  0  0
   -7.9500   26.8380   49.8460 C   0  0  0  0  0  0  0  0  0  0  0  0
   -8.1200   26.0570   51.0140 C   0  0  0  0  0  0  0  0  0  0  0  0
   -7.4200   26.4240   52.1900 C   0  0  0  0  0  0  0  0  0  0  0  0
   -6.3860   28.3680   51.0050 C   0  0  0  0  0  0  0  0  0  0  0  0
   -8.8310   27.4410   45.0490 N   0  0  0  0  0  0  0  0  0  0  0  0
   -9.3880   26.8280   43.9210 C   0  0  0  0  0  0  0  0  0  0  0  0
  -10.7790   26.7810   43.8380 N   0  0  0  0  0  0  0  0  0  0  0  0
   -7.7200   28.3150   47.3890 N   0  0  0  0  0  0  0  0  0  0  0  0
  -13.5610   26.2960   43.8550 N   0  0  0  0  0  0  0  0  0  0  0  0
  -17.1890   23.0740   44.8160 C   0  0  0  0  0  0  0  0  0  0  0  0
  -15.7070   23.6950   46.6970 C   0  0  0  0  0  0  0  0  0  0  0  0
  -15.1530   24.7270   45.8700 C   0  0  0  0  0  0  0  0  0  0  0  0
   -6.5590   27.5750   52.1790 C   0  0  0  0  0  0  0  0  0  0  0  0
  -13.8830   27.9540   45.3680 O   0  0  0  0  0  0  0  0  0  0  0  0
   -9.6150   29.3170   48.0770 O   0  0  0  0  0  0  0  0  0  0  0  0
   -7.5890   25.5950   53.4450 F   0  0  0  0  0  0  0  0  0  0  0  0
  -17.2980   21.8280   46.9770 F   0  0  0  0  0  0  0  0  0  0  0  0
  -11.6689   28.3629   46.7407 H   0  0  0  0  0  0  0  0  0  0  0  0
   -5.1997   28.8640   53.2612 H   0  0  0  0  0  0  0  0  0  0  0  0
   -5.1471   27.1390   53.7591 H   0  0  0  0  0  0  0  0  0  0  0  0
   -6.5268   28.1758   54.2571 H   0  0  0  0  0  0  0  0  0  0  0  0
  -18.5138   22.4773   43.2124 H   0  0  0  0  0  0  0  0  0  0  0  0
  -19.2006   22.2775   44.8601 H   0  0  0  0  0  0  0  0  0  0  0  0
  -17.9569   21.1287   44.2601 H   0  0  0  0  0  0  0  0  0  0  0  0
   -5.8657   28.8215   48.2643 H   0  0  0  0  0  0  0  0  0  0  0  0
   -7.2507   29.8533   48.7582 H   0  0  0  0  0  0  0  0  0  0  0  0
  -15.5508   26.9973   43.8352 H   0  0  0  0  0  0  0  0  0  0  0  0
  -15.1553   25.7833   42.5717 H   0  0  0  0  0  0  0  0  0  0  0  0
  -16.9943   24.2520   42.9693 H   0  0  0  0  0  0  0  0  0  0  0  0
   -8.4821   26.5562   48.9446 H   0  0  0  0  0  0  0  0  0  0  0  0
   -8.7745   25.1929   51.0090 H   0  0  0  0  0  0  0  0  0  0  0  0
   -5.7331   29.2332   51.0159 H   0  0  0  0  0  0  0  0  0  0  0  0
   -8.7626   26.4063   43.1424 H   0  0  0  0  0  0  0  0  0  0  0  0
   -7.2660   27.7419   46.7068 H   0  0  0  0  0  0  0  0  0  0  0  0
  -12.9056   25.7343   43.3501 H   0  0  0  0  0  0  0  0  0  0  0  0
  -15.3500   23.5513   47.7104 H   0  0  0  0  0  0  0  0  0  0  0  0
  -14.3716   25.3597   46.2753 H   0  0  0  0  0  0  0  0  0  0  0  0
  1  9  1  0  0  0  0
  1 20  1  0  0  0  0
  2  1  2  0  0  0  0
  2 31  1  0  0  0  0
  3  2  1  0  0  0  0
  3 18  2  0  0  0  0
  4 32  1  0  0  0  0
  4 33  1  0  0  0  0
  4 34  1  0  0  0  0
  5 35  1  0  0  0  0
  5 36  1  0  0  0  0
  5 37  1  0  0  0  0
  6  3  1  0  0  0  0
  6 28  2  0  0  0  0
  7 21  1  0  0  0  0
  7 38  1  0  0  0  0
  7 39  1  0  0  0  0
  8  7  1  0  0  0  0
  8 17  1  0  0  0  0
  9 22  1  0  0  0  0
  9 27  2  0  0  0  0
 10 11  1  0  0  0  0
 10 40  1  0  0  0  0
 10 41  1  0  0  0  0
 11 12  2  0  0  0  0
 11 25  1  0  0  0  0
 12 23  1  0  0  0  0
 12 42  1  0  0  0  0
 13 24  1  0  0  0  0
 13 30  1  0  0  0  0
 14  8  2  0  0  0  0
 14 43  1  0  0  0  0
 15 14  1  0  0  0  0
 15 44  1  0  0  0  0
 16 15  2  0  0  0  0
 16 26  1  0  0  0  0
 16 29  1  0  0  0  0
 17 26  2  0  0  0  0
 17 45  1  0  0  0  0
 18 19  1  0  0  0  0
 19 20  2  0  0  0  0
 19 46  1  0  0  0  0
 21  6  1  0  0  0  0
 21 47  1  0  0  0  0
 22 10  1  0  0  0  0
 22 48  1  0  0  0  0
 23  5  1  0  0  0  0
 23 13  2  0  0  0  0
 24 25  2  0  0  0  0
 24 49  1  0  0  0  0
 25 50  1  0  0  0  0
 26  4  1  0  0  0  0
M  END
