1xuo_ligand
 OpenBabel08222323343D

 76 80  0  0  1  0  0  0  0  0999 V2000
    5.7540   48.6080   44.4640 O   0  0  0  0  0  0  0  0  0  0  0  0
    6.5260   48.8910   43.5580 C   0  0  0  0  0  0  0  0  0  0  0  0
    7.4750   49.8360   43.6580 N   0  0  0  0  0  0  0  0  0  0  0  0
    7.6380   50.6520   44.8480 C   0  0  0  0  0  0  0  0  0  0  0  0
    6.4900   48.1240   42.2530 C   0  0  2  0  0  0  0  0  0  0  0  0
    5.0530   47.9940   41.7180 C   0  0  0  0  0  0  0  0  0  0  0  0
    4.9090   47.1680   40.4530 C   0  0  0  0  0  0  0  0  0  0  0  0
    4.2490   45.9140   40.4730 C   0  0  0  0  0  0  0  0  0  0  0  0
    4.0880   45.1750   39.2970 C   0  0  0  0  0  0  0  0  0  0  0  0
    3.4390   43.9140   39.2930 C   0  0  0  0  0  0  0  0  0  0  0  0
    3.3160   43.2050   38.0900 C   0  0  0  0  0  0  0  0  0  0  0  0
    3.8350   43.7190   36.8900 C   0  0  0  0  0  0  0  0  0  0  0  0
    4.4940   44.9510   36.9110 C   0  0  0  0  0  0  0  0  0  0  0  0
    4.6170   45.6640   38.1080 C   0  0  0  0  0  0  0  0  0  0  0  0
    5.2720   46.8990   38.0990 C   0  0  0  0  0  0  0  0  0  0  0  0
    5.4200   47.6380   39.2680 C   0  0  0  0  0  0  0  0  0  0  0  0
    7.1120   46.8150   42.4690 N   0  0  0  0  0  0  0  0  0  0  0  0
    6.4510   45.8030   43.2780 C   0  0  0  0  0  0  0  0  0  0  0  0
    7.2330   45.5660   44.5800 C   0  0  0  0  0  0  0  0  0  0  0  0
    8.5560   44.8330   44.4840 C   0  0  0  0  0  0  0  0  0  0  0  0
    8.9430   44.3120   45.5260 O   0  0  0  0  0  0  0  0  0  0  0  0
    9.3430   44.7280   43.4140 N   0  0  0  0  0  0  0  0  0  0  0  0
    9.0340   45.2680   42.0890 C   0  0  1  0  0  0  0  0  0  0  0  0
    8.3260   44.1020   41.2930 C   0  0  0  0  0  0  0  0  0  0  0  0
    7.9100   44.3890   39.8340 C   0  0  0  0  0  0  0  0  0  0  0  0
    7.1500   43.1550   39.2660 C   0  0  0  0  0  0  0  0  0  0  0  0
    9.1280   44.7140   38.9730 C   0  0  0  0  0  0  0  0  0  0  0  0
    8.3280   46.5940   41.9450 C   0  0  0  0  0  0  0  0  0  0  0  0
    8.9410   47.4310   41.2770 O   0  0  0  0  0  0  0  0  0  0  0  0
   10.5780   43.9700   43.5720 C   0  0  0  0  0  0  0  0  0  0  0  0
   11.6790   44.8700   44.0280 C   0  0  0  0  0  0  0  0  0  0  0  0
   11.9400   45.0230   45.4460 C   0  0  0  0  0  0  0  0  0  0  0  0
   13.0710   45.9220   45.8690 C   0  0  0  0  0  0  0  0  0  0  0  0
   13.3550   46.0950   47.2300 C   0  0  0  0  0  0  0  0  0  0  0  0
   14.4100   46.9390   47.5940 C   0  0  0  0  0  0  0  0  0  0  0  0
   15.1660   47.6020   46.6190 C   0  0  0  0  0  0  0  0  0  0  0  0
   14.8790   47.4220   45.2630 C   0  0  0  0  0  0  0  0  0  0  0  0
   13.8200   46.5750   44.8980 C   0  0  0  0  0  0  0  0  0  0  0  0
   13.4960   46.3680   43.5150 N   0  0  0  0  0  0  0  0  0  0  0  0
   12.4060   45.4990   43.1220 C   0  0  0  0  0  0  0  0  0  0  0  0
    8.0919   49.9831   42.8848 H   0  0  0  0  0  0  0  0  0  0  0  0
    8.4732   51.3525   44.7006 H   0  0  0  0  0  0  0  0  0  0  0  0
    7.8511   50.0038   45.7108 H   0  0  0  0  0  0  0  0  0  0  0  0
    6.7133   51.2180   45.0340 H   0  0  0  0  0  0  0  0  0  0  0  0
    7.0816   48.6734   41.5059 H   0  0  0  0  0  0  0  0  0  0  0  0
    4.6743   49.0054   41.5094 H   0  0  0  0  0  0  0  0  0  0  0  0
    4.4386   47.5268   42.5017 H   0  0  0  0  0  0  0  0  0  0  0  0
    3.8654   45.5241   41.4089 H   0  0  0  0  0  0  0  0  0  0  0  0
    3.0411   43.5016   40.2132 H   0  0  0  0  0  0  0  0  0  0  0  0
    2.8125   42.2450   38.0856 H   0  0  0  0  0  0  0  0  0  0  0  0
    3.7260   43.1686   35.9625 H   0  0  0  0  0  0  0  0  0  0  0  0
    4.9115   45.3557   35.9961 H   0  0  0  0  0  0  0  0  0  0  0  0
    5.6701   47.2861   37.1680 H   0  0  0  0  0  0  0  0  0  0  0  0
    5.9406   48.5885   39.2437 H   0  0  0  0  0  0  0  0  0  0  0  0
    6.3980   44.8623   42.7103 H   0  0  0  0  0  0  0  0  0  0  0  0
    5.4334   46.1416   43.5225 H   0  0  0  0  0  0  0  0  0  0  0  0
    6.5839   44.9854   45.2520 H   0  0  0  0  0  0  0  0  0  0  0  0
    7.4349   46.5511   45.0259 H   0  0  0  0  0  0  0  0  0  0  0  0
   10.0100   45.4334   41.6093 H   0  0  0  0  0  0  0  0  0  0  0  0
    7.4164   43.8284   41.8478 H   0  0  0  0  0  0  0  0  0  0  0  0
    9.0170   43.2463   41.2769 H   0  0  0  0  0  0  0  0  0  0  0  0
    7.2345   45.2571   39.8234 H   0  0  0  0  0  0  0  0  0  0  0  0
    6.8515   43.3549   38.2263 H   0  0  0  0  0  0  0  0  0  0  0  0
    6.2537   42.9643   39.8745 H   0  0  0  0  0  0  0  0  0  0  0  0
    7.8077   42.2738   39.2956 H   0  0  0  0  0  0  0  0  0  0  0  0
    9.6499   45.5875   39.3910 H   0  0  0  0  0  0  0  0  0  0  0  0
    8.8022   44.9381   37.9466 H   0  0  0  0  0  0  0  0  0  0  0  0
    9.8096   43.8507   38.9611 H   0  0  0  0  0  0  0  0  0  0  0  0
   10.8534   43.5184   42.6075 H   0  0  0  0  0  0  0  0  0  0  0  0
   10.4246   43.1763   44.3180 H   0  0  0  0  0  0  0  0  0  0  0  0
   11.3368   44.5039   46.1820 H   0  0  0  0  0  0  0  0  0  0  0  0
   12.7690   45.5851   47.9861 H   0  0  0  0  0  0  0  0  0  0  0  0
   14.6449   47.0814   48.6426 H   0  0  0  0  0  0  0  0  0  0  0  0
   15.9766   48.2571   46.9171 H   0  0  0  0  0  0  0  0  0  0  0  0
   15.4650   47.9285   44.5046 H   0  0  0  0  0  0  0  0  0  0  0  0
   12.1837   45.3629   42.0698 H   0  0  0  0  0  0  0  0  0  0  0  0
  1  2  2  0  0  0  0
  2  3  1  0  0  0  0
  2  5  1  0  0  0  0
  3  4  1  0  0  0  0
  3 41  1  0  0  0  0
  4 42  1  0  0  0  0
  4 43  1  0  0  0  0
  4 44  1  0  0  0  0
  5  6  1  0  0  0  0
  5 17  1  0  0  0  0
  5 45  1  6  0  0  0
  6  7  1  0  0  0  0
  6 46  1  0  0  0  0
  6 47  1  0  0  0  0
  7  8  2  0  0  0  0
  7 16  1  0  0  0  0
  8  9  1  0  0  0  0
  8 48  1  0  0  0  0
  9 10  2  0  0  0  0
  9 14  1  0  0  0  0
 10 11  1  0  0  0  0
 10 49  1  0  0  0  0
 11 12  2  0  0  0  0
 11 50  1  0  0  0  0
 12 13  1  0  0  0  0
 12 51  1  0  0  0  0
 13 14  2  0  0  0  0
 13 52  1  0  0  0  0
 14 15  1  0  0  0  0
 15 16  2  0  0  0  0
 15 53  1  0  0  0  0
 16 54  1  0  0  0  0
 17 18  1  0  0  0  0
 17 28  1  0  0  0  0
 18 19  1  0  0  0  0
 18 55  1  0  0  0  0
 18 56  1  0  0  0  0
 19 20  1  0  0  0  0
 19 57  1  0  0  0  0
 19 58  1  0  0  0  0
 20 21  2  0  0  0  0
 20 22  1  0  0  0  0
 22 23  1  0  0  0  0
 22 30  1  0  0  0  0
 23 24  1  0  0  0  0
 23 28  1  0  0  0  0
 23 59  1  6  0  0  0
 24 25  1  0  0  0  0
 24 60  1  0  0  0  0
 24 61  1  0  0  0  0
 25 26  1  0  0  0  0
 25 27  1  0  0  0  0
 25 62  1  0  0  0  0
 26 63  1  0  0  0  0
 26 64  1  0  0  0  0
 26 65  1  0  0  0  0
 27 66  1  0  0  0  0
 27 67  1  0  0  0  0
 27 68  1  0  0  0  0
 28 29  2  0  0  0  0
 30 31  1  0  0  0  0
 30 69  1  0  0  0  0
 30 70  1  0  0  0  0
 31 32  2  0  0  0  0
 31 40  1  0  0  0  0
 32 33  1  0  0  0  0
 32 71  1  0  0  0  0
 33 34  2  0  0  0  0
 33 38  1  0  0  0  0
 34 35  1  0  0  0  0
 34 72  1  0  0  0  0
 35 36  2  0  0  0  0
 35 73  1  0  0  0  0
 36 37  1  0  0  0  0
 36 74  1  0  0  0  0
 37 38  2  0  0  0  0
 37 75  1  0  0  0  0
 38 39  1  0  0  0  0
 39 40  2  0  0  0  0
 40 76  1  0  0  0  0
M  END
