1xxe_ligand
 OpenBabel08222323343D

 71 71  0  0  1  0  0  0  0  0999 V2000
  -10.7240    3.1650   -2.7820 C   0  0  1  0  0  0  0  0  0  0  0  0
  -11.1710    1.8330   -3.3560 C   0  0  1  0  0  0  0  0  0  0  0  0
  -10.9630    0.7050   -2.3520 C   0  0  2  0  0  0  0  0  0  0  0  0
   -9.2980    3.0660   -2.2750 C   0  0  2  0  0  0  0  0  0  0  0  0
   -9.1520    1.9050   -1.2970 C   0  0  0  0  0  0  0  0  0  0  0  0
   -9.5970    0.6650   -1.8880 O   0  0  0  0  0  0  0  0  0  0  0  0
  -10.8290    4.1970   -3.7820 O   0  0  0  0  0  0  0  0  0  0  0  0
  -12.7720    4.9120   -2.7680 O   0  0  0  0  0  0  0  0  0  0  0  0
  -11.8010    5.2030   -3.4390 C   0  0  0  0  0  0  0  0  0  0  0  0
  -11.6230    6.6290   -3.9360 C   0  0  0  0  0  0  0  0  0  0  0  0
  -10.9370    7.4640   -2.8600 C   0  0  0  0  0  0  0  0  0  0  0  0
  -11.6710    8.7850   -2.6500 C   0  0  0  0  0  0  0  0  0  0  0  0
  -11.5000    9.7000   -3.8610 C   0  0  0  0  0  0  0  0  0  0  0  0
  -12.6740   10.6740   -3.9810 C   0  0  0  0  0  0  0  0  0  0  0  0
  -13.5280   10.3610   -5.2080 C   0  0  0  0  0  0  0  0  0  0  0  0
  -13.0920   11.2100   -6.4000 C   0  0  0  0  0  0  0  0  0  0  0  0
  -14.0600   11.0240   -7.5660 C   0  0  0  0  0  0  0  0  0  0  0  0
  -13.7390   11.9950   -8.7010 C   0  0  0  0  0  0  0  0  0  0  0  0
  -15.0210   12.6010   -9.2710 C   0  0  0  0  0  0  0  0  0  0  0  0
  -16.0420   11.5080   -9.5780 C   0  0  0  0  0  0  0  0  0  0  0  0
  -16.7790   11.8060  -10.8820 C   0  0  0  0  0  0  0  0  0  0  0  0
  -17.7950   10.7070  -11.1850 C   0  0  0  0  0  0  0  0  0  0  0  0
   -8.8780    4.3810   -1.6240 C   0  0  0  0  0  0  0  0  0  0  0  0
   -7.3630    4.5070   -1.6620 C   0  0  0  0  0  0  0  0  0  0  0  0
   -6.7950    4.7340   -2.7130 O   0  0  0  0  0  0  0  0  0  0  0  0
   -6.7040    4.3670   -0.5460 N   0  0  0  0  0  0  0  0  0  0  0  0
   -5.2730    4.5060   -0.5340 O   0  0  0  0  0  0  0  0  0  0  0  0
  -12.5440    1.9060   -3.7150 O   0  0  0  0  0  0  0  0  0  0  0  0
  -11.2680   -0.6490   -2.9600 C   0  0  0  0  0  0  0  0  0  0  0  0
  -10.1260   -1.1870   -3.6110 O   0  0  0  0  0  0  0  0  0  0  0  0
  -11.3806    3.4237   -1.9383 H   0  0  0  0  0  0  0  0  0  0  0  0
  -10.5760    1.6186   -4.2560 H   0  0  0  0  0  0  0  0  0  0  0  0
  -11.6323    0.8753   -1.4958 H   0  0  0  0  0  0  0  0  0  0  0  0
   -8.6368    2.8781   -3.1338 H   0  0  0  0  0  0  0  0  0  0  0  0
   -9.7557    2.1124   -0.4012 H   0  0  0  0  0  0  0  0  0  0  0  0
   -8.0942    1.8071   -1.0117 H   0  0  0  0  0  0  0  0  0  0  0  0
  -12.6078    7.0630   -4.1636 H   0  0  0  0  0  0  0  0  0  0  0  0
  -11.0048    6.6251   -4.8458 H   0  0  0  0  0  0  0  0  0  0  0  0
   -9.9021    7.6717   -3.1697 H   0  0  0  0  0  0  0  0  0  0  0  0
  -10.9310    6.9006   -1.9153 H   0  0  0  0  0  0  0  0  0  0  0  0
  -11.2639    9.2860   -1.7594 H   0  0  0  0  0  0  0  0  0  0  0  0
  -12.7417    8.5825   -2.4996 H   0  0  0  0  0  0  0  0  0  0  0  0
  -11.4476    9.0855   -4.7719 H   0  0  0  0  0  0  0  0  0  0  0  0
  -10.5672   10.2725   -3.7507 H   0  0  0  0  0  0  0  0  0  0  0  0
  -12.2829   11.6984   -4.0679 H   0  0  0  0  0  0  0  0  0  0  0  0
  -13.2991   10.5954   -3.0793 H   0  0  0  0  0  0  0  0  0  0  0  0
  -14.5822   10.5753   -4.9784 H   0  0  0  0  0  0  0  0  0  0  0  0
  -13.4173    9.2967   -5.4630 H   0  0  0  0  0  0  0  0  0  0  0  0
  -12.0831   10.9039   -6.7138 H   0  0  0  0  0  0  0  0  0  0  0  0
  -13.0786   12.2697   -6.1051 H   0  0  0  0  0  0  0  0  0  0  0  0
  -15.0862   11.2070   -7.2149 H   0  0  0  0  0  0  0  0  0  0  0  0
  -13.9790    9.9929   -7.9405 H   0  0  0  0  0  0  0  0  0  0  0  0
  -13.2087   11.4551   -9.4993 H   0  0  0  0  0  0  0  0  0  0  0  0
  -13.0983   12.8019   -8.3158 H   0  0  0  0  0  0  0  0  0  0  0  0
  -14.7833   13.1441  -10.1976 H   0  0  0  0  0  0  0  0  0  0  0  0
  -15.4487   13.2990   -8.5363 H   0  0  0  0  0  0  0  0  0  0  0  0
  -16.7709   11.4540   -8.7559 H   0  0  0  0  0  0  0  0  0  0  0  0
  -15.5212   10.5435   -9.6703 H   0  0  0  0  0  0  0  0  0  0  0  0
  -16.0509   11.8627  -11.7046 H   0  0  0  0  0  0  0  0  0  0  0  0
  -17.3036   12.7684  -10.7896 H   0  0  0  0  0  0  0  0  0  0  0  0
  -18.3154   10.9381  -12.1262 H   0  0  0  0  0  0  0  0  0  0  0  0
  -18.5271   10.6485  -10.3661 H   0  0  0  0  0  0  0  0  0  0  0  0
  -17.2745    9.7427  -11.2811 H   0  0  0  0  0  0  0  0  0  0  0  0
   -9.2208    4.3982   -0.5789 H   0  0  0  0  0  0  0  0  0  0  0  0
   -9.3292    5.2214   -2.1718 H   0  0  0  0  0  0  0  0  0  0  0  0
   -7.1937    4.1629    0.3017 H   0  0  0  0  0  0  0  0  0  0  0  0
   -4.9507    4.3754    0.3501 H   0  0  0  0  0  0  0  0  0  0  0  0
  -12.6696    2.6098   -4.3406 H   0  0  0  0  0  0  0  0  0  0  0  0
  -12.0805   -0.5386   -3.6932 H   0  0  0  0  0  0  0  0  0  0  0  0
  -11.5845   -1.3376   -2.1627 H   0  0  0  0  0  0  0  0  0  0  0  0
   -9.4220   -1.2881   -2.9811 H   0  0  0  0  0  0  0  0  0  0  0  0
  1  2  1  0  0  0  0
  1  4  1  0  0  0  0
  1  7  1  0  0  0  0
  1 31  1  1  0  0  0
  2  3  1  0  0  0  0
  2 28  1  0  0  0  0
  2 32  1  6  0  0  0
  3  6  1  0  0  0  0
  3 29  1  0  0  0  0
  3 33  1  1  0  0  0
  4  5  1  0  0  0  0
  4 23  1  0  0  0  0
  4 34  1  6  0  0  0
  5  6  1  0  0  0  0
  5 35  1  0  0  0  0
  5 36  1  0  0  0  0
  7  9  1  0  0  0  0
  9  8  2  0  0  0  0
  9 10  1  0  0  0  0
 10 11  1  0  0  0  0
 10 37  1  0  0  0  0
 10 38  1  0  0  0  0
 11 12  1  0  0  0  0
 11 39  1  0  0  0  0
 11 40  1  0  0  0  0
 12 13  1  0  0  0  0
 12 41  1  0  0  0  0
 12 42  1  0  0  0  0
 13 14  1  0  0  0  0
 13 43  1  0  0  0  0
 13 44  1  0  0  0  0
 14 15  1  0  0  0  0
 14 45  1  0  0  0  0
 14 46  1  0  0  0  0
 15 16  1  0  0  0  0
 15 47  1  0  0  0  0
 15 48  1  0  0  0  0
 16 17  1  0  0  0  0
 16 49  1  0  0  0  0
 16 50  1  0  0  0  0
 17 18  1  0  0  0  0
 17 51  1  0  0  0  0
 17 52  1  0  0  0  0
 18 19  1  0  0  0  0
 18 53  1  0  0  0  0
 18 54  1  0  0  0  0
 19 20  1  0  0  0  0
 19 55  1  0  0  0  0
 19 56  1  0  0  0  0
 20 21  1  0  0  0  0
 20 57  1  0  0  0  0
 20 58  1  0  0  0  0
 21 22  1  0  0  0  0
 21 59  1  0  0  0  0
 21 60  1  0  0  0  0
 22 61  1  0  0  0  0
 22 62  1  0  0  0  0
 22 63  1  0  0  0  0
 23 24  1  0  0  0  0
 23 64  1  0  0  0  0
 23 65  1  0  0  0  0
 24 25  2  0  0  0  0
 24 26  1  0  0  0  0
 26 27  1  0  0  0  0
 26 66  1  0  0  0  0
 27 67  1  0  0  0  0
 28 68  1  0  0  0  0
 29 30  1  0  0  0  0
 29 69  1  0  0  0  0
 29 70  1  0  0  0  0
 30 71  1  0  0  0  0
M  END
