1xxi_ligand
 OpenBabel08222323343D

 39 41  0  0  1  0  0  0  0  0999 V2000
   50.9290   81.8670   27.9520 P   0  0  0  0  0  0  0  0  0  0  0  0
   50.2610   82.7600   28.9170 O   0  0  0  0  0  1  0  0  0  0  0  0
   50.0620   81.1350   26.9380 O   0  0  0  0  0  1  0  0  0  0  0  0
   51.7770   80.8380   28.7860 O   0  0  0  0  0  0  0  0  0  0  0  0
   52.8530   83.9680   27.5310 P   0  0  1  0  0  0  0  0  0  0  0  0
   52.0930   85.0970   26.9410 O   0  0  0  0  0  1  0  0  0  0  0  0
   53.0930   84.1570   29.0000 O   0  0  0  0  0  0  0  0  0  0  0  0
   51.9670   82.6800   27.1950 O   0  0  0  0  0  0  0  0  0  0  0  0
   54.1850   83.6300   26.6480 O   0  0  0  0  0  0  0  0  0  0  0  0
   55.5080   83.8310   27.2770 C   0  0  0  0  0  0  0  0  0  0  0  0
   56.5550   84.4530   26.3160 C   0  0  1  0  0  0  0  0  0  0  0  0
   56.4170   83.7590   25.0130 O   0  0  0  0  0  0  0  0  0  0  0  0
   56.3030   85.9350   25.9700 C   0  0  1  0  0  0  0  0  0  0  0  0
   56.8610   86.8590   26.8590 O   0  0  0  0  0  0  0  0  0  0  0  0
   56.7890   86.0320   24.5320 C   0  0  1  0  0  0  0  0  0  0  0  0
   58.1570   86.3880   24.3530 O   0  0  0  0  0  0  0  0  0  0  0  0
   56.5230   84.7160   23.9400 C   0  0  2  0  0  0  0  0  0  0  0  0
   55.2170   84.6590   23.1380 N   0  0  0  0  0  0  0  0  0  0  0  0
   54.2040   83.7760   23.4530 C   0  0  0  0  0  0  0  0  0  0  0  0
   53.1400   83.8120   22.6960 N   0  0  0  0  0  0  0  0  0  0  0  0
   53.4190   84.7810   21.8040 C   0  0  0  0  0  0  0  0  0  0  0  0
   52.6880   85.3420   20.6700 C   0  0  0  0  0  0  0  0  0  0  0  0
   51.4510   84.9450   20.2910 N   0  0  0  0  0  0  0  0  0  0  0  0
   53.2960   86.3540   19.9510 N   0  0  0  0  0  0  0  0  0  0  0  0
   54.5620   86.8010   20.2940 C   0  0  0  0  0  0  0  0  0  0  0  0
   55.3390   86.3460   21.3260 N   0  0  0  0  0  0  0  0  0  0  0  0
   54.7260   85.3270   22.0450 C   0  0  0  0  0  0  0  0  0  0  0  0
   55.8840   82.8555   27.6191 H   0  0  0  0  0  0  0  0  0  0  0  0
   55.3859   84.5005   28.1412 H   0  0  0  0  0  0  0  0  0  0  0  0
   57.5627   84.3281   26.7391 H   0  0  0  0  0  0  0  0  0  0  0  0
   55.2183   86.1170   25.9836 H   0  0  0  0  0  0  0  0  0  0  0  0
   57.8037   86.7436   26.8836 H   0  0  0  0  0  0  0  0  0  0  0  0
   56.1844   86.7926   24.0164 H   0  0  0  0  0  0  0  0  0  0  0  0
   58.3147   87.2404   24.7417 H   0  0  0  0  0  0  0  0  0  0  0  0
   57.3598   84.4487   23.2780 H   0  0  0  0  0  0  0  0  0  0  0  0
   54.2875   83.0844   24.2901 H   0  0  0  0  0  0  0  0  0  0  0  0
   50.9947   85.3858   19.4796 H   0  0  0  0  0  0  0  0  0  0  0  0
   50.9658   84.2021   20.8140 H   0  0  0  0  0  0  0  0  0  0  0  0
   54.9805   87.5923   19.6826 H   0  0  0  0  0  0  0  0  0  0  0  0
  1  2  1  0  0  0  0
  1  3  1  0  0  0  0
  1  4  2  0  0  0  0
  5  6  1  6  0  0  0
  5  7  2  0  0  0  0
  5  8  1  0  0  0  0
  5  9  1  0  0  0  0
  8  1  1  0  0  0  0
  9 10  1  0  0  0  0
 10 11  1  0  0  0  0
 10 28  1  0  0  0  0
 10 29  1  0  0  0  0
 11 12  1  0  0  0  0
 11 13  1  0  0  0  0
 11 30  1  1  0  0  0
 12 17  1  0  0  0  0
 13 14  1  0  0  0  0
 13 15  1  0  0  0  0
 13 31  1  6  0  0  0
 14 32  1  0  0  0  0
 15 16  1  0  0  0  0
 15 17  1  0  0  0  0
 15 33  1  6  0  0  0
 16 34  1  0  0  0  0
 17 18  1  0  0  0  0
 17 35  1  6  0  0  0
 18 19  1  0  0  0  0
 18 27  1  0  0  0  0
 19 20  2  0  0  0  0
 19 36  1  0  0  0  0
 20 21  1  0  0  0  0
 21 22  2  0  0  0  0
 21 27  1  0  0  0  0
 22 23  1  0  0  0  0
 22 24  1  0  0  0  0
 23 37  1  0  0  0  0
 23 38  1  0  0  0  0
 24 25  2  0  0  0  0
 25 26  1  0  0  0  0
 25 39  1  0  0  0  0
 26 27  2  0  0  0  0
M  END
