1y19_ligand
 OpenBabel08222323343D

179184  0  0  1  0  0  0  0  0999 V2000
   17.0320   33.3440   21.1770 N   0  3  0  0  0  0  0  0  0  0  0  0
   15.5720   33.5720   21.3570 C   0  0  2  0  0  0  0  0  0  0  0  0
   14.7750   32.2620   21.3190 C   0  0  0  0  0  0  0  0  0  0  0  0
   15.3030   31.1890   21.6110 O   0  0  0  0  0  0  0  0  0  0  0  0
   15.0570   34.5300   20.2790 C   0  0  0  0  0  0  0  0  0  0  0  0
   13.7160   34.9200   20.5280 O   0  0  0  0  0  0  0  0  0  0  0  0
   13.5050   32.3600   20.9430 N   0  0  0  0  0  0  0  0  0  0  0  0
   12.6060   31.2120   20.8960 C   0  0  2  0  0  0  0  0  0  0  0  0
   13.0760   29.9450   20.1830 C   0  0  0  0  0  0  0  0  0  0  0  0
   13.7070   29.9940   19.1290 O   0  0  0  0  0  0  0  0  0  0  0  0
   11.2630   31.6310   20.2920 C   0  0  0  0  0  0  0  0  0  0  0  0
   10.4820   32.5780   21.1380 C   0  0  0  0  0  0  0  0  0  0  0  0
   10.0900   33.8370   20.8030 C   0  0  0  0  0  0  0  0  0  0  0  0
    9.9770   32.3360   22.4580 C   0  0  0  0  0  0  0  0  0  0  0  0
    9.3710   34.4000   21.8300 N   0  0  0  0  0  0  0  0  0  0  0  0
    9.2880   33.5010   22.8600 C   0  0  0  0  0  0  0  0  0  0  0  0
   10.0440   31.2490   23.3410 C   0  0  0  0  0  0  0  0  0  0  0  0
    8.6620   33.6100   24.1100 C   0  0  0  0  0  0  0  0  0  0  0  0
    9.4220   31.3580   24.5830 C   0  0  0  0  0  0  0  0  0  0  0  0
    8.7430   32.5320   24.9550 C   0  0  0  0  0  0  0  0  0  0  0  0
   12.7350   28.8080   20.7800 N   0  0  0  0  0  0  0  0  0  0  0  0
   13.0510   27.4950   20.2380 C   0  0  2  0  0  0  0  0  0  0  0  0
   11.7420   26.7220   20.3270 C   0  0  0  0  0  0  0  0  0  0  0  0
   11.1990   26.5310   21.4130 O   0  0  0  0  0  0  0  0  0  0  0  0
   14.1300   26.7780   21.0660 C   0  0  0  0  0  0  0  0  0  0  0  0
   14.4100   25.3960   20.4760 C   0  0  0  0  0  0  0  0  0  0  0  0
   15.3940   27.6180   21.0920 C   0  0  0  0  0  0  0  0  0  0  0  0
   11.2330   26.2880   19.1820 N   0  0  0  0  0  0  0  0  0  0  0  0
    9.9610   25.5830   19.1400 C   0  0  2  0  0  0  0  0  0  0  0  0
   10.0150   24.0860   19.3430 C   0  0  0  0  0  0  0  0  0  0  0  0
   10.9500   23.4160   18.9180 O   0  0  0  0  0  0  0  0  0  0  0  0
    9.2440   25.8960   17.8270 C   0  0  0  0  0  0  0  0  0  0  0  0
    8.8970   27.3570   17.6940 C   0  0  0  0  0  0  0  0  0  0  0  0
    9.8980   28.3250   17.5770 C   0  0  0  0  0  0  0  0  0  0  0  0
    7.5700   27.7820   17.7380 C   0  0  0  0  0  0  0  0  0  0  0  0
    9.5870   29.6780   17.5100 C   0  0  0  0  0  0  0  0  0  0  0  0
    7.2460   29.1360   17.6730 C   0  0  0  0  0  0  0  0  0  0  0  0
    8.2580   30.0760   17.5600 C   0  0  0  0  0  0  0  0  0  0  0  0
    7.9370   31.4120   17.5010 O   0  0  0  0  0  0  0  0  0  0  0  0
    8.9940   23.5740   20.0160 N   0  0  0  0  0  0  0  0  0  0  0  0
    8.8840   22.1500   20.2770 C   0  0  2  0  0  0  0  0  0  0  0  0
    8.2700   21.4870   19.0580 C   0  0  0  0  0  0  0  0  0  0  0  0
    7.2490   21.9430   18.5470 O   0  0  0  0  0  0  0  0  0  0  0  0
    7.9840   21.8860   21.4860 C   0  0  0  0  0  0  0  0  0  0  0  0
    7.6720   20.5060   21.5830 O   0  0  0  0  0  0  0  0  0  0  0  0
    8.8970   20.4140   18.5640 N   0  0  0  0  0  0  0  0  0  0  0  0
    8.3940   19.6910   17.3960 C   0  0  2  0  0  0  0  0  0  0  0  0
    6.9790   19.1560   17.6240 C   0  0  0  0  0  0  0  0  0  0  0  0
    6.1930   19.0370   16.6850 O   0  0  0  0  0  0  0  0  0  0  0  0
    9.4210   18.5810   17.2270 C   0  0  0  0  0  0  0  0  0  0  0  0
   10.6870   19.2680   17.6380 C   0  0  0  0  0  0  0  0  0  0  0  0
   10.2580   19.9670   18.9040 C   0  0  0  0  0  0  0  0  0  0  0  0
    6.6710   18.8410   18.8800 N   0  0  0  0  0  0  0  0  0  0  0  0
    5.3620   18.3190   19.2590 C   0  0  2  0  0  0  0  0  0  0  0  0
    4.2090   19.2470   18.8950 C   0  0  0  0  0  0  0  0  0  0  0  0
    3.0590   18.8170   18.8480 O   0  0  0  0  0  0  0  0  0  0  0  0
    5.3250   18.0180   20.7610 C   0  0  0  0  0  0  0  0  0  0  0  0
    5.7080   16.6040   21.2200 C   0  0  0  0  0  0  0  0  0  0  0  0
    7.0150   16.1600   20.5780 C   0  0  0  0  0  0  0  0  0  0  0  0
    5.8300   16.5890   22.7280 C   0  0  0  0  0  0  0  0  0  0  0  0
    4.5070   20.5160   18.6400 N   0  0  0  0  0  0  0  0  0  0  0  0
    3.4650   21.4600   18.2680 C   0  0  2  0  0  0  0  0  0  0  0  0
    3.4780   21.8650   16.7950 C   0  0  0  0  0  0  0  0  0  0  0  0
    2.7470   22.7680   16.3900 O   0  0  0  0  0  0  0  0  0  0  0  0
    3.5150   22.7050   19.1590 C   0  0  0  0  0  0  0  0  0  0  0  0
    2.8190   22.5290   20.4740 C   0  0  0  0  0  0  0  0  0  0  0  0
    2.1700   23.5620   21.1160 N   0  0  0  0  0  0  0  0  0  0  0  0
    2.6660   21.4400   21.2660 C   0  0  0  0  0  0  0  0  0  0  0  0
    1.6460   23.1170   22.2440 C   0  0  0  0  0  0  0  0  0  0  0  0
    1.9330   21.8330   22.3600 N   0  0  0  0  0  0  0  0  0  0  0  0
    4.3180   21.2070   16.0000 N   0  0  0  0  0  0  0  0  0  0  0  0
    4.3750   21.4590   14.5630 C   0  0  2  0  0  0  0  0  0  0  0  0
    3.1010   20.8240   13.9980 C   0  0  0  0  0  0  0  0  0  0  0  0
    2.5320   19.9260   14.6220 O   0  0  0  0  0  0  0  0  0  0  0  0
    5.6130   20.7880   13.9440 C   0  0  0  0  0  0  0  0  0  0  0  0
    6.9200   21.5270   14.1710 C   0  0  0  0  0  0  0  0  0  0  0  0
    8.1470   20.9200   13.8940 C   0  0  0  0  0  0  0  0  0  0  0  0
    6.9290   22.8430   14.6290 C   0  0  0  0  0  0  0  0  0  0  0  0
    9.3460   21.6100   14.0670 C   0  0  0  0  0  0  0  0  0  0  0  0
    8.1180   23.5420   14.8040 C   0  0  0  0  0  0  0  0  0  0  0  0
    9.3240   22.9260   14.5220 C   0  0  0  0  0  0  0  0  0  0  0  0
   10.5000   23.6350   14.6850 O   0  0  0  0  0  0  0  0  0  0  0  0
    2.6440   21.2870   12.8390 N   0  0  0  0  0  0  0  0  0  0  0  0
    1.4420   20.7250   12.2420 C   0  0  2  0  0  0  0  0  0  0  0  0
    1.6810   19.2370   12.0700 C   0  0  0  0  0  0  0  0  0  0  0  0
    2.8250   18.8060   11.9190 O   0  0  0  0  0  0  0  0  0  0  0  0
    1.1710   21.3590   10.8830 C   0  0  0  0  0  0  0  0  0  0  0  0
    2.1940   21.0170    9.9660 O   0  0  0  0  0  0  0  0  0  0  0  0
    0.6070   18.4540   12.0920 N   0  0  0  0  0  0  0  0  0  0  0  0
    0.7130   17.0010   11.9490 C   0  0  2  0  0  0  0  0  0  0  0  0
    1.4830   16.5740   10.7020 C   0  0  0  0  0  0  0  0  0  0  0  0
    2.3120   15.6660   10.7540 O   0  0  0  0  0  0  0  0  0  0  0  0
   -0.6670   16.3790   11.9420 C   0  0  0  0  0  0  0  0  0  0  0  0
    1.2552   17.1905    9.5458 O   0  0  0  0  0  0  0  0  0  0  0  0
   17.5164   34.2274   21.2084 H   0  0  0  0  0  0  0  0  0  0  0  0
   17.1958   32.9025   20.2858 H   0  0  0  0  0  0  0  0  0  0  0  0
   17.3725   32.7478   21.9150 H   0  0  0  0  0  0  0  0  0  0  0  0
   15.4173   34.0377   22.3415 H   0  0  0  0  0  0  0  0  0  0  0  0
   15.1077   34.0285   19.3013 H   0  0  0  0  0  0  0  0  0  0  0  0
   15.6933   35.4271   20.2644 H   0  0  0  0  0  0  0  0  0  0  0  0
   13.6659   35.3582   21.3694 H   0  0  0  0  0  0  0  0  0  0  0  0
   13.1504   33.2577   20.6813 H   0  0  0  0  0  0  0  0  0  0  0  0
   12.4306   30.9254   21.9434 H   0  0  0  0  0  0  0  0  0  0  0  0
   10.6569   30.7262   20.1373 H   0  0  0  0  0  0  0  0  0  0  0  0
   11.4561   32.1133   19.3224 H   0  0  0  0  0  0  0  0  0  0  0  0
   10.3138   34.3280   19.8571 H   0  0  0  0  0  0  0  0  0  0  0  0
    8.9610   35.3449   21.8258 H   0  0  0  0  0  0  0  0  0  0  0  0
   10.5690   30.3423   23.0631 H   0  0  0  0  0  0  0  0  0  0  0  0
    8.1340   34.5119   24.3979 H   0  0  0  0  0  0  0  0  0  0  0  0
    9.4621   30.5239   25.2741 H   0  0  0  0  0  0  0  0  0  0  0  0
    8.2734   32.5865   25.9305 H   0  0  0  0  0  0  0  0  0  0  0  0
   12.2361   28.8570   21.6453 H   0  0  0  0  0  0  0  0  0  0  0  0
   13.3868   27.5805   19.1940 H   0  0  0  0  0  0  0  0  0  0  0  0
   13.7656   26.6543   22.0965 H   0  0  0  0  0  0  0  0  0  0  0  0
   15.1826   24.8914   21.0748 H   0  0  0  0  0  0  0  0  0  0  0  0
   14.7620   25.5042   19.4395 H   0  0  0  0  0  0  0  0  0  0  0  0
   13.4870   24.7978   20.4892 H   0  0  0  0  0  0  0  0  0  0  0  0
   15.1688   28.6061   21.5196 H   0  0  0  0  0  0  0  0  0  0  0  0
   15.7743   27.7401   20.0671 H   0  0  0  0  0  0  0  0  0  0  0  0
   16.1549   27.1166   21.7082 H   0  0  0  0  0  0  0  0  0  0  0  0
   11.7331   26.4484   18.3310 H   0  0  0  0  0  0  0  0  0  0  0  0
    9.3521   25.9880   19.9618 H   0  0  0  0  0  0  0  0  0  0  0  0
    8.3158   25.3074   17.7826 H   0  0  0  0  0  0  0  0  0  0  0  0
    9.8991   25.6113   16.9905 H   0  0  0  0  0  0  0  0  0  0  0  0
   10.9360   28.0150   17.5378 H   0  0  0  0  0  0  0  0  0  0  0  0
    6.7774   27.0475   17.8242 H   0  0  0  0  0  0  0  0  0  0  0  0
   10.3756   30.4162   17.4195 H   0  0  0  0  0  0  0  0  0  0  0  0
    6.2096   29.4516   17.7106 H   0  0  0  0  0  0  0  0  0  0  0  0
    8.7332   31.9248   17.4253 H   0  0  0  0  0  0  0  0  0  0  0  0
    8.2790   24.1862   20.3536 H   0  0  0  0  0  0  0  0  0  0  0  0
    9.8839   21.7329   20.4670 H   0  0  0  0  0  0  0  0  0  0  0  0
    7.0525   22.4605   21.3758 H   0  0  0  0  0  0  0  0  0  0  0  0
    8.5050   22.2042   22.4011 H   0  0  0  0  0  0  0  0  0  0  0  0
    7.1136   20.3610   22.3378 H   0  0  0  0  0  0  0  0  0  0  0  0
    8.3845   20.3438   16.5107 H   0  0  0  0  0  0  0  0  0  0  0  0
    9.4722   18.2386   16.1829 H   0  0  0  0  0  0  0  0  0  0  0  0
    9.1983   17.7264   17.8827 H   0  0  0  0  0  0  0  0  0  0  0  0
   11.4914   18.5434   17.8328 H   0  0  0  0  0  0  0  0  0  0  0  0
   11.0186   19.9877   16.8751 H   0  0  0  0  0  0  0  0  0  0  0  0
   10.2490   19.2747   19.7588 H   0  0  0  0  0  0  0  0  0  0  0  0
   10.9137   20.8207   19.1304 H   0  0  0  0  0  0  0  0  0  0  0  0
    7.3629   18.9668   19.5910 H   0  0  0  0  0  0  0  0  0  0  0  0
    5.2131   17.3747   18.7149 H   0  0  0  0  0  0  0  0  0  0  0  0
    4.2987   18.2082   21.1080 H   0  0  0  0  0  0  0  0  0  0  0  0
    6.0144   18.7200   21.2528 H   0  0  0  0  0  0  0  0  0  0  0  0
    4.9138   15.9051   20.9188 H   0  0  0  0  0  0  0  0  0  0  0  0
    7.2667   15.1461   20.9223 H   0  0  0  0  0  0  0  0  0  0  0  0
    7.8186   16.8544   20.8642 H   0  0  0  0  0  0  0  0  0  0  0  0
    6.9041   16.1586   19.4836 H   0  0  0  0  0  0  0  0  0  0  0  0
    4.8787   16.9119   23.1760 H   0  0  0  0  0  0  0  0  0  0  0  0
    6.6325   17.2746   23.0378 H   0  0  0  0  0  0  0  0  0  0  0  0
    6.0674   15.5697   23.0666 H   0  0  0  0  0  0  0  0  0  0  0  0
    5.4559   20.8250   18.7043 H   0  0  0  0  0  0  0  0  0  0  0  0
    2.5033   20.9587   18.4522 H   0  0  0  0  0  0  0  0  0  0  0  0
    3.0372   23.5371   18.6212 H   0  0  0  0  0  0  0  0  0  0  0  0
    4.5692   22.9514   19.3537 H   0  0  0  0  0  0  0  0  0  0  0  0
    2.1040   24.5299   20.7701 H   0  0  0  0  0  0  0  0  0  0  0  0
    3.0518   20.4403   21.0718 H   0  0  0  0  0  0  0  0  0  0  0  0
    1.0742   23.7086   22.9574 H   0  0  0  0  0  0  0  0  0  0  0  0
    4.9271   20.5209   16.3978 H   0  0  0  0  0  0  0  0  0  0  0  0
    4.3973   22.5396   14.3586 H   0  0  0  0  0  0  0  0  0  0  0  0
    5.4508   20.7056   12.8592 H   0  0  0  0  0  0  0  0  0  0  0  0
    5.7094   19.7818   14.3778 H   0  0  0  0  0  0  0  0  0  0  0  0
    8.1674   19.8960   13.5388 H   0  0  0  0  0  0  0  0  0  0  0  0
    5.9883   23.3325   14.8538 H   0  0  0  0  0  0  0  0  0  0  0  0
   10.2904   21.1247   13.8485 H   0  0  0  0  0  0  0  0  0  0  0  0
    8.1000   24.5657   15.1600 H   0  0  0  0  0  0  0  0  0  0  0  0
   11.2367   23.0817   14.4535 H   0  0  0  0  0  0  0  0  0  0  0  0
    3.1298   22.0270   12.3739 H   0  0  0  0  0  0  0  0  0  0  0  0
    0.5801   20.8957   12.9038 H   0  0  0  0  0  0  0  0  0  0  0  0
    1.1347   22.4528   10.9941 H   0  0  0  0  0  0  0  0  0  0  0  0
    0.2054   20.9970   10.5002 H   0  0  0  0  0  0  0  0  0  0  0  0
    2.2260   20.0728    9.8666 H   0  0  0  0  0  0  0  0  0  0  0  0
   -0.2958   18.8678   12.2091 H   0  0  0  0  0  0  0  0  0  0  0  0
    1.2588   16.6193   12.8244 H   0  0  0  0  0  0  0  0  0  0  0  0
   -0.5769   15.2880   11.8342 H   0  0  0  0  0  0  0  0  0  0  0  0
   -1.2474   16.7839   11.0999 H   0  0  0  0  0  0  0  0  0  0  0  0
   -1.1795   16.6130   12.8868 H   0  0  0  0  0  0  0  0  0  0  0  0
    2.0598   17.5909    9.2378 H   0  0  0  0  0  0  0  0  0  0  0  0
  1 95  1  0  0  0  0
  1 96  1  0  0  0  0
  1 97  1  0  0  0  0
  2  1  1  0  0  0  0
  2  5  1  0  0  0  0
  2 98  1  1  0  0  0
  3  2  1  0  0  0  0
  3  4  2  0  0  0  0
  5  6  1  0  0  0  0
  5 99  1  0  0  0  0
  5100  1  0  0  0  0
  6101  1  0  0  0  0
  7  3  1  0  0  0  0
  7102  1  0  0  0  0
  8  7  1  0  0  0  0
  8 11  1  0  0  0  0
  8103  1  1  0  0  0
  9  8  1  0  0  0  0
  9 10  2  0  0  0  0
 11 12  1  0  0  0  0
 11104  1  0  0  0  0
 11105  1  0  0  0  0
 12 13  2  0  0  0  0
 12 14  1  0  0  0  0
 13 15  1  0  0  0  0
 13106  1  0  0  0  0
 14 17  2  0  0  0  0
 14 16  1  0  0  0  0
 15107  1  0  0  0  0
 16 18  2  0  0  0  0
 16 15  1  0  0  0  0
 17 19  1  0  0  0  0
 17108  1  0  0  0  0
 18 20  1  0  0  0  0
 18109  1  0  0  0  0
 19 20  2  0  0  0  0
 19110  1  0  0  0  0
 20111  1  0  0  0  0
 21  9  1  0  0  0  0
 21112  1  0  0  0  0
 22 21  1  0  0  0  0
 22 25  1  0  0  0  0
 22113  1  6  0  0  0
 23 22  1  0  0  0  0
 23 24  2  0  0  0  0
 25 27  1  0  0  0  0
 25 26  1  0  0  0  0
 25114  1  0  0  0  0
 26115  1  0  0  0  0
 26116  1  0  0  0  0
 26117  1  0  0  0  0
 27118  1  0  0  0  0
 27119  1  0  0  0  0
 27120  1  0  0  0  0
 28 23  1  0  0  0  0
 28121  1  0  0  0  0
 29 28  1  0  0  0  0
 29 32  1  0  0  0  0
 29122  1  1  0  0  0
 30 29  1  0  0  0  0
 30 31  2  0  0  0  0
 32 33  1  0  0  0  0
 32123  1  0  0  0  0
 32124  1  0  0  0  0
 33 34  2  0  0  0  0
 33 35  1  0  0  0  0
 34 36  1  0  0  0  0
 34125  1  0  0  0  0
 35 37  2  0  0  0  0
 35126  1  0  0  0  0
 36 38  2  0  0  0  0
 36127  1  0  0  0  0
 37 38  1  0  0  0  0
 37128  1  0  0  0  0
 38 39  1  0  0  0  0
 39129  1  0  0  0  0
 40 30  1  0  0  0  0
 40130  1  0  0  0  0
 41 40  1  0  0  0  0
 41 44  1  0  0  0  0
 41131  1  1  0  0  0
 42 41  1  0  0  0  0
 42 43  2  0  0  0  0
 44 45  1  0  0  0  0
 44132  1  0  0  0  0
 44133  1  0  0  0  0
 45134  1  0  0  0  0
 46 52  1  0  0  0  0
 46 42  1  0  0  0  0
 47 50  1  0  0  0  0
 47 46  1  0  0  0  0
 47135  1  6  0  0  0
 48 47  1  0  0  0  0
 48 49  2  0  0  0  0
 50 51  1  0  0  0  0
 50136  1  0  0  0  0
 50137  1  0  0  0  0
 51138  1  0  0  0  0
 51139  1  0  0  0  0
 52 51  1  0  0  0  0
 52140  1  0  0  0  0
 52141  1  0  0  0  0
 53 48  1  0  0  0  0
 53142  1  0  0  0  0
 54 53  1  0  0  0  0
 54 57  1  0  0  0  0
 54143  1  6  0  0  0
 55 54  1  0  0  0  0
 55 56  2  0  0  0  0
 57 58  1  0  0  0  0
 57144  1  0  0  0  0
 57145  1  0  0  0  0
 58 59  1  0  0  0  0
 58 60  1  0  0  0  0
 58146  1  0  0  0  0
 59147  1  0  0  0  0
 59148  1  0  0  0  0
 59149  1  0  0  0  0
 60150  1  0  0  0  0
 60151  1  0  0  0  0
 60152  1  0  0  0  0
 61 55  1  0  0  0  0
 61153  1  0  0  0  0
 62 61  1  0  0  0  0
 62 65  1  0  0  0  0
 62154  1  1  0  0  0
 63 62  1  0  0  0  0
 63 64  2  0  0  0  0
 65 66  1  0  0  0  0
 65155  1  0  0  0  0
 65156  1  0  0  0  0
 66 67  1  0  0  0  0
 66 68  2  0  0  0  0
 67 69  1  0  0  0  0
 67157  1  0  0  0  0
 68 70  1  0  0  0  0
 68158  1  0  0  0  0
 69159  1  0  0  0  0
 70 69  2  0  0  0  0
 71 63  1  0  0  0  0
 71160  1  0  0  0  0
 72 71  1  0  0  0  0
 72 75  1  0  0  0  0
 72161  1  6  0  0  0
 73 72  1  0  0  0  0
 73 74  2  0  0  0  0
 75 76  1  0  0  0  0
 75162  1  0  0  0  0
 75163  1  0  0  0  0
 76 77  2  0  0  0  0
 76 78  1  0  0  0  0
 77 79  1  0  0  0  0
 77164  1  0  0  0  0
 78 80  2  0  0  0  0
 78165  1  0  0  0  0
 79 81  2  0  0  0  0
 79166  1  0  0  0  0
 80 81  1  0  0  0  0
 80167  1  0  0  0  0
 81 82  1  0  0  0  0
 82168  1  0  0  0  0
 83 73  1  0  0  0  0
 83169  1  0  0  0  0
 84 83  1  0  0  0  0
 84 87  1  0  0  0  0
 84170  1  1  0  0  0
 85 84  1  0  0  0  0
 85 86  2  0  0  0  0
 85 89  1  0  0  0  0
 87 88  1  0  0  0  0
 87171  1  0  0  0  0
 87172  1  0  0  0  0
 88173  1  0  0  0  0
 89 90  1  0  0  0  0
 89174  1  0  0  0  0
 90 93  1  0  0  0  0
 90 91  1  0  0  0  0
 90175  1  1  0  0  0
 91 92  2  0  0  0  0
 91 94  1  0  0  0  0
 93176  1  0  0  0  0
 93177  1  0  0  0  0
 93178  1  0  0  0  0
 94179  1  0  0  0  0
M  CHG  1   1   1
M  END
