1y2b_ligand
 OpenBabel08222323343D

 24 24  0  0  0  0  0  0  0  0999 V2000
   15.6700   45.7620    9.5570 O   0  0  0  0  0  0  0  0  0  0  0  0
   14.5740   45.6030   10.0890 C   0  0  0  0  0  0  0  0  0  0  0  0
   13.3850   45.6210    9.4050 O   0  0  0  0  0  0  0  0  0  0  0  0
   13.4510   45.6730    7.9680 C   0  0  0  0  0  0  0  0  0  0  0  0
   12.0460   45.7730    7.4160 C   0  0  0  0  0  0  0  0  0  0  0  0
   14.4040   45.6220   11.5430 C   0  0  0  0  0  0  0  0  0  0  0  0
   13.2490   45.7810   12.3090 C   0  0  0  0  0  0  0  0  0  0  0  0
   11.8200   45.9840   11.9680 C   0  0  0  0  0  0  0  0  0  0  0  0
   15.4360   45.4790   12.5170 C   0  0  0  0  0  0  0  0  0  0  0  0
   16.8870   45.2740   12.2810 C   0  0  0  0  0  0  0  0  0  0  0  0
   14.9680   45.5390   13.7700 N   0  0  0  0  0  0  0  0  0  0  0  0
   13.6520   45.7250   13.6140 N   0  0  0  0  0  0  0  0  0  0  0  0
   13.9331   44.7606    7.5873 H   0  0  0  0  0  0  0  0  0  0  0  0
   14.0334   46.5527    7.6567 H   0  0  0  0  0  0  0  0  0  0  0  0
   12.0857   45.8134    6.3175 H   0  0  0  0  0  0  0  0  0  0  0  0
   11.5655   46.6853    7.7993 H   0  0  0  0  0  0  0  0  0  0  0  0
   11.4652   44.8931    7.7298 H   0  0  0  0  0  0  0  0  0  0  0  0
   11.2299   46.0626   12.8930 H   0  0  0  0  0  0  0  0  0  0  0  0
   11.4598   45.1306   11.3748 H   0  0  0  0  0  0  0  0  0  0  0  0
   11.7104   46.9093   11.3834 H   0  0  0  0  0  0  0  0  0  0  0  0
   17.4090   45.2028   13.2466 H   0  0  0  0  0  0  0  0  0  0  0  0
   17.2890   46.1230   11.7086 H   0  0  0  0  0  0  0  0  0  0  0  0
   17.0384   44.3443   11.7130 H   0  0  0  0  0  0  0  0  0  0  0  0
   13.0008   45.8177   14.4066 H   0  0  0  0  0  0  0  0  0  0  0  0
  2  1  2  0  0  0  0
  2  3  1  0  0  0  0
  2  6  1  0  0  0  0
  3  4  1  0  0  0  0
  4  5  1  0  0  0  0
  4 13  1  0  0  0  0
  4 14  1  0  0  0  0
  5 15  1  0  0  0  0
  5 16  1  0  0  0  0
  5 17  1  0  0  0  0
  6  7  2  0  0  0  0
  6  9  1  0  0  0  0
  7  8  1  0  0  0  0
  7 12  1  0  0  0  0
  8 18  1  0  0  0  0
  8 19  1  0  0  0  0
  8 20  1  0  0  0  0
  9 10  1  0  0  0  0
  9 11  2  0  0  0  0
 10 21  1  0  0  0  0
 10 22  1  0  0  0  0
 10 23  1  0  0  0  0
 11 12  1  0  0  0  0
 12 24  1  0  0  0  0
M  END
