1y2d_ligand
 OpenBabel08222323343D

 38 39  0  0  0  0  0  0  0  0999 V2000
   15.7720   46.2140    9.3150 O   0  0  0  0  0  0  0  0  0  0  0  0
   14.8480   45.6950    9.9320 C   0  0  0  0  0  0  0  0  0  0  0  0
   13.7570   45.1000    9.3400 O   0  0  0  0  0  0  0  0  0  0  0  0
   12.6740   45.8410    8.7610 C   0  0  0  0  0  0  0  0  0  0  0  0
   12.8870   46.0130    7.2710 C   0  0  0  0  0  0  0  0  0  0  0  0
   14.8350   45.5640   11.3920 C   0  0  0  0  0  0  0  0  0  0  0  0
   13.7490   45.5420   12.3180 C   0  0  0  0  0  0  0  0  0  0  0  0
   12.2810   45.6690   12.1220 C   0  0  0  0  0  0  0  0  0  0  0  0
   14.2130   45.3970   13.5570 N   0  0  0  0  0  0  0  0  0  0  0  0
   15.5660   45.3090   13.5200 N   0  0  0  0  0  0  0  0  0  0  0  0
   15.9800   45.4020   12.1910 C   0  0  0  0  0  0  0  0  0  0  0  0
   17.4000   45.3520   11.7480 C   0  0  0  0  0  0  0  0  0  0  0  0
   16.2870   45.1370   14.7540 C   0  0  0  0  0  0  0  0  0  0  0  0
   16.3530   43.8370   15.2940 C   0  0  0  0  0  0  0  0  0  0  0  0
   17.0310   43.5880   16.4900 C   0  0  0  0  0  0  0  0  0  0  0  0
   17.6570   44.6330   17.1770 C   0  0  0  0  0  0  0  0  0  0  0  0
   17.6000   45.9280   16.6520 C   0  0  0  0  0  0  0  0  0  0  0  0
   16.9210   46.1810   15.4480 C   0  0  0  0  0  0  0  0  0  0  0  0
   18.3460   44.4990   18.3740 O   0  0  0  0  0  0  0  0  0  0  0  0
   17.5750   44.6450   19.5740 C   0  0  0  0  0  0  0  0  0  0  0  0
   12.6184   46.8318    9.2356 H   0  0  0  0  0  0  0  0  0  0  0  0
   11.7321   45.2991    8.9320 H   0  0  0  0  0  0  0  0  0  0  0  0
   12.0483   46.5826    6.8441 H   0  0  0  0  0  0  0  0  0  0  0  0
   12.9405   45.0244    6.7917 H   0  0  0  0  0  0  0  0  0  0  0  0
   13.8268   46.5570    7.0953 H   0  0  0  0  0  0  0  0  0  0  0  0
   11.7738   45.6001   13.0957 H   0  0  0  0  0  0  0  0  0  0  0  0
   11.9272   44.8598   11.4663 H   0  0  0  0  0  0  0  0  0  0  0  0
   12.0556   46.6411   11.6591 H   0  0  0  0  0  0  0  0  0  0  0  0
   17.4461   45.4473   10.6531 H   0  0  0  0  0  0  0  0  0  0  0  0
   17.8453   44.3931   12.0516 H   0  0  0  0  0  0  0  0  0  0  0  0
   17.9581   46.1787   12.2117 H   0  0  0  0  0  0  0  0  0  0  0  0
   15.8704   43.0177   14.7735 H   0  0  0  0  0  0  0  0  0  0  0  0
   17.0720   42.5802   16.8872 H   0  0  0  0  0  0  0  0  0  0  0  0
   18.0835   46.7432   17.1781 H   0  0  0  0  0  0  0  0  0  0  0  0
   16.8862   47.1894   15.0517 H   0  0  0  0  0  0  0  0  0  0  0  0
   18.2301   44.5180   20.4484 H   0  0  0  0  0  0  0  0  0  0  0  0
   16.7825   43.8824   19.5958 H   0  0  0  0  0  0  0  0  0  0  0  0
   17.1209   45.6466   19.5985 H   0  0  0  0  0  0  0  0  0  0  0  0
  1  2  2  0  0  0  0
  2  3  1  0  0  0  0
  2  6  1  0  0  0  0
  3  4  1  0  0  0  0
  4  5  1  0  0  0  0
  4 21  1  0  0  0  0
  4 22  1  0  0  0  0
  5 23  1  0  0  0  0
  5 24  1  0  0  0  0
  5 25  1  0  0  0  0
  6  7  1  0  0  0  0
  6 11  2  0  0  0  0
  7  8  1  0  0  0  0
  7  9  2  0  0  0  0
  8 26  1  0  0  0  0
  8 27  1  0  0  0  0
  8 28  1  0  0  0  0
  9 10  1  0  0  0  0
 10 11  1  0  0  0  0
 10 13  1  0  0  0  0
 11 12  1  0  0  0  0
 12 29  1  0  0  0  0
 12 30  1  0  0  0  0
 12 31  1  0  0  0  0
 13 14  2  0  0  0  0
 13 18  1  0  0  0  0
 14 15  1  0  0  0  0
 14 32  1  0  0  0  0
 15 16  2  0  0  0  0
 15 33  1  0  0  0  0
 16 17  1  0  0  0  0
 16 19  1  0  0  0  0
 17 18  2  0  0  0  0
 17 34  1  0  0  0  0
 18 35  1  0  0  0  0
 19 20  1  0  0  0  0
 20 36  1  0  0  0  0
 20 37  1  0  0  0  0
 20 38  1  0  0  0  0
M  END
