1y3g_ligand
 OpenBabel08222323343D

 69 69  0  0  1  0  0  0  0  0999 V2000
   33.5740   38.3390   -7.3140 C   0  0  0  0  0  0  0  0  0  0  0  0
   34.2780   37.9180   -8.2260 O   0  0  0  0  0  0  0  0  0  0  0  0
   32.3320   37.5790   -6.8510 C   0  0  0  0  0  0  0  0  0  0  0  0
   31.7670   36.6130   -7.9030 C   0  0  0  0  0  0  0  0  0  0  0  0
   31.2790   37.2990   -9.1630 C   0  0  0  0  0  0  0  0  0  0  0  0
   29.9780   37.7270   -9.2740 C   0  0  0  0  0  0  0  0  0  0  0  0
   29.5400   38.3580  -10.4500 C   0  0  0  0  0  0  0  0  0  0  0  0
   30.3940   38.5660  -11.4810 C   0  0  0  0  0  0  0  0  0  0  0  0
   31.6770   38.1400  -11.3870 C   0  0  0  0  0  0  0  0  0  0  0  0
   32.1330   37.5030  -10.2230 C   0  0  0  0  0  0  0  0  0  0  0  0
   33.8310   39.4760   -6.6770 N   0  0  0  0  0  0  0  0  0  0  0  0
   34.9690   40.3030   -7.0270 C   0  0  0  0  0  0  0  0  0  0  0  0
   35.1320   41.8370   -6.0210 Si  0  0  0  0  0  0  0  0  0  0  0  0
   36.5590   42.5110   -6.4570 O   0  0  0  0  0  0  0  0  0  0  0  0
   33.9020   42.8650   -6.3510 O   0  0  0  0  0  0  0  0  0  0  0  0
   35.1470   41.5070   -4.1980 C   0  0  0  0  0  0  0  0  0  0  0  0
   36.4240   41.9170   -3.4250 C   0  0  2  0  0  0  0  0  0  0  0  0
   37.7300   41.1950   -3.7450 C   0  0  0  0  0  0  0  0  0  0  0  0
   38.8140   41.7940   -3.7770 O   0  0  0  0  0  0  0  0  0  0  0  0
   36.1680   41.9430   -1.9260 C   0  0  0  0  0  0  0  0  0  0  0  0
   37.3450   42.5010   -1.1340 C   0  0  0  0  0  0  0  0  0  0  0  0
   37.4160   44.0230   -1.2980 C   0  0  0  0  0  0  0  0  0  0  0  0
   37.1760   42.1430    0.3350 C   0  0  0  0  0  0  0  0  0  0  0  0
   37.6190   39.8890   -3.9520 N   0  0  0  0  0  0  0  0  0  0  0  0
   38.7760   39.0650   -4.2550 C   0  0  2  0  0  0  0  0  0  0  0  0
   38.4390   37.9670   -5.2420 C   0  0  0  0  0  0  0  0  0  0  0  0
   37.2240   37.7700   -5.5120 O   0  5  0  0  0  0  0  0  0  0  0  0
   39.4430   38.4920   -2.9850 C   0  0  0  0  0  0  0  0  0  0  0  0
   38.5760   37.4890   -2.2380 C   0  0  0  0  0  0  0  0  0  0  0  0
   37.5350   38.2240   -1.4170 C   0  0  0  0  0  0  0  0  0  0  0  0
   39.4430   36.6570   -1.3110 C   0  0  0  0  0  0  0  0  0  0  0  0
   39.3950   37.3570   -5.7700 O   0  0  0  0  0  0  0  0  0  0  0  0
   31.5513   38.3117   -6.5986 H   0  0  0  0  0  0  0  0  0  0  0  0
   32.5948   36.9993   -5.9538 H   0  0  0  0  0  0  0  0  0  0  0  0
   30.9228   36.0680   -7.4556 H   0  0  0  0  0  0  0  0  0  0  0  0
   32.5579   35.9005   -8.1801 H   0  0  0  0  0  0  0  0  0  0  0  0
   29.2877   37.5773   -8.4517 H   0  0  0  0  0  0  0  0  0  0  0  0
   28.5088   38.6816  -10.5335 H   0  0  0  0  0  0  0  0  0  0  0  0
   30.0524   39.0710  -12.3773 H   0  0  0  0  0  0  0  0  0  0  0  0
   32.3564   38.2926  -12.2178 H   0  0  0  0  0  0  0  0  0  0  0  0
   33.1626   37.1700  -10.1582 H   0  0  0  0  0  0  0  0  0  0  0  0
   33.2245   39.7687   -5.9378 H   0  0  0  0  0  0  0  0  0  0  0  0
   34.8716   40.5932   -8.0836 H   0  0  0  0  0  0  0  0  0  0  0  0
   35.8828   39.7053   -6.8936 H   0  0  0  0  0  0  0  0  0  0  0  0
   35.0038   40.4259   -4.0543 H   0  0  0  0  0  0  0  0  0  0  0  0
   34.3003   42.0513   -3.7543 H   0  0  0  0  0  0  0  0  0  0  0  0
   36.6045   42.9609   -3.7212 H   0  0  0  0  0  0  0  0  0  0  0  0
   35.9710   40.9158   -1.5855 H   0  0  0  0  0  0  0  0  0  0  0  0
   35.2851   42.5695   -1.7313 H   0  0  0  0  0  0  0  0  0  0  0  0
   38.2778   42.0555   -1.5101 H   0  0  0  0  0  0  0  0  0  0  0  0
   38.2681   44.4144   -0.7229 H   0  0  0  0  0  0  0  0  0  0  0  0
   36.4845   44.4756   -0.9272 H   0  0  0  0  0  0  0  0  0  0  0  0
   37.5465   44.2715   -2.3616 H   0  0  0  0  0  0  0  0  0  0  0  0
   37.1261   41.0494    0.4425 H   0  0  0  0  0  0  0  0  0  0  0  0
   36.2473   42.5917    0.7173 H   0  0  0  0  0  0  0  0  0  0  0  0
   38.0324   42.5289    0.9074 H   0  0  0  0  0  0  0  0  0  0  0  0
   36.7165   39.4616   -3.8980 H   0  0  0  0  0  0  0  0  0  0  0  0
   39.5162   39.7193   -4.7388 H   0  0  0  0  0  0  0  0  0  0  0  0
   39.6717   39.3267   -2.3061 H   0  0  0  0  0  0  0  0  0  0  0  0
   40.3776   37.9919   -3.2791 H   0  0  0  0  0  0  0  0  0  0  0  0
   38.0742   36.8298   -2.9616 H   0  0  0  0  0  0  0  0  0  0  0  0
   36.9109   37.4953   -0.8790 H   0  0  0  0  0  0  0  0  0  0  0  0
   36.9016   38.8278   -2.0835 H   0  0  0  0  0  0  0  0  0  0  0  0
   38.0370   38.8822   -0.6926 H   0  0  0  0  0  0  0  0  0  0  0  0
   40.2009   36.1208   -1.9009 H   0  0  0  0  0  0  0  0  0  0  0  0
   38.8146   35.9308   -0.7747 H   0  0  0  0  0  0  0  0  0  0  0  0
   39.9420   37.3163   -0.5856 H   0  0  0  0  0  0  0  0  0  0  0  0
   37.2659   41.9072   -6.2617 H   0  0  0  0  0  0  0  0  0  0  0  0
   34.0273   43.6727   -5.8668 H   0  0  0  0  0  0  0  0  0  0  0  0
  1  2  2  0  0  0  0
  1  3  1  0  0  0  0
  1 11  1  0  0  0  0
  3  4  1  0  0  0  0
  3 33  1  0  0  0  0
  3 34  1  0  0  0  0
  4  5  1  0  0  0  0
  4 35  1  0  0  0  0
  4 36  1  0  0  0  0
  5  6  2  0  0  0  0
  5 10  1  0  0  0  0
  6  7  1  0  0  0  0
  6 37  1  0  0  0  0
  7  8  2  0  0  0  0
  7 38  1  0  0  0  0
  8  9  1  0  0  0  0
  8 39  1  0  0  0  0
  9 10  2  0  0  0  0
  9 40  1  0  0  0  0
 10 41  1  0  0  0  0
 11 12  1  0  0  0  0
 11 42  1  0  0  0  0
 12 13  1  0  0  0  0
 12 43  1  0  0  0  0
 12 44  1  0  0  0  0
 13 14  1  0  0  0  0
 13 15  1  0  0  0  0
 13 16  1  0  0  0  0
 14 68  1  0  0  0  0
 15 69  1  0  0  0  0
 16 17  1  0  0  0  0
 16 45  1  0  0  0  0
 16 46  1  0  0  0  0
 17 18  1  0  0  0  0
 17 20  1  0  0  0  0
 17 47  1  6  0  0  0
 18 19  2  0  0  0  0
 18 24  1  0  0  0  0
 20 21  1  0  0  0  0
 20 48  1  0  0  0  0
 20 49  1  0  0  0  0
 21 22  1  0  0  0  0
 21 23  1  0  0  0  0
 21 50  1  0  0  0  0
 22 51  1  0  0  0  0
 22 52  1  0  0  0  0
 22 53  1  0  0  0  0
 23 54  1  0  0  0  0
 23 55  1  0  0  0  0
 23 56  1  0  0  0  0
 24 25  1  0  0  0  0
 24 57  1  0  0  0  0
 25 26  1  0  0  0  0
 25 28  1  0  0  0  0
 25 58  1  6  0  0  0
 26 27  1  0  0  0  0
 26 32  2  0  0  0  0
 28 29  1  0  0  0  0
 28 59  1  0  0  0  0
 28 60  1  0  0  0  0
 29 30  1  0  0  0  0
 29 31  1  0  0  0  0
 29 61  1  0  0  0  0
 30 62  1  0  0  0  0
 30 63  1  0  0  0  0
 30 64  1  0  0  0  0
 31 65  1  0  0  0  0
 31 66  1  0  0  0  0
 31 67  1  0  0  0  0
M  CHG  1  27  -1
M  END
