1y3y_ligand
 OpenBabel08222323343D

 46 49  0  0  1  0  0  0  0  0999 V2000
   46.7820   18.5210   54.8030 N   0  0  0  0  0  0  0  0  0  0  0  0
   45.9170   18.3890   53.8160 C   0  0  0  0  0  3  0  0  0  0  0  0
   45.4140   19.4450   53.0080 C   0  0  0  0  0  0  0  0  0  0  0  0
   45.8000   20.7750   53.1630 C   0  0  0  0  0  0  0  0  0  0  0  0
   45.2670   21.7530   52.3080 C   0  0  0  0  0  0  0  0  0  0  0  0
   44.3600   21.3990   51.3070 C   0  0  0  0  0  0  0  0  0  0  0  0
   43.7650   22.4440   50.3990 C   0  0  2  0  0  0  0  0  0  0  0  0
   44.7350   23.5840   50.1970 N   0  3  1  0  0  0  0  0  0  0  0  0
   45.8270   23.2350   49.2340 C   0  0  0  0  0  0  0  0  0  0  0  0
   45.3040   23.6120   47.8340 C   0  0  0  0  0  0  0  0  0  0  0  0
   43.9870   24.3060   48.0080 C   0  0  0  0  0  0  0  0  0  0  0  0
   43.8670   24.6200   49.5100 C   0  0  1  0  0  0  0  0  0  0  0  0
   42.3910   24.3430   49.9370 C   0  0  2  0  0  0  0  0  0  0  0  0
   41.8250   25.4680   50.8640 C   0  0  0  0  0  0  0  0  0  0  0  0
   42.3560   25.1290   52.1740 N   0  0  0  0  0  0  0  0  0  0  0  0
   42.6810   23.7970   52.2790 C   0  0  0  0  0  0  0  0  0  0  0  0
   43.1490   23.2690   53.3220 O   0  0  0  0  0  0  0  0  0  0  0  0
   42.4790   23.1340   50.9000 C   0  0  2  0  0  0  0  0  0  0  0  0
   41.8670   25.8700   53.3930 C   0  0  0  0  0  0  0  0  0  0  0  0
   43.9760   20.0560   51.1520 C   0  0  0  0  0  0  0  0  0  0  0  0
   44.5070   19.0900   51.9830 C   0  0  0  0  0  0  0  0  0  0  0  0
   45.4850   17.1240   53.5910 N   0  0  0  0  0  0  0  0  0  0  0  0
   47.0884   17.6930   55.3334 H   0  0  0  0  0  0  0  0  0  0  0  0
   47.1510   19.4521   55.0433 H   0  0  0  0  0  0  0  0  0  0  0  0
   46.5060   21.0523   53.9374 H   0  0  0  0  0  0  0  0  0  0  0  0
   45.5615   22.7896   52.4258 H   0  0  0  0  0  0  0  0  0  0  0  0
   43.5516   21.9594   49.4348 H   0  0  0  0  0  0  0  0  0  0  0  0
   45.1173   23.9087   51.0713 H   0  0  0  0  0  0  0  0  0  0  0  0
   46.0472   22.1583   49.2813 H   0  0  0  0  0  0  0  0  0  0  0  0
   46.7377   23.8062   49.4671 H   0  0  0  0  0  0  0  0  0  0  0  0
   45.1711   22.7042   47.2273 H   0  0  0  0  0  0  0  0  0  0  0  0
   46.0183   24.2844   47.3363 H   0  0  0  0  0  0  0  0  0  0  0  0
   43.1642   23.6499   47.6880 H   0  0  0  0  0  0  0  0  0  0  0  0
   43.9644   25.2356   47.4204 H   0  0  0  0  0  0  0  0  0  0  0  0
   44.1752   25.6489   49.7472 H   0  0  0  0  0  0  0  0  0  0  0  0
   41.7452   24.1641   49.0647 H   0  0  0  0  0  0  0  0  0  0  0  0
   40.7251   25.4555   50.8706 H   0  0  0  0  0  0  0  0  0  0  0  0
   42.1785   26.4583   50.5410 H   0  0  0  0  0  0  0  0  0  0  0  0
   41.6038   22.4680   50.8802 H   0  0  0  0  0  0  0  0  0  0  0  0
   42.3761   25.4811   54.2872 H   0  0  0  0  0  0  0  0  0  0  0  0
   40.7814   25.7272   53.4979 H   0  0  0  0  0  0  0  0  0  0  0  0
   42.0869   26.9422   53.2831 H   0  0  0  0  0  0  0  0  0  0  0  0
   43.2648   19.7794   50.3821 H   0  0  0  0  0  0  0  0  0  0  0  0
   44.2265   18.0516   51.8487 H   0  0  0  0  0  0  0  0  0  0  0  0
   44.8082   16.9373   52.8374 H   0  0  0  0  0  0  0  0  0  0  0  0
   45.8336   16.3495   54.1737 H   0  0  0  0  0  0  0  0  0  0  0  0
  1  2  1  0  0  0  0
  1 23  1  0  0  0  0
  1 24  1  0  0  0  0
  2  3  1  0  0  0  0
  2 22  1  0  0  0  0
  3  4  2  0  0  0  0
  3 21  1  0  0  0  0
  4  5  1  0  0  0  0
  4 25  1  0  0  0  0
  5  6  2  0  0  0  0
  5 26  1  0  0  0  0
  6  7  1  0  0  0  0
  6 20  1  0  0  0  0
  7  8  1  0  0  0  0
  7 18  1  0  0  0  0
  7 27  1  6  0  0  0
  8  9  1  0  0  0  0
  8 12  1  0  0  0  0
  8 28  1  1  0  0  0
  9 10  1  0  0  0  0
  9 29  1  0  0  0  0
  9 30  1  0  0  0  0
 10 11  1  0  0  0  0
 10 31  1  0  0  0  0
 10 32  1  0  0  0  0
 11 12  1  0  0  0  0
 11 33  1  0  0  0  0
 11 34  1  0  0  0  0
 12 13  1  0  0  0  0
 12 35  1  1  0  0  0
 13 14  1  0  0  0  0
 13 18  1  0  0  0  0
 13 36  1  6  0  0  0
 14 15  1  0  0  0  0
 14 37  1  0  0  0  0
 14 38  1  0  0  0  0
 15 16  1  0  0  0  0
 15 19  1  0  0  0  0
 16 17  2  0  0  0  0
 16 18  1  0  0  0  0
 18 39  1  6  0  0  0
 19 40  1  0  0  0  0
 19 41  1  0  0  0  0
 19 42  1  0  0  0  0
 20 21  2  0  0  0  0
 20 43  1  0  0  0  0
 21 44  1  0  0  0  0
 22 45  1  0  0  0  0
 22 46  1  0  0  0  0
M  CHG  1   8   1
M  END
