1y8o_ligand
 OpenBabel08222323343D

 39 41  0  0  1  0  0  0  0  0999 V2000
  -46.2550   16.5650   73.3180 P   0  0  0  0  0  0  0  0  0  0  0  0
  -45.8420   16.0780   74.7090 O   0  0  0  0  0  1  0  0  0  0  0  0
  -45.2790   16.3630   72.1750 O   0  0  0  0  0  1  0  0  0  0  0  0
  -46.9460   17.9210   73.3630 O   0  0  0  0  0  0  0  0  0  0  0  0
  -48.8140   15.7410   72.2220 P   0  0  1  0  0  0  0  0  0  0  0  0
  -49.4330   14.3600   72.0410 O   0  0  0  0  0  1  0  0  0  0  0  0
  -49.5120   16.8360   73.0210 O   0  0  0  0  0  0  0  0  0  0  0  0
  -47.4000   15.4480   72.9730 O   0  0  0  0  0  0  0  0  0  0  0  0
  -48.3870   16.3960   70.7930 O   0  0  0  0  0  0  0  0  0  0  0  0
  -47.7190   15.6340   69.7900 C   0  0  0  0  0  0  0  0  0  0  0  0
  -46.9910   16.4800   68.7390 C   0  0  1  0  0  0  0  0  0  0  0  0
  -47.8500   17.0230   67.7030 O   0  0  0  0  0  0  0  0  0  0  0  0
  -46.1790   17.6620   69.2830 C   0  0  1  0  0  0  0  0  0  0  0  0
  -44.8980   17.1780   69.7010 O   0  0  0  0  0  0  0  0  0  0  0  0
  -46.0780   18.6000   68.0870 C   0  0  1  0  0  0  0  0  0  0  0  0
  -44.9560   18.2210   67.2760 O   0  0  0  0  0  0  0  0  0  0  0  0
  -47.3250   18.3080   67.2590 C   0  0  2  0  0  0  0  0  0  0  0  0
  -48.3820   19.3470   67.4280 N   0  0  0  0  0  0  0  0  0  0  0  0
  -49.4870   19.1920   68.1860 C   0  0  0  0  0  0  0  0  0  0  0  0
  -50.2910   20.2750   68.1310 N   0  0  0  0  0  0  0  0  0  0  0  0
  -49.6960   21.1690   67.3180 C   0  0  0  0  0  0  0  0  0  0  0  0
  -50.0150   22.5460   66.8570 C   0  0  0  0  0  0  0  0  0  0  0  0
  -51.1460   23.1860   67.2440 N   0  0  0  0  0  0  0  0  0  0  0  0
  -49.1320   23.1110   66.0110 N   0  0  0  0  0  0  0  0  0  0  0  0
  -47.9830   22.4900   65.6110 C   0  0  0  0  0  0  0  0  0  0  0  0
  -47.6140   21.2540   66.0120 N   0  0  0  0  0  0  0  0  0  0  0  0
  -48.4320   20.5530   66.8460 C   0  0  0  0  0  0  0  0  0  0  0  0
  -48.4657   15.0117   69.2750 H   0  0  0  0  0  0  0  0  0  0  0  0
  -46.9797   14.9864   70.2839 H   0  0  0  0  0  0  0  0  0  0  0  0
  -46.2806   15.7963   68.2514 H   0  0  0  0  0  0  0  0  0  0  0  0
  -46.6882   18.1526   70.1256 H   0  0  0  0  0  0  0  0  0  0  0  0
  -45.0141   16.5236   70.3798 H   0  0  0  0  0  0  0  0  0  0  0  0
  -46.0152   19.6537   68.3966 H   0  0  0  0  0  0  0  0  0  0  0  0
  -44.1603   18.2776   67.7919 H   0  0  0  0  0  0  0  0  0  0  0  0
  -47.0479   18.2525   66.1959 H   0  0  0  0  0  0  0  0  0  0  0  0
  -49.7044   18.3002   68.7720 H   0  0  0  0  0  0  0  0  0  0  0  0
  -51.3387   24.1401   66.9073 H   0  0  0  0  0  0  0  0  0  0  0  0
  -51.8124   22.7180   67.8747 H   0  0  0  0  0  0  0  0  0  0  0  0
  -47.3275   23.0213   64.9305 H   0  0  0  0  0  0  0  0  0  0  0  0
  1  2  1  0  0  0  0
  1  3  1  0  0  0  0
  1  4  2  0  0  0  0
  5  6  1  6  0  0  0
  5  7  2  0  0  0  0
  5  8  1  0  0  0  0
  5  9  1  0  0  0  0
  8  1  1  0  0  0  0
  9 10  1  0  0  0  0
 10 11  1  0  0  0  0
 10 28  1  0  0  0  0
 10 29  1  0  0  0  0
 11 12  1  0  0  0  0
 11 13  1  0  0  0  0
 11 30  1  6  0  0  0
 12 17  1  0  0  0  0
 13 14  1  0  0  0  0
 13 15  1  0  0  0  0
 13 31  1  1  0  0  0
 14 32  1  0  0  0  0
 15 16  1  0  0  0  0
 15 17  1  0  0  0  0
 15 33  1  1  0  0  0
 16 34  1  0  0  0  0
 17 18  1  0  0  0  0
 17 35  1  6  0  0  0
 18 19  1  0  0  0  0
 18 27  1  0  0  0  0
 19 20  2  0  0  0  0
 19 36  1  0  0  0  0
 20 21  1  0  0  0  0
 21 22  2  0  0  0  0
 21 27  1  0  0  0  0
 22 23  1  0  0  0  0
 22 24  1  0  0  0  0
 23 37  1  0  0  0  0
 23 38  1  0  0  0  0
 24 25  2  0  0  0  0
 25 26  1  0  0  0  0
 25 39  1  0  0  0  0
 26 27  2  0  0  0  0
M  END
