1ybg_ligand
 OpenBabel08222323343D

 70 74  0  0  1  0  0  0  0  0999 V2000
  -74.9720   -8.6990   95.4140 C   0  0  0  0  0  0  0  0  0  0  0  0
  -73.9750   -9.4040   96.0590 C   0  0  0  0  0  0  0  0  0  0  0  0
  -74.2520  -10.7380   96.5560 C   0  0  0  0  0  0  0  0  0  0  0  0
  -75.5710  -11.3110   96.3580 C   0  0  0  0  0  0  0  0  0  0  0  0
  -76.5670  -10.5470   95.6800 C   0  0  0  0  0  0  0  0  0  0  0  0
  -76.2840   -9.2890   95.2240 C   0  0  0  0  0  0  0  0  0  0  0  0
  -73.2530  -11.5180   97.2510 C   0  0  0  0  0  0  0  0  0  0  0  0
  -75.8570  -12.6380   96.8530 C   0  0  0  0  0  0  0  0  0  0  0  0
  -74.8850  -13.3540   97.5120 C   0  0  0  0  0  0  0  0  0  0  0  0
  -73.5560  -12.7840   97.7170 C   0  0  0  0  0  0  0  0  0  0  0  0
  -74.6780   -7.0160   94.7740 S   0  0  0  0  0  0  0  0  0  0  0  0
  -75.8380   -6.6310   93.9930 O   0  0  0  0  0  0  0  0  0  0  0  0
  -73.3510   -7.2580   93.7840 N   0  0  0  0  0  0  0  0  0  0  0  0
  -74.6970   -8.8090   90.6420 C   0  0  0  0  0  0  0  0  0  0  0  0
  -74.6460   -8.0700   91.8030 C   0  0  0  0  0  0  0  0  0  0  0  0
  -73.4640   -8.0220   92.5670 C   0  0  0  0  0  0  0  0  0  0  0  0
  -72.3200   -8.7500   92.1480 C   0  0  0  0  0  0  0  0  0  0  0  0
  -72.3600   -9.5100   90.9590 C   0  0  0  0  0  0  0  0  0  0  0  0
  -73.5560   -9.5160   90.2010 C   0  0  0  0  0  0  0  0  0  0  0  0
  -71.0850   -8.6830   93.0120 C   0  0  0  0  0  0  0  0  0  0  0  0
  -72.5530  -10.2770   87.3520 S   0  0  0  0  0  0  0  0  0  0  0  0
  -68.3790   -4.7880   87.7950 C   0  0  0  0  0  0  0  0  0  0  0  0
  -69.7290   -4.8460   87.5510 C   0  0  0  0  0  0  0  0  0  0  0  0
  -70.4090   -6.1220   87.5130 C   0  0  0  0  0  0  0  0  0  0  0  0
  -69.6430   -7.3390   87.7370 C   0  0  0  0  0  0  0  0  0  0  0  0
  -68.2250   -7.2390   87.9940 C   0  0  0  0  0  0  0  0  0  0  0  0
  -67.6160   -6.0050   88.0220 C   0  0  0  0  0  0  0  0  0  0  0  0
  -71.8250   -6.2200   87.2530 C   0  0  0  0  0  0  0  0  0  0  0  0
  -70.3260   -8.6240   87.6910 C   0  0  0  0  0  0  0  0  0  0  0  0
  -71.6940   -8.6750   87.4380 C   0  0  0  0  0  0  0  0  0  0  0  0
  -72.4550   -7.4510   87.2130 C   0  0  0  0  0  0  0  0  0  0  0  0
  -70.0900   -7.6480   92.7540 N   0  0  0  0  0  0  0  0  0  0  0  0
  -70.9280   -9.4880   93.9210 O   0  0  0  0  0  0  0  0  0  0  0  0
  -73.3350  -10.1140   88.7640 O   0  0  0  0  0  0  0  0  0  0  0  0
  -73.4960  -10.2210   86.2640 O   0  0  0  0  0  0  0  0  0  0  0  0
  -71.5790  -11.3680   87.5320 O   0  0  0  0  0  0  0  0  0  0  0  0
  -74.2720   -6.2000   95.9100 O   0  0  0  0  0  0  0  0  0  0  0  0
  -69.6180   -7.3230   91.3810 C   0  0  0  0  0  0  0  0  0  0  0  0
  -68.9760   -7.7930   93.7550 C   0  0  2  0  0  0  0  0  0  0  0  0
  -68.4100   -6.3580   94.1280 C   0  0  0  0  0  0  0  0  0  0  0  0
  -68.9890   -5.3080   93.8450 O   0  5  0  0  0  0  0  0  0  0  0  0
  -67.1740   -6.3040   94.8180 O   0  0  0  0  0  0  0  0  0  0  0  0
  -66.8070   -9.3170   94.4230 C   0  0  0  0  0  0  0  0  0  0  0  0
  -67.1600   -9.8570   95.4750 O   0  5  0  0  0  0  0  0  0  0  0  0
  -65.4390   -9.1100   94.1640 O   0  0  0  0  0  0  0  0  0  0  0  0
  -67.8660   -8.8840   93.3210 C   0  0  0  0  0  0  0  0  0  0  0  0
  -72.9934   -8.9639   96.1927 H   0  0  0  0  0  0  0  0  0  0  0  0
  -77.5546  -10.9663   95.5252 H   0  0  0  0  0  0  0  0  0  0  0  0
  -77.0534   -8.7227   94.7116 H   0  0  0  0  0  0  0  0  0  0  0  0
  -72.2616  -11.1085   97.4076 H   0  0  0  0  0  0  0  0  0  0  0  0
  -76.8400  -13.0703   96.7046 H   0  0  0  0  0  0  0  0  0  0  0  0
  -75.1069  -14.3485   97.8819 H   0  0  0  0  0  0  0  0  0  0  0  0
  -72.8000  -13.3590   98.2395 H   0  0  0  0  0  0  0  0  0  0  0  0
  -72.4670   -6.8670   94.0403 H   0  0  0  0  0  0  0  0  0  0  0  0
  -75.6142   -8.8483   90.0655 H   0  0  0  0  0  0  0  0  0  0  0  0
  -75.5216   -7.5216   92.1310 H   0  0  0  0  0  0  0  0  0  0  0  0
  -71.4947  -10.0762   90.6337 H   0  0  0  0  0  0  0  0  0  0  0  0
  -67.8778   -3.8271   87.8186 H   0  0  0  0  0  0  0  0  0  0  0  0
  -70.2875   -3.9317   87.3862 H   0  0  0  0  0  0  0  0  0  0  0  0
  -67.6406   -8.1358   88.1648 H   0  0  0  0  0  0  0  0  0  0  0  0
  -66.5516   -5.9393   88.2162 H   0  0  0  0  0  0  0  0  0  0  0  0
  -72.4023   -5.3177   87.0869 H   0  0  0  0  0  0  0  0  0  0  0  0
  -69.7698   -9.5401   87.8536 H   0  0  0  0  0  0  0  0  0  0  0  0
  -73.5191   -7.5063   87.0135 H   0  0  0  0  0  0  0  0  0  0  0  0
  -70.4831   -7.2328   90.7077 H   0  0  0  0  0  0  0  0  0  0  0  0
  -68.9557   -8.1244   91.0216 H   0  0  0  0  0  0  0  0  0  0  0  0
  -69.0663   -6.3716   91.3985 H   0  0  0  0  0  0  0  0  0  0  0  0
  -69.4311   -8.1899   94.6744 H   0  0  0  0  0  0  0  0  0  0  0  0
  -67.3071   -8.4676   92.4700 H   0  0  0  0  0  0  0  0  0  0  0  0
  -68.4001   -9.7906   93.0005 H   0  0  0  0  0  0  0  0  0  0  0  0
  1  2  2  0  0  0  0
  1  6  1  0  0  0  0
  2  3  1  0  0  0  0
  2 47  1  0  0  0  0
  3  4  2  0  0  0  0
  3  7  1  0  0  0  0
  4  8  1  0  0  0  0
  5  4  1  0  0  0  0
  5 48  1  0  0  0  0
  6  5  2  0  0  0  0
  6 49  1  0  0  0  0
  7 10  2  0  0  0  0
  7 50  1  0  0  0  0
  8  9  2  0  0  0  0
  8 51  1  0  0  0  0
  9 52  1  0  0  0  0
 10  9  1  0  0  0  0
 10 53  1  0  0  0  0
 11  1  1  0  0  0  0
 11 12  2  0  0  0  0
 11 37  2  0  0  0  0
 13 11  1  0  0  0  0
 13 54  1  0  0  0  0
 14 55  1  0  0  0  0
 15 14  2  0  0  0  0
 15 56  1  0  0  0  0
 16 13  1  0  0  0  0
 16 15  1  0  0  0  0
 17 16  2  0  0  0  0
 17 18  1  0  0  0  0
 18 19  2  0  0  0  0
 18 57  1  0  0  0  0
 19 14  1  0  0  0  0
 19 34  1  0  0  0  0
 20 17  1  0  0  0  0
 20 33  2  0  0  0  0
 21 30  1  0  0  0  0
 21 35  2  0  0  0  0
 21 36  2  0  0  0  0
 22 58  1  0  0  0  0
 23 22  2  0  0  0  0
 23 59  1  0  0  0  0
 24 23  1  0  0  0  0
 25 24  2  0  0  0  0
 25 26  1  0  0  0  0
 26 27  2  0  0  0  0
 26 60  1  0  0  0  0
 27 22  1  0  0  0  0
 27 61  1  0  0  0  0
 28 24  1  0  0  0  0
 28 62  1  0  0  0  0
 29 25  1  0  0  0  0
 29 63  1  0  0  0  0
 30 29  2  0  0  0  0
 30 31  1  0  0  0  0
 31 28  2  0  0  0  0
 31 64  1  0  0  0  0
 32 20  1  0  0  0  0
 32 38  1  0  0  0  0
 34 21  1  0  0  0  0
 38 65  1  0  0  0  0
 38 66  1  0  0  0  0
 38 67  1  0  0  0  0
 39 32  1  0  0  0  0
 39 40  1  0  0  0  0
 39 68  1  1  0  0  0
 40 41  1  0  0  0  0
 40 42  2  0  0  0  0
 43 44  1  0  0  0  0
 43 45  2  0  0  0  0
 43 46  1  0  0  0  0
 46 39  1  0  0  0  0
 46 69  1  0  0  0  0
 46 70  1  0  0  0  0
M  CHG  2  41  -1  44  -1
M  END
