1yhm_ligand
 OpenBabel08222323343D

 24 23  0  0  0  0  0  0  0  0999 V2000
   47.0230   51.2700  203.1580 C   0  0  0  0  0  0  0  0  0  0  0  0
   45.9150   51.7140  204.1540 C   0  0  0  0  0  0  0  0  0  0  0  0
   47.8500   49.9690  203.4470 C   0  0  0  0  0  0  0  0  0  0  0  0
   48.5620   49.5930  204.6830 C   0  0  0  0  0  0  0  0  0  0  0  0
   50.8780   48.8260  203.2870 O   0  0  0  0  0  0  0  0  0  0  0  0
   49.7640   48.3130  204.1400 P   0  0  0  0  0  0  0  0  0  0  0  0
   49.0010   47.2870  203.2250 O   0  0  0  0  0  1  0  0  0  0  0  0
   50.2800   47.5420  205.3730 O   0  0  0  0  0  1  0  0  0  0  0  0
   49.4940   50.8860  205.5950 P   0  0  0  0  0  0  0  0  0  0  0  0
   50.3460   51.2240  204.4480 O   0  0  0  0  0  0  0  0  0  0  0  0
   50.1900   50.3130  206.7770 O   0  0  0  0  0  1  0  0  0  0  0  0
   48.4420   52.1010  205.5440 O   0  0  0  0  0  1  0  0  0  0  0  0
   47.7810   49.0060  205.5000 O   0  0  0  0  0  0  0  0  0  0  0  0
   45.0170   52.7030  203.5480 N   0  3  0  0  0  0  0  0  0  0  0  0
   47.7438   52.0983  203.0922 H   0  0  0  0  0  0  0  0  0  0  0  0
   46.5366   51.1287  202.1816 H   0  0  0  0  0  0  0  0  0  0  0  0
   46.3887   52.1574  205.0423 H   0  0  0  0  0  0  0  0  0  0  0  0
   45.3280   50.8330  204.4527 H   0  0  0  0  0  0  0  0  0  0  0  0
   48.6246   49.9543  202.6661 H   0  0  0  0  0  0  0  0  0  0  0  0
   47.1405   49.1462  203.2752 H   0  0  0  0  0  0  0  0  0  0  0  0
   48.2846   48.6708  206.2325 H   0  0  0  0  0  0  0  0  0  0  0  0
   44.3115   52.9704  204.2165 H   0  0  0  0  0  0  0  0  0  0  0  0
   44.5752   52.3023  202.7354 H   0  0  0  0  0  0  0  0  0  0  0  0
   45.5471   53.5159  203.2757 H   0  0  0  0  0  0  0  0  0  0  0  0
  1  2  1  0  0  0  0
  1  3  1  0  0  0  0
  1 15  1  0  0  0  0
  1 16  1  0  0  0  0
  2 14  1  0  0  0  0
  2 17  1  0  0  0  0
  2 18  1  0  0  0  0
  3  4  1  0  0  0  0
  3 19  1  0  0  0  0
  3 20  1  0  0  0  0
  4  6  1  0  0  0  0
  4  9  1  0  0  0  0
  4 13  1  0  0  0  0
  6  5  2  0  0  0  0
  6  7  1  0  0  0  0
  6  8  1  0  0  0  0
  9 10  2  0  0  0  0
  9 11  1  0  0  0  0
  9 12  1  0  0  0  0
 13 21  1  0  0  0  0
 14 22  1  0  0  0  0
 14 23  1  0  0  0  0
 14 24  1  0  0  0  0
M  CHG  1  14   1
M  END
