1yhs_ligand
 OpenBabel08222323343D

 62 69  0  0  1  0  0  0  0  0999 V2000
  -17.1900   35.0480    1.5810 C   0  0  0  0  0  0  0  0  0  0  0  0
  -16.2100   33.9720    1.4150 C   0  0  0  0  0  0  0  0  0  0  0  0
  -15.8490   33.4570    0.0910 C   0  0  0  0  0  0  0  0  0  0  0  0
  -16.4820   34.0080   -1.1110 C   0  0  0  0  0  0  0  0  0  0  0  0
  -17.4740   35.0930   -0.9550 C   0  0  0  0  0  0  0  0  0  0  0  0
  -18.2290   35.7970   -1.9440 N   0  0  0  0  0  0  0  0  0  0  0  0
  -18.9440   36.7940   -1.2360 C   0  0  0  0  0  0  0  0  0  0  0  0
  -19.8090   37.8480   -1.7900 C   0  0  0  0  0  0  0  0  0  0  0  0
  -20.0550   38.1300   -3.1300 N   0  0  0  0  0  0  0  0  0  0  0  0
  -20.9280   39.2780   -3.1940 C   0  0  0  0  0  0  0  0  0  0  0  0
  -21.5190   39.9870   -4.3630 C   0  0  0  0  0  0  0  0  0  0  0  0
  -22.4160   41.1410   -4.1280 C   0  0  0  0  0  0  0  0  0  0  0  0
  -22.7190   41.5830   -2.7470 C   0  0  0  0  0  0  0  0  0  0  0  0
  -22.1230   40.8720   -1.5800 C   0  0  0  0  0  0  0  0  0  0  0  0
  -21.2300   39.7230   -1.8260 C   0  0  0  0  0  0  0  0  0  0  0  0
  -20.5160   38.7810   -0.9270 C   0  0  0  0  0  0  0  0  0  0  0  0
  -20.3280   38.6580    0.5320 C   0  0  0  0  0  0  0  0  0  0  0  0
  -20.8350   39.4820    1.6050 C   0  0  0  0  0  0  0  0  0  0  0  0
  -20.2620   39.0860    2.7680 N   0  0  0  0  0  0  0  0  0  0  0  0
  -19.4500   37.8590    2.6070 C   0  0  0  0  0  0  0  0  0  0  0  0
  -19.4710   37.6630    1.1090 C   0  0  0  0  0  0  0  0  0  0  0  0
  -18.7700   36.7070    0.2050 C   0  0  0  0  0  0  0  0  0  0  0  0
  -17.8100   35.6060    0.3860 C   0  0  0  0  0  0  0  0  0  0  0  0
  -18.3010   35.4770   -3.4590 C   0  0  2  0  0  0  0  0  0  0  0  0
  -16.9360   35.8110   -4.2280 C   0  0  1  0  0  0  0  0  0  0  0  0
  -17.1120   37.0040   -5.2070 C   0  0  1  0  0  0  0  0  0  0  0  0
  -17.9710   38.0830   -4.5450 C   0  0  0  0  0  0  0  0  0  0  0  0
  -19.3950   37.5300   -4.2450 C   0  0  1  0  0  0  0  0  0  0  0  0
  -19.4280   36.1510   -4.0800 O   0  0  0  0  0  0  0  0  0  0  0  0
  -21.6510   40.3890    1.4550 O   0  0  0  0  0  0  0  0  0  0  0  0
  -15.8810   37.6390   -5.7070 N   0  3  0  0  0  0  0  0  0  0  0  0
  -15.3380   36.6840   -6.6890 C   0  0  0  0  0  0  0  0  0  0  0  0
  -15.9350   36.1960   -3.2830 O   0  0  0  0  0  0  0  0  0  0  0  0
  -14.6700   35.5240   -3.4470 C   0  0  0  0  0  0  0  0  0  0  0  0
  -18.6330   33.9860   -3.7300 C   0  0  0  0  0  0  0  0  0  0  0  0
  -17.4472   35.4193    2.5664 H   0  0  0  0  0  0  0  0  0  0  0  0
  -15.7397   33.5457    2.2938 H   0  0  0  0  0  0  0  0  0  0  0  0
  -15.1123   32.6670    0.0005 H   0  0  0  0  0  0  0  0  0  0  0  0
  -16.2280   33.6278   -2.0938 H   0  0  0  0  0  0  0  0  0  0  0  0
  -21.2952   39.6622   -5.3727 H   0  0  0  0  0  0  0  0  0  0  0  0
  -22.8531   41.6649   -4.9703 H   0  0  0  0  0  0  0  0  0  0  0  0
  -23.3778   42.4282   -2.5840 H   0  0  0  0  0  0  0  0  0  0  0  0
  -22.3418   41.1934   -0.5681 H   0  0  0  0  0  0  0  0  0  0  0  0
  -20.3751   39.5684    3.6366 H   0  0  0  0  0  0  0  0  0  0  0  0
  -19.9079   37.0054    3.1282 H   0  0  0  0  0  0  0  0  0  0  0  0
  -18.4245   38.0070    2.9764 H   0  0  0  0  0  0  0  0  0  0  0  0
  -16.6078   34.9204   -4.7840 H   0  0  0  0  0  0  0  0  0  0  0  0
  -17.6527   36.6175   -6.0835 H   0  0  0  0  0  0  0  0  0  0  0  0
  -18.0522   38.9475   -5.2203 H   0  0  0  0  0  0  0  0  0  0  0  0
  -17.4975   38.3967   -3.6030 H   0  0  0  0  0  0  0  0  0  0  0  0
  -19.9993   37.7634   -5.1340 H   0  0  0  0  0  0  0  0  0  0  0  0
  -15.2263   37.7858   -4.9548 H   0  0  0  0  0  0  0  0  0  0  0  0
  -16.0900   38.5212   -6.1476 H   0  0  0  0  0  0  0  0  0  0  0  0
  -14.4071   37.0860   -7.1153 H   0  0  0  0  0  0  0  0  0  0  0  0
  -16.0720   36.5278   -7.4932 H   0  0  0  0  0  0  0  0  0  0  0  0
  -15.1294   35.7253   -6.1916 H   0  0  0  0  0  0  0  0  0  0  0  0
  -13.9641   35.8796   -2.6820 H   0  0  0  0  0  0  0  0  0  0  0  0
  -14.2666   35.7407   -4.4471 H   0  0  0  0  0  0  0  0  0  0  0  0
  -14.8141   34.4391   -3.3369 H   0  0  0  0  0  0  0  0  0  0  0  0
  -18.6726   33.8106   -4.8152 H   0  0  0  0  0  0  0  0  0  0  0  0
  -19.6076   33.7402   -3.2831 H   0  0  0  0  0  0  0  0  0  0  0  0
  -17.8542   33.3500   -3.2840 H   0  0  0  0  0  0  0  0  0  0  0  0
  1  2  2  0  0  0  0
  1 23  1  0  0  0  0
  1 36  1  0  0  0  0
  2  3  1  0  0  0  0
  2 37  1  0  0  0  0
  3  4  2  0  0  0  0
  3 38  1  0  0  0  0
  4  5  1  0  0  0  0
  4 39  1  0  0  0  0
  5  6  1  0  0  0  0
  5 23  2  0  0  0  0
  6  7  1  0  0  0  0
  6 24  1  0  0  0  0
  7  8  2  0  0  0  0
  7 22  1  0  0  0  0
  8  9  1  0  0  0  0
  8 16  1  0  0  0  0
  9 10  1  0  0  0  0
  9 28  1  0  0  0  0
 10 11  2  0  0  0  0
 10 15  1  0  0  0  0
 11 12  1  0  0  0  0
 11 40  1  0  0  0  0
 12 13  2  0  0  0  0
 12 41  1  0  0  0  0
 13 14  1  0  0  0  0
 13 42  1  0  0  0  0
 14 15  2  0  0  0  0
 14 43  1  0  0  0  0
 15 16  1  0  0  0  0
 16 17  2  0  0  0  0
 17 18  1  0  0  0  0
 17 21  1  0  0  0  0
 18 19  1  0  0  0  0
 18 30  2  0  0  0  0
 19 20  1  0  0  0  0
 19 44  1  0  0  0  0
 20 21  1  0  0  0  0
 20 45  1  0  0  0  0
 20 46  1  0  0  0  0
 21 22  2  0  0  0  0
 22 23  1  0  0  0  0
 24 25  1  0  0  0  0
 24 29  1  0  0  0  0
 24 35  1  6  0  0  0
 25 26  1  0  0  0  0
 25 33  1  0  0  0  0
 25 47  1  6  0  0  0
 26 27  1  0  0  0  0
 26 31  1  0  0  0  0
 26 48  1  6  0  0  0
 27 28  1  0  0  0  0
 27 49  1  0  0  0  0
 27 50  1  0  0  0  0
 28 29  1  0  0  0  0
 28 51  1  6  0  0  0
 31 32  1  0  0  0  0
 31 52  1  0  0  0  0
 31 53  1  0  0  0  0
 32 54  1  0  0  0  0
 32 55  1  0  0  0  0
 32 56  1  0  0  0  0
 33 34  1  0  0  0  0
 34 57  1  0  0  0  0
 34 58  1  0  0  0  0
 34 59  1  0  0  0  0
 35 60  1  0  0  0  0
 35 61  1  0  0  0  0
 35 62  1  0  0  0  0
M  CHG  1  31   1
M  END
