1yk7_ligand
 OpenBabel08222323343D

 54 55  0  0  1  0  0  0  0  0999 V2000
   75.6310 -127.7220   35.3020 C   0  0  0  0  0  0  0  0  0  0  0  0
   75.9270 -128.3570   33.9360 C   0  0  0  0  0  0  0  0  0  0  0  0
   77.1090 -129.3030   34.0550 C   0  0  0  0  0  0  0  0  0  0  0  0
   74.7220 -129.1260   33.4770 C   0  0  0  0  0  0  0  0  0  0  0  0
   73.6750 -128.1510   32.9370 C   0  0  2  0  0  0  0  0  0  0  0  0
   72.4840 -128.9390   32.4950 N   0  0  0  0  0  0  0  0  0  0  0  0
   71.6040 -128.4930   31.5260 C   0  0  0  0  0  0  0  0  0  0  0  0
   71.3750 -127.2920   31.3780 O   0  0  0  0  0  0  0  0  0  0  0  0
   70.9930 -129.3780   30.7590 O   0  0  0  0  0  0  0  0  0  0  0  0
   69.7650 -128.9060   30.2370 C   0  0  0  0  0  0  0  0  0  0  0  0
   68.8570 -130.0860   29.9870 C   0  0  0  0  0  0  0  0  0  0  0  0
   69.3980 -131.3090   29.5860 C   0  0  0  0  0  0  0  0  0  0  0  0
   68.5670 -132.3930   29.3610 C   0  0  0  0  0  0  0  0  0  0  0  0
   67.1880 -132.2660   29.5350 C   0  0  0  0  0  0  0  0  0  0  0  0
   66.6480 -131.0530   29.9310 C   0  0  0  0  0  0  0  0  0  0  0  0
   67.4830 -129.9590   30.1590 C   0  0  0  0  0  0  0  0  0  0  0  0
   74.3020 -127.3170   31.7650 C   0  0  0  0  0  0  0  0  0  0  0  0
   74.8350 -127.8910   30.8150 O   0  0  0  0  0  0  0  0  0  0  0  0
   74.2050 -125.9480   31.7990 N   0  0  0  0  0  0  0  0  0  0  0  0
   75.3250 -125.0290   31.4400 C   0  0  2  0  0  0  0  0  0  0  0  0
   75.0190 -124.2750   30.1680 C   0  0  0  0  0  0  0  0  0  0  0  0
   76.3710 -124.1160   29.4460 C   0  0  0  0  0  0  0  0  0  0  0  0
   77.3860 -124.7710   30.3020 N   0  0  0  0  0  0  0  0  0  0  0  0
   76.6720 -125.7010   31.2170 C   0  0  0  0  0  0  0  0  0  0  0  0
   78.3670 -125.4100   29.5000 C   0  0  0  0  0  0  0  0  0  0  0  0
   78.9030 -124.7210   28.4870 N   0  0  0  0  0  0  0  0  0  0  0  0
   76.5115 -127.1573   35.6423 H   0  0  0  0  0  0  0  0  0  0  0  0
   75.3980 -128.5121   36.0309 H   0  0  0  0  0  0  0  0  0  0  0  0
   74.7715 -127.0415   35.2115 H   0  0  0  0  0  0  0  0  0  0  0  0
   76.1607 -127.5673   33.2068 H   0  0  0  0  0  0  0  0  0  0  0  0
   77.3169 -129.7552   33.0740 H   0  0  0  0  0  0  0  0  0  0  0  0
   76.8732 -130.0949   34.7811 H   0  0  0  0  0  0  0  0  0  0  0  0
   77.9930 -128.7442   34.3959 H   0  0  0  0  0  0  0  0  0  0  0  0
   74.2995 -129.6867   34.3238 H   0  0  0  0  0  0  0  0  0  0  0  0
   75.0149 -129.8277   32.6822 H   0  0  0  0  0  0  0  0  0  0  0  0
   73.3688 -127.4608   33.7369 H   0  0  0  0  0  0  0  0  0  0  0  0
   72.3161 -129.8289   32.9192 H   0  0  0  0  0  0  0  0  0  0  0  0
   69.9456 -128.3719   29.2925 H   0  0  0  0  0  0  0  0  0  0  0  0
   69.2939 -128.2237   30.9598 H   0  0  0  0  0  0  0  0  0  0  0  0
   70.4688 -131.4097   29.4508 H   0  0  0  0  0  0  0  0  0  0  0  0
   68.9880 -133.3420   29.0492 H   0  0  0  0  0  0  0  0  0  0  0  0
   66.5392 -133.1167   29.3603 H   0  0  0  0  0  0  0  0  0  0  0  0
   65.5767 -130.9541   30.0636 H   0  0  0  0  0  0  0  0  0  0  0  0
   67.0609 -129.0103   30.4701 H   0  0  0  0  0  0  0  0  0  0  0  0
   73.3347 -125.5436   32.0802 H   0  0  0  0  0  0  0  0  0  0  0  0
   75.4334 -124.3103   32.2657 H   0  0  0  0  0  0  0  0  0  0  0  0
   74.5891 -123.2894   30.3997 H   0  0  0  0  0  0  0  0  0  0  0  0
   74.3149 -124.8446   29.5437 H   0  0  0  0  0  0  0  0  0  0  0  0
   76.6112 -123.0500   29.3201 H   0  0  0  0  0  0  0  0  0  0  0  0
   76.3346 -124.6026   28.4602 H   0  0  0  0  0  0  0  0  0  0  0  0
   76.5445 -126.6888   30.7502 H   0  0  0  0  0  0  0  0  0  0  0  0
   77.2166 -125.8116   32.1663 H   0  0  0  0  0  0  0  0  0  0  0  0
   78.6751 -126.4344   29.7041 H   0  0  0  0  0  0  0  0  0  0  0  0
   79.6021 -125.1491   27.9004 H   0  0  0  0  0  0  0  0  0  0  0  0
  1  2  1  0  0  0  0
  1 27  1  0  0  0  0
  1 28  1  0  0  0  0
  1 29  1  0  0  0  0
  2  3  1  0  0  0  0
  2  4  1  0  0  0  0
  2 30  1  0  0  0  0
  3 31  1  0  0  0  0
  3 32  1  0  0  0  0
  3 33  1  0  0  0  0
  4  5  1  0  0  0  0
  4 34  1  0  0  0  0
  4 35  1  0  0  0  0
  5  6  1  0  0  0  0
  5 17  1  0  0  0  0
  5 36  1  1  0  0  0
  6  7  1  0  0  0  0
  6 37  1  0  0  0  0
  7  8  2  0  0  0  0
  7  9  1  0  0  0  0
  9 10  1  0  0  0  0
 10 11  1  0  0  0  0
 10 38  1  0  0  0  0
 10 39  1  0  0  0  0
 11 12  2  0  0  0  0
 11 16  1  0  0  0  0
 12 13  1  0  0  0  0
 12 40  1  0  0  0  0
 13 14  2  0  0  0  0
 13 41  1  0  0  0  0
 14 15  1  0  0  0  0
 14 42  1  0  0  0  0
 15 16  2  0  0  0  0
 15 43  1  0  0  0  0
 16 44  1  0  0  0  0
 17 18  2  0  0  0  0
 17 19  1  0  0  0  0
 19 20  1  0  0  0  0
 19 45  1  0  0  0  0
 20 21  1  0  0  0  0
 20 24  1  0  0  0  0
 20 46  1  1  0  0  0
 21 22  1  0  0  0  0
 21 47  1  0  0  0  0
 21 48  1  0  0  0  0
 22 23  1  0  0  0  0
 22 49  1  0  0  0  0
 22 50  1  0  0  0  0
 23 24  1  0  0  0  0
 23 25  1  0  0  0  0
 24 51  1  0  0  0  0
 24 52  1  0  0  0  0
 25 26  2  0  0  0  0
 25 53  1  0  0  0  0
 26 54  1  0  0  0  0
M  END
