1ylv_ligand
 OpenBabel08222323343D

 16 15  0  0  0  0  0  0  0  0999 V2000
   19.5400   24.7080   16.4340 C   0  0  0  0  0  0  0  0  0  0  0  0
   19.2830   25.0150   17.9040 C   0  0  0  0  0  0  0  0  0  0  0  0
   19.9970   25.8310   15.5370 C   0  0  0  0  0  0  0  0  0  0  0  0
   21.4120   25.6440   15.0290 C   0  0  0  0  0  0  0  0  0  0  0  0
   21.8220   26.6900   14.0160 C   0  0  0  0  0  0  0  0  0  0  0  0
   21.0180   27.6000   13.7180 O   0  5  0  0  0  0  0  0  0  0  0  0
   22.9520   26.6400   13.4820 O   0  0  0  0  0  0  0  0  0  0  0  0
   18.6012   24.3177   16.0141 H   0  0  0  0  0  0  0  0  0  0  0  0
   20.3123   23.9257   16.3951 H   0  0  0  0  0  0  0  0  0  0  0  0
   18.9585   24.0986   18.4186 H   0  0  0  0  0  0  0  0  0  0  0  0
   18.4969   25.7800   17.9869 H   0  0  0  0  0  0  0  0  0  0  0  0
   20.2080   25.3880   18.3679 H   0  0  0  0  0  0  0  0  0  0  0  0
   19.9493   26.7731   16.1027 H   0  0  0  0  0  0  0  0  0  0  0  0
   19.3189   25.8875   14.6727 H   0  0  0  0  0  0  0  0  0  0  0  0
   21.4868   24.6526   14.5583 H   0  0  0  0  0  0  0  0  0  0  0  0
   22.1010   25.6966   15.8848 H   0  0  0  0  0  0  0  0  0  0  0  0
  1  2  1  0  0  0  0
  1  3  1  0  0  0  0
  1  8  1  0  0  0  0
  1  9  1  0  0  0  0
  2 10  1  0  0  0  0
  2 11  1  0  0  0  0
  2 12  1  0  0  0  0
  3  4  1  0  0  0  0
  3 13  1  0  0  0  0
  3 14  1  0  0  0  0
  4  5  1  0  0  0  0
  4 15  1  0  0  0  0
  4 16  1  0  0  0  0
  5  6  1  0  0  0  0
  5  7  2  0  0  0  0
M  CHG  1   6  -1
M  END
