1yon_ligand
 OpenBabel08222323343D

 60 63  0  0  1  0  0  0  0  0999 V2000
   20.0290    0.1890    8.2920 P   0  0  2  0  0  0  0  0  0  0  0  0
   21.1230    1.1800    8.1700 O   0  0  0  0  0  1  0  0  0  0  0  0
   19.8040   -0.9490    7.3830 O   0  0  0  0  0  0  0  0  0  0  0  0
   18.6890    0.9120    8.5990 O   0  0  0  0  0  0  0  0  0  0  0  0
   20.2770   -0.5870    9.6280 O   0  0  0  0  0  0  0  0  0  0  0  0
   19.8200   -1.9210    9.5530 C   0  0  0  0  0  0  0  0  0  0  0  0
   20.9020   -2.9240    9.8720 C   0  0  1  0  0  0  0  0  0  0  0  0
   22.2330   -2.4630   10.3750 O   0  0  0  0  0  0  0  0  0  0  0  0
   20.1300   -3.3540   11.0870 C   0  0  1  0  0  0  0  0  0  0  0  0
   20.5730   -4.6710   11.4580 O   0  0  0  0  0  0  0  0  0  0  0  0
   20.5530   -2.2270   12.0620 C   0  0  1  0  0  0  0  0  0  0  0  0
   20.4080   -2.6290   13.4280 O   0  0  0  0  0  0  0  0  0  0  0  0
   22.0260   -1.9100   11.7060 C   0  0  2  0  0  0  0  0  0  0  0  0
   22.3280   -0.4490   11.6890 O   0  0  0  0  0  0  0  0  0  0  0  0
   17.1960    0.4650    8.2290 P   0  0  1  0  0  0  0  0  0  0  0  0
   16.9920    0.4180    6.7790 O   0  0  0  0  0  1  0  0  0  0  0  0
   16.8740   -0.7520    9.0820 O   0  0  0  0  0  0  0  0  0  0  0  0
   16.4200    1.6470    8.8870 O   0  0  0  0  0  0  0  0  0  0  0  0
   16.6410    2.9860    8.4630 C   0  0  0  0  0  0  0  0  0  0  0  0
   15.6100    3.9410    9.1550 C   0  0  1  0  0  0  0  0  0  0  0  0
   14.3420    3.5330    8.6300 O   0  0  0  0  0  0  0  0  0  0  0  0
   15.5120    3.7830   10.6790 C   0  0  1  0  0  0  0  0  0  0  0  0
   14.9750    5.0030   11.2980 O   0  0  0  0  0  0  0  0  0  0  0  0
   14.5280    2.6630   10.8190 C   0  0  1  0  0  0  0  0  0  0  0  0
   13.9070    2.6790   12.1180 O   0  0  0  0  0  0  0  0  0  0  0  0
   13.5410    3.1890    9.7540 C   0  0  2  0  0  0  0  0  0  0  0  0
   12.5280    2.2000    9.4810 N   0  0  0  0  0  0  0  0  0  0  0  0
   11.2470    2.5090    9.3650 C   0  0  0  0  0  0  0  0  0  0  0  0
   10.5870    3.7060    9.4070 N   0  0  0  0  0  0  0  0  0  0  0  0
    9.2640    3.8080    9.2570 C   0  0  0  0  0  0  0  0  0  0  0  0
    8.5870    2.5910    9.0370 N   0  0  0  0  0  0  0  0  0  0  0  0
    9.2570    1.3240    8.9740 C   0  0  0  0  0  0  0  0  0  0  0  0
   10.6120    1.2950    9.1430 C   0  0  0  0  0  0  0  0  0  0  0  0
   11.5070    0.3080    9.1030 N   0  0  0  0  0  0  0  0  0  0  0  0
   12.6890    0.8780    9.3320 C   0  0  0  0  0  0  0  0  0  0  0  0
    8.6260    0.1640    8.7590 N   0  0  0  0  0  0  0  0  0  0  0  0
   14.6140    1.7960   13.3650 P   0  0  0  0  0  0  0  0  0  0  0  0
   13.5230    1.8510   14.5170 O   0  0  0  0  0  1  0  0  0  0  0  0
   14.6920    0.3550   12.8570 O   0  0  0  0  0  1  0  0  0  0  0  0
   15.9620    2.4270   13.6560 O   0  0  0  0  0  0  0  0  0  0  0  0
   19.4531   -2.1109    8.5336 H   0  0  0  0  0  0  0  0  0  0  0  0
   18.9959   -2.0519   10.2697 H   0  0  0  0  0  0  0  0  0  0  0  0
   21.0359   -3.6792    9.0835 H   0  0  0  0  0  0  0  0  0  0  0  0
   19.0421   -3.3591   10.9242 H   0  0  0  0  0  0  0  0  0  0  0  0
   20.0947   -4.9601   12.2262 H   0  0  0  0  0  0  0  0  0  0  0  0
   19.9306   -1.3359   11.8931 H   0  0  0  0  0  0  0  0  0  0  0  0
   19.4992   -2.8474   13.5979 H   0  0  0  0  0  0  0  0  0  0  0  0
   22.6926   -2.4002   12.4308 H   0  0  0  0  0  0  0  0  0  0  0  0
   21.7513   -0.0147   11.0715 H   0  0  0  0  0  0  0  0  0  0  0  0
   16.5198    3.0478    7.3715 H   0  0  0  0  0  0  0  0  0  0  0  0
   17.6617    3.2915    8.7365 H   0  0  0  0  0  0  0  0  0  0  0  0
   15.8386    4.9875    8.9048 H   0  0  0  0  0  0  0  0  0  0  0  0
   16.4856    3.5301   11.1241 H   0  0  0  0  0  0  0  0  0  0  0  0
   14.9232    4.8829   12.2390 H   0  0  0  0  0  0  0  0  0  0  0  0
   14.9467    1.6713   10.5928 H   0  0  0  0  0  0  0  0  0  0  0  0
   13.0403    4.0950   10.1260 H   0  0  0  0  0  0  0  0  0  0  0  0
    8.7469    4.7597    9.3013 H   0  0  0  0  0  0  0  0  0  0  0  0
   13.6401    0.3507    9.3893 H   0  0  0  0  0  0  0  0  0  0  0  0
    9.1618   -0.7150    8.7243 H   0  0  0  0  0  0  0  0  0  0  0  0
    7.6044    0.1500    8.6282 H   0  0  0  0  0  0  0  0  0  0  0  0
  1  2  1  6  0  0  0
  1  3  2  0  0  0  0
  1  4  1  0  0  0  0
  1  5  1  0  0  0  0
  4 15  1  0  0  0  0
  5  6  1  0  0  0  0
  6  7  1  0  0  0  0
  6 41  1  0  0  0  0
  6 42  1  0  0  0  0
  7  8  1  0  0  0  0
  7  9  1  0  0  0  0
  7 43  1  6  0  0  0
  8 13  1  0  0  0  0
  9 10  1  0  0  0  0
  9 11  1  0  0  0  0
  9 44  1  6  0  0  0
 10 45  1  0  0  0  0
 11 12  1  0  0  0  0
 11 13  1  0  0  0  0
 11 46  1  6  0  0  0
 12 47  1  0  0  0  0
 13 14  1  0  0  0  0
 13 48  1  1  0  0  0
 14 49  1  0  0  0  0
 15 16  1  6  0  0  0
 15 17  2  0  0  0  0
 15 18  1  0  0  0  0
 18 19  1  0  0  0  0
 19 20  1  0  0  0  0
 19 50  1  0  0  0  0
 19 51  1  0  0  0  0
 20 21  1  0  0  0  0
 20 22  1  0  0  0  0
 20 52  1  6  0  0  0
 21 26  1  0  0  0  0
 22 23  1  0  0  0  0
 22 24  1  0  0  0  0
 22 53  1  1  0  0  0
 23 54  1  0  0  0  0
 24 25  1  0  0  0  0
 24 26  1  0  0  0  0
 24 55  1  6  0  0  0
 25 37  1  0  0  0  0
 26 27  1  0  0  0  0
 26 56  1  1  0  0  0
 27 28  1  0  0  0  0
 27 35  1  0  0  0  0
 28 29  2  0  0  0  0
 28 33  1  0  0  0  0
 29 30  1  0  0  0  0
 30 31  2  0  0  0  0
 30 57  1  0  0  0  0
 31 32  1  0  0  0  0
 32 33  2  0  0  0  0
 32 36  1  0  0  0  0
 33 34  1  0  0  0  0
 34 35  2  0  0  0  0
 35 58  1  0  0  0  0
 36 59  1  0  0  0  0
 36 60  1  0  0  0  0
 37 38  1  0  0  0  0
 37 39  1  0  0  0  0
 37 40  2  0  0  0  0
M  END
