1ysi_ligand
 OpenBabel08222323343D

 60 63  0  0  0  0  0  0  0  0999 V2000
    4.9210  -11.2230   -2.6550 C   0  0  0  0  0  0  0  0  0  0  0  0
    4.3900  -11.2030   -3.9410 C   0  0  0  0  0  0  0  0  0  0  0  0
    4.8620  -10.2790   -4.8670 C   0  0  0  0  0  0  0  0  0  0  0  0
    5.8590   -9.3800   -4.5040 C   0  0  0  0  0  0  0  0  0  0  0  0
    6.3940   -9.3930   -3.2230 C   0  0  0  0  0  0  0  0  0  0  0  0
    5.9220  -10.3180   -2.3000 C   0  0  0  0  0  0  0  0  0  0  0  0
    3.4350  -12.0640   -4.2810 F   0  0  0  0  0  0  0  0  0  0  0  0
    7.4380   -8.4570   -2.8600 C   0  0  0  0  0  0  0  0  0  0  0  0
    8.6360   -8.4580   -3.5570 C   0  0  0  0  0  0  0  0  0  0  0  0
    9.6530   -7.5650   -3.2230 C   0  0  0  0  0  0  0  0  0  0  0  0
    9.4780   -6.6580   -2.1830 C   0  0  0  0  0  0  0  0  0  0  0  0
    8.2810   -6.6510   -1.4810 C   0  0  0  0  0  0  0  0  0  0  0  0
    7.2600   -7.5530   -1.8200 C   0  0  0  0  0  0  0  0  0  0  0  0
   10.5550   -5.7440   -1.8660 C   0  0  0  0  0  0  0  0  0  0  0  0
   11.5110   -5.6600   -2.6290 O   0  0  0  0  0  0  0  0  0  0  0  0
   10.5540   -4.9760   -0.7620 N   0  0  0  0  0  0  0  0  0  0  0  0
   11.9180   -3.8820   -0.4540 S   0  0  0  0  0  0  0  0  0  0  0  0
   11.9410   -2.5710   -1.5860 C   0  0  0  0  0  0  0  0  0  0  0  0
   10.9290   -1.6120   -1.5650 C   0  0  0  0  0  0  0  0  0  0  0  0
   10.9400   -0.5550   -2.4710 C   0  0  0  0  0  0  0  0  0  0  0  0
   11.9640   -0.4440   -3.4090 C   0  0  0  0  0  0  0  0  0  0  0  0
   12.9750   -1.4010   -3.4290 C   0  0  0  0  0  0  0  0  0  0  0  0
   12.9630   -2.4640   -2.5170 C   0  0  0  0  0  0  0  0  0  0  0  0
   13.1540   -4.5940   -0.5910 O   0  0  0  0  0  0  0  0  0  0  0  0
   11.8170   -3.3590    0.8780 O   0  0  0  0  0  0  0  0  0  0  0  0
    9.9220    0.3570   -2.4070 N   0  0  0  0  0  0  0  0  0  0  0  0
    9.0310    0.2340   -1.5700 O   0  0  0  0  0  0  0  0  0  0  0  0
    9.8260    1.3150   -3.1420 O   0  0  0  0  0  0  0  0  0  0  0  0
   12.0320    0.5920   -4.3460 N   0  0  0  0  0  0  0  0  0  0  0  0
   13.0630    0.7830   -5.3530 C   0  0  0  0  0  0  0  0  0  0  0  0
   12.8460   -0.1700   -6.5450 C   0  0  0  0  0  0  0  0  0  0  0  0
   11.0930   -0.2530   -7.0140 S   0  0  0  0  0  0  0  0  0  0  0  0
    9.9950   -1.2400   -6.1160 C   0  0  0  0  0  0  0  0  0  0  0  0
    9.0780   -0.6440   -5.2570 C   0  0  0  0  0  0  0  0  0  0  0  0
    8.1950   -1.4320   -4.5290 C   0  0  0  0  0  0  0  0  0  0  0  0
    8.2280   -2.8150   -4.6610 C   0  0  0  0  0  0  0  0  0  0  0  0
    9.1450   -3.4100   -5.5200 C   0  0  0  0  0  0  0  0  0  0  0  0
   10.0280   -2.6230   -6.2480 C   0  0  0  0  0  0  0  0  0  0  0  0
    4.5572  -11.9413   -1.9293 H   0  0  0  0  0  0  0  0  0  0  0  0
    4.4532  -10.2595   -5.8708 H   0  0  0  0  0  0  0  0  0  0  0  0
    6.2225   -8.6611   -5.2294 H   0  0  0  0  0  0  0  0  0  0  0  0
    6.3341  -10.3368   -1.2975 H   0  0  0  0  0  0  0  0  0  0  0  0
    8.7836   -9.1600   -4.3697 H   0  0  0  0  0  0  0  0  0  0  0  0
   10.5849   -7.5775   -3.7766 H   0  0  0  0  0  0  0  0  0  0  0  0
    8.1340   -5.9477   -0.6693 H   0  0  0  0  0  0  0  0  0  0  0  0
    6.3275   -7.5441   -1.2673 H   0  0  0  0  0  0  0  0  0  0  0  0
    9.7898   -5.0208   -0.1186 H   0  0  0  0  0  0  0  0  0  0  0  0
   10.1284   -1.6900   -0.8384 H   0  0  0  0  0  0  0  0  0  0  0  0
   13.7763   -1.3230   -4.1548 H   0  0  0  0  0  0  0  0  0  0  0  0
   13.7543   -3.2046   -2.5391 H   0  0  0  0  0  0  0  0  0  0  0  0
   11.2752    1.2902   -4.3200 H   0  0  0  0  0  0  0  0  0  0  0  0
   14.0470    0.5816   -4.9046 H   0  0  0  0  0  0  0  0  0  0  0  0
   13.0292    1.8224   -5.7114 H   0  0  0  0  0  0  0  0  0  0  0  0
   13.1902   -1.1768   -6.2660 H   0  0  0  0  0  0  0  0  0  0  0  0
   13.4298    0.1921   -7.4041 H   0  0  0  0  0  0  0  0  0  0  0  0
    9.0521    0.4349   -5.1554 H   0  0  0  0  0  0  0  0  0  0  0  0
    7.4807   -0.9682   -3.8584 H   0  0  0  0  0  0  0  0  0  0  0  0
    7.5385   -3.4300   -4.0940 H   0  0  0  0  0  0  0  0  0  0  0  0
    9.1709   -4.4889   -5.6217 H   0  0  0  0  0  0  0  0  0  0  0  0
   10.7422   -3.0871   -6.9185 H   0  0  0  0  0  0  0  0  0  0  0  0
  1  2  2  0  0  0  0
  1  6  1  0  0  0  0
  1 39  1  0  0  0  0
  2  3  1  0  0  0  0
  2  7  1  0  0  0  0
  3  4  2  0  0  0  0
  3 40  1  0  0  0  0
  4  5  1  0  0  0  0
  4 41  1  0  0  0  0
  5  6  2  0  0  0  0
  5  8  1  0  0  0  0
  6 42  1  0  0  0  0
  8  9  2  0  0  0  0
  8 13  1  0  0  0  0
  9 10  1  0  0  0  0
  9 43  1  0  0  0  0
 10 11  2  0  0  0  0
 10 44  1  0  0  0  0
 11 12  1  0  0  0  0
 11 14  1  0  0  0  0
 12 13  2  0  0  0  0
 12 45  1  0  0  0  0
 13 46  1  0  0  0  0
 14 15  2  0  0  0  0
 14 16  1  0  0  0  0
 16 17  1  0  0  0  0
 16 47  1  0  0  0  0
 17 18  1  0  0  0  0
 17 24  2  0  0  0  0
 17 25  2  0  0  0  0
 18 19  2  0  0  0  0
 18 23  1  0  0  0  0
 19 20  1  0  0  0  0
 19 48  1  0  0  0  0
 20 21  2  0  0  0  0
 20 26  1  0  0  0  0
 21 22  1  0  0  0  0
 21 29  1  0  0  0  0
 22 23  2  0  0  0  0
 22 49  1  0  0  0  0
 23 50  1  0  0  0  0
 26 27  2  0  0  0  0
 26 28  2  0  0  0  0
 29 30  1  0  0  0  0
 29 51  1  0  0  0  0
 30 31  1  0  0  0  0
 30 52  1  0  0  0  0
 30 53  1  0  0  0  0
 31 32  1  0  0  0  0
 31 54  1  0  0  0  0
 31 55  1  0  0  0  0
 32 33  1  0  0  0  0
 33 34  2  0  0  0  0
 33 38  1  0  0  0  0
 34 35  1  0  0  0  0
 34 56  1  0  0  0  0
 35 36  2  0  0  0  0
 35 57  1  0  0  0  0
 36 37  1  0  0  0  0
 36 58  1  0  0  0  0
 37 38  2  0  0  0  0
 37 59  1  0  0  0  0
 38 60  1  0  0  0  0
M  END
