1yt9_ligand
 OpenBabel08222323343D

 94 97  0  0  1  0  0  0  0  0999 V2000
    6.3730   29.4830    8.2730 N   0  0  0  0  0  0  0  0  0  0  0  0
   15.2770   22.0870    5.0540 N   0  0  0  0  0  0  0  0  0  0  0  0
   14.3030   23.0320    5.6630 C   0  0  1  0  0  0  0  0  0  0  0  0
   11.4640   24.3210    5.3300 N   0  0  0  0  0  0  0  0  0  0  0  0
   19.6790   17.7690    9.3510 N   0  0  0  0  0  0  0  0  0  0  0  0
   14.9740   23.6050    6.9410 C   0  0  0  0  0  0  0  0  0  0  0  0
   16.8520   19.3490    5.2390 N   0  0  0  0  0  0  0  0  0  0  0  0
   12.7340   25.0610    5.2490 C   0  0  0  0  0  0  0  0  0  0  0  0
   16.3560   18.3530    6.2030 C   0  0  0  0  0  0  0  0  0  0  0  0
   14.9120   24.9260    4.2720 O   0  0  0  0  0  0  0  0  0  0  0  0
    9.7350   23.1750    6.7810 O   0  0  0  0  0  0  0  0  0  0  0  0
   11.7500   24.0110    7.8670 O   0  0  0  0  0  0  0  0  0  0  0  0
   13.7500   20.3470    4.9130 O   0  0  0  0  0  0  0  0  0  0  0  0
   14.8870   20.8020    4.7380 C   0  0  0  0  0  0  0  0  0  0  0  0
   13.8230   24.1230    4.6640 C   0  0  1  0  0  0  0  0  0  0  0  0
   10.6970   23.6990    3.0050 C   0  0  0  0  0  0  0  0  0  0  0  0
   10.5340   24.6010    4.2430 C   0  0  0  0  0  0  0  0  0  0  0  0
   10.6920   24.2350    6.9280 S   0  0  0  0  0  0  0  0  0  0  0  0
   15.4670   22.5430    7.8850 C   0  0  0  0  0  0  0  0  0  0  0  0
   16.8390   22.4820    8.2150 C   0  0  0  0  0  0  0  0  0  0  0  0
   17.3180   21.4890    9.0850 C   0  0  0  0  0  0  0  0  0  0  0  0
   16.4460   20.5350    9.6420 C   0  0  0  0  0  0  0  0  0  0  0  0
   15.0690   20.5820    9.3210 C   0  0  0  0  0  0  0  0  0  0  0  0
   14.5850   21.5820    8.4460 C   0  0  0  0  0  0  0  0  0  0  0  0
    9.6880   24.0850    1.9260 C   0  0  0  0  0  0  0  0  0  0  0  0
   10.5030   22.2250    3.3860 C   0  0  0  0  0  0  0  0  0  0  0  0
   16.0070   19.8880    4.1370 C   0  0  2  0  0  0  0  0  0  0  0  0
   18.1460   19.6980    5.4850 C   0  0  0  0  0  0  0  0  0  0  0  0
   15.4000   18.7080    3.3060 C   0  0  0  0  0  0  0  0  0  0  0  0
   14.5110   19.1900    2.1480 C   0  0  0  0  0  0  0  0  0  0  0  0
   16.5090   17.8060    2.7270 C   0  0  0  0  0  0  0  0  0  0  0  0
   18.5880   19.0060    6.5610 N   0  0  0  0  0  0  0  0  0  0  0  0
   18.8230   20.5030    4.8510 O   0  0  0  0  0  0  0  0  0  0  0  0
   17.5590   18.1150    7.1140 C   0  0  0  0  0  0  0  0  0  0  0  0
    8.4480   25.8550    6.9890 C   0  0  0  0  0  0  0  0  0  0  0  0
    7.7120   26.9860    7.4070 C   0  0  0  0  0  0  0  0  0  0  0  0
    8.3140   27.9420    8.2650 C   0  0  0  0  0  0  0  0  0  0  0  0
    9.6530   27.7550    8.6980 C   0  0  0  0  0  0  0  0  0  0  0  0
   10.3850   26.6230    8.2800 C   0  0  0  0  0  0  0  0  0  0  0  0
    9.7840   25.6760    7.4280 C   0  0  0  0  0  0  0  0  0  0  0  0
    7.5860   29.1260    8.7280 C   0  0  0  0  0  0  0  0  0  0  0  0
   19.9500   19.1240    7.1220 C   0  0  0  0  0  0  0  0  0  0  0  0
   20.0250   18.9940    8.6170 C   0  0  0  0  0  0  0  0  0  0  0  0
   20.4210   19.9790    9.4390 C   0  0  0  0  0  0  0  0  0  0  0  0
   19.8350   17.9130   10.6740 C   0  0  0  0  0  0  0  0  0  0  0  0
   20.4090   19.5340   11.1270 S   0  0  0  0  0  0  0  0  0  0  0  0
    5.7700   30.6300    8.7830 O   0  0  0  0  0  0  0  0  0  0  0  0
   19.5590   16.8170   11.7020 C   0  0  0  0  0  0  0  0  0  0  0  0
   16.2149   22.3833    4.8736 H   0  0  0  0  0  0  0  0  0  0  0  0
   13.4130   22.4628    5.9694 H   0  0  0  0  0  0  0  0  0  0  0  0
   14.2389   24.2284    7.4710 H   0  0  0  0  0  0  0  0  0  0  0  0
   15.8298   24.2256    6.6370 H   0  0  0  0  0  0  0  0  0  0  0  0
   13.0332   25.3930    6.2541 H   0  0  0  0  0  0  0  0  0  0  0  0
   12.6105   25.9369    4.5951 H   0  0  0  0  0  0  0  0  0  0  0  0
   16.0586   17.4250    5.6928 H   0  0  0  0  0  0  0  0  0  0  0  0
   15.5022   18.7478    6.7732 H   0  0  0  0  0  0  0  0  0  0  0  0
   14.6242   25.5495    3.6156 H   0  0  0  0  0  0  0  0  0  0  0  0
   13.4092   23.6170    3.7793 H   0  0  0  0  0  0  0  0  0  0  0  0
   11.7129   23.8314    2.6046 H   0  0  0  0  0  0  0  0  0  0  0  0
   10.6804   25.6446    3.9276 H   0  0  0  0  0  0  0  0  0  0  0  0
    9.5109   24.4739    4.6266 H   0  0  0  0  0  0  0  0  0  0  0  0
   17.5268   23.2064    7.7940 H   0  0  0  0  0  0  0  0  0  0  0  0
   18.3733   21.4569    9.3307 H   0  0  0  0  0  0  0  0  0  0  0  0
   16.8260   19.7712   10.3108 H   0  0  0  0  0  0  0  0  0  0  0  0
   14.3869   19.8537    9.7445 H   0  0  0  0  0  0  0  0  0  0  0  0
   13.5296   21.6152    8.2010 H   0  0  0  0  0  0  0  0  0  0  0  0
    9.8189   23.4314    1.0509 H   0  0  0  0  0  0  0  0  0  0  0  0
    9.8506   25.1317    1.6294 H   0  0  0  0  0  0  0  0  0  0  0  0
    8.6675   23.9699    2.3202 H   0  0  0  0  0  0  0  0  0  0  0  0
   11.2305   21.9484    4.1633 H   0  0  0  0  0  0  0  0  0  0  0  0
   10.6568   21.5936    2.4985 H   0  0  0  0  0  0  0  0  0  0  0  0
    9.4827   22.0765    3.7693 H   0  0  0  0  0  0  0  0  0  0  0  0
   16.6360   20.4966    3.4707 H   0  0  0  0  0  0  0  0  0  0  0  0
   14.7802   18.1056    3.9864 H   0  0  0  0  0  0  0  0  0  0  0  0
   14.1150   18.3203    1.6032 H   0  0  0  0  0  0  0  0  0  0  0  0
   15.1062   19.8118    1.4630 H   0  0  0  0  0  0  0  0  0  0  0  0
   13.6757   19.7827    2.5491 H   0  0  0  0  0  0  0  0  0  0  0  0
   17.1561   17.4511    3.5427 H   0  0  0  0  0  0  0  0  0  0  0  0
   17.1095   18.3801    2.0060 H   0  0  0  0  0  0  0  0  0  0  0  0
   16.0525   16.9435    2.2195 H   0  0  0  0  0  0  0  0  0  0  0  0
   17.8835   17.0649    7.0708 H   0  0  0  0  0  0  0  0  0  0  0  0
   17.3239   18.3837    8.1544 H   0  0  0  0  0  0  0  0  0  0  0  0
    7.9910   25.1237    6.3323 H   0  0  0  0  0  0  0  0  0  0  0  0
    6.6899   27.1230    7.0730 H   0  0  0  0  0  0  0  0  0  0  0  0
   10.1153   28.4849    9.3526 H   0  0  0  0  0  0  0  0  0  0  0  0
   11.4068   26.4828    8.6137 H   0  0  0  0  0  0  0  0  0  0  0  0
    8.0550   29.7532    9.4847 H   0  0  0  0  0  0  0  0  0  0  0  0
   20.3517   20.1093    6.8429 H   0  0  0  0  0  0  0  0  0  0  0  0
   20.5736   18.3344    6.6774 H   0  0  0  0  0  0  0  0  0  0  0  0
   20.7218   20.9641    9.0855 H   0  0  0  0  0  0  0  0  0  0  0  0
    6.3221   31.3824    8.6054 H   0  0  0  0  0  0  0  0  0  0  0  0
   19.2152   15.9084   11.1859 H   0  0  0  0  0  0  0  0  0  0  0  0
   18.7814   17.1577   12.4015 H   0  0  0  0  0  0  0  0  0  0  0  0
   20.4816   16.5956   12.2587 H   0  0  0  0  0  0  0  0  0  0  0  0
  1 47  1  0  0  0  0
  2  3  1  0  0  0  0
  2 49  1  0  0  0  0
  3  6  1  0  0  0  0
  3 15  1  0  0  0  0
  3 50  1  1  0  0  0
  4 17  1  0  0  0  0
  4 18  1  0  0  0  0
  5 45  2  0  0  0  0
  6 19  1  0  0  0  0
  6 51  1  0  0  0  0
  6 52  1  0  0  0  0
  7 27  1  0  0  0  0
  8  4  1  0  0  0  0
  8 53  1  0  0  0  0
  8 54  1  0  0  0  0
  9  7  1  0  0  0  0
  9 55  1  0  0  0  0
  9 56  1  0  0  0  0
 10 57  1  0  0  0  0
 14  2  1  0  0  0  0
 14 13  2  0  0  0  0
 15  8  1  0  0  0  0
 15 10  1  0  0  0  0
 15 58  1  6  0  0  0
 16 25  1  0  0  0  0
 16 26  1  0  0  0  0
 16 59  1  0  0  0  0
 17 16  1  0  0  0  0
 17 60  1  0  0  0  0
 17 61  1  0  0  0  0
 18 11  2  0  0  0  0
 18 12  2  0  0  0  0
 18 40  1  0  0  0  0
 19 20  2  0  0  0  0
 19 24  1  0  0  0  0
 20 21  1  0  0  0  0
 20 62  1  0  0  0  0
 21 22  2  0  0  0  0
 21 63  1  0  0  0  0
 22 64  1  0  0  0  0
 23 22  1  0  0  0  0
 23 65  1  0  0  0  0
 24 23  2  0  0  0  0
 24 66  1  0  0  0  0
 25 67  1  0  0  0  0
 25 68  1  0  0  0  0
 25 69  1  0  0  0  0
 26 70  1  0  0  0  0
 26 71  1  0  0  0  0
 26 72  1  0  0  0  0
 27 14  1  0  0  0  0
 27 29  1  0  0  0  0
 27 73  1  6  0  0  0
 28  7  1  0  0  0  0
 28 33  2  0  0  0  0
 29 30  1  0  0  0  0
 29 31  1  0  0  0  0
 29 74  1  0  0  0  0
 30 75  1  0  0  0  0
 30 76  1  0  0  0  0
 30 77  1  0  0  0  0
 31 78  1  0  0  0  0
 31 79  1  0  0  0  0
 31 80  1  0  0  0  0
 32 28  1  0  0  0  0
 32 34  1  0  0  0  0
 34  9  1  0  0  0  0
 34 81  1  0  0  0  0
 34 82  1  0  0  0  0
 35 36  2  0  0  0  0
 35 83  1  0  0  0  0
 36 37  1  0  0  0  0
 36 84  1  0  0  0  0
 37 41  1  0  0  0  0
 38 37  2  0  0  0  0
 38 85  1  0  0  0  0
 39 38  1  0  0  0  0
 39 86  1  0  0  0  0
 40 35  1  0  0  0  0
 40 39  2  0  0  0  0
 41  1  2  0  0  0  0
 41 87  1  0  0  0  0
 42 32  1  0  0  0  0
 42 43  1  0  0  0  0
 42 88  1  0  0  0  0
 42 89  1  0  0  0  0
 43  5  1  0  0  0  0
 43 44  2  0  0  0  0
 44 46  1  0  0  0  0
 44 90  1  0  0  0  0
 45 46  1  0  0  0  0
 45 48  1  0  0  0  0
 47 91  1  0  0  0  0
 48 92  1  0  0  0  0
 48 93  1  0  0  0  0
 48 94  1  0  0  0  0
M  END
