1yw7_ligand
 OpenBabel08222323343D

 32 33  0  0  0  0  0  0  0  0999 V2000
   18.3980   27.9220   21.5180 C   0  0  0  0  0  0  0  0  0  0  0  0
   17.9200   29.2550   21.4410 C   0  0  0  0  0  0  0  0  0  0  0  0
   16.8110   29.5640   20.6140 C   0  0  0  0  0  0  0  0  0  0  0  0
   16.1820   28.5390   19.8650 C   0  0  0  0  0  0  0  0  0  0  0  0
   16.6570   27.2050   19.9400 C   0  0  0  0  0  0  0  0  0  0  0  0
   17.7640   26.8990   20.7670 C   0  0  0  0  0  0  0  0  0  0  0  0
   14.7920   28.9280   18.8220 S   0  0  0  0  0  0  0  0  0  0  0  0
   15.4180   29.1300   17.3190 N   0  0  0  0  0  0  0  0  0  0  0  0
   14.2360   30.1930   19.2310 O   0  0  0  0  0  0  0  0  0  0  0  0
   13.9270   27.7770   18.7920 O   0  0  0  0  0  0  0  0  0  0  0  0
   16.1920   30.2060   16.9140 C   0  0  0  0  0  0  0  0  0  0  0  0
   15.5740   31.4630   16.6610 C   0  0  0  0  0  0  0  0  0  0  0  0
   16.3350   32.5830   16.2500 C   0  0  0  0  0  0  0  0  0  0  0  0
   17.7380   32.4800   16.0770 C   0  0  0  0  0  0  0  0  0  0  0  0
   18.3660   31.2360   16.3230 C   0  0  0  0  0  0  0  0  0  0  0  0
   17.6240   30.0910   16.7380 C   0  0  0  0  0  0  0  0  0  0  0  0
   18.3960   28.8410   16.9660 C   0  0  0  0  0  0  0  0  0  0  0  0
   19.3470   28.8430   17.6950 O   0  5  0  0  0  0  0  0  0  0  0  0
   17.8460   27.6820   16.5470 O   0  0  0  0  0  0  0  0  0  0  0  0
   18.5480   33.6740   15.6400 C   0  0  0  0  0  0  0  0  0  0  0  0
   19.2465   27.6852   22.1497 H   0  0  0  0  0  0  0  0  0  0  0  0
   18.4029   30.0378   22.0147 H   0  0  0  0  0  0  0  0  0  0  0  0
   16.4449   30.5826   20.5548 H   0  0  0  0  0  0  0  0  0  0  0  0
   16.1740   26.4225   19.3660 H   0  0  0  0  0  0  0  0  0  0  0  0
   18.1285   25.8799   20.8267 H   0  0  0  0  0  0  0  0  0  0  0  0
   15.2258   28.4203   16.6412 H   0  0  0  0  0  0  0  0  0  0  0  0
   14.5019   31.5641   16.7853 H   0  0  0  0  0  0  0  0  0  0  0  0
   15.8398   33.5295   16.0656 H   0  0  0  0  0  0  0  0  0  0  0  0
   19.4388   31.1512   16.1926 H   0  0  0  0  0  0  0  0  0  0  0  0
   17.8818   34.5383   15.5018 H   0  0  0  0  0  0  0  0  0  0  0  0
   19.0544   33.4459   14.6905 H   0  0  0  0  0  0  0  0  0  0  0  0
   19.2988   33.9091   16.4088 H   0  0  0  0  0  0  0  0  0  0  0  0
  1  2  2  0  0  0  0
  1  6  1  0  0  0  0
  1 21  1  0  0  0  0
  2  3  1  0  0  0  0
  2 22  1  0  0  0  0
  3  4  2  0  0  0  0
  3 23  1  0  0  0  0
  4  5  1  0  0  0  0
  4  7  1  0  0  0  0
  5  6  2  0  0  0  0
  5 24  1  0  0  0  0
  6 25  1  0  0  0  0
  7  8  1  0  0  0  0
  7  9  2  0  0  0  0
  7 10  2  0  0  0  0
  8 11  1  0  0  0  0
  8 26  1  0  0  0  0
 11 12  2  0  0  0  0
 11 16  1  0  0  0  0
 12 13  1  0  0  0  0
 12 27  1  0  0  0  0
 13 14  2  0  0  0  0
 13 28  1  0  0  0  0
 14 15  1  0  0  0  0
 14 20  1  0  0  0  0
 15 16  2  0  0  0  0
 15 29  1  0  0  0  0
 16 17  1  0  0  0  0
 17 18  1  0  0  0  0
 17 19  2  0  0  0  0
 20 30  1  0  0  0  0
 20 31  1  0  0  0  0
 20 32  1  0  0  0  0
M  CHG  1  18  -1
M  END
