1ywi_ligand
 OpenBabel08222323343D

 92 96  0  0  1  0  0  0  0  0999 V2000
   -2.4660   10.0450   -7.5850 N   0  3  0  0  0  0  0  0  0  0  0  0
   -1.6270    9.0570   -6.9070 C   0  0  2  0  0  0  0  0  0  0  0  0
   -1.9070    9.0060   -5.4060 C   0  0  0  0  0  0  0  0  0  0  0  0
   -2.2610   10.0180   -4.8020 O   0  0  0  0  0  0  0  0  0  0  0  0
   -0.1920    9.5490   -7.1610 C   0  0  0  0  0  0  0  0  0  0  0  0
   -0.3130   10.7200   -8.0880 C   0  0  0  0  0  0  0  0  0  0  0  0
   -1.7050   11.2540   -7.9150 C   0  0  0  0  0  0  0  0  0  0  0  0
   -1.7470    7.8220   -4.7800 N   0  0  0  0  0  0  0  0  0  0  0  0
   -1.9950    7.6490   -3.3460 C   0  0  2  0  0  0  0  0  0  0  0  0
   -0.8520    8.1750   -2.4800 C   0  0  0  0  0  0  0  0  0  0  0  0
    0.3110    8.1340   -2.8870 O   0  0  0  0  0  0  0  0  0  0  0  0
   -2.1140    6.1370   -3.2030 C   0  0  0  0  0  0  0  0  0  0  0  0
   -1.2280    5.5920   -4.2670 C   0  0  0  0  0  0  0  0  0  0  0  0
   -1.3160    6.5600   -5.4170 C   0  0  0  0  0  0  0  0  0  0  0  0
   -1.1640    8.6660   -1.2630 N   0  0  0  0  0  0  0  0  0  0  0  0
   -0.1630    9.2000   -0.3440 C   0  0  2  0  0  0  0  0  0  0  0  0
    0.6040    8.0930    0.3660 C   0  0  0  0  0  0  0  0  0  0  0  0
    0.0640    7.0160    0.6190 O   0  0  0  0  0  0  0  0  0  0  0  0
   -0.9820   10.0130    0.6730 C   0  0  0  0  0  0  0  0  0  0  0  0
   -2.4100    9.9240    0.2270 C   0  0  0  0  0  0  0  0  0  0  0  0
   -2.5070    8.7290   -0.6760 C   0  0  0  0  0  0  0  0  0  0  0  0
    1.8650    8.3610    0.6810 N   0  0  0  0  0  0  0  0  0  0  0  0
    2.7000    7.3810    1.3620 C   0  0  2  0  0  0  0  0  0  0  0  0
    2.3760    7.3390    2.8600 C   0  0  0  0  0  0  0  0  0  0  0  0
    2.0410    8.3650    3.4540 O   0  0  0  0  0  0  0  0  0  0  0  0
    4.1710    7.7550    1.1450 C   0  0  0  0  0  0  0  0  0  0  0  0
    5.1960    6.9520    1.9400 C   0  0  0  0  0  0  0  0  0  0  0  0
    5.5460    5.6810    1.1980 C   0  0  0  0  0  0  0  0  0  0  0  0
    6.4420    7.7870    2.1930 C   0  0  0  0  0  0  0  0  0  0  0  0
    2.4720    6.1510    3.4940 N   0  0  0  0  0  0  0  0  0  0  0  0
    2.2180    5.9870    4.9230 C   0  0  2  0  0  0  0  0  0  0  0  0
    3.4150    6.4270    5.7630 C   0  0  0  0  0  0  0  0  0  0  0  0
    4.5560    6.3260    5.3150 O   0  0  0  0  0  0  0  0  0  0  0  0
    1.9640    4.4820    5.0950 C   0  0  0  0  0  0  0  0  0  0  0  0
    2.0660    3.8800    3.7270 C   0  0  0  0  0  0  0  0  0  0  0  0
    2.8100    4.8660    2.8760 C   0  0  0  0  0  0  0  0  0  0  0  0
    3.1790    6.9280    6.9880 N   0  0  0  0  0  0  0  0  0  0  0  0
    4.2610    7.3640    7.8740 C   0  0  2  0  0  0  0  0  0  0  0  0
    5.1050    6.1910    8.3670 C   0  0  0  0  0  0  0  0  0  0  0  0
    6.0880    5.8440    7.6780 O   0  5  0  0  0  0  0  0  0  0  0  0
    3.5340    8.0350    9.0520 C   0  0  0  0  0  0  0  0  0  0  0  0
    2.1230    8.2170    8.5990 C   0  0  0  0  0  0  0  0  0  0  0  0
    1.8610    7.1240    7.6070 C   0  0  0  0  0  0  0  0  0  0  0  0
    4.7760    5.6290    9.4320 O   0  0  0  0  0  0  0  0  0  0  0  0
   -3.2329   10.2947   -6.9804 H   0  0  0  0  0  0  0  0  0  0  0  0
   -2.8262    9.6415   -8.4356 H   0  0  0  0  0  0  0  0  0  0  0  0
   -1.7814    8.0578   -7.3402 H   0  0  0  0  0  0  0  0  0  0  0  0
    0.4077    8.7533   -7.6272 H   0  0  0  0  0  0  0  0  0  0  0  0
    0.2790    9.8572   -6.2159 H   0  0  0  0  0  0  0  0  0  0  0  0
   -0.1548   10.3998   -9.1284 H   0  0  0  0  0  0  0  0  0  0  0  0
    0.4259   11.4914   -7.8253 H   0  0  0  0  0  0  0  0  0  0  0  0
   -1.7508   11.9888   -7.0977 H   0  0  0  0  0  0  0  0  0  0  0  0
   -2.0728   11.7149   -8.8436 H   0  0  0  0  0  0  0  0  0  0  0  0
   -2.9295    8.1493   -3.0521 H   0  0  0  0  0  0  0  0  0  0  0  0
   -3.1534    5.8122   -3.3583 H   0  0  0  0  0  0  0  0  0  0  0  0
   -1.7730    5.8123   -2.2089 H   0  0  0  0  0  0  0  0  0  0  0  0
   -1.5739    4.5955   -4.5790 H   0  0  0  0  0  0  0  0  0  0  0  0
   -0.1920    5.5235   -3.9037 H   0  0  0  0  0  0  0  0  0  0  0  0
   -0.3371    6.6807   -5.9039 H   0  0  0  0  0  0  0  0  0  0  0  0
   -2.0552    6.2223   -6.1583 H   0  0  0  0  0  0  0  0  0  0  0  0
    0.5463    9.8466   -0.8813 H   0  0  0  0  0  0  0  0  0  0  0  0
   -0.6493   11.0614    0.6795 H   0  0  0  0  0  0  0  0  0  0  0  0
   -0.8701    9.5865    1.6808 H   0  0  0  0  0  0  0  0  0  0  0  0
   -2.6940   10.8356   -0.3191 H   0  0  0  0  0  0  0  0  0  0  0  0
   -3.0714    9.7965    1.0966 H   0  0  0  0  0  0  0  0  0  0  0  0
   -2.7347    7.8167   -0.1052 H   0  0  0  0  0  0  0  0  0  0  0  0
   -3.2733    8.8775   -1.4511 H   0  0  0  0  0  0  0  0  0  0  0  0
    2.2496    9.2537    0.4461 H   0  0  0  0  0  0  0  0  0  0  0  0
    2.5125    6.3864    0.9311 H   0  0  0  0  0  0  0  0  0  0  0  0
    4.2913    8.8142    1.4164 H   0  0  0  0  0  0  0  0  0  0  0  0
    4.3967    7.6223    0.0766 H   0  0  0  0  0  0  0  0  0  0  0  0
    4.7544    6.6810    2.9104 H   0  0  0  0  0  0  0  0  0  0  0  0
    6.2850    5.1092    1.7785 H   0  0  0  0  0  0  0  0  0  0  0  0
    5.9690    5.9350    0.2149 H   0  0  0  0  0  0  0  0  0  0  0  0
    4.6386    5.0745    1.0612 H   0  0  0  0  0  0  0  0  0  0  0  0
    6.1650    8.7047    2.7326 H   0  0  0  0  0  0  0  0  0  0  0  0
    6.9067    8.0528    1.2321 H   0  0  0  0  0  0  0  0  0  0  0  0
    7.1553    7.2075    2.7974 H   0  0  0  0  0  0  0  0  0  0  0  0
    1.3327    6.5664    5.2239 H   0  0  0  0  0  0  0  0  0  0  0  0
    0.9611    4.3102    5.5130 H   0  0  0  0  0  0  0  0  0  0  0  0
    2.7197    4.0419    5.7622 H   0  0  0  0  0  0  0  0  0  0  0  0
    1.0616    3.7050    3.3141 H   0  0  0  0  0  0  0  0  0  0  0  0
    2.6151    2.9279    3.7718 H   0  0  0  0  0  0  0  0  0  0  0  0
    3.8939    4.6820    2.9126 H   0  0  0  0  0  0  0  0  0  0  0  0
    2.4664    4.8263    1.8318 H   0  0  0  0  0  0  0  0  0  0  0  0
    4.9120    8.0847    7.3575 H   0  0  0  0  0  0  0  0  0  0  0  0
    3.9922    9.0081    9.2824 H   0  0  0  0  0  0  0  0  0  0  0  0
    3.5715    7.3917    9.9435 H   0  0  0  0  0  0  0  0  0  0  0  0
    1.9983    9.2014    8.1242 H   0  0  0  0  0  0  0  0  0  0  0  0
    1.4340    8.1314    9.4522 H   0  0  0  0  0  0  0  0  0  0  0  0
    1.5178    6.2071    8.1084 H   0  0  0  0  0  0  0  0  0  0  0  0
    1.1148    7.4355    6.8613 H   0  0  0  0  0  0  0  0  0  0  0  0
  1  2  1  0  0  0  0
  1  7  1  0  0  0  0
  1 45  1  0  0  0  0
  1 46  1  0  0  0  0
  2  3  1  0  0  0  0
  2  5  1  0  0  0  0
  2 47  1  6  0  0  0
  3  4  2  0  0  0  0
  3  8  1  0  0  0  0
  5  6  1  0  0  0  0
  5 48  1  0  0  0  0
  5 49  1  0  0  0  0
  6  7  1  0  0  0  0
  6 50  1  0  0  0  0
  6 51  1  0  0  0  0
  7 52  1  0  0  0  0
  7 53  1  0  0  0  0
  8  9  1  0  0  0  0
  8 14  1  0  0  0  0
  9 10  1  0  0  0  0
  9 12  1  0  0  0  0
  9 54  1  1  0  0  0
 10 11  2  0  0  0  0
 10 15  1  0  0  0  0
 12 13  1  0  0  0  0
 12 55  1  0  0  0  0
 12 56  1  0  0  0  0
 13 14  1  0  0  0  0
 13 57  1  0  0  0  0
 13 58  1  0  0  0  0
 14 59  1  0  0  0  0
 14 60  1  0  0  0  0
 15 16  1  0  0  0  0
 15 21  1  0  0  0  0
 16 17  1  0  0  0  0
 16 19  1  0  0  0  0
 16 61  1  6  0  0  0
 17 18  2  0  0  0  0
 17 22  1  0  0  0  0
 19 20  1  0  0  0  0
 19 62  1  0  0  0  0
 19 63  1  0  0  0  0
 20 21  1  0  0  0  0
 20 64  1  0  0  0  0
 20 65  1  0  0  0  0
 21 66  1  0  0  0  0
 21 67  1  0  0  0  0
 22 23  1  0  0  0  0
 22 68  1  0  0  0  0
 23 24  1  0  0  0  0
 23 26  1  0  0  0  0
 23 69  1  6  0  0  0
 24 25  2  0  0  0  0
 24 30  1  0  0  0  0
 26 27  1  0  0  0  0
 26 70  1  0  0  0  0
 26 71  1  0  0  0  0
 27 28  1  0  0  0  0
 27 29  1  0  0  0  0
 27 72  1  0  0  0  0
 28 73  1  0  0  0  0
 28 74  1  0  0  0  0
 28 75  1  0  0  0  0
 29 76  1  0  0  0  0
 29 77  1  0  0  0  0
 29 78  1  0  0  0  0
 30 31  1  0  0  0  0
 30 36  1  0  0  0  0
 31 32  1  0  0  0  0
 31 34  1  0  0  0  0
 31 79  1  1  0  0  0
 32 33  2  0  0  0  0
 32 37  1  0  0  0  0
 34 35  1  0  0  0  0
 34 80  1  0  0  0  0
 34 81  1  0  0  0  0
 35 36  1  0  0  0  0
 35 82  1  0  0  0  0
 35 83  1  0  0  0  0
 36 84  1  0  0  0  0
 36 85  1  0  0  0  0
 37 38  1  0  0  0  0
 37 43  1  0  0  0  0
 38 39  1  0  0  0  0
 38 41  1  0  0  0  0
 38 86  1  6  0  0  0
 39 40  1  0  0  0  0
 39 44  2  0  0  0  0
 41 42  1  0  0  0  0
 41 87  1  0  0  0  0
 41 88  1  0  0  0  0
 42 43  1  0  0  0  0
 42 89  1  0  0  0  0
 42 90  1  0  0  0  0
 43 91  1  0  0  0  0
 43 92  1  0  0  0  0
M  CHG  2   1   1  40  -1
M  END
