1yy6_ligand
 OpenBabel08222323343D

 98 99  0  0  1  0  0  0  0  0999 V2000
   31.4640  -24.9160   -5.9570 N   0  3  0  0  0  0  0  0  0  0  0  0
   30.8890  -23.5410   -5.9560 C   0  0  2  0  0  0  0  0  0  0  0  0
   31.1030  -22.8890   -7.3190 C   0  0  0  0  0  0  0  0  0  0  0  0
   31.9560  -23.3170   -8.1000 O   0  0  0  0  0  0  0  0  0  0  0  0
   31.5390  -22.6920   -4.8560 C   0  0  0  0  0  0  0  0  0  0  0  0
   33.0070  -22.4290   -5.1130 C   0  0  0  0  0  0  0  0  0  0  0  0
   33.3190  -21.7100   -6.0830 O   0  5  0  0  0  0  0  0  0  0  0  0
   33.8500  -22.9420   -4.3480 O   0  0  0  0  0  0  0  0  0  0  0  0
   30.3310  -21.8370   -7.6170 N   0  0  0  0  0  0  0  0  0  0  0  0
   30.4250  -21.1190   -8.8900 C   0  0  2  0  0  0  0  0  0  0  0  0
   31.7080  -20.3140   -9.1150 C   0  0  0  0  0  0  0  0  0  0  0  0
   31.8710  -19.6800  -10.1560 O   0  0  0  0  0  0  0  0  0  0  0  0
   29.1760  -20.2450   -8.8720 C   0  0  0  0  0  0  0  0  0  0  0  0
   29.0200  -19.9340   -7.4190 C   0  0  0  0  0  0  0  0  0  0  0  0
   29.2620  -21.2720   -6.7750 C   0  0  0  0  0  0  0  0  0  0  0  0
   32.6140  -20.3400   -8.1430 N   0  0  0  0  0  0  0  0  0  0  0  0
   33.8640  -19.6100   -8.2750 C   0  0  0  0  0  0  0  0  0  0  0  0
   33.7080  -18.1040   -8.4360 C   0  0  0  0  0  0  0  0  0  0  0  0
   34.2720  -17.5080   -9.3600 O   0  0  0  0  0  0  0  0  0  0  0  0
   32.9560  -17.4790   -7.5340 N   0  0  0  0  0  0  0  0  0  0  0  0
   32.7350  -16.0350   -7.6000 C   0  0  2  0  0  0  0  0  0  0  0  0
   34.0160  -15.2640   -7.3020 C   0  0  0  0  0  0  0  0  0  0  0  0
   34.7660  -15.6190   -6.3960 O   0  0  0  0  0  0  0  0  0  0  0  0
   31.6530  -15.6070   -6.6090 C   0  0  0  0  0  0  0  0  0  0  0  0
   31.1210  -14.2090   -6.8820 C   0  0  0  0  0  0  0  0  0  0  0  0
   30.1270  -13.7320   -5.8440 C   0  0  0  0  0  0  0  0  0  0  0  0
   29.4190  -14.5700   -5.2480 O   0  5  0  0  0  0  0  0  0  0  0  0
   30.0430  -12.5080   -5.6360 O   0  0  0  0  0  0  0  0  0  0  0  0
   34.2570  -14.2030   -8.0660 N   0  0  0  0  0  0  0  0  0  0  0  0
   35.4500  -13.4020   -7.8690 C   0  0  0  0  0  0  0  0  0  0  0  0
   35.8770  -12.7570   -9.1730 C   0  0  0  0  0  0  0  0  0  0  0  0
   35.1080  -12.7530  -10.1360 O   0  0  0  0  0  0  0  0  0  0  0  0
   37.0970  -12.1980   -9.2370 N   0  0  0  0  0  0  0  0  0  0  0  0
   37.6160  -11.5490  -10.4470 C   0  0  2  0  0  0  0  0  0  0  0  0
   37.9240  -12.5650  -11.5430 C   0  0  0  0  0  0  0  0  0  0  0  0
   38.0920  -13.7550  -11.2610 O   0  0  0  0  0  0  0  0  0  0  0  0
   38.8680  -10.8430   -9.9430 C   0  0  0  0  0  0  0  0  0  0  0  0
   39.3600  -11.7780   -8.8900 C   0  0  0  0  0  0  0  0  0  0  0  0
   38.0870  -12.1350   -8.1460 C   0  0  0  0  0  0  0  0  0  0  0  0
   38.0080  -12.0980  -12.7880 N   0  0  0  0  0  0  0  0  0  0  0  0
   38.2830  -12.9900  -13.9160 C   0  0  2  0  0  0  0  0  0  0  0  0
   39.6320  -13.6740  -13.7910 C   0  0  0  0  0  0  0  0  0  0  0  0
   39.8880  -14.6850  -14.4430 O   0  0  0  0  0  0  0  0  0  0  0  0
   38.2220  -12.2250  -15.2440 C   0  0  0  0  0  0  0  0  0  0  0  0
   39.1940  -11.2010  -15.2970 O   0  0  0  0  0  0  0  0  0  0  0  0
   40.4930  -13.1220  -12.9480 N   0  0  0  0  0  0  0  0  0  0  0  0
   41.8160  -13.6930  -12.7490 C   0  0  2  0  0  0  0  0  0  0  0  0
   41.8480  -14.6110  -11.5290 C   0  0  0  0  0  0  0  0  0  0  0  0
   42.8570  -14.5420  -10.7940 O   0  0  0  0  0  0  0  0  0  0  0  0
   42.8520  -12.5830  -12.5530 C   0  0  2  0  0  0  0  0  0  0  0  0
   42.4700  -11.7690  -11.4350 O   0  0  0  0  0  0  0  0  0  0  0  0
   42.9400  -11.7160  -13.8030 C   0  0  0  0  0  0  0  0  0  0  0  0
   40.8481  -15.4459  -11.2606 O   0  0  0  0  0  0  0  0  0  0  0  0
   31.3196  -25.3412   -5.0546 H   0  0  0  0  0  0  0  0  0  0  0  0
   32.4519  -24.8670   -6.1511 H   0  0  0  0  0  0  0  0  0  0  0  0
   31.0094  -25.4698   -6.6660 H   0  0  0  0  0  0  0  0  0  0  0  0
   29.8088  -23.6080   -5.7595 H   0  0  0  0  0  0  0  0  0  0  0  0
   31.4389  -23.2216   -3.8971 H   0  0  0  0  0  0  0  0  0  0  0  0
   31.0133  -21.7274   -4.7988 H   0  0  0  0  0  0  0  0  0  0  0  0
   30.3542  -21.8449   -9.7134 H   0  0  0  0  0  0  0  0  0  0  0  0
   28.3027  -20.7916   -9.2575 H   0  0  0  0  0  0  0  0  0  0  0  0
   29.3240  -19.3279   -9.4611 H   0  0  0  0  0  0  0  0  0  0  0  0
   29.7628  -19.1930   -7.0886 H   0  0  0  0  0  0  0  0  0  0  0  0
   28.0084  -19.5629   -7.1978 H   0  0  0  0  0  0  0  0  0  0  0  0
   29.5942  -21.1581   -5.7326 H   0  0  0  0  0  0  0  0  0  0  0  0
   28.3580  -21.8980   -6.8055 H   0  0  0  0  0  0  0  0  0  0  0  0
   32.4339  -20.8671   -7.3125 H   0  0  0  0  0  0  0  0  0  0  0  0
   34.3943  -19.9957   -9.1581 H   0  0  0  0  0  0  0  0  0  0  0  0
   34.4669  -19.7975   -7.3743 H   0  0  0  0  0  0  0  0  0  0  0  0
   32.5339  -18.0067   -6.7969 H   0  0  0  0  0  0  0  0  0  0  0  0
   32.4019  -15.7829   -8.6176 H   0  0  0  0  0  0  0  0  0  0  0  0
   32.0775  -15.6292   -5.5945 H   0  0  0  0  0  0  0  0  0  0  0  0
   30.8172  -16.3193   -6.6724 H   0  0  0  0  0  0  0  0  0  0  0  0
   30.6263  -14.2096   -7.8645 H   0  0  0  0  0  0  0  0  0  0  0  0
   31.9700  -13.5098   -6.8993 H   0  0  0  0  0  0  0  0  0  0  0  0
   33.6080  -13.9542   -8.7850 H   0  0  0  0  0  0  0  0  0  0  0  0
   36.2620  -14.0462   -7.5008 H   0  0  0  0  0  0  0  0  0  0  0  0
   35.2405  -12.6164   -7.1281 H   0  0  0  0  0  0  0  0  0  0  0  0
   36.8918  -10.8179  -10.8356 H   0  0  0  0  0  0  0  0  0  0  0  0
   38.6258   -9.8575   -9.5186 H   0  0  0  0  0  0  0  0  0  0  0  0
   39.6089  -10.7239  -10.7473 H   0  0  0  0  0  0  0  0  0  0  0  0
   39.8232  -12.6705   -9.3360 H   0  0  0  0  0  0  0  0  0  0  0  0
   40.0832  -11.2828   -8.2253 H   0  0  0  0  0  0  0  0  0  0  0  0
   38.1815  -13.1052   -7.6364 H   0  0  0  0  0  0  0  0  0  0  0  0
   37.8231  -11.3594   -7.4120 H   0  0  0  0  0  0  0  0  0  0  0  0
   37.8809  -11.1203  -12.9551 H   0  0  0  0  0  0  0  0  0  0  0  0
   37.5052  -13.7677  -13.9276 H   0  0  0  0  0  0  0  0  0  0  0  0
   37.2237  -11.7760  -15.3523 H   0  0  0  0  0  0  0  0  0  0  0  0
   38.3991  -12.9290  -16.0705 H   0  0  0  0  0  0  0  0  0  0  0  0
   39.0439  -10.5864  -14.5882 H   0  0  0  0  0  0  0  0  0  0  0  0
   40.2293  -12.3011  -12.4414 H   0  0  0  0  0  0  0  0  0  0  0  0
   42.0815  -14.2785  -13.6415 H   0  0  0  0  0  0  0  0  0  0  0  0
   43.8351  -13.0357  -12.3564 H   0  0  0  0  0  0  0  0  0  0  0  0
   42.4150  -12.3092  -10.6555 H   0  0  0  0  0  0  0  0  0  0  0  0
   43.6872  -10.9238  -13.6479 H   0  0  0  0  0  0  0  0  0  0  0  0
   41.9590  -11.2605  -14.0032 H   0  0  0  0  0  0  0  0  0  0  0  0
   43.2374  -12.3377  -14.6603 H   0  0  0  0  0  0  0  0  0  0  0  0
   40.4824  -15.2369  -10.4091 H   0  0  0  0  0  0  0  0  0  0  0  0
  1 54  1  0  0  0  0
  1 55  1  0  0  0  0
  1 56  1  0  0  0  0
  2  1  1  0  0  0  0
  2  5  1  0  0  0  0
  2 57  1  1  0  0  0
  3  2  1  0  0  0  0
  3  4  2  0  0  0  0
  5  6  1  0  0  0  0
  5 58  1  0  0  0  0
  5 59  1  0  0  0  0
  6  7  1  0  0  0  0
  6  8  2  0  0  0  0
  9 15  1  0  0  0  0
  9  3  1  0  0  0  0
 10 13  1  0  0  0  0
 10  9  1  0  0  0  0
 10 60  1  6  0  0  0
 11 10  1  0  0  0  0
 11 12  2  0  0  0  0
 13 14  1  0  0  0  0
 13 61  1  0  0  0  0
 13 62  1  0  0  0  0
 14 63  1  0  0  0  0
 14 64  1  0  0  0  0
 15 14  1  0  0  0  0
 15 65  1  0  0  0  0
 15 66  1  0  0  0  0
 16 11  1  0  0  0  0
 16 67  1  0  0  0  0
 17 16  1  0  0  0  0
 17 68  1  0  0  0  0
 17 69  1  0  0  0  0
 18 17  1  0  0  0  0
 18 19  2  0  0  0  0
 20 18  1  0  0  0  0
 20 70  1  0  0  0  0
 21 20  1  0  0  0  0
 21 24  1  0  0  0  0
 21 71  1  6  0  0  0
 22 21  1  0  0  0  0
 22 23  2  0  0  0  0
 24 25  1  0  0  0  0
 24 72  1  0  0  0  0
 24 73  1  0  0  0  0
 25 26  1  0  0  0  0
 25 74  1  0  0  0  0
 25 75  1  0  0  0  0
 26 28  2  0  0  0  0
 26 27  1  0  0  0  0
 29 22  1  0  0  0  0
 29 76  1  0  0  0  0
 30 29  1  0  0  0  0
 30 77  1  0  0  0  0
 30 78  1  0  0  0  0
 31 30  1  0  0  0  0
 31 32  2  0  0  0  0
 33 39  1  0  0  0  0
 33 31  1  0  0  0  0
 34 37  1  0  0  0  0
 34 33  1  0  0  0  0
 34 79  1  6  0  0  0
 35 34  1  0  0  0  0
 35 36  2  0  0  0  0
 37 38  1  0  0  0  0
 37 80  1  0  0  0  0
 37 81  1  0  0  0  0
 38 82  1  0  0  0  0
 38 83  1  0  0  0  0
 39 38  1  0  0  0  0
 39 84  1  0  0  0  0
 39 85  1  0  0  0  0
 40 35  1  0  0  0  0
 40 86  1  0  0  0  0
 41 40  1  0  0  0  0
 41 44  1  0  0  0  0
 41 87  1  6  0  0  0
 42 41  1  0  0  0  0
 42 43  2  0  0  0  0
 42 46  1  0  0  0  0
 44 45  1  0  0  0  0
 44 88  1  0  0  0  0
 44 89  1  0  0  0  0
 45 90  1  0  0  0  0
 46 47  1  0  0  0  0
 46 91  1  0  0  0  0
 47 50  1  0  0  0  0
 47 48  1  0  0  0  0
 47 92  1  6  0  0  0
 48 49  2  0  0  0  0
 48 53  1  0  0  0  0
 50 52  1  0  0  0  0
 50 51  1  0  0  0  0
 50 93  1  1  0  0  0
 51 94  1  0  0  0  0
 52 95  1  0  0  0  0
 52 96  1  0  0  0  0
 52 97  1  0  0  0  0
 53 98  1  0  0  0  0
M  CHG  3   1   1   7  -1  27  -1
M  END
