1yys_ligand
 OpenBabel08222323343D

 41 41  0  0  1  0  0  0  0  0999 V2000
   51.8580   13.2410   63.5180 C   0  0  1  0  0  0  0  0  0  0  0  0
   52.3200   11.7900   63.1370 C   0  0  0  0  0  0  0  0  0  0  0  0
   53.1240   14.0850   63.9750 C   0  0  0  0  0  0  0  0  0  0  0  0
   53.5110   11.7130   62.1440 C   0  0  0  0  0  0  0  0  0  0  0  0
   54.4710   13.7030   63.3540 C   0  0  0  0  0  0  0  0  0  0  0  0
   52.7490   15.4700   60.5080 C   0  0  0  0  0  0  0  0  0  0  0  0
   51.4550   15.9920   61.0730 C   0  0  0  0  0  0  0  0  0  0  0  0
   50.9810   15.2650   62.3420 C   0  0  0  0  0  0  0  0  0  0  0  0
   52.9920   14.9620   59.2880 C   0  0  0  0  0  0  0  0  0  0  0  0
   51.9800   14.7950   58.1710 C   0  0  0  0  0  0  0  0  0  0  0  0
   54.3790   14.5010   58.9300 C   0  0  0  0  0  0  0  0  0  0  0  0
   54.6580   12.6380   62.5290 C   0  0  0  0  0  0  0  0  0  0  0  0
   56.0030   12.2960   61.9430 C   0  0  0  0  0  0  0  0  0  0  0  0
   51.1250   13.8130   62.4020 N   0  3  2  0  0  0  0  0  0  0  0  0
   49.7750   13.2690   62.1450 C   0  0  0  0  0  0  0  0  0  0  0  0
   51.1699   13.1803   64.3740 H   0  0  0  0  0  0  0  0  0  0  0  0
   51.4644   11.2691   62.6826 H   0  0  0  0  0  0  0  0  0  0  0  0
   52.6148   11.2731   64.0621 H   0  0  0  0  0  0  0  0  0  0  0  0
   53.2186   13.9785   65.0657 H   0  0  0  0  0  0  0  0  0  0  0  0
   52.9294   15.1384   63.7249 H   0  0  0  0  0  0  0  0  0  0  0  0
   53.1531   11.9943   61.1426 H   0  0  0  0  0  0  0  0  0  0  0  0
   53.8850   10.6788   62.1226 H   0  0  0  0  0  0  0  0  0  0  0  0
   55.3344   14.3240   63.5881 H   0  0  0  0  0  0  0  0  0  0  0  0
   53.6052   15.5095   61.1798 H   0  0  0  0  0  0  0  0  0  0  0  0
   50.6756   15.8865   60.3039 H   0  0  0  0  0  0  0  0  0  0  0  0
   51.5893   17.0565   61.3155 H   0  0  0  0  0  0  0  0  0  0  0  0
   49.9120   15.4918   62.4673 H   0  0  0  0  0  0  0  0  0  0  0  0
   51.5463   15.6836   63.1877 H   0  0  0  0  0  0  0  0  0  0  0  0
   52.4729   14.3525   57.2928 H   0  0  0  0  0  0  0  0  0  0  0  0
   51.5650   15.7776   57.9022 H   0  0  0  0  0  0  0  0  0  0  0  0
   51.1680   14.1337   58.5077 H   0  0  0  0  0  0  0  0  0  0  0  0
   55.0495   14.6549   59.7884 H   0  0  0  0  0  0  0  0  0  0  0  0
   54.7468   15.0789   58.0693 H   0  0  0  0  0  0  0  0  0  0  0  0
   54.3547   13.4323   58.6707 H   0  0  0  0  0  0  0  0  0  0  0  0
   56.7495   13.0269   62.2873 H   0  0  0  0  0  0  0  0  0  0  0  0
   55.9423   12.3234   60.8450 H   0  0  0  0  0  0  0  0  0  0  0  0
   56.2994   11.2880   62.2688 H   0  0  0  0  0  0  0  0  0  0  0  0
   51.6820   13.5618   61.6003 H   0  0  0  0  0  0  0  0  0  0  0  0
   49.8106   12.1700   62.1758 H   0  0  0  0  0  0  0  0  0  0  0  0
   49.4302   13.5970   61.1533 H   0  0  0  0  0  0  0  0  0  0  0  0
   49.0795   13.6350   62.9146 H   0  0  0  0  0  0  0  0  0  0  0  0
  1  2  1  0  0  0  0
  1  3  1  0  0  0  0
  1 16  1  1  0  0  0
  2  4  1  0  0  0  0
  2 17  1  0  0  0  0
  2 18  1  0  0  0  0
  3  5  1  0  0  0  0
  3 19  1  0  0  0  0
  3 20  1  0  0  0  0
  4 12  1  0  0  0  0
  4 21  1  0  0  0  0
  4 22  1  0  0  0  0
  5 12  2  0  0  0  0
  5 23  1  0  0  0  0
  6  9  2  0  0  0  0
  6 24  1  0  0  0  0
  7  6  1  0  0  0  0
  7 25  1  0  0  0  0
  7 26  1  0  0  0  0
  8  7  1  0  0  0  0
  8 14  1  0  0  0  0
  8 27  1  0  0  0  0
  8 28  1  0  0  0  0
  9 10  1  0  0  0  0
  9 11  1  0  0  0  0
 10 29  1  0  0  0  0
 10 30  1  0  0  0  0
 10 31  1  0  0  0  0
 11 32  1  0  0  0  0
 11 33  1  0  0  0  0
 11 34  1  0  0  0  0
 12 13  1  0  0  0  0
 13 35  1  0  0  0  0
 13 36  1  0  0  0  0
 13 37  1  0  0  0  0
 14  1  1  0  0  0  0
 14 15  1  0  0  0  0
 14 38  1  6  0  0  0
 15 39  1  0  0  0  0
 15 40  1  0  0  0  0
 15 41  1  0  0  0  0
M  CHG  1  14   1
M  END
