1yyy_ligand
 OpenBabel08222323343D

 59 60  0  0  1  0  0  0  0  0999 V2000
   24.1170    5.6950   29.9690 S   0  0  0  0  0  0  0  0  0  0  0  0
   23.2240    6.1850   28.9230 O   0  0  0  0  0  1  0  0  0  0  0  0
   23.3720    4.9650   30.9930 O   0  0  0  0  0  1  0  0  0  0  0  0
   25.2070    4.6360   29.2610 N   0  0  0  0  0  0  0  0  0  0  0  0
   25.6080    3.3340   29.6730 C   0  0  1  0  0  0  0  0  0  0  0  0
   26.1630    3.3970   31.0710 C   0  0  0  0  0  0  0  0  0  0  0  0
   26.3840    2.0510   31.7140 C   0  0  0  0  0  0  0  0  0  0  0  0
   24.5160    2.2170   29.5080 C   0  0  0  0  0  0  0  0  0  0  0  0
   25.2270    1.0820   31.6160 C   0  0  0  0  0  0  0  0  0  0  0  0
   23.7770    2.4060   28.5310 O   0  0  0  0  0  0  0  0  0  0  0  0
   24.5500    1.1280   30.2950 N   0  0  0  0  0  0  0  0  0  0  0  0
   23.5560    0.0650   29.9410 C   0  0  0  0  0  0  0  0  0  0  0  0
   22.3610    0.9520   30.3660 C   0  0  0  0  0  0  0  0  0  0  0  0
   22.1550    1.3880   31.5460 O   0  0  0  0  0  0  0  0  0  0  0  0
   19.9660    2.0220   28.2830 C   0  0  2  0  0  0  0  0  0  0  0  0
   20.1020    2.0220   26.7530 C   0  0  0  0  0  0  0  0  0  0  0  0
   21.4210    0.2370   29.5930 N   0  0  0  0  0  0  0  0  0  0  0  0
   20.0270    0.4370   30.0990 C   0  0  2  0  0  0  0  0  0  0  0  0
   19.5200   -0.6460   31.0470 C   0  0  0  0  0  0  0  0  0  0  0  0
   18.0960   -0.5750   31.1730 O   0  0  0  0  0  0  0  0  0  0  0  0
   19.1230    0.8780   28.9040 C   0  0  0  0  0  0  0  0  0  0  0  0
   20.0210    3.8610   24.9590 C   0  0  0  0  0  3  0  0  0  0  0  0
   20.4800    3.3890   26.2550 N   0  0  0  0  0  0  0  0  0  0  0  0
   21.2770    4.2670   27.2060 C   0  0  0  0  0  0  0  0  0  0  0  0
   20.4380    4.6230   28.4460 C   0  0  0  0  0  0  0  0  0  0  0  0
   19.7210    3.3550   29.0270 C   0  0  0  0  0  0  0  0  0  0  0  0
   20.2210    5.1190   24.6300 N   0  0  0  0  0  0  0  0  0  0  0  0
   19.4280    2.9970   24.1840 N   0  0  0  0  0  0  0  0  0  0  0  0
   24.6050    6.4695   30.3910 H   0  0  0  0  0  0  0  0  0  0  0  0
   25.6404    4.9691   28.4236 H   0  0  0  0  0  0  0  0  0  0  0  0
   26.4377    3.0415   29.0127 H   0  0  0  0  0  0  0  0  0  0  0  0
   25.4583    3.9653   31.6958 H   0  0  0  0  0  0  0  0  0  0  0  0
   27.1280    3.9237   31.0348 H   0  0  0  0  0  0  0  0  0  0  0  0
   26.5975    2.2163   32.7803 H   0  0  0  0  0  0  0  0  0  0  0  0
   27.2569    1.5854   31.2331 H   0  0  0  0  0  0  0  0  0  0  0  0
   24.4927    1.3308   32.3963 H   0  0  0  0  0  0  0  0  0  0  0  0
   25.6067    0.0629   31.7813 H   0  0  0  0  0  0  0  0  0  0  0  0
   23.6591   -0.8510   30.5412 H   0  0  0  0  0  0  0  0  0  0  0  0
   23.5523   -0.1953   28.8723 H   0  0  0  0  0  0  0  0  0  0  0  0
   20.9910    1.7668   28.5899 H   0  0  0  0  0  0  0  0  0  0  0  0
   19.1418    1.7268   26.3048 H   0  0  0  0  0  0  0  0  0  0  0  0
   20.8804    1.3024   26.4593 H   0  0  0  0  0  0  0  0  0  0  0  0
   21.6571   -0.3322   28.8054 H   0  0  0  0  0  0  0  0  0  0  0  0
   20.0807    1.3271   30.7430 H   0  0  0  0  0  0  0  0  0  0  0  0
   19.9785   -0.5044   32.0368 H   0  0  0  0  0  0  0  0  0  0  0  0
   19.7996   -1.6335   30.6512 H   0  0  0  0  0  0  0  0  0  0  0  0
   17.7974   -1.2548   31.7656 H   0  0  0  0  0  0  0  0  0  0  0  0
   18.9732    0.0557   28.1889 H   0  0  0  0  0  0  0  0  0  0  0  0
   18.1458    1.2430   29.2530 H   0  0  0  0  0  0  0  0  0  0  0  0
   21.5659    5.1928   26.6870 H   0  0  0  0  0  0  0  0  0  0  0  0
   22.1813    3.7275   27.5241 H   0  0  0  0  0  0  0  0  0  0  0  0
   19.6786    5.3673   28.1642 H   0  0  0  0  0  0  0  0  0  0  0  0
   21.0985    5.0468   29.2168 H   0  0  0  0  0  0  0  0  0  0  0  0
   20.0605    3.2255   30.0652 H   0  0  0  0  0  0  0  0  0  0  0  0
   18.6384    3.5493   29.0168 H   0  0  0  0  0  0  0  0  0  0  0  0
   19.9018    5.4691   23.7154 H   0  0  0  0  0  0  0  0  0  0  0  0
   20.6968    5.7538   25.2870 H   0  0  0  0  0  0  0  0  0  0  0  0
   19.3011    2.0246   24.4991 H   0  0  0  0  0  0  0  0  0  0  0  0
   19.0863    3.2866   23.2565 H   0  0  0  0  0  0  0  0  0  0  0  0
  1  2  1  0  0  0  0
  1  3  1  0  0  0  0
  1 29  1  0  0  0  0
  4  1  1  0  0  0  0
  4 30  1  0  0  0  0
  5  4  1  0  0  0  0
  5  6  1  0  0  0  0
  5 31  1  6  0  0  0
  6 32  1  0  0  0  0
  6 33  1  0  0  0  0
  7  6  1  0  0  0  0
  7 34  1  0  0  0  0
  7 35  1  0  0  0  0
  8  5  1  0  0  0  0
  8 10  2  0  0  0  0
  9  7  1  0  0  0  0
  9 36  1  0  0  0  0
  9 37  1  0  0  0  0
 11  8  1  0  0  0  0
 11  9  1  0  0  0  0
 12 11  1  0  0  0  0
 12 38  1  0  0  0  0
 12 39  1  0  0  0  0
 13 12  1  0  0  0  0
 13 14  2  0  0  0  0
 15 16  1  0  0  0  0
 15 26  1  0  0  0  0
 15 40  1  1  0  0  0
 16 23  1  0  0  0  0
 16 41  1  0  0  0  0
 16 42  1  0  0  0  0
 17 13  1  0  0  0  0
 17 43  1  0  0  0  0
 18 17  1  0  0  0  0
 18 19  1  0  0  0  0
 18 21  1  0  0  0  0
 18 44  1  1  0  0  0
 19 20  1  0  0  0  0
 19 45  1  0  0  0  0
 19 46  1  0  0  0  0
 20 47  1  0  0  0  0
 21 15  1  0  0  0  0
 21 48  1  0  0  0  0
 21 49  1  0  0  0  0
 22 27  1  0  0  0  0
 22 28  1  0  0  0  0
 23 22  1  0  0  0  0
 23 24  1  0  0  0  0
 24 25  1  0  0  0  0
 24 50  1  0  0  0  0
 24 51  1  0  0  0  0
 25 26  1  0  0  0  0
 25 52  1  0  0  0  0
 25 53  1  0  0  0  0
 26 54  1  0  0  0  0
 26 55  1  0  0  0  0
 27 56  1  0  0  0  0
 27 57  1  0  0  0  0
 28 58  1  0  0  0  0
 28 59  1  0  0  0  0
M  END
