1yz3_ligand
 OpenBabel08222323343D

 22 23  0  0  0  0  0  0  0  0999 V2000
   26.6830   41.4430   16.4840 Cl  0  0  0  0  0  0  0  0  0  0  0  0
   27.2580   43.0760   16.4370 C   0  0  0  0  0  0  0  0  0  0  0  0
   27.8860   43.6150   17.5590 C   0  0  0  0  0  0  0  0  0  0  0  0
   28.0740   42.8070   18.8460 C   0  0  0  0  0  0  0  0  0  0  0  0
   29.1060   43.4070   19.7110 N   0  3  0  0  0  0  0  0  0  0  0  0
   28.8180   44.8240   19.9750 C   0  0  0  0  0  0  0  0  0  0  0  0
   29.0420   45.6150   18.6840 C   0  0  0  0  0  0  0  0  0  0  0  0
   28.3320   44.9360   17.5080 C   0  0  0  0  0  0  0  0  0  0  0  0
   28.1520   45.6970   16.3600 C   0  0  0  0  0  0  0  0  0  0  0  0
   27.5240   45.1510   15.2430 C   0  0  0  0  0  0  0  0  0  0  0  0
   27.0760   43.8370   15.2820 C   0  0  0  0  0  0  0  0  0  0  0  0
   26.3020   43.1920   13.8760 Cl  0  0  0  0  0  0  0  0  0  0  0  0
   28.3774   41.7825   18.5845 H   0  0  0  0  0  0  0  0  0  0  0  0
   27.1203   42.7785   19.3934 H   0  0  0  0  0  0  0  0  0  0  0  0
   30.0017   43.3328   19.2547 H   0  0  0  0  0  0  0  0  0  0  0  0
   29.1325   42.9080   20.5864 H   0  0  0  0  0  0  0  0  0  0  0  0
   29.4901   45.1989   20.7609 H   0  0  0  0  0  0  0  0  0  0  0  0
   27.7736   44.9356   20.3017 H   0  0  0  0  0  0  0  0  0  0  0  0
   30.1205   45.6674   18.4741 H   0  0  0  0  0  0  0  0  0  0  0  0
   28.6429   46.6324   18.8090 H   0  0  0  0  0  0  0  0  0  0  0  0
   28.5025   46.7224   16.3332 H   0  0  0  0  0  0  0  0  0  0  0  0
   27.3858   45.7480   14.3488 H   0  0  0  0  0  0  0  0  0  0  0  0
  1  2  1  0  0  0  0
  2  3  2  0  0  0  0
  2 11  1  0  0  0  0
  3  4  1  0  0  0  0
  3  8  1  0  0  0  0
  4  5  1  0  0  0  0
  4 13  1  0  0  0  0
  4 14  1  0  0  0  0
  5  6  1  0  0  0  0
  5 15  1  0  0  0  0
  5 16  1  0  0  0  0
  6  7  1  0  0  0  0
  6 17  1  0  0  0  0
  6 18  1  0  0  0  0
  7  8  1  0  0  0  0
  7 19  1  0  0  0  0
  7 20  1  0  0  0  0
  8  9  2  0  0  0  0
  9 10  1  0  0  0  0
  9 21  1  0  0  0  0
 10 11  2  0  0  0  0
 10 22  1  0  0  0  0
 11 12  1  0  0  0  0
M  CHG  1   5   1
M  END
