1z2b_ligand
 OpenBabel08222323343D

119127  0  0  1  0  0  0  0  0999 V2000
   95.2002   70.7647   -7.3578 H   0  0  0  0  0  0  0  0  0  0  0  0
   94.3974   71.4112   -8.8289 H   0  0  0  0  0  0  0  0  0  0  0  0
   94.9828   69.7133   -8.7979 H   0  0  0  0  0  0  0  0  0  0  0  0
   92.7570   70.8780   -7.0578 H   0  0  0  0  0  0  0  0  0  0  0  0
   93.3424   69.1800   -7.0268 H   0  0  0  0  0  0  0  0  0  0  0  0
   93.5452   68.7616   -9.7940 H   0  0  0  0  0  0  0  0  0  0  0  0
   90.4718   70.3654   -7.5904 H   0  0  0  0  0  0  0  0  0  0  0  0
   90.9133   68.6421   -7.3412 H   0  0  0  0  0  0  0  0  0  0  0  0
   92.9894   70.8906  -10.3509 H   0  0  0  0  0  0  0  0  0  0  0  0
   91.8512   71.7589   -9.2659 H   0  0  0  0  0  0  0  0  0  0  0  0
   90.6993   71.4658  -11.2984 H   0  0  0  0  0  0  0  0  0  0  0  0
   91.4953   68.5470  -11.3116 H   0  0  0  0  0  0  0  0  0  0  0  0
   92.3757   69.8573  -12.1688 H   0  0  0  0  0  0  0  0  0  0  0  0
   88.8364   69.9628  -10.6942 H   0  0  0  0  0  0  0  0  0  0  0  0
   89.3498   71.0656   -9.3725 H   0  0  0  0  0  0  0  0  0  0  0  0
   88.9265   68.8633   -8.6552 H   0  0  0  0  0  0  0  0  0  0  0  0
   90.4690   67.1065   -8.7218 H   0  0  0  0  0  0  0  0  0  0  0  0
   91.3211   67.9745  -10.0435 H   0  0  0  0  0  0  0  0  0  0  0  0
   88.7257   66.5207  -10.0622 H   0  0  0  0  0  0  0  0  0  0  0  0
   90.2539   66.1605  -10.9348 H   0  0  0  0  0  0  0  0  0  0  0  0
   87.2608   65.5064  -10.7459 H   0  0  0  0  0  0  0  0  0  0  0  0
   85.1077   64.8659  -11.7934 H   0  0  0  0  0  0  0  0  0  0  0  0
   84.4431   65.9108  -13.9270 H   0  0  0  0  0  0  0  0  0  0  0  0
   85.8651   67.6277  -14.9942 H   0  0  0  0  0  0  0  0  0  0  0  0
   88.2695   68.9529  -14.6684 H   0  0  0  0  0  0  0  0  0  0  0  0
   93.5959   66.4748  -14.8308 H   0  0  0  0  0  0  0  0  0  0  0  0
   92.9190   67.7633  -15.8834 H   0  0  0  0  0  0  0  0  0  0  0  0
   91.8814   66.3935  -15.3602 H   0  0  0  0  0  0  0  0  0  0  0  0
   88.2753   70.7693  -12.5402 H   0  0  0  0  0  0  0  0  0  0  0  0
   86.3826   71.6853  -14.1821 H   0  0  0  0  0  0  0  0  0  0  0  0
   86.8666   74.4012  -11.4514 H   0  0  0  0  0  0  0  0  0  0  0  0
   87.6308   72.7858  -11.2696 H   0  0  0  0  0  0  0  0  0  0  0  0
   84.8898   73.1261  -11.1604 H   0  0  0  0  0  0  0  0  0  0  0  0
   85.6355   71.6361  -11.8314 H   0  0  0  0  0  0  0  0  0  0  0  0
   84.8229   74.0646  -13.3233 H   0  0  0  0  0  0  0  0  0  0  0  0
   83.1412   72.3258  -13.0137 H   0  0  0  0  0  0  0  0  0  0  0  0
   84.3171   71.1956  -13.7665 H   0  0  0  0  0  0  0  0  0  0  0  0
   82.6117   72.7068  -15.2639 H   0  0  0  0  0  0  0  0  0  0  0  0
   84.2832   73.5946  -16.7947 H   0  0  0  0  0  0  0  0  0  0  0  0
   87.6735   72.0888  -16.0831 H   0  0  0  0  0  0  0  0  0  0  0  0
   87.0050   73.0807  -17.4232 H   0  0  0  0  0  0  0  0  0  0  0  0
   86.5034   70.6820  -17.7444 H   0  0  0  0  0  0  0  0  0  0  0  0
   84.9993   71.6319  -17.4950 H   0  0  0  0  0  0  0  0  0  0  0  0
   85.6678   70.6400  -16.1549 H   0  0  0  0  0  0  0  0  0  0  0  0
   87.4467   74.6837  -16.2902 H   0  0  0  0  0  0  0  0  0  0  0  0
   86.0515   75.3223  -19.8390 H   0  0  0  0  0  0  0  0  0  0  0  0
   84.8107   76.3093  -18.9948 H   0  0  0  0  0  0  0  0  0  0  0  0
   84.7229   74.5160  -18.9383 H   0  0  0  0  0  0  0  0  0  0  0  0
   87.5823   79.4074  -17.1205 H   0  0  0  0  0  0  0  0  0  0  0  0
   88.7050   78.9336  -15.8008 H   0  0  0  0  0  0  0  0  0  0  0  0
   87.1366   79.7163  -15.4081 H   0  0  0  0  0  0  0  0  0  0  0  0
   84.7834   75.9524  -14.2710 H   0  0  0  0  0  0  0  0  0  0  0  0
   88.1594   75.4096  -12.9365 H   0  0  0  0  0  0  0  0  0  0  0  0
   90.8494   75.2516  -15.0838 H   0  0  0  0  0  0  0  0  0  0  0  0
   90.3117   75.3156  -13.3711 H   0  0  0  0  0  0  0  0  0  0  0  0
   89.6374   76.4728  -14.5681 H   0  0  0  0  0  0  0  0  0  0  0  0
   91.3063   73.3082  -15.4679 H   0  0  0  0  0  0  0  0  0  0  0  0
   93.7534   71.2949  -16.1311 H   0  0  0  0  0  0  0  0  0  0  0  0
   92.9774   72.7764  -15.4758 H   0  0  0  0  0  0  0  0  0  0  0  0
   92.1288   71.7911  -16.7151 H   0  0  0  0  0  0  0  0  0  0  0  0
   94.5350   70.5200   -8.1990 C   0  0  0  0  0  0  0  0  0  0  0  0
   93.1840   70.0640   -7.6620 C   0  0  0  0  0  0  0  0  0  0  0  0
   92.1860   69.7000   -8.7540 C   0  0  1  0  0  0  0  0  0  0  0  0
   92.6970   68.5560   -9.4190 O   0  0  0  0  0  0  0  0  0  0  0  0
   90.8100   69.4440   -8.0870 C   0  0  0  0  0  0  0  0  0  0  0  0
   92.0490   70.8100   -9.7860 C   0  0  0  0  0  0  0  0  0  0  0  0
   90.9130   70.5330  -10.7560 C   0  0  1  0  0  0  0  0  0  0  0  0
   91.3910   69.5210  -11.8120 C   0  0  0  0  0  0  0  0  0  0  0  0
   89.6380   70.1930   -9.9770 C   0  0  0  0  0  0  0  0  0  0  0  0
   89.8180   69.0450   -9.0890 N   0  3  1  0  0  0  0  0  0  0  0  0
   90.3390   67.7600   -9.5970 C   0  0  0  0  0  0  0  0  0  0  0  0
   89.5650   66.9590  -10.6220 C   0  0  0  0  0  0  0  0  0  0  0  0
   88.9490   67.4680  -11.9110 C   0  0  0  0  0  0  0  0  0  0  0  0
   87.7400   66.9300  -12.2820 C   0  0  0  0  0  0  0  0  0  0  0  0
   86.9450   65.9690  -11.6740 C   0  0  0  0  0  0  0  0  0  0  0  0
   85.7470   65.6060  -12.2610 C   0  0  0  0  0  0  0  0  0  0  0  0
   85.3750   66.2020  -13.4560 C   0  0  0  0  0  0  0  0  0  0  0  0
   86.1730   67.1660  -14.0630 C   0  0  0  0  0  0  0  0  0  0  0  0
   87.3580   67.5250  -13.4650 C   0  0  0  0  0  0  0  0  0  0  0  0
   88.2900   68.3810  -13.8120 N   0  0  0  0  0  0  0  0  0  0  0  0
   89.2730   68.4100  -12.9000 C   0  0  0  0  0  0  0  0  0  0  0  0
   90.5010   69.3110  -13.0470 C   0  0  2  0  0  0  0  0  0  0  0  0
   91.1890   68.5510  -14.1680 C   0  0  0  0  0  0  0  0  0  0  0  0
   90.7070   68.5840  -15.3070 O   0  0  0  0  0  0  0  0  0  0  0  0
   92.3020   67.8130  -13.8930 O   0  0  0  0  0  0  0  0  0  0  0  0
   92.6980   67.0670  -15.0610 C   0  0  0  0  0  0  0  0  0  0  0  0
   90.1510   70.7410  -13.5700 C   0  0  0  0  0  0  0  0  0  0  0  0
   88.9500   71.3230  -13.1830 C   0  0  0  0  0  0  0  0  0  0  0  0
   88.5970   72.5930  -13.6000 C   0  0  0  0  0  0  0  0  0  0  0  0
   87.3710   73.4280  -13.3440 C   0  0  1  0  0  0  0  0  0  0  0  0
   86.2230   72.7720  -14.1220 C   0  0  1  0  0  0  0  0  0  0  0  0
   86.9340   73.3870  -11.8720 C   0  0  0  0  0  0  0  0  0  0  0  0
   85.5570   72.7280  -11.9390 C   0  0  0  0  0  0  0  0  0  0  0  0
   85.0830   73.0920  -13.2740 N   0  3  2  0  0  0  0  0  0  0  0  0
   83.9930   72.2450  -13.7050 C   0  0  0  0  0  0  0  0  0  0  0  0
   83.6550   72.7240  -14.9520 C   0  0  0  0  0  0  0  0  0  0  0  0
   84.6200   73.2310  -15.8250 C   0  0  0  0  0  0  0  0  0  0  0  0
   85.9840   73.3050  -15.5440 C   0  0  2  0  0  0  0  0  0  0  0  0
   86.7500   72.4580  -16.5530 C   0  0  0  0  0  0  0  0  0  0  0  0
   85.9230   71.2710  -17.0190 C   0  0  0  0  0  0  0  0  0  0  0  0
   86.4780   74.7560  -15.7740 C   0  0  1  0  0  0  0  0  0  0  0  0
   85.5910   75.4470  -16.5940 O   0  0  0  0  0  0  0  0  0  0  0  0
   86.1840   75.3800  -17.8010 C   0  0  0  0  0  0  0  0  0  0  0  0
   85.4010   75.3820  -18.9540 C   0  0  0  0  0  0  0  0  0  0  0  0
   87.4120   75.3000  -17.8460 O   0  0  0  0  0  0  0  0  0  0  0  0
   86.6910   75.5940  -14.5270 C   0  0  1  0  0  0  0  0  0  0  0  0
   87.0350   77.1300  -14.7670 C   0  0  0  0  0  0  0  0  0  0  0  0
   87.3290   77.8760  -13.8170 O   0  0  0  0  0  0  0  0  0  0  0  0
   87.0090   77.7070  -16.0210 O   0  0  0  0  0  0  0  0  0  0  0  0
   87.6480   79.0230  -16.0920 C   0  0  0  0  0  0  0  0  0  0  0  0
   85.4790   75.5310  -13.7800 O   0  0  0  0  0  0  0  0  0  0  0  0
   87.8090   74.8150  -13.7930 C   0  0  2  0  0  0  0  0  0  0  0  0
   88.9190   74.5030  -14.7200 N   0  0  0  0  0  0  0  0  0  0  0  0
   89.9960   75.4440  -14.4170 C   0  0  0  0  0  0  0  0  0  0  0  0
   89.4370   73.3120  -14.4300 C   0  0  0  0  0  0  0  0  0  0  0  0
   90.6400   72.7490  -14.8210 C   0  0  0  0  0  0  0  0  0  0  0  0
   91.0040   71.4830  -14.3980 C   0  0  0  0  0  0  0  0  0  0  0  0
   92.1900   70.9810  -14.8110 O   0  0  0  0  0  0  0  0  0  0  0  0
   92.7970   71.7550  -15.8420 C   0  0  0  0  0  0  0  0  0  0  0  0
 61  1  1  0  0  0  0
 61  2  1  0  0  0  0
 61  3  1  0  0  0  0
 62  4  1  0  0  0  0
 62  5  1  0  0  0  0
 62 61  1  0  0  0  0
 63 62  1  0  0  0  0
 63 64  1  6  0  0  0
 63 65  1  0  0  0  0
 64  6  1  0  0  0  0
 65  7  1  0  0  0  0
 65  8  1  0  0  0  0
 66  9  1  0  0  0  0
 66 10  1  0  0  0  0
 66 63  1  0  0  0  0
 67 11  1  6  0  0  0
 67 66  1  0  0  0  0
 67 69  1  0  0  0  0
 68 12  1  0  0  0  0
 68 13  1  0  0  0  0
 68 67  1  0  0  0  0
 69 14  1  0  0  0  0
 69 15  1  0  0  0  0
 69 70  1  0  0  0  0
 70 16  1  1  0  0  0
 70 65  1  0  0  0  0
 71 17  1  0  0  0  0
 71 18  1  0  0  0  0
 71 70  1  0  0  0  0
 72 19  1  0  0  0  0
 72 20  1  0  0  0  0
 72 71  1  0  0  0  0
 73 72  1  0  0  0  0
 73 74  1  0  0  0  0
 74 75  2  0  0  0  0
 75 21  1  0  0  0  0
 75 76  1  0  0  0  0
 76 22  1  0  0  0  0
 77 23  1  0  0  0  0
 77 76  2  0  0  0  0
 78 24  1  0  0  0  0
 78 77  1  0  0  0  0
 79 74  1  0  0  0  0
 79 78  2  0  0  0  0
 80 25  1  0  0  0  0
 80 79  1  0  0  0  0
 81 73  2  0  0  0  0
 81 80  1  0  0  0  0
 82 68  1  0  0  0  0
 82 81  1  0  0  0  0
 82 83  1  6  0  0  0
 83 84  2  0  0  0  0
 83 85  1  0  0  0  0
 85 86  1  0  0  0  0
 86 26  1  0  0  0  0
 86 27  1  0  0  0  0
 86 28  1  0  0  0  0
 87 82  1  0  0  0  0
 87 88  2  0  0  0  0
 88 29  1  0  0  0  0
 88 89  1  0  0  0  0
 90 89  1  6  0  0  0
 90 91  1  0  0  0  0
 90 92  1  0  0  0  0
 91 30  1  6  0  0  0
 91 94  1  0  0  0  0
 91 98  1  0  0  0  0
 92 31  1  0  0  0  0
 92 32  1  0  0  0  0
 92 93  1  0  0  0  0
 93 33  1  0  0  0  0
 93 34  1  0  0  0  0
 93 94  1  0  0  0  0
 94 35  1  6  0  0  0
 94 95  1  0  0  0  0
 95 36  1  0  0  0  0
 95 37  1  0  0  0  0
 95 96  1  0  0  0  0
 96 38  1  0  0  0  0
 97 39  1  0  0  0  0
 97 96  2  0  0  0  0
 98 97  1  0  0  0  0
 98 99  1  6  0  0  0
 99 40  1  0  0  0  0
 99 41  1  0  0  0  0
 99100  1  0  0  0  0
100 42  1  0  0  0  0
100 43  1  0  0  0  0
100 44  1  0  0  0  0
101 45  1  6  0  0  0
101 98  1  0  0  0  0
101102  1  0  0  0  0
102103  1  0  0  0  0
103104  1  0  0  0  0
103105  2  0  0  0  0
104 46  1  0  0  0  0
104 47  1  0  0  0  0
104 48  1  0  0  0  0
106101  1  0  0  0  0
106107  1  6  0  0  0
106111  1  0  0  0  0
107108  2  0  0  0  0
107109  1  0  0  0  0
109110  1  0  0  0  0
110 49  1  0  0  0  0
110 50  1  0  0  0  0
110 51  1  0  0  0  0
111 52  1  0  0  0  0
112 53  1  1  0  0  0
112 90  1  0  0  0  0
112106  1  0  0  0  0
113112  1  0  0  0  0
113114  1  0  0  0  0
114 54  1  0  0  0  0
114 55  1  0  0  0  0
114 56  1  0  0  0  0
115 89  2  0  0  0  0
115113  1  0  0  0  0
116 57  1  0  0  0  0
116115  1  0  0  0  0
117 87  1  0  0  0  0
117116  2  0  0  0  0
118117  1  0  0  0  0
118119  1  0  0  0  0
119 58  1  0  0  0  0
119 59  1  0  0  0  0
119 60  1  0  0  0  0
M  CHG  2  70   1  94   1
M  END
