1z3t_ligand
 OpenBabel08222323343D

 45 46  0  0  1  0  0  0  0  0999 V2000
    3.0130   10.7670   23.6450 C   0  0  1  0  0  0  0  0  0  0  0  0
    4.2470    9.8970   23.2410 C   0  0  1  0  0  0  0  0  0  0  0  0
    4.2060    8.6560   24.1070 C   0  0  2  0  0  0  0  0  0  0  0  0
    4.0640    9.0070   25.5540 C   0  0  1  0  0  0  0  0  0  0  0  0
    2.8220    9.8650   25.7890 C   0  0  1  0  0  0  0  0  0  0  0  0
    2.6210   10.2410   27.2480 C   0  0  0  0  0  0  0  0  0  0  0  0
    4.3390    9.5460   21.8170 O   0  0  0  0  0  0  0  0  0  0  0  0
    5.3420    7.7740   23.9190 O   0  0  0  0  0  0  0  0  0  0  0  0
    3.9450    7.7710   26.2830 O   0  0  0  0  0  0  0  0  0  0  0  0
    3.0240   11.0590   25.0590 O   0  0  0  0  0  0  0  0  0  0  0  0
    3.7610   10.8780   27.7330 O   0  0  0  0  0  0  0  0  0  0  0  0
    0.7070   15.1070   21.7890 C   0  0  2  0  0  0  0  0  0  0  0  0
    0.9420   15.0460   23.2800 C   0  0  1  0  0  0  0  0  0  0  0  0
    2.0910   14.1440   23.5860 C   0  0  2  0  0  0  0  0  0  0  0  0
    1.8880   12.7720   22.8890 C   0  0  1  0  0  0  0  0  0  0  0  0
    1.6550   12.9800   21.4230 C   0  0  1  0  0  0  0  0  0  0  0  0
    1.3560   11.6520   20.7220 C   0  0  0  0  0  0  0  0  0  0  0  0
   -0.4770   15.8680   21.6060 O   0  0  0  0  0  0  0  0  0  0  0  0
    1.3540   16.3480   23.6860 O   0  0  0  0  0  0  0  0  0  0  0  0
    2.1700   13.9510   24.9750 O   0  0  0  0  0  0  0  0  0  0  0  0
    3.0560   11.9980   23.0030 O   0  0  0  0  0  0  0  0  0  0  0  0
    0.5240   13.8130   21.2330 O   0  0  0  0  0  0  0  0  0  0  0  0
    0.4290   10.8570   21.4560 O   0  0  0  0  0  0  0  0  0  0  0  0
    2.0903   10.2312   23.3774 H   0  0  0  0  0  0  0  0  0  0  0  0
    5.1542   10.4680   23.4880 H   0  0  0  0  0  0  0  0  0  0  0  0
    3.3082    8.0926   23.8129 H   0  0  0  0  0  0  0  0  0  0  0  0
    4.9542    9.5580   25.8914 H   0  0  0  0  0  0  0  0  0  0  0  0
    1.9311    9.3324   25.4249 H   0  0  0  0  0  0  0  0  0  0  0  0
    2.4328    9.3312   27.8369 H   0  0  0  0  0  0  0  0  0  0  0  0
    1.7591   10.9189   27.3349 H   0  0  0  0  0  0  0  0  0  0  0  0
    4.3631   10.3407   21.2970 H   0  0  0  0  0  0  0  0  0  0  0  0
    5.2110    6.9791   24.4224 H   0  0  0  0  0  0  0  0  0  0  0  0
    4.7192    7.2410   26.1340 H   0  0  0  0  0  0  0  0  0  0  0  0
    3.9233   11.6642   27.2251 H   0  0  0  0  0  0  0  0  0  0  0  0
    1.5586   15.5978   21.2952 H   0  0  0  0  0  0  0  0  0  0  0  0
    0.0327   14.7220   23.8075 H   0  0  0  0  0  0  0  0  0  0  0  0
    3.0229   14.6033   23.2245 H   0  0  0  0  0  0  0  0  0  0  0  0
    1.0347   12.2469   23.3429 H   0  0  0  0  0  0  0  0  0  0  0  0
    2.5459   13.4453   20.9759 H   0  0  0  0  0  0  0  0  0  0  0  0
    2.2951   11.0901   20.6104 H   0  0  0  0  0  0  0  0  0  0  0  0
    0.9342   11.8623   19.7281 H   0  0  0  0  0  0  0  0  0  0  0  0
   -0.3561   16.7340   21.9775 H   0  0  0  0  0  0  0  0  0  0  0  0
    0.6555   16.9682   23.5131 H   0  0  0  0  0  0  0  0  0  0  0  0
    2.9038   13.3810   25.1732 H   0  0  0  0  0  0  0  0  0  0  0  0
    0.2709   10.0448   20.9892 H   0  0  0  0  0  0  0  0  0  0  0  0
  1  2  1  0  0  0  0
  1 10  1  0  0  0  0
  1 24  1  6  0  0  0
  2  3  1  0  0  0  0
  2  7  1  0  0  0  0
  2 25  1  1  0  0  0
  3  4  1  0  0  0  0
  3  8  1  0  0  0  0
  3 26  1  6  0  0  0
  4  9  1  0  0  0  0
  4 27  1  1  0  0  0
  5  4  1  0  0  0  0
  5  6  1  0  0  0  0
  5 28  1  6  0  0  0
  6 11  1  0  0  0  0
  6 29  1  0  0  0  0
  6 30  1  0  0  0  0
  7 31  1  0  0  0  0
  8 32  1  0  0  0  0
  9 33  1  0  0  0  0
 10  5  1  0  0  0  0
 11 34  1  0  0  0  0
 12 18  1  0  0  0  0
 12 22  1  0  0  0  0
 12 35  1  6  0  0  0
 13 12  1  0  0  0  0
 13 19  1  0  0  0  0
 13 36  1  1  0  0  0
 14 13  1  0  0  0  0
 14 20  1  0  0  0  0
 14 37  1  6  0  0  0
 15 14  1  0  0  0  0
 15 16  1  0  0  0  0
 15 21  1  0  0  0  0
 15 38  1  1  0  0  0
 16 17  1  0  0  0  0
 16 22  1  0  0  0  0
 16 39  1  6  0  0  0
 17 23  1  0  0  0  0
 17 40  1  0  0  0  0
 17 41  1  0  0  0  0
 18 42  1  0  0  0  0
 19 43  1  0  0  0  0
 20 44  1  0  0  0  0
 21  1  1  0  0  0  0
 23 45  1  0  0  0  0
M  END
