1z6f_ligand
 OpenBabel08222323343D

 81 81  0  0  1  0  0  0  0  0999 V2000
   50.5290    7.9210   32.8920 O   0  0  0  0  0  0  0  0  0  0  0  0
   49.6190    8.3030   33.6150 C   0  0  0  0  0  0  0  0  0  0  0  0
   49.8660    9.4050   34.5530 O   0  0  0  0  0  0  0  0  0  0  0  0
   50.6820   10.5630   34.2990 C   0  0  0  0  0  0  0  0  0  0  0  0
   50.2610   11.2330   32.9940 C   0  0  0  0  0  0  0  0  0  0  0  0
   50.4650   11.5430   35.4470 C   0  0  0  0  0  0  0  0  0  0  0  0
   52.1610   10.1880   34.2260 C   0  0  0  0  0  0  0  0  0  0  0  0
   48.4240    7.7060   33.5630 N   0  0  0  0  0  0  0  0  0  0  0  0
   47.2680    8.0830   34.3770 C   0  0  2  0  0  0  0  0  0  0  0  0
   47.5380    7.9650   35.8840 C   0  0  0  0  0  0  0  0  0  0  0  0
   47.8050    6.8440   36.3800 O   0  5  0  0  0  0  0  0  0  0  0  0
   47.4910    9.0090   36.5760 O   0  0  0  0  0  0  0  0  0  0  0  0
   46.1140    7.1580   33.9580 C   0  0  0  0  0  0  0  0  0  0  0  0
   46.1090    6.8440   32.4610 C   0  0  0  0  0  0  0  0  0  0  0  0
   44.7340    6.7940   31.8190 C   0  0  0  0  0  0  0  0  0  0  0  0
   44.3620    5.7700   31.2560 O   0  0  0  0  0  0  0  0  0  0  0  0
   43.9820    7.8970   31.8700 N   0  0  0  0  0  0  0  0  0  0  0  0
   42.6660    7.9680   31.2440 C   0  0  2  0  0  0  0  0  0  0  0  0
   42.8980    8.4860   29.8470 C   0  0  0  0  0  0  0  0  0  0  0  0
   43.5670    9.4990   29.6700 O   0  0  0  0  0  0  0  0  0  0  0  0
   42.4130    7.7700   28.8280 N   0  0  0  0  0  0  0  0  0  0  0  0
   42.6230    8.2050   27.4490 C   0  0  2  0  0  0  0  0  0  0  0  0
   41.2890    8.6660   26.8640 C   0  0  0  0  0  0  0  0  0  0  0  0
   43.2480    6.9960   26.5980 B   0  0  0  0  0  0  0  0  0  0  0  0
   44.6600    6.6510   27.1080 O   0  0  0  0  0  0  0  0  0  0  0  0
   42.3690    5.7460   26.6750 O   0  0  0  0  0  0  0  0  0  0  0  0
   41.9120    8.9960   32.0810 C   0  0  0  0  0  0  0  0  0  0  0  0
   40.4110    8.7790   32.1820 C   0  0  0  0  0  0  0  0  0  0  0  0
   39.8550    9.7290   33.2470 C   0  0  0  0  0  0  0  0  0  0  0  0
   39.3700    8.9940   34.4990 C   0  0  0  0  0  0  0  0  0  0  0  0
   40.2180    9.3850   35.6190 N   0  0  0  0  0  0  0  0  0  0  0  0
   39.9930   10.2740   36.5960 C   0  0  0  0  0  0  0  0  0  0  0  0
   40.8190   10.4730   37.4770 O   0  0  0  0  0  0  0  0  0  0  0  0
   38.7540   11.0480   36.6480 O   0  0  0  0  0  0  0  0  0  0  0  0
   38.5810   12.2080   35.8280 C   0  0  0  0  0  0  0  0  0  0  0  0
   37.8760   13.3220   36.5690 C   0  0  0  0  0  0  0  0  0  0  0  0
   38.1680   14.6500   36.2550 C   0  0  0  0  0  0  0  0  0  0  0  0
   37.5290   15.6920   36.9280 C   0  0  0  0  0  0  0  0  0  0  0  0
   36.5870   15.4050   37.9170 C   0  0  0  0  0  0  0  0  0  0  0  0
   36.2900   14.0780   38.2330 C   0  0  0  0  0  0  0  0  0  0  0  0
   36.9340   13.0370   37.5600 C   0  0  0  0  0  0  0  0  0  0  0  0
   50.8931   12.1151   32.8142 H   0  0  0  0  0  0  0  0  0  0  0  0
   49.2084   11.5445   33.0647 H   0  0  0  0  0  0  0  0  0  0  0  0
   50.3781   10.5224   32.1626 H   0  0  0  0  0  0  0  0  0  0  0  0
   51.0770   12.4421   35.2822 H   0  0  0  0  0  0  0  0  0  0  0  0
   50.7587   11.0683   36.3948 H   0  0  0  0  0  0  0  0  0  0  0  0
   49.4029   11.8256   35.4921 H   0  0  0  0  0  0  0  0  0  0  0  0
   52.7589   11.0906   34.0314 H   0  0  0  0  0  0  0  0  0  0  0  0
   52.3159    9.4633   33.4131 H   0  0  0  0  0  0  0  0  0  0  0  0
   52.4733    9.7402   35.1809 H   0  0  0  0  0  0  0  0  0  0  0  0
   48.3121    6.9470   32.9215 H   0  0  0  0  0  0  0  0  0  0  0  0
   46.9993    9.1266   34.1563 H   0  0  0  0  0  0  0  0  0  0  0  0
   45.1627    7.6462   34.2163 H   0  0  0  0  0  0  0  0  0  0  0  0
   46.2038    6.2128   34.5135 H   0  0  0  0  0  0  0  0  0  0  0  0
   46.5886    5.8647   32.3164 H   0  0  0  0  0  0  0  0  0  0  0  0
   46.6968    7.6194   31.9480 H   0  0  0  0  0  0  0  0  0  0  0  0
   44.3323    8.6997   32.3527 H   0  0  0  0  0  0  0  0  0  0  0  0
   42.1497    6.9968   31.2302 H   0  0  0  0  0  0  0  0  0  0  0  0
   41.9023    6.9299   29.0108 H   0  0  0  0  0  0  0  0  0  0  0  0
   43.3282    9.0492   27.4373 H   0  0  0  0  0  0  0  0  0  0  0  0
   40.8894    9.4930   27.4693 H   0  0  0  0  0  0  0  0  0  0  0  0
   40.5761    7.8283   26.8717 H   0  0  0  0  0  0  0  0  0  0  0  0
   41.4409    9.0087   25.8299 H   0  0  0  0  0  0  0  0  0  0  0  0
   45.0318    5.9643   26.5671 H   0  0  0  0  0  0  0  0  0  0  0  0
   42.3204    5.4495   27.5762 H   0  0  0  0  0  0  0  0  0  0  0  0
   42.0825    9.9873   31.6357 H   0  0  0  0  0  0  0  0  0  0  0  0
   42.3273    8.9751   33.0994 H   0  0  0  0  0  0  0  0  0  0  0  0
   40.2048    7.7374   32.4695 H   0  0  0  0  0  0  0  0  0  0  0  0
   39.9388    8.9919   31.2116 H   0  0  0  0  0  0  0  0  0  0  0  0
   39.0095   10.2850   32.8157 H   0  0  0  0  0  0  0  0  0  0  0  0
   40.6475   10.4342   33.5378 H   0  0  0  0  0  0  0  0  0  0  0  0
   39.4391    7.9074   34.3422 H   0  0  0  0  0  0  0  0  0  0  0  0
   38.3259    9.2684   34.7100 H   0  0  0  0  0  0  0  0  0  0  0  0
   41.1016    8.9189   35.6649 H   0  0  0  0  0  0  0  0  0  0  0  0
   37.9838   11.9341   34.9458 H   0  0  0  0  0  0  0  0  0  0  0  0
   39.5697   12.5658   35.5049 H   0  0  0  0  0  0  0  0  0  0  0  0
   38.8958   14.8735   35.4834 H   0  0  0  0  0  0  0  0  0  0  0  0
   37.7636   16.7216   36.6833 H   0  0  0  0  0  0  0  0  0  0  0  0
   36.0862   16.2120   38.4395 H   0  0  0  0  0  0  0  0  0  0  0  0
   35.5587   13.8552   39.0016 H   0  0  0  0  0  0  0  0  0  0  0  0
   36.7025   12.0072   37.8071 H   0  0  0  0  0  0  0  0  0  0  0  0
  1  2  2  0  0  0  0
  2  3  1  0  0  0  0
  2  8  1  0  0  0  0
  3  4  1  0  0  0  0
  4  5  1  0  0  0  0
  4  6  1  0  0  0  0
  4  7  1  0  0  0  0
  5 42  1  0  0  0  0
  5 43  1  0  0  0  0
  5 44  1  0  0  0  0
  6 45  1  0  0  0  0
  6 46  1  0  0  0  0
  6 47  1  0  0  0  0
  7 48  1  0  0  0  0
  7 49  1  0  0  0  0
  7 50  1  0  0  0  0
  8  9  1  0  0  0  0
  8 51  1  0  0  0  0
  9 10  1  0  0  0  0
  9 13  1  0  0  0  0
  9 52  1  6  0  0  0
 10 11  1  0  0  0  0
 10 12  2  0  0  0  0
 13 14  1  0  0  0  0
 13 53  1  0  0  0  0
 13 54  1  0  0  0  0
 14 15  1  0  0  0  0
 14 55  1  0  0  0  0
 14 56  1  0  0  0  0
 15 16  2  0  0  0  0
 15 17  1  0  0  0  0
 17 18  1  0  0  0  0
 17 57  1  0  0  0  0
 18 19  1  0  0  0  0
 18 27  1  0  0  0  0
 18 58  1  6  0  0  0
 19 20  2  0  0  0  0
 19 21  1  0  0  0  0
 21 22  1  0  0  0  0
 21 59  1  0  0  0  0
 22 23  1  0  0  0  0
 22 24  1  0  0  0  0
 22 60  1  6  0  0  0
 23 61  1  0  0  0  0
 23 62  1  0  0  0  0
 23 63  1  0  0  0  0
 24 25  1  0  0  0  0
 24 26  1  0  0  0  0
 25 64  1  0  0  0  0
 26 65  1  0  0  0  0
 27 28  1  0  0  0  0
 27 66  1  0  0  0  0
 27 67  1  0  0  0  0
 28 29  1  0  0  0  0
 28 68  1  0  0  0  0
 28 69  1  0  0  0  0
 29 30  1  0  0  0  0
 29 70  1  0  0  0  0
 29 71  1  0  0  0  0
 30 31  1  0  0  0  0
 30 72  1  0  0  0  0
 30 73  1  0  0  0  0
 31 32  1  0  0  0  0
 31 74  1  0  0  0  0
 32 33  2  0  0  0  0
 32 34  1  0  0  0  0
 34 35  1  0  0  0  0
 35 36  1  0  0  0  0
 35 75  1  0  0  0  0
 35 76  1  0  0  0  0
 36 37  2  0  0  0  0
 36 41  1  0  0  0  0
 37 38  1  0  0  0  0
 37 77  1  0  0  0  0
 38 39  2  0  0  0  0
 38 78  1  0  0  0  0
 39 40  1  0  0  0  0
 39 79  1  0  0  0  0
 40 41  2  0  0  0  0
 40 80  1  0  0  0  0
 41 81  1  0  0  0  0
M  CHG  1  11  -1
M  END
