1zaf_ligand
 OpenBabel08222323343D

 28 30  0  0  0  0  0  0  0  0999 V2000
   33.4620   36.3160   35.9540 C   0  0  0  0  0  0  0  0  0  0  0  0
   32.8160   35.6350   37.0420 C   0  0  0  0  0  0  0  0  0  0  0  0
   31.5420   36.1300   37.4560 C   0  0  0  0  0  0  0  0  0  0  0  0
   30.9330   37.2250   36.8510 C   0  0  0  0  0  0  0  0  0  0  0  0
   31.5830   37.9080   35.7580 C   0  0  0  0  0  0  0  0  0  0  0  0
   32.8600   37.4450   35.3080 C   0  0  0  0  0  0  0  0  0  0  0  0
   30.6610   35.7020   38.4680 C   0  0  0  0  0  0  0  0  0  0  0  0
   29.4350   36.5800   38.4850 C   0  0  0  0  0  0  0  0  0  0  0  0
   29.6390   37.5550   37.4390 C   0  0  0  0  0  0  0  0  0  0  0  0
   28.2420   36.4590   39.4200 C   0  0  0  0  0  0  0  0  0  0  0  0
   26.9150   36.7450   38.9340 C   0  0  0  0  0  0  0  0  0  0  0  0
   25.7710   36.6530   39.7820 C   0  0  0  0  0  0  0  0  0  0  0  0
   25.9560   36.2660   41.1380 C   0  0  0  0  0  0  0  0  0  0  0  0
   27.2570   35.9680   41.6570 C   0  0  0  0  0  0  0  0  0  0  0  0
   28.4020   36.0650   40.7970 C   0  0  0  0  0  0  0  0  0  0  0  0
   24.8490   36.1830   41.9420 O   0  0  0  0  0  0  0  0  0  0  0  0
   30.8640   34.7500   39.2200 O   0  0  0  0  0  0  0  0  0  0  0  0
   34.6920   35.8860   35.5140 O   0  0  0  0  0  0  0  0  0  0  0  0
   28.5450   38.9880   36.8620 Br  0  0  0  0  0  0  0  0  0  0  0  0
   33.2760   34.7820   37.5277 H   0  0  0  0  0  0  0  0  0  0  0  0
   31.1099   38.7605   35.2843 H   0  0  0  0  0  0  0  0  0  0  0  0
   33.3660   37.9422   34.4884 H   0  0  0  0  0  0  0  0  0  0  0  0
   26.7831   37.0372   37.8985 H   0  0  0  0  0  0  0  0  0  0  0  0
   24.7807   36.8737   39.4003 H   0  0  0  0  0  0  0  0  0  0  0  0
   27.3763   35.6711   42.6927 H   0  0  0  0  0  0  0  0  0  0  0  0
   29.3895   35.8414   41.1842 H   0  0  0  0  0  0  0  0  0  0  0  0
   24.7629   35.2955   42.2699 H   0  0  0  0  0  0  0  0  0  0  0  0
   35.3250   36.5876   35.6115 H   0  0  0  0  0  0  0  0  0  0  0  0
  1  2  2  0  0  0  0
  1  6  1  0  0  0  0
  1 18  1  0  0  0  0
  2  3  1  0  0  0  0
  2 20  1  0  0  0  0
  3  4  2  0  0  0  0
  3  7  1  0  0  0  0
  4  5  1  0  0  0  0
  4  9  1  0  0  0  0
  5  6  2  0  0  0  0
  5 21  1  0  0  0  0
  6 22  1  0  0  0  0
  7  8  1  0  0  0  0
  7 17  2  0  0  0  0
  8  9  2  0  0  0  0
  8 10  1  0  0  0  0
  9 19  1  0  0  0  0
 10 11  2  0  0  0  0
 10 15  1  0  0  0  0
 11 12  1  0  0  0  0
 11 23  1  0  0  0  0
 12 13  2  0  0  0  0
 12 24  1  0  0  0  0
 13 14  1  0  0  0  0
 13 16  1  0  0  0  0
 14 15  2  0  0  0  0
 14 25  1  0  0  0  0
 15 26  1  0  0  0  0
 16 27  1  0  0  0  0
 18 28  1  0  0  0  0
M  END
