1zd2_ligand
 OpenBabel08222323343D

 29 29  0  0  0  0  0  0  0  0999 V2000
  -18.0030   -9.6450   67.3740 C   0  0  0  0  0  0  0  0  0  0  0  0
  -18.1280   -9.0860   65.9770 N   0  0  0  0  0  0  0  0  0  0  0  0
  -17.3100   -8.1030   65.3770 C   0  0  0  0  0  0  0  0  0  0  0  0
  -17.6550   -7.7520   64.0600 N   0  0  0  0  0  0  0  0  0  0  0  0
  -16.9280   -6.7180   63.2580 C   0  0  0  0  0  0  0  0  0  0  0  0
  -17.5550   -6.6490   61.8440 C   0  0  0  0  0  0  0  0  0  0  0  0
  -17.1850   -5.5580   61.1550 O   0  5  0  0  0  0  0  0  0  0  0  0
  -16.3860   -7.5550   65.9610 O   0  0  0  0  0  0  0  0  0  0  0  0
  -18.2950   -7.4810   61.3710 O   0  0  0  0  0  0  0  0  0  0  0  0
  -18.5360  -11.1100   67.4220 C   0  0  0  0  0  0  0  0  0  0  0  0
  -18.4280  -11.7340   68.8430 C   0  0  0  0  0  0  0  0  0  0  0  0
  -16.9710  -11.6530   69.3890 C   0  0  0  0  0  0  0  0  0  0  0  0
  -16.4270  -10.1930   69.3300 C   0  0  0  0  0  0  0  0  0  0  0  0
  -16.5360   -9.6100   67.8950 C   0  0  0  0  0  0  0  0  0  0  0  0
  -18.6191   -9.0266   68.0433 H   0  0  0  0  0  0  0  0  0  0  0  0
  -18.8705   -9.4513   65.4155 H   0  0  0  0  0  0  0  0  0  0  0  0
  -18.4300   -8.2196   63.6349 H   0  0  0  0  0  0  0  0  0  0  0  0
  -15.8657   -6.9921   63.1780 H   0  0  0  0  0  0  0  0  0  0  0  0
  -17.0179   -5.7383   63.7501 H   0  0  0  0  0  0  0  0  0  0  0  0
  -17.9492  -11.7226   66.7217 H   0  0  0  0  0  0  0  0  0  0  0  0
  -19.5922  -11.1119   67.1147 H   0  0  0  0  0  0  0  0  0  0  0  0
  -18.7342  -12.7894   68.7949 H   0  0  0  0  0  0  0  0  0  0  0  0
  -19.0968  -11.1889   69.5253 H   0  0  0  0  0  0  0  0  0  0  0  0
  -16.3234  -12.3019   68.7811 H   0  0  0  0  0  0  0  0  0  0  0  0
  -16.9595  -11.9982   70.4334 H   0  0  0  0  0  0  0  0  0  0  0  0
  -15.3712  -10.1908   69.6387 H   0  0  0  0  0  0  0  0  0  0  0  0
  -17.0115   -9.5644   70.0179 H   0  0  0  0  0  0  0  0  0  0  0  0
  -16.1852   -8.5675   67.9053 H   0  0  0  0  0  0  0  0  0  0  0  0
  -15.9026  -10.2034   67.2192 H   0  0  0  0  0  0  0  0  0  0  0  0
  1  2  1  0  0  0  0
  1 10  1  0  0  0  0
  1 14  1  0  0  0  0
  1 15  1  0  0  0  0
  2  3  1  0  0  0  0
  2 16  1  0  0  0  0
  3  4  1  0  0  0  0
  3  8  2  0  0  0  0
  4  5  1  0  0  0  0
  4 17  1  0  0  0  0
  5  6  1  0  0  0  0
  5 18  1  0  0  0  0
  5 19  1  0  0  0  0
  6  7  1  0  0  0  0
  6  9  2  0  0  0  0
 10 11  1  0  0  0  0
 10 20  1  0  0  0  0
 10 21  1  0  0  0  0
 11 12  1  0  0  0  0
 11 22  1  0  0  0  0
 11 23  1  0  0  0  0
 12 13  1  0  0  0  0
 12 24  1  0  0  0  0
 12 25  1  0  0  0  0
 13 14  1  0  0  0  0
 13 26  1  0  0  0  0
 13 27  1  0  0  0  0
 14 28  1  0  0  0  0
 14 29  1  0  0  0  0
M  CHG  1   7  -1
M  END
