1zeo_ligand
 OpenBabel08222323343D

 61 63  0  0  1  0  0  0  0  0999 V2000
   21.3430    6.1890   14.8940 C   0  0  0  0  0  0  0  0  0  0  0  0
   21.3070    7.0550   16.0460 C   0  0  0  0  0  0  0  0  0  0  0  0
   21.9410    8.3830   15.9580 C   0  0  0  0  0  0  0  0  0  0  0  0
   22.5680    8.7370   14.6910 C   0  0  0  0  0  0  0  0  0  0  0  0
   22.5670    7.8480   13.6040 C   0  0  0  0  0  0  0  0  0  0  0  0
   21.9860    6.5990   13.6840 C   0  0  0  0  0  0  0  0  0  0  0  0
   23.2480    9.9190   14.3110 O   0  0  0  0  0  0  0  0  0  0  0  0
   23.6510    9.6700   12.9390 N   0  0  0  0  0  0  0  0  0  0  0  0
   23.2820    8.4460   12.4820 C   0  0  0  0  0  0  0  0  0  0  0  0
   24.4030   10.6080   12.0960 C   0  0  0  0  0  0  0  0  0  0  0  0
   23.4970    7.9900   11.3540 O   0  0  0  0  0  0  0  0  0  0  0  0
   21.9780    9.3750   17.1350 C   0  0  0  0  0  0  0  0  0  0  0  0
   20.7540   10.2820   17.3190 C   0  0  0  0  0  0  0  0  0  0  0  0
   20.9100   11.1900   18.5310 C   0  0  0  0  0  0  0  0  0  0  0  0
   20.7370    4.8170   14.8990 C   0  0  0  0  0  0  0  0  0  0  0  0
   19.6800    4.6890   13.8080 C   0  0  0  0  0  0  0  0  0  0  0  0
   19.0930    3.2910   13.7840 C   0  0  0  0  0  0  0  0  0  0  0  0
   20.6650    6.5880   17.2540 O   0  0  0  0  0  0  0  0  0  0  0  0
   19.3930    7.1510   17.6720 C   0  0  1  0  0  0  0  0  0  0  0  0
   18.2420    6.5980   16.8450 C   0  0  0  0  0  0  0  0  0  0  0  0
   19.1490    6.9320   19.2070 C   0  0  0  0  0  0  0  0  0  0  0  0
   17.5740    7.4790   15.9720 C   0  0  0  0  0  0  0  0  0  0  0  0
   16.5110    7.0470   15.1610 C   0  0  0  0  0  0  0  0  0  0  0  0
   16.0550    5.7120   15.1910 C   0  0  0  0  0  0  0  0  0  0  0  0
   16.7210    4.7930   16.0770 C   0  0  0  0  0  0  0  0  0  0  0  0
   17.8040    5.2270   16.9060 C   0  0  0  0  0  0  0  0  0  0  0  0
   14.8870    5.3210   14.2770 C   0  0  0  0  0  0  0  0  0  0  0  0
   15.3640    4.6130   13.0080 C   0  0  0  0  0  0  0  0  0  0  0  0
   13.8470    4.4720   15.0330 C   0  0  0  0  0  0  0  0  0  0  0  0
   18.0930    7.0170   19.7520 O   0  5  0  0  0  0  0  0  0  0  0  0
   20.2780    6.6580   19.8770 O   0  0  0  0  0  0  0  0  0  0  0  0
   22.0168    5.9300   12.8316 H   0  0  0  0  0  0  0  0  0  0  0  0
   24.5692   10.1587   11.1058 H   0  0  0  0  0  0  0  0  0  0  0  0
   25.3728   10.8274   12.5665 H   0  0  0  0  0  0  0  0  0  0  0  0
   23.8304   11.5405   11.9841 H   0  0  0  0  0  0  0  0  0  0  0  0
   22.8544   10.0246   16.9943 H   0  0  0  0  0  0  0  0  0  0  0  0
   22.0996    8.7900   18.0586 H   0  0  0  0  0  0  0  0  0  0  0  0
   19.8611    9.6542   17.4552 H   0  0  0  0  0  0  0  0  0  0  0  0
   20.6314   10.9038   16.4199 H   0  0  0  0  0  0  0  0  0  0  0  0
   20.0167   11.8240   18.6315 H   0  0  0  0  0  0  0  0  0  0  0  0
   21.7981   11.8259   18.4009 H   0  0  0  0  0  0  0  0  0  0  0  0
   21.0278   10.5763   19.4362 H   0  0  0  0  0  0  0  0  0  0  0  0
   20.2696    4.6326   15.8775 H   0  0  0  0  0  0  0  0  0  0  0  0
   21.5278    4.0726   14.7242 H   0  0  0  0  0  0  0  0  0  0  0  0
   20.1416    4.9024   12.8326 H   0  0  0  0  0  0  0  0  0  0  0  0
   18.8753    5.4141   13.9994 H   0  0  0  0  0  0  0  0  0  0  0  0
   18.3347    3.2253   12.9898 H   0  0  0  0  0  0  0  0  0  0  0  0
   18.6261    3.0726   14.7557 H   0  0  0  0  0  0  0  0  0  0  0  0
   19.8923    2.5610   13.5889 H   0  0  0  0  0  0  0  0  0  0  0  0
   19.4368    8.2357   17.4948 H   0  0  0  0  0  0  0  0  0  0  0  0
   17.8877    8.5155   15.9247 H   0  0  0  0  0  0  0  0  0  0  0  0
   16.0300    7.7559   14.4968 H   0  0  0  0  0  0  0  0  0  0  0  0
   16.3980    3.7590   16.1167 H   0  0  0  0  0  0  0  0  0  0  0  0
   18.2918    4.5281   17.5759 H   0  0  0  0  0  0  0  0  0  0  0  0
   14.3897    6.2513   13.9653 H   0  0  0  0  0  0  0  0  0  0  0  0
   14.4956    4.3523   12.3852 H   0  0  0  0  0  0  0  0  0  0  0  0
   15.9073    3.6965   13.2816 H   0  0  0  0  0  0  0  0  0  0  0  0
   16.0320    5.2810   12.4445 H   0  0  0  0  0  0  0  0  0  0  0  0
   13.5248    5.0074   15.9383 H   0  0  0  0  0  0  0  0  0  0  0  0
   14.2964    3.5090   15.3170 H   0  0  0  0  0  0  0  0  0  0  0  0
   12.9773    4.2935   14.3835 H   0  0  0  0  0  0  0  0  0  0  0  0
  1  2  2  0  0  0  0
  1  6  1  0  0  0  0
  1 15  1  0  0  0  0
  2  3  1  0  0  0  0
  2 18  1  0  0  0  0
  3  4  2  0  0  0  0
  3 12  1  0  0  0  0
  4  5  1  0  0  0  0
  4  7  1  0  0  0  0
  5  6  2  0  0  0  0
  5  9  1  0  0  0  0
  6 32  1  0  0  0  0
  7  8  1  0  0  0  0
  8  9  1  0  0  0  0
  8 10  1  0  0  0  0
  9 11  2  0  0  0  0
 10 33  1  0  0  0  0
 10 34  1  0  0  0  0
 10 35  1  0  0  0  0
 12 13  1  0  0  0  0
 12 36  1  0  0  0  0
 12 37  1  0  0  0  0
 13 14  1  0  0  0  0
 13 38  1  0  0  0  0
 13 39  1  0  0  0  0
 14 40  1  0  0  0  0
 14 41  1  0  0  0  0
 14 42  1  0  0  0  0
 15 16  1  0  0  0  0
 15 43  1  0  0  0  0
 15 44  1  0  0  0  0
 16 17  1  0  0  0  0
 16 45  1  0  0  0  0
 16 46  1  0  0  0  0
 17 47  1  0  0  0  0
 17 48  1  0  0  0  0
 17 49  1  0  0  0  0
 18 19  1  0  0  0  0
 19 20  1  0  0  0  0
 19 21  1  0  0  0  0
 19 50  1  6  0  0  0
 20 22  2  0  0  0  0
 20 26  1  0  0  0  0
 21 30  1  0  0  0  0
 21 31  2  0  0  0  0
 22 23  1  0  0  0  0
 22 51  1  0  0  0  0
 23 24  2  0  0  0  0
 23 52  1  0  0  0  0
 24 25  1  0  0  0  0
 24 27  1  0  0  0  0
 25 26  2  0  0  0  0
 25 53  1  0  0  0  0
 26 54  1  0  0  0  0
 27 28  1  0  0  0  0
 27 29  1  0  0  0  0
 27 55  1  0  0  0  0
 28 56  1  0  0  0  0
 28 57  1  0  0  0  0
 28 58  1  0  0  0  0
 29 59  1  0  0  0  0
 29 60  1  0  0  0  0
 29 61  1  0  0  0  0
M  CHG  1  30  -1
M  END
