1zfp_ligand
 OpenBabel08222323343D

107108  0  0  1  0  0  0  0  0999 V2000
   30.1940   31.7110   79.6200 C   0  0  0  0  0  0  0  0  0  0  0  0
   30.9670   30.7750   79.4120 O   0  0  0  0  0  0  0  0  0  0  0  0
   30.0510   32.2540   80.9230 C   0  0  0  0  0  0  0  0  0  0  0  0
   31.0980   32.1580   81.8640 C   0  0  0  0  0  0  0  0  0  0  0  0
   30.9410   32.7350   83.1260 C   0  0  0  0  0  0  0  0  0  0  0  0
   32.2450   31.5360   81.5990 N   0  0  0  0  0  0  0  0  0  0  0  0
   29.7650   33.4060   83.4580 C   0  0  0  0  0  0  0  0  0  0  0  0
   28.7350   33.5010   82.5300 C   0  0  0  0  0  0  0  0  0  0  0  0
   28.8830   32.9350   81.2630 C   0  0  0  0  0  0  0  0  0  0  0  0
   29.4580   32.2570   78.6510 N   0  0  0  0  0  0  0  0  0  0  0  0
   29.5500   31.8020   77.2710 C   0  0  2  0  0  0  0  0  0  0  0  0
   30.8390   32.3280   76.6490 C   0  0  0  0  0  0  0  0  0  0  0  0
   31.2130   33.4780   76.8640 O   0  0  0  0  0  0  0  0  0  0  0  0
   28.3500   32.3140   76.4510 C   0  0  0  0  0  0  0  0  0  0  0  0
   28.3530   31.8950   74.9670 C   0  0  0  0  0  0  0  0  0  0  0  0
   27.2480   32.5680   74.1940 C   0  0  0  0  0  0  0  0  0  0  0  0
   26.1920   32.9120   74.7040 O   0  5  0  0  0  0  0  0  0  0  0  0
   27.5930   32.8640   72.9680 O   0  0  0  0  0  0  0  0  0  0  0  0
   31.4960   31.4730   75.8700 N   0  0  0  0  0  0  0  0  0  0  0  0
   32.7070   31.8180   75.1650 C   0  0  2  0  0  0  0  0  0  0  0  0
   32.4350   31.5810   73.6820 C   0  0  0  0  0  0  0  0  0  0  0  0
   31.7890   30.5950   73.3340 O   0  0  0  0  0  0  0  0  0  0  0  0
   33.9060   31.0270   75.6290 C   0  0  0  0  0  0  0  0  0  0  0  0
   34.3430   31.2720   76.9600 C   0  0  0  0  0  0  0  0  0  0  0  0
   35.2210   32.3370   77.2710 C   0  0  0  0  0  0  0  0  0  0  0  0
   33.9790   30.4300   78.0270 C   0  0  0  0  0  0  0  0  0  0  0  0
   35.7010   32.5620   78.5910 C   0  0  0  0  0  0  0  0  0  0  0  0
   34.4380   30.6500   79.3360 C   0  0  0  0  0  0  0  0  0  0  0  0
   35.2760   31.7270   79.6360 C   0  0  0  0  0  0  0  0  0  0  0  0
   35.7390   31.8210   80.9480 O   0  0  0  0  0  0  0  0  0  0  0  0
   35.6010   33.0090   81.7780 P   0  0  0  0  0  0  0  0  0  0  0  0
   35.0370   32.6120   82.9790 O   0  0  0  0  0  1  0  0  0  0  0  0
   34.8250   34.0190   81.2130 O   0  0  0  0  0  1  0  0  0  0  0  0
   36.8710   33.4710   82.0100 O   0  0  0  0  0  0  0  0  0  0  0  0
   32.9060   32.4900   72.8150 N   0  0  0  0  0  0  0  0  0  0  0  0
   32.6920   32.3580   71.3790 C   0  0  2  0  0  0  0  0  0  0  0  0
   33.3400   31.0920   70.8410 C   0  0  0  0  0  0  0  0  0  0  0  0
   32.7570   30.3730   70.0250 O   0  0  0  0  0  0  0  0  0  0  0  0
   33.2240   33.5890   70.6080 C   0  0  2  0  0  0  0  0  0  0  0  0
   32.5780   34.8700   71.1130 C   0  0  0  0  0  0  0  0  0  0  0  0
   33.0150   33.4370   69.0900 C   0  0  0  0  0  0  0  0  0  0  0  0
   31.0500   34.8520   71.0110 C   0  0  0  0  0  0  0  0  0  0  0  0
   34.5650   30.8300   71.2950 N   0  0  0  0  0  0  0  0  0  0  0  0
   35.3200   29.6760   70.8370 C   0  0  2  0  0  0  0  0  0  0  0  0
   35.1140   28.3750   71.5890 C   0  0  0  0  0  0  0  0  0  0  0  0
   35.9480   27.4880   71.4860 O   0  0  0  0  0  0  0  0  0  0  0  0
   36.8070   30.0040   70.6850 C   0  0  0  0  0  0  0  0  0  0  0  0
   37.4480   30.3660   72.0060 C   0  0  0  0  0  0  0  0  0  0  0  0
   36.7650   30.7850   72.9480 O   0  0  0  0  0  0  0  0  0  0  0  0
   38.7480   30.0830   72.1120 N   0  0  0  0  0  0  0  0  0  0  0  0
   34.0110   28.2770   72.3230 N   0  0  0  0  0  0  0  0  0  0  0  0
   33.6780   27.0780   73.0810 C   0  0  2  0  0  0  0  0  0  0  0  0
   32.2430   26.6820   72.7620 C   0  0  0  0  0  0  0  0  0  0  0  0
   31.9860   25.6040   72.2380 O   0  0  0  0  0  0  0  0  0  0  0  0
   33.7650   27.3350   74.5950 C   0  0  0  0  0  0  0  0  0  0  0  0
   34.5670   26.2790   75.3710 C   0  0  0  0  0  0  0  0  0  0  0  0
   36.0620   26.3690   75.1250 C   0  0  0  0  0  0  0  0  0  0  0  0
   36.8620   26.1290   76.0480 O   0  0  0  0  0  0  0  0  0  0  0  0
   36.4360   26.3730   73.8500 N   0  0  0  0  0  0  0  0  0  0  0  0
   31.3100   27.5630   73.0510 N   0  0  0  0  0  0  0  0  0  0  0  0
   31.7407   32.6605   83.8540 H   0  0  0  0  0  0  0  0  0  0  0  0
   32.3934   31.0997   80.6779 H   0  0  0  0  0  0  0  0  0  0  0  0
   32.9840   31.4912   82.3151 H   0  0  0  0  0  0  0  0  0  0  0  0
   29.6541   33.8533   84.4392 H   0  0  0  0  0  0  0  0  0  0  0  0
   27.8166   34.0147   82.7902 H   0  0  0  0  0  0  0  0  0  0  0  0
   28.0830   33.0256   80.5371 H   0  0  0  0  0  0  0  0  0  0  0  0
   28.8264   32.9983   78.8782 H   0  0  0  0  0  0  0  0  0  0  0  0
   29.5573   30.7022   77.2537 H   0  0  0  0  0  0  0  0  0  0  0  0
   28.3492   33.4131   76.4959 H   0  0  0  0  0  0  0  0  0  0  0  0
   27.4299   31.9274   76.9135 H   0  0  0  0  0  0  0  0  0  0  0  0
   28.2188   30.8050   74.9043 H   0  0  0  0  0  0  0  0  0  0  0  0
   29.3195   32.1717   74.5207 H   0  0  0  0  0  0  0  0  0  0  0  0
   31.1333   30.5467   75.7680 H   0  0  0  0  0  0  0  0  0  0  0  0
   32.9205   32.8847   75.3278 H   0  0  0  0  0  0  0  0  0  0  0  0
   34.7426   31.2582   74.9532 H   0  0  0  0  0  0  0  0  0  0  0  0
   33.6548   29.9590   75.5495 H   0  0  0  0  0  0  0  0  0  0  0  0
   35.5384   33.0035   76.4772 H   0  0  0  0  0  0  0  0  0  0  0  0
   33.3254   29.5872   77.8331 H   0  0  0  0  0  0  0  0  0  0  0  0
   36.3913   33.3740   78.7888 H   0  0  0  0  0  0  0  0  0  0  0  0
   34.1370   29.9727   80.1270 H   0  0  0  0  0  0  0  0  0  0  0  0
   33.4161   33.2770   73.1621 H   0  0  0  0  0  0  0  0  0  0  0  0
   31.6080   32.2888   71.2053 H   0  0  0  0  0  0  0  0  0  0  0  0
   34.3059   33.6594   70.7937 H   0  0  0  0  0  0  0  0  0  0  0  0
   32.9588   35.7127   70.5174 H   0  0  0  0  0  0  0  0  0  0  0  0
   32.8569   35.0107   72.1677 H   0  0  0  0  0  0  0  0  0  0  0  0
   33.4891   32.5059   68.7461 H   0  0  0  0  0  0  0  0  0  0  0  0
   33.4688   34.2934   68.5698 H   0  0  0  0  0  0  0  0  0  0  0  0
   31.9378   33.4030   68.8697 H   0  0  0  0  0  0  0  0  0  0  0  0
   30.6460   35.8022   71.3903 H   0  0  0  0  0  0  0  0  0  0  0  0
   30.6523   34.0195   71.6099 H   0  0  0  0  0  0  0  0  0  0  0  0
   30.7542   34.7215   69.9596 H   0  0  0  0  0  0  0  0  0  0  0  0
   34.9758   31.4440   71.9690 H   0  0  0  0  0  0  0  0  0  0  0  0
   34.9471   29.4785   69.8212 H   0  0  0  0  0  0  0  0  0  0  0  0
   36.9140   30.8535   69.9944 H   0  0  0  0  0  0  0  0  0  0  0  0
   37.3231   29.1261   70.2692 H   0  0  0  0  0  0  0  0  0  0  0  0
   39.2385   30.2946   72.9574 H   0  0  0  0  0  0  0  0  0  0  0  0
   39.2316   29.6594   71.3460 H   0  0  0  0  0  0  0  0  0  0  0  0
   33.3851   29.0562   72.3566 H   0  0  0  0  0  0  0  0  0  0  0  0
   34.3662   26.2661   72.8032 H   0  0  0  0  0  0  0  0  0  0  0  0
   32.7425   27.3570   74.9999 H   0  0  0  0  0  0  0  0  0  0  0  0
   34.2425   28.3135   74.7514 H   0  0  0  0  0  0  0  0  0  0  0  0
   34.2210   25.2810   75.0641 H   0  0  0  0  0  0  0  0  0  0  0  0
   34.3800   26.4173   76.4461 H   0  0  0  0  0  0  0  0  0  0  0  0
   37.4060   26.4302   73.6136 H   0  0  0  0  0  0  0  0  0  0  0  0
   35.7475   26.3188   73.1268 H   0  0  0  0  0  0  0  0  0  0  0  0
   30.3502   27.3550   72.8624 H   0  0  0  0  0  0  0  0  0  0  0  0
   31.5605   28.4408   73.4593 H   0  0  0  0  0  0  0  0  0  0  0  0
  1  3  1  0  0  0  0
  1  2  2  0  0  0  0
  3  9  2  0  0  0  0
  3  4  1  0  0  0  0
  4  6  1  0  0  0  0
  4  5  2  0  0  0  0
  5  7  1  0  0  0  0
  5 61  1  0  0  0  0
  6 62  1  0  0  0  0
  6 63  1  0  0  0  0
  7 64  1  0  0  0  0
  8  7  2  0  0  0  0
  8 65  1  0  0  0  0
  9  8  1  0  0  0  0
  9 66  1  0  0  0  0
 10  1  1  0  0  0  0
 10 67  1  0  0  0  0
 11 14  1  0  0  0  0
 11 10  1  0  0  0  0
 11 68  1  6  0  0  0
 12 11  1  0  0  0  0
 12 13  2  0  0  0  0
 14 15  1  0  0  0  0
 14 69  1  0  0  0  0
 14 70  1  0  0  0  0
 15 16  1  0  0  0  0
 15 71  1  0  0  0  0
 15 72  1  0  0  0  0
 16 17  1  0  0  0  0
 16 18  2  0  0  0  0
 19 12  1  0  0  0  0
 19 73  1  0  0  0  0
 20 19  1  0  0  0  0
 20 23  1  0  0  0  0
 20 74  1  1  0  0  0
 21 20  1  0  0  0  0
 21 22  2  0  0  0  0
 21 35  1  0  0  0  0
 23 24  1  0  0  0  0
 23 75  1  0  0  0  0
 23 76  1  0  0  0  0
 24 26  2  0  0  0  0
 24 25  1  0  0  0  0
 25 27  2  0  0  0  0
 25 77  1  0  0  0  0
 26 28  1  0  0  0  0
 26 78  1  0  0  0  0
 27 29  1  0  0  0  0
 27 79  1  0  0  0  0
 28 29  2  0  0  0  0
 28 80  1  0  0  0  0
 29 30  1  0  0  0  0
 30 31  1  0  0  0  0
 31 34  2  0  0  0  0
 31 33  1  0  0  0  0
 31 32  1  0  0  0  0
 35 36  1  0  0  0  0
 35 81  1  0  0  0  0
 36 37  1  0  0  0  0
 36 39  1  0  0  0  0
 36 82  1  6  0  0  0
 37 38  2  0  0  0  0
 37 43  1  0  0  0  0
 39 40  1  0  0  0  0
 39 41  1  0  0  0  0
 39 83  1  1  0  0  0
 40 42  1  0  0  0  0
 40 84  1  0  0  0  0
 40 85  1  0  0  0  0
 41 86  1  0  0  0  0
 41 87  1  0  0  0  0
 41 88  1  0  0  0  0
 42 89  1  0  0  0  0
 42 90  1  0  0  0  0
 42 91  1  0  0  0  0
 43 44  1  0  0  0  0
 43 92  1  0  0  0  0
 44 45  1  0  0  0  0
 44 47  1  0  0  0  0
 44 93  1  6  0  0  0
 45 46  2  0  0  0  0
 45 51  1  0  0  0  0
 47 48  1  0  0  0  0
 47 94  1  0  0  0  0
 47 95  1  0  0  0  0
 48 49  2  0  0  0  0
 48 50  1  0  0  0  0
 50 96  1  0  0  0  0
 50 97  1  0  0  0  0
 51 52  1  0  0  0  0
 51 98  1  0  0  0  0
 52 53  1  0  0  0  0
 52 55  1  0  0  0  0
 52 99  1  6  0  0  0
 53 54  2  0  0  0  0
 53 60  1  0  0  0  0
 55 56  1  0  0  0  0
 55100  1  0  0  0  0
 55101  1  0  0  0  0
 56 57  1  0  0  0  0
 56102  1  0  0  0  0
 56103  1  0  0  0  0
 57 58  2  0  0  0  0
 57 59  1  0  0  0  0
 59104  1  0  0  0  0
 59105  1  0  0  0  0
 60106  1  0  0  0  0
 60107  1  0  0  0  0
M  CHG  1  17  -1
M  END
