1zgb_ligand
 OpenBabel08222323343D

 82 86  0  0  1  0  0  0  0  0999 V2000
   -3.1010   59.6420   74.6460 C   0  0  0  0  0  0  0  0  0  0  0  0
   -2.0300   60.6480   74.2690 C   0  0  0  0  0  0  0  0  0  0  0  0
   -1.0720   60.0800   73.1650 C   0  0  2  0  0  0  0  0  0  0  0  0
   -0.5640   58.6720   73.5430 C   0  0  0  0  0  0  0  0  0  0  0  0
   -1.2260   57.9290   74.5080 C   0  0  0  0  0  0  0  0  0  0  0  0
   -2.4440   58.4090   75.2790 C   0  0  0  0  0  0  0  0  0  0  0  0
    0.6260   58.0220   72.8830 C   0  0  0  0  0  0  0  0  0  0  0  0
    1.0540   56.7480   73.2200 C   0  0  0  0  0  0  0  0  0  0  0  0
    0.2850   56.0030   74.2960 C   0  0  0  0  0  0  0  0  0  0  0  0
   -0.7790   56.6730   74.8270 N   0  0  0  0  0  0  0  0  0  0  0  0
    0.5390   54.9060   74.6920 O   0  0  0  0  0  0  0  0  0  0  0  0
    0.0400   61.0700   73.2430 N   0  3  0  0  0  0  0  0  0  0  0  0
   -0.0680   62.2860   72.3830 C   0  0  0  0  0  0  0  0  0  0  0  0
    0.9870   62.0150   71.3460 C   0  0  0  0  0  0  0  0  0  0  0  0
    0.6380   62.6540   70.0350 C   0  0  0  0  0  0  0  0  0  0  0  0
    1.6990   62.3090   68.9910 C   0  0  0  0  0  0  0  0  0  0  0  0
    3.1210   62.4740   69.5480 C   0  0  0  0  0  0  0  0  0  0  0  0
    3.6790   63.7740   69.0100 C   0  0  0  0  0  0  0  0  0  0  0  0
    3.2800   65.0280   69.8120 C   0  0  0  0  0  0  0  0  0  0  0  0
    2.2410   65.8630   69.0450 C   0  0  0  0  0  0  0  0  0  0  0  0
    2.7180   66.3770   67.6860 C   0  0  0  0  0  0  0  0  0  0  0  0
    1.7260   67.4350   67.2000 C   0  0  0  0  0  0  0  0  0  0  0  0
    2.2130   68.4110   66.2220 N   0  0  0  0  0  0  0  0  0  0  0  0
    3.5210   68.6620   65.7320 C   0  0  0  0  0  0  0  0  0  0  0  0
    4.5280   69.2680   66.6260 C   0  0  0  0  0  0  0  0  0  0  0  0
    5.7970   69.5770   66.0220 C   0  0  0  0  0  0  0  0  0  0  0  0
    6.0700   69.3050   64.6510 N   0  0  0  0  0  0  0  0  0  0  0  0
    5.1550   68.7420   63.8630 C   0  0  0  0  0  0  0  0  0  0  0  0
    3.8300   68.3860   64.3510 C   0  0  0  0  0  0  0  0  0  0  0  0
    4.4250   69.6100   68.0480 C   0  0  0  0  0  0  0  0  0  0  0  0
    5.4660   70.1970   68.7720 C   0  0  0  0  0  0  0  0  0  0  0  0
    6.7110   70.4990   68.1320 C   0  0  0  0  0  0  0  0  0  0  0  0
    6.8660   70.1920   66.7800 C   0  0  0  0  0  0  0  0  0  0  0  0
    5.6230   68.5170   62.4010 C   0  0  0  0  0  0  0  0  0  0  0  0
    4.4170   68.2910   61.4350 C   0  0  0  0  0  0  0  0  0  0  0  0
    3.4630   67.2460   62.0080 C   0  0  0  0  0  0  0  0  0  0  0  0
    2.8360   67.7540   63.3560 C   0  0  0  0  0  0  0  0  0  0  0  0
   -3.6544   59.3404   73.7445 H   0  0  0  0  0  0  0  0  0  0  0  0
   -3.7952   60.0983   75.3670 H   0  0  0  0  0  0  0  0  0  0  0  0
   -1.4389   60.8931   75.1637 H   0  0  0  0  0  0  0  0  0  0  0  0
   -2.5138   61.5595   73.8881 H   0  0  0  0  0  0  0  0  0  0  0  0
   -1.5461   60.0600   72.1726 H   0  0  0  0  0  0  0  0  0  0  0  0
   -3.1828   57.5947   75.3110 H   0  0  0  0  0  0  0  0  0  0  0  0
   -2.1337   58.6631   76.3033 H   0  0  0  0  0  0  0  0  0  0  0  0
    1.1675   58.5728   72.1153 H   0  0  0  0  0  0  0  0  0  0  0  0
    1.9143   56.2958   72.7288 H   0  0  0  0  0  0  0  0  0  0  0  0
   -1.2947   56.1892   75.5341 H   0  0  0  0  0  0  0  0  0  0  0  0
    0.8900   60.5923   72.9874 H   0  0  0  0  0  0  0  0  0  0  0  0
    0.1036   61.3800   74.2000 H   0  0  0  0  0  0  0  0  0  0  0  0
    0.1534   63.2012   72.9516 H   0  0  0  0  0  0  0  0  0  0  0  0
   -1.0662   62.3692   71.9283 H   0  0  0  0  0  0  0  0  0  0  0  0
    1.0775   60.9282   71.2022 H   0  0  0  0  0  0  0  0  0  0  0  0
    1.9475   62.4197   71.6975 H   0  0  0  0  0  0  0  0  0  0  0  0
    0.5922   63.7457   70.1618 H   0  0  0  0  0  0  0  0  0  0  0  0
   -0.3407   62.2827   69.6971 H   0  0  0  0  0  0  0  0  0  0  0  0
    1.5763   62.9756   68.1246 H   0  0  0  0  0  0  0  0  0  0  0  0
    1.5599   61.2652   68.6732 H   0  0  0  0  0  0  0  0  0  0  0  0
    3.7507   61.6330   69.2223 H   0  0  0  0  0  0  0  0  0  0  0  0
    3.0913   62.5057   70.6471 H   0  0  0  0  0  0  0  0  0  0  0  0
    3.3205   63.8994   67.9777 H   0  0  0  0  0  0  0  0  0  0  0  0
    4.7766   63.7019   69.0108 H   0  0  0  0  0  0  0  0  0  0  0  0
    4.1753   65.6419   69.9894 H   0  0  0  0  0  0  0  0  0  0  0  0
    2.8514   64.7174   70.7763 H   0  0  0  0  0  0  0  0  0  0  0  0
    1.9720   66.7307   69.6652 H   0  0  0  0  0  0  0  0  0  0  0  0
    1.3504   65.2382   68.8825 H   0  0  0  0  0  0  0  0  0  0  0  0
    2.7580   65.5458   66.9666 H   0  0  0  0  0  0  0  0  0  0  0  0
    3.7184   66.8231   67.7868 H   0  0  0  0  0  0  0  0  0  0  0  0
    1.3806   67.9945   68.0818 H   0  0  0  0  0  0  0  0  0  0  0  0
    0.8754   66.9066   66.7446 H   0  0  0  0  0  0  0  0  0  0  0  0
    1.4826   69.0175   65.8225 H   0  0  0  0  0  0  0  0  0  0  0  0
    3.4953   69.3969   68.5631 H   0  0  0  0  0  0  0  0  0  0  0  0
    5.3306   70.4249   69.8231 H   0  0  0  0  0  0  0  0  0  0  0  0
    7.5196   70.9585   68.6889 H   0  0  0  0  0  0  0  0  0  0  0  0
    7.8049   70.4183   66.2877 H   0  0  0  0  0  0  0  0  0  0  0  0
    6.2762   67.6325   62.3682 H   0  0  0  0  0  0  0  0  0  0  0  0
    6.1859   69.4011   62.0671 H   0  0  0  0  0  0  0  0  0  0  0  0
    4.7929   67.9431   60.4615 H   0  0  0  0  0  0  0  0  0  0  0  0
    3.8769   69.2400   61.3017 H   0  0  0  0  0  0  0  0  0  0  0  0
    4.0167   66.3141   62.1949 H   0  0  0  0  0  0  0  0  0  0  0  0
    2.6576   67.0551   61.2835 H   0  0  0  0  0  0  0  0  0  0  0  0
    2.0736   68.5086   63.1125 H   0  0  0  0  0  0  0  0  0  0  0  0
    2.3580   66.8966   63.8522 H   0  0  0  0  0  0  0  0  0  0  0  0
  1  2  1  0  0  0  0
  1  6  1  0  0  0  0
  1 38  1  0  0  0  0
  1 39  1  0  0  0  0
  2  3  1  0  0  0  0
  2 40  1  0  0  0  0
  2 41  1  0  0  0  0
  3  4  1  0  0  0  0
  3 12  1  0  0  0  0
  3 42  1  6  0  0  0
  4  5  2  0  0  0  0
  4  7  1  0  0  0  0
  5  6  1  0  0  0  0
  5 10  1  0  0  0  0
  6 43  1  0  0  0  0
  6 44  1  0  0  0  0
  7  8  2  0  0  0  0
  7 45  1  0  0  0  0
  8  9  1  0  0  0  0
  8 46  1  0  0  0  0
  9 10  1  0  0  0  0
  9 11  2  0  0  0  0
 10 47  1  0  0  0  0
 12 13  1  0  0  0  0
 12 48  1  0  0  0  0
 12 49  1  0  0  0  0
 13 14  1  0  0  0  0
 13 50  1  0  0  0  0
 13 51  1  0  0  0  0
 14 15  1  0  0  0  0
 14 52  1  0  0  0  0
 14 53  1  0  0  0  0
 15 16  1  0  0  0  0
 15 54  1  0  0  0  0
 15 55  1  0  0  0  0
 16 17  1  0  0  0  0
 16 56  1  0  0  0  0
 16 57  1  0  0  0  0
 17 18  1  0  0  0  0
 17 58  1  0  0  0  0
 17 59  1  0  0  0  0
 18 19  1  0  0  0  0
 18 60  1  0  0  0  0
 18 61  1  0  0  0  0
 19 20  1  0  0  0  0
 19 62  1  0  0  0  0
 19 63  1  0  0  0  0
 20 21  1  0  0  0  0
 20 64  1  0  0  0  0
 20 65  1  0  0  0  0
 21 22  1  0  0  0  0
 21 66  1  0  0  0  0
 21 67  1  0  0  0  0
 22 23  1  0  0  0  0
 22 68  1  0  0  0  0
 22 69  1  0  0  0  0
 23 24  1  0  0  0  0
 23 70  1  0  0  0  0
 24 25  2  0  0  0  0
 24 29  1  0  0  0  0
 25 26  1  0  0  0  0
 25 30  1  0  0  0  0
 26 27  2  0  0  0  0
 26 33  1  0  0  0  0
 27 28  1  0  0  0  0
 28 29  2  0  0  0  0
 28 34  1  0  0  0  0
 29 37  1  0  0  0  0
 30 31  2  0  0  0  0
 30 71  1  0  0  0  0
 31 32  1  0  0  0  0
 31 72  1  0  0  0  0
 32 33  2  0  0  0  0
 32 73  1  0  0  0  0
 33 74  1  0  0  0  0
 34 35  1  0  0  0  0
 34 75  1  0  0  0  0
 34 76  1  0  0  0  0
 35 36  1  0  0  0  0
 35 77  1  0  0  0  0
 35 78  1  0  0  0  0
 36 37  1  0  0  0  0
 36 79  1  0  0  0  0
 36 80  1  0  0  0  0
 37 81  1  0  0  0  0
 37 82  1  0  0  0  0
M  CHG  1  12   1
M  END
