1zh7_ligand
 OpenBabel08222323343D

181183  0  0  1  0  0  0  0  0999 V2000
   86.9300   -7.8740   33.5350 N   0  3  0  0  0  0  0  0  0  0  0  0
   87.9900   -7.8350   34.5800 C   0  0  2  0  0  0  0  0  0  0  0  0
   88.0590   -9.1740   35.3230 C   0  0  0  0  0  0  0  0  0  0  0  0
   88.9230  -10.0040   35.0380 O   0  0  0  0  0  0  0  0  0  0  0  0
   87.7060   -6.6930   35.5670 C   0  0  0  0  0  0  0  0  0  0  0  0
   88.7890   -6.4860   36.4580 O   0  0  0  0  0  0  0  0  0  0  0  0
   87.1370   -9.3820   36.2610 N   0  0  0  0  0  0  0  0  0  0  0  0
   87.0920  -10.6120   37.0520 C   0  0  2  0  0  0  0  0  0  0  0  0
   88.4740  -10.8760   37.6640 C   0  0  0  0  0  0  0  0  0  0  0  0
   89.1290  -11.8740   37.3530 O   0  0  0  0  0  0  0  0  0  0  0  0
   86.6590  -11.7940   36.1750 C   0  0  0  0  0  0  0  0  0  0  0  0
   86.0860  -12.9420   36.9480 C   0  0  0  0  0  0  0  0  0  0  0  0
   84.9910  -12.8080   37.7760 N   0  0  0  0  0  0  0  0  0  0  0  0
   86.4510  -14.2430   37.0150 C   0  0  0  0  0  0  0  0  0  0  0  0
   84.7070  -13.9770   38.3210 C   0  0  0  0  0  0  0  0  0  0  0  0
   85.5780  -14.8660   37.8760 N   0  0  0  0  0  0  0  0  0  0  0  0
   88.9200   -9.9730   38.5580 N   0  0  0  0  0  0  0  0  0  0  0  0
   90.1980   -9.9720   39.2900 C   0  0  2  0  0  0  0  0  0  0  0  0
   90.6830  -11.3640   39.6770 C   0  0  0  0  0  0  0  0  0  0  0  0
   90.2540  -11.9180   40.6870 O   0  0  0  0  0  0  0  0  0  0  0  0
   89.8890   -9.1150   40.5110 C   0  0  0  0  0  0  0  0  0  0  0  0
   88.9240   -8.1250   39.9590 C   0  0  0  0  0  0  0  0  0  0  0  0
   88.0100   -8.9510   39.1070 C   0  0  0  0  0  0  0  0  0  0  0  0
   91.5980  -11.9120   38.8830 N   0  0  0  0  0  0  0  0  0  0  0  0
   92.1160  -13.2520   39.1300 C   0  0  2  0  0  0  0  0  0  0  0  0
   92.8350  -13.4780   40.4660 C   0  0  0  0  0  0  0  0  0  0  0  0
   92.2630  -14.0840   41.3720 O   0  0  0  0  0  0  0  0  0  0  0  0
   93.0330  -13.6990   37.9750 C   0  0  2  0  0  0  0  0  0  0  0  0
   93.6030  -14.9760   38.2880 O   0  0  0  0  0  0  0  0  0  0  0  0
   94.1340  -12.6780   37.7340 C   0  0  0  0  0  0  0  0  0  0  0  0
   94.0750  -13.0080   40.5990 N   0  0  0  0  0  0  0  0  0  0  0  0
   94.8350  -13.2000   41.8410 C   0  0  2  0  0  0  0  0  0  0  0  0
   94.1020  -12.7440   43.1070 C   0  0  0  0  0  0  0  0  0  0  0  0
   94.1610  -13.4160   44.1360 O   0  0  0  0  0  0  0  0  0  0  0  0
   96.1980  -12.4830   41.7960 C   0  0  2  0  0  0  0  0  0  0  0  0
   97.0780  -13.1000   40.7090 C   0  0  0  0  0  0  0  0  0  0  0  0
   96.8890  -12.5950   43.1400 C   0  0  0  0  0  0  0  0  0  0  0  0
   97.3780  -14.5850   40.9160 C   0  0  0  0  0  0  0  0  0  0  0  0
   93.4260  -11.6000   43.0230 N   0  0  0  0  0  0  0  0  0  0  0  0
   92.6690  -11.0490   44.1460 C   0  0  2  0  0  0  0  0  0  0  0  0
   91.5340  -12.0100   44.5090 C   0  0  0  0  0  0  0  0  0  0  0  0
   91.1740  -12.1670   45.6810 O   0  0  0  0  0  0  0  0  0  0  0  0
   92.0710   -9.7020   43.7490 C   0  0  0  0  0  0  0  0  0  0  0  0
   91.9010   -8.5650   44.7570 C   0  0  0  0  0  0  0  0  0  0  0  0
   90.5850   -7.8620   44.4420 C   0  0  0  0  0  0  0  0  0  0  0  0
   91.9100   -9.0710   46.1830 C   0  0  0  0  0  0  0  0  0  0  0  0
   90.9670  -12.6510   43.4940 N   0  0  0  0  0  0  0  0  0  0  0  0
   89.8760  -13.5880   43.7150 C   0  0  2  0  0  0  0  0  0  0  0  0
   90.4000  -14.8180   44.4620 C   0  0  0  0  0  0  0  0  0  0  0  0
   89.7800  -15.2810   45.4240 O   0  0  0  0  0  0  0  0  0  0  0  0
   89.2700  -14.0040   42.3720 C   0  0  0  0  0  0  0  0  0  0  0  0
   87.9370  -14.6940   42.4800 C   0  0  0  0  0  0  0  0  0  0  0  0
   86.7490  -13.9760   42.3750 C   0  0  0  0  0  0  0  0  0  0  0  0
   87.8610  -16.0740   42.6910 C   0  0  0  0  0  0  0  0  0  0  0  0
   85.5120  -14.6170   42.4750 C   0  0  0  0  0  0  0  0  0  0  0  0
   86.6340  -16.7280   42.7960 C   0  0  0  0  0  0  0  0  0  0  0  0
   85.4640  -15.9960   42.6850 C   0  0  0  0  0  0  0  0  0  0  0  0
   84.2520  -16.6410   42.7790 O   0  0  0  0  0  0  0  0  0  0  0  0
   91.5420  -15.3390   44.0110 N   0  0  0  0  0  0  0  0  0  0  0  0
   92.1780  -16.5130   44.6190 C   0  0  2  0  0  0  0  0  0  0  0  0
   92.5010  -16.2230   46.0780 C   0  0  0  0  0  0  0  0  0  0  0  0
   92.4930  -17.1150   46.9260 O   0  0  0  0  0  0  0  0  0  0  0  0
   93.5050  -16.8780   43.8870 C   0  0  2  0  0  0  0  0  0  0  0  0
   93.2110  -17.4350   42.6010 O   0  0  0  0  0  0  0  0  0  0  0  0
   94.3250  -17.8790   44.7000 C   0  0  0  0  0  0  0  0  0  0  0  0
   92.7890  -14.9590   46.3490 N   0  0  0  0  0  0  0  0  0  0  0  0
   93.1260  -14.5030   47.6830 C   0  0  2  0  0  0  0  0  0  0  0  0
   91.8780  -14.2620   48.5290 C   0  0  0  0  0  0  0  0  0  0  0  0
   91.8880  -14.5260   49.7260 O   0  0  0  0  0  0  0  0  0  0  0  0
   93.9520  -13.2090   47.5840 C   0  0  0  0  0  0  0  0  0  0  0  0
   95.4120  -13.2210   48.0510 C   0  0  0  0  0  0  0  0  0  0  0  0
   96.0790  -14.5390   47.6930 C   0  0  0  0  0  0  0  0  0  0  0  0
   96.1560  -12.0650   47.4120 C   0  0  0  0  0  0  0  0  0  0  0  0
   90.8030  -13.7810   47.9060 N   0  0  0  0  0  0  0  0  0  0  0  0
   89.5740  -13.4820   48.6370 C   0  0  2  0  0  0  0  0  0  0  0  0
   88.6110  -14.6310   48.8650 C   0  0  0  0  0  0  0  0  0  0  0  0
   87.7830  -14.5770   49.7800 O   0  0  0  0  0  0  0  0  0  0  0  0
   88.8180  -12.3390   47.9640 C   0  0  0  0  0  0  0  0  0  0  0  0
   89.4970  -10.9740   48.0320 C   0  0  0  0  0  0  0  0  0  0  0  0
   88.5050   -9.9170   47.5770 C   0  0  0  0  0  0  0  0  0  0  0  0
   89.9620  -10.6900   49.4590 C   0  0  0  0  0  0  0  0  0  0  0  0
   88.6960  -15.6600   48.0320 N   0  0  0  0  0  0  0  0  0  0  0  0
   87.8230  -16.8160   48.1860 C   0  0  2  0  0  0  0  0  0  0  0  0
   88.4580  -17.8640   49.0970 C   0  0  0  0  0  0  0  0  0  0  0  0
   87.7900  -18.2940   50.0650 O   0  5  0  0  0  0  0  0  0  0  0  0
   87.5170  -17.4440   46.8300 C   0  0  0  0  0  0  0  0  0  0  0  0
   86.8500  -18.6850   47.0100 O   0  0  0  0  0  0  0  0  0  0  0  0
   89.6180  -18.2450   48.8240 O   0  0  0  0  0  0  0  0  0  0  0  0
   86.8974   -6.9875   33.0563 H   0  0  0  0  0  0  0  0  0  0  0  0
   86.0379   -8.0550   33.9679 H   0  0  0  0  0  0  0  0  0  0  0  0
   87.1371   -8.6057   32.8734 H   0  0  0  0  0  0  0  0  0  0  0  0
   88.9596   -7.6511   34.0942 H   0  0  0  0  0  0  0  0  0  0  0  0
   86.8074   -6.9419   36.1506 H   0  0  0  0  0  0  0  0  0  0  0  0
   87.5299   -5.7673   34.9995 H   0  0  0  0  0  0  0  0  0  0  0  0
   88.5780   -5.7747   37.0513 H   0  0  0  0  0  0  0  0  0  0  0  0
   86.4521   -8.6734   36.4305 H   0  0  0  0  0  0  0  0  0  0  0  0
   86.3603  -10.4879   37.8639 H   0  0  0  0  0  0  0  0  0  0  0  0
   87.5376  -12.1540   35.6196 H   0  0  0  0  0  0  0  0  0  0  0  0
   85.8970  -11.4388   35.4657 H   0  0  0  0  0  0  0  0  0  0  0  0
   87.2808  -14.7096   36.4862 H   0  0  0  0  0  0  0  0  0  0  0  0
   83.8940  -14.1747   39.0180 H   0  0  0  0  0  0  0  0  0  0  0  0
   85.5995  -15.8634   38.1324 H   0  0  0  0  0  0  0  0  0  0  0  0
   90.9787   -9.4957   38.6788 H   0  0  0  0  0  0  0  0  0  0  0  0
   90.7948   -8.6205   40.8917 H   0  0  0  0  0  0  0  0  0  0  0  0
   89.4327   -9.7129   41.3137 H   0  0  0  0  0  0  0  0  0  0  0  0
   89.4435   -7.3667   39.3548 H   0  0  0  0  0  0  0  0  0  0  0  0
   88.3652   -7.6303   40.7671 H   0  0  0  0  0  0  0  0  0  0  0  0
   87.2131   -9.4111   39.7097 H   0  0  0  0  0  0  0  0  0  0  0  0
   87.5608   -8.3469   38.3049 H   0  0  0  0  0  0  0  0  0  0  0  0
   91.9384  -11.3932   38.0988 H   0  0  0  0  0  0  0  0  0  0  0  0
   91.2415  -13.9193   39.1345 H   0  0  0  0  0  0  0  0  0  0  0  0
   92.4312  -13.7910   37.0588 H   0  0  0  0  0  0  0  0  0  0  0  0
   94.1684  -15.2522   37.5763 H   0  0  0  0  0  0  0  0  0  0  0  0
   94.7746  -13.0179   36.9069 H   0  0  0  0  0  0  0  0  0  0  0  0
   94.7395  -12.5695   38.6459 H   0  0  0  0  0  0  0  0  0  0  0  0
   93.6844  -11.7081   37.4748 H   0  0  0  0  0  0  0  0  0  0  0  0
   94.4964  -12.5148   39.8380 H   0  0  0  0  0  0  0  0  0  0  0  0
   95.0210  -14.2800   41.9362 H   0  0  0  0  0  0  0  0  0  0  0  0
   96.0351  -11.4200   41.5646 H   0  0  0  0  0  0  0  0  0  0  0  0
   98.0330  -12.5546   40.6869 H   0  0  0  0  0  0  0  0  0  0  0  0
   96.5662  -12.9826   39.7424 H   0  0  0  0  0  0  0  0  0  0  0  0
   96.2517  -12.1497   43.9182 H   0  0  0  0  0  0  0  0  0  0  0  0
   97.8503  -12.0615   43.1037 H   0  0  0  0  0  0  0  0  0  0  0  0
   97.0666  -13.6551   43.3738 H   0  0  0  0  0  0  0  0  0  0  0  0
   98.0130  -14.9487   40.0947 H   0  0  0  0  0  0  0  0  0  0  0  0
   96.4351  -15.1513   40.9288 H   0  0  0  0  0  0  0  0  0  0  0  0
   97.9018  -14.7233   41.8733 H   0  0  0  0  0  0  0  0  0  0  0  0
   93.4364  -11.0981   42.1581 H   0  0  0  0  0  0  0  0  0  0  0  0
   93.3353  -10.9174   45.0113 H   0  0  0  0  0  0  0  0  0  0  0  0
   91.0674   -9.9150   43.3523 H   0  0  0  0  0  0  0  0  0  0  0  0
   92.7076   -9.3073   42.9434 H   0  0  0  0  0  0  0  0  0  0  0  0
   92.7303   -7.8524   44.6364 H   0  0  0  0  0  0  0  0  0  0  0  0
   90.4318   -7.0356   45.1516 H   0  0  0  0  0  0  0  0  0  0  0  0
   89.7558   -8.5794   44.5301 H   0  0  0  0  0  0  0  0  0  0  0  0
   90.6181   -7.4638   43.4171 H   0  0  0  0  0  0  0  0  0  0  0  0
   92.8668   -9.5736   46.3877 H   0  0  0  0  0  0  0  0  0  0  0  0
   91.0840   -9.7835   46.3245 H   0  0  0  0  0  0  0  0  0  0  0  0
   91.7858   -8.2238   46.8735 H   0  0  0  0  0  0  0  0  0  0  0  0
   91.2947  -12.4874   42.5635 H   0  0  0  0  0  0  0  0  0  0  0  0
   89.0996  -13.1013   44.3236 H   0  0  0  0  0  0  0  0  0  0  0  0
   89.9727  -14.6886   41.8745 H   0  0  0  0  0  0  0  0  0  0  0  0
   89.1412  -13.1006   41.7578 H   0  0  0  0  0  0  0  0  0  0  0  0
   86.7844  -12.9047   42.2134 H   0  0  0  0  0  0  0  0  0  0  0  0
   88.7765  -16.6484   42.7748 H   0  0  0  0  0  0  0  0  0  0  0  0
   84.5942  -14.0465   42.3900 H   0  0  0  0  0  0  0  0  0  0  0  0
   86.5965  -17.7984   42.9628 H   0  0  0  0  0  0  0  0  0  0  0  0
   83.5497  -16.0084   42.6836 H   0  0  0  0  0  0  0  0  0  0  0  0
   91.9844  -14.9103   43.2233 H   0  0  0  0  0  0  0  0  0  0  0  0
   91.4854  -17.3654   44.5585 H   0  0  0  0  0  0  0  0  0  0  0  0
   94.0978  -15.9610   43.7536 H   0  0  0  0  0  0  0  0  0  0  0  0
   94.0228  -17.6555   42.1595 H   0  0  0  0  0  0  0  0  0  0  0  0
   95.2532  -18.1171   44.1598 H   0  0  0  0  0  0  0  0  0  0  0  0
   93.7400  -18.7989   44.8467 H   0  0  0  0  0  0  0  0  0  0  0  0
   94.5722  -17.4416   45.6786 H   0  0  0  0  0  0  0  0  0  0  0  0
   92.7733  -14.2926   45.6036 H   0  0  0  0  0  0  0  0  0  0  0  0
   93.7343  -15.2769   48.1740 H   0  0  0  0  0  0  0  0  0  0  0  0
   93.4293  -12.4466   48.1803 H   0  0  0  0  0  0  0  0  0  0  0  0
   93.9547  -12.9086   46.5258 H   0  0  0  0  0  0  0  0  0  0  0  0
   95.4361  -13.0997   49.1440 H   0  0  0  0  0  0  0  0  0  0  0  0
   97.1239  -14.5263   48.0365 H   0  0  0  0  0  0  0  0  0  0  0  0
   96.0533  -14.6786   46.6022 H   0  0  0  0  0  0  0  0  0  0  0  0
   95.5426  -15.3660   48.1812 H   0  0  0  0  0  0  0  0  0  0  0  0
   95.6627  -11.1189   47.6794 H   0  0  0  0  0  0  0  0  0  0  0  0
   96.1506  -12.1850   46.3186 H   0  0  0  0  0  0  0  0  0  0  0  0
   97.1945  -12.0522   47.7744 H   0  0  0  0  0  0  0  0  0  0  0  0
   90.8381  -13.6216   46.9194 H   0  0  0  0  0  0  0  0  0  0  0  0
   89.8879  -13.1364   49.6330 H   0  0  0  0  0  0  0  0  0  0  0  0
   87.8336  -12.2525   48.4472 H   0  0  0  0  0  0  0  0  0  0  0  0
   88.6843  -12.5988   46.9035 H   0  0  0  0  0  0  0  0  0  0  0  0
   90.3697  -10.9664   47.3624 H   0  0  0  0  0  0  0  0  0  0  0  0
   88.9799   -8.9257   47.6203 H   0  0  0  0  0  0  0  0  0  0  0  0
   87.6253   -9.9313   48.2373 H   0  0  0  0  0  0  0  0  0  0  0  0
   88.1917  -10.1286   46.5440 H   0  0  0  0  0  0  0  0  0  0  0  0
   90.6786  -11.4637   49.7719 H   0  0  0  0  0  0  0  0  0  0  0  0
   89.0948  -10.6982   50.1357 H   0  0  0  0  0  0  0  0  0  0  0  0
   90.4475   -9.7037   49.4970 H   0  0  0  0  0  0  0  0  0  0  0  0
   89.3666  -15.6419   47.2904 H   0  0  0  0  0  0  0  0  0  0  0  0
   86.8793  -16.4801   48.6405 H   0  0  0  0  0  0  0  0  0  0  0  0
   88.4578  -17.6116   46.2853 H   0  0  0  0  0  0  0  0  0  0  0  0
   86.8738  -16.7652   46.2508 H   0  0  0  0  0  0  0  0  0  0  0  0
   86.6633  -19.0689   46.1613 H   0  0  0  0  0  0  0  0  0  0  0  0
  1  2  1  0  0  0  0
  1 89  1  0  0  0  0
  1 90  1  0  0  0  0
  1 91  1  0  0  0  0
  2  3  1  0  0  0  0
  2  5  1  0  0  0  0
  2 92  1  6  0  0  0
  3  4  2  0  0  0  0
  3  7  1  0  0  0  0
  5  6  1  0  0  0  0
  5 93  1  0  0  0  0
  5 94  1  0  0  0  0
  6 95  1  0  0  0  0
  7  8  1  0  0  0  0
  7 96  1  0  0  0  0
  8  9  1  0  0  0  0
  8 11  1  0  0  0  0
  8 97  1  1  0  0  0
  9 10  2  0  0  0  0
  9 17  1  0  0  0  0
 11 12  1  0  0  0  0
 11 98  1  0  0  0  0
 11 99  1  0  0  0  0
 12 13  1  0  0  0  0
 12 14  2  0  0  0  0
 13 15  2  0  0  0  0
 14 16  1  0  0  0  0
 14100  1  0  0  0  0
 15 16  1  0  0  0  0
 15101  1  0  0  0  0
 16102  1  0  0  0  0
 17 18  1  0  0  0  0
 17 23  1  0  0  0  0
 18 19  1  0  0  0  0
 18 21  1  0  0  0  0
 18103  1  6  0  0  0
 19 20  2  0  0  0  0
 19 24  1  0  0  0  0
 21 22  1  0  0  0  0
 21104  1  0  0  0  0
 21105  1  0  0  0  0
 22 23  1  0  0  0  0
 22106  1  0  0  0  0
 22107  1  0  0  0  0
 23108  1  0  0  0  0
 23109  1  0  0  0  0
 24 25  1  0  0  0  0
 24110  1  0  0  0  0
 25 26  1  0  0  0  0
 25 28  1  0  0  0  0
 25111  1  6  0  0  0
 26 27  2  0  0  0  0
 26 31  1  0  0  0  0
 28 29  1  0  0  0  0
 28 30  1  0  0  0  0
 28112  1  6  0  0  0
 29113  1  0  0  0  0
 30114  1  0  0  0  0
 30115  1  0  0  0  0
 30116  1  0  0  0  0
 31 32  1  0  0  0  0
 31117  1  0  0  0  0
 32 33  1  0  0  0  0
 32 35  1  0  0  0  0
 32118  1  1  0  0  0
 33 34  2  0  0  0  0
 33 39  1  0  0  0  0
 35 36  1  0  0  0  0
 35 37  1  0  0  0  0
 35119  1  6  0  0  0
 36 38  1  0  0  0  0
 36120  1  0  0  0  0
 36121  1  0  0  0  0
 37122  1  0  0  0  0
 37123  1  0  0  0  0
 37124  1  0  0  0  0
 38125  1  0  0  0  0
 38126  1  0  0  0  0
 38127  1  0  0  0  0
 39 40  1  0  0  0  0
 39128  1  0  0  0  0
 40 41  1  0  0  0  0
 40 43  1  0  0  0  0
 40129  1  1  0  0  0
 41 42  2  0  0  0  0
 41 47  1  0  0  0  0
 43 44  1  0  0  0  0
 43130  1  0  0  0  0
 43131  1  0  0  0  0
 44 45  1  0  0  0  0
 44 46  1  0  0  0  0
 44132  1  0  0  0  0
 45133  1  0  0  0  0
 45134  1  0  0  0  0
 45135  1  0  0  0  0
 46136  1  0  0  0  0
 46137  1  0  0  0  0
 46138  1  0  0  0  0
 47 48  1  0  0  0  0
 47139  1  0  0  0  0
 48 49  1  0  0  0  0
 48 51  1  0  0  0  0
 48140  1  1  0  0  0
 49 50  2  0  0  0  0
 49 59  1  0  0  0  0
 51 52  1  0  0  0  0
 51141  1  0  0  0  0
 51142  1  0  0  0  0
 52 53  2  0  0  0  0
 52 54  1  0  0  0  0
 53 55  1  0  0  0  0
 53143  1  0  0  0  0
 54 56  2  0  0  0  0
 54144  1  0  0  0  0
 55 57  2  0  0  0  0
 55145  1  0  0  0  0
 56 57  1  0  0  0  0
 56146  1  0  0  0  0
 57 58  1  0  0  0  0
 58147  1  0  0  0  0
 59 60  1  0  0  0  0
 59148  1  0  0  0  0
 60 61  1  0  0  0  0
 60 63  1  0  0  0  0
 60149  1  6  0  0  0
 61 62  2  0  0  0  0
 61 66  1  0  0  0  0
 63 64  1  0  0  0  0
 63 65  1  0  0  0  0
 63150  1  6  0  0  0
 64151  1  0  0  0  0
 65152  1  0  0  0  0
 65153  1  0  0  0  0
 65154  1  0  0  0  0
 66 67  1  0  0  0  0
 66155  1  0  0  0  0
 67 68  1  0  0  0  0
 67 70  1  0  0  0  0
 67156  1  1  0  0  0
 68 69  2  0  0  0  0
 68 74  1  0  0  0  0
 70 71  1  0  0  0  0
 70157  1  0  0  0  0
 70158  1  0  0  0  0
 71 72  1  0  0  0  0
 71 73  1  0  0  0  0
 71159  1  0  0  0  0
 72160  1  0  0  0  0
 72161  1  0  0  0  0
 72162  1  0  0  0  0
 73163  1  0  0  0  0
 73164  1  0  0  0  0
 73165  1  0  0  0  0
 74 75  1  0  0  0  0
 74166  1  0  0  0  0
 75 76  1  0  0  0  0
 75 78  1  0  0  0  0
 75167  1  1  0  0  0
 76 77  2  0  0  0  0
 76 82  1  0  0  0  0
 78 79  1  0  0  0  0
 78168  1  0  0  0  0
 78169  1  0  0  0  0
 79 80  1  0  0  0  0
 79 81  1  0  0  0  0
 79170  1  0  0  0  0
 80171  1  0  0  0  0
 80172  1  0  0  0  0
 80173  1  0  0  0  0
 81174  1  0  0  0  0
 81175  1  0  0  0  0
 81176  1  0  0  0  0
 82 83  1  0  0  0  0
 82177  1  0  0  0  0
 83 84  1  0  0  0  0
 83 86  1  0  0  0  0
 83178  1  1  0  0  0
 84 85  1  0  0  0  0
 84 88  2  0  0  0  0
 86 87  1  0  0  0  0
 86179  1  0  0  0  0
 86180  1  0  0  0  0
 87181  1  0  0  0  0
M  CHG  2   1   1  85  -1
M  END
