1zkl_ligand
 OpenBabel08222323343D

 30 31  0  0  0  0  0  0  0  0999 V2000
   -1.6860   49.7990   22.7020 N   0  0  0  0  0  0  0  0  0  0  0  0
   -1.1130   48.7300   22.0570 C   0  0  0  0  0  0  0  0  0  0  0  0
    0.0490   49.0030   21.5150 N   0  0  0  0  0  0  0  0  0  0  0  0
    0.2530   50.3400   21.8250 C   0  0  0  0  0  0  0  0  0  0  0  0
   -0.8030   50.8420   22.5540 C   0  0  0  0  0  0  0  0  0  0  0  0
   -0.9480   52.1000   23.0310 N   0  0  0  0  0  0  0  0  0  0  0  0
    0.0880   52.9400   22.7390 C   0  0  0  0  0  0  0  0  0  0  0  0
    1.2000   52.5190   22.0070 N   0  0  0  0  0  0  0  0  0  0  0  0
    1.2860   51.2260   21.5500 C   0  0  0  0  0  0  0  0  0  0  0  0
    2.2630   50.8540   20.9150 O   0  0  0  0  0  0  0  0  0  0  0  0
    0.0450   54.0970   23.1420 O   0  0  0  0  0  0  0  0  0  0  0  0
    2.2750   53.4590   21.7170 C   0  0  0  0  0  0  0  0  0  0  0  0
   -2.1040   52.5110   23.8150 C   0  0  0  0  0  0  0  0  0  0  0  0
   -3.2030   53.0680   22.8920 C   0  0  0  0  0  0  0  0  0  0  0  0
   -2.8950   54.4580   22.3710 C   0  0  0  0  0  0  0  0  0  0  0  0
   -3.6230   52.1270   21.7670 C   0  0  0  0  0  0  0  0  0  0  0  0
   -1.5802   47.7479   22.0012 H   0  0  0  0  0  0  0  0  0  0  0  0
    0.6661   48.3725   20.9834 H   0  0  0  0  0  0  0  0  0  0  0  0
    2.0353   54.4376   22.1584 H   0  0  0  0  0  0  0  0  0  0  0  0
    2.3853   53.5652   20.6277 H   0  0  0  0  0  0  0  0  0  0  0  0
    3.2158   53.0838   22.1460 H   0  0  0  0  0  0  0  0  0  0  0  0
   -1.8000   53.2905   24.5290 H   0  0  0  0  0  0  0  0  0  0  0  0
   -2.4970   51.6432   24.3649 H   0  0  0  0  0  0  0  0  0  0  0  0
   -4.0909   53.1772   23.5321 H   0  0  0  0  0  0  0  0  0  0  0  0
   -3.7155   54.7961   21.7211 H   0  0  0  0  0  0  0  0  0  0  0  0
   -1.9576   54.4347   21.7959 H   0  0  0  0  0  0  0  0  0  0  0  0
   -2.7885   55.1518   23.2179 H   0  0  0  0  0  0  0  0  0  0  0  0
   -3.8375   51.1314   22.1827 H   0  0  0  0  0  0  0  0  0  0  0  0
   -2.8093   52.0494   21.0309 H   0  0  0  0  0  0  0  0  0  0  0  0
   -4.5250   52.5216   21.2764 H   0  0  0  0  0  0  0  0  0  0  0  0
  1  2  2  0  0  0  0
  1  5  1  0  0  0  0
  2  3  1  0  0  0  0
  2 17  1  0  0  0  0
  3  4  1  0  0  0  0
  3 18  1  0  0  0  0
  4  5  2  0  0  0  0
  4  9  1  0  0  0  0
  5  6  1  0  0  0  0
  6  7  1  0  0  0  0
  6 13  1  0  0  0  0
  7  8  1  0  0  0  0
  7 11  2  0  0  0  0
  8  9  1  0  0  0  0
  8 12  1  0  0  0  0
  9 10  2  0  0  0  0
 12 19  1  0  0  0  0
 12 20  1  0  0  0  0
 12 21  1  0  0  0  0
 13 14  1  0  0  0  0
 13 22  1  0  0  0  0
 13 23  1  0  0  0  0
 14 15  1  0  0  0  0
 14 16  1  0  0  0  0
 14 24  1  0  0  0  0
 15 25  1  0  0  0  0
 15 26  1  0  0  0  0
 15 27  1  0  0  0  0
 16 28  1  0  0  0  0
 16 29  1  0  0  0  0
 16 30  1  0  0  0  0
M  END
