1zlw_ligand
 OpenBabel08222323343D

147154  0  0  1  0  0  0  0  0999 V2000
   -7.3865  -46.0465   -9.8352 H   0  0  0  0  0  0  0  0  0  0  0  0
   -6.8857  -46.6906   -8.2349 H   0  0  0  0  0  0  0  0  0  0  0  0
   -6.9349  -44.2576   -8.0099 H   0  0  0  0  0  0  0  0  0  0  0  0
   -6.9707  -43.8643  -10.4626 H   0  0  0  0  0  0  0  0  0  0  0  0
   -3.9294  -44.0757  -10.3044 H   0  0  0  0  0  0  0  0  0  0  0  0
   -5.6440  -46.1213  -11.6312 H   0  0  0  0  0  0  0  0  0  0  0  0
   -3.6505  -46.7266  -12.3342 H   0  0  0  0  0  0  0  0  0  0  0  0
   -3.3281  -47.3203  -10.6697 H   0  0  0  0  0  0  0  0  0  0  0  0
   -4.1981  -44.8947   -8.4919 H   0  0  0  0  0  0  0  0  0  0  0  0
   -4.4057  -43.9916  -12.5673 H   0  0  0  0  0  0  0  0  0  0  0  0
   -7.5689  -41.9755  -10.5685 H   0  0  0  0  0  0  0  0  0  0  0  0
   -6.1211  -39.9362  -10.6751 H   0  0  0  0  0  0  0  0  0  0  0  0
   -5.0952  -40.2653   -8.3595 H   0  0  0  0  0  0  0  0  0  0  0  0
   -7.9122  -39.3991   -7.5846 H   0  0  0  0  0  0  0  0  0  0  0  0
   -6.1933  -41.8909   -7.1194 H   0  0  0  0  0  0  0  0  0  0  0  0
   -9.0402  -41.1118   -6.2934 H   0  0  0  0  0  0  0  0  0  0  0  0
   -7.6350  -41.3745   -5.2057 H   0  0  0  0  0  0  0  0  0  0  0  0
   -6.3509  -37.7921   -8.9811 H   0  0  0  0  0  0  0  0  0  0  0  0
   -6.3595  -38.6325   -6.0767 H   0  0  0  0  0  0  0  0  0  0  0  0
   -8.7730  -43.3075   -6.9670 H   0  0  0  0  0  0  0  0  0  0  0  0
   -7.1797  -37.7229  -10.3833 H   0  0  0  0  0  0  0  0  0  0  0  0
   -9.4951  -37.1638   -9.7090 H   0  0  0  0  0  0  0  0  0  0  0  0
  -10.4272  -39.4150  -10.3219 H   0  0  0  0  0  0  0  0  0  0  0  0
  -10.0571  -38.4627  -13.2292 H   0  0  0  0  0  0  0  0  0  0  0  0
   -8.6663  -40.5544  -11.4836 H   0  0  0  0  0  0  0  0  0  0  0  0
   -8.0163  -41.6696  -13.3235 H   0  0  0  0  0  0  0  0  0  0  0  0
   -7.0101  -40.2319  -13.7072 H   0  0  0  0  0  0  0  0  0  0  0  0
  -11.5627  -37.2189  -11.7247 H   0  0  0  0  0  0  0  0  0  0  0  0
  -10.7054  -40.6979  -13.4162 H   0  0  0  0  0  0  0  0  0  0  0  0
   -9.7064  -40.6461  -14.4918 H   0  0  0  0  0  0  0  0  0  0  0  0
   -9.4996  -35.0807  -10.3985 H   0  0  0  0  0  0  0  0  0  0  0  0
  -10.3600  -34.5045  -12.6720 H   0  0  0  0  0  0  0  0  0  0  0  0
   -8.6337  -35.6989  -14.0242 H   0  0  0  0  0  0  0  0  0  0  0  0
   -6.7848  -33.4872  -13.0110 H   0  0  0  0  0  0  0  0  0  0  0  0
   -6.7539  -36.4746  -12.3500 H   0  0  0  0  0  0  0  0  0  0  0  0
   -4.6968  -34.6688  -12.4589 H   0  0  0  0  0  0  0  0  0  0  0  0
   -4.7760  -35.9856  -11.2396 H   0  0  0  0  0  0  0  0  0  0  0  0
   -8.0649  -33.0342  -11.7869 H   0  0  0  0  0  0  0  0  0  0  0  0
   -8.6498  -32.8582  -14.3080 H   0  0  0  0  0  0  0  0  0  0  0  0
   -6.2418  -34.3602  -15.0787 H   0  0  0  0  0  0  0  0  0  0  0  0
   -5.9398  -34.5136   -9.9054 H   0  0  0  0  0  0  0  0  0  0  0  0
   -1.1170  -46.9842  -11.6379 H   0  0  0  0  0  0  0  0  0  0  0  0
   -2.1388  -46.6092  -13.7439 H   0  0  0  0  0  0  0  0  0  0  0  0
    0.3573  -45.8098  -14.1369 H   0  0  0  0  0  0  0  0  0  0  0  0
   -1.5387  -43.9363  -12.7873 H   0  0  0  0  0  0  0  0  0  0  0  0
    1.1974  -45.1820  -12.8725 H   0  0  0  0  0  0  0  0  0  0  0  0
    2.0908  -43.1461  -12.5400 H   0  0  0  0  0  0  0  0  0  0  0  0
   -3.2329  -44.8694  -12.5529 H   0  0  0  0  0  0  0  0  0  0  0  0
   -0.3937  -42.0674  -13.3592 H   0  0  0  0  0  0  0  0  0  0  0  0
   -1.0882  -46.7887  -16.1581 H   0  0  0  0  0  0  0  0  0  0  0  0
    1.3274  -46.8646  -15.8928 H   0  0  0  0  0  0  0  0  0  0  0  0
    1.8087  -44.4877  -16.6412 H   0  0  0  0  0  0  0  0  0  0  0  0
    1.2388  -45.6807  -19.4073 H   0  0  0  0  0  0  0  0  0  0  0  0
   -0.4336  -43.6018  -17.9645 H   0  0  0  0  0  0  0  0  0  0  0  0
   -1.4879  -45.2376  -20.2286 H   0  0  0  0  0  0  0  0  0  0  0  0
   -0.1462  -44.1057  -20.6101 H   0  0  0  0  0  0  0  0  0  0  0  0
    1.9067  -47.6098  -18.0305 H   0  0  0  0  0  0  0  0  0  0  0  0
    3.1886  -46.4900  -18.1528 H   0  0  0  0  0  0  0  0  0  0  0  0
    2.6632  -43.8849  -19.1121 H   0  0  0  0  0  0  0  0  0  0  0  0
   -2.2267  -43.1225  -20.7802 H   0  0  0  0  0  0  0  0  0  0  0  0
    1.8729  -40.4371  -11.9244 H   0  0  0  0  0  0  0  0  0  0  0  0
    3.0642  -41.8219  -10.2750 H   0  0  0  0  0  0  0  0  0  0  0  0
    1.6408  -40.5046   -7.9406 H   0  0  0  0  0  0  0  0  0  0  0  0
    0.9821  -43.2814   -9.0313 H   0  0  0  0  0  0  0  0  0  0  0  0
   -0.9760  -43.2768   -7.6311 H   0  0  0  0  0  0  0  0  0  0  0  0
   -0.6475  -41.5958   -7.0896 H   0  0  0  0  0  0  0  0  0  0  0  0
    0.3899  -39.6173   -9.6354 H   0  0  0  0  0  0  0  0  0  0  0  0
    3.0887  -39.1599   -9.3837 H   0  0  0  0  0  0  0  0  0  0  0  0
    2.5985  -42.4006   -7.0362 H   0  0  0  0  0  0  0  0  0  0  0  0
    1.3503  -42.3750   -6.2879 H   0  0  0  0  0  0  0  0  0  0  0  0
   -6.5670  -46.0950   -9.1030 C   0  0  0  0  0  0  0  0  0  0  0  0
   -6.1420  -44.6590   -8.6580 C   0  0  2  0  0  0  0  0  0  0  0  0
   -6.0220  -43.7890   -9.9110 C   0  0  2  0  0  0  0  0  0  0  0  0
   -4.9000  -44.3660  -10.7330 C   0  0  1  0  0  0  0  0  0  0  0  0
   -4.9340  -45.8990  -10.8210 C   0  0  1  0  0  0  0  0  0  0  0  0
   -3.5740  -46.4360  -11.2760 C   0  0  0  0  0  0  0  0  0  0  0  0
   -4.9040  -44.5790   -7.9400 O   0  0  0  0  0  0  0  0  0  0  0  0
   -5.7270  -42.3970   -9.7380 O   0  0  0  0  0  0  0  0  0  0  0  0
   -5.0910  -43.7270  -11.9650 O   0  0  0  0  0  0  0  0  0  0  0  0
   -5.4260  -46.6440   -9.6810 O   0  0  0  0  0  0  0  0  0  0  0  0
   -2.5150  -45.4880  -11.1430 O   0  0  0  0  0  0  0  0  0  0  0  0
   -6.9670  -41.6670   -9.7010 C   0  0  2  0  0  0  0  0  0  0  0  0
   -6.7180  -40.1730   -9.7820 C   0  0  2  0  0  0  0  0  0  0  0  0
   -6.0020  -39.6690   -8.5390 C   0  0  2  0  0  0  0  0  0  0  0  0
   -6.9650  -39.9200   -7.3810 C   0  0  1  0  0  0  0  0  0  0  0  0
   -7.1610  -41.4030   -7.3080 C   0  0  1  0  0  0  0  0  0  0  0  0
   -8.1050  -41.6740   -6.1540 C   0  0  0  0  0  0  0  0  0  0  0  0
   -7.9920  -39.5580   -9.8560 O   0  0  0  0  0  0  0  0  0  0  0  0
   -5.5890  -38.3260   -8.7890 O   0  0  0  0  0  0  0  0  0  0  0  0
   -6.5090  -39.5700   -6.1110 O   0  0  0  0  0  0  0  0  0  0  0  0
   -7.7120  -41.9220   -8.5200 O   0  0  0  0  0  0  0  0  0  0  0  0
   -8.3720  -43.0570   -6.1430 O   0  0  0  0  0  0  0  0  0  0  0  0
   -7.9890  -38.3920  -10.7110 C   0  0  2  0  0  0  0  0  0  0  0  0
   -9.3090  -37.6210  -10.6920 C   0  0  2  0  0  0  0  0  0  0  0  0
  -10.3780  -38.6100  -11.0700 C   0  0  2  0  0  0  0  0  0  0  0  0
  -10.0160  -39.2110  -12.4240 C   0  0  1  0  0  0  0  0  0  0  0  0
   -8.6400  -39.8440  -12.3230 C   0  0  1  0  0  0  0  0  0  0  0  0
   -8.0350  -40.5890  -13.5280 C   0  0  0  0  0  0  0  0  0  0  0  0
   -9.2950  -36.6440  -11.7300 O   0  0  0  0  0  0  0  0  0  0  0  0
  -11.6070  -37.9270  -11.0930 O   0  0  0  0  0  0  0  0  0  0  0  0
  -10.9200  -40.2330  -12.6160 O   0  0  0  0  0  0  0  0  0  0  0  0
   -7.7710  -38.7840  -12.0330 O   0  0  0  0  0  0  0  0  0  0  0  0
   -8.8220  -40.3380  -14.6510 O   0  0  0  0  0  0  0  0  0  0  0  0
   -8.9180  -35.3310  -11.2980 C   0  0  2  0  0  0  0  0  0  0  0  0
   -9.2920  -34.4030  -12.4290 C   0  0  2  0  0  0  0  0  0  0  0  0
   -8.4440  -34.6810  -13.6530 C   0  0  2  0  0  0  0  0  0  0  0  0
   -6.9690  -34.5390  -13.2750 C   0  0  1  0  0  0  0  0  0  0  0  0
   -6.6760  -35.4140  -12.0690 C   0  0  1  0  0  0  0  0  0  0  0  0
   -5.2790  -35.0860  -11.6240 C   0  0  0  0  0  0  0  0  0  0  0  0
   -8.9890  -33.0910  -12.0000 O   0  0  0  0  0  0  0  0  0  0  0  0
   -8.7990  -33.7350  -14.6420 O   0  0  0  0  0  0  0  0  0  0  0  0
   -6.0720  -34.8990  -14.3150 O   0  0  0  0  0  0  0  0  0  0  0  0
   -7.5510  -35.1440  -10.9970 O   0  0  0  0  0  0  0  0  0  0  0  0
   -5.4270  -34.1410  -10.6130 O   0  0  0  0  0  0  0  0  0  0  0  0
   -1.3010  -45.9160  -11.8250 C   0  0  1  0  0  0  0  0  0  0  0  0
   -1.6600  -45.7210  -13.3060 C   0  0  2  0  0  0  0  0  0  0  0  0
   -0.5540  -45.1980  -14.2090 C   0  0  2  0  0  0  0  0  0  0  0  0
   -0.5820  -43.9950  -13.3270 C   0  0  1  0  0  0  0  0  0  0  0  0
    0.4820  -44.5070  -12.3800 C   0  0  1  0  0  0  0  0  0  0  0  0
    1.1260  -43.2400  -12.0200 C   0  0  1  0  0  0  0  0  0  0  0  0
   -2.5090  -44.6170  -13.1140 O   0  0  0  0  0  0  0  0  0  0  0  0
   -0.7160  -44.8420  -15.5760 O   0  0  0  0  0  0  0  0  0  0  0  0
   -0.4630  -42.7690  -13.9960 O   0  0  0  0  0  0  0  0  0  0  0  0
   -0.1620  -45.1930  -11.3450 O   0  0  0  0  0  0  0  0  0  0  0  0
    0.0650  -42.2930  -11.9130 O   0  0  0  0  0  0  0  0  0  0  0  0
   -0.5330  -45.9220  -16.5460 C   0  0  2  0  0  0  0  0  0  0  0  0
    0.9200  -46.4310  -16.8180 C   0  0  2  0  0  0  0  0  0  0  0  0
    1.8000  -45.3280  -17.3510 C   0  0  2  0  0  0  0  0  0  0  0  0
    1.1110  -44.8980  -18.6450 C   0  0  1  0  0  0  0  0  0  0  0  0
   -0.3740  -44.5540  -18.5120 C   0  0  1  0  0  0  0  0  0  0  0  0
   -0.9630  -44.3260  -19.9070 C   0  0  0  0  0  0  0  0  0  0  0  0
    1.0010  -47.3540  -17.9010 O   0  0  0  0  0  0  0  0  0  0  0  0
    3.1720  -45.7510  -17.5560 O   0  0  0  0  0  0  0  0  0  0  0  0
    1.7310  -43.7300  -19.0140 O   0  0  0  0  0  0  0  0  0  0  0  0
   -1.1570  -45.5040  -17.7660 O   0  0  0  0  0  0  0  0  0  0  0  0
   -1.8770  -43.2420  -19.9050 O   0  0  0  0  0  0  0  0  0  0  0  0
    0.5960  -41.7620  -10.7300 C   0  0  2  0  0  0  0  0  0  0  0  0
    1.4820  -40.5630  -10.9040 C   0  0  2  0  0  0  0  0  0  0  0  0
    2.5360  -40.9420   -9.8790 C   0  0  2  0  0  0  0  0  0  0  0  0
    1.9050  -41.3930   -8.5330 C   0  0  1  0  0  0  0  0  0  0  0  0
    0.6450  -42.3020   -8.6610 C   0  0  1  0  0  0  0  0  0  0  0  0
   -0.1880  -42.5380   -7.4230 C   0  0  0  0  0  0  0  0  0  0  0  0
    0.8070  -39.4340  -10.4690 O   0  0  0  0  0  0  0  0  0  0  0  0
    3.4890  -39.9300   -9.7700 O   0  0  0  0  0  0  0  0  0  0  0  0
    2.9030  -42.1350   -7.8960 O   0  0  0  0  0  0  0  0  0  0  0  0
   -0.2340  -41.7010   -9.6100 O   0  0  0  0  0  0  0  0  0  0  0  0
    0.6710  -43.0180   -6.4540 O   0  0  0  0  0  0  0  0  0  0  0  0
 71  1  1  0  0  0  0
 71  2  1  0  0  0  0
 71 80  1  0  0  0  0
 72  3  1  1  0  0  0
 72 71  1  0  0  0  0
 72 77  1  0  0  0  0
 73  4  1  6  0  0  0
 73 72  1  0  0  0  0
 73 74  1  0  0  0  0
 74  5  1  1  0  0  0
 74 75  1  0  0  0  0
 74 79  1  0  0  0  0
 75  6  1  6  0  0  0
 75 76  1  0  0  0  0
 75 80  1  0  0  0  0
 76  7  1  0  0  0  0
 76  8  1  0  0  0  0
 76 81  1  0  0  0  0
 77  9  1  0  0  0  0
 78 73  1  0  0  0  0
 79 10  1  0  0  0  0
 81115  1  0  0  0  0
 82 11  1  6  0  0  0
 82 83  1  0  0  0  0
 82 91  1  0  0  0  0
 82 78  1  0  0  0  0
 83 12  1  6  0  0  0
 83 84  1  0  0  0  0
 83 88  1  0  0  0  0
 84 13  1  1  0  0  0
 84 85  1  0  0  0  0
 84 89  1  0  0  0  0
 85 14  1  6  0  0  0
 85 90  1  0  0  0  0
 86 15  1  1  0  0  0
 86 85  1  0  0  0  0
 86 87  1  0  0  0  0
 87 16  1  0  0  0  0
 87 17  1  0  0  0  0
 87 92  1  0  0  0  0
 88 93  1  0  0  0  0
 89 18  1  0  0  0  0
 90 19  1  0  0  0  0
 91 86  1  0  0  0  0
 92 20  1  0  0  0  0
 93 21  1  1  0  0  0
 93 94  1  0  0  0  0
 93102  1  0  0  0  0
 94 22  1  1  0  0  0
 94 95  1  0  0  0  0
 94 99  1  0  0  0  0
 95 23  1  1  0  0  0
 95 96  1  0  0  0  0
 95100  1  0  0  0  0
 96 24  1  6  0  0  0
 96101  1  0  0  0  0
 97 25  1  1  0  0  0
 97 96  1  0  0  0  0
 97 98  1  0  0  0  0
 98 26  1  0  0  0  0
 98 27  1  0  0  0  0
 98103  1  0  0  0  0
 99104  1  0  0  0  0
100 28  1  0  0  0  0
101 29  1  0  0  0  0
102 97  1  0  0  0  0
103 30  1  0  0  0  0
104 31  1  1  0  0  0
104105  1  0  0  0  0
104113  1  0  0  0  0
105 32  1  6  0  0  0
105106  1  0  0  0  0
105110  1  0  0  0  0
106 33  1  6  0  0  0
106107  1  0  0  0  0
106111  1  0  0  0  0
107 34  1  1  0  0  0
107112  1  0  0  0  0
108 35  1  6  0  0  0
108107  1  0  0  0  0
108109  1  0  0  0  0
109 36  1  0  0  0  0
109 37  1  0  0  0  0
109114  1  0  0  0  0
110 38  1  0  0  0  0
111 39  1  0  0  0  0
112 40  1  0  0  0  0
113108  1  0  0  0  0
114 41  1  0  0  0  0
115 42  1  1  0  0  0
115116  1  0  0  0  0
115124  1  0  0  0  0
116 43  1  6  0  0  0
116117  1  0  0  0  0
116121  1  0  0  0  0
117 44  1  1  0  0  0
117118  1  0  0  0  0
117122  1  0  0  0  0
118 45  1  1  0  0  0
118123  1  0  0  0  0
119 46  1  6  0  0  0
119118  1  0  0  0  0
119120  1  0  0  0  0
120 47  1  6  0  0  0
120125  1  0  0  0  0
120137  1  0  0  0  0
121 48  1  0  0  0  0
122126  1  0  0  0  0
123 49  1  0  0  0  0
124119  1  0  0  0  0
126 50  1  1  0  0  0
126127  1  0  0  0  0
126135  1  0  0  0  0
127 51  1  1  0  0  0
127128  1  0  0  0  0
127132  1  0  0  0  0
128 52  1  1  0  0  0
128129  1  0  0  0  0
128133  1  0  0  0  0
129 53  1  6  0  0  0
129134  1  0  0  0  0
130 54  1  1  0  0  0
130129  1  0  0  0  0
130131  1  0  0  0  0
131 55  1  0  0  0  0
131 56  1  0  0  0  0
131136  1  0  0  0  0
132 57  1  0  0  0  0
133 58  1  0  0  0  0
134 59  1  0  0  0  0
135130  1  0  0  0  0
136 60  1  0  0  0  0
137138  1  0  0  0  0
137146  1  1  0  0  0
137125  1  0  0  0  0
138 61  1  6  0  0  0
138139  1  0  0  0  0
138143  1  0  0  0  0
139 62  1  6  0  0  0
139140  1  0  0  0  0
139144  1  0  0  0  0
140 63  1  1  0  0  0
140145  1  0  0  0  0
141 64  1  6  0  0  0
141140  1  0  0  0  0
141142  1  0  0  0  0
142 65  1  0  0  0  0
142 66  1  0  0  0  0
142147  1  0  0  0  0
143 67  1  0  0  0  0
144 68  1  0  0  0  0
145 69  1  0  0  0  0
146141  1  0  0  0  0
147 70  1  0  0  0  0
M  END
