1zm6_ligand
 OpenBabel08222323343D

 83 83  0  0  1  0  0  0  0  0999 V2000
   29.9450   27.4240  -11.1580 N   0  3  0  0  0  0  0  0  0  0  0  0
   29.4400   28.7610  -11.5000 C   0  0  2  0  0  0  0  0  0  0  0  0
   30.2690   29.8710  -10.8500 C   0  0  0  0  0  0  0  0  0  0  0  0
   30.6940   30.8050  -11.5210 O   0  0  0  0  0  0  0  0  0  0  0  0
   27.9570   28.9040  -11.0790 C   0  0  0  0  0  0  0  0  0  0  0  0
   27.1180   30.0170  -11.7300 C   0  0  0  0  0  0  0  0  0  0  0  0
   25.8290   29.4510  -12.3000 C   0  0  0  0  0  0  0  0  0  0  0  0
   26.8390   31.1240  -10.7160 C   0  0  0  0  0  0  0  0  0  0  0  0
   30.5170   29.7940   -9.5110 N   0  0  0  0  0  0  0  0  0  0  0  0
   31.2770   30.9010   -8.8520 C   0  0  2  0  0  0  0  0  0  0  0  0
   32.0290   30.6960   -7.4810 C   0  0  0  0  0  0  0  0  0  0  0  0
   32.0140   29.6380   -6.8540 O   0  0  0  0  0  0  0  0  0  0  0  0
   30.3170   32.0740   -8.7060 C   0  0  0  0  0  0  0  0  0  0  0  0
   32.6800   31.8690   -7.1010 N   0  0  0  0  0  0  0  0  0  0  0  0
   33.6350   32.3190   -6.0350 C   0  0  2  0  0  0  0  0  0  0  0  0
   33.5480   32.0900   -4.5360 C   0  0  0  0  0  0  0  0  0  0  0  0
   32.6060   32.5150   -3.8470 O   0  0  0  0  0  0  0  0  0  0  0  0
   33.7640   33.8690   -6.1060 C   0  0  2  0  0  0  0  0  0  0  0  0
   33.8050   34.3330   -7.5480 C   0  0  0  0  0  0  0  0  0  0  0  0
   35.0140   34.3360   -5.3710 C   0  0  0  0  0  0  0  0  0  0  0  0
   32.4620   34.3030   -8.2280 C   0  0  0  0  0  0  0  0  0  0  0  0
   34.5980   31.3880   -4.0730 N   0  0  0  0  0  0  0  0  0  0  0  0
   34.8200   31.2340   -2.6400 C   0  0  2  0  0  0  0  0  0  0  0  0
   35.4930   32.5160   -2.2970 C   0  0  0  0  0  0  0  0  0  0  0  0
   34.9430   33.5850   -2.5240 O   0  0  0  0  0  0  0  0  0  0  0  0
   35.7150   30.0470   -2.2750 C   0  0  0  0  0  0  0  0  0  0  0  0
   35.5710   29.0170   -3.3240 C   0  0  0  0  0  0  0  0  0  0  0  0
   35.9850   29.3430   -4.5950 C   0  0  0  0  0  0  0  0  0  0  0  0
   35.0010   27.7790   -3.0540 C   0  0  0  0  0  0  0  0  0  0  0  0
   35.8260   28.4590   -5.6230 C   0  0  0  0  0  0  0  0  0  0  0  0
   34.8220   26.9020   -4.0980 C   0  0  0  0  0  0  0  0  0  0  0  0
   35.2320   27.2430   -5.3770 C   0  0  0  0  0  0  0  0  0  0  0  0
   35.0340   26.3530   -6.4030 O   0  0  0  0  0  0  0  0  0  0  0  0
   36.6560   32.4210   -1.7700 N   0  0  0  0  0  0  0  0  0  0  0  0
   37.3280   33.6160   -1.4510 C   0  0  2  0  0  0  0  0  0  0  0  0
   38.4330   33.9240   -2.4540 C   0  0  0  0  0  0  0  0  0  0  0  0
   38.1760   34.3810   -3.5720 O   0  5  0  0  0  0  0  0  0  0  0  0
   37.8640   33.5050   -0.0330 C   0  0  0  0  0  0  0  0  0  0  0  0
   38.6670   34.6270    0.3020 O   0  0  0  0  0  0  0  0  0  0  0  0
   39.5930   33.6670   -2.1250 O   0  0  0  0  0  0  0  0  0  0  0  0
   29.3730   26.7244  -11.6047 H   0  0  0  0  0  0  0  0  0  0  0  0
   29.9112   27.2976  -10.1585 H   0  0  0  0  0  0  0  0  0  0  0  0
   30.8971   27.3329  -11.4762 H   0  0  0  0  0  0  0  0  0  0  0  0
   29.5049   28.8795  -12.5917 H   0  0  0  0  0  0  0  0  0  0  0  0
   27.9421   29.0780   -9.9930 H   0  0  0  0  0  0  0  0  0  0  0  0
   27.4610   27.9484  -11.3041 H   0  0  0  0  0  0  0  0  0  0  0  0
   27.6981   30.4484  -12.5591 H   0  0  0  0  0  0  0  0  0  0  0  0
   25.2446   30.2614  -12.7601 H   0  0  0  0  0  0  0  0  0  0  0  0
   25.2425   28.9891  -11.4921 H   0  0  0  0  0  0  0  0  0  0  0  0
   26.0663   28.6926  -13.0606 H   0  0  0  0  0  0  0  0  0  0  0  0
   27.7913   31.5107  -10.3240 H   0  0  0  0  0  0  0  0  0  0  0  0
   26.2387   30.7197   -9.8876 H   0  0  0  0  0  0  0  0  0  0  0  0
   26.2861   31.9391  -11.2058 H   0  0  0  0  0  0  0  0  0  0  0  0
   30.1961   29.0106   -8.9788 H   0  0  0  0  0  0  0  0  0  0  0  0
   32.0602   31.1862   -9.5698 H   0  0  0  0  0  0  0  0  0  0  0  0
   30.8365   32.9150   -8.2235 H   0  0  0  0  0  0  0  0  0  0  0  0
   29.4585   31.7706   -8.0888 H   0  0  0  0  0  0  0  0  0  0  0  0
   29.9626   32.3838   -9.7002 H   0  0  0  0  0  0  0  0  0  0  0  0
   32.4433   32.6243   -7.7121 H   0  0  0  0  0  0  0  0  0  0  0  0
   34.5912   31.8657   -6.3351 H   0  0  0  0  0  0  0  0  0  0  0  0
   32.8842   34.3149   -5.6191 H   0  0  0  0  0  0  0  0  0  0  0  0
   34.4916   33.6784   -8.1048 H   0  0  0  0  0  0  0  0  0  0  0  0
   34.1835   35.3656   -7.5707 H   0  0  0  0  0  0  0  0  0  0  0  0
   34.9742   33.9942   -4.3262 H   0  0  0  0  0  0  0  0  0  0  0  0
   35.0650   35.4345   -5.3957 H   0  0  0  0  0  0  0  0  0  0  0  0
   35.9054   33.9164   -5.8603 H   0  0  0  0  0  0  0  0  0  0  0  0
   32.5688   34.6511   -9.2660 H   0  0  0  0  0  0  0  0  0  0  0  0
   31.7640   34.9616   -7.6904 H   0  0  0  0  0  0  0  0  0  0  0  0
   32.0721   33.2744   -8.2245 H   0  0  0  0  0  0  0  0  0  0  0  0
   35.2341   30.9666   -4.7194 H   0  0  0  0  0  0  0  0  0  0  0  0
   33.8614   31.1325   -2.1101 H   0  0  0  0  0  0  0  0  0  0  0  0
   35.4067   29.6337   -1.3033 H   0  0  0  0  0  0  0  0  0  0  0  0
   36.7633   30.3754   -2.2178 H   0  0  0  0  0  0  0  0  0  0  0  0
   36.4407   30.3087   -4.7814 H   0  0  0  0  0  0  0  0  0  0  0  0
   34.7050   27.5113   -2.0462 H   0  0  0  0  0  0  0  0  0  0  0  0
   36.1639   28.7123   -6.6214 H   0  0  0  0  0  0  0  0  0  0  0  0
   34.3577   25.9389   -3.9195 H   0  0  0  0  0  0  0  0  0  0  0  0
   35.3644   26.7255   -7.2121 H   0  0  0  0  0  0  0  0  0  0  0  0
   37.0722   31.5294   -1.5914 H   0  0  0  0  0  0  0  0  0  0  0  0
   36.6033   34.4429   -1.4846 H   0  0  0  0  0  0  0  0  0  0  0  0
   38.4712   32.5916    0.0505 H   0  0  0  0  0  0  0  0  0  0  0  0
   37.0175   33.4479    0.6671 H   0  0  0  0  0  0  0  0  0  0  0  0
   39.4024   34.6789   -0.2972 H   0  0  0  0  0  0  0  0  0  0  0  0
  1  2  1  0  0  0  0
  1 41  1  0  0  0  0
  1 42  1  0  0  0  0
  1 43  1  0  0  0  0
  2  3  1  0  0  0  0
  2  5  1  0  0  0  0
  2 44  1  6  0  0  0
  3  4  2  0  0  0  0
  3  9  1  0  0  0  0
  5  6  1  0  0  0  0
  5 45  1  0  0  0  0
  5 46  1  0  0  0  0
  6  7  1  0  0  0  0
  6  8  1  0  0  0  0
  6 47  1  0  0  0  0
  7 48  1  0  0  0  0
  7 49  1  0  0  0  0
  7 50  1  0  0  0  0
  8 51  1  0  0  0  0
  8 52  1  0  0  0  0
  8 53  1  0  0  0  0
  9 10  1  0  0  0  0
  9 54  1  0  0  0  0
 10 11  1  0  0  0  0
 10 13  1  0  0  0  0
 10 55  1  6  0  0  0
 11 12  2  0  0  0  0
 11 14  1  0  0  0  0
 13 56  1  0  0  0  0
 13 57  1  0  0  0  0
 13 58  1  0  0  0  0
 14 15  1  0  0  0  0
 14 59  1  0  0  0  0
 15 16  1  0  0  0  0
 15 18  1  0  0  0  0
 15 60  1  6  0  0  0
 16 17  2  0  0  0  0
 16 22  1  0  0  0  0
 18 19  1  0  0  0  0
 18 20  1  0  0  0  0
 18 61  1  1  0  0  0
 19 21  1  0  0  0  0
 19 62  1  0  0  0  0
 19 63  1  0  0  0  0
 20 64  1  0  0  0  0
 20 65  1  0  0  0  0
 20 66  1  0  0  0  0
 21 67  1  0  0  0  0
 21 68  1  0  0  0  0
 21 69  1  0  0  0  0
 22 23  1  0  0  0  0
 22 70  1  0  0  0  0
 23 24  1  0  0  0  0
 23 26  1  0  0  0  0
 23 71  1  1  0  0  0
 24 25  2  0  0  0  0
 24 34  1  0  0  0  0
 26 27  1  0  0  0  0
 26 72  1  0  0  0  0
 26 73  1  0  0  0  0
 27 28  2  0  0  0  0
 27 29  1  0  0  0  0
 28 30  1  0  0  0  0
 28 74  1  0  0  0  0
 29 31  2  0  0  0  0
 29 75  1  0  0  0  0
 30 32  2  0  0  0  0
 30 76  1  0  0  0  0
 31 32  1  0  0  0  0
 31 77  1  0  0  0  0
 32 33  1  0  0  0  0
 33 78  1  0  0  0  0
 34 35  1  0  0  0  0
 34 79  1  0  0  0  0
 35 36  1  0  0  0  0
 35 38  1  0  0  0  0
 35 80  1  6  0  0  0
 36 37  1  0  0  0  0
 36 40  2  0  0  0  0
 38 39  1  0  0  0  0
 38 81  1  0  0  0  0
 38 82  1  0  0  0  0
 39 83  1  0  0  0  0
M  CHG  2   1   1  37  -1
M  END
