1zom_ligand
 OpenBabel08222323343D

 92 93  0  0  1  0  0  0  0  0999 V2000
   11.5170   51.1600   25.0990 C   0  0  1  0  0  0  0  0  0  0  0  0
   11.8800   51.2140   23.5830 C   0  0  1  0  0  0  0  0  0  0  0  0
   11.7280   52.5610   25.7520 C   0  0  0  0  0  0  0  0  0  0  0  0
   10.1370   50.8070   25.1710 O   0  0  0  0  0  0  0  0  0  0  0  0
   13.3390   51.5570   23.4590 N   0  0  0  0  0  0  0  0  0  0  0  0
   11.6680   49.8610   22.8880 C   0  0  0  0  0  0  0  0  0  0  0  0
   12.0110   49.9140   21.4000 C   0  0  0  0  0  0  0  0  0  0  0  0
   11.8040   48.5690   20.7430 C   0  0  0  0  0  0  0  0  0  0  0  0
   11.7580   48.8070   19.3050 N   0  0  0  0  0  0  0  0  0  0  0  0
   11.3390   47.9800   18.3420 C   0  0  0  0  0  3  0  0  0  0  0  0
   11.1520   46.6630   18.5590 N   0  0  0  0  0  0  0  0  0  0  0  0
   11.1120   48.5070   17.1430 N   0  0  0  0  0  0  0  0  0  0  0  0
   12.7470   52.8440   26.5100 N   0  0  0  0  0  0  0  0  0  0  0  0
   12.6530   54.1780   26.9320 C   0  0  0  0  0  0  0  0  0  0  0  0
   11.5190   54.8170   26.4310 C   0  0  0  0  0  0  0  0  0  0  0  0
   10.5850   53.8000   25.4600 S   0  0  0  0  0  0  0  0  0  0  0  0
   15.8550   53.3840   21.6960 N   0  0  0  0  0  0  0  0  0  0  0  0
   15.4690   52.7540   23.0100 C   0  0  2  0  0  0  0  0  0  0  0  0
   13.9110   52.6980   23.0460 C   0  0  0  0  0  0  0  0  0  0  0  0
   13.2450   53.6740   22.6950 O   0  0  0  0  0  0  0  0  0  0  0  0
   15.9860   53.5980   24.2340 C   0  0  0  0  0  0  0  0  0  0  0  0
   17.1790   52.8670   24.8420 C   0  0  0  0  0  0  0  0  0  0  0  0
   16.4900   55.0230   23.8560 C   0  0  0  0  0  0  0  0  0  0  0  0
   16.2200   55.1140   19.5340 N   0  0  0  0  0  0  0  0  0  0  0  0
   16.0380   53.7000   19.2060 C   0  0  2  0  0  0  0  0  0  0  0  0
   15.5770   52.9060   20.4400 C   0  0  0  0  0  0  0  0  0  0  0  0
   14.9590   51.8580   20.2420 O   0  0  0  0  0  0  0  0  0  0  0  0
   17.3440   53.1370   18.6530 C   0  0  0  0  0  0  0  0  0  0  0  0
   17.5950   53.6240   17.2320 C   0  0  0  0  0  0  0  0  0  0  0  0
   18.8820   53.0620   16.6920 C   0  0  0  0  0  0  0  0  0  0  0  0
   18.8260   53.1310   15.2320 N   0  0  0  0  0  0  0  0  0  0  0  0
   19.8270   52.9960   14.3460 C   0  0  0  0  0  0  0  0  0  0  0  0
   19.6000   52.7290   13.0620 N   0  0  0  0  0  0  0  0  0  0  0  0
   21.0610   53.1420   14.7670 O   0  0  0  0  0  0  0  0  0  0  0  0
   15.2370   56.0200   19.4570 C   0  0  0  0  0  0  0  0  0  0  0  0
   14.0760   55.6820   19.0860 O   0  0  0  0  0  0  0  0  0  0  0  0
   15.5480   57.3060   19.8100 N   0  0  0  0  0  0  0  0  0  0  0  0
   14.6030   58.4800   19.8400 C   0  0  1  0  0  0  0  0  0  0  0  0
   13.4530   58.2140   20.8840 C   0  0  0  0  0  0  0  0  0  0  0  0
   12.2380   59.0160   20.8330 C   0  0  0  0  0  0  0  0  0  0  0  0
   11.1630   58.7810   21.7790 C   0  0  0  0  0  0  0  0  0  0  0  0
   11.2830   57.7390   22.7980 C   0  0  0  0  0  0  0  0  0  0  0  0
   12.4720   56.9430   22.8640 C   0  0  0  0  0  0  0  0  0  0  0  0
   13.5410   57.1620   21.9390 C   0  0  0  0  0  0  0  0  0  0  0  0
    9.9050   57.4070   24.0350 Br  0  0  0  0  0  0  0  0  0  0  0  0
   15.3680   59.7540   20.2320 C   0  0  0  0  0  0  0  0  0  0  0  0
   12.1351   50.4107   25.6153 H   0  0  0  0  0  0  0  0  0  0  0  0
   11.2649   51.9806   23.0890 H   0  0  0  0  0  0  0  0  0  0  0  0
   10.0084   49.9539   24.7734 H   0  0  0  0  0  0  0  0  0  0  0  0
   13.9737   50.8304   23.7221 H   0  0  0  0  0  0  0  0  0  0  0  0
   10.6134   49.5682   22.9978 H   0  0  0  0  0  0  0  0  0  0  0  0
   12.3094   49.1100   23.3724 H   0  0  0  0  0  0  0  0  0  0  0  0
   13.0638   50.2112   21.2849 H   0  0  0  0  0  0  0  0  0  0  0  0
   11.3646   50.6563   20.9090 H   0  0  0  0  0  0  0  0  0  0  0  0
   10.8582   48.1224   21.0836 H   0  0  0  0  0  0  0  0  0  0  0  0
   12.6375   47.8947   20.9890 H   0  0  0  0  0  0  0  0  0  0  0  0
   12.0908   49.7299   18.9914 H   0  0  0  0  0  0  0  0  0  0  0  0
   10.8281   46.0557   17.7927 H   0  0  0  0  0  0  0  0  0  0  0  0
   11.3330   46.2638   19.4911 H   0  0  0  0  0  0  0  0  0  0  0  0
   11.2579   49.5147   16.9873 H   0  0  0  0  0  0  0  0  0  0  0  0
   10.7902   47.9077   16.3696 H   0  0  0  0  0  0  0  0  0  0  0  0
   13.3839   54.6611   27.5788 H   0  0  0  0  0  0  0  0  0  0  0  0
   11.2649   55.8546   26.6423 H   0  0  0  0  0  0  0  0  0  0  0  0
   16.3680   54.2410   21.7447 H   0  0  0  0  0  0  0  0  0  0  0  0
   15.8861   51.7379   23.0696 H   0  0  0  0  0  0  0  0  0  0  0  0
   15.1748   53.6865   24.9717 H   0  0  0  0  0  0  0  0  0  0  0  0
   17.5597   53.4381   25.7016 H   0  0  0  0  0  0  0  0  0  0  0  0
   17.9726   52.7687   24.0867 H   0  0  0  0  0  0  0  0  0  0  0  0
   16.8650   51.8672   25.1762 H   0  0  0  0  0  0  0  0  0  0  0  0
   15.6647   55.5975   23.4102 H   0  0  0  0  0  0  0  0  0  0  0  0
   17.3129   54.9405   23.1308 H   0  0  0  0  0  0  0  0  0  0  0  0
   16.8481   55.5371   24.7601 H   0  0  0  0  0  0  0  0  0  0  0  0
   17.1247   55.4196   19.8309 H   0  0  0  0  0  0  0  0  0  0  0  0
   15.2624   53.6157   18.4305 H   0  0  0  0  0  0  0  0  0  0  0  0
   17.2891   52.0384   18.6514 H   0  0  0  0  0  0  0  0  0  0  0  0
   18.1755   53.4617   19.2958 H   0  0  0  0  0  0  0  0  0  0  0  0
   17.6538   54.7224   17.2327 H   0  0  0  0  0  0  0  0  0  0  0  0
   16.7631   53.3017   16.5885 H   0  0  0  0  0  0  0  0  0  0  0  0
   18.9965   52.0160   17.0124 H   0  0  0  0  0  0  0  0  0  0  0  0
   19.7323   53.6539   17.0616 H   0  0  0  0  0  0  0  0  0  0  0  0
   17.9216   53.3015   14.8409 H   0  0  0  0  0  0  0  0  0  0  0  0
   20.3673   52.6345   12.4277 H   0  0  0  0  0  0  0  0  0  0  0  0
   18.6621   52.6229   12.7316 H   0  0  0  0  0  0  0  0  0  0  0  0
   16.4960   57.4839   20.0740 H   0  0  0  0  0  0  0  0  0  0  0  0
   14.1620   58.6147   18.8413 H   0  0  0  0  0  0  0  0  0  0  0  0
   12.1363   59.7929   20.0839 H   0  0  0  0  0  0  0  0  0  0  0  0
   10.2630   59.3832   21.7299 H   0  0  0  0  0  0  0  0  0  0  0  0
   12.5623   56.1704   23.6190 H   0  0  0  0  0  0  0  0  0  0  0  0
   14.4339   56.5509   22.0057 H   0  0  0  0  0  0  0  0  0  0  0  0
   14.6737   60.6070   20.2522 H   0  0  0  0  0  0  0  0  0  0  0  0
   16.1628   59.9456   19.4960 H   0  0  0  0  0  0  0  0  0  0  0  0
   15.8150   59.6214   21.2283 H   0  0  0  0  0  0  0  0  0  0  0  0
  1  3  1  0  0  0  0
  1  4  1  0  0  0  0
  1 47  1  1  0  0  0
  2  1  1  0  0  0  0
  2  6  1  0  0  0  0
  2 48  1  6  0  0  0
  3 13  2  0  0  0  0
  3 16  1  0  0  0  0
  4 49  1  0  0  0  0
  5  2  1  0  0  0  0
  5 50  1  0  0  0  0
  6  7  1  0  0  0  0
  6 51  1  0  0  0  0
  6 52  1  0  0  0  0
  7  8  1  0  0  0  0
  7 53  1  0  0  0  0
  7 54  1  0  0  0  0
  8  9  1  0  0  0  0
  8 55  1  0  0  0  0
  8 56  1  0  0  0  0
  9 10  1  0  0  0  0
  9 57  1  0  0  0  0
 10 11  1  0  0  0  0
 10 12  1  0  0  0  0
 11 58  1  0  0  0  0
 11 59  1  0  0  0  0
 12 60  1  0  0  0  0
 12 61  1  0  0  0  0
 13 14  1  0  0  0  0
 14 62  1  0  0  0  0
 15 14  2  0  0  0  0
 15 63  1  0  0  0  0
 16 15  1  0  0  0  0
 17 18  1  0  0  0  0
 17 64  1  0  0  0  0
 18 19  1  0  0  0  0
 18 21  1  0  0  0  0
 18 65  1  1  0  0  0
 19  5  1  0  0  0  0
 19 20  2  0  0  0  0
 21 22  1  0  0  0  0
 21 23  1  0  0  0  0
 21 66  1  0  0  0  0
 22 67  1  0  0  0  0
 22 68  1  0  0  0  0
 22 69  1  0  0  0  0
 23 70  1  0  0  0  0
 23 71  1  0  0  0  0
 23 72  1  0  0  0  0
 24 35  1  0  0  0  0
 24 73  1  0  0  0  0
 25 24  1  0  0  0  0
 25 26  1  0  0  0  0
 25 28  1  0  0  0  0
 25 74  1  6  0  0  0
 26 17  1  0  0  0  0
 26 27  2  0  0  0  0
 28 29  1  0  0  0  0
 28 75  1  0  0  0  0
 28 76  1  0  0  0  0
 29 30  1  0  0  0  0
 29 77  1  0  0  0  0
 29 78  1  0  0  0  0
 30 31  1  0  0  0  0
 30 79  1  0  0  0  0
 30 80  1  0  0  0  0
 31 32  1  0  0  0  0
 31 81  1  0  0  0  0
 32 33  1  0  0  0  0
 32 34  2  0  0  0  0
 33 82  1  0  0  0  0
 33 83  1  0  0  0  0
 35 36  2  0  0  0  0
 35 37  1  0  0  0  0
 37 38  1  0  0  0  0
 37 84  1  0  0  0  0
 38 39  1  0  0  0  0
 38 46  1  0  0  0  0
 38 85  1  6  0  0  0
 39 40  2  0  0  0  0
 39 44  1  0  0  0  0
 40 41  1  0  0  0  0
 40 86  1  0  0  0  0
 41 42  2  0  0  0  0
 41 87  1  0  0  0  0
 42 43  1  0  0  0  0
 42 45  1  0  0  0  0
 43 44  2  0  0  0  0
 43 88  1  0  0  0  0
 44 89  1  0  0  0  0
 46 90  1  0  0  0  0
 46 91  1  0  0  0  0
 46 92  1  0  0  0  0
M  END
