1zpb_ligand
 OpenBabel08222323343D

 67 67  0  0  1  0  0  0  0  0999 V2000
   11.3020   51.0770   25.3530 C   0  0  1  0  0  0  0  0  0  0  0  0
   11.6400   51.1450   23.8490 C   0  0  2  0  0  0  0  0  0  0  0  0
   11.6440   52.3670   26.1200 C   0  0  0  0  0  0  0  0  0  0  0  0
    9.9060   50.8660   25.4720 O   0  0  0  0  0  0  0  0  0  0  0  0
   10.4880   53.6040   26.4470 S   0  0  0  0  0  0  0  0  0  0  0  0
   11.7440   54.4510   27.2370 C   0  0  0  0  0  0  0  0  0  0  0  0
   12.9470   53.7600   27.2050 C   0  0  0  0  0  0  0  0  0  0  0  0
   12.8480   52.5450   26.5420 N   0  0  0  0  0  0  0  0  0  0  0  0
   11.2840   49.8310   23.1240 C   0  0  0  0  0  0  0  0  0  0  0  0
   11.1950   50.0540   21.6050 C   0  0  0  0  0  0  0  0  0  0  0  0
   13.0570   51.3430   23.6730 N   0  0  0  0  0  0  0  0  0  0  0  0
   13.6230   52.4290   23.1640 C   0  0  0  0  0  0  0  0  0  0  0  0
   15.1480   52.3870   23.0880 C   0  0  2  0  0  0  0  0  0  0  0  0
   15.8060   52.9700   24.3630 C   0  0  0  0  0  0  0  0  0  0  0  0
   15.6240   54.4930   24.5370 C   0  0  0  0  0  0  0  0  0  0  0  0
   17.3010   52.6320   24.3700 C   0  0  0  0  0  0  0  0  0  0  0  0
   15.6190   53.0870   21.8790 N   0  0  0  0  0  0  0  0  0  0  0  0
   15.3090   52.7060   20.6210 C   0  0  0  0  0  0  0  0  0  0  0  0
   15.9040   53.5390   19.4790 C   0  0  0  0  0  0  0  0  0  0  0  0
   16.8670   52.6720   18.6370 C   0  0  0  0  0  0  0  0  0  0  0  0
   17.3410   53.3200   17.3110 C   0  0  0  0  0  0  0  0  0  0  0  0
   18.2670   52.3300   16.6000 C   0  0  0  0  0  0  0  0  0  0  0  0
   18.1270   54.6240   17.5380 C   0  0  0  0  0  0  0  0  0  0  0  0
   14.5860   51.7260   20.3690 O   0  0  0  0  0  0  0  0  0  0  0  0
   12.9780   53.4090   22.7770 O   0  0  0  0  0  0  0  0  0  0  0  0
   11.4190   48.7530   20.8380 C   0  0  0  0  0  0  0  0  0  0  0  0
   11.3110   49.0400   19.4040 N   0  0  0  0  0  0  0  0  0  0  0  0
   11.0380   48.1540   18.4290 C   0  0  0  0  0  3  0  0  0  0  0  0
   10.8330   46.8600   18.7200 N   0  0  0  0  0  0  0  0  0  0  0  0
   10.9710   48.5790   17.1610 N   0  0  0  0  0  0  0  0  0  0  0  0
   11.8513   50.2375   25.8040 H   0  0  0  0  0  0  0  0  0  0  0  0
   11.0848   51.9791   23.3951 H   0  0  0  0  0  0  0  0  0  0  0  0
    9.6658   50.0735   25.0063 H   0  0  0  0  0  0  0  0  0  0  0  0
   11.6152   55.4226   27.7117 H   0  0  0  0  0  0  0  0  0  0  0  0
   13.8684   54.1309   27.6516 H   0  0  0  0  0  0  0  0  0  0  0  0
   10.3138   49.4668   23.4927 H   0  0  0  0  0  0  0  0  0  0  0  0
   12.0610   49.0811   23.3337 H   0  0  0  0  0  0  0  0  0  0  0  0
   11.9617   50.7833   21.3046 H   0  0  0  0  0  0  0  0  0  0  0  0
   10.1979   50.4477   21.3587 H   0  0  0  0  0  0  0  0  0  0  0  0
   13.6630   50.6004   23.9582 H   0  0  0  0  0  0  0  0  0  0  0  0
   15.4516   51.3327   23.0089 H   0  0  0  0  0  0  0  0  0  0  0  0
   15.3355   52.4810   25.2287 H   0  0  0  0  0  0  0  0  0  0  0  0
   16.1205   54.8181   25.4632 H   0  0  0  0  0  0  0  0  0  0  0  0
   14.5513   54.7300   24.5934 H   0  0  0  0  0  0  0  0  0  0  0  0
   16.0705   55.0161   23.6785 H   0  0  0  0  0  0  0  0  0  0  0  0
   17.4321   51.5469   24.2461 H   0  0  0  0  0  0  0  0  0  0  0  0
   17.7439   52.9480   25.3260 H   0  0  0  0  0  0  0  0  0  0  0  0
   17.7998   53.1584   23.5429 H   0  0  0  0  0  0  0  0  0  0  0  0
   16.2020   53.8908   21.9974 H   0  0  0  0  0  0  0  0  0  0  0  0
   16.4561   54.3922   19.9000 H   0  0  0  0  0  0  0  0  0  0  0  0
   15.0914   53.9091   18.8366 H   0  0  0  0  0  0  0  0  0  0  0  0
   16.3534   51.7306   18.3923 H   0  0  0  0  0  0  0  0  0  0  0  0
   17.7557   52.4567   19.2485 H   0  0  0  0  0  0  0  0  0  0  0  0
   16.4641   53.5331   16.6820 H   0  0  0  0  0  0  0  0  0  0  0  0
   18.6166   52.7694   15.6541 H   0  0  0  0  0  0  0  0  0  0  0  0
   17.7184   51.3997   16.3914 H   0  0  0  0  0  0  0  0  0  0  0  0
   19.1315   52.1095   17.2434 H   0  0  0  0  0  0  0  0  0  0  0  0
   17.4838   55.3556   18.0489 H   0  0  0  0  0  0  0  0  0  0  0  0
   18.4480   55.0322   16.5683 H   0  0  0  0  0  0  0  0  0  0  0  0
   19.0108   54.4161   18.1591 H   0  0  0  0  0  0  0  0  0  0  0  0
   10.6573   48.0143   21.1279 H   0  0  0  0  0  0  0  0  0  0  0  0
   12.4196   48.3557   21.0635 H   0  0  0  0  0  0  0  0  0  0  0  0
   11.4589   50.0173   19.1143 H   0  0  0  0  0  0  0  0  0  0  0  0
   10.6246   46.1894   17.9665 H   0  0  0  0  0  0  0  0  0  0  0  0
   10.8841   46.5375   19.6969 H   0  0  0  0  0  0  0  0  0  0  0  0
   11.1290   49.5730   16.9420 H   0  0  0  0  0  0  0  0  0  0  0  0
   10.7615   47.9120   16.4047 H   0  0  0  0  0  0  0  0  0  0  0  0
  1  2  1  0  0  0  0
  1  3  1  0  0  0  0
  1  4  1  0  0  0  0
  1 31  1  1  0  0  0
  2  9  1  0  0  0  0
  2 11  1  0  0  0  0
  2 32  1  6  0  0  0
  3  5  1  0  0  0  0
  3  8  2  0  0  0  0
  4 33  1  0  0  0  0
  5  6  1  0  0  0  0
  6  7  2  0  0  0  0
  6 34  1  0  0  0  0
  7  8  1  0  0  0  0
  7 35  1  0  0  0  0
  9 10  1  0  0  0  0
  9 36  1  0  0  0  0
  9 37  1  0  0  0  0
 10 26  1  0  0  0  0
 10 38  1  0  0  0  0
 10 39  1  0  0  0  0
 11 12  1  0  0  0  0
 11 40  1  0  0  0  0
 12 13  1  0  0  0  0
 12 25  2  0  0  0  0
 13 14  1  0  0  0  0
 13 17  1  0  0  0  0
 13 41  1  6  0  0  0
 14 15  1  0  0  0  0
 14 16  1  0  0  0  0
 14 42  1  0  0  0  0
 15 43  1  0  0  0  0
 15 44  1  0  0  0  0
 15 45  1  0  0  0  0
 16 46  1  0  0  0  0
 16 47  1  0  0  0  0
 16 48  1  0  0  0  0
 17 18  1  0  0  0  0
 17 49  1  0  0  0  0
 18 19  1  0  0  0  0
 18 24  2  0  0  0  0
 19 20  1  0  0  0  0
 19 50  1  0  0  0  0
 19 51  1  0  0  0  0
 20 21  1  0  0  0  0
 20 52  1  0  0  0  0
 20 53  1  0  0  0  0
 21 22  1  0  0  0  0
 21 23  1  0  0  0  0
 21 54  1  0  0  0  0
 22 55  1  0  0  0  0
 22 56  1  0  0  0  0
 22 57  1  0  0  0  0
 23 58  1  0  0  0  0
 23 59  1  0  0  0  0
 23 60  1  0  0  0  0
 26 27  1  0  0  0  0
 26 61  1  0  0  0  0
 26 62  1  0  0  0  0
 27 28  1  0  0  0  0
 27 63  1  0  0  0  0
 28 29  1  0  0  0  0
 28 30  1  0  0  0  0
 29 64  1  0  0  0  0
 29 65  1  0  0  0  0
 30 66  1  0  0  0  0
 30 67  1  0  0  0  0
M  END
