1zpc_ligand
 OpenBabel08222323343D

 66 67  0  0  1  0  0  0  0  0999 V2000
   11.3730   51.0630   25.0880 C   0  0  1  0  0  0  0  0  0  0  0  0
   11.7040   51.1250   23.5590 C   0  0  1  0  0  0  0  0  0  0  0  0
   11.5820   52.3130   25.8020 C   0  0  0  0  0  0  0  0  0  0  0  0
    9.9920   50.7170   25.1400 O   0  0  0  0  0  0  0  0  0  0  0  0
   13.1740   51.3280   23.4730 N   0  0  0  0  0  0  0  0  0  0  0  0
   11.4700   49.8080   22.7890 C   0  0  0  0  0  0  0  0  0  0  0  0
   12.1050   49.7330   21.4140 C   0  0  0  0  0  0  0  0  0  0  0  0
   11.5080   48.6020   20.6400 C   0  0  0  0  0  0  0  0  0  0  0  0
   11.5290   48.9980   19.2300 N   0  0  0  0  0  0  0  0  0  0  0  0
   11.3190   48.1750   18.1840 C   0  0  0  0  0  3  0  0  0  0  0  0
   11.0640   46.8670   18.3780 N   0  0  0  0  0  0  0  0  0  0  0  0
   11.3710   48.6820   16.9450 N   0  0  0  0  0  0  0  0  0  0  0  0
   12.6300   52.5620   26.4950 N   0  0  0  0  0  0  0  0  0  0  0  0
   12.5680   53.8220   27.0680 C   0  0  0  0  0  0  0  0  0  0  0  0
   11.4130   54.4910   26.7570 C   0  0  0  0  0  0  0  0  0  0  0  0
   10.4060   53.5650   25.7590 S   0  0  0  0  0  0  0  0  0  0  0  0
   15.7550   53.1180   21.8330 N   0  0  0  0  0  0  0  0  0  0  0  0
   15.3470   52.4030   23.0550 C   0  0  2  0  0  0  0  0  0  0  0  0
   13.7960   52.4470   23.0680 C   0  0  0  0  0  0  0  0  0  0  0  0
   13.1730   53.4630   22.7090 O   0  0  0  0  0  0  0  0  0  0  0  0
   15.9350   53.0890   24.3480 C   0  0  0  0  0  0  0  0  0  0  0  0
   17.4550   53.0230   24.3190 C   0  0  0  0  0  0  0  0  0  0  0  0
   15.5740   54.5920   24.4980 C   0  0  0  0  0  0  0  0  0  0  0  0
   15.4520   52.7760   20.5480 C   0  0  0  0  0  0  0  0  0  0  0  0
   16.0000   53.7440   19.4610 C   0  0  2  0  0  0  0  0  0  0  0  0
   14.7820   51.7740   20.2450 O   0  0  0  0  0  0  0  0  0  0  0  0
   14.9890   53.9260   18.4780 O   0  0  0  0  0  0  0  0  0  0  0  0
   17.3060   53.2040   18.8110 C   0  0  0  0  0  0  0  0  0  0  0  0
   18.4710   52.9490   19.6600 C   0  0  0  0  0  0  0  0  0  0  0  0
   19.6990   52.4470   19.0900 C   0  0  0  0  0  0  0  0  0  0  0  0
   19.8140   52.1840   17.6830 C   0  0  0  0  0  0  0  0  0  0  0  0
   18.6980   52.4170   16.8020 C   0  0  0  0  0  0  0  0  0  0  0  0
   17.4380   52.9280   17.3600 C   0  0  0  0  0  0  0  0  0  0  0  0
   18.8870   52.0820   15.1350 Cl  0  0  0  0  0  0  0  0  0  0  0  0
   11.9845   50.2822   25.5638 H   0  0  0  0  0  0  0  0  0  0  0  0
   11.1434   51.9459   23.0881 H   0  0  0  0  0  0  0  0  0  0  0  0
    9.8534   49.9007   24.6741 H   0  0  0  0  0  0  0  0  0  0  0  0
   13.7541   50.5591   23.7420 H   0  0  0  0  0  0  0  0  0  0  0  0
   10.3848   49.6742   22.6686 H   0  0  0  0  0  0  0  0  0  0  0  0
   11.8760   48.9846   23.3949 H   0  0  0  0  0  0  0  0  0  0  0  0
   13.1878   49.5709   21.5204 H   0  0  0  0  0  0  0  0  0  0  0  0
   11.9264   50.6766   20.8776 H   0  0  0  0  0  0  0  0  0  0  0  0
   10.4734   48.4230   20.9678 H   0  0  0  0  0  0  0  0  0  0  0  0
   12.1022   47.6879   20.7856 H   0  0  0  0  0  0  0  0  0  0  0  0
   11.7202   49.9882   19.0206 H   0  0  0  0  0  0  0  0  0  0  0  0
   10.9052   46.2479   17.5703 H   0  0  0  0  0  0  0  0  0  0  0  0
   11.0278   46.4856   19.3341 H   0  0  0  0  0  0  0  0  0  0  0  0
   11.5667   49.6837   16.8062 H   0  0  0  0  0  0  0  0  0  0  0  0
   11.2153   48.0701   16.1312 H   0  0  0  0  0  0  0  0  0  0  0  0
   13.3533   54.2366   27.6983 H   0  0  0  0  0  0  0  0  0  0  0  0
   11.1727   55.4935   27.1081 H   0  0  0  0  0  0  0  0  0  0  0  0
   16.3118   53.9391   21.9589 H   0  0  0  0  0  0  0  0  0  0  0  0
   15.6953   51.3604   23.0138 H   0  0  0  0  0  0  0  0  0  0  0  0
   15.5561   52.5445   25.2254 H   0  0  0  0  0  0  0  0  0  0  0  0
   17.8601   53.5025   25.2223 H   0  0  0  0  0  0  0  0  0  0  0  0
   17.8279   53.5476   23.4269 H   0  0  0  0  0  0  0  0  0  0  0  0
   17.7758   51.9713   24.2869 H   0  0  0  0  0  0  0  0  0  0  0  0
   14.4802   54.7054   24.5252 H   0  0  0  0  0  0  0  0  0  0  0  0
   15.9797   55.1536   23.6436 H   0  0  0  0  0  0  0  0  0  0  0  0
   16.0063   54.9816   25.4314 H   0  0  0  0  0  0  0  0  0  0  0  0
   16.2229   54.7137   19.9300 H   0  0  0  0  0  0  0  0  0  0  0  0
   14.7721   53.0868   18.0893 H   0  0  0  0  0  0  0  0  0  0  0  0
   18.4112   53.1387   20.7256 H   0  0  0  0  0  0  0  0  0  0  0  0
   20.5501   52.2653   19.7363 H   0  0  0  0  0  0  0  0  0  0  0  0
   20.7475   51.8073   17.2807 H   0  0  0  0  0  0  0  0  0  0  0  0
   16.5945   53.1054   16.7026 H   0  0  0  0  0  0  0  0  0  0  0  0
  1  3  1  0  0  0  0
  1  4  1  0  0  0  0
  1 35  1  1  0  0  0
  2  1  1  0  0  0  0
  2  6  1  0  0  0  0
  2 36  1  6  0  0  0
  3 13  2  0  0  0  0
  3 16  1  0  0  0  0
  4 37  1  0  0  0  0
  5  2  1  0  0  0  0
  5 38  1  0  0  0  0
  6  7  1  0  0  0  0
  6 39  1  0  0  0  0
  6 40  1  0  0  0  0
  7  8  1  0  0  0  0
  7 41  1  0  0  0  0
  7 42  1  0  0  0  0
  8  9  1  0  0  0  0
  8 43  1  0  0  0  0
  8 44  1  0  0  0  0
  9 10  1  0  0  0  0
  9 45  1  0  0  0  0
 10 11  1  0  0  0  0
 10 12  1  0  0  0  0
 11 46  1  0  0  0  0
 11 47  1  0  0  0  0
 12 48  1  0  0  0  0
 12 49  1  0  0  0  0
 13 14  1  0  0  0  0
 14 50  1  0  0  0  0
 15 14  2  0  0  0  0
 15 51  1  0  0  0  0
 16 15  1  0  0  0  0
 17 24  1  0  0  0  0
 17 52  1  0  0  0  0
 18 17  1  0  0  0  0
 18 19  1  0  0  0  0
 18 21  1  0  0  0  0
 18 53  1  6  0  0  0
 19  5  1  0  0  0  0
 19 20  2  0  0  0  0
 21 22  1  0  0  0  0
 21 23  1  0  0  0  0
 21 54  1  0  0  0  0
 22 55  1  0  0  0  0
 22 56  1  0  0  0  0
 22 57  1  0  0  0  0
 23 58  1  0  0  0  0
 23 59  1  0  0  0  0
 23 60  1  0  0  0  0
 24 25  1  0  0  0  0
 24 26  2  0  0  0  0
 25 27  1  0  0  0  0
 25 28  1  0  0  0  0
 25 61  1  1  0  0  0
 27 62  1  0  0  0  0
 28 29  2  0  0  0  0
 28 33  1  0  0  0  0
 29 30  1  0  0  0  0
 29 63  1  0  0  0  0
 30 31  2  0  0  0  0
 30 64  1  0  0  0  0
 31 32  1  0  0  0  0
 31 65  1  0  0  0  0
 32 33  2  0  0  0  0
 32 34  1  0  0  0  0
 33 66  1  0  0  0  0
M  END
