1zsb_ligand
 OpenBabel08222323343D

 19 19  0  0  0  0  0  0  0  0999 V2000
   -5.1340    2.1990   15.9600 C   0  0  0  0  0  0  0  0  0  0  0  0
   -4.7810    4.3180   14.5450 C   0  0  0  0  0  0  0  0  0  0  0  0
   -6.0810    5.9690   13.2980 C   0  0  0  0  0  0  0  0  0  0  0  0
   -6.0920    7.0070   12.1240 C   0  0  0  0  0  0  0  0  0  0  0  0
   -5.3670   -0.4460   16.5460 N   0  0  0  0  0  0  0  0  0  0  0  0
   -3.7310    3.4610   14.8540 N   0  0  0  0  0  0  0  0  0  0  0  0
   -3.8100    2.3000   15.6230 N   0  0  0  0  0  0  0  0  0  0  0  0
   -4.9530    5.5040   13.8440 N   0  0  0  0  0  0  0  0  0  0  0  0
   -5.5460    1.1270   18.3740 O   0  0  0  0  0  0  0  0  0  0  0  0
   -7.3980    1.1650   16.8250 O   0  0  0  0  0  0  0  0  0  0  0  0
   -7.2150    5.6130   13.6650 O   0  0  0  0  0  0  0  0  0  0  0  0
   -5.9610    0.9490   16.9910 S   0  0  0  0  0  0  0  0  0  0  0  0
   -6.0580    3.4610   15.2370 S   0  0  0  0  0  0  0  0  0  0  0  0
   -7.1316    7.2358   11.8467 H   0  0  0  0  0  0  0  0  0  0  0  0
   -5.5655    6.5841   11.2557 H   0  0  0  0  0  0  0  0  0  0  0  0
   -5.5868    7.9297   12.4456 H   0  0  0  0  0  0  0  0  0  0  0  0
   -5.6822   -1.2869   16.9859 H   0  0  0  0  0  0  0  0  0  0  0  0
   -4.6759   -0.4879   15.8245 H   0  0  0  0  0  0  0  0  0  0  0  0
   -4.1399    6.0758   13.7351 H   0  0  0  0  0  0  0  0  0  0  0  0
  1 13  1  0  0  0  0
  1 12  1  0  0  0  0
  1  7  2  0  0  0  0
  2  8  1  0  0  0  0
  2 13  1  0  0  0  0
  3 11  2  0  0  0  0
  3  4  1  0  0  0  0
  4 14  1  0  0  0  0
  4 15  1  0  0  0  0
  4 16  1  0  0  0  0
  5 17  1  0  0  0  0
  5 18  1  0  0  0  0
  6  2  2  0  0  0  0
  7  6  1  0  0  0  0
  8  3  1  0  0  0  0
  8 19  1  0  0  0  0
 12  5  1  0  0  0  0
 12  9  2  0  0  0  0
 12 10  2  0  0  0  0
M  END
