1zsr_ligand
 OpenBabel08222323343D

100102  0  0  1  0  0  0  0  0999 V2000
   -9.3250   14.2990   30.1000 O   0  0  0  0  0  0  0  0  0  0  0  0
  -10.1740   14.9640   30.6740 C   0  0  0  0  0  0  0  0  0  0  0  0
  -10.1780   15.2960   32.0080 O   0  0  0  0  0  0  0  0  0  0  0  0
   -8.9510   15.3790   32.8530 C   0  0  0  0  0  0  0  0  0  0  0  0
   -9.4190   15.8350   34.2200 C   0  0  0  0  0  0  0  0  0  0  0  0
   -7.9810   16.3910   32.2420 C   0  0  0  0  0  0  0  0  0  0  0  0
   -8.3160   13.9910   32.9410 C   0  0  0  0  0  0  0  0  0  0  0  0
  -11.2790   15.5450   30.0780 N   0  0  0  0  0  0  0  0  0  0  0  0
  -11.6190   15.3290   28.6690 C   0  0  2  0  0  0  0  0  0  0  0  0
  -11.2260   16.5350   27.7720 C   0  0  1  0  0  0  0  0  0  0  0  0
  -11.9520   17.6850   28.1510 O   0  0  0  0  0  0  0  0  0  0  0  0
  -13.1210   15.0160   28.5300 C   0  0  0  0  0  0  0  0  0  0  0  0
  -13.5290   13.7230   29.1870 C   0  0  0  0  0  0  0  0  0  0  0  0
  -14.5620   13.6940   30.1080 C   0  0  0  0  0  0  0  0  0  0  0  0
  -12.8410   12.5390   28.9140 C   0  0  0  0  0  0  0  0  0  0  0  0
  -14.9050   12.5130   30.7540 C   0  0  0  0  0  0  0  0  0  0  0  0
  -13.1790   11.3490   29.5570 C   0  0  0  0  0  0  0  0  0  0  0  0
  -14.2130   11.3390   30.4800 C   0  0  0  0  0  0  0  0  0  0  0  0
   -9.7150   16.8040   27.9000 C   0  0  0  0  0  0  0  0  0  0  0  0
   -9.3020   18.0070   27.1870 N   0  3  0  0  0  0  0  0  0  0  0  0
   -7.9240   17.9540   26.6820 C   0  0  2  0  0  0  0  0  0  0  0  0
   -7.7960   16.9300   25.5580 C   0  0  0  0  0  0  0  0  0  0  0  0
   -7.8200   15.7180   25.7950 O   0  0  0  0  0  0  0  0  0  0  0  0
   -6.9330   17.5960   27.8050 C   0  0  0  0  0  0  0  0  0  0  0  0
   -5.5190   17.3930   27.3290 C   0  0  0  0  0  0  0  0  0  0  0  0
   -4.7670   16.3230   27.7960 C   0  0  0  0  0  0  0  0  0  0  0  0
   -4.9370   18.2760   26.4220 C   0  0  0  0  0  0  0  0  0  0  0  0
   -3.4560   16.1260   27.3710 C   0  0  0  0  0  0  0  0  0  0  0  0
   -3.6250   18.0880   25.9880 C   0  0  0  0  0  0  0  0  0  0  0  0
   -2.8840   17.0070   26.4660 C   0  0  0  0  0  0  0  0  0  0  0  0
   -7.6480   17.4310   24.3360 N   0  0  0  0  0  0  0  0  0  0  0  0
   -7.5190   16.5800   23.1630 C   0  0  2  0  0  0  0  0  0  0  0  0
   -6.6800   17.3070   22.1150 C   0  0  0  0  0  0  0  0  0  0  0  0
   -6.9320   18.4700   21.7920 O   0  0  0  0  0  0  0  0  0  0  0  0
   -8.9200   16.2570   22.6200 C   0  0  0  0  0  0  0  0  0  0  0  0
   -8.9870   15.2820   21.4480 C   0  0  0  0  0  0  0  0  0  0  0  0
   -8.4830   15.8760   20.1390 C   0  0  0  0  0  0  0  0  0  0  0  0
   -8.6500   17.0990   19.9280 O   0  5  0  0  0  0  0  0  0  0  0  0
   -7.9350   15.1150   19.3110 O   0  0  0  0  0  0  0  0  0  0  0  0
   -5.6640   16.6320   21.5980 N   0  0  0  0  0  0  0  0  0  0  0  0
   -4.8360   17.2410   20.5850 C   0  0  2  0  0  0  0  0  0  0  0  0
   -4.5600   16.2460   19.4800 C   0  0  0  0  0  0  0  0  0  0  0  0
   -4.2600   15.0850   19.7340 O   0  0  0  0  0  0  0  0  0  0  0  0
   -3.5350   17.7640   21.2040 C   0  0  0  0  0  0  0  0  0  0  0  0
   -2.6720   16.7020   21.8240 C   0  0  0  0  0  0  0  0  0  0  0  0
   -1.5800   16.1910   21.1410 C   0  0  0  0  0  0  0  0  0  0  0  0
   -2.9270   16.2400   23.1110 C   0  0  0  0  0  0  0  0  0  0  0  0
   -0.7470   15.2400   21.7320 C   0  0  0  0  0  0  0  0  0  0  0  0
   -2.1010   15.2870   23.7090 C   0  0  0  0  0  0  0  0  0  0  0  0
   -1.0080   14.7890   23.0170 C   0  0  0  0  0  0  0  0  0  0  0  0
   -4.6900   16.6950   18.2440 N   0  0  0  0  0  0  0  0  0  0  0  0
   -8.5544   15.9165   34.8952 H   0  0  0  0  0  0  0  0  0  0  0  0
  -10.1334   15.1036   34.6258 H   0  0  0  0  0  0  0  0  0  0  0  0
   -9.9088   16.8159   34.1315 H   0  0  0  0  0  0  0  0  0  0  0  0
   -7.0759   16.4531   32.8641 H   0  0  0  0  0  0  0  0  0  0  0  0
   -8.4626   17.3789   32.1958 H   0  0  0  0  0  0  0  0  0  0  0  0
   -7.7066   16.0690   31.2266 H   0  0  0  0  0  0  0  0  0  0  0  0
   -7.4097   14.0412   33.5624 H   0  0  0  0  0  0  0  0  0  0  0  0
   -8.0496   13.6449   31.9314 H   0  0  0  0  0  0  0  0  0  0  0  0
   -9.0317   13.2883   33.3926 H   0  0  0  0  0  0  0  0  0  0  0  0
  -11.8684   16.1350   30.6298 H   0  0  0  0  0  0  0  0  0  0  0  0
  -11.0531   14.4536   28.3176 H   0  0  0  0  0  0  0  0  0  0  0  0
  -11.4607   16.2937   26.7248 H   0  0  0  0  0  0  0  0  0  0  0  0
  -11.7019   18.4135   27.5949 H   0  0  0  0  0  0  0  0  0  0  0  0
  -13.3663   14.9550   27.4594 H   0  0  0  0  0  0  0  0  0  0  0  0
  -13.6916   15.8358   28.9908 H   0  0  0  0  0  0  0  0  0  0  0  0
  -15.1096   14.6034   30.3277 H   0  0  0  0  0  0  0  0  0  0  0  0
  -12.0326   12.5452   28.1919 H   0  0  0  0  0  0  0  0  0  0  0  0
  -15.7151   12.5069   31.4743 H   0  0  0  0  0  0  0  0  0  0  0  0
  -12.6363   10.4369   29.3364 H   0  0  0  0  0  0  0  0  0  0  0  0
  -14.4811   10.4188   30.9864 H   0  0  0  0  0  0  0  0  0  0  0  0
   -9.1669   15.9437   27.4882 H   0  0  0  0  0  0  0  0  0  0  0  0
   -9.4661   16.9217   28.9650 H   0  0  0  0  0  0  0  0  0  0  0  0
   -9.3800   18.7913   27.8154 H   0  0  0  0  0  0  0  0  0  0  0  0
   -9.9223   18.1409   26.4039 H   0  0  0  0  0  0  0  0  0  0  0  0
   -7.6630   18.9466   26.2862 H   0  0  0  0  0  0  0  0  0  0  0  0
   -7.2738   16.6665   28.2844 H   0  0  0  0  0  0  0  0  0  0  0  0
   -6.9363   18.4118   28.5429 H   0  0  0  0  0  0  0  0  0  0  0  0
   -5.2080   15.6298   28.5031 H   0  0  0  0  0  0  0  0  0  0  0  0
   -5.5098   19.1177   26.0498 H   0  0  0  0  0  0  0  0  0  0  0  0
   -2.8836   15.2856   27.7468 H   0  0  0  0  0  0  0  0  0  0  0  0
   -3.1821   18.7801   25.2810 H   0  0  0  0  0  0  0  0  0  0  0  0
   -1.8642   16.8563   26.1309 H   0  0  0  0  0  0  0  0  0  0  0  0
   -7.6246   18.4239   24.2191 H   0  0  0  0  0  0  0  0  0  0  0  0
   -7.0156   15.6425   23.4418 H   0  0  0  0  0  0  0  0  0  0  0  0
   -9.3788   17.2024   22.2950 H   0  0  0  0  0  0  0  0  0  0  0  0
   -9.5079   15.8287   23.4452 H   0  0  0  0  0  0  0  0  0  0  0  0
  -10.0337   14.9728   21.3107 H   0  0  0  0  0  0  0  0  0  0  0  0
   -8.3735   14.4019   21.6908 H   0  0  0  0  0  0  0  0  0  0  0  0
   -5.4711   15.7015   21.9094 H   0  0  0  0  0  0  0  0  0  0  0  0
   -5.3802   18.0945   20.1545 H   0  0  0  0  0  0  0  0  0  0  0  0
   -3.7946   18.4950   21.9839 H   0  0  0  0  0  0  0  0  0  0  0  0
   -2.9537   18.2617   20.4138 H   0  0  0  0  0  0  0  0  0  0  0  0
   -1.3700   16.5344   20.1345 H   0  0  0  0  0  0  0  0  0  0  0  0
   -3.7799   16.6258   23.6576 H   0  0  0  0  0  0  0  0  0  0  0  0
    0.1056   14.8532   21.1856 H   0  0  0  0  0  0  0  0  0  0  0  0
   -2.3138   14.9370   24.7126 H   0  0  0  0  0  0  0  0  0  0  0  0
   -0.3611   14.0513   23.4777 H   0  0  0  0  0  0  0  0  0  0  0  0
   -4.5210   16.0848   17.4700 H   0  0  0  0  0  0  0  0  0  0  0  0
   -4.9573   17.6450   18.0827 H   0  0  0  0  0  0  0  0  0  0  0  0
  1  2  2  0  0  0  0
  2  3  1  0  0  0  0
  2  8  1  0  0  0  0
  3  4  1  0  0  0  0
  4  5  1  0  0  0  0
  4  6  1  0  0  0  0
  4  7  1  0  0  0  0
  5 52  1  0  0  0  0
  5 53  1  0  0  0  0
  5 54  1  0  0  0  0
  6 55  1  0  0  0  0
  6 56  1  0  0  0  0
  6 57  1  0  0  0  0
  7 58  1  0  0  0  0
  7 59  1  0  0  0  0
  7 60  1  0  0  0  0
  8  9  1  0  0  0  0
  8 61  1  0  0  0  0
  9 10  1  0  0  0  0
  9 12  1  0  0  0  0
  9 62  1  6  0  0  0
 10 11  1  0  0  0  0
 10 19  1  0  0  0  0
 10 63  1  6  0  0  0
 11 64  1  0  0  0  0
 12 13  1  0  0  0  0
 12 65  1  0  0  0  0
 12 66  1  0  0  0  0
 13 14  2  0  0  0  0
 13 15  1  0  0  0  0
 14 16  1  0  0  0  0
 14 67  1  0  0  0  0
 15 17  2  0  0  0  0
 15 68  1  0  0  0  0
 16 18  2  0  0  0  0
 16 69  1  0  0  0  0
 17 18  1  0  0  0  0
 17 70  1  0  0  0  0
 18 71  1  0  0  0  0
 19 20  1  0  0  0  0
 19 72  1  0  0  0  0
 19 73  1  0  0  0  0
 20 21  1  0  0  0  0
 20 74  1  0  0  0  0
 20 75  1  0  0  0  0
 21 22  1  0  0  0  0
 21 24  1  0  0  0  0
 21 76  1  6  0  0  0
 22 23  2  0  0  0  0
 22 31  1  0  0  0  0
 24 25  1  0  0  0  0
 24 77  1  0  0  0  0
 24 78  1  0  0  0  0
 25 26  2  0  0  0  0
 25 27  1  0  0  0  0
 26 28  1  0  0  0  0
 26 79  1  0  0  0  0
 27 29  2  0  0  0  0
 27 80  1  0  0  0  0
 28 30  2  0  0  0  0
 28 81  1  0  0  0  0
 29 30  1  0  0  0  0
 29 82  1  0  0  0  0
 30 83  1  0  0  0  0
 31 32  1  0  0  0  0
 31 84  1  0  0  0  0
 32 33  1  0  0  0  0
 32 35  1  0  0  0  0
 32 85  1  1  0  0  0
 33 34  2  0  0  0  0
 33 40  1  0  0  0  0
 35 36  1  0  0  0  0
 35 86  1  0  0  0  0
 35 87  1  0  0  0  0
 36 37  1  0  0  0  0
 36 88  1  0  0  0  0
 36 89  1  0  0  0  0
 37 38  1  0  0  0  0
 37 39  2  0  0  0  0
 40 41  1  0  0  0  0
 40 90  1  0  0  0  0
 41 42  1  0  0  0  0
 41 44  1  0  0  0  0
 41 91  1  6  0  0  0
 42 43  2  0  0  0  0
 42 51  1  0  0  0  0
 44 45  1  0  0  0  0
 44 92  1  0  0  0  0
 44 93  1  0  0  0  0
 45 46  2  0  0  0  0
 45 47  1  0  0  0  0
 46 48  1  0  0  0  0
 46 94  1  0  0  0  0
 47 49  2  0  0  0  0
 47 95  1  0  0  0  0
 48 50  2  0  0  0  0
 48 96  1  0  0  0  0
 49 50  1  0  0  0  0
 49 97  1  0  0  0  0
 50 98  1  0  0  0  0
 51 99  1  0  0  0  0
 51100  1  0  0  0  0
M  CHG  2  20   1  38  -1
M  END
