1zub_ligand
 OpenBabel08222323343D

 93 94  0  0  1  0  0  0  0  0999 V2000
  190.1800  -11.6900   -4.5230 N   0  3  0  0  0  0  0  0  0  0  0  0
  190.2030  -10.6310   -3.4800 C   0  0  2  0  0  0  0  0  0  0  0  0
  188.8020  -10.3620   -2.9370 C   0  0  0  0  0  0  0  0  0  0  0  0
  187.9880   -9.7110   -3.5910 O   0  0  0  0  0  0  0  0  0  0  0  0
  190.7870   -9.3560   -4.0940 C   0  0  0  0  0  0  0  0  0  0  0  0
  192.2050   -9.0550   -3.6360 C   0  0  0  0  0  0  0  0  0  0  0  0
  193.2430   -9.3930   -4.6880 C   0  0  0  0  0  0  0  0  0  0  0  0
  192.9770  -10.2880   -5.5180 O   0  5  0  0  0  0  0  0  0  0  0  0
  194.3220   -8.7640   -4.6820 O   0  0  0  0  0  0  0  0  0  0  0  0
  188.5290  -10.8680   -1.7390 N   0  0  0  0  0  0  0  0  0  0  0  0
  187.2270  -10.6810   -1.1090 C   0  0  2  0  0  0  0  0  0  0  0  0
  187.3820  -10.1720    0.3210 C   0  0  0  0  0  0  0  0  0  0  0  0
  188.4970  -10.0190    0.8180 O   0  0  0  0  0  0  0  0  0  0  0  0
  186.4410  -11.9940   -1.1120 C   0  0  0  0  0  0  0  0  0  0  0  0
  187.1860  -13.1510   -0.4670 C   0  0  0  0  0  0  0  0  0  0  0  0
  187.5640  -14.2310   -1.4610 C   0  0  0  0  0  0  0  0  0  0  0  0
  188.4720  -13.9900   -2.2840 O   0  5  0  0  0  0  0  0  0  0  0  0
  186.9510  -15.3190   -1.4170 O   0  0  0  0  0  0  0  0  0  0  0  0
  186.2550   -9.9090    0.9770 N   0  0  0  0  0  0  0  0  0  0  0  0
  186.2920   -9.4180    2.3420 C   0  0  0  0  0  0  0  0  0  0  0  0
  185.1070   -9.8870    3.1650 C   0  0  0  0  0  0  0  0  0  0  0  0
  185.2700  -10.6390    4.1250 O   0  0  0  0  0  0  0  0  0  0  0  0
  183.9120   -9.4420    2.7890 N   0  0  0  0  0  0  0  0  0  0  0  0
  182.6960   -9.8180    3.4990 C   0  0  2  0  0  0  0  0  0  0  0  0
  181.5580  -10.0630    2.5220 C   0  0  0  0  0  0  0  0  0  0  0  0
  181.5040   -9.4630    1.4500 O   0  0  0  0  0  0  0  0  0  0  0  0
  182.2440   -8.7360    4.5110 C   0  0  2  0  0  0  0  0  0  0  0  0
  183.1270   -7.4890    4.4150 C   0  0  0  0  0  0  0  0  0  0  0  0
  182.2550   -9.2940    5.9290 C   0  0  0  0  0  0  0  0  0  0  0  0
  184.4840   -7.6580    5.0520 C   0  0  0  0  0  0  0  0  0  0  0  0
  180.6420  -10.9360    2.9090 N   0  0  0  0  0  0  0  0  0  0  0  0
  179.4940  -11.2440    2.0750 C   0  0  2  0  0  0  0  0  0  0  0  0
  178.3390  -10.3120    2.4080 C   0  0  0  0  0  0  0  0  0  0  0  0
  177.8980  -10.2390    3.5550 O   0  0  0  0  0  0  0  0  0  0  0  0
  179.0710  -12.7050    2.2540 C   0  0  0  0  0  0  0  0  0  0  0  0
  179.3310  -13.5460    1.0390 C   0  0  0  0  0  0  0  0  0  0  0  0
  179.9900  -14.7420    0.9960 C   0  0  0  0  0  0  0  0  0  0  0  0
  178.9420  -13.2540   -0.3100 C   0  0  0  0  0  0  0  0  0  0  0  0
  180.0330  -15.2110   -0.2950 N   0  0  0  0  0  0  0  0  0  0  0  0
  179.3970  -14.3160   -1.1150 C   0  0  0  0  0  0  0  0  0  0  0  0
  178.2520  -12.1990   -0.9160 C   0  0  0  0  0  0  0  0  0  0  0  0
  179.1850  -14.3510   -2.4920 C   0  0  0  0  0  0  0  0  0  0  0  0
  178.0420  -12.2360   -2.2830 C   0  0  0  0  0  0  0  0  0  0  0  0
  178.5070  -13.3060   -3.0570 C   0  0  0  0  0  0  0  0  0  0  0  0
  177.8540   -9.5990    1.3990 N   0  0  0  0  0  0  0  0  0  0  0  0
  176.7480   -8.6740    1.5820 C   0  0  2  0  0  0  0  0  0  0  0  0
  175.7870   -8.7530    0.4010 C   0  0  0  0  0  0  0  0  0  0  0  0
  175.2160   -7.7090    0.0310 O   0  5  0  0  0  0  0  0  0  0  0  0
  177.2680   -7.2540    1.7640 C   0  0  0  0  0  0  0  0  0  0  0  0
  175.6210   -9.8540   -0.1560 O   0  0  0  0  0  0  0  0  0  0  0  0
  191.1158  -11.8469   -4.8632 H   0  0  0  0  0  0  0  0  0  0  0  0
  189.5898  -11.3974   -5.2860 H   0  0  0  0  0  0  0  0  0  0  0  0
  189.8189  -12.5438   -4.1271 H   0  0  0  0  0  0  0  0  0  0  0  0
  190.8454  -10.9596   -2.6498 H   0  0  0  0  0  0  0  0  0  0  0  0
  190.1438   -8.5088   -3.8139 H   0  0  0  0  0  0  0  0  0  0  0  0
  190.7912   -9.4672   -5.1883 H   0  0  0  0  0  0  0  0  0  0  0  0
  192.4155   -9.6447   -2.7316 H   0  0  0  0  0  0  0  0  0  0  0  0
  192.2788   -7.9831   -3.4003 H   0  0  0  0  0  0  0  0  0  0  0  0
  189.2334  -11.3897   -1.2577 H   0  0  0  0  0  0  0  0  0  0  0  0
  186.6647   -9.9332   -1.6873 H   0  0  0  0  0  0  0  0  0  0  0  0
  186.2172  -12.2629   -2.1549 H   0  0  0  0  0  0  0  0  0  0  0  0
  185.5004  -11.8374   -0.5637 H   0  0  0  0  0  0  0  0  0  0  0  0
  186.5434  -13.5951    0.3075 H   0  0  0  0  0  0  0  0  0  0  0  0
  188.1047  -12.7629   -0.0030 H   0  0  0  0  0  0  0  0  0  0  0  0
  185.3742  -10.0510    0.5253 H   0  0  0  0  0  0  0  0  0  0  0  0
  186.2923   -8.3182    2.3206 H   0  0  0  0  0  0  0  0  0  0  0  0
  187.2159   -9.7758    2.8198 H   0  0  0  0  0  0  0  0  0  0  0  0
  183.8457   -8.8334    1.9983 H   0  0  0  0  0  0  0  0  0  0  0  0
  182.8975  -10.7484    4.0501 H   0  0  0  0  0  0  0  0  0  0  0  0
  181.2125   -8.4448    4.2636 H   0  0  0  0  0  0  0  0  0  0  0  0
  182.6094   -6.6573    4.9153 H   0  0  0  0  0  0  0  0  0  0  0  0
  183.2701   -7.2454    3.3519 H   0  0  0  0  0  0  0  0  0  0  0  0
  181.6157  -10.1879    5.9762 H   0  0  0  0  0  0  0  0  0  0  0  0
  181.8732   -8.5330    6.6255 H   0  0  0  0  0  0  0  0  0  0  0  0
  183.2840   -9.5640    6.2088 H   0  0  0  0  0  0  0  0  0  0  0  0
  185.0583   -6.7261    4.9441 H   0  0  0  0  0  0  0  0  0  0  0  0
  185.0219   -8.4796    4.5565 H   0  0  0  0  0  0  0  0  0  0  0  0
  184.3613   -7.8915    6.1199 H   0  0  0  0  0  0  0  0  0  0  0  0
  180.7423  -11.3925    3.7930 H   0  0  0  0  0  0  0  0  0  0  0  0
  179.7757  -11.0899    1.0229 H   0  0  0  0  0  0  0  0  0  0  0  0
  177.9938  -12.7331    2.4752 H   0  0  0  0  0  0  0  0  0  0  0  0
  179.6303  -13.1303    3.1003 H   0  0  0  0  0  0  0  0  0  0  0  0
  180.4187  -15.2496    1.8589 H   0  0  0  0  0  0  0  0  0  0  0  0
  180.4721  -16.0923   -0.5973 H   0  0  0  0  0  0  0  0  0  0  0  0
  177.8880  -11.3666   -0.3247 H   0  0  0  0  0  0  0  0  0  0  0  0
  179.5448  -15.1774   -3.0942 H   0  0  0  0  0  0  0  0  0  0  0  0
  177.5087  -11.4232   -2.7626 H   0  0  0  0  0  0  0  0  0  0  0  0
  178.3260  -13.3063   -4.1258 H   0  0  0  0  0  0  0  0  0  0  0  0
  178.2595   -9.7008    0.4906 H   0  0  0  0  0  0  0  0  0  0  0  0
  176.2015   -8.9615    2.4923 H   0  0  0  0  0  0  0  0  0  0  0  0
  176.4195   -6.5676    1.9010 H   0  0  0  0  0  0  0  0  0  0  0  0
  177.8404   -6.9561    0.8732 H   0  0  0  0  0  0  0  0  0  0  0  0
  177.9196   -7.2128    2.6493 H   0  0  0  0  0  0  0  0  0  0  0  0
  1  2  1  0  0  0  0
  1 51  1  0  0  0  0
  1 52  1  0  0  0  0
  1 53  1  0  0  0  0
  2  3  1  0  0  0  0
  2  5  1  0  0  0  0
  2 54  1  1  0  0  0
  3  4  2  0  0  0  0
  3 10  1  0  0  0  0
  5  6  1  0  0  0  0
  5 55  1  0  0  0  0
  5 56  1  0  0  0  0
  6  7  1  0  0  0  0
  6 57  1  0  0  0  0
  6 58  1  0  0  0  0
  7  8  1  0  0  0  0
  7  9  2  0  0  0  0
 10 11  1  0  0  0  0
 10 59  1  0  0  0  0
 11 12  1  0  0  0  0
 11 14  1  0  0  0  0
 11 60  1  6  0  0  0
 12 13  2  0  0  0  0
 12 19  1  0  0  0  0
 14 15  1  0  0  0  0
 14 61  1  0  0  0  0
 14 62  1  0  0  0  0
 15 16  1  0  0  0  0
 15 63  1  0  0  0  0
 15 64  1  0  0  0  0
 16 17  1  0  0  0  0
 16 18  2  0  0  0  0
 19 20  1  0  0  0  0
 19 65  1  0  0  0  0
 20 21  1  0  0  0  0
 20 66  1  0  0  0  0
 20 67  1  0  0  0  0
 21 22  2  0  0  0  0
 21 23  1  0  0  0  0
 23 24  1  0  0  0  0
 23 68  1  0  0  0  0
 24 25  1  0  0  0  0
 24 27  1  0  0  0  0
 24 69  1  1  0  0  0
 25 26  2  0  0  0  0
 25 31  1  0  0  0  0
 27 28  1  0  0  0  0
 27 29  1  0  0  0  0
 27 70  1  6  0  0  0
 28 30  1  0  0  0  0
 28 71  1  0  0  0  0
 28 72  1  0  0  0  0
 29 73  1  0  0  0  0
 29 74  1  0  0  0  0
 29 75  1  0  0  0  0
 30 76  1  0  0  0  0
 30 77  1  0  0  0  0
 30 78  1  0  0  0  0
 31 32  1  0  0  0  0
 31 79  1  0  0  0  0
 32 33  1  0  0  0  0
 32 35  1  0  0  0  0
 32 80  1  6  0  0  0
 33 34  2  0  0  0  0
 33 45  1  0  0  0  0
 35 36  1  0  0  0  0
 35 81  1  0  0  0  0
 35 82  1  0  0  0  0
 36 37  2  0  0  0  0
 36 38  1  0  0  0  0
 37 39  1  0  0  0  0
 37 83  1  0  0  0  0
 38 40  2  0  0  0  0
 38 41  1  0  0  0  0
 39 40  1  0  0  0  0
 39 84  1  0  0  0  0
 40 42  1  0  0  0  0
 41 43  2  0  0  0  0
 41 85  1  0  0  0  0
 42 44  2  0  0  0  0
 42 86  1  0  0  0  0
 43 44  1  0  0  0  0
 43 87  1  0  0  0  0
 44 88  1  0  0  0  0
 45 46  1  0  0  0  0
 45 89  1  0  0  0  0
 46 47  1  0  0  0  0
 46 49  1  0  0  0  0
 46 90  1  1  0  0  0
 47 48  1  0  0  0  0
 47 50  2  0  0  0  0
 49 91  1  0  0  0  0
 49 92  1  0  0  0  0
 49 93  1  0  0  0  0
M  CHG  4   1   1   8  -1  17  -1  48  -1
M  END
