1zz2_ligand
 OpenBabel08222323343D

 60 63  0  0  0  0  0  0  0  0999 V2000
   28.8390   68.5680   16.5790 C   0  0  0  0  0  0  0  0  0  0  0  0
   29.9200   68.2440   15.6580 C   0  0  0  0  0  0  0  0  0  0  0  0
   31.2830   68.7130   15.8980 C   0  0  0  0  0  0  0  0  0  0  0  0
   31.6020   69.5050   17.0750 C   0  0  0  0  0  0  0  0  0  0  0  0
   30.5130   69.8080   17.9900 C   0  0  0  0  0  0  0  0  0  0  0  0
   29.1500   69.3640   17.7550 C   0  0  0  0  0  0  0  0  0  0  0  0
   28.2970   69.7300   18.5730 O   0  0  0  0  0  0  0  0  0  0  0  0
   30.7450   70.5210   19.3010 C   0  0  0  0  0  0  0  0  0  0  0  0
   30.6640   71.9830   19.1740 N   0  3  0  0  0  0  0  0  0  0  0  0
   31.0760   72.7830   20.3380 C   0  0  0  0  0  0  0  0  0  0  0  0
   30.8550   74.2580   20.0030 C   0  0  0  0  0  0  0  0  0  0  0  0
   31.4410   75.1920   21.0460 C   0  0  0  0  0  0  0  0  0  0  0  0
   32.8760   74.9020   21.2540 N   0  0  0  0  0  0  0  0  0  0  0  0
   33.1740   73.4960   21.5980 C   0  0  0  0  0  0  0  0  0  0  0  0
   32.5680   72.5370   20.5820 C   0  0  0  0  0  0  0  0  0  0  0  0
   33.7600   76.1260   22.1960 S   0  0  0  0  0  0  0  0  0  0  0  0
   33.7490   77.6910   21.4490 N   0  0  0  0  0  0  0  0  0  0  0  0
   32.9590   76.2460   23.7240 O   0  0  0  0  0  0  0  0  0  0  0  0
   35.3710   75.5410   22.3230 O   0  0  0  0  0  0  0  0  0  0  0  0
   34.1220   77.8400   20.0960 C   0  0  0  0  0  0  0  0  0  0  0  0
   34.6380   76.7600   19.2660 C   0  0  0  0  0  0  0  0  0  0  0  0
   35.0160   77.1050   17.9040 C   0  0  0  0  0  0  0  0  0  0  0  0
   34.8540   78.4650   17.4130 C   0  0  0  0  0  0  0  0  0  0  0  0
   34.3350   79.5190   18.2630 C   0  0  0  0  0  0  0  0  0  0  0  0
   33.9700   79.2050   19.6330 C   0  0  0  0  0  0  0  0  0  0  0  0
   35.5880   76.1750   17.1270 O   0  0  0  0  0  0  0  0  0  0  0  0
   36.2660   76.4920   16.0170 C   0  0  0  0  0  0  0  0  0  0  0  0
   35.7110   76.0000   14.7670 C   0  0  0  0  0  0  0  0  0  0  0  0
   36.4030   76.3570   13.5380 C   0  0  0  0  0  0  0  0  0  0  0  0
   37.6050   77.1760   13.5750 C   0  0  0  0  0  0  0  0  0  0  0  0
   38.1480   77.6460   14.8460 C   0  0  0  0  0  0  0  0  0  0  0  0
   37.4740   77.3050   16.0910 C   0  0  0  0  0  0  0  0  0  0  0  0
   38.2370   77.5900   12.2920 F   0  0  0  0  0  0  0  0  0  0  0  0
   27.8281   68.2242   16.3922 H   0  0  0  0  0  0  0  0  0  0  0  0
   29.7098   67.6447   14.7795 H   0  0  0  0  0  0  0  0  0  0  0  0
   32.0660   68.4674   15.1898 H   0  0  0  0  0  0  0  0  0  0  0  0
   32.6105   69.8553   17.2628 H   0  0  0  0  0  0  0  0  0  0  0  0
   27.4491   69.3833   18.3212 H   0  0  0  0  0  0  0  0  0  0  0  0
   31.7451   70.2551   19.6740 H   0  0  0  0  0  0  0  0  0  0  0  0
   29.9842   70.1878   20.0222 H   0  0  0  0  0  0  0  0  0  0  0  0
   29.7051   72.2169   18.9694 H   0  0  0  0  0  0  0  0  0  0  0  0
   31.2486   72.2529   18.3984 H   0  0  0  0  0  0  0  0  0  0  0  0
   30.4921   72.5013   21.2267 H   0  0  0  0  0  0  0  0  0  0  0  0
   29.7732   74.4442   19.9326 H   0  0  0  0  0  0  0  0  0  0  0  0
   31.3279   74.4729   19.0334 H   0  0  0  0  0  0  0  0  0  0  0  0
   30.9031   75.0567   21.9959 H   0  0  0  0  0  0  0  0  0  0  0  0
   31.3277   76.2317   20.7052 H   0  0  0  0  0  0  0  0  0  0  0  0
   32.7582   73.2745   22.5920 H   0  0  0  0  0  0  0  0  0  0  0  0
   34.2648   73.3553   21.6171 H   0  0  0  0  0  0  0  0  0  0  0  0
   33.1027   72.6543   19.6279 H   0  0  0  0  0  0  0  0  0  0  0  0
   32.6974   71.5088   20.9508 H   0  0  0  0  0  0  0  0  0  0  0  0
   33.4766   78.4931   21.9804 H   0  0  0  0  0  0  0  0  0  0  0  0
   34.7356   75.7489   19.6444 H   0  0  0  0  0  0  0  0  0  0  0  0
   35.1272   78.6953   16.3896 H   0  0  0  0  0  0  0  0  0  0  0  0
   34.2211   80.5271   17.8811 H   0  0  0  0  0  0  0  0  0  0  0  0
   33.5918   79.9752   20.2954 H   0  0  0  0  0  0  0  0  0  0  0  0
   34.8151   75.3900   14.7510 H   0  0  0  0  0  0  0  0  0  0  0  0
   36.0194   76.0095   12.5856 H   0  0  0  0  0  0  0  0  0  0  0  0
   39.0500   78.2469   14.8629 H   0  0  0  0  0  0  0  0  0  0  0  0
   37.8593   77.6458   17.0452 H   0  0  0  0  0  0  0  0  0  0  0  0
  1  2  2  0  0  0  0
  1  6  1  0  0  0  0
  1 34  1  0  0  0  0
  2  3  1  0  0  0  0
  2 35  1  0  0  0  0
  3  4  2  0  0  0  0
  3 36  1  0  0  0  0
  4  5  1  0  0  0  0
  4 37  1  0  0  0  0
  5  6  2  0  0  0  0
  5  8  1  0  0  0  0
  6  7  1  0  0  0  0
  7 38  1  0  0  0  0
  8  9  1  0  0  0  0
  8 39  1  0  0  0  0
  8 40  1  0  0  0  0
  9 10  1  0  0  0  0
  9 41  1  0  0  0  0
  9 42  1  0  0  0  0
 10 11  1  0  0  0  0
 10 15  1  0  0  0  0
 10 43  1  0  0  0  0
 11 12  1  0  0  0  0
 11 44  1  0  0  0  0
 11 45  1  0  0  0  0
 12 13  1  0  0  0  0
 12 46  1  0  0  0  0
 12 47  1  0  0  0  0
 13 14  1  0  0  0  0
 13 16  1  0  0  0  0
 14 15  1  0  0  0  0
 14 48  1  0  0  0  0
 14 49  1  0  0  0  0
 15 50  1  0  0  0  0
 15 51  1  0  0  0  0
 16 17  1  0  0  0  0
 16 18  2  0  0  0  0
 16 19  2  0  0  0  0
 17 20  1  0  0  0  0
 17 52  1  0  0  0  0
 20 21  2  0  0  0  0
 20 25  1  0  0  0  0
 21 22  1  0  0  0  0
 21 53  1  0  0  0  0
 22 23  2  0  0  0  0
 22 26  1  0  0  0  0
 23 24  1  0  0  0  0
 23 54  1  0  0  0  0
 24 25  2  0  0  0  0
 24 55  1  0  0  0  0
 25 56  1  0  0  0  0
 26 27  1  0  0  0  0
 27 28  2  0  0  0  0
 27 32  1  0  0  0  0
 28 29  1  0  0  0  0
 28 57  1  0  0  0  0
 29 30  2  0  0  0  0
 29 58  1  0  0  0  0
 30 31  1  0  0  0  0
 30 33  1  0  0  0  0
 31 32  2  0  0  0  0
 31 59  1  0  0  0  0
 32 60  1  0  0  0  0
M  CHG  1   9   1
M  END
