1zz3_ligand
 OpenBabel08222323343D

 24 24  0  0  0  0  0  0  0  0999 V2000
   -5.5340  -11.8380   38.6520 C   0  0  0  0  0  0  0  0  0  0  0  0
   -5.5130  -10.4750   37.9630 C   0  0  0  0  0  0  0  0  0  0  0  0
   -4.0780  -10.0430   38.2760 C   0  0  0  0  0  0  0  0  0  0  0  0
   -3.9620  -10.3360   39.7800 C   0  0  0  0  0  0  0  0  0  0  0  0
   -4.8550  -11.5670   40.0210 C   0  0  0  0  0  0  0  0  0  0  0  0
   -3.9390  -12.7120   40.4860 C   0  0  0  0  0  0  0  0  0  0  0  0
   -4.5620  -14.0770   40.7180 C   0  0  0  0  0  0  0  0  0  0  0  0
   -4.0290  -14.5440   42.0260 C   0  0  0  0  0  0  0  0  0  0  0  0
   -2.8600  -14.8200   42.2380 O   0  0  0  0  0  0  0  0  0  0  0  0
   -4.7300  -14.3480   42.9020 N   0  0  0  0  0  0  0  0  0  0  0  0
   -4.4070  -14.6120   44.1530 O   0  0  0  0  0  0  0  0  0  0  0  0
   -4.9655  -12.5798   38.0720 H   0  0  0  0  0  0  0  0  0  0  0  0
   -6.5662  -12.1926   38.7892 H   0  0  0  0  0  0  0  0  0  0  0  0
   -6.2513   -9.7857   38.3985 H   0  0  0  0  0  0  0  0  0  0  0  0
   -5.6865  -10.5619   36.8803 H   0  0  0  0  0  0  0  0  0  0  0  0
   -3.9306   -8.9731   38.0671 H   0  0  0  0  0  0  0  0  0  0  0  0
   -3.3506  -10.6329   37.6990 H   0  0  0  0  0  0  0  0  0  0  0  0
   -4.3199   -9.4786   40.3689 H   0  0  0  0  0  0  0  0  0  0  0  0
   -2.9190  -10.5571   40.0507 H   0  0  0  0  0  0  0  0  0  0  0  0
   -5.6167  -11.3669   40.7890 H   0  0  0  0  0  0  0  0  0  0  0  0
   -3.4789  -12.3976   41.4344 H   0  0  0  0  0  0  0  0  0  0  0  0
   -3.1571  -12.8355   39.7222 H   0  0  0  0  0  0  0  0  0  0  0  0
   -4.2733  -14.7720   39.9158 H   0  0  0  0  0  0  0  0  0  0  0  0
   -5.6584  -13.9969   40.7569 H   0  0  0  0  0  0  0  0  0  0  0  0
  1  2  1  0  0  0  0
  1  5  1  0  0  0  0
  1 12  1  0  0  0  0
  1 13  1  0  0  0  0
  2  3  1  0  0  0  0
  2 14  1  0  0  0  0
  2 15  1  0  0  0  0
  3  4  1  0  0  0  0
  3 16  1  0  0  0  0
  3 17  1  0  0  0  0
  4  5  1  0  0  0  0
  4 18  1  0  0  0  0
  4 19  1  0  0  0  0
  5  6  1  0  0  0  0
  5 20  1  0  0  0  0
  6  7  1  0  0  0  0
  6 21  1  0  0  0  0
  6 22  1  0  0  0  0
  7  8  1  0  0  0  0
  7 23  1  0  0  0  0
  7 24  1  0  0  0  0
  8  9  2  0  0  0  0
  8 10  1  0  0  0  0
 10 11  2  0  0  0  0
M  END
