1zzz_ligand
 OpenBabel08222323343D

 57 58  0  0  1  0  0  0  0  0999 V2000
   25.1570    4.6820   29.2140 N   0  3  0  0  0  0  0  0  0  0  0  0
   25.5970    3.3910   29.6250 C   0  0  1  0  0  0  0  0  0  0  0  0
   26.1840    3.4820   31.0050 C   0  0  0  0  0  0  0  0  0  0  0  0
   26.4320    2.1540   31.6720 C   0  0  0  0  0  0  0  0  0  0  0  0
   24.5370    2.2410   29.4950 C   0  0  0  0  0  0  0  0  0  0  0  0
   25.2710    1.1810   31.6400 C   0  0  0  0  0  0  0  0  0  0  0  0
   23.7760    2.3820   28.5310 O   0  0  0  0  0  0  0  0  0  0  0  0
   24.6040    1.1740   30.3100 N   0  0  0  0  0  0  0  0  0  0  0  0
   23.7020    0.0530   29.9470 C   0  0  0  0  0  0  0  0  0  0  0  0
   22.4180    0.8670   30.2860 C   0  0  0  0  0  0  0  0  0  0  0  0
   22.1470    1.3320   31.4330 O   0  0  0  0  0  0  0  0  0  0  0  0
   19.3380    2.1580   28.1910 C   0  0  1  0  0  0  0  0  0  0  0  0
   20.1240    2.0850   26.8650 C   0  0  0  0  0  0  0  0  0  0  0  0
   21.2880    0.3550   29.5550 N   0  0  0  0  0  0  0  0  0  0  0  0
   19.9550    0.5250   29.9580 C   0  0  2  0  0  0  0  0  0  0  0  0
   19.4520   -0.5070   31.0730 C   0  0  0  0  0  0  0  0  0  0  0  0
   18.0560   -0.6290   31.1720 O   0  0  0  0  0  0  0  0  0  0  0  0
   19.1950    0.8040   28.7650 C   0  0  0  0  0  0  0  0  0  0  0  0
   19.9900    3.7540   25.0540 C   0  0  0  0  0  3  0  0  0  0  0  0
   20.2770    3.4130   26.3750 N   0  0  0  0  0  0  0  0  0  0  0  0
   20.9790    4.3780   27.3200 C   0  0  0  0  0  0  0  0  0  0  0  0
   20.1910    4.5320   28.6190 C   0  0  0  0  0  0  0  0  0  0  0  0
   20.0500    3.1780   29.1560 C   0  0  0  0  0  0  0  0  0  0  0  0
   19.5410    2.8750   24.2120 N   0  0  0  0  0  0  0  0  0  0  0  0
   20.1300    4.9700   24.7200 N   0  0  0  0  0  0  0  0  0  0  0  0
   25.9052    5.3464   29.3355 H   0  0  0  0  0  0  0  0  0  0  0  0
   24.3659    4.9610   29.7728 H   0  0  0  0  0  0  0  0  0  0  0  0
   24.8886    4.6521   28.2428 H   0  0  0  0  0  0  0  0  0  0  0  0
   26.4180    3.1151   28.9469 H   0  0  0  0  0  0  0  0  0  0  0  0
   25.4903    4.0578   31.6353 H   0  0  0  0  0  0  0  0  0  0  0  0
   27.1438    4.0147   30.9348 H   0  0  0  0  0  0  0  0  0  0  0  0
   26.6845    2.3457   32.7253 H   0  0  0  0  0  0  0  0  0  0  0  0
   27.2874    1.6775   31.1707 H   0  0  0  0  0  0  0  0  0  0  0  0
   24.5380    1.4734   32.4062 H   0  0  0  0  0  0  0  0  0  0  0  0
   25.6455    0.1699   31.8577 H   0  0  0  0  0  0  0  0  0  0  0  0
   23.8348   -0.8371   30.5795 H   0  0  0  0  0  0  0  0  0  0  0  0
   23.7690   -0.2364   28.8879 H   0  0  0  0  0  0  0  0  0  0  0  0
   18.3285    2.5408   27.9803 H   0  0  0  0  0  0  0  0  0  0  0  0
   19.5691    1.4783   26.1342 H   0  0  0  0  0  0  0  0  0  0  0  0
   21.1123    1.6349   27.0403 H   0  0  0  0  0  0  0  0  0  0  0  0
   21.4637   -0.1513   28.7107 H   0  0  0  0  0  0  0  0  0  0  0  0
   19.9395    1.4798   30.5039 H   0  0  0  0  0  0  0  0  0  0  0  0
   19.8368   -0.1729   32.0478 H   0  0  0  0  0  0  0  0  0  0  0  0
   19.8666   -1.4977   30.8351 H   0  0  0  0  0  0  0  0  0  0  0  0
   17.8415   -1.2565   31.8522 H   0  0  0  0  0  0  0  0  0  0  0  0
   19.5041    0.0810   27.9958 H   0  0  0  0  0  0  0  0  0  0  0  0
   18.1319    0.6533   29.0038 H   0  0  0  0  0  0  0  0  0  0  0  0
   21.0672    5.3603   26.8328 H   0  0  0  0  0  0  0  0  0  0  0  0
   21.9827    3.9915   27.5505 H   0  0  0  0  0  0  0  0  0  0  0  0
   19.2023    4.9706   28.4188 H   0  0  0  0  0  0  0  0  0  0  0  0
   20.7390    5.1709   29.3272 H   0  0  0  0  0  0  0  0  0  0  0  0
   21.0553    2.7923   29.3809 H   0  0  0  0  0  0  0  0  0  0  0  0
   19.4637    3.2372   30.0848 H   0  0  0  0  0  0  0  0  0  0  0  0
   19.3359    3.1500   23.2408 H   0  0  0  0  0  0  0  0  0  0  0  0
   19.3897    1.9022   24.5147 H   0  0  0  0  0  0  0  0  0  0  0  0
   20.4880    5.6535   25.4023 H   0  0  0  0  0  0  0  0  0  0  0  0
   19.8857    5.2736   23.7666 H   0  0  0  0  0  0  0  0  0  0  0  0
  1 26  1  0  0  0  0
  1 27  1  0  0  0  0
  1 28  1  0  0  0  0
  2  1  1  0  0  0  0
  2  3  1  0  0  0  0
  2 29  1  6  0  0  0
  3 30  1  0  0  0  0
  3 31  1  0  0  0  0
  4  3  1  0  0  0  0
  4 32  1  0  0  0  0
  4 33  1  0  0  0  0
  5  2  1  0  0  0  0
  5  7  2  0  0  0  0
  6  4  1  0  0  0  0
  6 34  1  0  0  0  0
  6 35  1  0  0  0  0
  8  5  1  0  0  0  0
  8  6  1  0  0  0  0
  9  8  1  0  0  0  0
  9 36  1  0  0  0  0
  9 37  1  0  0  0  0
 10  9  1  0  0  0  0
 10 11  2  0  0  0  0
 12 13  1  0  0  0  0
 12 23  1  0  0  0  0
 12 38  1  6  0  0  0
 13 20  1  0  0  0  0
 13 39  1  0  0  0  0
 13 40  1  0  0  0  0
 14 10  1  0  0  0  0
 14 41  1  0  0  0  0
 15 14  1  0  0  0  0
 15 16  1  0  0  0  0
 15 18  1  0  0  0  0
 15 42  1  1  0  0  0
 16 17  1  0  0  0  0
 16 43  1  0  0  0  0
 16 44  1  0  0  0  0
 17 45  1  0  0  0  0
 18 12  1  0  0  0  0
 18 46  1  0  0  0  0
 18 47  1  0  0  0  0
 19 24  1  0  0  0  0
 19 25  1  0  0  0  0
 20 19  1  0  0  0  0
 20 21  1  0  0  0  0
 21 22  1  0  0  0  0
 21 48  1  0  0  0  0
 21 49  1  0  0  0  0
 22 23  1  0  0  0  0
 22 50  1  0  0  0  0
 22 51  1  0  0  0  0
 23 52  1  0  0  0  0
 23 53  1  0  0  0  0
 24 54  1  0  0  0  0
 24 55  1  0  0  0  0
 25 56  1  0  0  0  0
 25 57  1  0  0  0  0
M  CHG  1   1   1
M  END
