223l_ligand
 OpenBabel08222323343D

 12 12  0  0  0  0  0  0  0  0999 V2000
   29.4090    7.9130   -1.7090 C   0  0  0  0  0  0  0  0  0  0  0  0
   30.1620    7.3800   -2.7460 C   0  0  0  0  0  0  0  0  0  0  0  0
   31.3980    7.9340   -3.0780 C   0  0  0  0  0  0  0  0  0  0  0  0
   31.8660    9.0540   -2.4000 C   0  0  0  0  0  0  0  0  0  0  0  0
   31.1000    9.6020   -1.3760 C   0  0  0  0  0  0  0  0  0  0  0  0
   29.8700    9.0320   -1.0270 C   0  0  0  0  0  0  0  0  0  0  0  0
   28.4649    7.4579   -1.4324 H   0  0  0  0  0  0  0  0  0  0  0  0
   29.7870    6.5278   -3.3013 H   0  0  0  0  0  0  0  0  0  0  0  0
   31.9952    7.4904   -3.8664 H   0  0  0  0  0  0  0  0  0  0  0  0
   32.8191    9.4962   -2.6668 H   0  0  0  0  0  0  0  0  0  0  0  0
   31.4581   10.4764   -0.8447 H   0  0  0  0  0  0  0  0  0  0  0  0
   29.2789    9.4626   -0.2268 H   0  0  0  0  0  0  0  0  0  0  0  0
  1  2  2  0  0  0  0
  1  6  1  0  0  0  0
  1  7  1  0  0  0  0
  2  3  1  0  0  0  0
  2  8  1  0  0  0  0
  3  4  2  0  0  0  0
  3  9  1  0  0  0  0
  4  5  1  0  0  0  0
  4 10  1  0  0  0  0
  5  6  2  0  0  0  0
  5 11  1  0  0  0  0
  6 12  1  0  0  0  0
M  END
