2a0t_ligand
 OpenBabel08222323343D

157158  0  0  1  0  0  0  0  0999 V2000
    7.3530  -11.7920  -28.6130 N   0  3  0  0  0  0  0  0  0  0  0  0
    6.2150  -11.5090  -29.5260 C   0  0  2  0  0  0  0  0  0  0  0  0
    5.0520  -12.4640  -29.2710 C   0  0  0  0  0  0  0  0  0  0  0  0
    4.3340  -12.8450  -30.1950 O   0  0  0  0  0  0  0  0  0  0  0  0
    6.7040  -11.6420  -30.9710 C   0  0  0  0  0  0  0  0  0  0  0  0
    6.5450  -10.3550  -31.7560 C   0  0  0  0  0  0  0  0  0  0  0  0
    6.3440   -9.2850  -31.1810 O   0  0  0  0  0  0  0  0  0  0  0  0
    6.6350  -10.4520  -33.0770 N   0  0  0  0  0  0  0  0  0  0  0  0
    4.8720  -12.8470  -28.0110 N   0  0  0  0  0  0  0  0  0  0  0  0
    3.7970  -13.7580  -27.6350 C   0  0  2  0  0  0  0  0  0  0  0  0
    3.3330  -13.4870  -26.2040 C   0  0  0  0  0  0  0  0  0  0  0  0
    4.1410  -13.1710  -25.3310 O   0  0  0  0  0  0  0  0  0  0  0  0
    4.2600  -15.2100  -27.7720 C   0  0  0  0  0  0  0  0  0  0  0  0
    3.3540  -16.0230  -28.6770 C   0  0  0  0  0  0  0  0  0  0  0  0
    3.0130  -15.5300  -29.7720 O   0  5  0  0  0  0  0  0  0  0  0  0
    2.9860  -17.1520  -28.2900 O   0  0  0  0  0  0  0  0  0  0  0  0
    2.0180  -13.6080  -25.9430 N   0  0  0  0  0  0  0  0  0  0  0  0
    1.4540  -13.3740  -24.6110 C   0  0  2  0  0  0  0  0  0  0  0  0
    1.7540  -14.5160  -23.6470 C   0  0  0  0  0  0  0  0  0  0  0  0
    2.5720  -15.3900  -23.9380 O   0  0  0  0  0  0  0  0  0  0  0  0
   -0.0470  -13.2800  -24.8790 C   0  0  0  0  0  0  0  0  0  0  0  0
   -0.2650  -14.1190  -26.0900 C   0  0  0  0  0  0  0  0  0  0  0  0
    0.9810  -13.9810  -26.9250 C   0  0  0  0  0  0  0  0  0  0  0  0
    1.0880  -14.5050  -22.4960 N   0  0  0  0  0  0  0  0  0  0  0  0
    1.2840  -15.5410  -21.4890 C   0  0  2  0  0  0  0  0  0  0  0  0
    0.2320  -15.4400  -20.3890 C   0  0  0  0  0  0  0  0  0  0  0  0
    0.2880  -14.5480  -19.5420 O   0  0  0  0  0  0  0  0  0  0  0  0
    2.6850  -15.4350  -20.8830 C   0  0  0  0  0  0  0  0  0  0  0  0
    3.2740  -16.7920  -20.5520 C   0  0  0  0  0  0  0  0  0  0  0  0
    3.4420  -17.6090  -21.4810 O   0  5  0  0  0  0  0  0  0  0  0  0
    3.5670  -17.0380  -19.3620 O   0  0  0  0  0  0  0  0  0  0  0  0
   -0.7250  -16.3610  -20.4070 N   0  0  0  0  0  0  0  0  0  0  0  0
   -1.7910  -16.3790  -19.4120 C   0  0  1  0  0  0  0  0  0  0  0  0
   -3.1790  -16.2750  -20.0780 C   0  0  1  0  0  0  0  0  0  0  0  0
   -4.2910  -16.3220  -19.0400 C   0  0  0  0  0  0  0  0  0  0  0  0
   -3.2690  -15.0800  -20.8040 O   0  0  0  0  0  0  0  0  0  0  0  0
   -3.6810  -15.1620  -22.3060 P   0  0  0  0  0  0  0  0  0  0  0  0
   -5.1970  -15.4850  -22.2810 O   0  0  0  0  0  1  0  0  0  0  0  0
   -3.4780  -13.7250  -22.8490 O   0  0  0  0  0  1  0  0  0  0  0  0
   -2.8870  -16.1840  -23.0680 O   0  0  0  0  0  0  0  0  0  0  0  0
   -1.7260  -17.6530  -18.5720 C   0  0  0  0  0  0  0  0  0  0  0  0
   -1.5370  -18.7480  -19.1030 O   0  0  0  0  0  0  0  0  0  0  0  0
   -1.8800  -17.5030  -17.2590 N   0  0  0  0  0  0  0  0  0  0  0  0
   -1.8330  -18.6440  -16.3510 C   0  0  2  0  0  0  0  0  0  0  0  0
   -2.6290  -18.3730  -15.0770 C   0  0  0  0  0  0  0  0  0  0  0  0
   -3.2320  -17.3110  -14.9220 O   0  0  0  0  0  0  0  0  0  0  0  0
   -0.3830  -18.9830  -15.9930 C   0  0  0  0  0  0  0  0  0  0  0  0
    0.5340  -17.7800  -15.7450 C   0  0  0  0  0  0  0  0  0  0  0  0
    0.9240  -17.1240  -17.0610 C   0  0  0  0  0  0  0  0  0  0  0  0
   -0.1310  -16.7740  -14.8150 C   0  0  0  0  0  0  0  0  0  0  0  0
   -2.6200  -19.3430  -14.1670 N   0  0  0  0  0  0  0  0  0  0  0  0
   -3.3340  -19.2180  -12.9020 C   0  0  2  0  0  0  0  0  0  0  0  0
   -2.5170  -19.8110  -11.7570 C   0  0  0  0  0  0  0  0  0  0  0  0
   -2.8380  -20.8850  -11.2500 O   0  0  0  0  0  0  0  0  0  0  0  0
   -4.6930  -19.9150  -12.9890 C   0  0  0  0  0  0  0  0  0  0  0  0
   -5.5780  -19.3810  -14.1030 C   0  0  0  0  0  0  0  0  0  0  0  0
   -6.9420  -20.0430  -14.1320 C   0  0  0  0  0  0  0  0  0  0  0  0
   -6.9980  -21.2830  -14.2740 O   0  5  0  0  0  0  0  0  0  0  0  0
   -7.9540  -19.3220  -14.0140 O   0  0  0  0  0  0  0  0  0  0  0  0
   -1.4560  -19.0990  -11.3670 N   0  0  0  0  0  0  0  0  0  0  0  0
   -0.5610  -19.5280  -10.2860 C   0  0  2  0  0  0  0  0  0  0  0  0
   -0.0970  -20.9750  -10.4650 C   0  0  0  0  0  0  0  0  0  0  0  0
   -0.7410  -21.7730  -11.1440 O   0  0  0  0  0  0  0  0  0  0  0  0
   -1.2090  -19.3560   -8.8890 C   0  0  2  0  0  0  0  0  0  0  0  0
   -0.2330  -19.7760   -7.7860 C   0  0  0  0  0  0  0  0  0  0  0  0
   -2.4980  -20.1520   -8.7790 C   0  0  0  0  0  0  0  0  0  0  0  0
   -0.7730  -19.5690   -6.3870 C   0  0  0  0  0  0  0  0  0  0  0  0
    1.0370  -21.3010   -9.8540 N   0  0  0  0  0  0  0  0  0  0  0  0
    1.5990  -22.6450   -9.9420 C   0  0  2  0  0  0  0  0  0  0  0  0
    1.3900  -23.4070   -8.6370 C   0  0  0  0  0  0  0  0  0  0  0  0
    1.5020  -22.8400   -7.5510 O   0  0  0  0  0  0  0  0  0  0  0  0
    3.0920  -22.5780  -10.2740 C   0  0  0  0  0  0  0  0  0  0  0  0
    3.8290  -21.4750   -9.5480 C   0  0  0  0  0  0  0  0  0  0  0  0
    4.0600  -21.5480   -8.1800 C   0  0  0  0  0  0  0  0  0  0  0  0
    4.2920  -20.3580  -10.2320 C   0  0  0  0  0  0  0  0  0  0  0  0
    4.7320  -20.5400   -7.5150 C   0  0  0  0  0  0  0  0  0  0  0  0
    4.9650  -19.3470   -9.5750 C   0  0  0  0  0  0  0  0  0  0  0  0
    5.1810  -19.4410   -8.2170 C   0  0  0  0  0  0  0  0  0  0  0  0
    5.8500  -18.4350   -7.5590 O   0  0  0  0  0  0  0  0  0  0  0  0
    1.0870  -24.6950   -8.7540 N   0  0  0  0  0  0  0  0  0  0  0  0
    0.8640  -25.5360   -7.5840 C   0  0  2  0  0  0  0  0  0  0  0  0
    0.7040  -26.9980   -7.9850 C   0  0  0  0  0  0  0  0  0  0  0  0
    1.0010  -27.3250   -9.1540 O   0  5  0  0  0  0  0  0  0  0  0  0
   -0.3750  -25.0660   -6.8210 C   0  0  0  0  0  0  0  0  0  0  0  0
   -0.2180  -25.2530   -5.4250 O   0  0  0  0  0  0  0  0  0  0  0  0
    0.2830  -27.8040   -7.1290 O   0  0  0  0  0  0  0  0  0  0  0  0
    8.1047  -11.1480  -28.8034 H   0  0  0  0  0  0  0  0  0  0  0  0
    7.6744  -12.7361  -28.7592 H   0  0  0  0  0  0  0  0  0  0  0  0
    7.0519  -11.6838  -27.6571 H   0  0  0  0  0  0  0  0  0  0  0  0
    5.8678  -10.4792  -29.3560 H   0  0  0  0  0  0  0  0  0  0  0  0
    6.1241  -12.4332  -31.4687 H   0  0  0  0  0  0  0  0  0  0  0  0
    7.7684  -11.9195  -30.9596 H   0  0  0  0  0  0  0  0  0  0  0  0
    6.5381   -9.6354  -33.6461 H   0  0  0  0  0  0  0  0  0  0  0  0
    6.7997  -11.3416  -33.5030 H   0  0  0  0  0  0  0  0  0  0  0  0
    5.4888  -12.5020  -27.3035 H   0  0  0  0  0  0  0  0  0  0  0  0
    2.9476  -13.5947  -28.3146 H   0  0  0  0  0  0  0  0  0  0  0  0
    4.2703  -15.6731  -26.7743 H   0  0  0  0  0  0  0  0  0  0  0  0
    5.2771  -15.2184  -28.1907 H   0  0  0  0  0  0  0  0  0  0  0  0
    1.8379  -12.4340  -24.1879 H   0  0  0  0  0  0  0  0  0  0  0  0
   -0.3430  -12.2379  -25.0700 H   0  0  0  0  0  0  0  0  0  0  0  0
   -0.6193  -13.6733  -24.0259 H   0  0  0  0  0  0  0  0  0  0  0  0
   -1.1412  -13.7604  -26.6500 H   0  0  0  0  0  0  0  0  0  0  0  0
   -0.4179  -15.1700  -25.8036 H   0  0  0  0  0  0  0  0  0  0  0  0
    1.2308  -14.9322  -27.4177 H   0  0  0  0  0  0  0  0  0  0  0  0
    0.8592  -13.1952  -27.6851 H   0  0  0  0  0  0  0  0  0  0  0  0
    0.4365  -13.7678  -22.3167 H   0  0  0  0  0  0  0  0  0  0  0  0
    1.1857  -16.5222  -21.9764 H   0  0  0  0  0  0  0  0  0  0  0  0
    2.6267  -14.8402  -19.9595 H   0  0  0  0  0  0  0  0  0  0  0  0
    3.3446  -14.9296  -21.6037 H   0  0  0  0  0  0  0  0  0  0  0  0
   -0.7142  -17.0604  -21.1216 H   0  0  0  0  0  0  0  0  0  0  0  0
   -1.6565  -15.5129  -18.7473 H   0  0  0  0  0  0  0  0  0  0  0  0
   -3.3031  -17.1231  -20.7674 H   0  0  0  0  0  0  0  0  0  0  0  0
   -5.2660  -16.2460  -19.5435 H   0  0  0  0  0  0  0  0  0  0  0  0
   -4.1740  -15.4825  -18.3390 H   0  0  0  0  0  0  0  0  0  0  0  0
   -4.2368  -17.2715  -18.4873 H   0  0  0  0  0  0  0  0  0  0  0  0
   -2.0314  -16.5876  -16.8861 H   0  0  0  0  0  0  0  0  0  0  0  0
   -2.2795  -19.5098  -16.8619 H   0  0  0  0  0  0  0  0  0  0  0  0
    0.0426  -19.5684  -16.8213 H   0  0  0  0  0  0  0  0  0  0  0  0
   -0.3938  -19.5950  -15.0790 H   0  0  0  0  0  0  0  0  0  0  0  0
    1.4509  -18.1425  -15.2574 H   0  0  0  0  0  0  0  0  0  0  0  0
    1.5809  -16.2645  -16.8617 H   0  0  0  0  0  0  0  0  0  0  0  0
    0.0182  -16.7802  -17.5819 H   0  0  0  0  0  0  0  0  0  0  0  0
    1.4550  -17.8529  -17.6909 H   0  0  0  0  0  0  0  0  0  0  0  0
   -0.4034  -17.2707  -13.8721 H   0  0  0  0  0  0  0  0  0  0  0  0
   -1.0371  -16.3749  -15.2942 H   0  0  0  0  0  0  0  0  0  0  0  0
    0.5671  -15.9498  -14.6069 H   0  0  0  0  0  0  0  0  0  0  0  0
   -2.1091  -20.1817  -14.3558 H   0  0  0  0  0  0  0  0  0  0  0  0
   -3.4986  -18.1497  -12.6982 H   0  0  0  0  0  0  0  0  0  0  0  0
   -5.2170  -19.7770  -12.0317 H   0  0  0  0  0  0  0  0  0  0  0  0
   -4.5236  -20.9878  -13.1630 H   0  0  0  0  0  0  0  0  0  0  0  0
   -5.0787  -19.5607  -15.0665 H   0  0  0  0  0  0  0  0  0  0  0  0
   -5.7144  -18.2993  -13.9568 H   0  0  0  0  0  0  0  0  0  0  0  0
   -1.2631  -18.2352  -11.8324 H   0  0  0  0  0  0  0  0  0  0  0  0
    0.3294  -18.8832  -10.3239 H   0  0  0  0  0  0  0  0  0  0  0  0
   -1.4493  -18.2914   -8.7517 H   0  0  0  0  0  0  0  0  0  0  0  0
    0.6886  -19.1852   -7.8938 H   0  0  0  0  0  0  0  0  0  0  0  0
   -0.0014  -20.8436   -7.9147 H   0  0  0  0  0  0  0  0  0  0  0  0
   -3.1898  -19.8414   -9.5758 H   0  0  0  0  0  0  0  0  0  0  0  0
   -2.9610  -19.9665   -7.7986 H   0  0  0  0  0  0  0  0  0  0  0  0
   -2.2767  -21.2245   -8.8831 H   0  0  0  0  0  0  0  0  0  0  0  0
   -0.0206  -19.8913   -5.6522 H   0  0  0  0  0  0  0  0  0  0  0  0
   -1.6903  -20.1618   -6.2566 H   0  0  0  0  0  0  0  0  0  0  0  0
   -1.0004  -18.5035   -6.2356 H   0  0  0  0  0  0  0  0  0  0  0  0
    1.5185  -20.6065   -9.3193 H   0  0  0  0  0  0  0  0  0  0  0  0
    1.0835  -23.1858  -10.7493 H   0  0  0  0  0  0  0  0  0  0  0  0
    3.1997  -22.4133  -11.3562 H   0  0  0  0  0  0  0  0  0  0  0  0
    3.5515  -23.5397  -10.0019 H   0  0  0  0  0  0  0  0  0  0  0  0
    3.7073  -22.4098   -7.6251 H   0  0  0  0  0  0  0  0  0  0  0  0
    4.1221  -20.2787  -11.2997 H   0  0  0  0  0  0  0  0  0  0  0  0
    4.9053  -20.6127   -6.4474 H   0  0  0  0  0  0  0  0  0  0  0  0
    5.3218  -18.4835  -10.1247 H   0  0  0  0  0  0  0  0  0  0  0  0
    5.9154  -18.6506   -6.6361 H   0  0  0  0  0  0  0  0  0  0  0  0
    1.0100  -25.0974   -9.6662 H   0  0  0  0  0  0  0  0  0  0  0  0
    1.7382  -25.4494   -6.9219 H   0  0  0  0  0  0  0  0  0  0  0  0
   -1.2475  -25.6412   -7.1642 H   0  0  0  0  0  0  0  0  0  0  0  0
   -0.5375  -23.9972   -7.0239 H   0  0  0  0  0  0  0  0  0  0  0  0
   -0.0813  -26.1754   -5.2436 H   0  0  0  0  0  0  0  0  0  0  0  0
  1  2  1  0  0  0  0
  1 87  1  0  0  0  0
  1 88  1  0  0  0  0
  1 89  1  0  0  0  0
  2  3  1  0  0  0  0
  2  5  1  0  0  0  0
  2 90  1  1  0  0  0
  3  4  2  0  0  0  0
  3  9  1  0  0  0  0
  5  6  1  0  0  0  0
  5 91  1  0  0  0  0
  5 92  1  0  0  0  0
  6  7  2  0  0  0  0
  6  8  1  0  0  0  0
  8 93  1  0  0  0  0
  8 94  1  0  0  0  0
  9 10  1  0  0  0  0
  9 95  1  0  0  0  0
 10 11  1  0  0  0  0
 10 13  1  0  0  0  0
 10 96  1  6  0  0  0
 11 12  2  0  0  0  0
 11 17  1  0  0  0  0
 13 14  1  0  0  0  0
 13 97  1  0  0  0  0
 13 98  1  0  0  0  0
 14 15  1  0  0  0  0
 14 16  2  0  0  0  0
 17 18  1  0  0  0  0
 17 23  1  0  0  0  0
 18 19  1  0  0  0  0
 18 21  1  0  0  0  0
 18 99  1  1  0  0  0
 19 20  2  0  0  0  0
 19 24  1  0  0  0  0
 21 22  1  0  0  0  0
 21100  1  0  0  0  0
 21101  1  0  0  0  0
 22 23  1  0  0  0  0
 22102  1  0  0  0  0
 22103  1  0  0  0  0
 23104  1  0  0  0  0
 23105  1  0  0  0  0
 24 25  1  0  0  0  0
 24106  1  0  0  0  0
 25 26  1  0  0  0  0
 25 28  1  0  0  0  0
 25107  1  6  0  0  0
 26 27  2  0  0  0  0
 26 32  1  0  0  0  0
 28 29  1  0  0  0  0
 28108  1  0  0  0  0
 28109  1  0  0  0  0
 29 30  1  0  0  0  0
 29 31  2  0  0  0  0
 32 33  1  0  0  0  0
 32110  1  0  0  0  0
 33 34  1  0  0  0  0
 33 41  1  0  0  0  0
 33111  1  1  0  0  0
 34 35  1  0  0  0  0
 34 36  1  0  0  0  0
 34112  1  6  0  0  0
 35113  1  0  0  0  0
 35114  1  0  0  0  0
 35115  1  0  0  0  0
 36 37  1  0  0  0  0
 37 38  1  0  0  0  0
 37 39  1  0  0  0  0
 37 40  2  0  0  0  0
 41 42  2  0  0  0  0
 41 43  1  0  0  0  0
 43 44  1  0  0  0  0
 43116  1  0  0  0  0
 44 45  1  0  0  0  0
 44 47  1  0  0  0  0
 44117  1  6  0  0  0
 45 46  2  0  0  0  0
 45 51  1  0  0  0  0
 47 48  1  0  0  0  0
 47118  1  0  0  0  0
 47119  1  0  0  0  0
 48 49  1  0  0  0  0
 48 50  1  0  0  0  0
 48120  1  0  0  0  0
 49121  1  0  0  0  0
 49122  1  0  0  0  0
 49123  1  0  0  0  0
 50124  1  0  0  0  0
 50125  1  0  0  0  0
 50126  1  0  0  0  0
 51 52  1  0  0  0  0
 51127  1  0  0  0  0
 52 53  1  0  0  0  0
 52 55  1  0  0  0  0
 52128  1  1  0  0  0
 53 54  2  0  0  0  0
 53 60  1  0  0  0  0
 55 56  1  0  0  0  0
 55129  1  0  0  0  0
 55130  1  0  0  0  0
 56 57  1  0  0  0  0
 56131  1  0  0  0  0
 56132  1  0  0  0  0
 57 58  1  0  0  0  0
 57 59  2  0  0  0  0
 60 61  1  0  0  0  0
 60133  1  0  0  0  0
 61 62  1  0  0  0  0
 61 64  1  0  0  0  0
 61134  1  6  0  0  0
 62 63  2  0  0  0  0
 62 68  1  0  0  0  0
 64 65  1  0  0  0  0
 64 66  1  0  0  0  0
 64135  1  1  0  0  0
 65 67  1  0  0  0  0
 65136  1  0  0  0  0
 65137  1  0  0  0  0
 66138  1  0  0  0  0
 66139  1  0  0  0  0
 66140  1  0  0  0  0
 67141  1  0  0  0  0
 67142  1  0  0  0  0
 67143  1  0  0  0  0
 68 69  1  0  0  0  0
 68144  1  0  0  0  0
 69 70  1  0  0  0  0
 69 72  1  0  0  0  0
 69145  1  6  0  0  0
 70 71  2  0  0  0  0
 70 80  1  0  0  0  0
 72 73  1  0  0  0  0
 72146  1  0  0  0  0
 72147  1  0  0  0  0
 73 74  2  0  0  0  0
 73 75  1  0  0  0  0
 74 76  1  0  0  0  0
 74148  1  0  0  0  0
 75 77  2  0  0  0  0
 75149  1  0  0  0  0
 76 78  2  0  0  0  0
 76150  1  0  0  0  0
 77 78  1  0  0  0  0
 77151  1  0  0  0  0
 78 79  1  0  0  0  0
 79152  1  0  0  0  0
 80 81  1  0  0  0  0
 80153  1  0  0  0  0
 81 82  1  0  0  0  0
 81 84  1  0  0  0  0
 81154  1  1  0  0  0
 82 83  1  0  0  0  0
 82 86  2  0  0  0  0
 84 85  1  0  0  0  0
 84155  1  0  0  0  0
 84156  1  0  0  0  0
 85157  1  0  0  0  0
M  CHG  5   1   1  15  -1  30  -1  58  -1  83  -1
M  END
