2a25_ligand
 OpenBabel08222323343D

135136  0  0  1  0  0  0  0  0999 V2000
    6.3170   51.9840   18.2250 N   0  3  0  0  0  0  0  0  0  0  0  0
    6.4910   51.2810   16.9210 C   0  0  2  0  0  0  0  0  0  0  0  0
    5.2660   50.4240   16.5930 C   0  0  0  0  0  0  0  0  0  0  0  0
    4.6140   49.8910   17.4970 O   0  0  0  0  0  0  0  0  0  0  0  0
    7.7360   50.3890   16.9150 C   0  0  0  0  0  0  0  0  0  0  0  0
    9.0140   51.0180   17.3730 C   0  0  0  0  0  0  0  0  0  0  0  0
    9.7980   50.0030   18.2120 C   0  0  0  0  0  0  0  0  0  0  0  0
   11.1870   50.5030   18.5770 C   0  0  0  0  0  0  0  0  0  0  0  0
   11.3150   50.7250   20.0470 N   0  3  0  0  0  0  0  0  0  0  0  0
    4.9460   50.3120   15.3060 N   0  0  0  0  0  0  0  0  0  0  0  0
    3.9950   49.2910   14.8320 C   0  0  2  0  0  0  0  0  0  0  0  0
    4.5010   47.8660   15.1130 C   0  0  0  0  0  0  0  0  0  0  0  0
    5.7000   47.6110   15.0650 O   0  0  0  0  0  0  0  0  0  0  0  0
    3.9190   49.5320   13.3130 C   0  0  0  0  0  0  0  0  0  0  0  0
    5.0220   50.4590   12.9650 C   0  0  0  0  0  0  0  0  0  0  0  0
    5.4360   51.1810   14.2180 C   0  0  0  0  0  0  0  0  0  0  0  0
    3.5720   46.9670   15.4220 N   0  0  0  0  0  0  0  0  0  0  0  0
    3.8910   45.6010   15.7670 C   0  0  2  0  0  0  0  0  0  0  0  0
    2.9780   44.6980   14.9900 C   0  0  0  0  0  0  0  0  0  0  0  0
    1.8250   45.0340   14.7590 O   0  0  0  0  0  0  0  0  0  0  0  0
    3.7070   45.3660   17.2360 C   0  0  0  0  0  0  0  0  0  0  0  0
    3.5060   43.5500   14.5630 N   0  0  0  0  0  0  0  0  0  0  0  0
    2.6920   42.5540   13.9050 C   0  0  2  0  0  0  0  0  0  0  0  0
    2.7300   41.3670   14.8150 C   0  0  0  0  0  0  0  0  0  0  0  0
    3.8100   40.9810   15.2960 O   0  0  0  0  0  0  0  0  0  0  0  0
    3.2540   42.2080   12.5210 C   0  0  0  0  0  0  0  0  0  0  0  0
    1.5470   40.8170   15.0720 N   0  0  0  0  0  0  0  0  0  0  0  0
    1.3750   39.6210   15.8670 C   0  0  2  0  0  0  0  0  0  0  0  0
    1.2600   38.4600   14.8900 C   0  0  0  0  0  0  0  0  0  0  0  0
    0.2390   38.3200   14.2040 O   0  0  0  0  0  0  0  0  0  0  0  0
    0.1030   39.7220   16.7660 C   0  0  0  0  0  0  0  0  0  0  0  0
   -0.0480   38.5130   17.6450 C   0  0  0  0  0  0  0  0  0  0  0  0
    0.1480   40.9780   17.6060 C   0  0  0  0  0  0  0  0  0  0  0  0
    2.2950   37.6140   14.8620 N   0  0  0  0  0  0  0  0  0  0  0  0
    2.4840   36.6130   13.8130 C   0  0  2  0  0  0  0  0  0  0  0  0
    2.3260   35.2080   14.3650 C   0  0  0  0  0  0  0  0  0  0  0  0
    2.9910   34.8320   15.3380 O   0  0  0  0  0  0  0  0  0  0  0  0
    3.9220   36.7540   13.2070 C   0  0  0  0  0  0  0  0  0  0  0  0
    4.2170   35.6940   12.1090 C   0  0  0  0  0  0  0  0  0  0  0  0
    4.1220   38.1580   12.6670 C   0  0  0  0  0  0  0  0  0  0  0  0
    1.4760   34.4280   13.7090 N   0  0  0  0  0  0  0  0  0  0  0  0
    1.2530   33.0350   14.0310 C   0  0  2  0  0  0  0  0  0  0  0  0
    2.1930   32.1340   13.2300 C   0  0  0  0  0  0  0  0  0  0  0  0
    2.6090   32.4920   12.1460 O   0  0  0  0  0  0  0  0  0  0  0  0
   -0.2150   32.6680   13.7330 C   0  0  0  0  0  0  0  0  0  0  0  0
    2.4890   30.9410   13.7470 N   0  0  0  0  0  0  0  0  0  0  0  0
    3.3820   29.9860   13.0770 C   0  0  2  0  0  0  0  0  0  0  0  0
    2.7950   29.1830   11.9020 C   0  0  0  0  0  0  0  0  0  0  0  0
    1.6700   28.6460   11.9900 O   0  0  0  0  0  0  0  0  0  0  0  0
    3.7390   29.0220   14.2000 C   0  0  0  0  0  0  0  0  0  0  0  0
    2.5910   29.0580   15.1080 C   0  0  0  0  0  0  0  0  0  0  0  0
    1.9940   30.4140   15.0330 C   0  0  0  0  0  0  0  0  0  0  0  0
    3.5730   29.0850   10.8210 N   0  0  0  0  0  0  0  0  0  0  0  0
    3.3340   28.0830    9.7660 C   0  0  2  0  0  0  0  0  0  0  0  0
    3.8120   26.6360   10.1510 C   0  0  0  0  0  0  0  0  0  0  0  0
    4.9870   26.3390   10.4630 O   0  0  0  0  0  0  0  0  0  0  0  0
    3.9180   28.5490    8.3900 C   0  0  2  0  0  0  0  0  0  0  0  0
    3.7760   30.0630    8.2150 C   0  0  0  0  0  0  0  0  0  0  0  0
    3.2370   27.8020    7.2330 C   0  0  0  0  0  0  0  0  0  0  0  0
    4.4260   30.6090    6.9590 C   0  0  0  0  0  0  0  0  0  0  0  0
    2.9068   25.6616   10.1448 O   0  0  0  0  0  0  0  0  0  0  0  0
    7.1349   52.5405   18.4184 H   0  0  0  0  0  0  0  0  0  0  0  0
    6.1917   51.3045   18.9590 H   0  0  0  0  0  0  0  0  0  0  0  0
    5.5069   52.5820   18.1789 H   0  0  0  0  0  0  0  0  0  0  0  0
    6.6060   52.0434   16.1364 H   0  0  0  0  0  0  0  0  0  0  0  0
    7.8886   50.0361   15.8844 H   0  0  0  0  0  0  0  0  0  0  0  0
    7.5336   49.5294   17.5708 H   0  0  0  0  0  0  0  0  0  0  0  0
    8.7902   51.9057   17.9828 H   0  0  0  0  0  0  0  0  0  0  0  0
    9.6127   51.3148   16.4992 H   0  0  0  0  0  0  0  0  0  0  0  0
    9.8980   49.0709   17.6365 H   0  0  0  0  0  0  0  0  0  0  0  0
    9.2395   49.8038   19.1385 H   0  0  0  0  0  0  0  0  0  0  0  0
   11.3751   51.4521   18.0537 H   0  0  0  0  0  0  0  0  0  0  0  0
   11.9308   49.7566   18.2614 H   0  0  0  0  0  0  0  0  0  0  0  0
   12.2439   51.0552   20.2573 H   0  0  0  0  0  0  0  0  0  0  0  0
   11.1485   49.8580   20.5335 H   0  0  0  0  0  0  0  0  0  0  0  0
   10.6392   51.4117   20.3432 H   0  0  0  0  0  0  0  0  0  0  0  0
    3.0107   49.4297   15.3031 H   0  0  0  0  0  0  0  0  0  0  0  0
    2.9504   49.9820   13.0500 H   0  0  0  0  0  0  0  0  0  0  0  0
    4.0403   48.5813   12.7732 H   0  0  0  0  0  0  0  0  0  0  0  0
    5.8738   49.8911   12.5628 H   0  0  0  0  0  0  0  0  0  0  0  0
    4.6769   51.1840   12.2132 H   0  0  0  0  0  0  0  0  0  0  0  0
    6.5298   51.2880   14.2649 H   0  0  0  0  0  0  0  0  0  0  0  0
    4.9678   52.1750   14.2699 H   0  0  0  0  0  0  0  0  0  0  0  0
    2.6123   47.2480   15.4154 H   0  0  0  0  0  0  0  0  0  0  0  0
    4.9363   45.3902   15.4971 H   0  0  0  0  0  0  0  0  0  0  0  0
    3.9554   44.3212   17.4741 H   0  0  0  0  0  0  0  0  0  0  0  0
    2.6609   45.5660   17.5112 H   0  0  0  0  0  0  0  0  0  0  0  0
    4.3697   46.0382   17.8007 H   0  0  0  0  0  0  0  0  0  0  0  0
    4.4811   43.3758   14.7005 H   0  0  0  0  0  0  0  0  0  0  0  0
    1.6596   42.9169   13.7934 H   0  0  0  0  0  0  0  0  0  0  0  0
    2.6153   41.4493   12.0452 H   0  0  0  0  0  0  0  0  0  0  0  0
    4.2750   41.8129   12.6281 H   0  0  0  0  0  0  0  0  0  0  0  0
    3.2748   43.1135   11.8968 H   0  0  0  0  0  0  0  0  0  0  0  0
    0.7308   41.2546   14.6946 H   0  0  0  0  0  0  0  0  0  0  0  0
    2.2542   39.4763   16.5120 H   0  0  0  0  0  0  0  0  0  0  0  0
   -0.7765   39.7778   16.1077 H   0  0  0  0  0  0  0  0  0  0  0  0
   -0.9522   38.6192   18.2623 H   0  0  0  0  0  0  0  0  0  0  0  0
    0.8328   38.4218   18.2976 H   0  0  0  0  0  0  0  0  0  0  0  0
   -0.1352   37.6129   17.0187 H   0  0  0  0  0  0  0  0  0  0  0  0
    0.2586   41.8540   16.9500 H   0  0  0  0  0  0  0  0  0  0  0  0
    1.0027   40.9269   18.2966 H   0  0  0  0  0  0  0  0  0  0  0  0
   -0.7845   41.0672   18.1826 H   0  0  0  0  0  0  0  0  0  0  0  0
    2.9734   37.6685   15.5947 H   0  0  0  0  0  0  0  0  0  0  0  0
    1.7359   36.7767   13.0234 H   0  0  0  0  0  0  0  0  0  0  0  0
    4.6442   36.5962   14.0215 H   0  0  0  0  0  0  0  0  0  0  0  0
    5.2360   35.8411   11.7217 H   0  0  0  0  0  0  0  0  0  0  0  0
    3.4933   35.8051   11.2881 H   0  0  0  0  0  0  0  0  0  0  0  0
    4.1306   34.6857   12.5401 H   0  0  0  0  0  0  0  0  0  0  0  0
    3.9080   38.8897   13.4599 H   0  0  0  0  0  0  0  0  0  0  0  0
    3.4406   38.3256   11.8199 H   0  0  0  0  0  0  0  0  0  0  0  0
    5.1623   38.2765   12.3298 H   0  0  0  0  0  0  0  0  0  0  0  0
    0.9607   34.8252   12.9496 H   0  0  0  0  0  0  0  0  0  0  0  0
    1.4485   32.8833   15.1028 H   0  0  0  0  0  0  0  0  0  0  0  0
   -0.3851   31.6091   13.9776 H   0  0  0  0  0  0  0  0  0  0  0  0
   -0.4259   32.8364   12.6666 H   0  0  0  0  0  0  0  0  0  0  0  0
   -0.8811   33.2966   14.3422 H   0  0  0  0  0  0  0  0  0  0  0  0
    4.2747   30.5171   12.7151 H   0  0  0  0  0  0  0  0  0  0  0  0
    4.6519   29.3519   14.7174 H   0  0  0  0  0  0  0  0  0  0  0  0
    3.8881   28.0062   13.8051 H   0  0  0  0  0  0  0  0  0  0  0  0
    1.8491   28.3054   14.8028 H   0  0  0  0  0  0  0  0  0  0  0  0
    2.9213   28.8512   16.1366 H   0  0  0  0  0  0  0  0  0  0  0  0
    0.8953   30.3601   15.0385 H   0  0  0  0  0  0  0  0  0  0  0  0
    2.3346   31.0398   15.8710 H   0  0  0  0  0  0  0  0  0  0  0  0
    4.3449   29.7133   10.7236 H   0  0  0  0  0  0  0  0  0  0  0  0
    2.2430   28.0218    9.6399 H   0  0  0  0  0  0  0  0  0  0  0  0
    4.9900   28.3029    8.3732 H   0  0  0  0  0  0  0  0  0  0  0  0
    4.2377   30.5551    9.0837 H   0  0  0  0  0  0  0  0  0  0  0  0
    2.7039   30.3071    8.1821 H   0  0  0  0  0  0  0  0  0  0  0  0
    3.3512   26.7177    7.3790 H   0  0  0  0  0  0  0  0  0  0  0  0
    3.7047   28.0951    6.2815 H   0  0  0  0  0  0  0  0  0  0  0  0
    2.1675   28.0582    7.2101 H   0  0  0  0  0  0  0  0  0  0  0  0
    4.2771   31.6979    6.9128 H   0  0  0  0  0  0  0  0  0  0  0  0
    3.9694   30.1387    6.0757 H   0  0  0  0  0  0  0  0  0  0  0  0
    5.5031   30.3867    6.9772 H   0  0  0  0  0  0  0  0  0  0  0  0
    2.0625   26.0168    9.8930 H   0  0  0  0  0  0  0  0  0  0  0  0
  1 62  1  0  0  0  0
  1 63  1  0  0  0  0
  1 64  1  0  0  0  0
  2  1  1  0  0  0  0
  2  5  1  0  0  0  0
  2 65  1  6  0  0  0
  3  2  1  0  0  0  0
  3  4  2  0  0  0  0
  5  6  1  0  0  0  0
  5 66  1  0  0  0  0
  5 67  1  0  0  0  0
  6  7  1  0  0  0  0
  6 68  1  0  0  0  0
  6 69  1  0  0  0  0
  7  8  1  0  0  0  0
  7 70  1  0  0  0  0
  7 71  1  0  0  0  0
  8  9  1  0  0  0  0
  8 72  1  0  0  0  0
  8 73  1  0  0  0  0
  9 74  1  0  0  0  0
  9 75  1  0  0  0  0
  9 76  1  0  0  0  0
 10 16  1  0  0  0  0
 10  3  1  0  0  0  0
 11 14  1  0  0  0  0
 11 10  1  0  0  0  0
 11 77  1  1  0  0  0
 12 11  1  0  0  0  0
 12 13  2  0  0  0  0
 14 15  1  0  0  0  0
 14 78  1  0  0  0  0
 14 79  1  0  0  0  0
 15 80  1  0  0  0  0
 15 81  1  0  0  0  0
 16 15  1  0  0  0  0
 16 82  1  0  0  0  0
 16 83  1  0  0  0  0
 17 12  1  0  0  0  0
 17 84  1  0  0  0  0
 18 17  1  0  0  0  0
 18 21  1  0  0  0  0
 18 85  1  6  0  0  0
 19 18  1  0  0  0  0
 19 20  2  0  0  0  0
 21 86  1  0  0  0  0
 21 87  1  0  0  0  0
 21 88  1  0  0  0  0
 22 19  1  0  0  0  0
 22 89  1  0  0  0  0
 23 22  1  0  0  0  0
 23 26  1  0  0  0  0
 23 90  1  6  0  0  0
 24 23  1  0  0  0  0
 24 25  2  0  0  0  0
 26 91  1  0  0  0  0
 26 92  1  0  0  0  0
 26 93  1  0  0  0  0
 27 24  1  0  0  0  0
 27 94  1  0  0  0  0
 28 27  1  0  0  0  0
 28 31  1  0  0  0  0
 28 95  1  1  0  0  0
 29 28  1  0  0  0  0
 29 30  2  0  0  0  0
 31 33  1  0  0  0  0
 31 32  1  0  0  0  0
 31 96  1  0  0  0  0
 32 97  1  0  0  0  0
 32 98  1  0  0  0  0
 32 99  1  0  0  0  0
 33100  1  0  0  0  0
 33101  1  0  0  0  0
 33102  1  0  0  0  0
 34 29  1  0  0  0  0
 34103  1  0  0  0  0
 35 34  1  0  0  0  0
 35 38  1  0  0  0  0
 35104  1  6  0  0  0
 36 35  1  0  0  0  0
 36 37  2  0  0  0  0
 38 40  1  0  0  0  0
 38 39  1  0  0  0  0
 38105  1  0  0  0  0
 39106  1  0  0  0  0
 39107  1  0  0  0  0
 39108  1  0  0  0  0
 40109  1  0  0  0  0
 40110  1  0  0  0  0
 40111  1  0  0  0  0
 41 36  1  0  0  0  0
 41112  1  0  0  0  0
 42 41  1  0  0  0  0
 42 45  1  0  0  0  0
 42113  1  1  0  0  0
 43 42  1  0  0  0  0
 43 44  2  0  0  0  0
 45114  1  0  0  0  0
 45115  1  0  0  0  0
 45116  1  0  0  0  0
 46 52  1  0  0  0  0
 46 43  1  0  0  0  0
 47 50  1  0  0  0  0
 47 46  1  0  0  0  0
 47117  1  6  0  0  0
 48 47  1  0  0  0  0
 48 49  2  0  0  0  0
 48 53  1  0  0  0  0
 50 51  1  0  0  0  0
 50118  1  0  0  0  0
 50119  1  0  0  0  0
 51120  1  0  0  0  0
 51121  1  0  0  0  0
 52 51  1  0  0  0  0
 52122  1  0  0  0  0
 52123  1  0  0  0  0
 53 54  1  0  0  0  0
 53124  1  0  0  0  0
 54 57  1  0  0  0  0
 54 55  1  0  0  0  0
 54125  1  6  0  0  0
 55 56  2  0  0  0  0
 55 61  1  0  0  0  0
 57 59  1  0  0  0  0
 57 58  1  0  0  0  0
 57126  1  6  0  0  0
 58 60  1  0  0  0  0
 58127  1  0  0  0  0
 58128  1  0  0  0  0
 59129  1  0  0  0  0
 59130  1  0  0  0  0
 59131  1  0  0  0  0
 60132  1  0  0  0  0
 60133  1  0  0  0  0
 60134  1  0  0  0  0
 61135  1  0  0  0  0
M  CHG  2   1   1   9   1
M  END
