2a29_ligand
 OpenBabel08222323343D

 44 46  0  0  1  0  0  0  0  0999 V2000
  116.3370   -0.2220   -9.9420 P   0  0  0  0  0  0  0  0  0  0  0  0
  115.6550   -1.5310  -10.2470 O   0  0  0  0  0  1  0  0  0  0  0  0
  117.4230    0.0700  -10.9460 O   0  0  0  0  0  1  0  0  0  0  0  0
  116.8790   -0.2050   -8.5360 O   0  0  0  0  0  0  0  0  0  0  0  0
  115.4260    2.1870   -9.0350 P   0  0  1  0  0  0  0  0  0  0  0  0
  115.7610    1.6300   -7.6800 O   0  0  0  0  0  1  0  0  0  0  0  0
  116.5190    3.0670   -9.5700 O   0  0  0  0  0  0  0  0  0  0  0  0
  115.2340    0.9470  -10.0550 N   0  0  0  0  0  0  0  0  0  0  0  0
  113.7340    4.4110   -8.5360 P   0  0  1  0  0  0  0  0  0  0  0  0
  114.9620    4.8990   -7.8650 O   0  0  0  0  0  1  0  0  0  0  0  0
  113.2250    5.2460   -9.6500 O   0  0  0  0  0  0  0  0  0  0  0  0
  113.9820    2.9030   -9.0700 O   0  0  0  0  0  0  0  0  0  0  0  0
  112.5630    4.2190   -7.4350 O   0  0  0  0  0  0  0  0  0  0  0  0
  112.4810    3.0640   -6.5690 C   0  0  0  0  0  0  0  0  0  0  0  0
  111.8170    3.4490   -5.2550 C   0  0  1  0  0  0  0  0  0  0  0  0
  110.3880    3.2260   -5.3930 O   0  0  0  0  0  0  0  0  0  0  0  0
  112.3360    2.4100   -4.2800 C   0  0  1  0  0  0  0  0  0  0  0  0
  113.5560    2.8130   -3.6720 O   0  0  0  0  0  0  0  0  0  0  0  0
  111.2200    2.3460   -3.2720 C   0  0  1  0  0  0  0  0  0  0  0  0
  111.3940    3.3050   -2.2370 O   0  0  0  0  0  0  0  0  0  0  0  0
  109.9820    2.6670   -4.1090 C   0  0  2  0  0  0  0  0  0  0  0  0
  109.2100    1.4100   -4.4050 N   0  0  0  0  0  0  0  0  0  0  0  0
  109.7340    0.1780   -4.4510 C   0  0  0  0  0  0  0  0  0  0  0  0
  108.7870   -0.7230   -4.7280 N   0  0  0  0  0  0  0  0  0  0  0  0
  107.6430   -0.0700   -4.8650 C   0  0  0  0  0  0  0  0  0  0  0  0
  106.2920   -0.4270   -5.1400 C   0  0  0  0  0  0  0  0  0  0  0  0
  105.9550   -1.6990   -5.3200 N   0  0  0  0  0  0  0  0  0  0  0  0
  105.3250    0.5500   -5.2080 N   0  0  0  0  0  0  0  0  0  0  0  0
  105.5970    1.8790   -5.0190 C   0  0  0  0  0  0  0  0  0  0  0  0
  106.8860    2.2370   -4.7600 N   0  0  0  0  0  0  0  0  0  0  0  0
  107.9090    1.3070   -4.6650 C   0  0  0  0  0  0  0  0  0  0  0  0
  114.4811    0.9083  -10.7120 H   0  0  0  0  0  0  0  0  0  0  0  0
  113.4942    2.6855   -6.3686 H   0  0  0  0  0  0  0  0  0  0  0  0
  111.8874    2.2799   -7.0617 H   0  0  0  0  0  0  0  0  0  0  0  0
  112.0468    4.4797   -4.9472 H   0  0  0  0  0  0  0  0  0  0  0  0
  112.4812    1.4391   -4.7762 H   0  0  0  0  0  0  0  0  0  0  0  0
  113.4189    3.6242   -3.1969 H   0  0  0  0  0  0  0  0  0  0  0  0
  111.1481    1.3415   -2.8296 H   0  0  0  0  0  0  0  0  0  0  0  0
  112.2145    3.1391   -1.7877 H   0  0  0  0  0  0  0  0  0  0  0  0
  109.3463    3.3822   -3.5664 H   0  0  0  0  0  0  0  0  0  0  0  0
  110.7846   -0.0564   -4.2858 H   0  0  0  0  0  0  0  0  0  0  0  0
  104.9758   -1.9492   -5.5185 H   0  0  0  0  0  0  0  0  0  0  0  0
  106.6729   -2.4353   -5.2611 H   0  0  0  0  0  0  0  0  0  0  0  0
  104.8108    2.6233   -5.0738 H   0  0  0  0  0  0  0  0  0  0  0  0
  1  2  1  0  0  0  0
  1  3  1  0  0  0  0
  1  4  2  0  0  0  0
  5  6  1  1  0  0  0
  5  7  2  0  0  0  0
  5  8  1  0  0  0  0
  8  1  1  0  0  0  0
  8 32  1  0  0  0  0
  9 10  1  1  0  0  0
  9 11  2  0  0  0  0
  9 12  1  0  0  0  0
  9 13  1  0  0  0  0
 12  5  1  0  0  0  0
 13 14  1  0  0  0  0
 14 15  1  0  0  0  0
 14 33  1  0  0  0  0
 14 34  1  0  0  0  0
 15 16  1  0  0  0  0
 15 17  1  0  0  0  0
 15 35  1  1  0  0  0
 16 21  1  0  0  0  0
 17 18  1  0  0  0  0
 17 19  1  0  0  0  0
 17 36  1  6  0  0  0
 18 37  1  0  0  0  0
 19 20  1  0  0  0  0
 19 21  1  0  0  0  0
 19 38  1  1  0  0  0
 20 39  1  0  0  0  0
 21 22  1  0  0  0  0
 21 40  1  1  0  0  0
 22 23  1  0  0  0  0
 22 31  1  0  0  0  0
 23 24  2  0  0  0  0
 23 41  1  0  0  0  0
 24 25  1  0  0  0  0
 25 26  2  0  0  0  0
 25 31  1  0  0  0  0
 26 27  1  0  0  0  0
 26 28  1  0  0  0  0
 27 42  1  0  0  0  0
 27 43  1  0  0  0  0
 28 29  2  0  0  0  0
 29 30  1  0  0  0  0
 29 44  1  0  0  0  0
 30 31  2  0  0  0  0
M  END
