2a2g_ligand
 OpenBabel08222323343D

 27 28  0  0  1  0  0  0  0  0999 V2000
   21.3400    1.4530   58.7970 C   0  0  0  0  0  0  0  0  0  0  0  0
   19.4020    2.4970   57.4160 C   0  0  2  0  0  0  0  0  0  0  0  0
   19.0920    0.3830   58.8100 C   0  0  0  0  0  0  0  0  0  0  0  0
   18.5390    1.2760   57.6840 C   0  0  0  0  0  0  0  0  0  0  0  0
   20.6000    0.1040   58.6340 C   0  0  1  0  0  0  0  0  0  0  0  0
   20.7750    2.5590   57.9450 C   0  0  2  0  0  0  0  0  0  0  0  0
   18.6860    3.7800   57.0670 C   0  0  0  0  0  0  0  0  0  0  0  0
   20.5580    2.2300   56.5260 O   0  0  0  0  0  0  0  0  0  0  0  0
   20.9370   -0.6800   57.3570 C   0  0  0  0  0  0  0  0  0  0  0  0
   20.0950   -0.7600   56.3450 C   0  0  0  0  0  0  0  0  0  0  0  0
   22.2440   -1.4480   57.3280 C   0  0  0  0  0  0  0  0  0  0  0  0
   22.3947    1.3063   58.5213 H   0  0  0  0  0  0  0  0  0  0  0  0
   21.2758    1.7594   59.8515 H   0  0  0  0  0  0  0  0  0  0  0  0
   18.5500   -0.5742   58.8037 H   0  0  0  0  0  0  0  0  0  0  0  0
   18.9338    0.8876   59.7745 H   0  0  0  0  0  0  0  0  0  0  0  0
   18.4791    0.6799   56.7615 H   0  0  0  0  0  0  0  0  0  0  0  0
   17.5316    1.6144   57.9680 H   0  0  0  0  0  0  0  0  0  0  0  0
   20.9141   -0.5379   59.4703 H   0  0  0  0  0  0  0  0  0  0  0  0
   21.1969    3.5277   58.2510 H   0  0  0  0  0  0  0  0  0  0  0  0
   17.6794    3.5471   56.6896 H   0  0  0  0  0  0  0  0  0  0  0  0
   19.2528    4.3172   56.2923 H   0  0  0  0  0  0  0  0  0  0  0  0
   18.6042    4.4102   57.9649 H   0  0  0  0  0  0  0  0  0  0  0  0
   20.3664   -1.3246   55.4542 H   0  0  0  0  0  0  0  0  0  0  0  0
   19.1284   -0.2614   56.4002 H   0  0  0  0  0  0  0  0  0  0  0  0
   22.3491   -1.9563   56.3582 H   0  0  0  0  0  0  0  0  0  0  0  0
   22.2486   -2.1947   58.1357 H   0  0  0  0  0  0  0  0  0  0  0  0
   23.0826   -0.7502   57.4690 H   0  0  0  0  0  0  0  0  0  0  0  0
  1  5  1  0  0  0  0
  1 12  1  0  0  0  0
  1 13  1  0  0  0  0
  2  4  1  0  0  0  0
  2  6  1  0  0  0  0
  2  7  1  6  0  0  0
  2  8  1  0  0  0  0
  3  5  1  0  0  0  0
  3 14  1  0  0  0  0
  3 15  1  0  0  0  0
  4  3  1  0  0  0  0
  4 16  1  0  0  0  0
  4 17  1  0  0  0  0
  5  9  1  0  0  0  0
  5 18  1  1  0  0  0
  6  1  1  0  0  0  0
  6  8  1  0  0  0  0
  6 19  1  1  0  0  0
  7 20  1  0  0  0  0
  7 21  1  0  0  0  0
  7 22  1  0  0  0  0
  9 10  2  0  0  0  0
  9 11  1  0  0  0  0
 10 23  1  0  0  0  0
 10 24  1  0  0  0  0
 11 25  1  0  0  0  0
 11 26  1  0  0  0  0
 11 27  1  0  0  0  0
M  END
