2a31_ligand
 OpenBabel08222323343D

 20 19  0  0  0  0  0  0  0  0999 V2000
   35.7140   26.7680   11.3540 O   0  0  0  0  0  0  0  0  0  0  0  0
   34.4270   26.1990   11.4080 C   0  0  0  0  0  0  0  0  0  0  0  0
   33.3230   27.2280   11.1990 C   0  0  0  0  0  0  0  0  0  0  0  0
   33.5260   28.4430   12.1270 C   0  0  0  0  0  0  0  0  0  0  0  0
   32.2580   28.8610   12.7360 N   0  0  0  0  0  0  0  0  0  0  0  0
   31.8390   28.4320   13.9250 C   0  0  0  0  0  3  0  0  0  0  0  0
   32.4110   27.4120   14.5790 N   0  0  0  0  0  0  0  0  0  0  0  0
   30.8350   29.0700   14.4930 N   0  0  0  0  0  0  0  0  0  0  0  0
   36.3650   26.0894   11.4893 H   0  0  0  0  0  0  0  0  0  0  0  0
   34.2899   25.7304   12.3937 H   0  0  0  0  0  0  0  0  0  0  0  0
   34.3474   25.4324   10.6232 H   0  0  0  0  0  0  0  0  0  0  0  0
   32.3505   26.7638   11.4198 H   0  0  0  0  0  0  0  0  0  0  0  0
   33.3386   27.5666   10.1525 H   0  0  0  0  0  0  0  0  0  0  0  0
   33.9353   29.2786   11.5403 H   0  0  0  0  0  0  0  0  0  0  0  0
   34.2348   28.1722   12.9234 H   0  0  0  0  0  0  0  0  0  0  0  0
   31.6610   29.5205   12.2168 H   0  0  0  0  0  0  0  0  0  0  0  0
   32.0470   27.1201   15.4973 H   0  0  0  0  0  0  0  0  0  0  0  0
   33.2147   26.9198   14.1635 H   0  0  0  0  0  0  0  0  0  0  0  0
   30.3828   29.8566   14.0054 H   0  0  0  0  0  0  0  0  0  0  0  0
   30.5027   28.7819   15.4244 H   0  0  0  0  0  0  0  0  0  0  0  0
  1  2  1  0  0  0  0
  1  9  1  0  0  0  0
  2  3  1  0  0  0  0
  2 10  1  0  0  0  0
  2 11  1  0  0  0  0
  3  4  1  0  0  0  0
  3 12  1  0  0  0  0
  3 13  1  0  0  0  0
  4  5  1  0  0  0  0
  4 14  1  0  0  0  0
  4 15  1  0  0  0  0
  5  6  1  0  0  0  0
  5 16  1  0  0  0  0
  6  7  1  0  0  0  0
  6  8  1  0  0  0  0
  7 17  1  0  0  0  0
  7 18  1  0  0  0  0
  8 19  1  0  0  0  0
  8 20  1  0  0  0  0
M  END
