2a3w_ligand
 OpenBabel08222323343D

 52 53  0  0  1  0  0  0  0  0999 V2000
   11.2230   17.2110  -36.7420 O   0  5  0  0  0  0  0  0  0  0  0  0
   11.2800   16.2740  -35.9100 C   0  0  0  0  0  0  0  0  0  0  0  0
   12.2260   16.1510  -35.1000 O   0  0  0  0  0  0  0  0  0  0  0  0
   10.1750   15.2410  -35.8940 C   0  0  1  0  0  0  0  0  0  0  0  0
    8.9080   15.9210  -36.0060 O   0  0  0  0  0  0  0  0  0  0  0  0
    7.7520   15.1250  -35.7240 C   0  0  0  0  0  0  0  0  0  0  0  0
   10.3870   14.3130  -37.0940 C   0  0  0  0  0  0  0  0  0  0  0  0
   10.2770   14.4960  -34.6650 O   0  0  0  0  0  0  0  0  0  0  0  0
    9.1610   13.6570  -34.3430 C   0  0  0  0  0  0  0  0  0  0  0  0
    7.8930   14.4960  -34.3420 C   0  0  1  0  0  0  0  0  0  0  0  0
    8.0570   15.5620  -33.4130 O   0  0  0  0  0  0  0  0  0  0  0  0
    6.8080   16.1750  -32.9800 C   0  0  0  0  0  0  0  0  0  0  0  0
    5.7370   15.7490  -33.4000 O   0  0  0  0  0  0  0  0  0  0  0  0
    6.9240   17.1900  -32.1200 N   0  0  0  0  0  0  0  0  0  0  0  0
    5.7920   17.9150  -31.5780 C   0  0  0  0  0  0  0  0  0  0  0  0
    5.0400   17.0550  -30.5820 C   0  0  0  0  0  0  0  0  0  0  0  0
    3.8620   17.7090  -30.0550 N   0  0  0  0  0  0  0  0  0  0  0  0
    3.7540   17.9330  -28.7510 C   0  0  0  0  0  0  0  0  0  0  0  0
    4.6230   17.6180  -27.9450 O   0  0  0  0  0  0  0  0  0  0  0  0
    2.5400   18.5800  -28.2870 O   0  0  0  0  0  0  0  0  0  0  0  0
    2.5480   18.7540  -26.8720 C   0  0  1  0  0  0  0  0  0  0  0  0
    2.7800   20.2230  -26.5370 C   0  0  0  0  0  0  0  0  0  0  0  0
    1.6850   20.9980  -27.0270 O   0  0  0  0  0  0  0  0  0  0  0  0
    1.1950   18.3090  -26.3260 C   0  0  0  0  0  0  0  0  0  0  0  0
    0.1710   19.1720  -26.8310 O   0  0  0  0  0  0  0  0  0  0  0  0
    0.3850   20.5740  -26.5810 C   0  0  1  0  0  0  0  0  0  0  0  0
    0.1740   20.8940  -25.1000 C   0  0  0  0  0  0  0  0  0  0  0  0
   -0.6130   21.3760  -27.3690 C   0  0  0  0  0  0  0  0  0  0  0  0
   -1.6340   20.8150  -27.8300 O   0  5  0  0  0  0  0  0  0  0  0  0
   -0.3770   22.5900  -27.5270 O   0  0  0  0  0  0  0  0  0  0  0  0
    7.6597   14.3316  -36.4803 H   0  0  0  0  0  0  0  0  0  0  0  0
    6.8545   15.7605  -35.7478 H   0  0  0  0  0  0  0  0  0  0  0  0
    9.5966   13.5481  -37.1101 H   0  0  0  0  0  0  0  0  0  0  0  0
   11.3687   13.8240  -37.0104 H   0  0  0  0  0  0  0  0  0  0  0  0
   10.3478   14.9004  -38.0232 H   0  0  0  0  0  0  0  0  0  0  0  0
    9.3093   13.2122  -33.3479 H   0  0  0  0  0  0  0  0  0  0  0  0
    9.0729   12.8570  -35.0928 H   0  0  0  0  0  0  0  0  0  0  0  0
    7.0150   13.8829  -34.0908 H   0  0  0  0  0  0  0  0  0  0  0  0
    7.8421   17.4649  -31.8343 H   0  0  0  0  0  0  0  0  0  0  0  0
    5.1149   18.1953  -32.3983 H   0  0  0  0  0  0  0  0  0  0  0  0
    6.1519   18.8235  -31.0729 H   0  0  0  0  0  0  0  0  0  0  0  0
    5.7130   16.8155  -29.7456 H   0  0  0  0  0  0  0  0  0  0  0  0
    4.7317   16.1252  -31.0825 H   0  0  0  0  0  0  0  0  0  0  0  0
    3.1289   17.9924  -30.6732 H   0  0  0  0  0  0  0  0  0  0  0  0
    3.3480   18.1446  -26.4263 H   0  0  0  0  0  0  0  0  0  0  0  0
    3.7125   20.5648  -27.0098 H   0  0  0  0  0  0  0  0  0  0  0  0
    2.8563   20.3435  -25.4463 H   0  0  0  0  0  0  0  0  0  0  0  0
    1.2082   18.3592  -25.2272 H   0  0  0  0  0  0  0  0  0  0  0  0
    0.9932   17.2753  -26.6435 H   0  0  0  0  0  0  0  0  0  0  0  0
    0.3417   21.9677  -24.9294 H   0  0  0  0  0  0  0  0  0  0  0  0
    0.8836   20.3113  -24.4942 H   0  0  0  0  0  0  0  0  0  0  0  0
   -0.8549   20.6332  -24.8115 H   0  0  0  0  0  0  0  0  0  0  0  0
  1  2  1  0  0  0  0
  2  3  2  0  0  0  0
  4  2  1  6  0  0  0
  4  5  1  0  0  0  0
  4  7  1  0  0  0  0
  4  8  1  0  0  0  0
  5  6  1  0  0  0  0
  6 10  1  0  0  0  0
  6 31  1  0  0  0  0
  6 32  1  0  0  0  0
  7 33  1  0  0  0  0
  7 34  1  0  0  0  0
  7 35  1  0  0  0  0
  8  9  1  0  0  0  0
  9 10  1  0  0  0  0
  9 36  1  0  0  0  0
  9 37  1  0  0  0  0
 10 11  1  0  0  0  0
 10 38  1  1  0  0  0
 11 12  1  0  0  0  0
 12 13  2  0  0  0  0
 12 14  1  0  0  0  0
 14 15  1  0  0  0  0
 14 39  1  0  0  0  0
 15 16  1  0  0  0  0
 15 40  1  0  0  0  0
 15 41  1  0  0  0  0
 16 17  1  0  0  0  0
 16 42  1  0  0  0  0
 16 43  1  0  0  0  0
 17 18  1  0  0  0  0
 17 44  1  0  0  0  0
 18 19  2  0  0  0  0
 18 20  1  0  0  0  0
 20 21  1  0  0  0  0
 21 22  1  0  0  0  0
 21 24  1  0  0  0  0
 21 45  1  1  0  0  0
 22 23  1  0  0  0  0
 22 46  1  0  0  0  0
 22 47  1  0  0  0  0
 23 26  1  0  0  0  0
 24 25  1  0  0  0  0
 24 48  1  0  0  0  0
 24 49  1  0  0  0  0
 25 26  1  0  0  0  0
 26 27  1  0  0  0  0
 26 28  1  6  0  0  0
 27 50  1  0  0  0  0
 27 51  1  0  0  0  0
 27 52  1  0  0  0  0
 28 29  1  0  0  0  0
 28 30  2  0  0  0  0
M  CHG  2   1  -1  29  -1
M  END
