2a4q_ligand
 OpenBabel08222323343D

110113  0  0  1  0  0  0  0  0999 V2000
  192.9860  -10.8280   49.0130 C   0  0  0  0  0  0  0  0  0  0  0  0
  193.7240  -11.4620   49.7830 O   0  0  0  0  0  0  0  0  0  0  0  0
  191.5090  -11.2000   48.8630 C   0  0  0  0  0  0  0  0  0  0  0  0
  190.5580  -10.0970   49.2930 C   0  0  0  0  0  0  0  0  0  0  0  0
  189.7820  -10.5070   50.5340 C   0  0  0  0  0  0  0  0  0  0  0  0
  190.7190  -10.8790   51.6820 C   0  0  0  0  0  0  0  0  0  0  0  0
  190.0190  -10.8260   53.0470 C   0  0  0  0  0  0  0  0  0  0  0  0
  191.0220  -10.9990   54.1960 C   0  0  0  0  0  0  0  0  0  0  0  0
  192.2070  -10.0870   53.9580 C   0  0  0  0  0  0  0  0  0  0  0  0
  193.4090   -9.7890   48.2940 N   0  0  0  0  0  0  0  0  0  0  0  0
  194.8010   -9.3410   48.3130 C   0  0  1  0  0  0  0  0  0  0  0  0
  195.1160   -8.4430   47.0790 C   0  0  0  0  0  0  0  0  0  0  0  0
  196.6030   -8.0670   47.0370 C   0  0  0  0  0  0  0  0  0  0  0  0
  194.7680   -9.1630   45.7660 C   0  0  0  0  0  0  0  0  0  0  0  0
  196.9810   -7.2480   45.8060 C   0  0  0  0  0  0  0  0  0  0  0  0
  195.1120   -8.3570   44.5160 C   0  0  0  0  0  0  0  0  0  0  0  0
  196.5920   -7.9790   44.5160 C   0  0  0  0  0  0  0  0  0  0  0  0
  195.1730   -8.5600   49.5680 C   0  0  0  0  0  0  0  0  0  0  0  0
  194.7560   -7.4090   49.7270 O   0  0  0  0  0  0  0  0  0  0  0  0
  195.9490   -9.1750   50.4580 N   0  0  0  0  0  0  0  0  0  0  0  0
  196.3830   -8.4810   51.6700 C   0  0  1  0  0  0  0  0  0  0  0  0
  196.9300   -9.4680   52.7150 C   0  0  0  0  0  0  0  0  0  0  0  0
  195.8820  -10.3760   53.2880 C   0  0  0  0  0  0  0  0  0  0  0  0
  194.5900   -9.9270   53.4550 C   0  0  0  0  0  0  0  0  0  0  0  0
  196.1560  -11.7150   53.5530 C   0  0  0  0  0  0  0  0  0  0  0  0
  195.1340  -12.5810   53.9630 C   0  0  0  0  0  0  0  0  0  0  0  0
  193.8280  -12.0980   54.1050 C   0  0  0  0  0  0  0  0  0  0  0  0
  193.5710  -10.7580   53.8560 C   0  0  0  0  0  0  0  0  0  0  0  0
  197.4550   -7.4790   51.2490 C   0  0  0  0  0  0  0  0  0  0  0  0
  198.5180   -7.8590   50.7480 O   0  0  0  0  0  0  0  0  0  0  0  0
  197.1500   -6.1960   51.4110 N   0  0  0  0  0  0  0  0  0  0  0  0
  198.0850   -5.1400   51.0290 C   0  0  1  0  0  0  0  0  0  0  0  0
  197.4300   -4.1650   50.0330 C   0  0  0  0  0  0  0  0  0  0  0  0
  196.2500   -4.7390   49.2410 C   0  0  0  0  0  0  0  0  0  0  0  0
  196.2400   -4.3280   47.7790 C   0  0  0  0  0  0  0  0  0  0  0  0
  199.6330   -5.4240   52.9160 O   0  0  0  0  0  0  0  0  0  0  0  0
  198.8470   -4.4360   52.2250 C   0  0  1  0  0  0  0  0  0  0  0  0
  199.5520   -2.5090   51.0500 O   0  0  0  0  0  0  0  0  0  0  0  0
  201.2350   -3.8430   51.6840 N   0  0  0  0  0  0  0  0  0  0  0  0
  201.9030   -4.7740   50.7850 C   0  0  0  0  0  0  0  0  0  0  0  0
  202.7950   -4.1820   49.7130 C   0  0  0  0  0  0  0  0  0  0  0  0
  202.4930   -4.2970   48.5260 O   0  0  0  0  0  0  0  0  0  0  0  0
  199.9440   -3.5270   51.6050 C   0  0  0  0  0  0  0  0  0  0  0  0
  203.8820   -3.5380   50.1400 N   0  0  0  0  0  0  0  0  0  0  0  0
  204.8790   -2.9110   49.2620 C   0  0  2  0  0  0  0  0  0  0  0  0
  204.4660   -2.1550   47.9310 C   0  0  0  0  0  0  0  0  0  0  0  0
  204.2650   -2.6600   46.6090 C   0  0  0  0  0  0  0  0  0  0  0  0
  204.3310   -0.7520   48.0750 C   0  0  0  0  0  0  0  0  0  0  0  0
  203.9560   -1.8410   45.5110 C   0  0  0  0  0  0  0  0  0  0  0  0
  204.0240    0.0860   46.9960 C   0  0  0  0  0  0  0  0  0  0  0  0
  203.8380   -0.4640   45.7140 C   0  0  0  0  0  0  0  0  0  0  0  0
  206.0760   -3.8210   48.9680 C   0  0  0  0  0  0  0  0  0  0  0  0
  205.9150   -4.9370   48.4530 O   0  5  0  0  0  0  0  0  0  0  0  0
  207.2210   -3.4490   49.2560 O   0  0  0  0  0  0  0  0  0  0  0  0
  191.3102  -12.0900   49.4781 H   0  0  0  0  0  0  0  0  0  0  0  0
  191.3149  -11.4341   47.8059 H   0  0  0  0  0  0  0  0  0  0  0  0
  189.8501   -9.8924   48.4763 H   0  0  0  0  0  0  0  0  0  0  0  0
  191.1364   -9.1877   49.5134 H   0  0  0  0  0  0  0  0  0  0  0  0
  189.1519  -11.3753   50.2911 H   0  0  0  0  0  0  0  0  0  0  0  0
  189.1444   -9.6683   50.8504 H   0  0  0  0  0  0  0  0  0  0  0  0
  191.5643  -10.1752   51.6907 H   0  0  0  0  0  0  0  0  0  0  0  0
  191.0934  -11.8999   51.5161 H   0  0  0  0  0  0  0  0  0  0  0  0
  189.2728  -11.6326   53.0985 H   0  0  0  0  0  0  0  0  0  0  0  0
  189.5159   -9.8537   53.1541 H   0  0  0  0  0  0  0  0  0  0  0  0
  191.3629  -12.0442   54.2337 H   0  0  0  0  0  0  0  0  0  0  0  0
  190.5399  -10.7359   55.1491 H   0  0  0  0  0  0  0  0  0  0  0  0
  192.2490   -9.3693   54.7905 H   0  0  0  0  0  0  0  0  0  0  0  0
  192.0291   -9.5466   53.0166 H   0  0  0  0  0  0  0  0  0  0  0  0
  192.7519   -9.2986   47.7216 H   0  0  0  0  0  0  0  0  0  0  0  0
  195.4374  -10.2370   48.2669 H   0  0  0  0  0  0  0  0  0  0  0  0
  194.5154   -7.5245   47.1544 H   0  0  0  0  0  0  0  0  0  0  0  0
  197.1978   -8.9923   47.0375 H   0  0  0  0  0  0  0  0  0  0  0  0
  196.8403   -7.4780   47.9352 H   0  0  0  0  0  0  0  0  0  0  0  0
  193.6878   -9.3707   45.7592 H   0  0  0  0  0  0  0  0  0  0  0  0
  195.3240  -10.1115   45.7318 H   0  0  0  0  0  0  0  0  0  0  0  0
  198.0676   -7.0768   45.8082 H   0  0  0  0  0  0  0  0  0  0  0  0
  196.4574   -6.2813   45.8429 H   0  0  0  0  0  0  0  0  0  0  0  0
  194.5040   -7.4405   44.4971 H   0  0  0  0  0  0  0  0  0  0  0  0
  194.8924   -8.9612   43.6234 H   0  0  0  0  0  0  0  0  0  0  0  0
  197.1954   -8.8944   44.4271 H   0  0  0  0  0  0  0  0  0  0  0  0
  196.7938   -7.3220   43.6572 H   0  0  0  0  0  0  0  0  0  0  0  0
  196.2374  -10.1188   50.2965 H   0  0  0  0  0  0  0  0  0  0  0  0
  195.5298   -7.9427   52.1085 H   0  0  0  0  0  0  0  0  0  0  0  0
  197.3781   -8.8912   53.5375 H   0  0  0  0  0  0  0  0  0  0  0  0
  197.7036  -10.0873   52.2374 H   0  0  0  0  0  0  0  0  0  0  0  0
  194.3697   -8.8830   53.2637 H   0  0  0  0  0  0  0  0  0  0  0  0
  197.1669  -12.0900   53.4413 H   0  0  0  0  0  0  0  0  0  0  0  0
  195.3540  -13.6221   54.1697 H   0  0  0  0  0  0  0  0  0  0  0  0
  193.0269  -12.7634   54.4060 H   0  0  0  0  0  0  0  0  0  0  0  0
  196.2635   -5.9483   51.8019 H   0  0  0  0  0  0  0  0  0  0  0  0
  198.8772   -5.6494   50.4607 H   0  0  0  0  0  0  0  0  0  0  0  0
  198.1987   -3.8444   49.3145 H   0  0  0  0  0  0  0  0  0  0  0  0
  197.0691   -3.2926   50.5975 H   0  0  0  0  0  0  0  0  0  0  0  0
  195.3164   -4.3900   49.7064 H   0  0  0  0  0  0  0  0  0  0  0  0
  196.2977   -5.8367   49.2930 H   0  0  0  0  0  0  0  0  0  0  0  0
  195.3689   -4.7757   47.2782 H   0  0  0  0  0  0  0  0  0  0  0  0
  197.1625   -4.6787   47.2932 H   0  0  0  0  0  0  0  0  0  0  0  0
  196.1813   -3.2320   47.7066 H   0  0  0  0  0  0  0  0  0  0  0  0
  199.0607   -6.1036   53.2525 H   0  0  0  0  0  0  0  0  0  0  0  0
  198.1575   -3.8940   52.8889 H   0  0  0  0  0  0  0  0  0  0  0  0
  201.7796   -3.4147   52.4051 H   0  0  0  0  0  0  0  0  0  0  0  0
  201.1235   -5.3624   50.2790 H   0  0  0  0  0  0  0  0  0  0  0  0
  202.5240   -5.4410   51.4010 H   0  0  0  0  0  0  0  0  0  0  0  0
  204.0287   -3.4777   51.1273 H   0  0  0  0  0  0  0  0  0  0  0  0
  205.2812   -2.1062   49.8948 H   0  0  0  0  0  0  0  0  0  0  0  0
  204.3556   -3.7278   46.4460 H   0  0  0  0  0  0  0  0  0  0  0  0
  204.4704   -0.3115   49.0556 H   0  0  0  0  0  0  0  0  0  0  0  0
  203.8119   -2.2688   44.5255 H   0  0  0  0  0  0  0  0  0  0  0  0
  203.9299    1.1552   47.1477 H   0  0  0  0  0  0  0  0  0  0  0  0
  203.6016    0.1852   44.8787 H   0  0  0  0  0  0  0  0  0  0  0  0
  1  2  2  0  0  0  0
  1  3  1  0  0  0  0
  3  4  1  0  0  0  0
  3 55  1  0  0  0  0
  3 56  1  0  0  0  0
  4  5  1  0  0  0  0
  4 57  1  0  0  0  0
  4 58  1  0  0  0  0
  5 59  1  0  0  0  0
  5 60  1  0  0  0  0
  6  5  1  0  0  0  0
  6 61  1  0  0  0  0
  6 62  1  0  0  0  0
  7  6  1  0  0  0  0
  7 63  1  0  0  0  0
  7 64  1  0  0  0  0
  8  7  1  0  0  0  0
  8 65  1  0  0  0  0
  8 66  1  0  0  0  0
  9  8  1  0  0  0  0
  9 67  1  0  0  0  0
  9 68  1  0  0  0  0
 10  1  1  0  0  0  0
 10 69  1  0  0  0  0
 11 10  1  0  0  0  0
 11 12  1  0  0  0  0
 11 70  1  6  0  0  0
 12 13  1  0  0  0  0
 12 14  1  0  0  0  0
 12 71  1  0  0  0  0
 13 15  1  0  0  0  0
 13 72  1  0  0  0  0
 13 73  1  0  0  0  0
 14 16  1  0  0  0  0
 14 74  1  0  0  0  0
 14 75  1  0  0  0  0
 15 17  1  0  0  0  0
 15 76  1  0  0  0  0
 15 77  1  0  0  0  0
 16 17  1  0  0  0  0
 16 78  1  0  0  0  0
 16 79  1  0  0  0  0
 17 80  1  0  0  0  0
 17 81  1  0  0  0  0
 18 11  1  0  0  0  0
 18 19  2  0  0  0  0
 20 18  1  0  0  0  0
 20 82  1  0  0  0  0
 21 20  1  0  0  0  0
 21 22  1  0  0  0  0
 21 83  1  1  0  0  0
 22 23  1  0  0  0  0
 22 84  1  0  0  0  0
 22 85  1  0  0  0  0
 23 24  2  0  0  0  0
 23 25  1  0  0  0  0
 24 28  1  0  0  0  0
 24 86  1  0  0  0  0
 25 26  2  0  0  0  0
 25 87  1  0  0  0  0
 26 27  1  0  0  0  0
 26 88  1  0  0  0  0
 27 89  1  0  0  0  0
 28  9  1  0  0  0  0
 28 27  2  0  0  0  0
 29 21  1  0  0  0  0
 29 30  2  0  0  0  0
 31 29  1  0  0  0  0
 31 90  1  0  0  0  0
 32 31  1  0  0  0  0
 32 33  1  0  0  0  0
 32 91  1  6  0  0  0
 33 34  1  0  0  0  0
 33 92  1  0  0  0  0
 33 93  1  0  0  0  0
 34 35  1  0  0  0  0
 34 94  1  0  0  0  0
 34 95  1  0  0  0  0
 35 96  1  0  0  0  0
 35 97  1  0  0  0  0
 35 98  1  0  0  0  0
 36 99  1  0  0  0  0
 37 32  1  0  0  0  0
 37 36  1  0  0  0  0
 37100  1  1  0  0  0
 39 40  1  0  0  0  0
 39 43  1  0  0  0  0
 39101  1  0  0  0  0
 40 41  1  0  0  0  0
 40102  1  0  0  0  0
 40103  1  0  0  0  0
 41 42  2  0  0  0  0
 41 44  1  0  0  0  0
 43 37  1  0  0  0  0
 43 38  2  0  0  0  0
 44 45  1  0  0  0  0
 44104  1  0  0  0  0
 45 46  1  0  0  0  0
 45 52  1  0  0  0  0
 45105  1  1  0  0  0
 46 47  2  0  0  0  0
 46 48  1  0  0  0  0
 47 49  1  0  0  0  0
 47106  1  0  0  0  0
 48 50  2  0  0  0  0
 48107  1  0  0  0  0
 49 51  2  0  0  0  0
 49108  1  0  0  0  0
 50 51  1  0  0  0  0
 50109  1  0  0  0  0
 51110  1  0  0  0  0
 52 53  1  0  0  0  0
 52 54  2  0  0  0  0
M  CHG  1  53  -1
M  END
