2a4w_ligand
 OpenBabel08222323343D

182187  0  0  1  0  0  0  0  0999 V2000
   32.5450   -9.3130    5.9490 N   0  0  0  0  0  0  0  0  0  0  0  0
   32.6720  -10.4320    8.1770 C   0  0  2  0  0  0  0  0  0  0  0  0
   32.4850   -9.1840    7.3220 C   0  0  0  0  0  0  0  0  0  0  0  0
   32.2980   -8.0660    7.7560 O   0  0  0  0  0  0  0  0  0  0  0  0
   33.9740   -9.1780    9.8490 N   0  3  0  0  0  0  0  0  0  0  0  0
   32.8860  -10.1320    9.6700 C   0  0  0  0  0  0  0  0  0  0  0  0
   33.8880  -11.2250    7.7610 N   0  3  0  0  0  0  0  0  0  0  0  0
   31.5990   -7.5060   13.0240 N   0  0  0  0  0  0  0  0  0  0  0  0
   33.6230   -8.7490   12.3200 C   0  0  0  0  0  0  0  0  0  0  0  0
   32.7730   -7.5110   12.3580 C   0  0  0  0  0  0  0  0  0  0  0  0
   33.1220   -6.4290   11.7430 O   0  0  0  0  0  0  0  0  0  0  0  0
   36.3840  -12.0170   12.7170 C   0  0  0  0  0  0  0  0  0  0  0  0
   37.1560  -12.5150   11.4940 C   0  0  0  0  0  0  0  0  0  0  0  0
   37.0040  -11.9090   10.3510 C   0  0  0  0  0  0  0  0  0  0  0  0
   36.0880  -10.7430   10.3020 N   0  0  0  0  0  0  0  0  0  0  0  0
   35.4260  -10.3160   11.4130 C   0  0  0  0  0  0  0  0  0  0  0  0
   35.5220  -10.8520   12.5010 N   0  0  0  0  0  0  0  0  0  0  0  0
   34.5960   -9.0500   11.1580 C   0  0  1  0  0  0  0  0  0  0  0  0
   36.4660  -12.6000   13.9210 N   0  0  0  0  0  0  0  0  0  0  0  0
   38.1010  -13.6880   11.6770 C   0  0  0  0  0  0  0  0  0  0  0  0
   37.5590  -12.1100    9.0450 C   0  0  0  0  0  0  0  0  0  0  0  0
   38.3840  -13.0130    8.8760 O   0  0  0  0  0  0  0  0  0  0  0  0
   37.1330  -11.2360    8.0420 N   0  0  0  0  0  0  0  0  0  0  0  0
   37.6380  -11.3470    6.6750 C   0  0  2  0  0  0  0  0  0  0  0  0
   39.0440  -10.7870    6.5280 C   0  0  0  0  0  0  0  0  0  0  0  0
   39.8300  -11.2610    5.7050 O   0  0  0  0  0  0  0  0  0  0  0  0
   36.7160  -10.6810    5.6290 C   0  0  2  0  0  0  0  0  0  0  0  0
   36.3070   -9.2460    5.9430 C   0  0  0  0  0  0  0  0  0  0  0  0
   35.5800  -11.5180    5.4750 O   0  0  0  0  0  0  0  0  0  0  0  0
   36.0960   -8.7810    7.1620 N   0  0  0  0  0  0  0  0  0  0  0  0
   36.0380   -8.2760    5.0140 C   0  0  0  0  0  0  0  0  0  0  0  0
   35.6950   -7.5340    6.9980 C   0  0  0  0  0  0  0  0  0  0  0  0
   35.6600   -7.2350    5.7100 N   0  0  0  0  0  0  0  0  0  0  0  0
   39.3730   -9.7620    7.3260 N   0  0  0  0  0  0  0  0  0  0  0  0
   39.4910   -6.9430    6.3380 C   0  0  2  0  0  0  0  0  0  0  0  0
   39.4100   -5.4550    6.6590 C   0  0  0  0  0  0  0  0  0  0  0  0
   39.8060   -4.5820    5.8770 O   0  0  0  0  0  0  0  0  0  0  0  0
   41.7900   -7.1050    6.8140 O   0  0  0  0  0  0  0  0  0  0  0  0
   40.6840   -9.1310    7.2870 C   0  0  2  0  0  0  0  0  0  0  0  0
   41.4510   -9.5820    8.5200 C   0  0  0  0  0  0  0  0  0  0  0  0
   40.5360   -7.5990    7.2730 C   0  0  2  0  0  0  0  0  0  0  0  0
   39.8250   -7.1250    4.8590 C   0  0  0  0  0  0  0  0  0  0  0  0
   38.8590   -5.1430    7.8350 N   0  0  0  0  0  0  0  0  0  0  0  0
   38.7560   -3.7660    8.2830 C   0  0  2  0  0  0  0  0  0  0  0  0
   39.6930   -3.5280    9.4580 C   0  0  0  0  0  0  0  0  0  0  0  0
   40.2960   -4.4550   10.0090 O   0  0  0  0  0  0  0  0  0  0  0  0
   37.3210   -3.4150    8.7240 C   0  0  2  0  0  0  0  0  0  0  0  0
   37.0690   -4.1440    9.9220 O   0  0  0  0  0  0  0  0  0  0  0  0
   36.2820   -3.7400    7.6690 C   0  0  0  0  0  0  0  0  0  0  0  0
   39.8120   -2.2700    9.8630 N   0  0  0  0  0  0  0  0  0  0  0  0
   39.8040   -2.1140   12.2830 C   0  0  0  0  0  0  0  0  0  0  0  0
   31.4270   -0.8410   12.6430 C   0  0  0  0  0  0  0  0  0  0  0  0
   31.4570    0.2770   13.1440 O   0  0  0  0  0  0  0  0  0  0  0  0
   38.4870   -1.3970   12.2840 C   0  0  0  0  0  0  0  0  0  0  0  0
   40.6190   -1.8910   11.0040 C   0  0  0  0  0  0  0  0  0  0  0  0
   38.3110    0.2500   12.7500 S   0  0  0  0  0  0  0  0  0  0  0  0
   36.6270    0.0950   12.7230 C   0  0  0  0  0  0  0  0  0  0  0  0
   36.2860   -1.2100   12.3520 C   0  0  0  0  0  0  0  0  0  0  0  0
   37.3810   -2.0250   12.0880 N   0  0  0  0  0  0  0  0  0  0  0  0
   32.8390   -2.8510   11.9430 C   0  0  0  0  0  0  0  0  0  0  0  0
   32.7260   -1.5610   12.3740 C   0  0  0  0  0  0  0  0  0  0  0  0
   33.9200   -0.9090   12.5360 N   0  0  0  0  0  0  0  0  0  0  0  0
   34.9380   -1.6430   12.2840 C   0  0  0  0  0  0  0  0  0  0  0  0
   34.5280   -3.2660   11.7740 S   0  0  0  0  0  0  0  0  0  0  0  0
   30.3350   -1.5630   12.4130 N   0  0  0  0  0  0  0  0  0  0  0  0
   29.0170   -1.0160   12.6340 C   0  0  0  0  0  0  0  0  0  0  0  0
   28.6200    0.0520   11.6430 C   0  0  0  0  0  0  0  0  0  0  0  0
   27.5090    0.9370   12.2250 C   0  0  0  0  0  0  0  0  0  0  0  0
   27.0250    2.2690   11.1150 S   0  0  0  0  0  3  0  0  0  0  0  0
   25.6890    3.1040   11.9220 C   0  0  0  0  0  0  0  0  0  0  0  0
   26.2410    1.5070    9.7220 C   0  0  0  0  0  0  0  0  0  0  0  0
   33.2480  -13.2630    1.9150 O   0  0  0  0  0  0  0  0  0  0  0  0
   32.5240  -12.5510    5.3980 O   0  0  0  0  0  0  0  0  0  0  0  0
   33.6750  -10.3330    1.7490 C   0  0  0  0  0  0  0  0  0  0  0  0
   34.2940   -9.0920    1.9310 O   0  0  0  0  0  0  0  0  0  0  0  0
   34.7770  -13.9690    5.8960 O   0  0  0  0  0  0  0  0  0  0  0  0
   33.7700  -11.1660    3.0310 C   0  0  2  0  0  0  0  0  0  0  0  0
   35.1430  -11.5050    3.2240 O   0  0  0  0  0  0  0  0  0  0  0  0
   35.5220  -12.3440    4.3230 C   0  0  2  0  0  0  0  0  0  0  0  0
   34.5720  -13.5550    4.5550 C   0  0  2  0  0  0  0  0  0  0  0  0
   33.0730  -13.2420    4.2950 C   0  0  2  0  0  0  0  0  0  0  0  0
   32.8960  -12.4270    3.0040 C   0  0  2  0  0  0  0  0  0  0  0  0
   34.8150  -15.6830    7.5500 C   0  0  1  0  0  0  0  0  0  0  0  0
   36.0370  -15.7500    8.4810 C   0  0  2  0  0  0  0  0  0  0  0  0
   37.1220  -16.6640    7.8690 C   0  0  1  0  0  0  0  0  0  0  0  0
   37.5170  -16.2480    6.4280 C   0  0  2  0  0  0  0  0  0  0  0  0
   36.6490  -15.2520    5.8880 O   0  0  0  0  0  0  0  0  0  0  0  0
   35.2360  -15.2850    6.1150 C   0  0  2  0  0  0  0  0  0  0  0  0
   35.8450  -16.1540    9.8250 O   0  0  0  0  0  0  0  0  0  0  0  0
   38.2720  -16.5900    8.6840 O   0  0  0  0  0  0  0  0  0  0  0  0
   34.1630  -16.9350    7.5020 O   0  0  0  0  0  0  0  0  0  0  0  0
   34.1130  -16.7750   11.1140 N   0  0  0  0  0  0  0  0  0  0  0  0
   34.8630  -15.7340   10.6280 C   0  0  0  0  0  0  0  0  0  0  0  0
   34.5780  -14.6060   10.9340 O   0  0  0  0  0  0  0  0  0  0  0  0
   38.7370  -18.1330    5.5880 O   0  0  0  0  0  0  0  0  0  0  0  0
   37.5190  -17.4540    5.4760 C   0  0  0  0  0  0  0  0  0  0  0  0
   32.4255   -8.5096    5.3656 H   0  0  0  0  0  0  0  0  0  0  0  0
   32.7079  -10.2098    5.5377 H   0  0  0  0  0  0  0  0  0  0  0  0
   31.7725  -11.0545    8.0611 H   0  0  0  0  0  0  0  0  0  0  0  0
   33.6126   -8.2694    9.6044 H   0  0  0  0  0  0  0  0  0  0  0  0
   34.7017   -9.4358    9.2009 H   0  0  0  0  0  0  0  0  0  0  0  0
   33.1340  -11.0663   10.1949 H   0  0  0  0  0  0  0  0  0  0  0  0
   31.9615   -9.7095   10.0904 H   0  0  0  0  0  0  0  0  0  0  0  0
   33.8174  -11.4601    6.7834 H   0  0  0  0  0  0  0  0  0  0  0  0
   33.9406  -12.0707    8.3070 H   0  0  0  0  0  0  0  0  0  0  0  0
   34.7176  -10.6735    7.9149 H   0  0  0  0  0  0  0  0  0  0  0  0
   31.0392   -6.6776   13.0443 H   0  0  0  0  0  0  0  0  0  0  0  0
   31.2890   -8.3307   13.4971 H   0  0  0  0  0  0  0  0  0  0  0  0
   32.9269   -9.5996   12.3642 H   0  0  0  0  0  0  0  0  0  0  0  0
   34.2350   -8.7281   13.2338 H   0  0  0  0  0  0  0  0  0  0  0  0
   35.2900   -8.1981   11.1060 H   0  0  0  0  0  0  0  0  0  0  0  0
   35.9247  -12.2247   14.7129 H   0  0  0  0  0  0  0  0  0  0  0  0
   37.0703  -13.4233   14.0544 H   0  0  0  0  0  0  0  0  0  0  0  0
   38.0605  -14.0320   12.7210 H   0  0  0  0  0  0  0  0  0  0  0  0
   39.1268  -13.3739   11.4340 H   0  0  0  0  0  0  0  0  0  0  0  0
   37.8007  -14.5085   11.0088 H   0  0  0  0  0  0  0  0  0  0  0  0
   36.4700  -10.5209    8.2635 H   0  0  0  0  0  0  0  0  0  0  0  0
   37.6818  -12.4205    6.4391 H   0  0  0  0  0  0  0  0  0  0  0  0
   37.2607  -10.6553    4.6737 H   0  0  0  0  0  0  0  0  0  0  0  0
   36.2185   -9.2850    8.0519 H   0  0  0  0  0  0  0  0  0  0  0  0
   36.1209   -8.3545    3.9310 H   0  0  0  0  0  0  0  0  0  0  0  0
   35.4317   -6.8516    7.8048 H   0  0  0  0  0  0  0  0  0  0  0  0
   38.6922   -9.4177    7.9726 H   0  0  0  0  0  0  0  0  0  0  0  0
   38.5123   -7.4067    6.5308 H   0  0  0  0  0  0  0  0  0  0  0  0
   42.4869   -7.4692    7.3471 H   0  0  0  0  0  0  0  0  0  0  0  0
   41.2213   -9.4490    6.3814 H   0  0  0  0  0  0  0  0  0  0  0  0
   42.4496   -9.1206    8.5197 H   0  0  0  0  0  0  0  0  0  0  0  0
   41.5532  -10.6772    8.5081 H   0  0  0  0  0  0  0  0  0  0  0  0
   40.9053   -9.2744    9.4242 H   0  0  0  0  0  0  0  0  0  0  0  0
   40.3320   -7.2670    8.3017 H   0  0  0  0  0  0  0  0  0  0  0  0
   39.0509   -6.6403    4.2460 H   0  0  0  0  0  0  0  0  0  0  0  0
   39.8625   -8.1983    4.6209 H   0  0  0  0  0  0  0  0  0  0  0  0
   40.8021   -6.6675    4.6447 H   0  0  0  0  0  0  0  0  0  0  0  0
   38.5094   -5.8746    8.4202 H   0  0  0  0  0  0  0  0  0  0  0  0
   39.0437   -3.1055    7.4518 H   0  0  0  0  0  0  0  0  0  0  0  0
   37.2674   -2.3369    8.9357 H   0  0  0  0  0  0  0  0  0  0  0  0
   37.1511   -5.0744    9.7484 H   0  0  0  0  0  0  0  0  0  0  0  0
   35.2835   -3.4680    8.0418 H   0  0  0  0  0  0  0  0  0  0  0  0
   36.3095   -4.8169    7.4467 H   0  0  0  0  0  0  0  0  0  0  0  0
   36.4990   -3.1709    6.7531 H   0  0  0  0  0  0  0  0  0  0  0  0
   39.3252   -1.5555    9.3604 H   0  0  0  0  0  0  0  0  0  0  0  0
   39.6140   -3.1920   12.3915 H   0  0  0  0  0  0  0  0  0  0  0  0
   40.3953   -1.7579   13.1394 H   0  0  0  0  0  0  0  0  0  0  0  0
   40.8973   -0.8298   10.9236 H   0  0  0  0  0  0  0  0  0  0  0  0
   41.5294   -2.5076   11.0338 H   0  0  0  0  0  0  0  0  0  0  0  0
   35.9184    0.8878   12.9579 H   0  0  0  0  0  0  0  0  0  0  0  0
   32.0044   -3.5193   11.7361 H   0  0  0  0  0  0  0  0  0  0  0  0
   30.4278   -2.5017   12.0810 H   0  0  0  0  0  0  0  0  0  0  0  0
   28.9888   -0.5789   13.6430 H   0  0  0  0  0  0  0  0  0  0  0  0
   28.2869   -1.8362   12.5692 H   0  0  0  0  0  0  0  0  0  0  0  0
   28.2568   -0.4260   10.7213 H   0  0  0  0  0  0  0  0  0  0  0  0
   29.4962    0.6756   11.4120 H   0  0  0  0  0  0  0  0  0  0  0  0
   27.8676    1.3774   13.1670 H   0  0  0  0  0  0  0  0  0  0  0  0
   26.6283    0.3092   12.4256 H   0  0  0  0  0  0  0  0  0  0  0  0
   25.3429    3.9365   11.2918 H   0  0  0  0  0  0  0  0  0  0  0  0
   26.0331    3.4958   12.8905 H   0  0  0  0  0  0  0  0  0  0  0  0
   24.8608    2.3987   12.0851 H   0  0  0  0  0  0  0  0  0  0  0  0
   26.9897    0.9511    9.1386 H   0  0  0  0  0  0  0  0  0  0  0  0
   25.7845    2.2820    9.0888 H   0  0  0  0  0  0  0  0  0  0  0  0
   25.4619    0.8145   10.0732 H   0  0  0  0  0  0  0  0  0  0  0  0
   34.1579  -13.5231    1.9981 H   0  0  0  0  0  0  0  0  0  0  0  0
   32.6005  -13.0890    6.1773 H   0  0  0  0  0  0  0  0  0  0  0  0
   34.1734  -10.8706    0.9289 H   0  0  0  0  0  0  0  0  0  0  0  0
   32.6162  -10.1769    1.4951 H   0  0  0  0  0  0  0  0  0  0  0  0
   33.8637   -8.6254    2.6378 H   0  0  0  0  0  0  0  0  0  0  0  0
   33.4349  -10.5440    3.8741 H   0  0  0  0  0  0  0  0  0  0  0  0
   36.5261  -12.7449    4.1206 H   0  0  0  0  0  0  0  0  0  0  0  0
   34.8669  -14.3679    3.8752 H   0  0  0  0  0  0  0  0  0  0  0  0
   32.5352  -14.1944    4.1779 H   0  0  0  0  0  0  0  0  0  0  0  0
   31.8430  -12.1246    2.9054 H   0  0  0  0  0  0  0  0  0  0  0  0
   34.1161  -14.9285    7.9402 H   0  0  0  0  0  0  0  0  0  0  0  0
   36.4386  -14.7267    8.5216 H   0  0  0  0  0  0  0  0  0  0  0  0
   36.7462  -17.6976    7.8495 H   0  0  0  0  0  0  0  0  0  0  0  0
   38.5350  -15.8333    6.4677 H   0  0  0  0  0  0  0  0  0  0  0  0
   34.7727  -15.9824    5.4016 H   0  0  0  0  0  0  0  0  0  0  0  0
   38.0464  -16.8423    9.5717 H   0  0  0  0  0  0  0  0  0  0  0  0
   33.9005  -17.1880    8.3793 H   0  0  0  0  0  0  0  0  0  0  0  0
   33.3450  -16.5939   11.7283 H   0  0  0  0  0  0  0  0  0  0  0  0
   34.3344  -17.7149   10.8540 H   0  0  0  0  0  0  0  0  0  0  0  0
   38.7379  -18.8786    4.9992 H   0  0  0  0  0  0  0  0  0  0  0  0
   37.3874  -17.1048    4.4412 H   0  0  0  0  0  0  0  0  0  0  0  0
   36.6950  -18.1325    5.7416 H   0  0  0  0  0  0  0  0  0  0  0  0
  1 97  1  0  0  0  0
  1 98  1  0  0  0  0
  2  3  1  0  0  0  0
  2  7  1  0  0  0  0
  2 99  1  6  0  0  0
  3  1  1  0  0  0  0
  3  4  2  0  0  0  0
  5  6  1  0  0  0  0
  5100  1  0  0  0  0
  5101  1  0  0  0  0
  6  2  1  0  0  0  0
  6102  1  0  0  0  0
  6103  1  0  0  0  0
  7104  1  0  0  0  0
  7105  1  0  0  0  0
  7106  1  0  0  0  0
  8107  1  0  0  0  0
  8108  1  0  0  0  0
  9 10  1  0  0  0  0
  9109  1  0  0  0  0
  9110  1  0  0  0  0
 10  8  1  0  0  0  0
 10 11  2  0  0  0  0
 12 17  1  0  0  0  0
 12 19  1  0  0  0  0
 13 12  2  0  0  0  0
 13 20  1  0  0  0  0
 14 13  1  0  0  0  0
 14 15  2  0  0  0  0
 15 16  1  0  0  0  0
 16 17  2  0  0  0  0
 16 18  1  0  0  0  0
 18  5  1  0  0  0  0
 18  9  1  0  0  0  0
 18111  1  6  0  0  0
 19112  1  0  0  0  0
 19113  1  0  0  0  0
 20114  1  0  0  0  0
 20115  1  0  0  0  0
 20116  1  0  0  0  0
 21 14  1  0  0  0  0
 21 22  2  0  0  0  0
 23 21  1  0  0  0  0
 23117  1  0  0  0  0
 24 23  1  0  0  0  0
 24 25  1  0  0  0  0
 24118  1  6  0  0  0
 25 26  2  0  0  0  0
 25 34  1  0  0  0  0
 27 24  1  0  0  0  0
 27 28  1  0  0  0  0
 27119  1  6  0  0  0
 28 30  1  0  0  0  0
 28 31  2  0  0  0  0
 29 27  1  0  0  0  0
 30 32  1  0  0  0  0
 30120  1  0  0  0  0
 31 33  1  0  0  0  0
 31121  1  0  0  0  0
 32122  1  0  0  0  0
 33 32  2  0  0  0  0
 34 39  1  0  0  0  0
 34123  1  0  0  0  0
 35 36  1  0  0  0  0
 35 42  1  0  0  0  0
 35124  1  1  0  0  0
 36 37  2  0  0  0  0
 36 43  1  0  0  0  0
 38125  1  0  0  0  0
 39 40  1  0  0  0  0
 39 41  1  0  0  0  0
 39126  1  6  0  0  0
 40127  1  0  0  0  0
 40128  1  0  0  0  0
 40129  1  0  0  0  0
 41 35  1  0  0  0  0
 41 38  1  0  0  0  0
 41130  1  1  0  0  0
 42131  1  0  0  0  0
 42132  1  0  0  0  0
 42133  1  0  0  0  0
 43 44  1  0  0  0  0
 43134  1  0  0  0  0
 44 45  1  0  0  0  0
 44 47  1  0  0  0  0
 44135  1  6  0  0  0
 45 46  2  0  0  0  0
 45 50  1  0  0  0  0
 47 48  1  0  0  0  0
 47 49  1  0  0  0  0
 47136  1  1  0  0  0
 48137  1  0  0  0  0
 49138  1  0  0  0  0
 49139  1  0  0  0  0
 49140  1  0  0  0  0
 50 55  1  0  0  0  0
 50141  1  0  0  0  0
 51 54  1  0  0  0  0
 51142  1  0  0  0  0
 51143  1  0  0  0  0
 52 53  2  0  0  0  0
 52 65  1  0  0  0  0
 54 56  1  0  0  0  0
 54 59  2  0  0  0  0
 55 51  1  0  0  0  0
 55144  1  0  0  0  0
 55145  1  0  0  0  0
 56 57  1  0  0  0  0
 57146  1  0  0  0  0
 58 57  2  0  0  0  0
 58 63  1  0  0  0  0
 59 58  1  0  0  0  0
 60 61  2  0  0  0  0
 60147  1  0  0  0  0
 61 52  1  0  0  0  0
 62 61  1  0  0  0  0
 63 62  2  0  0  0  0
 63 64  1  0  0  0  0
 64 60  1  0  0  0  0
 65 66  1  0  0  0  0
 65148  1  0  0  0  0
 66 67  1  0  0  0  0
 66149  1  0  0  0  0
 66150  1  0  0  0  0
 67 68  1  0  0  0  0
 67151  1  0  0  0  0
 67152  1  0  0  0  0
 68 69  1  0  0  0  0
 68153  1  0  0  0  0
 68154  1  0  0  0  0
 69 70  1  0  0  0  0
 69 71  1  0  0  0  0
 70155  1  0  0  0  0
 70156  1  0  0  0  0
 70157  1  0  0  0  0
 71158  1  0  0  0  0
 71159  1  0  0  0  0
 71160  1  0  0  0  0
 72161  1  0  0  0  0
 73162  1  0  0  0  0
 74 75  1  0  0  0  0
 74163  1  0  0  0  0
 74164  1  0  0  0  0
 75165  1  0  0  0  0
 76 80  1  0  0  0  0
 77 74  1  0  0  0  0
 77166  1  1  0  0  0
 78 77  1  0  0  0  0
 79 29  1  0  0  0  0
 79 78  1  0  0  0  0
 79167  1  6  0  0  0
 80 79  1  0  0  0  0
 80 81  1  0  0  0  0
 80168  1  6  0  0  0
 81 73  1  0  0  0  0
 81 82  1  0  0  0  0
 81169  1  6  0  0  0
 82 72  1  0  0  0  0
 82 77  1  0  0  0  0
 82170  1  6  0  0  0
 83 84  1  0  0  0  0
 83 88  1  0  0  0  0
 83 91  1  0  0  0  0
 83171  1  1  0  0  0
 84 85  1  0  0  0  0
 84 89  1  0  0  0  0
 84172  1  1  0  0  0
 85 86  1  0  0  0  0
 85 90  1  0  0  0  0
 85173  1  6  0  0  0
 86 87  1  0  0  0  0
 86 96  1  0  0  0  0
 86174  1  1  0  0  0
 87 88  1  0  0  0  0
 88 76  1  0  0  0  0
 88175  1  6  0  0  0
 89 93  1  0  0  0  0
 90176  1  0  0  0  0
 91177  1  0  0  0  0
 92178  1  0  0  0  0
 92179  1  0  0  0  0
 93 92  1  0  0  0  0
 93 94  2  0  0  0  0
 95180  1  0  0  0  0
 96 95  1  0  0  0  0
 96181  1  0  0  0  0
 96182  1  0  0  0  0
M  CHG  2   5   1   7   1
M  END
