2a4z_ligand
 OpenBabel08222323343D

 24 26  0  0  0  0  0  0  0  0999 V2000
   40.1700   14.1920   32.5720 C   0  0  0  0  0  0  0  0  0  0  0  0
   41.0860   15.5690   34.2360 C   0  0  0  0  0  0  0  0  0  0  0  0
   45.6620   14.3820   29.9980 C   0  0  0  0  0  0  0  0  0  0  0  0
   45.9180   13.3130   29.2450 C   0  0  0  0  0  0  0  0  0  0  0  0
   44.3290   14.6080   30.5810 C   0  0  0  0  0  0  0  0  0  0  0  0
   44.8870   12.3050   28.9590 C   0  0  0  0  0  0  0  0  0  0  0  0
   47.8010   14.2970   29.6520 C   0  0  0  0  0  0  0  0  0  0  0  0
   43.3350   13.6840   30.3400 C   0  0  0  0  0  0  0  0  0  0  0  0
   43.6510   12.4830   29.4800 C   0  0  0  0  0  0  0  0  0  0  0  0
   39.9420   14.8700   33.7920 N   0  0  0  0  0  0  0  0  0  0  0  0
   42.4680   15.3900   33.1510 S   0  0  0  0  0  0  0  0  0  0  0  0
   41.5320   14.3650   32.0450 C   0  0  0  0  0  0  0  0  0  0  0  0
   41.1010   16.2320   35.2720 O   0  0  0  0  0  0  0  0  0  0  0  0
   39.2970   13.5250   32.0170 O   0  0  0  0  0  0  0  0  0  0  0  0
   46.7600   15.1970   30.1360 O   0  0  0  0  0  0  0  0  0  0  0  0
   47.2110   13.2780   28.8040 O   0  0  0  0  0  0  0  0  0  0  0  0
   48.4290   13.7230   30.7450 F   0  0  0  0  0  0  0  0  0  0  0  0
   41.9390   13.7970   30.8820 C   0  0  0  0  0  0  0  0  0  0  0  0
   48.7360   14.9750   28.9060 F   0  0  0  0  0  0  0  0  0  0  0  0
   44.1331   15.4844   31.1882 H   0  0  0  0  0  0  0  0  0  0  0  0
   45.1115   11.4400   28.3455 H   0  0  0  0  0  0  0  0  0  0  0  0
   42.8759   11.7528   29.2772 H   0  0  0  0  0  0  0  0  0  0  0  0
   39.0712   14.8561   34.2835 H   0  0  0  0  0  0  0  0  0  0  0  0
   41.1528   13.3682   30.2623 H   0  0  0  0  0  0  0  0  0  0  0  0
  1 10  1  0  0  0  0
  1 14  2  0  0  0  0
  2 10  1  0  0  0  0
  2 13  2  0  0  0  0
  3  4  2  0  0  0  0
  3 15  1  0  0  0  0
  4 16  1  0  0  0  0
  5  3  1  0  0  0  0
  5 20  1  0  0  0  0
  6  4  1  0  0  0  0
  6 21  1  0  0  0  0
  7 17  1  0  0  0  0
  7 19  1  0  0  0  0
  8  5  2  0  0  0  0
  8  9  1  0  0  0  0
  9  6  2  0  0  0  0
  9 22  1  0  0  0  0
 10 23  1  0  0  0  0
 11  2  1  0  0  0  0
 12  1  1  0  0  0  0
 12 11  1  0  0  0  0
 12 18  2  0  0  0  0
 15  7  1  0  0  0  0
 16  7  1  0  0  0  0
 18  8  1  0  0  0  0
 18 24  1  0  0  0  0
M  END
