2a58_ligand
 OpenBabel08222323343D

 48 50  0  0  1  0  0  0  0  0999 V2000
   76.1540   45.2280   42.4980 N   0  0  0  0  0  0  0  0  0  0  0  0
   76.0470   44.0100   43.1670 C   0  0  0  0  0  0  0  0  0  0  0  0
   77.0560   43.3740   43.3100 O   0  0  0  0  0  0  0  0  0  0  0  0
   74.7920   43.6730   43.5870 N   0  0  0  0  0  0  0  0  0  0  0  0
   73.5830   44.3830   43.4390 C   0  0  0  0  0  0  0  0  0  0  0  0
   72.5370   43.9460   43.8720 O   0  0  0  0  0  0  0  0  0  0  0  0
   73.7540   45.7120   42.6950 C   0  0  0  0  0  0  0  0  0  0  0  0
   72.6860   46.4790   42.4870 N   0  0  0  0  0  0  0  0  0  0  0  0
   72.8540   47.7060   41.7940 C   0  0  0  0  0  0  0  0  0  0  0  0
   71.6510   48.5030   41.5940 C   0  0  0  0  0  3  0  0  0  0  0  0
   71.8400   49.7080   40.8990 C   0  0  0  0  0  0  0  0  0  0  0  0
   70.6900   50.6690   40.5960 C   0  0  0  0  0  0  0  0  0  0  0  0
   73.1840   50.0970   40.4240 C   0  0  0  0  0  0  0  0  0  0  0  0
   73.3610   51.4400   39.6380 C   0  0  0  0  0  0  0  0  0  0  0  0
   74.3410   49.3710   40.6030 C   0  0  0  0  0  0  0  0  0  0  0  0
   74.1400   48.1270   41.3190 C   0  0  0  0  0  0  0  0  0  0  0  0
   75.2780   47.2440   41.5840 N   0  0  0  0  0  0  0  0  0  0  0  0
   75.0790   46.0690   42.2520 C   0  0  0  0  0  0  0  0  0  0  0  0
   76.5600   47.7730   41.0680 C   0  0  0  0  0  0  0  0  0  0  0  0
   76.9170   47.0860   39.7380 C   0  0  2  0  0  0  0  0  0  0  0  0
   77.3580   45.7210   40.0100 O   0  0  0  0  0  0  0  0  0  0  0  0
   78.1270   47.6410   39.1070 C   0  0  2  0  0  0  0  0  0  0  0  0
   79.2400   47.5820   40.0110 O   0  0  0  0  0  0  0  0  0  0  0  0
   77.9720   49.0720   38.6530 C   0  0  2  0  0  0  0  0  0  0  0  0
   76.9170   49.4020   37.7450 O   0  0  0  0  0  0  0  0  0  0  0  0
   79.3930   49.4260   38.0620 C   0  0  0  0  0  0  0  0  0  0  0  0
   80.1680   49.9960   39.1380 O   0  0  0  0  0  0  0  0  0  0  0  0
   77.0576   45.5117   42.1770 H   0  0  0  0  0  0  0  0  0  0  0  0
   74.7204   42.7989   44.0675 H   0  0  0  0  0  0  0  0  0  0  0  0
   70.6790   48.1880   41.9561 H   0  0  0  0  0  0  0  0  0  0  0  0
   69.7534   50.2598   41.0027 H   0  0  0  0  0  0  0  0  0  0  0  0
   70.5934   50.7936   39.5074 H   0  0  0  0  0  0  0  0  0  0  0  0
   70.8957   51.6449   41.0600 H   0  0  0  0  0  0  0  0  0  0  0  0
   74.4186   51.5678   39.3641 H   0  0  0  0  0  0  0  0  0  0  0  0
   73.0423   52.2806   40.2719 H   0  0  0  0  0  0  0  0  0  0  0  0
   72.7465   51.4149   38.7260 H   0  0  0  0  0  0  0  0  0  0  0  0
   75.3094   49.6989   40.2427 H   0  0  0  0  0  0  0  0  0  0  0  0
   77.3556   47.5798   41.8026 H   0  0  0  0  0  0  0  0  0  0  0  0
   76.4672   48.8568   40.9045 H   0  0  0  0  0  0  0  0  0  0  0  0
   76.0546   47.1198   39.0561 H   0  0  0  0  0  0  0  0  0  0  0  0
   78.1217   45.7427   40.5746 H   0  0  0  0  0  0  0  0  0  0  0  0
   78.3549   47.0248   38.2247 H   0  0  0  0  0  0  0  0  0  0  0  0
   80.0099   47.9435   39.5877 H   0  0  0  0  0  0  0  0  0  0  0  0
   77.7975   49.6844   39.5500 H   0  0  0  0  0  0  0  0  0  0  0  0
   76.9459   50.3318   37.5522 H   0  0  0  0  0  0  0  0  0  0  0  0
   79.2910   50.1537   37.2434 H   0  0  0  0  0  0  0  0  0  0  0  0
   79.8826   48.5160   37.6849 H   0  0  0  0  0  0  0  0  0  0  0  0
   80.2450   49.3622   39.8416 H   0  0  0  0  0  0  0  0  0  0  0  0
  1  2  1  0  0  0  0
  1 18  1  0  0  0  0
  1 28  1  0  0  0  0
  2  3  2  0  0  0  0
  2  4  1  0  0  0  0
  4  5  1  0  0  0  0
  4 29  1  0  0  0  0
  5  6  2  0  0  0  0
  5  7  1  0  0  0  0
  7  8  1  0  0  0  0
  7 18  2  0  0  0  0
  8  9  2  0  0  0  0
  9 10  1  0  0  0  0
  9 16  1  0  0  0  0
 10 11  1  0  0  0  0
 10 30  1  0  0  0  0
 11 12  1  0  0  0  0
 11 13  2  0  0  0  0
 12 31  1  0  0  0  0
 12 32  1  0  0  0  0
 12 33  1  0  0  0  0
 13 14  1  0  0  0  0
 13 15  1  0  0  0  0
 14 34  1  0  0  0  0
 14 35  1  0  0  0  0
 14 36  1  0  0  0  0
 15 16  2  0  0  0  0
 15 37  1  0  0  0  0
 16 17  1  0  0  0  0
 17 18  1  0  0  0  0
 17 19  1  0  0  0  0
 19 20  1  0  0  0  0
 19 38  1  0  0  0  0
 19 39  1  0  0  0  0
 20 21  1  0  0  0  0
 20 22  1  0  0  0  0
 20 40  1  6  0  0  0
 21 41  1  0  0  0  0
 22 23  1  0  0  0  0
 22 24  1  0  0  0  0
 22 42  1  6  0  0  0
 23 43  1  0  0  0  0
 24 25  1  0  0  0  0
 24 26  1  0  0  0  0
 24 44  1  1  0  0  0
 25 45  1  0  0  0  0
 26 27  1  0  0  0  0
 26 46  1  0  0  0  0
 26 47  1  0  0  0  0
 27 48  1  0  0  0  0
M  END
