2aa6_ligand
 OpenBabel08222323343D

 53 56  0  0  1  0  0  0  0  0999 V2000
   17.5650   50.4360   18.3850 C   0  0  0  0  0  0  0  0  0  0  0  0
   16.5600   50.3360   19.5960 C   0  0  0  0  0  0  0  0  0  0  0  0
   15.5210   49.2270   19.3690 C   0  0  0  0  0  0  0  0  0  0  0  0
   14.4240   49.3330   19.9230 O   0  0  0  0  0  0  0  0  0  0  0  0
   15.8220   48.0460   18.5310 C   0  0  0  0  0  0  0  0  0  0  0  0
   16.9710   47.9160   17.8890 C   0  0  0  0  0  0  0  0  0  0  0  0
   17.2490   46.6230   17.0850 C   0  0  0  0  0  0  0  0  0  0  0  0
   17.9090   46.9360   15.7290 C   0  0  0  0  0  0  0  0  0  0  0  0
   19.1520   47.9250   15.8060 C   0  0  2  0  0  0  0  0  0  0  0  0
   18.6580   49.2660   16.4440 C   0  0  1  0  0  0  0  0  0  0  0  0
   18.1160   49.0410   17.8990 C   0  0  1  0  0  0  0  0  0  0  0  0
   19.8190   50.3550   16.4740 C   0  0  0  0  0  0  0  0  0  0  0  0
   20.3530   50.5540   15.0120 C   0  0  0  0  0  0  0  0  0  0  0  0
   20.9100   49.2090   14.4040 C   0  0  1  0  0  0  0  0  0  0  0  0
   19.6960   48.2120   14.3940 C   0  0  1  0  0  0  0  0  0  0  0  0
   20.2260   47.0120   13.5640 C   0  0  0  0  0  0  0  0  0  0  0  0
   21.0600   47.7320   12.4050 C   0  0  0  0  0  0  0  0  0  0  0  0
   21.2040   49.2340   12.8600 C   0  0  2  0  0  0  0  0  0  0  0  0
   22.1590   48.6790   15.2260 C   0  0  0  0  0  0  0  0  0  0  0  0
   19.2400   48.5020   18.9180 C   0  0  0  0  0  0  0  0  0  0  0  0
   22.5740   49.8490   12.5190 C   0  0  0  0  0  0  0  0  0  0  0  0
   23.4690   49.1410   12.1170 O   0  0  0  0  0  0  0  0  0  0  0  0
   22.7740   51.3250   12.6770 C   0  0  0  0  0  0  0  0  0  0  0  0
   18.4185   51.0578   18.6930 H   0  0  0  0  0  0  0  0  0  0  0  0
   17.0462   50.9166   17.5425 H   0  0  0  0  0  0  0  0  0  0  0  0
   16.0385   51.2978   19.7092 H   0  0  0  0  0  0  0  0  0  0  0  0
   17.1252   50.1151   20.5134 H   0  0  0  0  0  0  0  0  0  0  0  0
   15.0746   47.2593   18.4398 H   0  0  0  0  0  0  0  0  0  0  0  0
   16.2976   46.1001   16.9078 H   0  0  0  0  0  0  0  0  0  0  0  0
   17.9200   45.9757   17.6688 H   0  0  0  0  0  0  0  0  0  0  0  0
   17.1499   47.3905   15.0755 H   0  0  0  0  0  0  0  0  0  0  0  0
   18.2523   45.9884   15.2884 H   0  0  0  0  0  0  0  0  0  0  0  0
   19.9456   47.4808   16.4247 H   0  0  0  0  0  0  0  0  0  0  0  0
   17.8358   49.6537   15.8246 H   0  0  0  0  0  0  0  0  0  0  0  0
   20.6363   50.0083   17.1235 H   0  0  0  0  0  0  0  0  0  0  0  0
   19.4245   51.3074   16.8577 H   0  0  0  0  0  0  0  0  0  0  0  0
   21.1614   51.2999   15.0265 H   0  0  0  0  0  0  0  0  0  0  0  0
   19.5302   50.9172   14.3787 H   0  0  0  0  0  0  0  0  0  0  0  0
   18.8655   48.6675   13.8347 H   0  0  0  0  0  0  0  0  0  0  0  0
   19.3975   46.4199   13.1480 H   0  0  0  0  0  0  0  0  0  0  0  0
   20.8716   46.3621   14.1729 H   0  0  0  0  0  0  0  0  0  0  0  0
   20.5207   47.6703   11.4483 H   0  0  0  0  0  0  0  0  0  0  0  0
   22.0507   47.2661   12.2982 H   0  0  0  0  0  0  0  0  0  0  0  0
   20.4360   49.8383   12.3551 H   0  0  0  0  0  0  0  0  0  0  0  0
   21.9170   48.6755   16.2990 H   0  0  0  0  0  0  0  0  0  0  0  0
   23.0219   49.3373   15.0469 H   0  0  0  0  0  0  0  0  0  0  0  0
   22.4041   47.6568   14.9021 H   0  0  0  0  0  0  0  0  0  0  0  0
   18.7960   48.3662   19.9152 H   0  0  0  0  0  0  0  0  0  0  0  0
   20.0606   49.2320   18.9784 H   0  0  0  0  0  0  0  0  0  0  0  0
   19.6313   47.5395   18.5567 H   0  0  0  0  0  0  0  0  0  0  0  0
   23.8031   51.5882   12.3911 H   0  0  0  0  0  0  0  0  0  0  0  0
   22.6010   51.6083   13.7257 H   0  0  0  0  0  0  0  0  0  0  0  0
   22.0649   51.8624   12.0302 H   0  0  0  0  0  0  0  0  0  0  0  0
  1  2  1  0  0  0  0
  1 11  1  0  0  0  0
  1 24  1  0  0  0  0
  1 25  1  0  0  0  0
  2  3  1  0  0  0  0
  2 26  1  0  0  0  0
  2 27  1  0  0  0  0
  3  4  2  0  0  0  0
  3  5  1  0  0  0  0
  5  6  2  0  0  0  0
  5 28  1  0  0  0  0
  6  7  1  0  0  0  0
  6 11  1  0  0  0  0
  7  8  1  0  0  0  0
  7 29  1  0  0  0  0
  7 30  1  0  0  0  0
  8  9  1  0  0  0  0
  8 31  1  0  0  0  0
  8 32  1  0  0  0  0
  9 10  1  0  0  0  0
  9 15  1  0  0  0  0
  9 33  1  1  0  0  0
 10 11  1  0  0  0  0
 10 12  1  0  0  0  0
 10 34  1  6  0  0  0
 11 20  1  1  0  0  0
 12 13  1  0  0  0  0
 12 35  1  0  0  0  0
 12 36  1  0  0  0  0
 13 14  1  0  0  0  0
 13 37  1  0  0  0  0
 13 38  1  0  0  0  0
 14 15  1  0  0  0  0
 14 18  1  0  0  0  0
 14 19  1  1  0  0  0
 15 16  1  0  0  0  0
 15 39  1  6  0  0  0
 16 17  1  0  0  0  0
 16 40  1  0  0  0  0
 16 41  1  0  0  0  0
 17 18  1  0  0  0  0
 17 42  1  0  0  0  0
 17 43  1  0  0  0  0
 18 21  1  0  0  0  0
 18 44  1  6  0  0  0
 19 45  1  0  0  0  0
 19 46  1  0  0  0  0
 19 47  1  0  0  0  0
 20 48  1  0  0  0  0
 20 49  1  0  0  0  0
 20 50  1  0  0  0  0
 21 22  2  0  0  0  0
 21 23  1  0  0  0  0
 23 51  1  0  0  0  0
 23 52  1  0  0  0  0
 23 53  1  0  0  0  0
M  END
