2ada_ligand
 OpenBabel08222323343D

 31 33  0  0  1  0  0  0  0  0999 V2000
    1.3740   21.0250   39.0150 N   0  0  0  0  0  0  0  0  0  0  0  0
    2.3800   20.6620   39.8120 C   0  0  0  0  0  0  0  0  0  0  0  0
    3.5440   20.1910   39.3810 N   0  0  0  0  0  0  0  0  0  0  0  0
    3.7140   20.0710   38.0510 C   0  0  0  0  0  0  0  0  0  0  0  0
    2.7580   20.4160   37.1670 C   0  0  0  0  0  0  0  0  0  0  0  0
    1.4950   20.9620   37.6150 C   0  0  0  0  0  0  0  0  0  0  0  0
    1.2590   22.2410   37.0340 O   0  0  0  0  0  0  0  0  0  0  0  0
    3.2090   20.1790   35.9160 N   0  0  0  0  0  0  0  0  0  0  0  0
    4.4450   19.6980   36.0730 C   0  0  0  0  0  0  0  0  0  0  0  0
    4.7840   19.6280   37.3620 N   0  0  0  0  0  0  0  0  0  0  0  0
    5.9050   18.9790   37.9010 C   0  0  1  0  0  0  0  0  0  0  0  0
    6.2900   17.7450   37.0850 C   0  0  2  0  0  0  0  0  0  0  0  0
    6.5180   16.7490   38.0750 O   0  0  0  0  0  0  0  0  0  0  0  0
    7.6790   18.0480   36.5420 C   0  0  2  0  0  0  0  0  0  0  0  0
    8.5210   16.8940   36.5830 O   0  0  0  0  0  0  0  0  0  0  0  0
    8.1990   19.1680   37.4400 C   0  0  2  0  0  0  0  0  0  0  0  0
    7.0470   19.8500   37.9560 O   0  0  0  0  0  0  0  0  0  0  0  0
    9.1110   20.1360   36.6980 C   0  0  0  0  0  0  0  0  0  0  0  0
    8.6500   20.4200   35.3740 O   0  0  0  0  0  0  0  0  0  0  0  0
    0.5185   21.3477   39.4200 H   0  0  0  0  0  0  0  0  0  0  0  0
    2.2371   20.7583   40.8873 H   0  0  0  0  0  0  0  0  0  0  0  0
    5.0951   19.4001   35.2517 H   0  0  0  0  0  0  0  0  0  0  0  0
    5.6543   18.6613   38.9238 H   0  0  0  0  0  0  0  0  0  0  0  0
    5.5561   17.4642   36.3152 H   0  0  0  0  0  0  0  0  0  0  0  0
    6.7661   15.9351   37.6525 H   0  0  0  0  0  0  0  0  0  0  0  0
    7.6119   18.3983   35.5015 H   0  0  0  0  0  0  0  0  0  0  0  0
    8.6070   16.5979   37.4816 H   0  0  0  0  0  0  0  0  0  0  0  0
    8.7674   18.7273   38.2723 H   0  0  0  0  0  0  0  0  0  0  0  0
   10.1163   19.6942   36.6339 H   0  0  0  0  0  0  0  0  0  0  0  0
    9.1599   21.0781   37.2637 H   0  0  0  0  0  0  0  0  0  0  0  0
    8.6108   19.6134   34.8737 H   0  0  0  0  0  0  0  0  0  0  0  0
  1  6  1  0  0  0  0
  1 20  1  0  0  0  0
  2  1  1  0  0  0  0
  2  3  2  0  0  0  0
  2 21  1  0  0  0  0
  3  4  1  0  0  0  0
  4  5  2  0  0  0  0
  4 10  1  0  0  0  0
  5  6  1  0  0  0  0
  5  8  1  0  0  0  0
  6  7  2  0  0  0  0
  8  9  2  0  0  0  0
  9 22  1  0  0  0  0
 10  9  1  0  0  0  0
 10 11  1  0  0  0  0
 11 12  1  0  0  0  0
 11 17  1  0  0  0  0
 11 23  1  1  0  0  0
 12 13  1  0  0  0  0
 12 14  1  0  0  0  0
 12 24  1  6  0  0  0
 13 25  1  0  0  0  0
 14 15  1  0  0  0  0
 14 16  1  0  0  0  0
 14 26  1  6  0  0  0
 15 27  1  0  0  0  0
 16 17  1  0  0  0  0
 16 18  1  0  0  0  0
 16 28  1  1  0  0  0
 18 19  1  0  0  0  0
 18 29  1  0  0  0  0
 18 30  1  0  0  0  0
 19 31  1  0  0  0  0
M  END
