2aeb_ligand
 OpenBabel08222323343D

 26 25  0  0  1  0  0  0  0  0999 V2000
   65.4420    9.9290   31.1110 N   0  3  0  0  0  0  0  0  0  0  0  0
   65.5320   10.1090   29.6360 C   0  0  2  0  0  0  0  0  0  0  0  0
   66.9810    9.7210   29.2130 C   0  0  0  0  0  0  0  0  0  0  0  0
   67.3720    9.7130   28.0850 O   0  5  0  0  0  0  0  0  0  0  0  0
   67.7960    9.3450   30.1980 O   0  0  0  0  0  0  0  0  0  0  0  0
   65.2720   11.5760   29.2400 C   0  0  0  0  0  0  0  0  0  0  0  0
   66.2610   12.6640   29.5090 C   0  0  0  0  0  0  0  0  0  0  0  0
   65.8950   14.0800   29.1140 C   0  0  0  0  0  0  0  0  0  0  0  0
   66.9970   15.0470   29.5290 C   0  0  0  0  0  0  0  0  0  0  0  0
   66.6680   16.5410   29.8410 B   0  0  0  0  0  0  0  0  0  0  0  0
   67.8370   17.3760   30.0880 O   0  0  0  0  0  0  0  0  0  0  0  0
   65.8800   16.7080   31.0390 O   0  0  0  0  0  0  0  0  0  0  0  0
   64.5147   10.1715   31.4231 H   0  0  0  0  0  0  0  0  0  0  0  0
   66.1159   10.5262   31.5641 H   0  0  0  0  0  0  0  0  0  0  0  0
   65.6344    8.9675   31.3445 H   0  0  0  0  0  0  0  0  0  0  0  0
   64.8008    9.4579   29.1347 H   0  0  0  0  0  0  0  0  0  0  0  0
   64.3445   11.8717   29.7522 H   0  0  0  0  0  0  0  0  0  0  0  0
   65.1061   11.5749   28.1526 H   0  0  0  0  0  0  0  0  0  0  0  0
   67.1851   12.4045   28.9718 H   0  0  0  0  0  0  0  0  0  0  0  0
   66.4550   12.6676   30.5917 H   0  0  0  0  0  0  0  0  0  0  0  0
   64.9563   14.3644   29.6120 H   0  0  0  0  0  0  0  0  0  0  0  0
   65.7610   14.1293   28.0233 H   0  0  0  0  0  0  0  0  0  0  0  0
   67.7354   15.0512   28.7137 H   0  0  0  0  0  0  0  0  0  0  0  0
   67.4561   14.6297   30.4373 H   0  0  0  0  0  0  0  0  0  0  0  0
   68.2875   17.0664   30.8650 H   0  0  0  0  0  0  0  0  0  0  0  0
   66.3825   16.4160   31.7905 H   0  0  0  0  0  0  0  0  0  0  0  0
  1  2  1  0  0  0  0
  1 13  1  0  0  0  0
  1 14  1  0  0  0  0
  1 15  1  0  0  0  0
  2  3  1  0  0  0  0
  2  6  1  0  0  0  0
  2 16  1  6  0  0  0
  3  4  1  0  0  0  0
  3  5  2  0  0  0  0
  6  7  1  0  0  0  0
  6 17  1  0  0  0  0
  6 18  1  0  0  0  0
  7  8  1  0  0  0  0
  7 19  1  0  0  0  0
  7 20  1  0  0  0  0
  8  9  1  0  0  0  0
  8 21  1  0  0  0  0
  8 22  1  0  0  0  0
  9 10  1  0  0  0  0
  9 23  1  0  0  0  0
  9 24  1  0  0  0  0
 10 11  1  0  0  0  0
 10 12  1  0  0  0  0
 11 25  1  0  0  0  0
 12 26  1  0  0  0  0
M  CHG  2   1   1   4  -1
M  END
