2ael_ligand
 OpenBabel08222323343D

 41 41  0  0  1  0  0  0  0  0999 V2000
   38.1100   72.2130   35.1580 C   0  0  2  0  0  0  0  0  0  0  0  0
   38.6790   70.7410   35.2550 C   0  0  0  0  0  0  0  0  0  0  0  0
   36.6010   72.1120   34.7780 C   0  0  0  0  0  0  0  0  0  0  0  0
   38.0410   70.0760   36.5180 C   0  0  0  0  0  0  0  0  0  0  0  0
   35.8650   71.2050   35.7960 C   0  0  0  0  0  0  0  0  0  0  0  0
   38.8470   73.1630   34.1990 N   0  3  1  0  0  0  0  0  0  0  0  0
   38.4460   74.8150   37.2320 C   0  0  0  0  0  0  0  0  0  0  0  0
   38.4460   75.1940   35.7700 C   0  0  0  0  0  0  0  0  0  0  0  0
   39.4210   74.3550   34.8810 C   0  0  0  0  0  0  0  0  0  0  0  0
   37.4230   74.4450   38.0420 C   0  0  0  0  0  0  0  0  0  0  0  0
   35.9560   74.3140   37.6820 C   0  0  0  0  0  0  0  0  0  0  0  0
   37.7010   74.1060   39.4730 C   0  0  0  0  0  0  0  0  0  0  0  0
   39.9710   72.5760   33.4730 C   0  0  0  0  0  0  0  0  0  0  0  0
   36.5090   70.2840   36.5910 C   0  0  0  0  0  0  0  0  0  0  0  0
   35.7680   69.4360   37.5720 C   0  0  0  0  0  0  0  0  0  0  0  0
   38.1851   72.6577   36.1613 H   0  0  0  0  0  0  0  0  0  0  0  0
   39.7740   70.7670   35.3563 H   0  0  0  0  0  0  0  0  0  0  0  0
   38.4076   70.1727   34.3532 H   0  0  0  0  0  0  0  0  0  0  0  0
   36.5059   71.6821   33.7700 H   0  0  0  0  0  0  0  0  0  0  0  0
   36.1524   73.1163   34.7922 H   0  0  0  0  0  0  0  0  0  0  0  0
   38.4992   70.5149   37.4166 H   0  0  0  0  0  0  0  0  0  0  0  0
   38.2489   68.9962   36.4905 H   0  0  0  0  0  0  0  0  0  0  0  0
   34.7841   71.3009   35.8872 H   0  0  0  0  0  0  0  0  0  0  0  0
   38.1658   73.4747   33.5246 H   0  0  0  0  0  0  0  0  0  0  0  0
   39.4230   74.8433   37.7123 H   0  0  0  0  0  0  0  0  0  0  0  0
   38.7335   76.2527   35.6898 H   0  0  0  0  0  0  0  0  0  0  0  0
   37.4259   75.0606   35.3808 H   0  0  0  0  0  0  0  0  0  0  0  0
   39.8213   75.0228   34.1040 H   0  0  0  0  0  0  0  0  0  0  0  0
   40.2426   74.0072   35.5245 H   0  0  0  0  0  0  0  0  0  0  0  0
   35.3882   73.9940   38.5681 H   0  0  0  0  0  0  0  0  0  0  0  0
   35.8398   73.5672   36.8828 H   0  0  0  0  0  0  0  0  0  0  0  0
   35.5756   75.2857   37.3341 H   0  0  0  0  0  0  0  0  0  0  0  0
   38.7765   74.2188   39.6742 H   0  0  0  0  0  0  0  0  0  0  0  0
   37.3983   73.0668   39.6691 H   0  0  0  0  0  0  0  0  0  0  0  0
   37.1326   74.7832   40.1274 H   0  0  0  0  0  0  0  0  0  0  0  0
   39.6313   71.6791   32.9343 H   0  0  0  0  0  0  0  0  0  0  0  0
   40.7624   72.2984   34.1847 H   0  0  0  0  0  0  0  0  0  0  0  0
   40.3654   73.3085   32.7534 H   0  0  0  0  0  0  0  0  0  0  0  0
   34.6956   69.6768   37.5282 H   0  0  0  0  0  0  0  0  0  0  0  0
   36.1467   69.6322   38.5859 H   0  0  0  0  0  0  0  0  0  0  0  0
   35.9158   68.3745   37.3244 H   0  0  0  0  0  0  0  0  0  0  0  0
  1  2  1  0  0  0  0
  1  3  1  0  0  0  0
  1 16  1  1  0  0  0
  2  4  1  0  0  0  0
  2 17  1  0  0  0  0
  2 18  1  0  0  0  0
  3  5  1  0  0  0  0
  3 19  1  0  0  0  0
  3 20  1  0  0  0  0
  4 14  1  0  0  0  0
  4 21  1  0  0  0  0
  4 22  1  0  0  0  0
  5 14  2  0  0  0  0
  5 23  1  0  0  0  0
  6  1  1  0  0  0  0
  6 13  1  0  0  0  0
  6 24  1  6  0  0  0
  7 10  2  0  0  0  0
  7 25  1  0  0  0  0
  8  7  1  0  0  0  0
  8  9  1  0  0  0  0
  8 26  1  0  0  0  0
  8 27  1  0  0  0  0
  9  6  1  0  0  0  0
  9 28  1  0  0  0  0
  9 29  1  0  0  0  0
 10 11  1  0  0  0  0
 10 12  1  0  0  0  0
 11 30  1  0  0  0  0
 11 31  1  0  0  0  0
 11 32  1  0  0  0  0
 12 33  1  0  0  0  0
 12 34  1  0  0  0  0
 12 35  1  0  0  0  0
 13 36  1  0  0  0  0
 13 37  1  0  0  0  0
 13 38  1  0  0  0  0
 14 15  1  0  0  0  0
 15 39  1  0  0  0  0
 15 40  1  0  0  0  0
 15 41  1  0  0  0  0
M  CHG  1   6   1
M  END
