2aia_ligand
 OpenBabel08222323343D

 39 40  0  0  1  0  0  0  0  0999 V2000
   -4.9100   25.1530   -3.2030 C   0  0  0  0  0  0  0  0  0  0  0  0
   -5.7870   25.3700   -2.1060 C   0  0  0  0  0  0  0  0  0  0  0  0
   -5.2930   26.0020   -0.9390 C   0  0  0  0  0  0  0  0  0  0  0  0
   -3.9390   26.4140   -0.8390 C   0  0  0  0  0  0  0  0  0  0  0  0
   -3.0790   26.1880   -1.9480 C   0  0  0  0  0  0  0  0  0  0  0  0
   -3.5630   25.5600   -3.1220 C   0  0  0  0  0  0  0  0  0  0  0  0
   -7.1970   24.9340   -2.2050 C   0  0  0  0  0  0  0  0  0  0  0  0
   -8.0960   25.7520   -2.0280 O   0  0  0  0  0  0  0  0  0  0  0  0
   -7.5330   23.5080   -2.4850 C   0  0  0  0  0  0  0  0  0  0  0  0
   -6.9660   22.4120   -1.7490 C   0  0  0  0  0  0  0  0  0  0  0  0
   -7.3250   21.0810   -2.0570 C   0  0  0  0  0  0  0  0  0  0  0  0
   -8.3260   20.8290   -3.1870 C   0  0  0  0  0  0  0  0  0  0  0  0
   -8.8550   21.9330   -3.8830 C   0  0  0  0  0  0  0  0  0  0  0  0
   -8.4610   23.2450   -3.5350 C   0  0  0  0  0  0  0  0  0  0  0  0
   -3.5220   27.0430    0.3650 O   0  0  0  0  0  0  0  0  0  0  0  0
   -4.4750   27.2260    1.4190 C   0  0  0  0  0  0  0  0  0  0  0  0
   -3.8050   27.9110    2.6120 C   0  0  0  0  0  0  0  0  0  0  0  0
   -3.4270   29.2850    2.2810 N   0  3  1  0  0  0  0  0  0  0  0  0
   -4.4090   30.2820    2.1580 O   0  0  0  0  0  0  0  0  0  0  0  0
   -2.1070   29.5520    2.1030 C   0  0  0  0  0  0  0  0  0  0  0  0
   -1.6700   30.5360    1.5310 O   0  0  0  0  0  0  0  0  0  0  0  0
   -5.2775   24.6738   -4.1032 H   0  0  0  0  0  0  0  0  0  0  0  0
   -5.9633   26.1746   -0.1047 H   0  0  0  0  0  0  0  0  0  0  0  0
   -2.0421   26.4994   -1.8948 H   0  0  0  0  0  0  0  0  0  0  0  0
   -2.8960   25.3921   -3.9598 H   0  0  0  0  0  0  0  0  0  0  0  0
   -6.2579   22.6079   -0.9519 H   0  0  0  0  0  0  0  0  0  0  0  0
   -6.8990   20.2526   -1.5027 H   0  0  0  0  0  0  0  0  0  0  0  0
   -8.6223   19.8192   -3.4468 H   0  0  0  0  0  0  0  0  0  0  0  0
   -9.5653   21.7764   -4.6867 H   0  0  0  0  0  0  0  0  0  0  0  0
   -8.8788   24.0802   -4.0854 H   0  0  0  0  0  0  0  0  0  0  0  0
   -4.8651   26.2464    1.7325 H   0  0  0  0  0  0  0  0  0  0  0  0
   -5.3039   27.8520    1.0570 H   0  0  0  0  0  0  0  0  0  0  0  0
   -2.9030   27.3468    2.8912 H   0  0  0  0  0  0  0  0  0  0  0  0
   -4.5059   27.9247    3.4596 H   0  0  0  0  0  0  0  0  0  0  0  0
   -3.5206   29.0820    1.2981 H   0  0  0  0  0  0  0  0  0  0  0  0
   -3.9940   31.1087    1.9413 H   0  0  0  0  0  0  0  0  0  0  0  0
   -1.7026   28.6883    1.5549 H   0  0  0  0  0  0  0  0  0  0  0  0
   -1.6730   29.5811    3.1133 H   0  0  0  0  0  0  0  0  0  0  0  0
   -0.7205   30.5051    1.5307 H   0  0  0  0  0  0  0  0  0  0  0  0
  1  2  2  0  0  0  0
  1  6  1  0  0  0  0
  1 22  1  0  0  0  0
  2  3  1  0  0  0  0
  2  7  1  0  0  0  0
  3  4  2  0  0  0  0
  3 23  1  0  0  0  0
  4  5  1  0  0  0  0
  4 15  1  0  0  0  0
  5  6  2  0  0  0  0
  5 24  1  0  0  0  0
  6 25  1  0  0  0  0
  7  8  2  0  0  0  0
  7  9  1  0  0  0  0
  9 10  2  0  0  0  0
  9 14  1  0  0  0  0
 10 11  1  0  0  0  0
 10 26  1  0  0  0  0
 11 12  2  0  0  0  0
 11 27  1  0  0  0  0
 12 13  1  0  0  0  0
 12 28  1  0  0  0  0
 13 14  2  0  0  0  0
 13 29  1  0  0  0  0
 14 30  1  0  0  0  0
 15 16  1  0  0  0  0
 16 17  1  0  0  0  0
 16 31  1  0  0  0  0
 16 32  1  0  0  0  0
 17 18  1  0  0  0  0
 17 33  1  0  0  0  0
 17 34  1  0  0  0  0
 18 19  1  0  0  0  0
 18 20  1  0  0  0  0
 18 35  1  6  0  0  0
 19 36  1  0  0  0  0
 20 21  1  0  0  0  0
 20 37  1  0  0  0  0
 20 38  1  0  0  0  0
 21 39  1  0  0  0  0
M  CHG  1  18   1
M  END
