2amv_ligand
 OpenBabel08222323343D

 48 49  0  0  1  0  0  0  0  0999 V2000
   28.1030    2.4370   52.8170 C   0  0  0  0  0  0  0  0  0  0  0  0
   27.4550    3.8220   53.2110 C   0  0  0  0  0  0  0  0  0  0  0  0
   27.6440    4.3340   54.6160 C   0  0  0  0  0  0  0  0  0  0  0  0
   28.4830    3.5460   55.5770 C   0  0  0  0  0  0  0  0  0  0  0  0
   29.0730    2.3630   55.2320 C   0  0  0  0  0  0  0  0  0  0  0  0
   28.9040    1.7820   53.8950 C   0  0  0  0  0  0  0  0  0  0  0  0
   27.9610    1.7570   51.3900 C   0  0  2  0  0  0  0  0  0  0  0  0
   27.0460    0.3760   51.4150 C   0  0  0  0  0  0  0  0  0  0  0  0
   29.9990    0.3290   50.5870 C   0  0  0  0  0  0  0  0  0  0  0  0
   27.6410   -0.9080   51.1770 C   0  0  0  0  0  0  0  0  0  0  0  0
   29.3400    1.6580   50.7470 C   0  0  0  0  0  0  0  0  0  0  0  0
   30.0280    3.0170   50.3770 C   0  0  0  0  0  0  0  0  0  0  0  0
   31.3790    0.2200   50.1020 C   0  0  0  0  0  0  0  0  0  0  0  0
   26.9570   -2.2800   51.0880 C   0  0  0  0  0  0  0  0  0  0  0  0
   30.3800   -2.2620   52.9380 C   0  0  0  0  0  0  0  0  0  0  0  0
   29.9660   -2.1000   51.5030 C   0  0  0  0  0  0  0  0  0  0  0  0
   25.4960    0.5740   51.6760 C   0  0  0  0  0  0  0  0  0  0  0  0
   23.5260    2.1670   51.4330 C   0  0  0  0  0  0  0  0  0  0  0  0
   23.2920    2.5980   52.9070 C   0  0  0  0  0  0  0  0  0  0  0  0
   23.2690    3.2190   50.3990 C   0  0  0  0  0  0  0  0  0  0  0  0
   29.1850   -0.9100   51.0350 N   0  0  0  0  0  0  0  0  0  0  0  0
   29.3430    4.1010   50.2600 O   0  5  0  0  0  0  0  0  0  0  0  0
   31.2440    3.1440   50.3610 O   0  0  0  0  0  0  0  0  0  0  0  0
   32.2790    0.5670   50.9110 O   0  5  0  0  0  0  0  0  0  0  0  0
   31.5460   -0.1460   48.9130 O   0  0  0  0  0  0  0  0  0  0  0  0
   24.7800   -0.2850   52.1400 O   0  0  0  0  0  0  0  0  0  0  0  0
   25.0850    1.8260   51.3370 O   0  0  0  0  0  0  0  0  0  0  0  0
   26.6050    4.8260   52.2430 Cl  0  0  0  0  0  0  0  0  0  0  0  0
   27.1785    5.2618   54.9283 H   0  0  0  0  0  0  0  0  0  0  0  0
   28.6265    3.9285   56.5811 H   0  0  0  0  0  0  0  0  0  0  0  0
   29.6802    1.8413   55.9630 H   0  0  0  0  0  0  0  0  0  0  0  0
   29.3825    0.8335   53.6794 H   0  0  0  0  0  0  0  0  0  0  0  0
   27.3921    2.4614   50.7654 H   0  0  0  0  0  0  0  0  0  0  0  0
   25.8700   -2.1558   51.2016 H   0  0  0  0  0  0  0  0  0  0  0  0
   27.3371   -2.9319   51.8884 H   0  0  0  0  0  0  0  0  0  0  0  0
   27.1739   -2.7351   50.1103 H   0  0  0  0  0  0  0  0  0  0  0  0
   30.9399   -3.2017   53.0542 H   0  0  0  0  0  0  0  0  0  0  0  0
   29.4852   -2.2869   53.5772 H   0  0  0  0  0  0  0  0  0  0  0  0
   31.0182   -1.4161   53.2333 H   0  0  0  0  0  0  0  0  0  0  0  0
   29.3600   -2.9838   51.2549 H   0  0  0  0  0  0  0  0  0  0  0  0
   30.8930   -2.1130   50.9110 H   0  0  0  0  0  0  0  0  0  0  0  0
   22.9093    1.2838   51.2103 H   0  0  0  0  0  0  0  0  0  0  0  0
   22.2311    2.8506   53.0511 H   0  0  0  0  0  0  0  0  0  0  0  0
   23.9124    3.4773   53.1349 H   0  0  0  0  0  0  0  0  0  0  0  0
   23.5666    1.7714   53.5788 H   0  0  0  0  0  0  0  0  0  0  0  0
   23.4654    2.8056   49.3987 H   0  0  0  0  0  0  0  0  0  0  0  0
   23.9323    4.0782   50.5773 H   0  0  0  0  0  0  0  0  0  0  0  0
   22.2206    3.5459   50.4612 H   0  0  0  0  0  0  0  0  0  0  0  0
  1  2  2  0  0  0  0
  1  6  1  0  0  0  0
  2  3  1  0  0  0  0
  2 28  1  0  0  0  0
  3  4  2  0  0  0  0
  3 29  1  0  0  0  0
  4 30  1  0  0  0  0
  5  4  1  0  0  0  0
  5 31  1  0  0  0  0
  6  5  2  0  0  0  0
  6 32  1  0  0  0  0
  7  1  1  0  0  0  0
  7 11  1  0  0  0  0
  7 33  1  6  0  0  0
  8  7  1  0  0  0  0
  8 10  2  0  0  0  0
  9 13  1  0  0  0  0
 10 14  1  0  0  0  0
 10 21  1  0  0  0  0
 11  9  2  0  0  0  0
 11 12  1  0  0  0  0
 12 22  1  0  0  0  0
 12 23  2  0  0  0  0
 13 24  1  0  0  0  0
 13 25  2  0  0  0  0
 14 34  1  0  0  0  0
 14 35  1  0  0  0  0
 14 36  1  0  0  0  0
 15 37  1  0  0  0  0
 15 38  1  0  0  0  0
 15 39  1  0  0  0  0
 16 15  1  0  0  0  0
 16 40  1  0  0  0  0
 16 41  1  0  0  0  0
 17  8  1  0  0  0  0
 17 26  2  0  0  0  0
 18 19  1  0  0  0  0
 18 20  1  0  0  0  0
 18 27  1  0  0  0  0
 18 42  1  0  0  0  0
 19 43  1  0  0  0  0
 19 44  1  0  0  0  0
 19 45  1  0  0  0  0
 20 46  1  0  0  0  0
 20 47  1  0  0  0  0
 20 48  1  0  0  0  0
 21  9  1  0  0  0  0
 21 16  1  0  0  0  0
 27 17  1  0  0  0  0
M  CHG  2  22  -1  24  -1
M  END
