2ao6_ligand
 OpenBabel08222323343D

 45 48  0  0  1  0  0  0  0  0999 V2000
   27.2230    5.6740    3.6940 C   0  0  0  0  0  0  0  0  0  0  0  0
   26.3530    6.8180    4.2060 C   0  0  0  0  0  0  0  0  0  0  0  0
   24.8960    6.6830    3.7900 C   0  0  0  0  0  0  0  0  0  0  0  0
   24.3220    5.3580    3.9950 C   0  0  0  0  0  0  0  0  0  0  0  0
   25.0940    4.2280    4.0720 C   0  0  0  0  0  0  0  0  0  0  0  0
   24.3940    2.8690    4.3110 C   0  0  0  0  0  0  0  0  0  0  0  0
   25.1900    1.7150    3.7000 C   0  0  0  0  0  0  0  0  0  0  0  0
   26.6350    1.7090    4.2960 C   0  0  2  0  0  0  0  0  0  0  0  0
   27.3540    3.0980    4.0390 C   0  0  0  0  0  0  0  0  0  0  0  0
   26.6080    4.2590    3.9420 C   0  0  0  0  0  0  0  0  0  0  0  0
   28.8360    3.0620    3.9340 C   0  0  0  0  0  0  0  0  0  0  0  0
   29.5820    1.9280    4.0330 C   0  0  0  0  0  0  0  0  0  0  0  0
   28.9390    0.5400    4.2460 C   0  0  1  0  0  0  0  0  0  0  0  0
   27.4720    0.5830    3.6920 C   0  0  1  0  0  0  0  0  0  0  0  0
   26.9510   -0.8690    3.8880 C   0  0  0  0  0  0  0  0  0  0  0  0
   28.2610   -1.6930    3.7160 C   0  0  0  0  0  0  0  0  0  0  0  0
   29.4430   -0.6890    3.4440 C   0  0  1  0  0  0  0  0  0  0  0  0
   28.9380    0.2760    5.8040 C   0  0  0  0  0  0  0  0  0  0  0  0
   29.5480   -0.4410    1.9370 C   0  0  0  0  0  0  0  0  0  0  0  0
   24.2400    7.6200    3.3440 O   0  0  0  0  0  0  0  0  0  0  0  0
   30.6520   -1.2580    3.9540 O   0  0  0  0  0  0  0  0  0  0  0  0
   28.1970    5.7235    4.2028 H   0  0  0  0  0  0  0  0  0  0  0  0
   27.3677    5.8051    2.6115 H   0  0  0  0  0  0  0  0  0  0  0  0
   26.7462    7.7644    3.8065 H   0  0  0  0  0  0  0  0  0  0  0  0
   26.4046    6.8342    5.3047 H   0  0  0  0  0  0  0  0  0  0  0  0
   23.2413    5.2630    4.0903 H   0  0  0  0  0  0  0  0  0  0  0  0
   23.3944    2.8960    3.8527 H   0  0  0  0  0  0  0  0  0  0  0  0
   24.2966    2.7024    5.3939 H   0  0  0  0  0  0  0  0  0  0  0  0
   25.2435    1.8432    2.6088 H   0  0  0  0  0  0  0  0  0  0  0  0
   24.6928    0.7620    3.9333 H   0  0  0  0  0  0  0  0  0  0  0  0
   26.5609    1.5471    5.3815 H   0  0  0  0  0  0  0  0  0  0  0  0
   29.3583    4.0029    3.7672 H   0  0  0  0  0  0  0  0  0  0  0  0
   30.6660    2.0016    3.9597 H   0  0  0  0  0  0  0  0  0  0  0  0
   27.5121    0.7813    2.6108 H   0  0  0  0  0  0  0  0  0  0  0  0
   26.2054   -1.1352    3.1243 H   0  0  0  0  0  0  0  0  0  0  0  0
   26.5167   -1.0087    4.8889 H   0  0  0  0  0  0  0  0  0  0  0  0
   28.1571   -2.3843    2.8667 H   0  0  0  0  0  0  0  0  0  0  0  0
   28.4632   -2.2662    4.6328 H   0  0  0  0  0  0  0  0  0  0  0  0
   28.5743    1.1724    6.3275 H   0  0  0  0  0  0  0  0  0  0  0  0
   29.9607    0.0462    6.1376 H   0  0  0  0  0  0  0  0  0  0  0  0
   28.2783   -0.5743    6.0314 H   0  0  0  0  0  0  0  0  0  0  0  0
   30.3719    0.2599    1.7373 H   0  0  0  0  0  0  0  0  0  0  0  0
   28.6043   -0.0118    1.5694 H   0  0  0  0  0  0  0  0  0  0  0  0
   29.7433   -1.3929    1.4215 H   0  0  0  0  0  0  0  0  0  0  0  0
   31.3734   -0.6605    3.7955 H   0  0  0  0  0  0  0  0  0  0  0  0
  1  2  1  0  0  0  0
  1 10  1  0  0  0  0
  1 22  1  0  0  0  0
  1 23  1  0  0  0  0
  2  3  1  0  0  0  0
  2 24  1  0  0  0  0
  2 25  1  0  0  0  0
  3  4  1  0  0  0  0
  3 20  2  0  0  0  0
  4  5  2  0  0  0  0
  4 26  1  0  0  0  0
  5  6  1  0  0  0  0
  5 10  1  0  0  0  0
  6  7  1  0  0  0  0
  6 27  1  0  0  0  0
  6 28  1  0  0  0  0
  7  8  1  0  0  0  0
  7 29  1  0  0  0  0
  7 30  1  0  0  0  0
  8  9  1  0  0  0  0
  8 14  1  0  0  0  0
  8 31  1  1  0  0  0
  9 10  2  0  0  0  0
  9 11  1  0  0  0  0
 11 12  2  0  0  0  0
 11 32  1  0  0  0  0
 12 13  1  0  0  0  0
 12 33  1  0  0  0  0
 13 14  1  0  0  0  0
 13 17  1  0  0  0  0
 13 18  1  1  0  0  0
 14 15  1  0  0  0  0
 14 34  1  6  0  0  0
 15 16  1  0  0  0  0
 15 35  1  0  0  0  0
 15 36  1  0  0  0  0
 16 17  1  0  0  0  0
 16 37  1  0  0  0  0
 16 38  1  0  0  0  0
 17 19  1  0  0  0  0
 17 21  1  1  0  0  0
 18 39  1  0  0  0  0
 18 40  1  0  0  0  0
 18 41  1  0  0  0  0
 19 42  1  0  0  0  0
 19 43  1  0  0  0  0
 19 44  1  0  0  0  0
 21 45  1  0  0  0  0
M  END
