2aof_ligand
 OpenBabel08222323343D

171173  0  0  1  0  0  0  0  0999 V2000
   29.7560   24.5050   18.7370 N   0  3  0  0  0  0  0  0  0  0  0  0
   28.9570   25.5690   18.1580 C   0  0  2  0  0  0  0  0  0  0  0  0
   27.4550   25.3480   18.2380 C   0  0  0  0  0  0  0  0  0  0  0  0
   26.7700   26.1410   17.5400 O   0  0  0  0  0  0  0  0  0  0  0  0
   29.2650   25.6660   16.6620 C   0  0  0  0  0  0  0  0  0  0  0  0
   29.8560   26.9250   16.0900 C   0  0  0  0  0  0  0  0  0  0  0  0
   29.7200   26.8210   14.5660 C   0  0  0  0  0  0  0  0  0  0  0  0
   29.7180   28.1750   14.0170 N   0  0  0  0  0  0  0  0  0  0  0  0
   30.1450   28.5270   12.8140 C   0  0  0  0  0  3  0  0  0  0  0  0
   30.6290   27.6170   11.9460 N   0  0  0  0  0  0  0  0  0  0  0  0
   30.0600   29.8280   12.5310 N   0  0  0  0  0  0  0  0  0  0  0  0
   26.8800   24.3870   18.9310 N   0  0  0  0  0  0  0  0  0  0  0  0
   25.4620   24.1740   18.6040 C   0  0  2  0  0  0  0  0  0  0  0  0
   24.7090   25.3450   19.2500 C   0  0  0  0  0  0  0  0  0  0  0  0
   24.9830   25.6730   20.4010 O   0  0  0  0  0  0  0  0  0  0  0  0
   25.1100   22.8030   19.1450 C   0  0  0  0  0  0  0  0  0  0  0  0
   26.1360   22.4800   20.1470 C   0  0  0  0  0  0  0  0  0  0  0  0
   27.2680   23.4540   20.0030 C   0  0  0  0  0  0  0  0  0  0  0  0
   23.8370   25.9290   18.4380 N   0  0  0  0  0  0  0  0  0  0  0  0
   22.9560   27.0070   18.6790 C   0  0  0  0  0  0  0  0  0  0  0  0
   21.5890   26.7910   18.0520 C   0  0  0  0  0  0  0  0  0  0  0  0
   20.8100   27.6860   18.2040 O   0  0  0  0  0  0  0  0  0  0  0  0
   21.2400   25.6930   17.3910 N   0  0  0  0  0  0  0  0  0  0  0  0
   19.9000   25.5450   16.8260 C   0  0  2  0  0  0  0  0  0  0  0  0
   19.1520   24.3620   17.4400 C   0  0  0  0  0  0  0  0  0  0  0  0
   19.3000   23.2390   16.9740 O   0  0  0  0  0  0  0  0  0  0  0  0
   19.9400   25.2540   15.3220 C   0  0  0  0  0  0  0  0  0  0  0  0
   18.5560   25.1280   14.7420 C   0  0  0  0  0  0  0  0  0  0  0  0
   17.5940   24.4780   15.1750 O   0  0  0  0  0  0  0  0  0  0  0  0
   18.4010   25.8050   13.6250 N   0  0  0  0  0  0  0  0  0  0  0  0
   18.2890   24.6450   18.3830 N   0  0  0  0  0  0  0  0  0  0  0  0
   17.3900   23.6910   18.9920 C   0  0  2  0  0  0  0  0  0  0  0  0
   15.9580   23.9570   18.5820 C   0  0  0  0  0  0  0  0  0  0  0  0
   17.5590   23.8150   20.5120 C   0  0  0  0  0  0  0  0  0  0  0  0
   19.0120   23.5670   20.8570 C   0  0  0  0  0  0  0  0  0  0  0  0
   19.8350   24.6370   21.0900 C   0  0  0  0  0  0  0  0  0  0  0  0
   19.4950   22.2770   20.9590 C   0  0  0  0  0  0  0  0  0  0  0  0
   21.1600   24.4620   21.4230 C   0  0  0  0  0  0  0  0  0  0  0  0
   20.8240   22.0870   21.2690 C   0  0  0  0  0  0  0  0  0  0  0  0
   21.6470   23.1720   21.5100 C   0  0  0  0  0  0  0  0  0  0  0  0
   15.5510   23.8760   17.2920 N   0  3  0  0  0  0  0  0  0  0  0  0
   14.5170   22.9570   16.8360 C   0  0  2  0  0  0  0  0  0  0  0  0
   14.5140   21.5410   17.3610 C   0  0  0  0  0  0  0  0  0  0  0  0
   15.4980   20.8240   17.2680 O   0  0  0  0  0  0  0  0  0  0  0  0
   14.6780   22.7690   15.3250 C   0  0  0  0  0  0  0  0  0  0  0  0
   13.7030   21.6980   14.8080 C   0  0  0  0  0  0  0  0  0  0  0  0
   12.3870   22.3590   14.4790 C   0  0  0  0  0  0  0  0  0  0  0  0
   14.3450   20.9900   13.6420 C   0  0  0  0  0  0  0  0  0  0  0  0
   13.3760   21.0760   17.8560 N   0  0  0  0  0  0  0  0  0  0  0  0
   13.2350   19.6720   18.2520 C   0  0  2  0  0  0  0  0  0  0  0  0
   11.8350   19.2090   17.8520 C   0  0  0  0  0  0  0  0  0  0  0  0
   10.8620   19.9180   18.0800 O   0  0  0  0  0  0  0  0  0  0  0  0
   13.4810   19.4940   19.7430 C   0  0  0  0  0  0  0  0  0  0  0  0
   13.3450   18.0640   20.3170 C   0  0  0  0  0  0  0  0  0  0  0  0
   11.9250   17.7370   20.7380 C   0  0  0  0  0  0  0  0  0  0  0  0
   11.1270   18.6090   21.0430 O   0  0  0  0  0  0  0  0  0  0  0  0
   11.5370   16.4750   20.6830 N   0  0  0  0  0  0  0  0  0  0  0  0
   11.7430   17.9640   17.3940 N   0  0  0  0  0  0  0  0  0  0  0  0
   10.4340   17.4130   17.0600 C   0  0  2  0  0  0  0  0  0  0  0  0
   10.1710   16.0170   17.6070 C   0  0  0  0  0  0  0  0  0  0  0  0
   11.0630   15.1750   17.6060 O   0  0  0  0  0  0  0  0  0  0  0  0
   10.3400   17.3410   15.5250 C   0  0  0  0  0  0  0  0  0  0  0  0
   11.4790   16.6440   15.0330 O   0  0  0  0  0  0  0  0  0  0  0  0
    8.9270   15.7880   18.0250 N   0  0  0  0  0  0  0  0  0  0  0  0
    8.4120   14.4660   18.2970 C   0  0  2  0  0  0  0  0  0  0  0  0
    8.5340   13.6050   17.0410 C   0  0  0  0  0  0  0  0  0  0  0  0
    8.5080   14.1430   15.9340 O   0  0  0  0  0  0  0  0  0  0  0  0
    6.9180   14.5230   18.6590 C   0  0  0  0  0  0  0  0  0  0  0  0
    6.1320   14.8320   17.3870 C   0  0  0  0  0  0  0  0  0  0  0  0
    4.7340   15.3780   17.5860 C   0  0  0  0  0  0  0  0  0  0  0  0
    4.5160   16.1410   18.8030 N   0  0  0  0  0  0  0  0  0  0  0  0
    3.8910   17.3170   18.7780 C   0  0  0  0  0  3  0  0  0  0  0  0
    3.7120   17.9790   19.9170 N   0  0  0  0  0  0  0  0  0  0  0  0
    3.4630   17.8080   17.6240 N   0  0  0  0  0  0  0  0  0  0  0  0
    8.6190   12.2850   17.1240 N   0  0  0  0  0  0  0  0  0  0  0  0
    8.5440   11.4780   15.9150 C   0  0  2  0  0  0  0  0  0  0  0  0
    7.2410   11.7630   15.1640 C   0  0  0  0  0  0  0  0  0  0  0  0
    6.2970   12.2640   15.7900 O   0  0  0  0  0  0  0  0  0  0  0  0
    8.4760   10.0250   16.3990 C   0  0  0  0  0  0  0  0  0  0  0  0
    8.1660   10.1300   17.8530 C   0  0  0  0  0  0  0  0  0  0  0  0
    8.7470   11.4300   18.3270 C   0  0  0  0  0  0  0  0  0  0  0  0
    7.2400   11.4180   13.9520 N   0  0  0  0  0  0  0  0  0  0  0  0
   30.7341   24.7298   18.6424 H   0  0  0  0  0  0  0  0  0  0  0  0
   29.5621   23.6400   18.2572 H   0  0  0  0  0  0  0  0  0  0  0  0
   29.5270   24.4062   19.7136 H   0  0  0  0  0  0  0  0  0  0  0  0
   29.2123   26.5117   18.6640 H   0  0  0  0  0  0  0  0  0  0  0  0
   28.3169   25.4925   16.1320 H   0  0  0  0  0  0  0  0  0  0  0  0
   29.9686   24.8528   16.4305 H   0  0  0  0  0  0  0  0  0  0  0  0
   30.9161   27.0084   16.3714 H   0  0  0  0  0  0  0  0  0  0  0  0
   29.3080   27.8038   16.4606 H   0  0  0  0  0  0  0  0  0  0  0  0
   28.7785   26.3133   14.3095 H   0  0  0  0  0  0  0  0  0  0  0  0
   30.5670   26.2529   14.1540 H   0  0  0  0  0  0  0  0  0  0  0  0
   29.3509   28.9242   14.6210 H   0  0  0  0  0  0  0  0  0  0  0  0
   30.9553   27.9153   11.0157 H   0  0  0  0  0  0  0  0  0  0  0  0
   30.6727   26.6231   12.2128 H   0  0  0  0  0  0  0  0  0  0  0  0
   29.6820   30.4834   13.2299 H   0  0  0  0  0  0  0  0  0  0  0  0
   30.3723   30.1770   11.6136 H   0  0  0  0  0  0  0  0  0  0  0  0
   25.2965   24.1892   17.5166 H   0  0  0  0  0  0  0  0  0  0  0  0
   25.1213   22.0592   18.3347 H   0  0  0  0  0  0  0  0  0  0  0  0
   24.1141   22.8217   19.6118 H   0  0  0  0  0  0  0  0  0  0  0  0
   26.5046   21.4566   19.9836 H   0  0  0  0  0  0  0  0  0  0  0  0
   25.7060   22.5581   21.1564 H   0  0  0  0  0  0  0  0  0  0  0  0
   27.4222   24.0001   20.9453 H   0  0  0  0  0  0  0  0  0  0  0  0
   28.1929   22.9247   19.7304 H   0  0  0  0  0  0  0  0  0  0  0  0
   23.7973   25.5479   17.5143 H   0  0  0  0  0  0  0  0  0  0  0  0
   23.3962   27.9234   18.2589 H   0  0  0  0  0  0  0  0  0  0  0  0
   22.8313   27.1249   19.7655 H   0  0  0  0  0  0  0  0  0  0  0  0
   21.9053   24.9550   17.2780 H   0  0  0  0  0  0  0  0  0  0  0  0
   19.3410   26.4744   17.0096 H   0  0  0  0  0  0  0  0  0  0  0  0
   20.4833   24.3122   15.1555 H   0  0  0  0  0  0  0  0  0  0  0  0
   20.4660   26.0756   14.8138 H   0  0  0  0  0  0  0  0  0  0  0  0
   17.5203   25.7935   13.1514 H   0  0  0  0  0  0  0  0  0  0  0  0
   19.1638   26.3313   13.2493 H   0  0  0  0  0  0  0  0  0  0  0  0
   18.2489   25.5907   18.7056 H   0  0  0  0  0  0  0  0  0  0  0  0
   17.6647   22.6743   18.6746 H   0  0  0  0  0  0  0  0  0  0  0  0
   15.7287   24.9807   18.9128 H   0  0  0  0  0  0  0  0  0  0  0  0
   15.3394   23.2425   19.1448 H   0  0  0  0  0  0  0  0  0  0  0  0
   16.9257   23.0710   21.0174 H   0  0  0  0  0  0  0  0  0  0  0  0
   17.2681   24.8251   20.8363 H   0  0  0  0  0  0  0  0  0  0  0  0
   19.4355   25.6416   21.0107 H   0  0  0  0  0  0  0  0  0  0  0  0
   18.8397   21.4286   20.7979 H   0  0  0  0  0  0  0  0  0  0  0  0
   21.8035   25.3137   21.6118 H   0  0  0  0  0  0  0  0  0  0  0  0
   21.2265   21.0820   21.3243 H   0  0  0  0  0  0  0  0  0  0  0  0
   22.6865   23.0084   21.7702 H   0  0  0  0  0  0  0  0  0  0  0  0
   16.3749   23.6531   16.7557 H   0  0  0  0  0  0  0  0  0  0  0  0
   15.2289   24.7987   17.0453 H   0  0  0  0  0  0  0  0  0  0  0  0
   13.5439   23.4145   17.0678 H   0  0  0  0  0  0  0  0  0  0  0  0
   15.7094   22.4547   15.1073 H   0  0  0  0  0  0  0  0  0  0  0  0
   14.4704   23.7226   14.8175 H   0  0  0  0  0  0  0  0  0  0  0  0
   13.5243   20.9577   15.6017 H   0  0  0  0  0  0  0  0  0  0  0  0
   11.6797   21.6029   14.1076 H   0  0  0  0  0  0  0  0  0  0  0  0
   12.5446   23.1249   13.7054 H   0  0  0  0  0  0  0  0  0  0  0  0
   11.9773   22.8310   15.3842 H   0  0  0  0  0  0  0  0  0  0  0  0
   15.2944   20.5381   13.9651 H   0  0  0  0  0  0  0  0  0  0  0  0
   14.5387   21.7127   12.8357 H   0  0  0  0  0  0  0  0  0  0  0  0
   13.6705   20.2026   13.2746 H   0  0  0  0  0  0  0  0  0  0  0  0
   12.5980   21.6954   17.9614 H   0  0  0  0  0  0  0  0  0  0  0  0
   13.9775   19.0707   17.7069 H   0  0  0  0  0  0  0  0  0  0  0  0
   12.7621   20.1339   20.2756 H   0  0  0  0  0  0  0  0  0  0  0  0
   14.5043   19.8387   19.9529 H   0  0  0  0  0  0  0  0  0  0  0  0
   14.0024   17.9725   21.1942 H   0  0  0  0  0  0  0  0  0  0  0  0
   13.6587   17.3439   19.5469 H   0  0  0  0  0  0  0  0  0  0  0  0
   10.6072   16.2255   20.9535 H   0  0  0  0  0  0  0  0  0  0  0  0
   12.1732   15.7694   20.3708 H   0  0  0  0  0  0  0  0  0  0  0  0
   12.5665   17.4084   17.2791 H   0  0  0  0  0  0  0  0  0  0  0  0
    9.6607   18.0907   17.4508 H   0  0  0  0  0  0  0  0  0  0  0  0
   10.3188   18.3582   15.1068 H   0  0  0  0  0  0  0  0  0  0  0  0
    9.4240   16.8058   15.2344 H   0  0  0  0  0  0  0  0  0  0  0  0
   11.4944   15.7672   15.3982 H   0  0  0  0  0  0  0  0  0  0  0  0
    8.3189   16.5708   18.1572 H   0  0  0  0  0  0  0  0  0  0  0  0
    8.9806   14.0149   19.1235 H   0  0  0  0  0  0  0  0  0  0  0  0
    6.7452   15.3128   19.4049 H   0  0  0  0  0  0  0  0  0  0  0  0
    6.5968   13.5543   19.0694 H   0  0  0  0  0  0  0  0  0  0  0  0
    6.0500   13.9006   16.8076 H   0  0  0  0  0  0  0  0  0  0  0  0
    6.7038   15.5737   16.8100 H   0  0  0  0  0  0  0  0  0  0  0  0
    4.0378   14.5264   17.5934 H   0  0  0  0  0  0  0  0  0  0  0  0
    4.5036   16.0326   16.7325 H   0  0  0  0  0  0  0  0  0  0  0  0
    4.8509   15.7656   19.7018 H   0  0  0  0  0  0  0  0  0  0  0  0
    3.2304   18.8895   19.9133 H   0  0  0  0  0  0  0  0  0  0  0  0
    4.0549   17.5814   20.8031 H   0  0  0  0  0  0  0  0  0  0  0  0
    3.6116   17.2793   16.7526 H   0  0  0  0  0  0  0  0  0  0  0  0
    2.9817   18.7183   17.5984 H   0  0  0  0  0  0  0  0  0  0  0  0
    9.4152   11.6527   15.2665 H   0  0  0  0  0  0  0  0  0  0  0  0
    9.4393    9.5176   16.2426 H   0  0  0  0  0  0  0  0  0  0  0  0
    7.6824    9.4760   15.8710 H   0  0  0  0  0  0  0  0  0  0  0  0
    8.6210    9.2904   18.3989 H   0  0  0  0  0  0  0  0  0  0  0  0
    7.0773   10.1223   18.0097 H   0  0  0  0  0  0  0  0  0  0  0  0
    8.1726   11.8397   19.1709 H   0  0  0  0  0  0  0  0  0  0  0  0
    9.7999   11.3123   18.6229 H   0  0  0  0  0  0  0  0  0  0  0  0
    6.4269   11.5692   13.3898 H   0  0  0  0  0  0  0  0  0  0  0  0
    8.0523   10.9931   13.5524 H   0  0  0  0  0  0  0  0  0  0  0  0
  1  2  1  0  0  0  0
  1 83  1  0  0  0  0
  1 84  1  0  0  0  0
  1 85  1  0  0  0  0
  2  3  1  0  0  0  0
  2  5  1  0  0  0  0
  2 86  1  1  0  0  0
  3  4  2  0  0  0  0
  3 12  1  0  0  0  0
  5  6  1  0  0  0  0
  5 87  1  0  0  0  0
  5 88  1  0  0  0  0
  6  7  1  0  0  0  0
  6 89  1  0  0  0  0
  6 90  1  0  0  0  0
  7  8  1  0  0  0  0
  7 91  1  0  0  0  0
  7 92  1  0  0  0  0
  8  9  1  0  0  0  0
  8 93  1  0  0  0  0
  9 10  1  0  0  0  0
  9 11  1  0  0  0  0
 10 94  1  0  0  0  0
 10 95  1  0  0  0  0
 11 96  1  0  0  0  0
 11 97  1  0  0  0  0
 12 13  1  0  0  0  0
 12 18  1  0  0  0  0
 13 14  1  0  0  0  0
 13 16  1  0  0  0  0
 13 98  1  6  0  0  0
 14 15  2  0  0  0  0
 14 19  1  0  0  0  0
 16 17  1  0  0  0  0
 16 99  1  0  0  0  0
 16100  1  0  0  0  0
 17 18  1  0  0  0  0
 17101  1  0  0  0  0
 17102  1  0  0  0  0
 18103  1  0  0  0  0
 18104  1  0  0  0  0
 19 20  1  0  0  0  0
 19105  1  0  0  0  0
 20 21  1  0  0  0  0
 20106  1  0  0  0  0
 20107  1  0  0  0  0
 21 22  2  0  0  0  0
 21 23  1  0  0  0  0
 23 24  1  0  0  0  0
 23108  1  0  0  0  0
 24 25  1  0  0  0  0
 24 27  1  0  0  0  0
 24109  1  1  0  0  0
 25 26  2  0  0  0  0
 25 31  1  0  0  0  0
 27 28  1  0  0  0  0
 27110  1  0  0  0  0
 27111  1  0  0  0  0
 28 29  2  0  0  0  0
 28 30  1  0  0  0  0
 30112  1  0  0  0  0
 30113  1  0  0  0  0
 31 32  1  0  0  0  0
 31114  1  0  0  0  0
 32 33  1  0  0  0  0
 32 34  1  0  0  0  0
 32115  1  6  0  0  0
 33 41  1  0  0  0  0
 33116  1  0  0  0  0
 33117  1  0  0  0  0
 34 35  1  0  0  0  0
 34118  1  0  0  0  0
 34119  1  0  0  0  0
 35 36  2  0  0  0  0
 35 37  1  0  0  0  0
 36 38  1  0  0  0  0
 36120  1  0  0  0  0
 37 39  2  0  0  0  0
 37121  1  0  0  0  0
 38 40  2  0  0  0  0
 38122  1  0  0  0  0
 39 40  1  0  0  0  0
 39123  1  0  0  0  0
 40124  1  0  0  0  0
 41 42  1  0  0  0  0
 41125  1  0  0  0  0
 41126  1  0  0  0  0
 42 43  1  0  0  0  0
 42 45  1  0  0  0  0
 42127  1  1  0  0  0
 43 44  2  0  0  0  0
 43 49  1  0  0  0  0
 45 46  1  0  0  0  0
 45128  1  0  0  0  0
 45129  1  0  0  0  0
 46 47  1  0  0  0  0
 46 48  1  0  0  0  0
 46130  1  0  0  0  0
 47131  1  0  0  0  0
 47132  1  0  0  0  0
 47133  1  0  0  0  0
 48134  1  0  0  0  0
 48135  1  0  0  0  0
 48136  1  0  0  0  0
 49 50  1  0  0  0  0
 49137  1  0  0  0  0
 50 51  1  0  0  0  0
 50 53  1  0  0  0  0
 50138  1  6  0  0  0
 51 52  2  0  0  0  0
 51 58  1  0  0  0  0
 53 54  1  0  0  0  0
 53139  1  0  0  0  0
 53140  1  0  0  0  0
 54 55  1  0  0  0  0
 54141  1  0  0  0  0
 54142  1  0  0  0  0
 55 56  2  0  0  0  0
 55 57  1  0  0  0  0
 57143  1  0  0  0  0
 57144  1  0  0  0  0
 58 59  1  0  0  0  0
 58145  1  0  0  0  0
 59 60  1  0  0  0  0
 59 62  1  0  0  0  0
 59146  1  1  0  0  0
 60 61  2  0  0  0  0
 60 64  1  0  0  0  0
 62 63  1  0  0  0  0
 62147  1  0  0  0  0
 62148  1  0  0  0  0
 63149  1  0  0  0  0
 64 65  1  0  0  0  0
 64150  1  0  0  0  0
 65 66  1  0  0  0  0
 65 68  1  0  0  0  0
 65151  1  1  0  0  0
 66 67  2  0  0  0  0
 66 75  1  0  0  0  0
 68 69  1  0  0  0  0
 68152  1  0  0  0  0
 68153  1  0  0  0  0
 69 70  1  0  0  0  0
 69154  1  0  0  0  0
 69155  1  0  0  0  0
 70 71  1  0  0  0  0
 70156  1  0  0  0  0
 70157  1  0  0  0  0
 71 72  1  0  0  0  0
 71158  1  0  0  0  0
 72 73  1  0  0  0  0
 72 74  1  0  0  0  0
 73159  1  0  0  0  0
 73160  1  0  0  0  0
 74161  1  0  0  0  0
 74162  1  0  0  0  0
 75 76  1  0  0  0  0
 75 81  1  0  0  0  0
 76 77  1  0  0  0  0
 76 79  1  0  0  0  0
 76163  1  6  0  0  0
 77 78  2  0  0  0  0
 77 82  1  0  0  0  0
 79 80  1  0  0  0  0
 79164  1  0  0  0  0
 79165  1  0  0  0  0
 80 81  1  0  0  0  0
 80166  1  0  0  0  0
 80167  1  0  0  0  0
 81168  1  0  0  0  0
 81169  1  0  0  0  0
 82170  1  0  0  0  0
 82171  1  0  0  0  0
M  CHG  2   1   1  41   1
M  END
