2aoi_ligand
 OpenBabel08222323343D

171173  0  0  1  0  0  0  0  0999 V2000
   30.0790   24.8920   18.6880 N   0  3  0  0  0  0  0  0  0  0  0  0
   29.2010   25.8780   18.0980 C   0  0  2  0  0  0  0  0  0  0  0  0
   27.7210   25.5420   18.1620 C   0  0  0  0  0  0  0  0  0  0  0  0
   26.9670   26.2870   17.4980 O   0  0  0  0  0  0  0  0  0  0  0  0
   29.5850   26.0710   16.6090 C   0  0  0  0  0  0  0  0  0  0  0  0
   29.0930   27.4000   16.0700 C   0  0  0  0  0  0  0  0  0  0  0  0
   28.3810   27.2330   14.7280 C   0  0  0  0  0  0  0  0  0  0  0  0
   28.7610   28.3820   13.8940 N   0  0  0  0  0  0  0  0  0  0  0  0
   30.0020   28.4950   13.4270 C   0  0  0  0  0  3  0  0  0  0  0  0
   30.9090   27.5630   13.6990 N   0  0  0  0  0  0  0  0  0  0  0  0
   30.3360   29.5370   12.6810 N   0  0  0  0  0  0  0  0  0  0  0  0
   27.1790   24.5460   18.8430 N   0  0  0  0  0  0  0  0  0  0  0  0
   25.7730   24.2390   18.5360 C   0  0  2  0  0  0  0  0  0  0  0  0
   24.8860   25.2960   19.1750 C   0  0  0  0  0  0  0  0  0  0  0  0
   25.0030   25.6780   20.3400 O   0  0  0  0  0  0  0  0  0  0  0  0
   25.5380   22.8650   19.1580 C   0  0  0  0  0  0  0  0  0  0  0  0
   26.4070   22.9230   20.3670 C   0  0  0  0  0  0  0  0  0  0  0  0
   27.6510   23.6480   19.9110 C   0  0  0  0  0  0  0  0  0  0  0  0
   23.9730   25.8150   18.3470 N   0  0  0  0  0  0  0  0  0  0  0  0
   23.0560   26.7710   18.8180 C   0  0  0  0  0  0  0  0  0  0  0  0
   21.6960   26.7870   18.1670 C   0  0  0  0  0  0  0  0  0  0  0  0
   21.0500   27.8350   18.3150 O   0  0  0  0  0  0  0  0  0  0  0  0
   21.2380   25.7330   17.4960 N   0  0  0  0  0  0  0  0  0  0  0  0
   19.8890   25.7310   16.9240 C   0  0  2  0  0  0  0  0  0  0  0  0
   19.0780   24.5120   17.3660 C   0  0  0  0  0  0  0  0  0  0  0  0
   19.1850   23.4360   16.7900 O   0  0  0  0  0  0  0  0  0  0  0  0
   19.9080   25.8480   15.3950 C   0  0  0  0  0  0  0  0  0  0  0  0
   20.7050   27.0920   15.0370 C   0  0  0  0  0  0  0  0  0  0  0  0
   20.2870   28.2230   15.2400 O   0  0  0  0  0  0  0  0  0  0  0  0
   21.9100   26.8450   14.5330 N   0  0  0  0  0  0  0  0  0  0  0  0
   18.2950   24.7570   18.4040 N   0  0  0  0  0  0  0  0  0  0  0  0
   17.5200   23.7200   19.0590 C   0  0  2  0  0  0  0  0  0  0  0  0
   16.0330   23.8990   18.7520 C   0  0  0  0  0  0  0  0  0  0  0  0
   17.8710   23.8390   20.5660 C   0  0  0  0  0  0  0  0  0  0  0  0
   19.3720   23.6310   20.7140 C   0  0  0  0  0  0  0  0  0  0  0  0
   20.2330   24.6220   21.1120 C   0  0  0  0  0  0  0  0  0  0  0  0
   19.9090   22.3850   20.4230 C   0  0  0  0  0  0  0  0  0  0  0  0
   21.5930   24.4030   21.2340 C   0  0  0  0  0  0  0  0  0  0  0  0
   21.2610   22.1570   20.5370 C   0  0  0  0  0  0  0  0  0  0  0  0
   22.1140   23.1600   20.9260 C   0  0  0  0  0  0  0  0  0  0  0  0
   15.7150   23.7580   17.4440 N   0  3  0  0  0  0  0  0  0  0  0  0
   14.7010   22.8650   16.8940 C   0  0  2  0  0  0  0  0  0  0  0  0
   14.7360   21.4920   17.5490 C   0  0  0  0  0  0  0  0  0  0  0  0
   15.7790   20.8620   17.6700 O   0  0  0  0  0  0  0  0  0  0  0  0
   14.9080   22.6050   15.3930 C   0  0  0  0  0  0  0  0  0  0  0  0
   14.0050   21.5660   14.7210 C   0  0  0  0  0  0  0  0  0  0  0  0
   12.5840   22.1250   14.7650 C   0  0  0  0  0  0  0  0  0  0  0  0
   14.4030   21.2880   13.2970 C   0  0  0  0  0  0  0  0  0  0  0  0
   13.5660   21.0300   18.0040 N   0  0  0  0  0  0  0  0  0  0  0  0
   13.4360   19.6440   18.4600 C   0  0  2  0  0  0  0  0  0  0  0  0
   12.0430   19.1510   18.0380 C   0  0  0  0  0  0  0  0  0  0  0  0
   11.0720   19.8770   18.2490 O   0  0  0  0  0  0  0  0  0  0  0  0
   13.6500   19.5150   19.9640 C   0  0  0  0  0  0  0  0  0  0  0  0
   13.6060   18.0580   20.4580 C   0  0  0  0  0  0  0  0  0  0  0  0
   12.1920   17.7140   20.9640 C   0  0  0  0  0  0  0  0  0  0  0  0
   11.4470   18.6220   21.3420 O   0  0  0  0  0  0  0  0  0  0  0  0
   11.7570   16.5040   20.8910 N   0  0  0  0  0  0  0  0  0  0  0  0
   11.9960   17.9290   17.4890 N   0  0  0  0  0  0  0  0  0  0  0  0
   10.7250   17.3740   17.0400 C   0  0  2  0  0  0  0  0  0  0  0  0
   10.4650   15.9850   17.6060 C   0  0  0  0  0  0  0  0  0  0  0  0
   11.3860   15.1440   17.6260 O   0  0  0  0  0  0  0  0  0  0  0  0
   10.7060   17.3080   15.5060 C   0  0  0  0  0  0  0  0  0  0  0  0
   10.8990   18.6080   14.9480 O   0  0  0  0  0  0  0  0  0  0  0  0
    9.2420   15.7250   18.0450 N   0  0  0  0  0  0  0  0  0  0  0  0
    8.8600   14.3870   18.5030 C   0  0  2  0  0  0  0  0  0  0  0  0
    8.9510   13.4100   17.3410 C   0  0  0  0  0  0  0  0  0  0  0  0
    8.9910   13.8500   16.2050 O   0  0  0  0  0  0  0  0  0  0  0  0
    7.4640   14.3690   19.1160 C   0  0  0  0  0  0  0  0  0  0  0  0
    6.3580   14.4430   18.0610 C   0  0  0  0  0  0  0  0  0  0  0  0
    5.0090   14.5190   18.7050 C   0  0  0  0  0  0  0  0  0  0  0  0
    4.7250   15.7930   19.3840 N   0  0  0  0  0  0  0  0  0  0  0  0
    4.2150   16.8490   18.7830 C   0  0  0  0  0  3  0  0  0  0  0  0
    4.0000   17.9300   19.5390 N   0  0  0  0  0  0  0  0  0  0  0  0
    3.9340   16.8710   17.4840 N   0  0  0  0  0  0  0  0  0  0  0  0
    9.0310   12.1010   17.5450 N   0  0  0  0  0  0  0  0  0  0  0  0
    9.0150   11.1430   16.4410 C   0  0  2  0  0  0  0  0  0  0  0  0
    7.7300   11.2600   15.6100 C   0  0  0  0  0  0  0  0  0  0  0  0
    6.7040   11.6480   16.1810 O   0  0  0  0  0  0  0  0  0  0  0  0
    9.0370    9.7720   17.1050 C   0  0  0  0  0  0  0  0  0  0  0  0
    8.9260    9.9740   18.5580 C   0  0  0  0  0  0  0  0  0  0  0  0
    9.1660   11.4220   18.8560 C   0  0  0  0  0  0  0  0  0  0  0  0
    7.7780   10.9390   14.3990 N   0  0  0  0  0  0  0  0  0  0  0  0
   31.0354   25.1980   18.5996 H   0  0  0  0  0  0  0  0  0  0  0  0
   29.9628   24.0110   18.2122 H   0  0  0  0  0  0  0  0  0  0  0  0
   29.8510   24.7798   19.6634 H   0  0  0  0  0  0  0  0  0  0  0  0
   29.3552   26.8258   18.6346 H   0  0  0  0  0  0  0  0  0  0  0  0
   29.1374   25.2589   16.0174 H   0  0  0  0  0  0  0  0  0  0  0  0
   30.6803   26.0321   16.5155 H   0  0  0  0  0  0  0  0  0  0  0  0
   29.9536   28.0719   15.9364 H   0  0  0  0  0  0  0  0  0  0  0  0
   28.3920   27.8414   16.7937 H   0  0  0  0  0  0  0  0  0  0  0  0
   27.2913   27.2189   14.8777 H   0  0  0  0  0  0  0  0  0  0  0  0
   28.6972   26.2959   14.2466 H   0  0  0  0  0  0  0  0  0  0  0  0
   28.0621   29.1046   13.6695 H   0  0  0  0  0  0  0  0  0  0  0  0
   31.8680   27.6558   13.3348 H   0  0  0  0  0  0  0  0  0  0  0  0
   30.6532   26.7477   14.2741 H   0  0  0  0  0  0  0  0  0  0  0  0
   29.6368   30.2625   12.4670 H   0  0  0  0  0  0  0  0  0  0  0  0
   31.2949   29.6220   12.3148 H   0  0  0  0  0  0  0  0  0  0  0  0
   25.5985   24.2106   17.4503 H   0  0  0  0  0  0  0  0  0  0  0  0
   25.8514   22.0590   18.4782 H   0  0  0  0  0  0  0  0  0  0  0  0
   24.4817   22.7246   19.4308 H   0  0  0  0  0  0  0  0  0  0  0  0
   26.6546   21.9095   20.7157 H   0  0  0  0  0  0  0  0  0  0  0  0
   25.9094   23.4778   21.1761 H   0  0  0  0  0  0  0  0  0  0  0  0
   28.0913   24.2242   20.7381 H   0  0  0  0  0  0  0  0  0  0  0  0
   28.3953   22.9376   19.5220 H   0  0  0  0  0  0  0  0  0  0  0  0
   23.9425   25.5226   17.3912 H   0  0  0  0  0  0  0  0  0  0  0  0
   23.5062   27.7640   18.6725 H   0  0  0  0  0  0  0  0  0  0  0  0
   22.9083   26.5893   19.8928 H   0  0  0  0  0  0  0  0  0  0  0  0
   21.8232   24.9304   17.3804 H   0  0  0  0  0  0  0  0  0  0  0  0
   19.3747   26.6225   17.3121 H   0  0  0  0  0  0  0  0  0  0  0  0
   18.8804   25.9387   15.0133 H   0  0  0  0  0  0  0  0  0  0  0  0
   20.3847   24.9587   14.9570 H   0  0  0  0  0  0  0  0  0  0  0  0
   22.5062   27.6029   14.2682 H   0  0  0  0  0  0  0  0  0  0  0  0
   22.2203   25.9013   14.4186 H   0  0  0  0  0  0  0  0  0  0  0  0
   18.2350   25.6931   18.7505 H   0  0  0  0  0  0  0  0  0  0  0  0
   17.8306   22.7305   18.6923 H   0  0  0  0  0  0  0  0  0  0  0  0
   15.7336   24.9077   19.0728 H   0  0  0  0  0  0  0  0  0  0  0  0
   15.4695   23.1491   19.3266 H   0  0  0  0  0  0  0  0  0  0  0  0
   17.3291   23.0714   21.1379 H   0  0  0  0  0  0  0  0  0  0  0  0
   17.5935   24.8367   20.9369 H   0  0  0  0  0  0  0  0  0  0  0  0
   19.8359   25.6051   21.3374 H   0  0  0  0  0  0  0  0  0  0  0  0
   19.2556   21.5818   20.1021 H   0  0  0  0  0  0  0  0  0  0  0  0
   22.2462   25.2006   21.5689 H   0  0  0  0  0  0  0  0  0  0  0  0
   21.6579   21.1726   20.3168 H   0  0  0  0  0  0  0  0  0  0  0  0
   23.1810   22.9798   20.9907 H   0  0  0  0  0  0  0  0  0  0  0  0
   16.5749   23.4898   16.9916 H   0  0  0  0  0  0  0  0  0  0  0  0
   15.4475   24.6802   17.1374 H   0  0  0  0  0  0  0  0  0  0  0  0
   13.7146   23.3246   17.0545 H   0  0  0  0  0  0  0  0  0  0  0  0
   15.9481   22.2739   15.2569 H   0  0  0  0  0  0  0  0  0  0  0  0
   14.7559   23.5605   14.8696 H   0  0  0  0  0  0  0  0  0  0  0  0
   14.0520   20.6247   15.2881 H   0  0  0  0  0  0  0  0  0  0  0  0
   11.8942   21.4108   14.2916 H   0  0  0  0  0  0  0  0  0  0  0  0
   12.5495   23.0819   14.2236 H   0  0  0  0  0  0  0  0  0  0  0  0
   12.2850   22.2847   15.8115 H   0  0  0  0  0  0  0  0  0  0  0  0
   15.4267   20.8861   13.2742 H   0  0  0  0  0  0  0  0  0  0  0  0
   14.3625   22.2212   12.7161 H   0  0  0  0  0  0  0  0  0  0  0  0
   13.7109   20.5534   12.8595 H   0  0  0  0  0  0  0  0  0  0  0  0
   12.7719   21.6371   18.0332 H   0  0  0  0  0  0  0  0  0  0  0  0
   14.1979   19.0316   17.9555 H   0  0  0  0  0  0  0  0  0  0  0  0
   12.8619   20.0833   20.4797 H   0  0  0  0  0  0  0  0  0  0  0  0
   14.6329   19.9402   20.2154 H   0  0  0  0  0  0  0  0  0  0  0  0
   14.3273   17.9299   21.2785 H   0  0  0  0  0  0  0  0  0  0  0  0
   13.8698   17.3845   19.6293 H   0  0  0  0  0  0  0  0  0  0  0  0
   10.8391   16.2820   21.2198 H   0  0  0  0  0  0  0  0  0  0  0  0
   12.3372   15.7865   20.5056 H   0  0  0  0  0  0  0  0  0  0  0  0
   12.8360   17.3961   17.3871 H   0  0  0  0  0  0  0  0  0  0  0  0
    9.9187   18.0416   17.3779 H   0  0  0  0  0  0  0  0  0  0  0  0
    9.7358   16.9112   15.1725 H   0  0  0  0  0  0  0  0  0  0  0  0
   11.5119   16.6430   15.1621 H   0  0  0  0  0  0  0  0  0  0  0  0
   10.2029   19.1839   15.2416 H   0  0  0  0  0  0  0  0  0  0  0  0
    8.5638   16.4596   18.0641 H   0  0  0  0  0  0  0  0  0  0  0  0
    9.5741   14.0728   19.2785 H   0  0  0  0  0  0  0  0  0  0  0  0
    7.3646   15.2312   19.7918 H   0  0  0  0  0  0  0  0  0  0  0  0
    7.3427   13.4380   19.6891 H   0  0  0  0  0  0  0  0  0  0  0  0
    6.4043   13.5451   17.4272 H   0  0  0  0  0  0  0  0  0  0  0  0
    6.5116   15.3382   17.4405 H   0  0  0  0  0  0  0  0  0  0  0  0
    4.9375   13.7110   19.4480 H   0  0  0  0  0  0  0  0  0  0  0  0
    4.2477   14.3687   17.9254 H   0  0  0  0  0  0  0  0  0  0  0  0
    4.9376   15.8637   20.3894 H   0  0  0  0  0  0  0  0  0  0  0  0
    3.6028   18.7821   19.1181 H   0  0  0  0  0  0  0  0  0  0  0  0
    4.2315   17.9110   20.5425 H   0  0  0  0  0  0  0  0  0  0  0  0
    4.1019   16.0348   16.9065 H   0  0  0  0  0  0  0  0  0  0  0  0
    3.5484   17.7243   17.0549 H   0  0  0  0  0  0  0  0  0  0  0  0
    9.8930   11.2853   15.7939 H   0  0  0  0  0  0  0  0  0  0  0  0
    9.9803    9.2574   16.8698 H   0  0  0  0  0  0  0  0  0  0  0  0
    8.1906    9.1685   16.7455 H   0  0  0  0  0  0  0  0  0  0  0  0
    9.6764    9.3591   19.0765 H   0  0  0  0  0  0  0  0  0  0  0  0
    7.9195    9.6874   18.8967 H   0  0  0  0  0  0  0  0  0  0  0  0
    8.4184   11.8009   19.5684 H   0  0  0  0  0  0  0  0  0  0  0  0
   10.1746   11.5715   19.2687 H   0  0  0  0  0  0  0  0  0  0  0  0
    6.9572   11.0044   13.8315 H   0  0  0  0  0  0  0  0  0  0  0  0
    8.6371   10.6176   14.0006 H   0  0  0  0  0  0  0  0  0  0  0  0
  1  2  1  0  0  0  0
  1 83  1  0  0  0  0
  1 84  1  0  0  0  0
  1 85  1  0  0  0  0
  2  3  1  0  0  0  0
  2  5  1  0  0  0  0
  2 86  1  1  0  0  0
  3  4  2  0  0  0  0
  3 12  1  0  0  0  0
  5  6  1  0  0  0  0
  5 87  1  0  0  0  0
  5 88  1  0  0  0  0
  6  7  1  0  0  0  0
  6 89  1  0  0  0  0
  6 90  1  0  0  0  0
  7  8  1  0  0  0  0
  7 91  1  0  0  0  0
  7 92  1  0  0  0  0
  8  9  1  0  0  0  0
  8 93  1  0  0  0  0
  9 10  1  0  0  0  0
  9 11  1  0  0  0  0
 10 94  1  0  0  0  0
 10 95  1  0  0  0  0
 11 96  1  0  0  0  0
 11 97  1  0  0  0  0
 12 13  1  0  0  0  0
 12 18  1  0  0  0  0
 13 14  1  0  0  0  0
 13 16  1  0  0  0  0
 13 98  1  6  0  0  0
 14 15  2  0  0  0  0
 14 19  1  0  0  0  0
 16 17  1  0  0  0  0
 16 99  1  0  0  0  0
 16100  1  0  0  0  0
 17 18  1  0  0  0  0
 17101  1  0  0  0  0
 17102  1  0  0  0  0
 18103  1  0  0  0  0
 18104  1  0  0  0  0
 19 20  1  0  0  0  0
 19105  1  0  0  0  0
 20 21  1  0  0  0  0
 20106  1  0  0  0  0
 20107  1  0  0  0  0
 21 22  2  0  0  0  0
 21 23  1  0  0  0  0
 23 24  1  0  0  0  0
 23108  1  0  0  0  0
 24 25  1  0  0  0  0
 24 27  1  0  0  0  0
 24109  1  1  0  0  0
 25 26  2  0  0  0  0
 25 31  1  0  0  0  0
 27 28  1  0  0  0  0
 27110  1  0  0  0  0
 27111  1  0  0  0  0
 28 29  2  0  0  0  0
 28 30  1  0  0  0  0
 30112  1  0  0  0  0
 30113  1  0  0  0  0
 31 32  1  0  0  0  0
 31114  1  0  0  0  0
 32 33  1  0  0  0  0
 32 34  1  0  0  0  0
 32115  1  6  0  0  0
 33 41  1  0  0  0  0
 33116  1  0  0  0  0
 33117  1  0  0  0  0
 34 35  1  0  0  0  0
 34118  1  0  0  0  0
 34119  1  0  0  0  0
 35 36  2  0  0  0  0
 35 37  1  0  0  0  0
 36 38  1  0  0  0  0
 36120  1  0  0  0  0
 37 39  2  0  0  0  0
 37121  1  0  0  0  0
 38 40  2  0  0  0  0
 38122  1  0  0  0  0
 39 40  1  0  0  0  0
 39123  1  0  0  0  0
 40124  1  0  0  0  0
 41 42  1  0  0  0  0
 41125  1  0  0  0  0
 41126  1  0  0  0  0
 42 43  1  0  0  0  0
 42 45  1  0  0  0  0
 42127  1  1  0  0  0
 43 44  2  0  0  0  0
 43 49  1  0  0  0  0
 45 46  1  0  0  0  0
 45128  1  0  0  0  0
 45129  1  0  0  0  0
 46 47  1  0  0  0  0
 46 48  1  0  0  0  0
 46130  1  0  0  0  0
 47131  1  0  0  0  0
 47132  1  0  0  0  0
 47133  1  0  0  0  0
 48134  1  0  0  0  0
 48135  1  0  0  0  0
 48136  1  0  0  0  0
 49 50  1  0  0  0  0
 49137  1  0  0  0  0
 50 51  1  0  0  0  0
 50 53  1  0  0  0  0
 50138  1  6  0  0  0
 51 52  2  0  0  0  0
 51 58  1  0  0  0  0
 53 54  1  0  0  0  0
 53139  1  0  0  0  0
 53140  1  0  0  0  0
 54 55  1  0  0  0  0
 54141  1  0  0  0  0
 54142  1  0  0  0  0
 55 56  2  0  0  0  0
 55 57  1  0  0  0  0
 57143  1  0  0  0  0
 57144  1  0  0  0  0
 58 59  1  0  0  0  0
 58145  1  0  0  0  0
 59 60  1  0  0  0  0
 59 62  1  0  0  0  0
 59146  1  1  0  0  0
 60 61  2  0  0  0  0
 60 64  1  0  0  0  0
 62 63  1  0  0  0  0
 62147  1  0  0  0  0
 62148  1  0  0  0  0
 63149  1  0  0  0  0
 64 65  1  0  0  0  0
 64150  1  0  0  0  0
 65 66  1  0  0  0  0
 65 68  1  0  0  0  0
 65151  1  1  0  0  0
 66 67  2  0  0  0  0
 66 75  1  0  0  0  0
 68 69  1  0  0  0  0
 68152  1  0  0  0  0
 68153  1  0  0  0  0
 69 70  1  0  0  0  0
 69154  1  0  0  0  0
 69155  1  0  0  0  0
 70 71  1  0  0  0  0
 70156  1  0  0  0  0
 70157  1  0  0  0  0
 71 72  1  0  0  0  0
 71158  1  0  0  0  0
 72 73  1  0  0  0  0
 72 74  1  0  0  0  0
 73159  1  0  0  0  0
 73160  1  0  0  0  0
 74161  1  0  0  0  0
 74162  1  0  0  0  0
 75 76  1  0  0  0  0
 75 81  1  0  0  0  0
 76 77  1  0  0  0  0
 76 79  1  0  0  0  0
 76163  1  6  0  0  0
 77 78  2  0  0  0  0
 77 82  1  0  0  0  0
 79 80  1  0  0  0  0
 79164  1  0  0  0  0
 79165  1  0  0  0  0
 80 81  1  0  0  0  0
 80166  1  0  0  0  0
 80167  1  0  0  0  0
 81168  1  0  0  0  0
 81169  1  0  0  0  0
 82170  1  0  0  0  0
 82171  1  0  0  0  0
M  CHG  2   1   1  41   1
M  END
