2aox_ligand
 OpenBabel08222323343D

 29 31  0  0  0  0  0  0  0  0999 V2000
   51.8020   -5.6770   30.6340 C   0  0  0  0  0  0  0  0  0  0  0  0
   51.6420   -7.1800   31.2170 C   0  0  0  0  0  0  0  0  0  0  0  0
   52.0990   -8.2670   30.2830 C   0  0  0  0  0  0  0  0  0  0  0  0
   52.8870   -7.9830   29.0650 C   0  0  0  0  0  0  0  0  0  0  0  0
   53.2950   -6.5630   28.6640 C   0  0  0  0  0  0  0  0  0  0  0  0
   52.9660   -5.3990   29.6420 C   0  0  0  0  0  0  0  0  0  0  0  0
   51.7520   -9.5340   30.6130 N   0  0  0  0  0  0  0  0  0  0  0  0
   52.1910  -10.7210   29.7860 C   0  0  0  0  0  0  0  0  0  0  0  0
   52.9800  -10.4410   28.5340 C   0  0  0  0  0  0  0  0  0  0  0  0
   53.3020   -9.0660   28.1970 C   0  0  0  0  0  0  0  0  0  0  0  0
   51.8670  -12.1120   30.1510 C   0  0  0  0  0  0  0  0  0  0  0  0
   52.3090  -13.1960   29.3010 C   0  0  0  0  0  0  0  0  0  0  0  0
   53.0730  -12.8760   28.0910 C   0  0  0  0  0  0  0  0  0  0  0  0
   53.4090  -11.5310   27.7040 C   0  0  0  0  0  0  0  0  0  0  0  0
   54.0600   -8.7480   26.9680 N   0  0  0  0  0  0  0  0  0  0  0  0
   51.9380   -5.0052   31.4943 H   0  0  0  0  0  0  0  0  0  0  0  0
   50.8644   -5.4252   30.1168 H   0  0  0  0  0  0  0  0  0  0  0  0
   50.5791   -7.3481   31.4447 H   0  0  0  0  0  0  0  0  0  0  0  0
   52.2314   -7.2533   32.1428 H   0  0  0  0  0  0  0  0  0  0  0  0
   52.7964   -6.3377   27.7097 H   0  0  0  0  0  0  0  0  0  0  0  0
   54.3850   -6.5664   28.5163 H   0  0  0  0  0  0  0  0  0  0  0  0
   53.8701   -5.1829   30.2301 H   0  0  0  0  0  0  0  0  0  0  0  0
   52.6988   -4.5162   29.0426 H   0  0  0  0  0  0  0  0  0  0  0  0
   51.3007  -12.3215   31.0513 H   0  0  0  0  0  0  0  0  0  0  0  0
   52.0798  -14.2249   29.5537 H   0  0  0  0  0  0  0  0  0  0  0  0
   53.4007  -13.6921   27.4572 H   0  0  0  0  0  0  0  0  0  0  0  0
   53.9771  -11.3440   26.7999 H   0  0  0  0  0  0  0  0  0  0  0  0
   54.2827   -7.7687   26.7392 H   0  0  0  0  0  0  0  0  0  0  0  0
   54.3653   -9.5057   26.3407 H   0  0  0  0  0  0  0  0  0  0  0  0
  1  2  1  0  0  0  0
  1  6  1  0  0  0  0
  1 16  1  0  0  0  0
  1 17  1  0  0  0  0
  2  3  1  0  0  0  0
  2 18  1  0  0  0  0
  2 19  1  0  0  0  0
  3  4  2  0  0  0  0
  3  7  1  0  0  0  0
  4  5  1  0  0  0  0
  4 10  1  0  0  0  0
  5  6  1  0  0  0  0
  5 20  1  0  0  0  0
  5 21  1  0  0  0  0
  6 22  1  0  0  0  0
  6 23  1  0  0  0  0
  7  8  2  0  0  0  0
  8  9  1  0  0  0  0
  8 11  1  0  0  0  0
  9 10  2  0  0  0  0
  9 14  1  0  0  0  0
 10 15  1  0  0  0  0
 11 12  2  0  0  0  0
 11 24  1  0  0  0  0
 12 13  1  0  0  0  0
 12 25  1  0  0  0  0
 13 14  2  0  0  0  0
 13 26  1  0  0  0  0
 14 27  1  0  0  0  0
 15 28  1  0  0  0  0
 15 29  1  0  0  0  0
M  END
