2ate_ligand
 OpenBabel08222323343D

 33 34  0  0  1  0  0  0  0  0999 V2000
   16.2770  -12.9410   -9.1810 O   0  0  0  0  0  1  0  0  0  0  0  0
   15.6010  -11.6670   -9.5890 P   0  0  0  0  0  0  0  0  0  0  0  0
   14.5900  -11.1600   -8.6160 O   0  0  0  0  0  1  0  0  0  0  0  0
   16.5360  -10.5850  -10.0750 O   0  0  0  0  0  0  0  0  0  0  0  0
   14.7810  -12.1400  -10.9050 O   0  0  0  0  0  0  0  0  0  0  0  0
   14.0440  -11.1490  -11.5930 C   0  0  0  0  0  0  0  0  0  0  0  0
   13.3480  -11.7800  -12.7670 C   0  0  2  0  0  0  0  0  0  0  0  0
   12.5380  -13.0770  -12.5060 C   0  0  1  0  0  0  0  0  0  0  0  0
   11.1500  -12.8610  -12.8190 O   0  0  0  0  0  0  0  0  0  0  0  0
   13.2140  -14.0920  -13.4400 C   0  0  1  0  0  0  0  0  0  0  0  0
   12.3060  -15.0670  -14.0600 O   0  0  0  0  0  0  0  0  0  0  0  0
   14.4050  -12.0710  -13.7150 O   0  0  0  0  0  0  0  0  0  0  0  0
   13.9730  -13.1750  -14.4620 C   0  0  1  0  0  0  0  0  0  0  0  0
   14.8740  -14.0730  -15.1540 N   0  0  0  0  0  0  0  0  0  0  0  0
   14.7770  -14.2880  -16.4840 C   0  0  0  0  0  0  0  0  0  0  0  0
   13.9150  -13.6410  -17.3160 N   0  0  0  0  0  0  0  0  0  0  0  0
   15.5890  -15.3600  -16.7720 C   0  0  0  0  0  0  0  0  0  0  0  0
   15.7740  -15.9710  -17.9580 N   0  0  0  0  0  0  0  0  0  0  0  0
   14.9890  -15.7490  -18.9130 O   0  0  0  0  0  0  0  0  0  0  0  0
   16.4850  -17.0040  -17.9670 O   0  0  0  0  0  0  0  0  0  0  0  0
   16.2440  -15.7410  -15.6520 N   0  0  0  0  0  0  0  0  0  0  0  0
   15.7600  -14.9580  -14.6630 C   0  0  0  0  0  0  0  0  0  0  0  0
   14.7263  -10.3628  -11.9484 H   0  0  0  0  0  0  0  0  0  0  0  0
   13.2977  -10.7083  -10.9157 H   0  0  0  0  0  0  0  0  0  0  0  0
   12.6553  -11.0395  -13.1934 H   0  0  0  0  0  0  0  0  0  0  0  0
   12.6264  -13.3977  -11.4575 H   0  0  0  0  0  0  0  0  0  0  0  0
   10.6619  -13.6596  -12.6564 H   0  0  0  0  0  0  0  0  0  0  0  0
   13.9504  -14.6703  -12.8627 H   0  0  0  0  0  0  0  0  0  0  0  0
   11.8710  -15.5691  -13.3811 H   0  0  0  0  0  0  0  0  0  0  0  0
   13.2756  -12.7857  -15.2183 H   0  0  0  0  0  0  0  0  0  0  0  0
   13.9042  -13.8645  -18.3214 H   0  0  0  0  0  0  0  0  0  0  0  0
   13.2737  -12.9281  -16.9400 H   0  0  0  0  0  0  0  0  0  0  0  0
   16.0470  -15.0329  -13.6152 H   0  0  0  0  0  0  0  0  0  0  0  0
  1  2  1  0  0  0  0
  2  3  1  0  0  0  0
  2  4  2  0  0  0  0
  2  5  1  0  0  0  0
  5  6  1  0  0  0  0
  6  7  1  0  0  0  0
  6 23  1  0  0  0  0
  6 24  1  0  0  0  0
  7  8  1  0  0  0  0
  7 12  1  0  0  0  0
  7 25  1  6  0  0  0
  8  9  1  0  0  0  0
  8 10  1  0  0  0  0
  8 26  1  1  0  0  0
  9 27  1  0  0  0  0
 10 11  1  0  0  0  0
 10 13  1  0  0  0  0
 10 28  1  1  0  0  0
 11 29  1  0  0  0  0
 12 13  1  0  0  0  0
 13 14  1  0  0  0  0
 13 30  1  6  0  0  0
 14 15  1  0  0  0  0
 14 22  1  0  0  0  0
 15 16  1  0  0  0  0
 15 17  2  0  0  0  0
 16 31  1  0  0  0  0
 16 32  1  0  0  0  0
 17 18  1  0  0  0  0
 17 21  1  0  0  0  0
 18 19  2  0  0  0  0
 18 20  2  0  0  0  0
 21 22  2  0  0  0  0
 22 33  1  0  0  0  0
M  END
