2ath_ligand
 OpenBabel08222323343D

 56 59  0  0  0  0  0  0  0  0999 V2000
   19.9500    4.7520   34.7340 C   0  0  0  0  0  0  0  0  0  0  0  0
   19.5250    5.1610   36.1450 C   0  0  0  0  0  0  0  0  0  0  0  0
   19.2060    3.9110   36.9630 C   0  0  0  0  0  0  0  0  0  0  0  0
   18.8240    4.2420   38.4090 C   0  0  0  0  0  0  0  0  0  0  0  0
   19.7340    4.8190   39.2830 C   0  0  0  0  0  0  0  0  0  0  0  0
   21.0140    5.2580   39.0810 O   0  0  0  0  0  0  0  0  0  0  0  0
   21.4900    5.7870   40.2970 N   0  0  0  0  0  0  0  0  0  0  0  0
   20.5160    5.6660   41.1970 C   0  0  0  0  0  0  0  0  0  0  0  0
   20.6280    6.2230   42.6220 C   0  0  0  0  0  0  0  0  0  0  0  0
   19.8670    7.3010   42.7830 F   0  0  0  0  0  0  0  0  0  0  0  0
   20.2740    5.3290   43.5380 F   0  0  0  0  0  0  0  0  0  0  0  0
   21.8910    6.5720   42.8310 F   0  0  0  0  0  0  0  0  0  0  0  0
   19.4120    5.0610   40.6150 C   0  0  0  0  0  0  0  0  0  0  0  0
   18.1500    4.7190   41.0940 C   0  0  0  0  0  0  0  0  0  0  0  0
   17.2290    4.1420   40.2290 C   0  0  0  0  0  0  0  0  0  0  0  0
   17.5610    3.9050   38.8960 C   0  0  0  0  0  0  0  0  0  0  0  0
   16.7140    3.2810   38.0320 O   0  0  0  0  0  0  0  0  0  0  0  0
   15.3060    3.4540   38.2640 C   0  0  0  0  0  0  0  0  0  0  0  0
   14.7290    3.9750   36.9490 C   0  0  0  0  0  0  0  0  0  0  0  0
   15.5860    5.1860   36.5800 C   0  0  0  0  0  0  0  0  0  0  0  0
   14.9770    5.9190   35.5100 O   0  0  0  0  0  0  0  0  0  0  0  0
   15.7240    7.0070   35.1860 C   0  0  0  0  0  0  0  0  0  0  0  0
   15.4160    8.2440   35.7500 C   0  0  0  0  0  0  0  0  0  0  0  0
   16.7160    6.8900   34.2170 C   0  0  0  0  0  0  0  0  0  0  0  0
   17.4090    8.0220   33.7950 C   0  0  0  0  0  0  0  0  0  0  0  0
   17.0930    9.2610   34.3440 C   0  0  0  0  0  0  0  0  0  0  0  0
   16.1000    9.3720   35.3180 C   0  0  0  0  0  0  0  0  0  0  0  0
   15.9850   10.6670   35.6070 C   0  0  0  0  0  0  0  0  0  0  0  0
   16.8470   11.3610   34.8680 C   0  0  0  0  0  0  0  0  0  0  0  0
   17.5220   10.4950   34.1120 N   0  0  0  0  0  0  0  0  0  0  0  0
   18.6800   10.8360   33.2710 C   0  0  0  0  0  0  0  0  0  0  0  0
   18.2610   10.8490   31.7970 C   0  0  0  0  0  0  0  0  0  0  0  0
   19.1670   10.6640   30.9570 O   0  5  0  0  0  0  0  0  0  0  0  0
   17.0520   11.0390   31.5420 O   0  0  0  0  0  0  0  0  0  0  0  0
   20.1797    5.6521   34.1449 H   0  0  0  0  0  0  0  0  0  0  0  0
   19.1324    4.1967   34.2512 H   0  0  0  0  0  0  0  0  0  0  0  0
   20.8436    4.1131   34.7909 H   0  0  0  0  0  0  0  0  0  0  0  0
   18.6314    5.7999   36.0881 H   0  0  0  0  0  0  0  0  0  0  0  0
   20.3426    5.7163   36.6278 H   0  0  0  0  0  0  0  0  0  0  0  0
   20.0918    3.2589   36.9720 H   0  0  0  0  0  0  0  0  0  0  0  0
   18.3664    3.3825   36.4879 H   0  0  0  0  0  0  0  0  0  0  0  0
   17.8893    4.9010   42.1303 H   0  0  0  0  0  0  0  0  0  0  0  0
   16.2440    3.8738   40.5935 H   0  0  0  0  0  0  0  0  0  0  0  0
   15.1373    4.1818   39.0714 H   0  0  0  0  0  0  0  0  0  0  0  0
   14.8411    2.4939   38.5326 H   0  0  0  0  0  0  0  0  0  0  0  0
   13.6785    4.2732   37.0812 H   0  0  0  0  0  0  0  0  0  0  0  0
   14.7958    3.2040   36.1673 H   0  0  0  0  0  0  0  0  0  0  0  0
   16.5821    4.8428   36.2638 H   0  0  0  0  0  0  0  0  0  0  0  0
   15.6855    5.8412   37.4580 H   0  0  0  0  0  0  0  0  0  0  0  0
   14.6527    8.3240   36.5155 H   0  0  0  0  0  0  0  0  0  0  0  0
   16.9487    5.9204   33.7918 H   0  0  0  0  0  0  0  0  0  0  0  0
   18.1877    7.9386   33.0455 H   0  0  0  0  0  0  0  0  0  0  0  0
   15.2940   11.0913   36.3339 H   0  0  0  0  0  0  0  0  0  0  0  0
   16.9776   12.4421   34.8789 H   0  0  0  0  0  0  0  0  0  0  0  0
   19.4727   10.0879   33.4193 H   0  0  0  0  0  0  0  0  0  0  0  0
   19.0567   11.8303   33.5529 H   0  0  0  0  0  0  0  0  0  0  0  0
  1  2  1  0  0  0  0
  1 35  1  0  0  0  0
  1 36  1  0  0  0  0
  1 37  1  0  0  0  0
  2  3  1  0  0  0  0
  2 38  1  0  0  0  0
  2 39  1  0  0  0  0
  3  4  1  0  0  0  0
  3 40  1  0  0  0  0
  3 41  1  0  0  0  0
  4  5  2  0  0  0  0
  4 16  1  0  0  0  0
  5  6  1  0  0  0  0
  5 13  1  0  0  0  0
  6  7  1  0  0  0  0
  7  8  2  0  0  0  0
  8  9  1  0  0  0  0
  8 13  1  0  0  0  0
  9 10  1  0  0  0  0
  9 11  1  0  0  0  0
  9 12  1  0  0  0  0
 13 14  2  0  0  0  0
 14 15  1  0  0  0  0
 14 42  1  0  0  0  0
 15 16  2  0  0  0  0
 15 43  1  0  0  0  0
 16 17  1  0  0  0  0
 17 18  1  0  0  0  0
 18 19  1  0  0  0  0
 18 44  1  0  0  0  0
 18 45  1  0  0  0  0
 19 20  1  0  0  0  0
 19 46  1  0  0  0  0
 19 47  1  0  0  0  0
 20 21  1  0  0  0  0
 20 48  1  0  0  0  0
 20 49  1  0  0  0  0
 21 22  1  0  0  0  0
 22 23  2  0  0  0  0
 22 24  1  0  0  0  0
 23 27  1  0  0  0  0
 23 50  1  0  0  0  0
 24 25  2  0  0  0  0
 24 51  1  0  0  0  0
 25 26  1  0  0  0  0
 25 52  1  0  0  0  0
 26 27  2  0  0  0  0
 26 30  1  0  0  0  0
 27 28  1  0  0  0  0
 28 29  2  0  0  0  0
 28 53  1  0  0  0  0
 29 30  1  0  0  0  0
 29 54  1  0  0  0  0
 30 31  1  0  0  0  0
 31 32  1  0  0  0  0
 31 55  1  0  0  0  0
 31 56  1  0  0  0  0
 32 33  1  0  0  0  0
 32 34  2  0  0  0  0
M  CHG  1  33  -1
M  END
