2axi_ligand
 OpenBabel08222323343D

 28 28  0  0  0  0  0  0  0  0999 V2000
   12.1600   -1.6760    8.0270 S   0  0  0  0  0  0  0  0  0  0  0  0
   13.6000   -1.9860    7.9940 O   0  0  0  0  0  1  0  0  0  0  0  0
   11.5960   -1.7730    9.4150 O   0  0  0  0  0  1  0  0  0  0  0  0
   12.4490   -4.2800    1.2060 O   0  0  0  0  0  0  0  0  0  0  0  0
   13.1450   -3.2960    3.7400 N   0  3  0  0  0  0  0  0  0  0  0  0
   11.2940   -2.9410    7.0090 C   0  0  0  0  0  0  0  0  0  0  0  0
   11.9150   -0.3410    7.4610 O   0  0  0  0  0  1  0  0  0  0  0  0
   11.5660   -2.5730    5.5400 C   0  0  0  0  0  0  0  0  0  0  0  0
   12.9640   -2.9840    5.2100 C   0  0  0  0  0  0  0  0  0  0  0  0
   12.2720   -2.4730    2.8080 C   0  0  0  0  0  0  0  0  0  0  0  0
   12.6760   -2.9110    1.4050 C   0  0  0  0  0  0  0  0  0  0  0  0
   13.1620   -5.1340    2.1060 C   0  0  0  0  0  0  0  0  0  0  0  0
   12.7530   -4.7400    3.5160 C   0  0  0  0  0  0  0  0  0  0  0  0
   14.1126   -3.1530    3.4963 H   0  0  0  0  0  0  0  0  0  0  0  0
   10.2133   -2.9196    7.2132 H   0  0  0  0  0  0  0  0  0  0  0  0
   11.6892   -3.9435    7.2299 H   0  0  0  0  0  0  0  0  0  0  0  0
   11.4537   -1.4877    5.4005 H   0  0  0  0  0  0  0  0  0  0  0  0
   10.8575   -3.1021    4.8857 H   0  0  0  0  0  0  0  0  0  0  0  0
   13.6461   -2.1655    5.4835 H   0  0  0  0  0  0  0  0  0  0  0  0
   13.2151   -3.8813    5.7946 H   0  0  0  0  0  0  0  0  0  0  0  0
   12.4618   -1.3986    2.9478 H   0  0  0  0  0  0  0  0  0  0  0  0
   11.2075   -2.6838    2.9879 H   0  0  0  0  0  0  0  0  0  0  0  0
   12.0883   -2.3412    0.6702 H   0  0  0  0  0  0  0  0  0  0  0  0
   13.7462   -2.7019    1.2602 H   0  0  0  0  0  0  0  0  0  0  0  0
   14.2458   -4.9982    1.9759 H   0  0  0  0  0  0  0  0  0  0  0  0
   12.8988   -6.1851    1.9168 H   0  0  0  0  0  0  0  0  0  0  0  0
   11.6649   -4.8521    3.6323 H   0  0  0  0  0  0  0  0  0  0  0  0
   13.2679   -5.3824    4.2455 H   0  0  0  0  0  0  0  0  0  0  0  0
  1  2  1  0  0  0  0
  1  3  1  0  0  0  0
  1  7  1  0  0  0  0
  4 12  1  0  0  0  0
  5  9  1  0  0  0  0
  5 13  1  0  0  0  0
  5 14  1  0  0  0  0
  6  1  1  0  0  0  0
  6 15  1  0  0  0  0
  6 16  1  0  0  0  0
  8  6  1  0  0  0  0
  8 17  1  0  0  0  0
  8 18  1  0  0  0  0
  9  8  1  0  0  0  0
  9 19  1  0  0  0  0
  9 20  1  0  0  0  0
 10  5  1  0  0  0  0
 10 11  1  0  0  0  0
 10 21  1  0  0  0  0
 10 22  1  0  0  0  0
 11  4  1  0  0  0  0
 11 23  1  0  0  0  0
 11 24  1  0  0  0  0
 12 13  1  0  0  0  0
 12 25  1  0  0  0  0
 12 26  1  0  0  0  0
 13 27  1  0  0  0  0
 13 28  1  0  0  0  0
M  CHG  1   5   1
M  END
