2ay2_ligand
 OpenBabel08222323343D

 26 26  0  0  0  0  0  0  0  0999 V2000
  101.0710   44.8070   11.6360 C   0  0  0  0  0  0  0  0  0  0  0  0
   99.9520   45.4070   12.4900 C   0  0  0  0  0  0  0  0  0  0  0  0
   99.1340   44.3550   13.2350 C   0  0  0  0  0  0  0  0  0  0  0  0
   98.5830   43.3040   12.2700 C   0  0  0  0  0  0  0  0  0  0  0  0
   99.7010   42.6700   11.4360 C   0  0  0  0  0  0  0  0  0  0  0  0
  100.4930   43.7440   10.7020 C   0  0  0  0  0  0  0  0  0  0  0  0
  101.9090   45.8550   10.8950 C   0  0  0  0  0  0  0  0  0  0  0  0
  103.1460   46.3530   11.6580 C   0  0  0  0  0  0  0  0  0  0  0  0
  102.8110   47.1200   12.9290 C   0  0  0  0  0  0  0  0  0  0  0  0
  102.1190   48.1570   12.8460 O   0  5  0  0  0  0  0  0  0  0  0  0
  103.2200   46.6910   14.0230 O   0  0  0  0  0  0  0  0  0  0  0  0
  101.7579   44.2930   12.3244 H   0  0  0  0  0  0  0  0  0  0  0  0
   99.2764   45.9741   11.8328 H   0  0  0  0  0  0  0  0  0  0  0  0
  100.4020   46.0872   13.2282 H   0  0  0  0  0  0  0  0  0  0  0  0
   98.2946   44.8483   13.7470 H   0  0  0  0  0  0  0  0  0  0  0  0
   99.7765   43.8595   13.9778 H   0  0  0  0  0  0  0  0  0  0  0  0
   97.8599   43.7832   11.5937 H   0  0  0  0  0  0  0  0  0  0  0  0
   98.0778   42.5167   12.8487 H   0  0  0  0  0  0  0  0  0  0  0  0
   99.2586   41.9810   10.7015 H   0  0  0  0  0  0  0  0  0  0  0  0
  100.3771   42.1125   12.1009 H   0  0  0  0  0  0  0  0  0  0  0  0
  101.3228   43.2613   10.1650 H   0  0  0  0  0  0  0  0  0  0  0  0
   99.8266   44.2379    9.9795 H   0  0  0  0  0  0  0  0  0  0  0  0
  101.2649   46.7218   10.6860 H   0  0  0  0  0  0  0  0  0  0  0  0
  102.2480   45.4129    9.9465 H   0  0  0  0  0  0  0  0  0  0  0  0
  103.7208   47.0151   10.9938 H   0  0  0  0  0  0  0  0  0  0  0  0
  103.7609   45.4822   11.9294 H   0  0  0  0  0  0  0  0  0  0  0  0
  1  2  1  0  0  0  0
  1  6  1  0  0  0  0
  1  7  1  0  0  0  0
  1 12  1  0  0  0  0
  2  3  1  0  0  0  0
  2 13  1  0  0  0  0
  2 14  1  0  0  0  0
  3  4  1  0  0  0  0
  3 15  1  0  0  0  0
  3 16  1  0  0  0  0
  4  5  1  0  0  0  0
  4 17  1  0  0  0  0
  4 18  1  0  0  0  0
  5  6  1  0  0  0  0
  5 19  1  0  0  0  0
  5 20  1  0  0  0  0
  6 21  1  0  0  0  0
  6 22  1  0  0  0  0
  7  8  1  0  0  0  0
  7 23  1  0  0  0  0
  7 24  1  0  0  0  0
  8  9  1  0  0  0  0
  8 25  1  0  0  0  0
  8 26  1  0  0  0  0
  9 10  1  0  0  0  0
  9 11  2  0  0  0  0
M  CHG  1  10  -1
M  END
