2ay6_ligand
 OpenBabel08222323343D

 27 28  0  0  0  0  0  0  0  0999 V2000
  100.4040   42.3310   10.8140 N   0  0  0  0  0  0  0  0  0  0  0  0
  100.9530   43.4760   10.2900 C   0  0  0  0  0  0  0  0  0  0  0  0
  100.5870   44.5620   11.0390 C   0  0  0  0  0  0  0  0  0  0  0  0
   99.0940   44.6580   13.1670 C   0  0  0  0  0  0  0  0  0  0  0  0
   98.3690   43.8550   14.0220 C   0  0  0  0  0  0  0  0  0  0  0  0
   98.2950   42.4640   13.8310 C   0  0  0  0  0  0  0  0  0  0  0  0
   98.9370   41.8500   12.7870 C   0  0  0  0  0  0  0  0  0  0  0  0
   99.6700   42.6600   11.9230 C   0  0  0  0  0  0  0  0  0  0  0  0
   99.7620   44.0590   12.0920 C   0  0  0  0  0  0  0  0  0  0  0  0
  100.9800   45.9940   10.8120 C   0  0  0  0  0  0  0  0  0  0  0  0
  102.4890   46.2260   10.7960 C   0  0  0  0  0  0  0  0  0  0  0  0
  103.1290   46.0350   12.1730 C   0  0  0  0  0  0  0  0  0  0  0  0
  102.7800   47.1430   13.1550 C   0  0  0  0  0  0  0  0  0  0  0  0
  103.0070   46.9670   14.3710 O   0  5  0  0  0  0  0  0  0  0  0  0
  102.2670   48.1950   12.7220 O   0  0  0  0  0  0  0  0  0  0  0  0
  100.5245   41.3808   10.4352 H   0  0  0  0  0  0  0  0  0  0  0  0
  101.5879   43.5144    9.4061 H   0  0  0  0  0  0  0  0  0  0  0  0
   99.1457   45.7294   13.3236 H   0  0  0  0  0  0  0  0  0  0  0  0
   97.8458   44.3051   14.8579 H   0  0  0  0  0  0  0  0  0  0  0  0
   97.7174   41.8638   14.5247 H   0  0  0  0  0  0  0  0  0  0  0  0
   98.8766   40.7777   12.6399 H   0  0  0  0  0  0  0  0  0  0  0  0
  100.5442   46.6045   11.6166 H   0  0  0  0  0  0  0  0  0  0  0  0
  100.5697   46.3165    9.8437 H   0  0  0  0  0  0  0  0  0  0  0  0
  102.6837   47.2541   10.4567 H   0  0  0  0  0  0  0  0  0  0  0  0
  102.9473   45.5148   10.0930 H   0  0  0  0  0  0  0  0  0  0  0  0
  104.2218   46.0084   12.0500 H   0  0  0  0  0  0  0  0  0  0  0  0
  102.7834   45.0773   12.5893 H   0  0  0  0  0  0  0  0  0  0  0  0
  1  8  1  0  0  0  0
  1 16  1  0  0  0  0
  2  1  1  0  0  0  0
  2 17  1  0  0  0  0
  3  2  2  0  0  0  0
  3 10  1  0  0  0  0
  4  5  2  0  0  0  0
  4  9  1  0  0  0  0
  4 18  1  0  0  0  0
  5  6  1  0  0  0  0
  5 19  1  0  0  0  0
  6  7  2  0  0  0  0
  6 20  1  0  0  0  0
  7  8  1  0  0  0  0
  7 21  1  0  0  0  0
  8  9  2  0  0  0  0
  9  3  1  0  0  0  0
 10 11  1  0  0  0  0
 10 22  1  0  0  0  0
 10 23  1  0  0  0  0
 11 12  1  0  0  0  0
 11 24  1  0  0  0  0
 11 25  1  0  0  0  0
 12 13  1  0  0  0  0
 12 26  1  0  0  0  0
 12 27  1  0  0  0  0
 13 14  1  0  0  0  0
 13 15  2  0  0  0  0
M  CHG  1  14  -1
M  END
