2ay8_ligand
 OpenBabel08222323343D

 20 20  0  0  0  0  0  0  0  0999 V2000
   94.3950   19.8500   -0.8210 S   0  0  0  0  0  0  0  0  0  0  0  0
   94.1950   18.5030   -1.9270 C   0  0  0  0  0  0  0  0  0  0  0  0
   95.1230   17.5370   -1.7350 C   0  0  0  0  0  0  0  0  0  0  0  0
   96.0490   17.8650   -0.6510 C   0  0  0  0  0  0  0  0  0  0  0  0
   95.7790   19.0540   -0.0830 C   0  0  0  0  0  0  0  0  0  0  0  0
   93.0680   18.5040   -2.9150 C   0  0  0  0  0  0  0  0  0  0  0  0
   93.1720   17.3870   -3.9370 C   0  0  0  0  0  0  0  0  0  0  0  0
   91.8120   16.8080   -4.2700 C   0  0  0  0  0  0  0  0  0  0  0  0
   91.7940   15.3020   -4.1330 C   0  0  0  0  0  0  0  0  0  0  0  0
   91.2010   14.7960   -3.1620 O   0  5  0  0  0  0  0  0  0  0  0  0
   92.4100   14.6140   -4.9680 O   0  0  0  0  0  0  0  0  0  0  0  0
   95.1746   16.6202   -2.3205 H   0  0  0  0  0  0  0  0  0  0  0  0
   96.8670   17.2177   -0.3383 H   0  0  0  0  0  0  0  0  0  0  0  0
   96.3526   19.4762    0.7408 H   0  0  0  0  0  0  0  0  0  0  0  0
   93.0696   19.4667   -3.4471 H   0  0  0  0  0  0  0  0  0  0  0  0
   92.1214   18.3897   -2.3665 H   0  0  0  0  0  0  0  0  0  0  0  0
   93.8099   16.5887   -3.5298 H   0  0  0  0  0  0  0  0  0  0  0  0
   93.6253   17.7855   -4.8566 H   0  0  0  0  0  0  0  0  0  0  0  0
   91.5556   17.0743   -5.3060 H   0  0  0  0  0  0  0  0  0  0  0  0
   91.0652   17.2367   -3.5856 H   0  0  0  0  0  0  0  0  0  0  0  0
  1  2  1  0  0  0  0
  1  5  1  0  0  0  0
  2  3  2  0  0  0  0
  2  6  1  0  0  0  0
  3  4  1  0  0  0  0
  3 12  1  0  0  0  0
  4  5  2  0  0  0  0
  4 13  1  0  0  0  0
  5 14  1  0  0  0  0
  6  7  1  0  0  0  0
  6 15  1  0  0  0  0
  6 16  1  0  0  0  0
  7  8  1  0  0  0  0
  7 17  1  0  0  0  0
  7 18  1  0  0  0  0
  8  9  1  0  0  0  0
  8 19  1  0  0  0  0
  8 20  1  0  0  0  0
  9 10  1  0  0  0  0
  9 11  2  0  0  0  0
M  CHG  1  10  -1
M  END
