2ay9_ligand
 OpenBabel08222323343D

 26 26  0  0  0  0  0  0  0  0999 V2000
   94.9910   18.5800   -1.6300 C   0  0  0  0  0  0  0  0  0  0  0  0
   94.1730   19.6790   -1.2980 C   0  0  0  0  0  0  0  0  0  0  0  0
   94.0930   20.1500    0.0020 C   0  0  0  0  0  0  0  0  0  0  0  0
   94.8250   19.5370    0.9950 C   0  0  0  0  0  0  0  0  0  0  0  0
   95.6520   18.4540    0.6830 C   0  0  0  0  0  0  0  0  0  0  0  0
   95.7290   17.9750   -0.6300 C   0  0  0  0  0  0  0  0  0  0  0  0
   95.0690   18.0720   -3.0400 C   0  0  0  0  0  0  0  0  0  0  0  0
   93.9580   17.1070   -3.4040 C   0  0  0  0  0  0  0  0  0  0  0  0
   92.5280   17.6700   -3.2480 C   0  0  0  0  0  0  0  0  0  0  0  0
   91.5320   16.8440   -4.0830 C   0  0  0  0  0  0  0  0  0  0  0  0
   91.6960   15.3390   -3.8720 C   0  0  0  0  0  0  0  0  0  0  0  0
   91.3100   14.8270   -2.8040 O   0  5  0  0  0  0  0  0  0  0  0  0
   92.2100   14.6570   -4.7770 O   0  0  0  0  0  0  0  0  0  0  0  0
   93.5951   20.1651   -2.0756 H   0  0  0  0  0  0  0  0  0  0  0  0
   93.4578   20.9964    0.2368 H   0  0  0  0  0  0  0  0  0  0  0  0
   94.7598   19.8938    2.0165 H   0  0  0  0  0  0  0  0  0  0  0  0
   96.2378   17.9818    1.4634 H   0  0  0  0  0  0  0  0  0  0  0  0
   96.3670   17.1301   -0.8625 H   0  0  0  0  0  0  0  0  0  0  0  0
   96.0323   17.5572   -3.1706 H   0  0  0  0  0  0  0  0  0  0  0  0
   95.0180   18.9332   -3.7224 H   0  0  0  0  0  0  0  0  0  0  0  0
   94.0489   16.2221   -2.7570 H   0  0  0  0  0  0  0  0  0  0  0  0
   94.0949   16.8092   -4.4540 H   0  0  0  0  0  0  0  0  0  0  0  0
   92.5102   18.7147   -3.5918 H   0  0  0  0  0  0  0  0  0  0  0  0
   92.2353   17.6276   -2.1885 H   0  0  0  0  0  0  0  0  0  0  0  0
   91.6919   17.0701   -5.1476 H   0  0  0  0  0  0  0  0  0  0  0  0
   90.5093   17.1306   -3.7968 H   0  0  0  0  0  0  0  0  0  0  0  0
  1  2  2  0  0  0  0
  1  6  1  0  0  0  0
  1  7  1  0  0  0  0
  2  3  1  0  0  0  0
  2 14  1  0  0  0  0
  3  4  2  0  0  0  0
  3 15  1  0  0  0  0
  4  5  1  0  0  0  0
  4 16  1  0  0  0  0
  5  6  2  0  0  0  0
  5 17  1  0  0  0  0
  6 18  1  0  0  0  0
  7  8  1  0  0  0  0
  7 19  1  0  0  0  0
  7 20  1  0  0  0  0
  8  9  1  0  0  0  0
  8 21  1  0  0  0  0
  8 22  1  0  0  0  0
  9 10  1  0  0  0  0
  9 23  1  0  0  0  0
  9 24  1  0  0  0  0
 10 11  1  0  0  0  0
 10 25  1  0  0  0  0
 10 26  1  0  0  0  0
 11 12  1  0  0  0  0
 11 13  2  0  0  0  0
M  CHG  1  12  -1
M  END
