2ayp_ligand
 OpenBabel08222323343D

 41 44  0  0  0  0  0  0  0  0999 V2000
   11.8800   -3.4810   15.0870 C   0  0  0  0  0  0  0  0  0  0  0  0
   11.1140   -2.2090   15.1650 C   0  0  0  0  0  0  0  0  0  0  0  0
    9.7490   -2.2520   15.7760 C   0  0  0  0  0  0  0  0  0  0  0  0
    9.1680   -3.4930   16.2880 C   0  0  0  0  0  0  0  0  0  0  0  0
    9.9650   -4.7120   16.1830 C   0  0  0  0  0  0  0  0  0  0  0  0
   11.2930   -4.7110   15.5960 C   0  0  0  0  0  0  0  0  0  0  0  0
   13.1580   -3.5130   14.5320 O   0  0  0  0  0  0  0  0  0  0  0  0
   11.7880   -1.0420   14.6300 O   0  0  0  0  0  0  0  0  0  0  0  0
   11.7100    0.2220   15.2860 C   0  0  0  0  0  0  0  0  0  0  0  0
    7.7800   -3.5120   16.9090 C   0  0  0  0  0  0  0  0  0  0  0  0
    7.3700   -2.4480   17.8560 C   0  0  0  0  0  0  0  0  0  0  0  0
    6.0340   -2.4760   18.4390 C   0  0  0  0  0  0  0  0  0  0  0  0
    5.1020   -3.5150   18.1210 C   0  0  0  0  0  0  0  0  0  0  0  0
    5.4640   -4.5820   17.1950 C   0  0  0  0  0  0  0  0  0  0  0  0
    6.8040   -4.5680   16.6000 C   0  0  0  0  0  0  0  0  0  0  0  0
    5.4650   -1.6090   19.3160 N   0  0  0  0  0  0  0  0  0  0  0  0
    4.1910   -1.9840   19.6200 C   0  0  0  0  0  0  0  0  0  0  0  0
    3.8210   -3.2850   18.8580 C   0  0  0  0  0  0  0  0  0  0  0  0
    3.4730   -1.3460   20.3940 O   0  0  0  0  0  0  0  0  0  0  0  0
    2.7120   -4.0880   18.7820 C   0  0  0  0  0  0  0  0  0  0  0  0
    1.3370   -3.7400   19.2330 C   0  0  0  0  0  0  0  0  0  0  0  0
    1.0230   -2.7190   19.7800 N   0  0  0  0  0  0  0  0  0  0  0  0
   -0.4070   -2.6860   20.0990 C   0  0  0  0  0  0  0  0  0  0  0  0
   -0.8870   -3.8410   19.6560 C   0  0  0  0  0  0  0  0  0  0  0  0
    0.2590   -4.5280   19.0890 C   0  0  0  0  0  0  0  0  0  0  0  0
    9.1732   -1.3359   15.8412 H   0  0  0  0  0  0  0  0  0  0  0  0
    9.5536   -5.6439   16.5537 H   0  0  0  0  0  0  0  0  0  0  0  0
   11.8533   -5.6370   15.5363 H   0  0  0  0  0  0  0  0  0  0  0  0
   13.1640   -4.1031   13.7875 H   0  0  0  0  0  0  0  0  0  0  0  0
   12.2880    0.9660   14.7182 H   0  0  0  0  0  0  0  0  0  0  0  0
   12.1231    0.1341   16.3017 H   0  0  0  0  0  0  0  0  0  0  0  0
   10.6588    0.5408   15.3440 H   0  0  0  0  0  0  0  0  0  0  0  0
    8.0602   -1.6529   18.1139 H   0  0  0  0  0  0  0  0  0  0  0  0
    4.7581   -5.3679   16.9520 H   0  0  0  0  0  0  0  0  0  0  0  0
    7.0833   -5.3585   15.9128 H   0  0  0  0  0  0  0  0  0  0  0  0
    5.9213   -0.8014   19.6896 H   0  0  0  0  0  0  0  0  0  0  0  0
    2.8510   -5.0776   18.3491 H   0  0  0  0  0  0  0  0  0  0  0  0
    1.6802   -1.9568   19.9991 H   0  0  0  0  0  0  0  0  0  0  0  0
   -0.9569   -1.8863   20.5929 H   0  0  0  0  0  0  0  0  0  0  0  0
   -1.9154   -4.1957   19.7067 H   0  0  0  0  0  0  0  0  0  0  0  0
    0.2468   -5.5136   18.6261 H   0  0  0  0  0  0  0  0  0  0  0  0
  1  2  2  0  0  0  0
  1  6  1  0  0  0  0
  1  7  1  0  0  0  0
  2  3  1  0  0  0  0
  2  8  1  0  0  0  0
  3  4  2  0  0  0  0
  3 26  1  0  0  0  0
  4  5  1  0  0  0  0
  4 10  1  0  0  0  0
  5  6  2  0  0  0  0
  5 27  1  0  0  0  0
  6 28  1  0  0  0  0
  7 29  1  0  0  0  0
  8  9  1  0  0  0  0
  9 30  1  0  0  0  0
  9 31  1  0  0  0  0
  9 32  1  0  0  0  0
 10 11  2  0  0  0  0
 10 15  1  0  0  0  0
 11 12  1  0  0  0  0
 11 33  1  0  0  0  0
 12 13  2  0  0  0  0
 12 16  1  0  0  0  0
 13 14  1  0  0  0  0
 13 18  1  0  0  0  0
 14 15  2  0  0  0  0
 14 34  1  0  0  0  0
 15 35  1  0  0  0  0
 16 17  1  0  0  0  0
 16 36  1  0  0  0  0
 17 18  1  0  0  0  0
 17 19  2  0  0  0  0
 18 20  2  0  0  0  0
 20 21  1  0  0  0  0
 20 37  1  0  0  0  0
 21 22  1  0  0  0  0
 21 25  2  0  0  0  0
 22 23  1  0  0  0  0
 22 38  1  0  0  0  0
 23 24  2  0  0  0  0
 23 39  1  0  0  0  0
 24 25  1  0  0  0  0
 24 40  1  0  0  0  0
 25 41  1  0  0  0  0
M  END
