2azm_ligand
 OpenBabel08222323343D

 80 80  0  0  1  0  0  0  0  0999 V2000
   38.9600   86.8870   98.7730 N   0  3  0  0  0  0  0  0  0  0  0  0
   40.1370   86.6910   97.8820 C   0  0  2  0  0  0  0  0  0  0  0  0
   40.1350   85.3090   97.2150 C   0  0  0  0  0  0  0  0  0  0  0  0
   39.5900   84.3310   97.7620 O   0  0  0  0  0  0  0  0  0  0  0  0
   41.4270   86.9080   98.6520 C   0  0  0  0  0  0  0  0  0  0  0  0
   40.7430   85.2430   96.0340 N   0  0  0  0  0  0  0  0  0  0  0  0
   40.8910   83.9940   95.2940 C   0  0  1  0  0  0  0  0  0  0  0  0
   41.5250   84.2450   93.9260 C   0  0  0  0  0  0  0  0  0  0  0  0
   40.6100   84.8830   93.0690 O   0  0  0  0  0  0  0  0  0  0  0  0
   41.7170   82.9620   96.0510 C   0  0  0  0  0  0  0  0  0  0  0  0
   42.8060   83.2470   96.5450 O   0  0  0  0  0  0  0  0  0  0  0  0
   41.3810   85.6860   91.9300 P   0  0  0  0  0  0  0  0  0  0  0  0
   42.3830   84.6970   91.1690 O   0  0  0  0  0  1  0  0  0  0  0  0
   42.2750   86.9160   92.4750 O   0  0  0  0  0  1  0  0  0  0  0  0
   40.2220   86.2500   90.9790 O   0  0  0  0  0  0  0  0  0  0  0  0
   41.1720   81.7580   96.1080 N   0  0  0  0  0  0  0  0  0  0  0  0
   41.7870   80.6420   96.7780 C   0  0  2  0  0  0  0  0  0  0  0  0
   43.1350   80.2600   96.1660 C   0  0  0  0  0  0  0  0  0  0  0  0
   43.2500   80.1080   94.9470 O   0  0  0  0  0  0  0  0  0  0  0  0
   40.8460   79.4520   96.6880 C   0  0  0  0  0  0  0  0  0  0  0  0
   41.2700   78.2970   97.5500 C   0  0  0  0  0  0  0  0  0  0  0  0
   40.4070   78.1640   98.7660 C   0  0  0  0  0  0  0  0  0  0  0  0
   39.1750   78.0460   98.6630 O   0  0  0  0  0  0  0  0  0  0  0  0
   41.0390   78.1740   99.9330 N   0  0  0  0  0  0  0  0  0  0  0  0
   44.1470   80.1200   97.0200 N   0  0  0  0  0  0  0  0  0  0  0  0
   45.4390   79.5580   96.6210 C   0  0  2  0  0  0  0  0  0  0  0  0
   45.4850   78.0850   96.9880 C   0  0  0  0  0  0  0  0  0  0  0  0
   44.9250   77.6770   98.0000 O   0  0  0  0  0  0  0  0  0  0  0  0
   46.5890   80.2860   97.2990 C   0  0  0  0  0  0  0  0  0  0  0  0
   46.6910   81.7400   96.9320 C   0  0  0  0  0  0  0  0  0  0  0  0
   47.9170   82.4050   97.5300 C   0  0  0  0  0  0  0  0  0  0  0  0
   49.0160   81.8010   97.4870 O   0  5  0  0  0  0  0  0  0  0  0  0
   47.7780   83.5430   98.0330 O   0  0  0  0  0  0  0  0  0  0  0  0
   46.1590   77.2880   96.1730 N   0  0  0  0  0  0  0  0  0  0  0  0
   46.1900   75.8450   96.4000 C   0  0  2  0  0  0  0  0  0  0  0  0
   47.5990   75.3020   96.6570 C   0  0  0  0  0  0  0  0  0  0  0  0
   47.7560   74.2000   97.1930 O   0  5  0  0  0  0  0  0  0  0  0  0
   45.4800   75.1060   95.2550 C   0  0  0  0  0  0  0  0  0  0  0  0
   44.0030   75.4420   95.1690 C   0  0  0  0  0  0  0  0  0  0  0  0
   43.5510   76.4840   94.3570 C   0  0  0  0  0  0  0  0  0  0  0  0
   43.0600   74.7400   95.9210 C   0  0  0  0  0  0  0  0  0  0  0  0
   42.1950   76.8050   94.2820 C   0  0  0  0  0  0  0  0  0  0  0  0
   41.7080   75.0480   95.8550 C   0  0  0  0  0  0  0  0  0  0  0  0
   41.2830   76.0740   95.0280 C   0  0  0  0  0  0  0  0  0  0  0  0
   39.9470   76.3920   94.9550 O   0  0  0  0  0  0  0  0  0  0  0  0
   48.6110   75.9410   96.3630 O   0  0  0  0  0  0  0  0  0  0  0  0
   39.0021   87.8045   99.1883 H   0  0  0  0  0  0  0  0  0  0  0  0
   38.9687   86.1886   99.4998 H   0  0  0  0  0  0  0  0  0  0  0  0
   38.1125   86.8007   98.2341 H   0  0  0  0  0  0  0  0  0  0  0  0
   40.0839   87.4475   97.0852 H   0  0  0  0  0  0  0  0  0  0  0  0
   42.2848   86.7595   97.9796 H   0  0  0  0  0  0  0  0  0  0  0  0
   41.4836   86.1892   99.4827 H   0  0  0  0  0  0  0  0  0  0  0  0
   41.4476   87.9326   99.0516 H   0  0  0  0  0  0  0  0  0  0  0  0
   41.1135   86.0828   95.6373 H   0  0  0  0  0  0  0  0  0  0  0  0
   39.8854   83.5763   95.1380 H   0  0  0  0  0  0  0  0  0  0  0  0
   41.8250   83.2834   93.4840 H   0  0  0  0  0  0  0  0  0  0  0  0
   42.4116   84.8843   94.0496 H   0  0  0  0  0  0  0  0  0  0  0  0
   40.2878   81.6158   95.6630 H   0  0  0  0  0  0  0  0  0  0  0  0
   41.9434   80.9063   97.8343 H   0  0  0  0  0  0  0  0  0  0  0  0
   40.8097   79.1130   95.6422 H   0  0  0  0  0  0  0  0  0  0  0  0
   39.8429   79.7745   97.0040 H   0  0  0  0  0  0  0  0  0  0  0  0
   42.3113   78.4536   97.8680 H   0  0  0  0  0  0  0  0  0  0  0  0
   41.2016   77.3699   96.9619 H   0  0  0  0  0  0  0  0  0  0  0  0
   40.5199   78.0889  100.7835 H   0  0  0  0  0  0  0  0  0  0  0  0
   42.0343   78.2666   99.9618 H   0  0  0  0  0  0  0  0  0  0  0  0
   44.0200   80.4093   97.9688 H   0  0  0  0  0  0  0  0  0  0  0  0
   45.5485   79.6612   95.5314 H   0  0  0  0  0  0  0  0  0  0  0  0
   47.5287   79.7903   97.0140 H   0  0  0  0  0  0  0  0  0  0  0  0
   46.4513   80.2126   98.3879 H   0  0  0  0  0  0  0  0  0  0  0  0
   45.7936   82.2602   97.2981 H   0  0  0  0  0  0  0  0  0  0  0  0
   46.7427   81.8247   95.8365 H   0  0  0  0  0  0  0  0  0  0  0  0
   46.6515   77.6775   95.3947 H   0  0  0  0  0  0  0  0  0  0  0  0
   45.6103   75.6539   97.3151 H   0  0  0  0  0  0  0  0  0  0  0  0
   45.5858   74.0230   95.4159 H   0  0  0  0  0  0  0  0  0  0  0  0
   45.9601   75.3842   94.3052 H   0  0  0  0  0  0  0  0  0  0  0  0
   44.2660   77.0537   93.7745 H   0  0  0  0  0  0  0  0  0  0  0  0
   43.3902   73.9373   96.5704 H   0  0  0  0  0  0  0  0  0  0  0  0
   41.8584   77.6169   93.6475 H   0  0  0  0  0  0  0  0  0  0  0  0
   40.9909   74.4899   96.4460 H   0  0  0  0  0  0  0  0  0  0  0  0
   39.6359   76.6470   95.8156 H   0  0  0  0  0  0  0  0  0  0  0  0
  1  2  1  0  0  0  0
  1 47  1  0  0  0  0
  1 48  1  0  0  0  0
  1 49  1  0  0  0  0
  2  3  1  0  0  0  0
  2  5  1  0  0  0  0
  2 50  1  6  0  0  0
  3  4  2  0  0  0  0
  3  6  1  0  0  0  0
  5 51  1  0  0  0  0
  5 52  1  0  0  0  0
  5 53  1  0  0  0  0
  6  7  1  0  0  0  0
  6 54  1  0  0  0  0
  7  8  1  0  0  0  0
  7 10  1  0  0  0  0
  7 55  1  6  0  0  0
  8  9  1  0  0  0  0
  8 56  1  0  0  0  0
  8 57  1  0  0  0  0
  9 12  1  0  0  0  0
 10 11  2  0  0  0  0
 10 16  1  0  0  0  0
 12 13  1  0  0  0  0
 12 14  1  0  0  0  0
 12 15  2  0  0  0  0
 16 17  1  0  0  0  0
 16 58  1  0  0  0  0
 17 18  1  0  0  0  0
 17 20  1  0  0  0  0
 17 59  1  1  0  0  0
 18 19  2  0  0  0  0
 18 25  1  0  0  0  0
 20 21  1  0  0  0  0
 20 60  1  0  0  0  0
 20 61  1  0  0  0  0
 21 22  1  0  0  0  0
 21 62  1  0  0  0  0
 21 63  1  0  0  0  0
 22 23  2  0  0  0  0
 22 24  1  0  0  0  0
 24 64  1  0  0  0  0
 24 65  1  0  0  0  0
 25 26  1  0  0  0  0
 25 66  1  0  0  0  0
 26 27  1  0  0  0  0
 26 29  1  0  0  0  0
 26 67  1  6  0  0  0
 27 28  2  0  0  0  0
 27 34  1  0  0  0  0
 29 30  1  0  0  0  0
 29 68  1  0  0  0  0
 29 69  1  0  0  0  0
 30 31  1  0  0  0  0
 30 70  1  0  0  0  0
 30 71  1  0  0  0  0
 31 32  1  0  0  0  0
 31 33  2  0  0  0  0
 34 35  1  0  0  0  0
 34 72  1  0  0  0  0
 35 36  1  0  0  0  0
 35 38  1  0  0  0  0
 35 73  1  1  0  0  0
 36 37  1  0  0  0  0
 36 46  2  0  0  0  0
 38 39  1  0  0  0  0
 38 74  1  0  0  0  0
 38 75  1  0  0  0  0
 39 40  2  0  0  0  0
 39 41  1  0  0  0  0
 40 42  1  0  0  0  0
 40 76  1  0  0  0  0
 41 43  2  0  0  0  0
 41 77  1  0  0  0  0
 42 44  2  0  0  0  0
 42 78  1  0  0  0  0
 43 44  1  0  0  0  0
 43 79  1  0  0  0  0
 44 45  1  0  0  0  0
 45 80  1  0  0  0  0
M  CHG  3   1   1  32  -1  37  -1
M  END
