2b2v_ligand
 OpenBabel08222323343D

108107  0  0  1  0  0  0  0  0999 V2000
  -36.0120   -1.8120   -8.4380 N   0  3  0  0  0  0  0  0  0  0  0  0
  -36.0570   -3.0380   -7.6010 C   0  0  2  0  0  0  0  0  0  0  0  0
  -34.7090   -3.6760   -7.7110 C   0  0  0  0  0  0  0  0  0  0  0  0
  -33.8850   -3.2020   -8.4600 O   0  0  0  0  0  0  0  0  0  0  0  0
  -37.1500   -3.9930   -8.0890 C   0  0  0  0  0  0  0  0  0  0  0  0
  -34.4820   -4.7480   -6.9700 N   0  0  0  0  0  0  0  0  0  0  0  0
  -33.2020   -5.4780   -7.0020 C   0  0  2  0  0  0  0  0  0  0  0  0
  -31.9850   -4.6000   -6.7000 C   0  0  0  0  0  0  0  0  0  0  0  0
  -31.5070   -3.8640   -7.5760 O   0  0  0  0  0  0  0  0  0  0  0  0
  -33.0130   -6.1860   -8.3490 C   0  0  0  0  0  0  0  0  0  0  0  0
  -34.0420   -5.8010   -9.3920 C   0  0  0  0  0  0  0  0  0  0  0  0
  -33.4540   -5.7490  -10.7710 C   0  0  0  0  0  0  0  0  0  0  0  0
  -32.6960   -6.9590  -11.1100 N   0  0  0  0  0  0  0  0  0  0  0  0
  -31.4480   -6.9750  -11.5900 C   0  0  0  0  0  3  0  0  0  0  0  0
  -30.8680   -8.1310  -11.8700 N   0  0  0  0  0  0  0  0  0  0  0  0
  -30.7930   -5.8420  -11.7650 N   0  0  0  0  0  0  0  0  0  0  0  0
  -31.5180   -4.6400   -5.4410 N   0  0  0  0  0  0  0  0  0  0  0  0
  -30.2160   -4.0650   -5.1220 C   0  0  2  0  0  0  0  0  0  0  0  0
  -29.3710   -5.1960   -4.5650 C   0  0  0  0  0  0  0  0  0  0  0  0
  -29.8050   -6.3440   -4.5280 O   0  0  0  0  0  0  0  0  0  0  0  0
  -30.2940   -2.9690   -4.0610 C   0  0  2  0  0  0  0  0  0  0  0  0
  -30.6260   -3.5570   -2.8050 O   0  0  0  0  0  0  0  0  0  0  0  0
  -31.3310   -1.9570   -4.4000 C   0  0  0  0  0  0  0  0  0  0  0  0
  -28.1670   -4.8790   -4.1190 N   0  0  0  0  0  0  0  0  0  0  0  0
  -27.3550   -5.8600   -3.4310 C   0  0  1  0  0  0  0  0  0  0  0  0
  -25.9200   -5.8180   -3.9510 C   0  0  0  0  0  0  0  0  0  0  0  0
  -25.8870   -6.3590   -5.3770 C   0  0  0  0  0  0  0  0  0  0  0  0
  -24.6020   -6.0470   -6.1520 C   0  0  0  0  0  0  0  0  0  0  0  0
  -24.3610   -7.1280   -7.2120 C   0  0  0  0  0  0  0  0  0  0  0  0
  -24.5850   -8.4790   -6.6960 N   0  3  0  0  0  0  0  0  0  0  0  0
  -24.4510   -9.6480   -7.5440 C   0  0  0  0  0  0  0  0  0  0  0  0
  -27.4680   -5.6160   -1.9530 C   0  0  0  0  0  0  0  0  0  0  0  0
  -26.7340   -6.1870   -1.1600 O   0  0  0  0  0  0  0  0  0  0  0  0
  -28.4200   -4.7700   -1.5710 N   0  0  0  0  0  0  0  0  0  0  0  0
  -28.5580   -4.3360   -0.1800 C   0  0  2  0  0  0  0  0  0  0  0  0
  -28.8180   -5.5400    0.7380 C   0  0  0  0  0  0  0  0  0  0  0  0
  -29.8950   -5.7110    1.3160 O   0  0  0  0  0  0  0  0  0  0  0  0
  -29.6360   -3.2410   -0.0450 C   0  0  0  0  0  0  0  0  0  0  0  0
  -29.6230   -2.4750    1.2870 C   0  0  0  0  0  0  0  0  0  0  0  0
  -28.3810   -1.5950    1.4900 C   0  0  0  0  0  0  0  0  0  0  0  0
  -28.1650   -0.6130    0.7630 O   0  0  0  0  0  0  0  0  0  0  0  0
  -27.5780   -1.9350    2.5060 N   0  0  0  0  0  0  0  0  0  0  0  0
  -27.7990   -6.3870    0.8180 N   0  0  0  0  0  0  0  0  0  0  0  0
  -27.6450   -7.3870    1.8710 C   0  0  2  0  0  0  0  0  0  0  0  0
  -28.0270   -6.7900    3.2510 C   0  0  0  0  0  0  0  0  0  0  0  0
  -28.4400   -7.4890    4.1890 O   0  0  0  0  0  0  0  0  0  0  0  0
  -26.1510   -7.8600    1.8860 C   0  0  2  0  0  0  0  0  0  0  0  0
  -26.0480   -9.2270    2.2850 O   0  0  0  0  0  0  0  0  0  0  0  0
  -25.3050   -6.9900    2.8170 C   0  0  0  0  0  0  0  0  0  0  0  0
  -27.9071   -5.4783    3.4356 O   0  0  0  0  0  0  0  0  0  0  0  0
  -36.9036   -1.3437   -8.3962 H   0  0  0  0  0  0  0  0  0  0  0  0
  -35.8094   -2.0642   -9.3927 H   0  0  0  0  0  0  0  0  0  0  0  0
  -35.2925   -1.1960   -8.0932 H   0  0  0  0  0  0  0  0  0  0  0  0
  -36.2587   -2.7680   -6.5539 H   0  0  0  0  0  0  0  0  0  0  0  0
  -37.1625   -4.8910   -7.4539 H   0  0  0  0  0  0  0  0  0  0  0  0
  -36.9454   -4.2831   -9.1301 H   0  0  0  0  0  0  0  0  0  0  0  0
  -38.1272   -3.4910   -8.0334 H   0  0  0  0  0  0  0  0  0  0  0  0
  -35.2071   -5.0759   -6.3645 H   0  0  0  0  0  0  0  0  0  0  0  0
  -33.2502   -6.2495   -6.2194 H   0  0  0  0  0  0  0  0  0  0  0  0
  -33.0776   -7.2714   -8.1824 H   0  0  0  0  0  0  0  0  0  0  0  0
  -32.0151   -5.9332   -8.7366 H   0  0  0  0  0  0  0  0  0  0  0  0
  -34.4475   -4.8096   -9.1415 H   0  0  0  0  0  0  0  0  0  0  0  0
  -34.8540   -6.5429   -9.3802 H   0  0  0  0  0  0  0  0  0  0  0  0
  -32.7795   -4.8823  -10.8334 H   0  0  0  0  0  0  0  0  0  0  0  0
  -34.2712   -5.6307  -11.4977 H   0  0  0  0  0  0  0  0  0  0  0  0
  -33.1615   -7.8666  -10.9671 H   0  0  0  0  0  0  0  0  0  0  0  0
  -29.9069   -8.1487  -12.2399 H   0  0  0  0  0  0  0  0  0  0  0  0
  -31.3777   -9.0131  -11.7180 H   0  0  0  0  0  0  0  0  0  0  0  0
  -31.2485   -4.9446  -11.5457 H   0  0  0  0  0  0  0  0  0  0  0  0
  -29.8265   -5.8555  -12.1208 H   0  0  0  0  0  0  0  0  0  0  0  0
  -32.0649   -5.0655   -4.7200 H   0  0  0  0  0  0  0  0  0  0  0  0
  -29.7602   -3.6550   -6.0353 H   0  0  0  0  0  0  0  0  0  0  0  0
  -29.3158   -2.4714   -3.9876 H   0  0  0  0  0  0  0  0  0  0  0  0
  -29.9705   -4.2058   -2.5772 H   0  0  0  0  0  0  0  0  0  0  0  0
  -31.3598   -1.1850   -3.6169 H   0  0  0  0  0  0  0  0  0  0  0  0
  -32.3134   -2.4472   -4.4679 H   0  0  0  0  0  0  0  0  0  0  0  0
  -31.0864   -1.4906   -5.3657 H   0  0  0  0  0  0  0  0  0  0  0  0
  -27.8146   -3.9536   -4.2583 H   0  0  0  0  0  0  0  0  0  0  0  0
  -27.7573   -6.8617   -3.6423 H   0  0  0  0  0  0  0  0  0  0  0  0
  -25.2773   -6.4370   -3.3078 H   0  0  0  0  0  0  0  0  0  0  0  0
  -25.5560   -4.7800   -3.9429 H   0  0  0  0  0  0  0  0  0  0  0  0
  -26.7335   -5.9235   -5.9281 H   0  0  0  0  0  0  0  0  0  0  0  0
  -26.0025   -7.4520   -5.3314 H   0  0  0  0  0  0  0  0  0  0  0  0
  -23.7515   -6.0229   -5.4548 H   0  0  0  0  0  0  0  0  0  0  0  0
  -24.7006   -5.0682   -6.6442 H   0  0  0  0  0  0  0  0  0  0  0  0
  -23.3212   -7.0524   -7.5629 H   0  0  0  0  0  0  0  0  0  0  0  0
  -25.0460   -6.9544   -8.0550 H   0  0  0  0  0  0  0  0  0  0  0  0
  -25.5274   -8.4939   -6.3387 H   0  0  0  0  0  0  0  0  0  0  0  0
  -23.9353   -8.6039   -5.9355 H   0  0  0  0  0  0  0  0  0  0  0  0
  -24.6624  -10.5535   -6.9563 H   0  0  0  0  0  0  0  0  0  0  0  0
  -23.4258   -9.6986   -7.9394 H   0  0  0  0  0  0  0  0  0  0  0  0
  -25.1632   -9.5786   -8.3794 H   0  0  0  0  0  0  0  0  0  0  0  0
  -29.0607   -4.4199   -2.2543 H   0  0  0  0  0  0  0  0  0  0  0  0
  -27.6004   -3.8904    0.1271 H   0  0  0  0  0  0  0  0  0  0  0  0
  -30.6214   -3.7174   -0.1546 H   0  0  0  0  0  0  0  0  0  0  0  0
  -29.4875   -2.5145   -0.8574 H   0  0  0  0  0  0  0  0  0  0  0  0
  -29.6661   -3.2068    2.1072 H   0  0  0  0  0  0  0  0  0  0  0  0
  -30.5134   -1.8301    1.3238 H   0  0  0  0  0  0  0  0  0  0  0  0
  -26.7526   -1.4017    2.6910 H   0  0  0  0  0  0  0  0  0  0  0  0
  -27.8037   -2.7223    3.0798 H   0  0  0  0  0  0  0  0  0  0  0  0
  -27.0920   -6.3371    0.1125 H   0  0  0  0  0  0  0  0  0  0  0  0
  -28.2995   -8.2450    1.6579 H   0  0  0  0  0  0  0  0  0  0  0  0
  -25.7526   -7.7652    0.8651 H   0  0  0  0  0  0  0  0  0  0  0  0
  -26.5741   -9.7654    1.7055 H   0  0  0  0  0  0  0  0  0  0  0  0
  -24.2642   -7.3459    2.8061 H   0  0  0  0  0  0  0  0  0  0  0  0
  -25.7033   -7.0531    3.8404 H   0  0  0  0  0  0  0  0  0  0  0  0
  -25.3389   -5.9454    2.4741 H   0  0  0  0  0  0  0  0  0  0  0  0
  -27.5827   -5.0758    2.6386 H   0  0  0  0  0  0  0  0  0  0  0  0
  1 51  1  0  0  0  0
  1 52  1  0  0  0  0
  1 53  1  0  0  0  0
  2  1  1  0  0  0  0
  2  5  1  0  0  0  0
  2 54  1  1  0  0  0
  3  2  1  0  0  0  0
  3  4  2  0  0  0  0
  5 55  1  0  0  0  0
  5 56  1  0  0  0  0
  5 57  1  0  0  0  0
  6  3  1  0  0  0  0
  6 58  1  0  0  0  0
  7  6  1  0  0  0  0
  7 10  1  0  0  0  0
  7 59  1  1  0  0  0
  8  7  1  0  0  0  0
  8  9  2  0  0  0  0
 10 11  1  0  0  0  0
 10 60  1  0  0  0  0
 10 61  1  0  0  0  0
 11 12  1  0  0  0  0
 11 62  1  0  0  0  0
 11 63  1  0  0  0  0
 12 13  1  0  0  0  0
 12 64  1  0  0  0  0
 12 65  1  0  0  0  0
 13 14  1  0  0  0  0
 13 66  1  0  0  0  0
 14 16  1  0  0  0  0
 14 15  1  0  0  0  0
 15 67  1  0  0  0  0
 15 68  1  0  0  0  0
 16 69  1  0  0  0  0
 16 70  1  0  0  0  0
 17  8  1  0  0  0  0
 17 71  1  0  0  0  0
 18 17  1  0  0  0  0
 18 21  1  0  0  0  0
 18 72  1  6  0  0  0
 19 18  1  0  0  0  0
 19 20  2  0  0  0  0
 21 23  1  0  0  0  0
 21 22  1  0  0  0  0
 21 73  1  1  0  0  0
 22 74  1  0  0  0  0
 23 75  1  0  0  0  0
 23 76  1  0  0  0  0
 23 77  1  0  0  0  0
 24 19  1  0  0  0  0
 24 78  1  0  0  0  0
 25 24  1  0  0  0  0
 25 26  1  0  0  0  0
 25 79  1  6  0  0  0
 26 27  1  0  0  0  0
 26 80  1  0  0  0  0
 26 81  1  0  0  0  0
 27 28  1  0  0  0  0
 27 82  1  0  0  0  0
 27 83  1  0  0  0  0
 28 29  1  0  0  0  0
 28 84  1  0  0  0  0
 28 85  1  0  0  0  0
 29 30  1  0  0  0  0
 29 86  1  0  0  0  0
 29 87  1  0  0  0  0
 30 31  1  0  0  0  0
 30 88  1  0  0  0  0
 30 89  1  0  0  0  0
 31 90  1  0  0  0  0
 31 91  1  0  0  0  0
 31 92  1  0  0  0  0
 32 25  1  0  0  0  0
 32 33  2  0  0  0  0
 32 34  1  0  0  0  0
 34 35  1  0  0  0  0
 34 93  1  0  0  0  0
 35 38  1  0  0  0  0
 35 36  1  0  0  0  0
 35 94  1  1  0  0  0
 36 37  2  0  0  0  0
 36 43  1  0  0  0  0
 38 39  1  0  0  0  0
 38 95  1  0  0  0  0
 38 96  1  0  0  0  0
 39 40  1  0  0  0  0
 39 97  1  0  0  0  0
 39 98  1  0  0  0  0
 40 42  1  0  0  0  0
 40 41  2  0  0  0  0
 42 99  1  0  0  0  0
 42100  1  0  0  0  0
 43 44  1  0  0  0  0
 43101  1  0  0  0  0
 44 47  1  0  0  0  0
 44 45  1  0  0  0  0
 44102  1  6  0  0  0
 45 46  2  0  0  0  0
 45 50  1  0  0  0  0
 47 49  1  0  0  0  0
 47 48  1  0  0  0  0
 47103  1  6  0  0  0
 48104  1  0  0  0  0
 49105  1  0  0  0  0
 49106  1  0  0  0  0
 49107  1  0  0  0  0
 50108  1  0  0  0  0
M  CHG  2   1   1  30   1
M  END
