2b52_ligand
 OpenBabel08222323343D

 56 60  0  0  1  0  0  0  0  0999 V2000
   75.6190   64.7320   14.8060 C   0  0  0  0  0  0  0  0  0  0  0  0
   76.3040   63.4150   15.1330 C   0  0  0  0  0  0  0  0  0  0  0  0
   77.7720   63.5740   15.2490 N   0  3  2  0  0  0  0  0  0  0  0  0
   78.3910   64.1570   14.0390 C   0  0  0  0  0  0  0  0  0  0  0  0
   77.7060   65.4640   13.6240 C   0  0  0  0  0  0  0  0  0  0  0  0
   76.2200   65.3620   13.6070 N   0  3  2  0  0  0  0  0  0  0  0  0
   75.4370   66.5040   13.1310 C   0  0  0  0  0  0  0  0  0  0  0  0
   78.4260   62.6350   16.2350 N   0  0  0  0  0  0  0  0  0  0  0  0
   78.6650   61.3390   16.0070 C   0  0  0  0  0  0  0  0  0  0  0  0
   79.4940   60.9990   15.0190 N   0  0  0  0  0  0  0  0  0  0  0  0
   80.0790   59.7270   14.7950 C   0  0  0  0  0  0  0  0  0  0  0  0
   79.8030   58.5000   15.5770 C   0  0  0  0  0  0  0  0  0  0  0  0
   80.5270   57.2710   15.2030 C   0  0  0  0  0  0  0  0  0  0  0  0
   81.4990   57.2740   14.0910 C   0  0  0  0  0  0  0  0  0  0  0  0
   81.7490   58.5080   13.3400 C   0  0  0  0  0  0  0  0  0  0  0  0
   81.0380   59.7460   13.6750 C   0  0  0  0  0  0  0  0  0  0  0  0
   82.5440   58.8350   12.1750 C   0  0  0  0  0  0  0  0  0  0  0  0
   82.3160   60.2160   11.8070 C   0  0  0  0  0  0  0  0  0  0  0  0
   81.3720   60.8130   12.7420 C   0  0  0  0  0  0  0  0  0  0  0  0
   83.4000   58.1540   11.2830 N   0  0  0  0  0  0  0  0  0  0  0  0
   83.7040   59.2640   10.2960 N   0  0  0  0  0  0  0  0  0  0  0  0
   83.0550   60.4840   10.5850 C   0  0  0  0  0  0  0  0  0  0  0  0
   83.0830   61.5800    9.6250 C   0  0  0  0  0  0  0  0  0  0  0  0
   81.6960   62.7390    9.4520 S   0  0  0  0  0  0  0  0  0  0  0  0
   82.5480   63.5920    8.0860 C   0  0  0  0  0  0  0  0  0  0  0  0
   83.8100   63.0100    7.7980 N   0  0  0  0  0  0  0  0  0  0  0  0
   84.1070   61.9050    8.6340 C   0  0  0  0  0  0  0  0  0  0  0  0
   85.4030   61.1880    8.3990 C   0  0  0  0  0  0  0  0  0  0  0  0
   81.9750   64.7820    7.3280 C   0  0  0  0  0  0  0  0  0  0  0  0
   78.1330   60.4710   16.7090 O   0  0  0  0  0  0  0  0  0  0  0  0
   80.8540   61.9310   12.7390 O   0  0  0  0  0  0  0  0  0  0  0  0
   75.7253   65.4146   15.6620 H   0  0  0  0  0  0  0  0  0  0  0  0
   74.5517   64.5447   14.6167 H   0  0  0  0  0  0  0  0  0  0  0  0
   76.0861   62.6918   14.3333 H   0  0  0  0  0  0  0  0  0  0  0  0
   75.9102   63.0359   16.0876 H   0  0  0  0  0  0  0  0  0  0  0  0
   77.8088   64.4017   15.8231 H   0  0  0  0  0  0  0  0  0  0  0  0
   78.3095   63.4344   13.2137 H   0  0  0  0  0  0  0  0  0  0  0  0
   79.4522   64.3607   14.2446 H   0  0  0  0  0  0  0  0  0  0  0  0
   78.0503   65.7353   12.6151 H   0  0  0  0  0  0  0  0  0  0  0  0
   77.9951   66.2524   14.3345 H   0  0  0  0  0  0  0  0  0  0  0  0
   76.0664   64.6762   12.8844 H   0  0  0  0  0  0  0  0  0  0  0  0
   74.3654   66.2617   13.1847 H   0  0  0  0  0  0  0  0  0  0  0  0
   75.7106   66.7276   12.0893 H   0  0  0  0  0  0  0  0  0  0  0  0
   75.6467   67.3807   13.7614 H   0  0  0  0  0  0  0  0  0  0  0  0
   78.6997   63.0089   17.1212 H   0  0  0  0  0  0  0  0  0  0  0  0
   79.7282   61.7189   14.3657 H   0  0  0  0  0  0  0  0  0  0  0  0
   79.0931   58.5052   16.3962 H   0  0  0  0  0  0  0  0  0  0  0  0
   80.3435   56.3539   15.7511 H   0  0  0  0  0  0  0  0  0  0  0  0
   82.0274   56.3641   13.8302 H   0  0  0  0  0  0  0  0  0  0  0  0
   83.7265   57.1772   11.2983 H   0  0  0  0  0  0  0  0  0  0  0  0
   85.9510   61.6796    7.5817 H   0  0  0  0  0  0  0  0  0  0  0  0
   85.1992   60.1419    8.1266 H   0  0  0  0  0  0  0  0  0  0  0  0
   86.0095   61.2166    9.3163 H   0  0  0  0  0  0  0  0  0  0  0  0
   82.6898   65.1038    6.5563 H   0  0  0  0  0  0  0  0  0  0  0  0
   81.7942   65.6105    8.0286 H   0  0  0  0  0  0  0  0  0  0  0  0
   81.0272   64.4913    6.8514 H   0  0  0  0  0  0  0  0  0  0  0  0
  1  2  1  0  0  0  0
  1  6  1  0  0  0  0
  1 32  1  0  0  0  0
  1 33  1  0  0  0  0
  2  3  1  0  0  0  0
  2 34  1  0  0  0  0
  2 35  1  0  0  0  0
  3  4  1  0  0  0  0
  3  8  1  0  0  0  0
  3 36  1  1  0  0  0
  4  5  1  0  0  0  0
  4 37  1  0  0  0  0
  4 38  1  0  0  0  0
  5  6  1  0  0  0  0
  5 39  1  0  0  0  0
  5 40  1  0  0  0  0
  6  7  1  0  0  0  0
  6 41  1  6  0  0  0
  7 42  1  0  0  0  0
  7 43  1  0  0  0  0
  7 44  1  0  0  0  0
  8  9  1  0  0  0  0
  8 45  1  0  0  0  0
  9 10  1  0  0  0  0
  9 30  2  0  0  0  0
 10 11  1  0  0  0  0
 10 46  1  0  0  0  0
 11 12  2  0  0  0  0
 11 16  1  0  0  0  0
 12 13  1  0  0  0  0
 12 47  1  0  0  0  0
 13 14  2  0  0  0  0
 13 48  1  0  0  0  0
 14 15  1  0  0  0  0
 14 49  1  0  0  0  0
 15 16  2  0  0  0  0
 15 17  1  0  0  0  0
 16 19  1  0  0  0  0
 17 18  2  0  0  0  0
 17 20  1  0  0  0  0
 18 19  1  0  0  0  0
 18 22  1  0  0  0  0
 19 31  2  0  0  0  0
 20 21  1  0  0  0  0
 20 50  1  0  0  0  0
 21 22  2  0  0  0  0
 22 23  1  0  0  0  0
 23 24  1  0  0  0  0
 23 27  2  0  0  0  0
 24 25  1  0  0  0  0
 25 26  2  0  0  0  0
 25 29  1  0  0  0  0
 26 27  1  0  0  0  0
 27 28  1  0  0  0  0
 28 51  1  0  0  0  0
 28 52  1  0  0  0  0
 28 53  1  0  0  0  0
 29 54  1  0  0  0  0
 29 55  1  0  0  0  0
 29 56  1  0  0  0  0
M  CHG  2   3   1   6   1
M  END
