2b53_ligand
 OpenBabel08222323343D

 45 47  0  0  0  0  0  0  0  0999 V2000
   82.4300   65.0130   59.3270 C   0  0  0  0  0  0  0  0  0  0  0  0
   83.3220   65.2760   60.4460 C   0  0  0  0  0  0  0  0  0  0  0  0
   83.5370   66.5950   61.0380 C   0  0  0  0  0  0  0  0  0  0  0  0
   82.8550   67.7220   60.4330 C   0  0  0  0  0  0  0  0  0  0  0  0
   81.9850   67.4520   59.2960 C   0  0  0  0  0  0  0  0  0  0  0  0
   81.7040   66.1150   58.7130 C   0  0  0  0  0  0  0  0  0  0  0  0
   84.0230   64.1860   60.9370 N   0  0  0  0  0  0  0  0  0  0  0  0
   80.7080   65.8880   57.5900 C   0  0  0  0  0  0  0  0  0  0  0  0
   79.4870   66.7300   57.5590 C   0  0  0  0  0  0  0  0  0  0  0  0
   78.5350   66.6590   56.4760 C   0  0  0  0  0  0  0  0  0  0  0  0
   78.7520   65.7190   55.3740 C   0  0  0  0  0  0  0  0  0  0  0  0
   79.9610   64.8020   55.3300 C   0  0  0  0  0  0  0  0  0  0  0  0
   80.9060   64.9230   56.4510 C   0  0  0  0  0  0  0  0  0  0  0  0
   77.8500   65.6320   54.3280 N   0  0  0  0  0  0  0  0  0  0  0  0
   77.9960   64.7770   53.2800 C   0  0  0  0  0  0  0  0  0  0  0  0
   79.0650   63.9280   53.1600 N   0  0  0  0  0  0  0  0  0  0  0  0
   80.0260   63.9220   54.1480 C   0  0  0  0  0  0  0  0  0  0  0  0
   80.9900   62.9060   53.8270 N   0  0  0  0  0  0  0  0  0  0  0  0
   81.2110   61.7530   52.9140 C   0  0  0  0  0  0  0  0  0  0  0  0
   80.0050   60.7700   53.0640 C   0  0  0  0  0  0  0  0  0  0  0  0
   81.2260   62.2460   51.4510 C   0  0  0  0  0  0  0  0  0  0  0  0
   82.5690   61.1050   53.2740 C   0  0  0  0  0  0  0  0  0  0  0  0
   76.8960   64.7290   52.2720 C   0  0  0  0  0  0  0  0  0  0  0  0
   76.6800   63.4730   51.9710 F   0  0  0  0  0  0  0  0  0  0  0  0
   75.8050   65.3020   52.7650 F   0  0  0  0  0  0  0  0  0  0  0  0
   77.3410   65.3750   51.2510 F   0  0  0  0  0  0  0  0  0  0  0  0
   82.3069   64.0030   58.9531 H   0  0  0  0  0  0  0  0  0  0  0  0
   84.1832   66.7257   61.8985 H   0  0  0  0  0  0  0  0  0  0  0  0
   82.9875   68.7287   60.8126 H   0  0  0  0  0  0  0  0  0  0  0  0
   81.4989   68.3036   58.8338 H   0  0  0  0  0  0  0  0  0  0  0  0
   83.8779   63.2528   60.5260 H   0  0  0  0  0  0  0  0  0  0  0  0
   84.6891   64.3091   61.7129 H   0  0  0  0  0  0  0  0  0  0  0  0
   79.3040   67.4199   58.3748 H   0  0  0  0  0  0  0  0  0  0  0  0
   77.6611   67.3003   56.4784 H   0  0  0  0  0  0  0  0  0  0  0  0
   81.7849   64.2886   56.4574 H   0  0  0  0  0  0  0  0  0  0  0  0
   81.8105   63.0131   54.4404 H   0  0  0  0  0  0  0  0  0  0  0  0
   80.1491   59.9083   52.3957 H   0  0  0  0  0  0  0  0  0  0  0  0
   79.0730   61.2895   52.7966 H   0  0  0  0  0  0  0  0  0  0  0  0
   79.9442   60.4204   54.1052 H   0  0  0  0  0  0  0  0  0  0  0  0
   81.3896   61.3915   50.7778 H   0  0  0  0  0  0  0  0  0  0  0  0
   82.0369   62.9774   51.3188 H   0  0  0  0  0  0  0  0  0  0  0  0
   80.2622   62.7202   51.2139 H   0  0  0  0  0  0  0  0  0  0  0  0
   82.7538   60.2479   52.6098 H   0  0  0  0  0  0  0  0  0  0  0  0
   82.5457   60.7610   54.3186 H   0  0  0  0  0  0  0  0  0  0  0  0
   83.3730   61.8453   53.1495 H   0  0  0  0  0  0  0  0  0  0  0  0
  1  2  2  0  0  0  0
  1  6  1  0  0  0  0
  1 27  1  0  0  0  0
  2  3  1  0  0  0  0
  2  7  1  0  0  0  0
  3  4  2  0  0  0  0
  3 28  1  0  0  0  0
  4  5  1  0  0  0  0
  4 29  1  0  0  0  0
  5  6  2  0  0  0  0
  5 30  1  0  0  0  0
  6  8  1  0  0  0  0
  7 31  1  0  0  0  0
  7 32  1  0  0  0  0
  8  9  2  0  0  0  0
  8 13  1  0  0  0  0
  9 10  1  0  0  0  0
  9 33  1  0  0  0  0
 10 11  2  0  0  0  0
 10 34  1  0  0  0  0
 11 12  1  0  0  0  0
 11 14  1  0  0  0  0
 12 13  2  0  0  0  0
 12 17  1  0  0  0  0
 13 35  1  0  0  0  0
 14 15  2  0  0  0  0
 15 16  1  0  0  0  0
 15 23  1  0  0  0  0
 16 17  2  0  0  0  0
 17 18  1  0  0  0  0
 18 19  1  0  0  0  0
 18 36  1  0  0  0  0
 19 20  1  0  0  0  0
 19 21  1  0  0  0  0
 19 22  1  0  0  0  0
 20 37  1  0  0  0  0
 20 38  1  0  0  0  0
 20 39  1  0  0  0  0
 21 40  1  0  0  0  0
 21 41  1  0  0  0  0
 21 42  1  0  0  0  0
 22 43  1  0  0  0  0
 22 44  1  0  0  0  0
 22 45  1  0  0  0  0
 23 24  1  0  0  0  0
 23 25  1  0  0  0  0
 23 26  1  0  0  0  0
M  END
