2b7a_ligand
 OpenBabel08222323343D

 39 42  0  0  0  0  0  0  0  0999 V2000
  117.7080   67.4770   10.8940 O   0  0  0  0  0  0  0  0  0  0  0  0
  117.2770   66.8780    9.8800 C   0  0  0  0  0  0  0  0  0  0  0  0
  118.0910   66.7430    8.7980 N   0  0  0  0  0  0  0  0  0  0  0  0
  117.6930   66.0990    7.6860 C   0  0  0  0  0  0  0  0  0  0  0  0
  116.4160   65.5460    7.5940 C   0  0  0  0  0  0  0  0  0  0  0  0
  115.5180   65.6330    8.6610 C   0  0  0  0  0  0  0  0  0  0  0  0
  114.2420   65.0750    8.5710 C   0  0  0  0  0  0  0  0  0  0  0  0
  115.9050   66.2890    9.8350 C   0  0  0  0  0  0  0  0  0  0  0  0
  114.9250   66.3790   10.9700 C   0  0  0  0  0  0  0  0  0  0  0  0
  115.2030   67.0080   12.1790 C   0  0  0  0  0  0  0  0  0  0  0  0
  114.2050   67.0160   13.1460 C   0  0  0  0  0  0  0  0  0  0  0  0
  114.4580   67.6720   14.4460 F   0  0  0  0  0  0  0  0  0  0  0  0
  112.9710   66.4030   12.8920 C   0  0  0  0  0  0  0  0  0  0  0  0
  112.7100   65.8180   11.7650 C   0  0  0  0  0  0  0  0  0  0  0  0
  113.5770   65.7640   10.8080 C   0  0  0  0  0  0  0  0  0  0  0  0
  113.3070   65.1380    9.5950 C   0  0  0  0  0  0  0  0  0  0  0  0
  112.1720   64.5120    9.2100 N   0  0  0  0  0  0  0  0  0  0  0  0
  112.4660   64.0890    7.9580 C   0  0  0  0  0  0  0  0  0  0  0  0
  113.7040   64.4150    7.5220 N   0  0  0  0  0  0  0  0  0  0  0  0
  111.4810   63.3400    7.0880 C   0  0  0  0  0  0  0  0  0  0  0  0
  110.3510   62.7540    7.9250 C   0  0  0  0  0  0  0  0  0  0  0  0
  112.1570   62.2180    6.3120 C   0  0  0  0  0  0  0  0  0  0  0  0
  110.8870   64.3320    6.0960 C   0  0  0  0  0  0  0  0  0  0  0  0
  119.0110   67.1335    8.8304 H   0  0  0  0  0  0  0  0  0  0  0  0
  118.3785   66.0081    6.8447 H   0  0  0  0  0  0  0  0  0  0  0  0
  116.1147   65.0396    6.6782 H   0  0  0  0  0  0  0  0  0  0  0  0
  116.1641   67.4754   12.3605 H   0  0  0  0  0  0  0  0  0  0  0  0
  112.2095   66.4184   13.6633 H   0  0  0  0  0  0  0  0  0  0  0  0
  111.7374   65.3614   11.6212 H   0  0  0  0  0  0  0  0  0  0  0  0
  111.2975   64.3874    9.7398 H   0  0  0  0  0  0  0  0  0  0  0  0
  109.6504   62.2158    7.2696 H   0  0  0  0  0  0  0  0  0  0  0  0
  109.8189   63.5658    8.4425 H   0  0  0  0  0  0  0  0  0  0  0  0
  110.7677   62.0572    8.6671 H   0  0  0  0  0  0  0  0  0  0  0  0
  112.9747   62.6332    5.7046 H   0  0  0  0  0  0  0  0  0  0  0  0
  111.4215   61.7325    5.6538 H   0  0  0  0  0  0  0  0  0  0  0  0
  112.5633   61.4777    7.0169 H   0  0  0  0  0  0  0  0  0  0  0  0
  110.3949   65.1488    6.6444 H   0  0  0  0  0  0  0  0  0  0  0  0
  110.1487   63.8191    5.4620 H   0  0  0  0  0  0  0  0  0  0  0  0
  111.6884   64.7444    5.4654 H   0  0  0  0  0  0  0  0  0  0  0  0
  1  2  2  0  0  0  0
  2  3  1  0  0  0  0
  2  8  1  0  0  0  0
  3  4  1  0  0  0  0
  3 24  1  0  0  0  0
  4  5  2  0  0  0  0
  4 25  1  0  0  0  0
  5  6  1  0  0  0  0
  5 26  1  0  0  0  0
  6  7  2  0  0  0  0
  6  8  1  0  0  0  0
  7 16  1  0  0  0  0
  7 19  1  0  0  0  0
  8  9  2  0  0  0  0
  9 10  1  0  0  0  0
  9 15  1  0  0  0  0
 10 11  2  0  0  0  0
 10 27  1  0  0  0  0
 11 12  1  0  0  0  0
 11 13  1  0  0  0  0
 13 14  2  0  0  0  0
 13 28  1  0  0  0  0
 14 15  1  0  0  0  0
 14 29  1  0  0  0  0
 15 16  2  0  0  0  0
 16 17  1  0  0  0  0
 17 18  1  0  0  0  0
 17 30  1  0  0  0  0
 18 19  2  0  0  0  0
 18 20  1  0  0  0  0
 20 21  1  0  0  0  0
 20 22  1  0  0  0  0
 20 23  1  0  0  0  0
 21 31  1  0  0  0  0
 21 32  1  0  0  0  0
 21 33  1  0  0  0  0
 22 34  1  0  0  0  0
 22 35  1  0  0  0  0
 22 36  1  0  0  0  0
 23 37  1  0  0  0  0
 23 38  1  0  0  0  0
 23 39  1  0  0  0  0
M  END
