2b8l_ligand
 OpenBabel08222323343D

 80 83  0  0  1  0  0  0  0  0999 V2000
   26.3510   36.1890    2.5230 C   0  0  0  0  0  0  0  0  0  0  0  0
   27.6740   35.5740    2.2480 C   0  0  0  0  0  0  0  0  0  0  0  0
   26.6870   34.8080    3.0100 C   0  0  0  0  0  0  0  0  0  0  0  0
   28.7390   36.1050    3.1150 N   0  3  0  0  0  0  0  0  0  0  0  0
   29.4720   37.1040    2.3060 C   0  0  0  0  0  0  0  0  0  0  0  0
   30.8030   37.5220    2.9770 C   0  0  2  0  0  0  0  0  0  0  0  0
   31.5650   38.4160    2.0240 C   0  0  1  0  0  0  0  0  0  0  0  0
   30.8790   39.7120    2.0350 N   0  0  0  0  0  0  0  0  0  0  0  0
   30.1950   40.1720    0.9560 C   0  0  0  0  0  0  0  0  0  0  0  0
   29.8870   39.4610    0.0010 O   0  0  0  0  0  0  0  0  0  0  0  0
   31.4810   36.2790    3.1410 O   0  0  0  0  0  0  0  0  0  0  0  0
   33.0760   38.5650    2.3680 C   0  0  0  0  0  0  0  0  0  0  0  0
   29.8320   41.5880    1.0060 C   0  0  0  0  0  0  0  0  0  0  0  0
   30.7330   42.5670    1.4570 C   0  0  0  0  0  0  0  0  0  0  0  0
   30.3830   43.9310    1.5110 C   0  0  0  0  0  0  0  0  0  0  0  0
   29.0920   44.2990    1.0720 C   0  0  0  0  0  0  0  0  0  0  0  0
   28.1320   43.3290    0.6230 C   0  0  0  0  0  0  0  0  0  0  0  0
   28.5300   41.9660    0.5900 C   0  0  0  0  0  0  0  0  0  0  0  0
   31.3360   44.9360    2.0430 C   0  0  0  0  0  0  0  0  0  0  0  0
   26.7880   43.6240    0.3260 N   0  0  0  0  0  0  0  0  0  0  0  0
   31.4420   46.0700    1.6050 O   0  0  0  0  0  0  0  0  0  0  0  0
   26.1150   42.9320   -0.8000 C   0  0  0  0  0  0  0  0  0  0  0  0
   25.9620   44.8620    1.0060 S   0  0  0  0  0  0  0  0  0  0  0  0
   26.3100   46.3310    0.0220 C   0  0  0  0  0  0  0  0  0  0  0  0
   24.5520   44.5630    0.9080 O   0  0  0  0  0  0  0  0  0  0  0  0
   26.4980   45.1150    2.3010 O   0  0  0  0  0  0  0  0  0  0  0  0
   33.7200   40.0050    0.3100 C   0  0  0  0  0  0  0  0  0  0  0  0
   34.4600   41.0710   -0.2550 C   0  0  0  0  0  0  0  0  0  0  0  0
   35.2490   41.8810    0.5760 C   0  0  0  0  0  0  0  0  0  0  0  0
   35.3150   41.6660    1.9560 C   0  0  0  0  0  0  0  0  0  0  0  0
   34.5650   40.5900    2.5280 C   0  0  0  0  0  0  0  0  0  0  0  0
   33.7790   39.7520    1.7110 C   0  0  0  0  0  0  0  0  0  0  0  0
   32.1030   44.5090    3.0840 N   0  0  0  0  0  0  0  0  0  0  0  0
   33.0780   45.2910    3.8410 C   0  0  2  0  0  0  0  0  0  0  0  0
   34.4390   44.5080    3.8880 C   0  0  0  0  0  0  0  0  0  0  0  0
   32.5470   45.6460    5.1880 C   0  0  0  0  0  0  0  0  0  0  0  0
   32.1710   44.6650    6.1520 C   0  0  0  0  0  0  0  0  0  0  0  0
   31.7740   45.0460    7.4420 C   0  0  0  0  0  0  0  0  0  0  0  0
   31.6940   46.4230    7.7970 C   0  0  0  0  0  0  0  0  0  0  0  0
   31.9930   47.3820    6.8210 C   0  0  0  0  0  0  0  0  0  0  0  0
   32.4230   47.0030    5.5410 C   0  0  0  0  0  0  0  0  0  0  0  0
   25.6247   36.3274    1.7085 H   0  0  0  0  0  0  0  0  0  0  0  0
   26.2652   37.0219    3.2363 H   0  0  0  0  0  0  0  0  0  0  0  0
   28.0136   35.2970    1.2391 H   0  0  0  0  0  0  0  0  0  0  0  0
   26.2015   33.9316    2.5560 H   0  0  0  0  0  0  0  0  0  0  0  0
   26.8419   34.6262    4.0837 H   0  0  0  0  0  0  0  0  0  0  0  0
   29.3594   35.3635    3.4002 H   0  0  0  0  0  0  0  0  0  0  0  0
   28.3398   36.5416    3.9311 H   0  0  0  0  0  0  0  0  0  0  0  0
   28.8398   37.9958    2.1830 H   0  0  0  0  0  0  0  0  0  0  0  0
   29.6915   36.6711    1.3189 H   0  0  0  0  0  0  0  0  0  0  0  0
   30.6412   38.0292    3.9396 H   0  0  0  0  0  0  0  0  0  0  0  0
   31.4979   37.9853    1.0141 H   0  0  0  0  0  0  0  0  0  0  0  0
   30.9160   40.2736    2.8616 H   0  0  0  0  0  0  0  0  0  0  0  0
   32.3496   36.4372    3.4917 H   0  0  0  0  0  0  0  0  0  0  0  0
   33.5898   37.6462    2.0490 H   0  0  0  0  0  0  0  0  0  0  0  0
   33.1673   38.6765    3.4585 H   0  0  0  0  0  0  0  0  0  0  0  0
   31.7251   42.2648    1.7723 H   0  0  0  0  0  0  0  0  0  0  0  0
   28.8165   45.3474    1.0739 H   0  0  0  0  0  0  0  0  0  0  0  0
   27.8342   41.2099    0.2447 H   0  0  0  0  0  0  0  0  0  0  0  0
   26.7617   42.1241   -1.1730 H   0  0  0  0  0  0  0  0  0  0  0  0
   25.9226   43.6510   -1.6099 H   0  0  0  0  0  0  0  0  0  0  0  0
   25.1616   42.5075   -0.4523 H   0  0  0  0  0  0  0  0  0  0  0  0
   25.7721   47.1919    0.4456 H   0  0  0  0  0  0  0  0  0  0  0  0
   25.9789   46.1654   -1.0138 H   0  0  0  0  0  0  0  0  0  0  0  0
   27.3913   46.5324    0.0336 H   0  0  0  0  0  0  0  0  0  0  0  0
   33.1055   39.3781   -0.3260 H   0  0  0  0  0  0  0  0  0  0  0  0
   34.4176   41.2603   -1.3215 H   0  0  0  0  0  0  0  0  0  0  0  0
   35.8202   42.6916    0.1382 H   0  0  0  0  0  0  0  0  0  0  0  0
   35.9255   42.3052    2.5835 H   0  0  0  0  0  0  0  0  0  0  0  0
   34.6015   40.4179    3.5976 H   0  0  0  0  0  0  0  0  0  0  0  0
   31.9861   43.5552    3.3609 H   0  0  0  0  0  0  0  0  0  0  0  0
   33.2545   46.2332    3.3014 H   0  0  0  0  0  0  0  0  0  0  0  0
   35.1781   45.0913    4.4567 H   0  0  0  0  0  0  0  0  0  0  0  0
   34.8066   44.3498    2.8634 H   0  0  0  0  0  0  0  0  0  0  0  0
   34.2854   43.5346    4.3768 H   0  0  0  0  0  0  0  0  0  0  0  0
   32.1922   43.6146    5.8852 H   0  0  0  0  0  0  0  0  0  0  0  0
   31.5261   44.2865    8.1746 H   0  0  0  0  0  0  0  0  0  0  0  0
   31.4084   46.7218    8.7991 H   0  0  0  0  0  0  0  0  0  0  0  0
   31.8904   48.4346    7.0589 H   0  0  0  0  0  0  0  0  0  0  0  0
   32.6638   47.7677    4.8114 H   0  0  0  0  0  0  0  0  0  0  0  0
  1 42  1  0  0  0  0
  1 43  1  0  0  0  0
  2  1  1  0  0  0  0
  2  3  1  0  0  0  0
  2 44  1  0  0  0  0
  3  1  1  0  0  0  0
  3 45  1  0  0  0  0
  3 46  1  0  0  0  0
  4  2  1  0  0  0  0
  4 47  1  0  0  0  0
  4 48  1  0  0  0  0
  5  4  1  0  0  0  0
  5 49  1  0  0  0  0
  5 50  1  0  0  0  0
  6  5  1  0  0  0  0
  6 11  1  0  0  0  0
  6 51  1  1  0  0  0
  7  6  1  0  0  0  0
  7  8  1  0  0  0  0
  7 52  1  6  0  0  0
  8  9  1  0  0  0  0
  8 53  1  0  0  0  0
  9 10  2  0  0  0  0
  9 13  1  0  0  0  0
 11 54  1  0  0  0  0
 12  7  1  0  0  0  0
 12 55  1  0  0  0  0
 12 56  1  0  0  0  0
 13 14  2  0  0  0  0
 13 18  1  0  0  0  0
 14 15  1  0  0  0  0
 14 57  1  0  0  0  0
 15 16  2  0  0  0  0
 15 19  1  0  0  0  0
 16 58  1  0  0  0  0
 17 16  1  0  0  0  0
 17 20  1  0  0  0  0
 18 17  2  0  0  0  0
 18 59  1  0  0  0  0
 19 21  2  0  0  0  0
 19 33  1  0  0  0  0
 20 22  1  0  0  0  0
 20 23  1  0  0  0  0
 22 60  1  0  0  0  0
 22 61  1  0  0  0  0
 22 62  1  0  0  0  0
 23 24  1  0  0  0  0
 23 25  2  0  0  0  0
 23 26  2  0  0  0  0
 24 63  1  0  0  0  0
 24 64  1  0  0  0  0
 24 65  1  0  0  0  0
 27 28  2  0  0  0  0
 27 32  1  0  0  0  0
 27 66  1  0  0  0  0
 28 29  1  0  0  0  0
 28 67  1  0  0  0  0
 29 30  2  0  0  0  0
 29 68  1  0  0  0  0
 30 31  1  0  0  0  0
 30 69  1  0  0  0  0
 31 32  2  0  0  0  0
 31 70  1  0  0  0  0
 32 12  1  0  0  0  0
 33 34  1  0  0  0  0
 33 71  1  0  0  0  0
 34 35  1  0  0  0  0
 34 36  1  0  0  0  0
 34 72  1  6  0  0  0
 35 73  1  0  0  0  0
 35 74  1  0  0  0  0
 35 75  1  0  0  0  0
 36 37  2  0  0  0  0
 36 41  1  0  0  0  0
 37 38  1  0  0  0  0
 37 76  1  0  0  0  0
 38 39  2  0  0  0  0
 38 77  1  0  0  0  0
 39 40  1  0  0  0  0
 39 78  1  0  0  0  0
 40 41  2  0  0  0  0
 40 79  1  0  0  0  0
 41 80  1  0  0  0  0
M  CHG  1   4   1
M  END
