2bcd_ligand
 OpenBabel08222323343D

112113  0  0  1  0  0  0  0  0999 V2000
   87.2070   54.4500   23.7770 N   0  0  0  0  0  0  0  0  0  0  0  0
   86.6930   55.7060   23.1800 C   0  0  1  0  0  0  0  0  0  0  0  0
   85.1660   55.6720   22.8970 C   0  0  0  0  0  0  0  0  0  0  0  0
   84.7940   56.2680   21.8580 O   0  5  0  0  0  0  0  0  0  0  0  0
   87.0220   56.9230   24.0930 C   0  0  0  0  0  0  0  0  0  0  0  0
   86.1940   56.8640   25.3920 C   0  0  0  0  0  0  0  0  0  0  0  0
   86.2170   58.0520   26.3710 C   0  0  0  0  0  0  0  0  0  0  0  0
   86.9360   59.0310   26.1400 O   0  0  0  0  0  0  0  0  0  0  0  0
   84.3960   55.0890   23.7150 O   0  0  0  0  0  0  0  0  0  0  0  0
   85.3580   57.9160   27.4240 N   0  0  0  0  0  0  0  0  0  0  0  0
   83.9740   58.3600   27.1000 C   0  0  0  0  0  0  0  0  0  0  0  0
   85.5630   57.2160   28.5970 C   0  0  2  0  0  0  0  0  0  0  0  0
   86.6070   56.1050   28.7950 C   0  0  0  0  0  0  0  0  0  0  0  0
   86.2800   55.1450   29.4910 O   0  0  0  0  0  0  0  0  0  0  0  0
   84.5280   56.6470   29.3770 C   0  0  0  0  0  0  0  0  0  0  0  0
   83.0900   56.9530   29.8430 C   0  0  0  0  0  0  0  0  0  0  0  0
   88.3560   53.8380   27.6460 C   0  0  0  0  0  0  0  0  0  0  0  0
   87.7590   54.0900   26.5630 O   0  5  0  0  0  0  0  0  0  0  0  0
   88.6510   52.7140   28.0970 O   0  0  0  0  0  0  0  0  0  0  0  0
   88.7390   55.0460   28.5100 C   0  0  2  0  0  0  0  0  0  0  0  0
   87.8090   56.1720   28.2650 N   0  0  0  0  0  0  0  0  0  0  0  0
   90.1860   55.4360   28.2200 C   0  0  1  0  0  0  0  0  0  0  0  0
   90.3290   55.9480   26.7970 C   0  0  0  0  0  0  0  0  0  0  0  0
   89.8420   57.0170   26.4160 O   0  0  0  0  0  0  0  0  0  0  0  0
   90.7280   56.4510   29.2400 C   0  0  0  0  0  0  0  0  0  0  0  0
   91.3150   55.2940   24.6180 C   0  0  2  0  0  0  0  0  0  0  0  0
   90.6160   54.2490   23.6720 C   0  0  0  0  0  0  0  0  0  0  0  0
   90.4460   54.4850   22.4720 O   0  0  0  0  0  0  0  0  0  0  0  0
   92.8570   55.2330   24.7680 C   0  0  0  0  0  0  0  0  0  0  0  0
   93.5680   56.5320   24.3810 C   0  0  0  0  0  0  0  0  0  0  0  0
   93.5210   53.9680   24.2400 C   0  0  0  0  0  0  0  0  0  0  0  0
   90.9810   55.0850   26.0400 N   0  0  0  0  0  0  0  0  0  0  0  0
   87.4370   53.3660   23.0430 C   0  0  0  0  0  0  0  0  0  0  0  0
   87.2490   53.3230   21.8390 O   0  0  0  0  0  0  0  0  0  0  0  0
   87.9820   52.1350   23.7680 C   0  0  1  0  0  0  0  0  0  0  0  0
   87.1960   50.8670   23.3390 C   0  0  0  0  0  0  0  0  0  0  0  0
   89.5110   52.0460   23.5050 C   0  0  1  0  0  0  0  0  0  0  0  0
   90.1880   53.1260   24.2470 N   0  0  0  0  0  0  0  0  0  0  0  0
   90.0080   50.6620   23.9220 C   0  0  0  0  0  0  0  0  0  0  0  0
   90.9220   49.9030   23.1980 C   0  0  0  0  0  0  0  0  0  0  0  0
   91.3110   48.6290   23.6400 C   0  0  0  0  0  0  0  0  0  0  0  0
   90.6970   48.0150   24.9250 C   0  0  0  0  0  0  0  0  0  0  0  0
   92.2440   47.9010   22.8950 C   0  0  0  0  0  0  0  0  0  0  0  0
   92.6930   46.4780   23.3160 C   0  0  2  0  0  0  0  0  0  0  0  0
   94.2370   46.4670   23.3310 C   0  0  0  0  0  0  0  0  0  0  0  0
   91.8840   45.3630   22.4850 C   0  0  1  0  0  0  0  0  0  0  0  0
   92.0840   45.3580   21.0190 O   0  0  0  0  0  0  0  0  0  0  0  0
   93.2750   44.9230   20.3980 C   0  0  0  0  0  0  0  0  0  0  0  0
   91.6500   43.8540   23.0960 C   0  0  0  0  0  0  0  0  0  0  0  0
   91.2670   42.6350   22.1260 C   0  0  0  0  0  0  0  0  0  0  0  0
   90.5530   42.7320   20.9050 C   0  0  0  0  0  0  0  0  0  0  0  0
   90.2940   41.5890   20.1200 C   0  0  0  0  0  0  0  0  0  0  0  0
   90.6990   40.3160   20.5290 C   0  0  0  0  0  0  0  0  0  0  0  0
   91.3980   40.1860   21.7270 C   0  0  0  0  0  0  0  0  0  0  0  0
   91.6380   41.3290   22.4980 C   0  0  0  0  0  0  0  0  0  0  0  0
   87.3858   54.4174   24.7603 H   0  0  0  0  0  0  0  0  0  0  0  0
   87.2079   55.8486   22.2185 H   0  0  0  0  0  0  0  0  0  0  0  0
   86.7857   57.8531   23.5553 H   0  0  0  0  0  0  0  0  0  0  0  0
   88.0925   56.9071   24.3453 H   0  0  0  0  0  0  0  0  0  0  0  0
   86.5428   55.9837   25.9519 H   0  0  0  0  0  0  0  0  0  0  0  0
   85.1452   56.7174   25.0944 H   0  0  0  0  0  0  0  0  0  0  0  0
   83.9771   58.8998   26.1415 H   0  0  0  0  0  0  0  0  0  0  0  0
   83.6071   59.0261   27.8947 H   0  0  0  0  0  0  0  0  0  0  0  0
   83.3155   57.4821   27.0243 H   0  0  0  0  0  0  0  0  0  0  0  0
   85.9397   58.0398   29.2210 H   0  0  0  0  0  0  0  0  0  0  0  0
   85.0397   56.4977   30.3392 H   0  0  0  0  0  0  0  0  0  0  0  0
   84.3917   55.6754   28.8795 H   0  0  0  0  0  0  0  0  0  0  0  0
   82.7244   56.1269   30.4706 H   0  0  0  0  0  0  0  0  0  0  0  0
   82.4360   57.0640   28.9656 H   0  0  0  0  0  0  0  0  0  0  0  0
   83.0840   57.8862   30.4252 H   0  0  0  0  0  0  0  0  0  0  0  0
   88.6615   54.7603   29.5694 H   0  0  0  0  0  0  0  0  0  0  0  0
   88.0862   56.9589   27.7137 H   0  0  0  0  0  0  0  0  0  0  0  0
   90.7970   54.5256   28.3085 H   0  0  0  0  0  0  0  0  0  0  0  0
   91.7699   56.7006   28.9907 H   0  0  0  0  0  0  0  0  0  0  0  0
   90.6869   56.0146   30.2489 H   0  0  0  0  0  0  0  0  0  0  0  0
   90.1151   57.3639   29.2101 H   0  0  0  0  0  0  0  0  0  0  0  0
   91.0086   56.2946   24.2790 H   0  0  0  0  0  0  0  0  0  0  0  0
   93.0078   55.1658   25.8555 H   0  0  0  0  0  0  0  0  0  0  0  0
   94.6531   56.4097   24.5138 H   0  0  0  0  0  0  0  0  0  0  0  0
   93.2102   57.3510   25.0222 H   0  0  0  0  0  0  0  0  0  0  0  0
   93.3519   56.7689   23.3288 H   0  0  0  0  0  0  0  0  0  0  0  0
   92.9453   53.0888   24.5649 H   0  0  0  0  0  0  0  0  0  0  0  0
   94.5462   53.9006   24.6329 H   0  0  0  0  0  0  0  0  0  0  0  0
   93.5509   54.0009   23.1409 H   0  0  0  0  0  0  0  0  0  0  0  0
   91.2701   54.2256   26.4617 H   0  0  0  0  0  0  0  0  0  0  0  0
   87.8319   52.2686   24.8495 H   0  0  0  0  0  0  0  0  0  0  0  0
   86.1269   51.0073   23.5564 H   0  0  0  0  0  0  0  0  0  0  0  0
   87.5723   49.9964   23.8961 H   0  0  0  0  0  0  0  0  0  0  0  0
   87.3318   50.6988   22.2605 H   0  0  0  0  0  0  0  0  0  0  0  0
   89.7043   52.1811   22.4306 H   0  0  0  0  0  0  0  0  0  0  0  0
   90.3328   53.0097   25.2296 H   0  0  0  0  0  0  0  0  0  0  0  0
   89.6203   50.2415   24.8487 H   0  0  0  0  0  0  0  0  0  0  0  0
   91.3412   50.3028   22.2759 H   0  0  0  0  0  0  0  0  0  0  0  0
   91.1300   47.0188   25.0984 H   0  0  0  0  0  0  0  0  0  0  0  0
   89.6074   47.9252   24.8040 H   0  0  0  0  0  0  0  0  0  0  0  0
   90.9182   48.6654   25.7841 H   0  0  0  0  0  0  0  0  0  0  0  0
   92.6665   48.3455   21.9951 H   0  0  0  0  0  0  0  0  0  0  0  0
   92.3869   46.3303   24.3622 H   0  0  0  0  0  0  0  0  0  0  0  0
   94.6036   47.3003   23.9485 H   0  0  0  0  0  0  0  0  0  0  0  0
   94.6145   46.5781   22.3038 H   0  0  0  0  0  0  0  0  0  0  0  0
   94.5929   45.5149   23.7515 H   0  0  0  0  0  0  0  0  0  0  0  0
   90.8660   45.7721   22.5646 H   0  0  0  0  0  0  0  0  0  0  0  0
   93.1748   45.0168   19.3066 H   0  0  0  0  0  0  0  0  0  0  0  0
   93.4621   43.8712   20.6600 H   0  0  0  0  0  0  0  0  0  0  0  0
   94.1160   45.5422   20.7435 H   0  0  0  0  0  0  0  0  0  0  0  0
   90.8398   43.9352   23.8355 H   0  0  0  0  0  0  0  0  0  0  0  0
   92.5835   43.5712   23.6044 H   0  0  0  0  0  0  0  0  0  0  0  0
   90.2003   43.7005   20.5692 H   0  0  0  0  0  0  0  0  0  0  0  0
   89.7689   41.7009   19.1783 H   0  0  0  0  0  0  0  0  0  0  0  0
   90.4733   39.4448   19.9248 H   0  0  0  0  0  0  0  0  0  0  0  0
   91.7503   39.2153   22.0566 H   0  0  0  0  0  0  0  0  0  0  0  0
   92.1447   41.1997   23.4475 H   0  0  0  0  0  0  0  0  0  0  0  0
  1 33  1  0  0  0  0
  1 56  1  0  0  0  0
  2  1  1  0  0  0  0
  2  3  1  0  0  0  0
  2 57  1  6  0  0  0
  3  4  1  0  0  0  0
  3  9  2  0  0  0  0
  5  2  1  0  0  0  0
  5 58  1  0  0  0  0
  5 59  1  0  0  0  0
  6  5  1  0  0  0  0
  6 60  1  0  0  0  0
  6 61  1  0  0  0  0
  7  6  1  0  0  0  0
  7  8  2  0  0  0  0
 10  7  1  0  0  0  0
 10 11  1  0  0  0  0
 11 62  1  0  0  0  0
 11 63  1  0  0  0  0
 11 64  1  0  0  0  0
 12 10  1  0  0  0  0
 12 15  1  0  0  0  0
 12 65  1  1  0  0  0
 13 12  1  0  0  0  0
 13 14  2  0  0  0  0
 15 16  1  0  0  0  0
 15 66  1  0  0  0  0
 15 67  1  0  0  0  0
 16 68  1  0  0  0  0
 16 69  1  0  0  0  0
 16 70  1  0  0  0  0
 17 18  1  0  0  0  0
 17 19  2  0  0  0  0
 20 17  1  0  0  0  0
 20 21  1  0  0  0  0
 20 71  1  1  0  0  0
 21 13  1  0  0  0  0
 21 72  1  0  0  0  0
 22 20  1  0  0  0  0
 22 25  1  0  0  0  0
 22 73  1  1  0  0  0
 23 22  1  0  0  0  0
 23 24  2  0  0  0  0
 25 74  1  0  0  0  0
 25 75  1  0  0  0  0
 25 76  1  0  0  0  0
 26 27  1  0  0  0  0
 26 29  1  0  0  0  0
 26 32  1  0  0  0  0
 26 77  1  6  0  0  0
 27 28  2  0  0  0  0
 27 38  1  0  0  0  0
 29 30  1  0  0  0  0
 29 31  1  0  0  0  0
 29 78  1  0  0  0  0
 30 79  1  0  0  0  0
 30 80  1  0  0  0  0
 30 81  1  0  0  0  0
 31 82  1  0  0  0  0
 31 83  1  0  0  0  0
 31 84  1  0  0  0  0
 32 23  1  0  0  0  0
 32 85  1  0  0  0  0
 33 34  2  0  0  0  0
 33 35  1  0  0  0  0
 35 36  1  0  0  0  0
 35 37  1  0  0  0  0
 35 86  1  1  0  0  0
 36 87  1  0  0  0  0
 36 88  1  0  0  0  0
 36 89  1  0  0  0  0
 37 38  1  0  0  0  0
 37 39  1  0  0  0  0
 37 90  1  6  0  0  0
 38 91  1  0  0  0  0
 39 40  2  0  0  0  0
 39 92  1  0  0  0  0
 40 41  1  0  0  0  0
 40 93  1  0  0  0  0
 41 42  1  0  0  0  0
 41 43  2  0  0  0  0
 42 94  1  0  0  0  0
 42 95  1  0  0  0  0
 42 96  1  0  0  0  0
 43 44  1  0  0  0  0
 43 97  1  0  0  0  0
 44 45  1  0  0  0  0
 44 46  1  0  0  0  0
 44 98  1  1  0  0  0
 45 99  1  0  0  0  0
 45100  1  0  0  0  0
 45101  1  0  0  0  0
 46 47  1  0  0  0  0
 46 49  1  0  0  0  0
 46102  1  1  0  0  0
 47 48  1  0  0  0  0
 48103  1  0  0  0  0
 48104  1  0  0  0  0
 48105  1  0  0  0  0
 49 50  1  0  0  0  0
 49106  1  0  0  0  0
 49107  1  0  0  0  0
 50 51  2  0  0  0  0
 50 55  1  0  0  0  0
 51 52  1  0  0  0  0
 51108  1  0  0  0  0
 52 53  2  0  0  0  0
 52109  1  0  0  0  0
 53 54  1  0  0  0  0
 53110  1  0  0  0  0
 54 55  2  0  0  0  0
 54111  1  0  0  0  0
 55112  1  0  0  0  0
M  CHG  2   4  -1  18  -1
M  END
