2bdj_ligand
 OpenBabel08222323343D

 64 68  0  0  0  0  0  0  0  0999 V2000
   17.0690    2.1400   26.1050 N   0  0  0  0  0  0  0  0  0  0  0  0
   18.1970    1.4350   26.2480 C   0  0  0  0  0  0  0  0  0  0  0  0
   19.1170    2.2550   25.7630 N   0  0  0  0  0  0  0  0  0  0  0  0
   18.6500    3.5300   25.2770 C   0  0  0  0  0  0  0  0  0  0  0  0
   19.1210    4.7110   24.7170 C   0  0  0  0  0  0  0  0  0  0  0  0
   20.4280    4.8380   24.5160 N   0  0  0  0  0  0  0  0  0  0  0  0
   18.2230    5.6640   24.4230 N   0  0  0  0  0  0  0  0  0  0  0  0
   16.8940    5.6030   24.6160 C   0  0  0  0  0  0  0  0  0  0  0  0
   16.3710    4.4830   25.1720 N   0  0  0  0  0  0  0  0  0  0  0  0
   17.1600    3.4380   25.5180 C   0  0  0  0  0  0  0  0  0  0  0  0
   15.7220    1.7180   26.5030 C   0  0  0  0  0  0  0  0  0  0  0  0
   15.0720    2.6080   27.4620 C   0  0  0  0  0  0  0  0  0  0  0  0
   13.6770    2.0520   27.8160 C   0  0  0  0  0  0  0  0  0  0  0  0
   13.4000    1.7130   29.1920 C   0  0  0  0  0  0  0  0  0  0  0  0
   12.1030    1.1830   29.5460 C   0  0  0  0  0  0  0  0  0  0  0  0
   11.1000    0.9980   28.5230 C   0  0  0  0  0  0  0  0  0  0  0  0
   11.3660    1.3330   27.1510 C   0  0  0  0  0  0  0  0  0  0  0  0
   12.6510    1.8590   26.7930 C   0  0  0  0  0  0  0  0  0  0  0  0
   10.4090    1.1500   26.2080 O   0  0  0  0  0  0  0  0  0  0  0  0
   21.1460    5.7590   24.0730 C   0  0  0  0  0  0  0  0  0  0  0  0
   22.5510    5.7410   23.9120 C   0  0  0  0  0  0  0  0  0  0  0  0
   23.2150    6.8620   23.4240 C   0  0  0  0  0  0  0  0  0  0  0  0
   22.4780    8.0230   23.0910 C   0  0  0  0  0  0  0  0  0  0  0  0
   21.0780    8.0720   23.2360 C   0  0  0  0  0  0  0  0  0  0  0  0
   20.4090    6.9450   23.7270 C   0  0  0  0  0  0  0  0  0  0  0  0
   23.3330    9.4870   22.4770 P   0  0  0  0  0  0  0  0  0  0  0  0
   24.3630    9.7910   23.5950 O   0  0  0  0  0  0  0  0  0  0  0  0
   23.9430    8.9390   21.1580 C   0  0  0  0  0  0  0  0  0  0  0  0
   22.3830   10.6100   22.1840 C   0  0  0  0  0  0  0  0  0  0  0  0
   15.9510    6.6860   24.2550 C   0  0  0  0  0  0  0  0  0  0  0  0
   16.2520    7.1620   22.7930 C   0  0  0  0  0  0  0  0  0  0  0  0
   16.2990    8.6980   22.7830 C   0  0  0  0  0  0  0  0  0  0  0  0
   16.0220    9.1620   24.2130 C   0  0  0  0  0  0  0  0  0  0  0  0
   16.0690    7.9310   25.1540 C   0  0  0  0  0  0  0  0  0  0  0  0
   18.3265    0.4355   26.6606 H   0  0  0  0  0  0  0  0  0  0  0  0
   20.9628    3.9988   24.7819 H   0  0  0  0  0  0  0  0  0  0  0  0
   15.7938    0.7178   26.9552 H   0  0  0  0  0  0  0  0  0  0  0  0
   15.0957    1.6681   25.6001 H   0  0  0  0  0  0  0  0  0  0  0  0
   14.9660    3.6094   27.0194 H   0  0  0  0  0  0  0  0  0  0  0  0
   15.6830    2.6731   28.3743 H   0  0  0  0  0  0  0  0  0  0  0  0
   14.1587    1.8549   29.9532 H   0  0  0  0  0  0  0  0  0  0  0  0
   11.8835    0.9251   30.5758 H   0  0  0  0  0  0  0  0  0  0  0  0
   10.1294    0.5994   28.7951 H   0  0  0  0  0  0  0  0  0  0  0  0
   12.8621    2.1142   25.7608 H   0  0  0  0  0  0  0  0  0  0  0  0
    9.6271    0.7971   26.6162 H   0  0  0  0  0  0  0  0  0  0  0  0
   23.1127    4.8504   24.1698 H   0  0  0  0  0  0  0  0  0  0  0  0
   24.2917    6.8460   23.2995 H   0  0  0  0  0  0  0  0  0  0  0  0
   20.5277    8.9678   22.9717 H   0  0  0  0  0  0  0  0  0  0  0  0
   19.3319    6.9659   23.8470 H   0  0  0  0  0  0  0  0  0  0  0  0
   24.5094    9.7375   20.6565 H   0  0  0  0  0  0  0  0  0  0  0  0
   23.1353    8.5917   20.4970 H   0  0  0  0  0  0  0  0  0  0  0  0
   24.6164    8.0997   21.3863 H   0  0  0  0  0  0  0  0  0  0  0  0
   22.9460   11.4792   21.8133 H   0  0  0  0  0  0  0  0  0  0  0  0
   21.8465   10.8858   23.1038 H   0  0  0  0  0  0  0  0  0  0  0  0
   21.6598   10.2886   21.4200 H   0  0  0  0  0  0  0  0  0  0  0  0
   14.9256    6.2930   24.3186 H   0  0  0  0  0  0  0  0  0  0  0  0
   15.4587    6.8102   22.1170 H   0  0  0  0  0  0  0  0  0  0  0  0
   17.2206    6.7586   22.4629 H   0  0  0  0  0  0  0  0  0  0  0  0
   15.5322    9.0952   22.1016 H   0  0  0  0  0  0  0  0  0  0  0  0
   17.2918    9.0436   22.4592 H   0  0  0  0  0  0  0  0  0  0  0  0
   15.0274    9.6291   24.2643 H   0  0  0  0  0  0  0  0  0  0  0  0
   16.7860    9.8915   24.5198 H   0  0  0  0  0  0  0  0  0  0  0  0
   17.0200    7.9116   25.7065 H   0  0  0  0  0  0  0  0  0  0  0  0
   15.2316    7.9656   25.8664 H   0  0  0  0  0  0  0  0  0  0  0  0
  1  2  1  0  0  0  0
  1 10  1  0  0  0  0
  1 11  1  0  0  0  0
  2  3  2  0  0  0  0
  2 35  1  0  0  0  0
  3  4  1  0  0  0  0
  4  5  2  0  0  0  0
  4 10  1  0  0  0  0
  5  6  1  0  0  0  0
  5  7  1  0  0  0  0
  6 20  1  0  0  0  0
  6 36  1  0  0  0  0
  7  8  2  0  0  0  0
  8  9  1  0  0  0  0
  8 30  1  0  0  0  0
  9 10  2  0  0  0  0
 11 12  1  0  0  0  0
 11 37  1  0  0  0  0
 11 38  1  0  0  0  0
 12 13  1  0  0  0  0
 12 39  1  0  0  0  0
 12 40  1  0  0  0  0
 13 14  2  0  0  0  0
 13 18  1  0  0  0  0
 14 15  1  0  0  0  0
 14 41  1  0  0  0  0
 15 16  2  0  0  0  0
 15 42  1  0  0  0  0
 16 17  1  0  0  0  0
 16 43  1  0  0  0  0
 17 18  2  0  0  0  0
 17 19  1  0  0  0  0
 18 44  1  0  0  0  0
 19 45  1  0  0  0  0
 20 21  2  0  0  0  0
 20 25  1  0  0  0  0
 21 22  1  0  0  0  0
 21 46  1  0  0  0  0
 22 23  2  0  0  0  0
 22 47  1  0  0  0  0
 23 24  1  0  0  0  0
 23 26  1  0  0  0  0
 24 25  2  0  0  0  0
 24 48  1  0  0  0  0
 25 49  1  0  0  0  0
 26 27  2  0  0  0  0
 26 28  1  0  0  0  0
 26 29  1  0  0  0  0
 28 50  1  0  0  0  0
 28 51  1  0  0  0  0
 28 52  1  0  0  0  0
 29 53  1  0  0  0  0
 29 54  1  0  0  0  0
 29 55  1  0  0  0  0
 30 31  1  0  0  0  0
 30 34  1  0  0  0  0
 30 56  1  0  0  0  0
 31 32  1  0  0  0  0
 31 57  1  0  0  0  0
 31 58  1  0  0  0  0
 32 33  1  0  0  0  0
 32 59  1  0  0  0  0
 32 60  1  0  0  0  0
 33 34  1  0  0  0  0
 33 61  1  0  0  0  0
 33 62  1  0  0  0  0
 34 63  1  0  0  0  0
 34 64  1  0  0  0  0
M  END
