2bdl_ligand
 OpenBabel08222323343D

 80 82  0  0  1  0  0  0  0  0999 V2000
   73.6880   93.3360  163.1710 C   0  0  0  0  0  0  0  0  0  0  0  0
   74.8140   94.2470  162.7650 C   0  0  0  0  0  0  0  0  0  0  0  0
   75.4970   94.7630  164.0060 C   0  0  0  0  0  0  0  0  0  0  0  0
   76.9670   94.4400  163.9220 C   0  0  0  0  0  0  0  0  0  0  0  0
   77.7540   95.2610  164.9210 C   0  0  2  0  0  0  0  0  0  0  0  0
   77.8600   96.5960  164.3880 N   0  0  0  0  0  0  0  0  0  0  0  0
   77.3860   97.6910  165.0670 C   0  0  0  0  0  0  0  0  0  0  0  0
   76.7810   97.6850  166.1280 O   0  0  0  0  0  0  0  0  0  0  0  0
   77.7080   98.8080  164.3680 O   0  0  0  0  0  0  0  0  0  0  0  0
   77.2310  100.0130  164.9500 C   0  0  2  0  0  0  0  0  0  0  0  0
   75.8370  100.2550  164.4240 C   0  0  0  0  0  0  0  0  0  0  0  0
   76.0300  101.1070  163.2860 N   0  0  0  0  0  0  0  0  0  0  0  0
   77.3380  101.7040  163.2270 C   0  0  0  0  0  0  0  0  0  0  0  0
   78.0740  101.1610  164.4330 C   0  0  0  0  0  0  0  0  0  0  0  0
   78.2030  102.2490  165.4760 C   0  0  0  0  0  0  0  0  0  0  0  0
   79.4580  100.6890  164.0530 C   0  0  0  0  0  0  0  0  0  0  0  0
   74.9900  101.4140  162.4370 C   0  0  0  0  0  0  0  0  0  0  0  0
   73.8350  101.0580  162.6400 O   0  0  0  0  0  0  0  0  0  0  0  0
   75.3870  102.1560  161.3500 N   0  0  0  0  0  0  0  0  0  0  0  0
   74.7040  102.0470  160.1560 C   0  0  0  0  0  0  0  0  0  0  0  0
   74.6450  100.9520  159.2600 C   0  0  0  0  0  0  0  0  0  0  0  0
   75.3000   99.6420  159.3680 C   0  0  0  0  0  0  0  0  0  0  0  0
   73.8750  101.2310  158.2020 N   0  0  0  0  0  0  0  0  0  0  0  0
   73.4180  102.5330  158.4030 O   0  0  0  0  0  0  0  0  0  0  0  0
   73.9200  103.0140  159.5740 C   0  0  0  0  0  0  0  0  0  0  0  0
   73.5430  104.3850  159.9520 C   0  0  0  0  0  0  0  0  0  0  0  0
   79.1750   94.7640  164.9490 C   0  0  2  0  0  0  0  0  0  0  0  0
   80.0290   95.1870  163.9000 O   0  0  0  0  0  0  0  0  0  0  0  0
   79.2640   93.2730  165.1390 C   0  0  0  0  0  0  0  0  0  0  0  0
   78.8120   92.7640  166.1540 O   0  0  0  0  0  0  0  0  0  0  0  0
   79.8630   92.6270  164.0760 N   0  0  0  0  0  0  0  0  0  0  0  0
   80.0080   91.1840  164.0450 C   0  0  2  0  0  0  0  0  0  0  0  0
   80.8940   90.7620  162.8960 C   0  0  0  0  0  0  0  0  0  0  0  0
   78.7020   90.4690  163.9270 C   0  0  0  0  0  0  0  0  0  0  0  0
   78.5010   89.2980  164.6270 C   0  0  0  0  0  0  0  0  0  0  0  0
   77.3040   88.6240  164.5300 C   0  0  0  0  0  0  0  0  0  0  0  0
   76.2970   89.1200  163.7330 C   0  0  0  0  0  0  0  0  0  0  0  0
   76.4930   90.2870  163.0320 C   0  0  0  0  0  0  0  0  0  0  0  0
   77.6910   90.9590  163.1270 C   0  0  0  0  0  0  0  0  0  0  0  0
   73.1830   92.9540  162.2715 H   0  0  0  0  0  0  0  0  0  0  0  0
   72.9677   93.8950  163.7864 H   0  0  0  0  0  0  0  0  0  0  0  0
   74.0898   92.4927  163.7519 H   0  0  0  0  0  0  0  0  0  0  0  0
   74.4144   95.0920  162.1852 H   0  0  0  0  0  0  0  0  0  0  0  0
   75.5365   93.6898  162.1507 H   0  0  0  0  0  0  0  0  0  0  0  0
   75.0629   94.2810  164.8944 H   0  0  0  0  0  0  0  0  0  0  0  0
   75.3614   95.8523  164.0767 H   0  0  0  0  0  0  0  0  0  0  0  0
   77.3282   94.6631  162.9072 H   0  0  0  0  0  0  0  0  0  0  0  0
   77.1146   93.3714  164.1371 H   0  0  0  0  0  0  0  0  0  0  0  0
   77.2875   95.2408  165.9170 H   0  0  0  0  0  0  0  0  0  0  0  0
   78.2922   96.7287  163.4960 H   0  0  0  0  0  0  0  0  0  0  0  0
   77.2491   99.9597  166.0486 H   0  0  0  0  0  0  0  0  0  0  0  0
   75.2154  100.7531  165.1826 H   0  0  0  0  0  0  0  0  0  0  0  0
   75.3633   99.3081  164.1258 H   0  0  0  0  0  0  0  0  0  0  0  0
   77.2649  102.8003  163.2806 H   0  0  0  0  0  0  0  0  0  0  0  0
   77.8526  101.4157  162.2985 H   0  0  0  0  0  0  0  0  0  0  0  0
   78.7378  101.8549  166.3527 H   0  0  0  0  0  0  0  0  0  0  0  0
   77.2011  102.5870  165.7792 H   0  0  0  0  0  0  0  0  0  0  0  0
   78.7639  103.0962  165.0547 H   0  0  0  0  0  0  0  0  0  0  0  0
   79.3796   99.8966  163.2941 H   0  0  0  0  0  0  0  0  0  0  0  0
   79.9683  100.2943  164.9439 H   0  0  0  0  0  0  0  0  0  0  0  0
   80.0337  101.5325  163.6442 H   0  0  0  0  0  0  0  0  0  0  0  0
   76.1697  102.7739  161.4245 H   0  0  0  0  0  0  0  0  0  0  0  0
   75.0382   99.0280  158.4937 H   0  0  0  0  0  0  0  0  0  0  0  0
   74.9617   99.1373  160.2850 H   0  0  0  0  0  0  0  0  0  0  0  0
   76.3907   99.7794  159.4062 H   0  0  0  0  0  0  0  0  0  0  0  0
   72.8838  104.8098  159.1807 H   0  0  0  0  0  0  0  0  0  0  0  0
   74.4486  105.0030  160.0412 H   0  0  0  0  0  0  0  0  0  0  0  0
   73.0147  104.3673  160.9166 H   0  0  0  0  0  0  0  0  0  0  0  0
   79.6044   95.2077  165.8593 H   0  0  0  0  0  0  0  0  0  0  0  0
   80.8926   94.8116  164.0254 H   0  0  0  0  0  0  0  0  0  0  0  0
   80.2057   93.1677  163.3077 H   0  0  0  0  0  0  0  0  0  0  0  0
   80.4839   90.8746  164.9872 H   0  0  0  0  0  0  0  0  0  0  0  0
   80.9906   89.6663  162.8907 H   0  0  0  0  0  0  0  0  0  0  0  0
   81.8885   91.2171  163.0135 H   0  0  0  0  0  0  0  0  0  0  0  0
   80.4479   91.0953  161.9474 H   0  0  0  0  0  0  0  0  0  0  0  0
   79.2904   88.9055  165.2578 H   0  0  0  0  0  0  0  0  0  0  0  0
   77.1547   87.7027  165.0813 H   0  0  0  0  0  0  0  0  0  0  0  0
   75.3529   88.5926  163.6582 H   0  0  0  0  0  0  0  0  0  0  0  0
   75.7020   90.6789  162.4029 H   0  0  0  0  0  0  0  0  0  0  0  0
   77.8402   91.8772  162.5706 H   0  0  0  0  0  0  0  0  0  0  0  0
  1  2  1  0  0  0  0
  1 40  1  0  0  0  0
  1 41  1  0  0  0  0
  1 42  1  0  0  0  0
  2  3  1  0  0  0  0
  2 43  1  0  0  0  0
  2 44  1  0  0  0  0
  3  4  1  0  0  0  0
  3 45  1  0  0  0  0
  3 46  1  0  0  0  0
  4  5  1  0  0  0  0
  4 47  1  0  0  0  0
  4 48  1  0  0  0  0
  5  6  1  0  0  0  0
  5 27  1  0  0  0  0
  5 49  1  1  0  0  0
  6  7  1  0  0  0  0
  6 50  1  0  0  0  0
  7  8  2  0  0  0  0
  7  9  1  0  0  0  0
  9 10  1  0  0  0  0
 10 11  1  0  0  0  0
 10 14  1  0  0  0  0
 10 51  1  1  0  0  0
 11 12  1  0  0  0  0
 11 52  1  0  0  0  0
 11 53  1  0  0  0  0
 12 13  1  0  0  0  0
 12 17  1  0  0  0  0
 13 14  1  0  0  0  0
 13 54  1  0  0  0  0
 13 55  1  0  0  0  0
 14 15  1  0  0  0  0
 14 16  1  0  0  0  0
 15 56  1  0  0  0  0
 15 57  1  0  0  0  0
 15 58  1  0  0  0  0
 16 59  1  0  0  0  0
 16 60  1  0  0  0  0
 16 61  1  0  0  0  0
 17 18  2  0  0  0  0
 17 19  1  0  0  0  0
 19 20  1  0  0  0  0
 19 62  1  0  0  0  0
 20 21  1  0  0  0  0
 20 25  2  0  0  0  0
 21 22  1  0  0  0  0
 21 23  2  0  0  0  0
 22 63  1  0  0  0  0
 22 64  1  0  0  0  0
 22 65  1  0  0  0  0
 23 24  1  0  0  0  0
 24 25  1  0  0  0  0
 25 26  1  0  0  0  0
 26 66  1  0  0  0  0
 26 67  1  0  0  0  0
 26 68  1  0  0  0  0
 27 28  1  0  0  0  0
 27 29  1  0  0  0  0
 27 69  1  1  0  0  0
 28 70  1  0  0  0  0
 29 30  2  0  0  0  0
 29 31  1  0  0  0  0
 31 32  1  0  0  0  0
 31 71  1  0  0  0  0
 32 33  1  0  0  0  0
 32 34  1  0  0  0  0
 32 72  1  1  0  0  0
 33 73  1  0  0  0  0
 33 74  1  0  0  0  0
 33 75  1  0  0  0  0
 34 35  2  0  0  0  0
 34 39  1  0  0  0  0
 35 36  1  0  0  0  0
 35 76  1  0  0  0  0
 36 37  2  0  0  0  0
 36 77  1  0  0  0  0
 37 38  1  0  0  0  0
 37 78  1  0  0  0  0
 38 39  2  0  0  0  0
 38 79  1  0  0  0  0
 39 80  1  0  0  0  0
M  END
