2bdy_ligand
 OpenBabel08222323343D

 63 66  0  0  0  0  0  0  0  0999 V2000
   20.7730  -15.7630   25.1970 C   0  0  0  0  0  0  0  0  0  0  0  0
   19.7560  -14.7970   25.2590 C   0  0  0  0  0  0  0  0  0  0  0  0
   22.0820  -15.3890   25.5670 C   0  0  0  0  0  0  0  0  0  0  0  0
   20.4800  -17.0900   24.7620 C   0  0  0  0  0  0  0  0  0  0  0  0
   18.1500  -15.2810   24.7380 S   0  0  0  0  0  0  0  0  0  0  0  0
   20.0510  -13.5120   25.6510 C   0  0  0  0  0  0  0  0  0  0  0  0
   22.3460  -14.0680   25.9880 C   0  0  0  0  0  0  0  0  0  0  0  0
   23.0970  -16.3770   25.5030 C   0  0  0  0  0  0  0  0  0  0  0  0
   21.4850  -18.0050   24.7050 C   0  0  0  0  0  0  0  0  0  0  0  0
   18.2180  -15.5590   23.1080 N   0  0  0  0  0  0  0  0  0  0  0  0
   17.7240  -16.5010   25.3350 O   0  0  0  0  0  0  0  0  0  0  0  0
   17.3620  -14.0810   24.8500 O   0  0  0  0  0  0  0  0  0  0  0  0
   21.3500  -13.1390   26.0200 C   0  0  0  0  0  0  0  0  0  0  0  0
   22.7840  -17.6480   25.0760 C   0  0  0  0  0  0  0  0  0  0  0  0
   18.9290  -14.6790   22.2620 C   0  0  0  0  0  0  0  0  0  0  0  0
   18.3360  -13.4950   21.8220 C   0  0  0  0  0  0  0  0  0  0  0  0
   20.2390  -14.9730   21.8500 C   0  0  0  0  0  0  0  0  0  0  0  0
   19.0350  -12.6410   20.9820 C   0  0  0  0  0  0  0  0  0  0  0  0
   17.0700  -13.1930   22.2140 O   0  0  0  0  0  0  0  0  0  0  0  0
   20.9530  -14.1300   21.0190 C   0  0  0  0  0  0  0  0  0  0  0  0
   20.3370  -12.9520   20.5700 C   0  0  0  0  0  0  0  0  0  0  0  0
   18.3560  -11.3540   20.5110 C   0  0  0  0  0  0  0  0  0  0  0  0
   21.1040  -12.0310   19.6640 C   0  0  0  0  0  0  0  0  0  0  0  0
   17.0430  -11.6320   19.8090 C   0  0  0  0  0  0  0  0  0  0  0  0
   16.0100  -10.8010   20.0620 N   0  0  0  0  0  0  0  0  0  0  0  0
   16.9330  -12.5650   19.0390 O   0  0  0  0  0  0  0  0  0  0  0  0
   14.6970  -10.9980   19.4510 C   0  0  0  0  0  0  0  0  0  0  0  0
   13.7410  -10.8880   20.5970 C   0  0  0  0  0  0  0  0  0  0  0  0
   13.2000   -9.6630   20.9560 C   0  0  0  0  0  0  0  0  0  0  0  0
   13.4110  -12.0140   21.3230 C   0  0  0  0  0  0  0  0  0  0  0  0
   12.3390   -9.5790   22.0380 C   0  0  0  0  0  0  0  0  0  0  0  0
   12.5430  -11.9540   22.3940 C   0  0  0  0  0  0  0  0  0  0  0  0
   11.9680  -10.7180   22.7430 C   0  0  0  0  0  0  0  0  0  0  0  0
   11.0290  -10.6170   23.8790 C   0  0  0  0  0  3  0  0  0  0  0  0
   10.3170  -11.7390   24.2800 N   0  0  0  0  0  0  0  0  0  0  0  0
   10.8500   -9.4770   24.4980 N   0  0  0  0  0  0  0  0  0  0  0  0
   19.4700  -17.3653   24.4807 H   0  0  0  0  0  0  0  0  0  0  0  0
   19.2602  -12.7709   25.6750 H   0  0  0  0  0  0  0  0  0  0  0  0
   23.3498  -13.7902   26.2884 H   0  0  0  0  0  0  0  0  0  0  0  0
   24.1138  -16.1330   25.7887 H   0  0  0  0  0  0  0  0  0  0  0  0
   21.2773  -19.0150   24.3705 H   0  0  0  0  0  0  0  0  0  0  0  0
   17.7530  -16.3546   22.7196 H   0  0  0  0  0  0  0  0  0  0  0  0
   21.5606  -12.1212   26.3280 H   0  0  0  0  0  0  0  0  0  0  0  0
   23.5688  -18.3941   25.0261 H   0  0  0  0  0  0  0  0  0  0  0  0
   20.7047  -15.8893   22.1943 H   0  0  0  0  0  0  0  0  0  0  0  0
   16.7433  -13.8804   22.7827 H   0  0  0  0  0  0  0  0  0  0  0  0
   21.9663  -14.3736   20.7209 H   0  0  0  0  0  0  0  0  0  0  0  0
   19.0281  -10.8319   19.8141 H   0  0  0  0  0  0  0  0  0  0  0  0
   18.1636  -10.7134   21.3842 H   0  0  0  0  0  0  0  0  0  0  0  0
   20.4786  -11.1627   19.4092 H   0  0  0  0  0  0  0  0  0  0  0  0
   21.3793  -12.5672   18.7438 H   0  0  0  0  0  0  0  0  0  0  0  0
   22.0156  -11.6887   20.1756 H   0  0  0  0  0  0  0  0  0  0  0  0
   16.1466  -10.0300   20.6840 H   0  0  0  0  0  0  0  0  0  0  0  0
   14.6301  -11.9901   18.9805 H   0  0  0  0  0  0  0  0  0  0  0  0
   14.4958  -10.2211   18.6987 H   0  0  0  0  0  0  0  0  0  0  0  0
   13.4503   -8.7724   20.3910 H   0  0  0  0  0  0  0  0  0  0  0  0
   13.8439  -12.9683   21.0455 H   0  0  0  0  0  0  0  0  0  0  0  0
   11.9498   -8.6130   22.3386 H   0  0  0  0  0  0  0  0  0  0  0  0
   12.3069  -12.8481   22.9596 H   0  0  0  0  0  0  0  0  0  0  0  0
    9.6604  -11.6767   25.0711 H   0  0  0  0  0  0  0  0  0  0  0  0
   10.4452  -12.6339   23.7864 H   0  0  0  0  0  0  0  0  0  0  0  0
   11.3767   -8.6425   24.2029 H   0  0  0  0  0  0  0  0  0  0  0  0
   10.1825   -9.4148   25.2799 H   0  0  0  0  0  0  0  0  0  0  0  0
  1  2  2  0  0  0  0
  1  3  1  0  0  0  0
  1  4  1  0  0  0  0
  2  5  1  0  0  0  0
  2  6  1  0  0  0  0
  3  7  2  0  0  0  0
  3  8  1  0  0  0  0
  4  9  2  0  0  0  0
  4 37  1  0  0  0  0
  5 10  1  0  0  0  0
  5 11  2  0  0  0  0
  5 12  2  0  0  0  0
  6 13  2  0  0  0  0
  6 38  1  0  0  0  0
  7 13  1  0  0  0  0
  7 39  1  0  0  0  0
  8 14  2  0  0  0  0
  8 40  1  0  0  0  0
  9 14  1  0  0  0  0
  9 41  1  0  0  0  0
 10 15  1  0  0  0  0
 10 42  1  0  0  0  0
 13 43  1  0  0  0  0
 14 44  1  0  0  0  0
 15 16  2  0  0  0  0
 15 17  1  0  0  0  0
 16 18  1  0  0  0  0
 16 19  1  0  0  0  0
 17 20  2  0  0  0  0
 17 45  1  0  0  0  0
 18 21  2  0  0  0  0
 18 22  1  0  0  0  0
 19 46  1  0  0  0  0
 20 21  1  0  0  0  0
 20 47  1  0  0  0  0
 21 23  1  0  0  0  0
 22 24  1  0  0  0  0
 22 48  1  0  0  0  0
 22 49  1  0  0  0  0
 23 50  1  0  0  0  0
 23 51  1  0  0  0  0
 23 52  1  0  0  0  0
 24 25  1  0  0  0  0
 24 26  2  0  0  0  0
 25 27  1  0  0  0  0
 25 53  1  0  0  0  0
 27 28  1  0  0  0  0
 27 54  1  0  0  0  0
 27 55  1  0  0  0  0
 28 29  2  0  0  0  0
 28 30  1  0  0  0  0
 29 31  1  0  0  0  0
 29 56  1  0  0  0  0
 30 32  2  0  0  0  0
 30 57  1  0  0  0  0
 31 33  2  0  0  0  0
 31 58  1  0  0  0  0
 32 33  1  0  0  0  0
 32 59  1  0  0  0  0
 33 34  1  0  0  0  0
 34 35  1  0  0  0  0
 34 36  1  0  0  0  0
 35 60  1  0  0  0  0
 35 61  1  0  0  0  0
 36 62  1  0  0  0  0
 36 63  1  0  0  0  0
M  END
