2bed_ligand
 OpenBabel08222323343D

 62 66  0  0  1  0  0  0  0  0999 V2000
  185.9370  127.8630   31.8270 C   0  0  0  0  0  0  0  0  0  0  0  0
  186.8300  128.8640   31.6440 N   0  0  0  0  0  0  0  0  0  0  0  0
  188.1260  128.7740   32.0570 C   0  0  0  0  0  0  0  0  0  0  0  0
  188.6020  127.5960   32.7160 C   0  0  0  0  0  0  0  0  0  0  0  0
  187.6780  126.5400   32.9080 C   0  0  0  0  0  0  0  0  0  0  0  0
  186.3340  126.6630   32.4680 C   0  0  0  0  0  0  0  0  0  0  0  0
  189.0210  129.9510   31.7940 C   0  0  2  0  0  0  0  0  0  0  0  0
  190.2490  129.6520   30.9710 C   0  0  0  0  0  0  0  0  0  0  0  0
  191.2500  128.6940   31.3930 C   0  0  0  0  0  0  0  0  0  0  0  0
  191.1640  127.9720   32.7110 C   0  0  0  0  0  0  0  0  0  0  0  0
  190.0000  127.4620   33.2390 C   0  0  0  0  0  0  0  0  0  0  0  0
  190.4210  130.3520   29.7390 C   0  0  0  0  0  0  0  0  0  0  0  0
  191.5670  130.1200   28.9280 C   0  0  0  0  0  0  0  0  0  0  0  0
  192.5560  129.1840   29.3450 C   0  0  0  0  0  0  0  0  0  0  0  0
  192.3910  128.4680   30.5630 C   0  0  0  0  0  0  0  0  0  0  0  0
  189.3540  130.7120   33.1190 C   0  0  0  0  0  0  0  0  0  0  0  0
  190.2730  131.9090   32.8760 C   0  0  0  0  0  0  0  0  0  0  0  0
  190.4450  132.7760   34.1040 C   0  0  0  0  0  0  0  0  0  0  0  0
  189.1180  133.1940   34.5830 N   0  0  0  0  0  0  0  0  0  0  0  0
  188.3360  132.0350   35.0310 C   0  0  0  0  0  0  0  0  0  0  0  0
  188.0760  131.1290   33.8480 C   0  0  0  0  0  0  0  0  0  0  0  0
  193.9760  128.9400   28.3890 Cl  0  0  0  0  0  0  0  0  0  0  0  0
  188.9180  134.7300   35.3610 S   0  0  0  0  0  0  0  0  0  0  0  0
  192.4340  127.7980   33.4510 N   0  0  0  0  0  0  0  0  0  0  0  0
  192.9810  129.0700   33.9340 C   0  0  0  0  0  0  0  0  0  0  0  0
  192.4000  126.8280   34.5540 C   0  0  0  0  0  0  0  0  0  0  0  0
  194.4120  128.8420   34.3890 C   0  0  0  0  0  0  0  0  0  0  0  0
  193.8200  126.5750   35.0230 C   0  0  0  0  0  0  0  0  0  0  0  0
  194.4340  127.8390   35.4650 N   0  3  0  0  0  0  0  0  0  0  0  0
  187.5460  134.7480   35.7770 O   0  0  0  0  0  0  0  0  0  0  0  0
  189.1910  136.0080   34.1470 C   0  0  0  0  0  0  0  0  0  0  0  0
  189.9580  134.7710   36.3450 O   0  0  0  0  0  0  0  0  0  0  0  0
  184.9159  127.9797   31.4824 H   0  0  0  0  0  0  0  0  0  0  0  0
  188.0007  125.6276   33.3964 H   0  0  0  0  0  0  0  0  0  0  0  0
  185.6262  125.8560   32.6191 H   0  0  0  0  0  0  0  0  0  0  0  0
  188.4249  130.6460   31.1844 H   0  0  0  0  0  0  0  0  0  0  0  0
  190.1090  126.8858   34.1567 H   0  0  0  0  0  0  0  0  0  0  0  0
  189.6718  131.0668   29.4183 H   0  0  0  0  0  0  0  0  0  0  0  0
  191.6871  130.6555   27.9932 H   0  0  0  0  0  0  0  0  0  0  0  0
  193.1386  127.7434   30.8647 H   0  0  0  0  0  0  0  0  0  0  0  0
  189.8944  130.0120   33.7731 H   0  0  0  0  0  0  0  0  0  0  0  0
  189.8447  132.5228   32.0699 H   0  0  0  0  0  0  0  0  0  0  0  0
  191.2610  131.5365   32.5678 H   0  0  0  0  0  0  0  0  0  0  0  0
  191.0416  133.6640   33.8483 H   0  0  0  0  0  0  0  0  0  0  0  0
  190.9580  132.2038   34.8910 H   0  0  0  0  0  0  0  0  0  0  0  0
  187.3786  132.3764   35.4514 H   0  0  0  0  0  0  0  0  0  0  0  0
  188.8988  131.4852   35.7997 H   0  0  0  0  0  0  0  0  0  0  0  0
  187.5660  130.2228   34.2067 H   0  0  0  0  0  0  0  0  0  0  0  0
  187.4249  131.6593   33.1375 H   0  0  0  0  0  0  0  0  0  0  0  0
  192.3779  129.4358   34.7780 H   0  0  0  0  0  0  0  0  0  0  0  0
  192.9643  129.8123   33.1224 H   0  0  0  0  0  0  0  0  0  0  0  0
  191.9522  125.8859   34.2048 H   0  0  0  0  0  0  0  0  0  0  0  0
  191.8025  127.2324   35.3843 H   0  0  0  0  0  0  0  0  0  0  0  0
  194.8328  129.7876   34.7614 H   0  0  0  0  0  0  0  0  0  0  0  0
  195.0129  128.4821   33.5408 H   0  0  0  0  0  0  0  0  0  0  0  0
  194.4083  126.1538   34.1945 H   0  0  0  0  0  0  0  0  0  0  0  0
  193.8059  125.8634   35.8617 H   0  0  0  0  0  0  0  0  0  0  0  0
  193.9221  128.1945   36.2572 H   0  0  0  0  0  0  0  0  0  0  0  0
  195.3898  127.6647   35.7333 H   0  0  0  0  0  0  0  0  0  0  0  0
  189.0691  136.9941   34.6190 H   0  0  0  0  0  0  0  0  0  0  0  0
  188.4621  135.8998   33.3304 H   0  0  0  0  0  0  0  0  0  0  0  0
  190.2102  135.9184   33.7431 H   0  0  0  0  0  0  0  0  0  0  0  0
  1  2  2  0  0  0  0
  1  6  1  0  0  0  0
  1 33  1  0  0  0  0
  2  3  1  0  0  0  0
  3  4  2  0  0  0  0
  3  7  1  0  0  0  0
  4  5  1  0  0  0  0
  4 11  1  0  0  0  0
  5  6  2  0  0  0  0
  5 34  1  0  0  0  0
  6 35  1  0  0  0  0
  7  8  1  0  0  0  0
  7 16  1  0  0  0  0
  7 36  1  6  0  0  0
  8  9  2  0  0  0  0
  8 12  1  0  0  0  0
  9 10  1  0  0  0  0
  9 15  1  0  0  0  0
 10 11  2  0  0  0  0
 10 24  1  0  0  0  0
 11 37  1  0  0  0  0
 12 13  2  0  0  0  0
 12 38  1  0  0  0  0
 13 14  1  0  0  0  0
 13 39  1  0  0  0  0
 14 15  2  0  0  0  0
 14 22  1  0  0  0  0
 15 40  1  0  0  0  0
 16 17  1  0  0  0  0
 16 21  1  0  0  0  0
 16 41  1  0  0  0  0
 17 18  1  0  0  0  0
 17 42  1  0  0  0  0
 17 43  1  0  0  0  0
 18 19  1  0  0  0  0
 18 44  1  0  0  0  0
 18 45  1  0  0  0  0
 19 20  1  0  0  0  0
 19 23  1  0  0  0  0
 20 21  1  0  0  0  0
 20 46  1  0  0  0  0
 20 47  1  0  0  0  0
 21 48  1  0  0  0  0
 21 49  1  0  0  0  0
 23 30  2  0  0  0  0
 23 31  1  0  0  0  0
 23 32  2  0  0  0  0
 24 25  1  0  0  0  0
 24 26  1  0  0  0  0
 25 27  1  0  0  0  0
 25 50  1  0  0  0  0
 25 51  1  0  0  0  0
 26 28  1  0  0  0  0
 26 52  1  0  0  0  0
 26 53  1  0  0  0  0
 27 29  1  0  0  0  0
 27 54  1  0  0  0  0
 27 55  1  0  0  0  0
 28 29  1  0  0  0  0
 28 56  1  0  0  0  0
 28 57  1  0  0  0  0
 29 58  1  0  0  0  0
 29 59  1  0  0  0  0
 31 60  1  0  0  0  0
 31 61  1  0  0  0  0
 31 62  1  0  0  0  0
M  CHG  1  29   1
M  END
