2bge_ligand
 OpenBabel08222323343D

 22 23  0  0  0  0  0  0  0  0999 V2000
   54.4090   33.7940   37.9070 C   0  0  0  0  0  0  0  0  0  0  0  0
   55.5270   33.8400   37.0330 C   0  0  0  0  0  0  0  0  0  0  0  0
   55.6900   32.8480   36.0310 C   0  0  0  0  0  0  0  0  0  0  0  0
   54.7340   31.8040   35.9010 C   0  0  0  0  0  0  0  0  0  0  0  0
   53.6160   31.7520   36.7740 C   0  0  0  0  0  0  0  0  0  0  0  0
   53.4360   32.7440   37.7880 C   0  0  0  0  0  0  0  0  0  0  0  0
   52.2760   32.6720   38.6760 N   0  0  0  0  0  0  0  0  0  0  0  0
   52.2690   31.8100   40.1460 S   0  0  0  0  0  0  0  0  0  0  0  0
   50.6740   32.1790   40.5660 N   0  0  0  0  0  0  0  0  0  0  0  0
   50.0700   32.9420   39.6640 C   0  0  0  0  0  0  0  0  0  0  0  0
   50.9570   33.3040   38.4680 C   0  0  0  0  0  0  0  0  0  0  0  0
   48.9060   33.3290   39.7720 O   0  0  0  0  0  0  0  0  0  0  0  0
   53.2980   32.4180   41.2000 O   0  0  0  0  0  0  0  0  0  0  0  0
   52.4990   30.2530   39.9290 O   0  0  0  0  0  0  0  0  0  0  0  0
   54.2890   34.5559   38.6687 H   0  0  0  0  0  0  0  0  0  0  0  0
   56.2578   34.6346   37.1312 H   0  0  0  0  0  0  0  0  0  0  0  0
   56.5440   32.8865   35.3645 H   0  0  0  0  0  0  0  0  0  0  0  0
   54.8589   31.0473   35.1349 H   0  0  0  0  0  0  0  0  0  0  0  0
   52.8915   30.9523   36.6710 H   0  0  0  0  0  0  0  0  0  0  0  0
   50.2331   31.8570   41.4038 H   0  0  0  0  0  0  0  0  0  0  0  0
   50.5041   32.9277   37.5389 H   0  0  0  0  0  0  0  0  0  0  0  0
   51.0713   34.3962   38.4040 H   0  0  0  0  0  0  0  0  0  0  0  0
  1  2  2  0  0  0  0
  1  6  1  0  0  0  0
  1 15  1  0  0  0  0
  2  3  1  0  0  0  0
  2 16  1  0  0  0  0
  3  4  2  0  0  0  0
  3 17  1  0  0  0  0
  4  5  1  0  0  0  0
  4 18  1  0  0  0  0
  5  6  2  0  0  0  0
  5 19  1  0  0  0  0
  6  7  1  0  0  0  0
  7  8  1  0  0  0  0
  7 11  1  0  0  0  0
  8  9  1  0  0  0  0
  8 13  2  0  0  0  0
  8 14  2  0  0  0  0
  9 10  1  0  0  0  0
  9 20  1  0  0  0  0
 10 11  1  0  0  0  0
 10 12  2  0  0  0  0
 11 21  1  0  0  0  0
 11 22  1  0  0  0  0
M  END
