2bgn_ligand
 OpenBabel08222323343D

100103  0  0  1  0  0  0  0  0999 V2000
   24.3180   -4.0240  125.3380 N   0  3  0  0  0  0  0  0  0  0  0  0
   25.0840   -5.1400  124.7140 C   0  0  2  0  0  0  0  0  0  0  0  0
   25.0160   -6.3660  125.6010 C   0  0  0  0  0  0  0  0  0  0  0  0
   25.6930   -6.4290  126.6270 O   0  0  0  0  0  0  0  0  0  0  0  0
   26.5510   -4.7530  124.5410 C   0  0  0  0  0  0  0  0  0  0  0  0
   27.4440   -5.8470  124.0180 C   0  0  0  0  0  0  0  0  0  0  0  0
   27.2400   -6.1010  122.2660 S   0  0  0  0  0  0  0  0  0  0  0  0
   28.2330   -4.7700  121.6370 C   0  0  0  0  0  0  0  0  0  0  0  0
   24.2040   -7.3420  125.2090 N   0  0  0  0  0  0  0  0  0  0  0  0
   24.0920   -8.5630  125.9780 C   0  0  2  0  0  0  0  0  0  0  0  0
   24.0480   -9.7130  124.9960 C   0  0  0  0  0  0  0  0  0  0  0  0
   23.7290   -9.5180  123.8320 O   0  0  0  0  0  0  0  0  0  0  0  0
   22.8710   -8.5430  126.9070 C   0  0  0  0  0  0  0  0  0  0  0  0
   22.8460   -7.3540  127.8370 C   0  0  0  0  0  0  0  0  0  0  0  0
   22.3490   -6.1160  127.5590 C   0  0  0  0  0  0  0  0  0  0  0  0
   23.3490   -7.2790  129.1770 C   0  0  0  0  0  0  0  0  0  0  0  0
   22.4940   -5.2790  128.6380 N   0  0  0  0  0  0  0  0  0  0  0  0
   23.1080   -5.9680  129.6470 C   0  0  0  0  0  0  0  0  0  0  0  0
   23.9850   -8.1840  130.0320 C   0  0  0  0  0  0  0  0  0  0  0  0
   23.4750   -5.5430  130.9180 C   0  0  0  0  0  0  0  0  0  0  0  0
   24.3380   -7.7600  131.3000 C   0  0  0  0  0  0  0  0  0  0  0  0
   24.0830   -6.4520  131.7300 C   0  0  0  0  0  0  0  0  0  0  0  0
   24.4230  -10.8970  125.4660 N   0  0  0  0  0  0  0  0  0  0  0  0
   24.3330  -12.1080  124.6850 C   0  0  2  0  0  0  0  0  0  0  0  0
   23.0280  -12.3650  123.9510 C   0  0  0  0  0  0  0  0  0  0  0  0
   21.9420  -12.0480  124.4390 O   0  0  0  0  0  0  0  0  0  0  0  0
   24.5360  -13.2000  125.7370 C   0  0  0  0  0  0  0  0  0  0  0  0
   25.4160  -12.5900  126.7680 C   0  0  0  0  0  0  0  0  0  0  0  0
   25.0300  -11.1460  126.7890 C   0  0  0  0  0  0  0  0  0  0  0  0
   23.1690  -12.9390  122.7590 N   0  0  0  0  0  0  0  0  0  0  0  0
   22.0660  -13.6050  122.0660 C   0  0  2  0  0  0  0  0  0  0  0  0
   21.4300  -14.5840  123.0400 C   0  0  0  0  0  0  0  0  0  0  0  0
   22.0910  -15.4850  123.5790 O   0  0  0  0  0  0  0  0  0  0  0  0
   22.5010  -14.3860  120.7890 C   0  0  0  0  0  0  0  0  0  0  0  0
   22.8120  -13.4090  119.7240 C   0  0  0  0  0  0  0  0  0  0  0  0
   23.6870  -15.3810  121.0060 C   0  0  0  0  0  0  0  0  0  0  0  0
   20.1300  -14.4110  123.2500 N   0  0  0  0  0  0  0  0  0  0  0  0
   19.4720  -15.0170  124.3940 C   0  0  2  0  0  0  0  0  0  0  0  0
   18.6310  -16.2530  124.0930 C   0  0  0  0  0  0  0  0  0  0  0  0
   17.9840  -16.3490  123.0410 O   0  0  0  0  0  0  0  0  0  0  0  0
   18.5820  -13.9760  125.0610 C   0  0  0  0  0  0  0  0  0  0  0  0
   17.5150  -13.4800  124.1280 C   0  0  0  0  0  0  0  0  0  0  0  0
   17.8620  -12.7180  123.1930 O   0  5  0  0  0  0  0  0  0  0  0  0
   16.3240  -13.8500  124.2480 O   0  0  0  0  0  0  0  0  0  0  0  0
   18.6710  -17.2070  125.0230 N   0  0  0  0  0  0  0  0  0  0  0  0
   17.6780  -18.2850  125.0960 C   0  0  2  0  0  0  0  0  0  0  0  0
   16.4800  -17.9140  125.9930 C   0  0  0  0  0  0  0  0  0  0  0  0
   15.3160  -18.1990  125.6750 O   0  0  0  0  0  0  0  0  0  0  0  0
   18.4810  -19.4620  125.6960 C   0  0  0  0  0  0  0  0  0  0  0  0
   19.7030  -18.8480  126.3990 C   0  0  0  0  0  0  0  0  0  0  0  0
   19.7110  -17.3610  126.0630 C   0  0  0  0  0  0  0  0  0  0  0  0
   24.3659   -3.2106  124.7446 H   0  0  0  0  0  0  0  0  0  0  0  0
   24.7147   -3.8066  126.2388 H   0  0  0  0  0  0  0  0  0  0  0  0
   23.3553   -4.3000  125.4525 H   0  0  0  0  0  0  0  0  0  0  0  0
   24.6483   -5.3713  123.7308 H   0  0  0  0  0  0  0  0  0  0  0  0
   26.9378   -4.4371  125.5211 H   0  0  0  0  0  0  0  0  0  0  0  0
   26.5998   -3.9084  123.8380 H   0  0  0  0  0  0  0  0  0  0  0  0
   27.2019   -6.7832  124.5424 H   0  0  0  0  0  0  0  0  0  0  0  0
   28.4912   -5.5754  124.2171 H   0  0  0  0  0  0  0  0  0  0  0  0
   28.2128   -4.7855  120.5373 H   0  0  0  0  0  0  0  0  0  0  0  0
   29.2692   -4.8887  121.9864 H   0  0  0  0  0  0  0  0  0  0  0  0
   27.8320   -3.8112  121.9975 H   0  0  0  0  0  0  0  0  0  0  0  0
   23.6648   -7.2318  124.3741 H   0  0  0  0  0  0  0  0  0  0  0  0
   24.9895   -8.6697  126.6050 H   0  0  0  0  0  0  0  0  0  0  0  0
   22.8792   -9.4604  127.5138 H   0  0  0  0  0  0  0  0  0  0  0  0
   21.9620   -8.5209  126.2880 H   0  0  0  0  0  0  0  0  0  0  0  0
   21.8981   -5.8293  126.6101 H   0  0  0  0  0  0  0  0  0  0  0  0
   22.1907   -4.2956  128.6803 H   0  0  0  0  0  0  0  0  0  0  0  0
   24.1969   -9.1965  129.7079 H   0  0  0  0  0  0  0  0  0  0  0  0
   23.2851   -4.5287  131.2500 H   0  0  0  0  0  0  0  0  0  0  0  0
   24.8227   -8.4553  131.9758 H   0  0  0  0  0  0  0  0  0  0  0  0
   24.3759   -6.1564  132.7310 H   0  0  0  0  0  0  0  0  0  0  0  0
   25.1465  -12.1212  123.9447 H   0  0  0  0  0  0  0  0  0  0  0  0
   25.0193  -14.0812  125.2899 H   0  0  0  0  0  0  0  0  0  0  0  0
   23.5723  -13.4946  126.1780 H   0  0  0  0  0  0  0  0  0  0  0  0
   26.4746  -12.7047  126.4918 H   0  0  0  0  0  0  0  0  0  0  0  0
   25.2411  -13.0527  127.7505 H   0  0  0  0  0  0  0  0  0  0  0  0
   24.3032  -10.9511  127.5914 H   0  0  0  0  0  0  0  0  0  0  0  0
   25.9160  -10.5105  126.9344 H   0  0  0  0  0  0  0  0  0  0  0  0
   24.0664  -12.9142  122.3184 H   0  0  0  0  0  0  0  0  0  0  0  0
   21.3277  -12.8444  121.7722 H   0  0  0  0  0  0  0  0  0  0  0  0
   21.6386  -14.9848  120.4610 H   0  0  0  0  0  0  0  0  0  0  0  0
   23.1212  -13.9444  118.8142 H   0  0  0  0  0  0  0  0  0  0  0  0
   23.6278  -12.7507  120.0572 H   0  0  0  0  0  0  0  0  0  0  0  0
   21.9184  -12.8050  119.5081 H   0  0  0  0  0  0  0  0  0  0  0  0
   23.4266  -16.0938  121.8023 H   0  0  0  0  0  0  0  0  0  0  0  0
   24.5877  -14.8202  121.2961 H   0  0  0  0  0  0  0  0  0  0  0  0
   23.8812  -15.9293  120.0724 H   0  0  0  0  0  0  0  0  0  0  0  0
   19.5970  -13.8558  122.6115 H   0  0  0  0  0  0  0  0  0  0  0  0
   20.2575  -15.3177  125.1030 H   0  0  0  0  0  0  0  0  0  0  0  0
   19.2034  -13.1251  125.3769 H   0  0  0  0  0  0  0  0  0  0  0  0
   18.1034  -14.4278  125.9424 H   0  0  0  0  0  0  0  0  0  0  0  0
   17.3078  -18.5375  124.0914 H   0  0  0  0  0  0  0  0  0  0  0  0
   16.6608  -17.3884  126.9295 H   0  0  0  0  0  0  0  0  0  0  0  0
   18.8062  -20.1454  124.8978 H   0  0  0  0  0  0  0  0  0  0  0  0
   17.8632  -20.0124  126.4208 H   0  0  0  0  0  0  0  0  0  0  0  0
   20.6262  -19.3224  126.0347 H   0  0  0  0  0  0  0  0  0  0  0  0
   19.6231  -18.9888  127.4870 H   0  0  0  0  0  0  0  0  0  0  0  0
   19.4636  -16.7611  126.9512 H   0  0  0  0  0  0  0  0  0  0  0  0
   20.6946  -17.0557  125.6766 H   0  0  0  0  0  0  0  0  0  0  0  0
  1  2  1  0  0  0  0
  1 52  1  0  0  0  0
  1 53  1  0  0  0  0
  1 54  1  0  0  0  0
  2  3  1  0  0  0  0
  2  5  1  0  0  0  0
  2 55  1  6  0  0  0
  3  4  2  0  0  0  0
  3  9  1  0  0  0  0
  5  6  1  0  0  0  0
  5 56  1  0  0  0  0
  5 57  1  0  0  0  0
  6  7  1  0  0  0  0
  6 58  1  0  0  0  0
  6 59  1  0  0  0  0
  7  8  1  0  0  0  0
  8 60  1  0  0  0  0
  8 61  1  0  0  0  0
  8 62  1  0  0  0  0
  9 10  1  0  0  0  0
  9 63  1  0  0  0  0
 10 11  1  0  0  0  0
 10 13  1  0  0  0  0
 10 64  1  1  0  0  0
 11 12  2  0  0  0  0
 11 23  1  0  0  0  0
 13 14  1  0  0  0  0
 13 65  1  0  0  0  0
 13 66  1  0  0  0  0
 14 15  2  0  0  0  0
 14 16  1  0  0  0  0
 15 17  1  0  0  0  0
 15 67  1  0  0  0  0
 16 18  2  0  0  0  0
 16 19  1  0  0  0  0
 17 18  1  0  0  0  0
 17 68  1  0  0  0  0
 18 20  1  0  0  0  0
 19 21  2  0  0  0  0
 19 69  1  0  0  0  0
 20 22  2  0  0  0  0
 20 70  1  0  0  0  0
 21 22  1  0  0  0  0
 21 71  1  0  0  0  0
 22 72  1  0  0  0  0
 23 24  1  0  0  0  0
 23 29  1  0  0  0  0
 24 25  1  0  0  0  0
 24 27  1  0  0  0  0
 24 73  1  6  0  0  0
 25 26  2  0  0  0  0
 25 30  1  0  0  0  0
 27 28  1  0  0  0  0
 27 74  1  0  0  0  0
 27 75  1  0  0  0  0
 28 29  1  0  0  0  0
 28 76  1  0  0  0  0
 28 77  1  0  0  0  0
 29 78  1  0  0  0  0
 29 79  1  0  0  0  0
 30 31  1  0  0  0  0
 30 80  1  0  0  0  0
 31 32  1  0  0  0  0
 31 34  1  0  0  0  0
 31 81  1  6  0  0  0
 32 33  2  0  0  0  0
 32 37  1  0  0  0  0
 34 35  1  0  0  0  0
 34 36  1  0  0  0  0
 34 82  1  0  0  0  0
 35 83  1  0  0  0  0
 35 84  1  0  0  0  0
 35 85  1  0  0  0  0
 36 86  1  0  0  0  0
 36 87  1  0  0  0  0
 36 88  1  0  0  0  0
 37 38  1  0  0  0  0
 37 89  1  0  0  0  0
 38 39  1  0  0  0  0
 38 41  1  0  0  0  0
 38 90  1  1  0  0  0
 39 40  2  0  0  0  0
 39 45  1  0  0  0  0
 41 42  1  0  0  0  0
 41 91  1  0  0  0  0
 41 92  1  0  0  0  0
 42 43  1  0  0  0  0
 42 44  2  0  0  0  0
 45 46  1  0  0  0  0
 45 51  1  0  0  0  0
 46 47  1  0  0  0  0
 46 49  1  0  0  0  0
 46 93  1  6  0  0  0
 47 48  2  0  0  0  0
 47 94  1  0  0  0  0
 49 50  1  0  0  0  0
 49 95  1  0  0  0  0
 49 96  1  0  0  0  0
 50 51  1  0  0  0  0
 50 97  1  0  0  0  0
 50 98  1  0  0  0  0
 51 99  1  0  0  0  0
 51100  1  0  0  0  0
M  CHG  2   1   1  43  -1
M  END
