2bj4_ligand
 OpenBabel08222323343D

176179  0  0  1  0  0  0  0  0999 V2000
   27.8240   52.7220   41.5290 N   0  3  0  0  0  0  0  0  0  0  0  0
   27.9500   52.5490   40.0550 C   0  0  2  0  0  0  0  0  0  0  0  0
   26.5820   52.3000   39.4490 C   0  0  0  0  0  0  0  0  0  0  0  0
   25.9050   51.3450   39.8450 O   0  0  0  0  0  0  0  0  0  0  0  0
   28.8610   51.3640   39.7720 C   0  0  0  0  0  0  0  0  0  0  0  0
   29.4450   51.2190   38.3690 C   0  0  0  0  0  0  0  0  0  0  0  0
   30.7090   52.0370   38.2040 C   0  0  0  0  0  0  0  0  0  0  0  0
   29.7460   49.7320   38.1240 C   0  0  0  0  0  0  0  0  0  0  0  0
   26.1620   53.1780   38.5250 N   0  0  0  0  0  0  0  0  0  0  0  0
   24.9360   52.9770   37.7390 C   0  0  2  0  0  0  0  0  0  0  0  0
   25.1930   53.3430   36.2860 C   0  0  0  0  0  0  0  0  0  0  0  0
   26.2980   53.7630   35.9140 O   0  0  0  0  0  0  0  0  0  0  0  0
   23.7660   53.8900   38.2260 C   0  0  2  0  0  0  0  0  0  0  0  0
   24.0930   55.2680   37.9630 O   0  0  0  0  0  0  0  0  0  0  0  0
   23.5650   53.8140   39.7080 C   0  0  0  0  0  0  0  0  0  0  0  0
   24.1360   53.2390   35.4910 N   0  0  0  0  0  0  0  0  0  0  0  0
   24.1550   53.6540   34.0840 C   0  0  2  0  0  0  0  0  0  0  0  0
   24.7130   55.0830   33.9020 C   0  0  0  0  0  0  0  0  0  0  0  0
   25.3470   55.4010   32.8870 O   0  0  0  0  0  0  0  0  0  0  0  0
   22.7300   53.5850   33.5270 C   0  0  0  0  0  0  0  0  0  0  0  0
   21.9070   54.5250   34.1940 O   0  0  0  0  0  0  0  0  0  0  0  0
   24.4560   55.9290   34.8880 N   0  0  0  0  0  0  0  0  0  0  0  0
   24.9750   57.3100   34.9170 C   0  0  2  0  0  0  0  0  0  0  0  0
   26.4940   57.4070   34.7640 C   0  0  0  0  0  0  0  0  0  0  0  0
   27.0140   58.3820   34.1980 O   0  0  0  0  0  0  0  0  0  0  0  0
   24.5210   58.0260   36.2000 C   0  0  0  0  0  0  0  0  0  0  0  0
   23.3660   58.9970   35.9800 C   0  0  0  0  0  0  0  0  0  0  0  0
   23.8170   60.2220   35.1920 C   0  0  0  0  0  0  0  0  0  0  0  0
   22.8490   61.3160   35.1180 N   0  0  0  0  0  0  0  0  0  0  0  0
   23.1750   62.5790   34.8250 C   0  0  0  0  0  3  0  0  0  0  0  0
   24.4430   62.9120   34.5900 N   0  0  0  0  0  0  0  0  0  0  0  0
   22.2370   63.5240   34.7750 N   0  0  0  0  0  0  0  0  0  0  0  0
   27.1970   56.3850   35.2440 N   0  0  0  0  0  0  0  0  0  0  0  0
   28.6490   56.3290   35.1360 C   0  0  2  0  0  0  0  0  0  0  0  0
   29.1190   55.8910   33.7450 C   0  0  0  0  0  0  0  0  0  0  0  0
   30.3050   55.8170   33.5030 O   0  0  0  0  0  0  0  0  0  0  0  0
   29.2100   55.3850   36.1940 C   0  0  0  0  0  0  0  0  0  0  0  0
   28.8880   55.8420   37.6030 C   0  0  0  0  0  0  0  0  0  0  0  0
   29.4120   56.9050   38.0130 O   0  5  0  0  0  0  0  0  0  0  0  0
   28.1140   55.2130   38.3620 O   0  0  0  0  0  0  0  0  0  0  0  0
   28.1900   55.6110   32.8350 N   0  0  0  0  0  0  0  0  0  0  0  0
   28.5370   55.1580   31.4880 C   0  0  2  0  0  0  0  0  0  0  0  0
   27.9380   56.0680   30.4390 C   0  0  0  0  0  0  0  0  0  0  0  0
   26.9120   56.6830   30.6720 O   0  0  0  0  0  0  0  0  0  0  0  0
   28.0150   53.7330   31.2630 C   0  0  0  0  0  0  0  0  0  0  0  0
   28.7480   52.6930   32.0620 C   0  0  0  0  0  0  0  0  0  0  0  0
   28.3730   52.4170   33.3830 C   0  0  0  0  0  0  0  0  0  0  0  0
   29.8200   52.0040   31.5040 C   0  0  0  0  0  0  0  0  0  0  0  0
   29.0290   51.4610   34.1210 C   0  0  0  0  0  0  0  0  0  0  0  0
   30.4970   51.0480   32.2320 C   0  0  0  0  0  0  0  0  0  0  0  0
   30.0900   50.7590   33.5570 C   0  0  0  0  0  0  0  0  0  0  0  0
   28.5940   56.1410   29.2830 N   0  0  0  0  0  0  0  0  0  0  0  0
   28.0540   56.8200   28.1130 C   0  0  0  0  0  0  0  0  0  0  0  0
   27.9090   58.3150   28.2530 C   0  0  0  0  0  0  0  0  0  0  0  0
   28.4070   58.9220   29.1990 O   0  0  0  0  0  0  0  0  0  0  0  0
   27.1980   58.8990   27.3000 N   0  0  0  0  0  0  0  0  0  0  0  0
   26.9900   60.3390   27.2600 C   0  0  2  0  0  0  0  0  0  0  0  0
   25.5980   60.6620   27.7800 C   0  0  0  0  0  0  0  0  0  0  0  0
   24.6660   59.8810   27.5850 O   0  0  0  0  0  0  0  0  0  0  0  0
   27.1420   60.8530   25.8230 C   0  0  0  0  0  0  0  0  0  0  0  0
   26.9130   62.2490   25.7600 O   0  0  0  0  0  0  0  0  0  0  0  0
   25.4680   61.8060   28.4530 N   0  0  0  0  0  0  0  0  0  0  0  0
   24.1650   62.2650   28.9630 C   0  0  2  0  0  0  0  0  0  0  0  0
   23.9570   63.6840   28.4380 C   0  0  0  0  0  0  0  0  0  0  0  0
   24.9210   64.4260   28.2620 O   0  0  0  0  0  0  0  0  0  0  0  0
   24.1210   62.1790   30.5050 C   0  0  0  0  0  0  0  0  0  0  0  0
   24.2390   60.7460   30.9510 C   0  0  0  0  0  0  0  0  0  0  0  0
   25.3520   59.9600   30.8840 C   0  0  0  0  0  0  0  0  0  0  0  0
   23.1890   59.9050   31.4340 C   0  0  0  0  0  0  0  0  0  0  0  0
   25.0640   58.6930   31.3220 N   0  0  0  0  0  0  0  0  0  0  0  0
   23.7390   58.6280   31.6570 C   0  0  0  0  0  0  0  0  0  0  0  0
   21.8450   60.1100   31.7400 C   0  0  0  0  0  0  0  0  0  0  0  0
   22.9870   57.5560   32.1490 C   0  0  0  0  0  0  0  0  0  0  0  0
   21.0950   59.0330   32.2200 C   0  0  0  0  0  0  0  0  0  0  0  0
   21.6690   57.7780   32.4160 C   0  0  0  0  0  0  0  0  0  0  0  0
   22.7110   64.0360   28.1250 N   0  0  0  0  0  0  0  0  0  0  0  0
   22.3960   65.4180   27.7490 C   0  0  2  0  0  0  0  0  0  0  0  0
   22.8130   66.3940   28.8640 C   0  0  0  0  0  0  0  0  0  0  0  0
   23.2900   67.4950   28.5770 O   0  0  0  0  0  0  0  0  0  0  0  0
   20.9060   65.5950   27.4580 C   0  0  0  0  0  0  0  0  0  0  0  0
   20.4540   65.1240   26.0940 C   0  0  0  0  0  0  0  0  0  0  0  0
   20.9950   65.6630   24.9330 C   0  0  0  0  0  0  0  0  0  0  0  0
   19.4670   64.1780   25.9620 C   0  0  0  0  0  0  0  0  0  0  0  0
   20.5530   65.2480   23.6750 C   0  0  0  0  0  0  0  0  0  0  0  0
   19.0280   63.7550   24.7070 C   0  0  0  0  0  0  0  0  0  0  0  0
   19.5800   64.2970   23.5650 C   0  0  0  0  0  0  0  0  0  0  0  0
   19.1460   63.8830   22.3120 O   0  0  0  0  0  0  0  0  0  0  0  0
   22.6380   65.9840   30.1190 N   0  0  0  0  0  0  0  0  0  0  0  0
   22.9600   66.8420   31.2590 C   0  0  2  0  0  0  0  0  0  0  0  0
   23.9600   66.1830   32.1900 C   0  0  0  0  0  0  0  0  0  0  0  0
   23.9180   64.9760   32.4770 O   0  5  0  0  0  0  0  0  0  0  0  0
   21.6980   67.1960   32.0250 C   0  0  0  0  0  0  0  0  0  0  0  0
   24.8380   66.8780   32.6900 O   0  0  0  0  0  0  0  0  0  0  0  0
   28.7353   52.8871   41.9270 H   0  0  0  0  0  0  0  0  0  0  0  0
   27.4273   51.8878   41.9325 H   0  0  0  0  0  0  0  0  0  0  0  0
   27.2243   53.5081   41.7250 H   0  0  0  0  0  0  0  0  0  0  0  0
   28.3836   53.4588   39.6143 H   0  0  0  0  0  0  0  0  0  0  0  0
   28.2827   50.4517   39.9799 H   0  0  0  0  0  0  0  0  0  0  0  0
   29.7072   51.4293   40.4718 H   0  0  0  0  0  0  0  0  0  0  0  0
   28.7030   51.5659   37.6347 H   0  0  0  0  0  0  0  0  0  0  0  0
   31.0990   51.9073   37.1837 H   0  0  0  0  0  0  0  0  0  0  0  0
   31.4624   51.6982   38.9303 H   0  0  0  0  0  0  0  0  0  0  0  0
   30.4835   53.0995   38.3780 H   0  0  0  0  0  0  0  0  0  0  0  0
   28.8230   49.1462   38.2459 H   0  0  0  0  0  0  0  0  0  0  0  0
   30.4982   49.3860   38.8482 H   0  0  0  0  0  0  0  0  0  0  0  0
   30.1322   49.5995   37.1026 H   0  0  0  0  0  0  0  0  0  0  0  0
   26.7050   54.0023   38.3647 H   0  0  0  0  0  0  0  0  0  0  0  0
   24.6341   51.9219   37.8139 H   0  0  0  0  0  0  0  0  0  0  0  0
   22.8411   53.6035   37.7040 H   0  0  0  0  0  0  0  0  0  0  0  0
   23.3813   55.8233   38.2592 H   0  0  0  0  0  0  0  0  0  0  0  0
   22.7332   54.4722   39.9994 H   0  0  0  0  0  0  0  0  0  0  0  0
   24.4839   54.1360   40.2197 H   0  0  0  0  0  0  0  0  0  0  0  0
   23.3301   52.7780   39.9935 H   0  0  0  0  0  0  0  0  0  0  0  0
   23.2898   52.8614   35.8671 H   0  0  0  0  0  0  0  0  0  0  0  0
   24.7947   52.9572   33.5225 H   0  0  0  0  0  0  0  0  0  0  0  0
   22.3267   52.5732   33.6805 H   0  0  0  0  0  0  0  0  0  0  0  0
   22.7472   53.8136   32.4512 H   0  0  0  0  0  0  0  0  0  0  0  0
   21.0252   54.4769   33.8439 H   0  0  0  0  0  0  0  0  0  0  0  0
   23.8844   55.6178   35.6472 H   0  0  0  0  0  0  0  0  0  0  0  0
   24.5301   57.8396   34.0617 H   0  0  0  0  0  0  0  0  0  0  0  0
   25.3752   58.5877   36.6058 H   0  0  0  0  0  0  0  0  0  0  0  0
   24.2025   57.2659   36.9285 H   0  0  0  0  0  0  0  0  0  0  0  0
   22.9792   59.3216   36.9572 H   0  0  0  0  0  0  0  0  0  0  0  0
   22.5684   58.4851   35.4216 H   0  0  0  0  0  0  0  0  0  0  0  0
   24.0429   59.8997   34.1648 H   0  0  0  0  0  0  0  0  0  0  0  0
   24.7315   60.6104   35.6639 H   0  0  0  0  0  0  0  0  0  0  0  0
   21.8587   61.1009   35.3023 H   0  0  0  0  0  0  0  0  0  0  0  0
   24.6861   63.8873   34.3649 H   0  0  0  0  0  0  0  0  0  0  0  0
   25.1805   62.1943   34.6334 H   0  0  0  0  0  0  0  0  0  0  0  0
   21.2520   63.2820   34.9544 H   0  0  0  0  0  0  0  0  0  0  0  0
   22.4969   64.4965   34.5569 H   0  0  0  0  0  0  0  0  0  0  0  0
   26.7146   55.6325   35.6924 H   0  0  0  0  0  0  0  0  0  0  0  0
   29.0427   57.3386   35.3248 H   0  0  0  0  0  0  0  0  0  0  0  0
   30.3029   55.3351   36.0796 H   0  0  0  0  0  0  0  0  0  0  0  0
   28.7791   54.3848   36.0396 H   0  0  0  0  0  0  0  0  0  0  0  0
   27.2256   55.7132   33.0790 H   0  0  0  0  0  0  0  0  0  0  0  0
   29.6320   55.1630   31.3838 H   0  0  0  0  0  0  0  0  0  0  0  0
   28.1186   53.4888   30.1955 H   0  0  0  0  0  0  0  0  0  0  0  0
   26.9521   53.7031   31.5446 H   0  0  0  0  0  0  0  0  0  0  0  0
   27.5524   52.9661   33.8304 H   0  0  0  0  0  0  0  0  0  0  0  0
   30.1263   52.2206   30.4870 H   0  0  0  0  0  0  0  0  0  0  0  0
   28.7208   51.2544   35.1395 H   0  0  0  0  0  0  0  0  0  0  0  0
   31.3359   50.5209   31.7923 H   0  0  0  0  0  0  0  0  0  0  0  0
   30.6025   49.9944   34.1295 H   0  0  0  0  0  0  0  0  0  0  0  0
   29.4947   55.7120   29.2150 H   0  0  0  0  0  0  0  0  0  0  0  0
   27.0597   56.3991   27.9030 H   0  0  0  0  0  0  0  0  0  0  0  0
   28.7236   56.6204   27.2634 H   0  0  0  0  0  0  0  0  0  0  0  0
   26.7907   58.3317   26.5843 H   0  0  0  0  0  0  0  0  0  0  0  0
   27.7385   60.8304   27.8989 H   0  0  0  0  0  0  0  0  0  0  0  0
   26.4145   60.3390   25.1776 H   0  0  0  0  0  0  0  0  0  0  0  0
   28.1614   60.6388   25.4696 H   0  0  0  0  0  0  0  0  0  0  0  0
   27.0122   62.5449   24.8627 H   0  0  0  0  0  0  0  0  0  0  0  0
   26.2787   62.3683   28.6160 H   0  0  0  0  0  0  0  0  0  0  0  0
   23.3701   61.6187   28.5625 H   0  0  0  0  0  0  0  0  0  0  0  0
   23.1678   62.5938   30.8647 H   0  0  0  0  0  0  0  0  0  0  0  0
   24.9554   62.7598   30.9250 H   0  0  0  0  0  0  0  0  0  0  0  0
   26.3284   60.2911   30.5332 H   0  0  0  0  0  0  0  0  0  0  0  0
   25.7365   57.9157   31.3882 H   0  0  0  0  0  0  0  0  0  0  0  0
   21.3905   61.0853   31.6083 H   0  0  0  0  0  0  0  0  0  0  0  0
   23.4366   56.5832   32.3121 H   0  0  0  0  0  0  0  0  0  0  0  0
   20.0443   59.1766   32.4447 H   0  0  0  0  0  0  0  0  0  0  0  0
   21.0565   56.9644   32.7873 H   0  0  0  0  0  0  0  0  0  0  0  0
   21.9829   63.3508   28.1466 H   0  0  0  0  0  0  0  0  0  0  0  0
   22.9608   65.6631   26.8375 H   0  0  0  0  0  0  0  0  0  0  0  0
   20.6676   66.6654   27.5442 H   0  0  0  0  0  0  0  0  0  0  0  0
   20.3423   65.0316   28.2161 H   0  0  0  0  0  0  0  0  0  0  0  0
   21.7712   66.4163   25.0049 H   0  0  0  0  0  0  0  0  0  0  0  0
   19.0194   63.7508   26.8521 H   0  0  0  0  0  0  0  0  0  0  0  0
   20.9849   65.6834   22.7811 H   0  0  0  0  0  0  0  0  0  0  0  0
   18.2534   63.0007   24.6294 H   0  0  0  0  0  0  0  0  0  0  0  0
   19.2983   62.9501   22.2177 H   0  0  0  0  0  0  0  0  0  0  0  0
   22.2774   65.0664   30.2861 H   0  0  0  0  0  0  0  0  0  0  0  0
   23.4072   67.7704   30.8742 H   0  0  0  0  0  0  0  0  0  0  0  0
   21.9557   67.8407   32.8782 H   0  0  0  0  0  0  0  0  0  0  0  0
   21.2214   66.2751   32.3921 H   0  0  0  0  0  0  0  0  0  0  0  0
   21.0026   67.7288   31.3598 H   0  0  0  0  0  0  0  0  0  0  0  0
  1  2  1  0  0  0  0
  1 94  1  0  0  0  0
  1 95  1  0  0  0  0
  1 96  1  0  0  0  0
  2  3  1  0  0  0  0
  2  5  1  0  0  0  0
  2 97  1  6  0  0  0
  3  4  2  0  0  0  0
  3  9  1  0  0  0  0
  5  6  1  0  0  0  0
  5 98  1  0  0  0  0
  5 99  1  0  0  0  0
  6  7  1  0  0  0  0
  6  8  1  0  0  0  0
  6100  1  0  0  0  0
  7101  1  0  0  0  0
  7102  1  0  0  0  0
  7103  1  0  0  0  0
  8104  1  0  0  0  0
  8105  1  0  0  0  0
  8106  1  0  0  0  0
  9 10  1  0  0  0  0
  9107  1  0  0  0  0
 10 11  1  0  0  0  0
 10 13  1  0  0  0  0
 10108  1  1  0  0  0
 11 12  2  0  0  0  0
 11 16  1  0  0  0  0
 13 14  1  0  0  0  0
 13 15  1  0  0  0  0
 13109  1  6  0  0  0
 14110  1  0  0  0  0
 15111  1  0  0  0  0
 15112  1  0  0  0  0
 15113  1  0  0  0  0
 16 17  1  0  0  0  0
 16114  1  0  0  0  0
 17 18  1  0  0  0  0
 17 20  1  0  0  0  0
 17115  1  6  0  0  0
 18 19  2  0  0  0  0
 18 22  1  0  0  0  0
 20 21  1  0  0  0  0
 20116  1  0  0  0  0
 20117  1  0  0  0  0
 21118  1  0  0  0  0
 22 23  1  0  0  0  0
 22119  1  0  0  0  0
 23 24  1  0  0  0  0
 23 26  1  0  0  0  0
 23120  1  6  0  0  0
 24 25  2  0  0  0  0
 24 33  1  0  0  0  0
 26 27  1  0  0  0  0
 26121  1  0  0  0  0
 26122  1  0  0  0  0
 27 28  1  0  0  0  0
 27123  1  0  0  0  0
 27124  1  0  0  0  0
 28 29  1  0  0  0  0
 28125  1  0  0  0  0
 28126  1  0  0  0  0
 29 30  1  0  0  0  0
 29127  1  0  0  0  0
 30 31  1  0  0  0  0
 30 32  1  0  0  0  0
 31128  1  0  0  0  0
 31129  1  0  0  0  0
 32130  1  0  0  0  0
 32131  1  0  0  0  0
 33 34  1  0  0  0  0
 33132  1  0  0  0  0
 34 35  1  0  0  0  0
 34 37  1  0  0  0  0
 34133  1  1  0  0  0
 35 36  2  0  0  0  0
 35 41  1  0  0  0  0
 37 38  1  0  0  0  0
 37134  1  0  0  0  0
 37135  1  0  0  0  0
 38 39  1  0  0  0  0
 38 40  2  0  0  0  0
 41 42  1  0  0  0  0
 41136  1  0  0  0  0
 42 43  1  0  0  0  0
 42 45  1  0  0  0  0
 42137  1  6  0  0  0
 43 44  2  0  0  0  0
 43 52  1  0  0  0  0
 45 46  1  0  0  0  0
 45138  1  0  0  0  0
 45139  1  0  0  0  0
 46 47  2  0  0  0  0
 46 48  1  0  0  0  0
 47 49  1  0  0  0  0
 47140  1  0  0  0  0
 48 50  2  0  0  0  0
 48141  1  0  0  0  0
 49 51  2  0  0  0  0
 49142  1  0  0  0  0
 50 51  1  0  0  0  0
 50143  1  0  0  0  0
 51144  1  0  0  0  0
 52 53  1  0  0  0  0
 52145  1  0  0  0  0
 53 54  1  0  0  0  0
 53146  1  0  0  0  0
 53147  1  0  0  0  0
 54 55  2  0  0  0  0
 54 56  1  0  0  0  0
 56 57  1  0  0  0  0
 56148  1  0  0  0  0
 57 58  1  0  0  0  0
 57 60  1  0  0  0  0
 57149  1  1  0  0  0
 58 59  2  0  0  0  0
 58 62  1  0  0  0  0
 60 61  1  0  0  0  0
 60150  1  0  0  0  0
 60151  1  0  0  0  0
 61152  1  0  0  0  0
 62 63  1  0  0  0  0
 62153  1  0  0  0  0
 63 64  1  0  0  0  0
 63 66  1  0  0  0  0
 63154  1  6  0  0  0
 64 65  2  0  0  0  0
 64 76  1  0  0  0  0
 66 67  1  0  0  0  0
 66155  1  0  0  0  0
 66156  1  0  0  0  0
 67 68  2  0  0  0  0
 67 69  1  0  0  0  0
 68 70  1  0  0  0  0
 68157  1  0  0  0  0
 69 71  2  0  0  0  0
 69 72  1  0  0  0  0
 70 71  1  0  0  0  0
 70158  1  0  0  0  0
 71 73  1  0  0  0  0
 72 74  2  0  0  0  0
 72159  1  0  0  0  0
 73 75  2  0  0  0  0
 73160  1  0  0  0  0
 74 75  1  0  0  0  0
 74161  1  0  0  0  0
 75162  1  0  0  0  0
 76 77  1  0  0  0  0
 76163  1  0  0  0  0
 77 78  1  0  0  0  0
 77 80  1  0  0  0  0
 77164  1  6  0  0  0
 78 79  2  0  0  0  0
 78 88  1  0  0  0  0
 80 81  1  0  0  0  0
 80165  1  0  0  0  0
 80166  1  0  0  0  0
 81 82  2  0  0  0  0
 81 83  1  0  0  0  0
 82 84  1  0  0  0  0
 82167  1  0  0  0  0
 83 85  2  0  0  0  0
 83168  1  0  0  0  0
 84 86  2  0  0  0  0
 84169  1  0  0  0  0
 85 86  1  0  0  0  0
 85170  1  0  0  0  0
 86 87  1  0  0  0  0
 87171  1  0  0  0  0
 88 89  1  0  0  0  0
 88172  1  0  0  0  0
 89 90  1  0  0  0  0
 89 92  1  0  0  0  0
 89173  1  6  0  0  0
 90 91  1  0  0  0  0
 90 93  2  0  0  0  0
 92174  1  0  0  0  0
 92175  1  0  0  0  0
 92176  1  0  0  0  0
M  CHG  3   1   1  39  -1  91  -1
M  END
