2bks_ligand
 OpenBabel08222323343D

 87 91  0  0  1  0  0  0  0  0999 V2000
  127.1510   17.5480   44.8250 C   0  0  0  0  0  0  0  0  0  0  0  0
  127.4520   18.9130   45.0260 O   0  0  0  0  0  0  0  0  0  0  0  0
  127.6720   19.2280   46.3770 C   0  0  0  0  0  0  0  0  0  0  0  0
  128.9870   19.0930   46.9720 C   0  0  0  0  0  0  0  0  0  0  0  0
  130.1470   18.5940   46.1010 C   0  0  0  0  0  0  0  0  0  0  0  0
  131.4120   18.4850   46.7310 O   0  0  0  0  0  0  0  0  0  0  0  0
  126.5680   19.6890   47.1560 C   0  0  0  0  0  0  0  0  0  0  0  0
  126.7510   20.0240   48.5460 C   0  0  0  0  0  0  0  0  0  0  0  0
  128.0420   19.8940   49.1390 C   0  0  0  0  0  0  0  0  0  0  0  0
  129.1470   19.4320   48.3590 C   0  0  0  0  0  0  0  0  0  0  0  0
  128.2660   17.0310   37.4140 C   0  0  1  0  0  0  0  0  0  0  0  0
  127.7750   16.9150   35.9610 C   0  0  0  0  0  0  0  0  0  0  0  0
  128.7820   16.4540   35.0250 N   0  3  0  0  0  0  0  0  0  0  0  0
  130.2270   16.6830   35.1560 C   0  0  0  0  0  0  0  0  0  0  0  0
  130.7300   17.1130   36.5590 C   0  0  0  0  0  0  0  0  0  0  0  0
  129.7930   17.2660   37.6010 N   0  0  0  0  0  0  0  0  0  0  0  0
  131.9330   17.2970   36.6850 O   0  0  0  0  0  0  0  0  0  0  0  0
  127.3630   18.1500   38.0070 C   0  0  0  0  0  0  0  0  0  0  0  0
  127.2200   17.9100   39.3960 O   0  0  0  0  0  0  0  0  0  0  0  0
  130.5030   19.0240   39.2390 C   0  0  0  0  0  0  0  0  0  0  0  0
  130.2890   17.6450   38.8640 C   0  0  0  0  0  0  0  0  0  0  0  0
  130.5940   16.6010   39.8370 C   0  0  0  0  0  0  0  0  0  0  0  0
  131.0860   16.9670   41.1360 C   0  0  0  0  0  0  0  0  0  0  0  0
  131.2850   18.3730   41.4870 C   0  0  0  0  0  0  0  0  0  0  0  0
  130.9890   19.3770   40.5230 C   0  0  0  0  0  0  0  0  0  0  0  0
  131.7330   18.8030   42.7460 O   0  0  0  0  0  0  0  0  0  0  0  0
  132.8430   18.1990   43.3620 C   0  0  0  0  0  0  0  0  0  0  0  0
  133.0530   18.8620   44.7420 C   0  0  0  0  0  0  0  0  0  0  0  0
  132.5130   17.9960   45.9110 C   0  0  0  0  0  0  0  0  0  0  0  0
  121.3260   16.2240   38.9270 C   0  0  0  0  0  0  0  0  0  0  0  0
  127.0410   19.6520   41.1010 C   0  0  0  0  0  0  0  0  0  0  0  0
  126.2160   20.5810   41.8120 C   0  0  0  0  0  0  0  0  0  0  0  0
  124.7950   20.6860   41.5290 C   0  0  0  0  0  0  0  0  0  0  0  0
  124.1770   19.8430   40.5120 C   0  0  0  0  0  0  0  0  0  0  0  0
  125.0460   18.9210   39.8190 C   0  0  0  0  0  0  0  0  0  0  0  0
  126.4410   18.8150   40.0920 C   0  0  0  0  0  0  0  0  0  0  0  0
  123.9930   21.6960   42.3280 C   0  0  0  0  0  0  0  0  0  0  0  0
  122.4680   21.7900   42.0100 C   0  0  0  0  0  0  0  0  0  0  0  0
  121.8560   20.8660   40.9150 C   0  0  0  0  0  0  0  0  0  0  0  0
  122.7590   19.9140   40.2000 N   0  0  0  0  0  0  0  0  0  0  0  0
  122.1450   19.0260   39.1470 C   0  0  0  0  0  0  0  0  0  0  0  0
  121.8940   17.5600   39.5340 C   0  0  0  0  0  0  0  0  0  0  0  0
  120.3860   14.9840   39.1130 O   0  0  0  0  0  0  0  0  0  0  0  0
  126.9895   17.3622   43.7529 H   0  0  0  0  0  0  0  0  0  0  0  0
  126.2400   17.2873   45.3836 H   0  0  0  0  0  0  0  0  0  0  0  0
  127.9891   16.9313   45.1818 H   0  0  0  0  0  0  0  0  0  0  0  0
  130.2538   19.2904   45.2563 H   0  0  0  0  0  0  0  0  0  0  0  0
  129.8756   17.5974   45.7226 H   0  0  0  0  0  0  0  0  0  0  0  0
  125.5891   19.7874   46.7008 H   0  0  0  0  0  0  0  0  0  0  0  0
  125.9122   20.3728   49.1375 H   0  0  0  0  0  0  0  0  0  0  0  0
  128.1852   20.1462   50.1835 H   0  0  0  0  0  0  0  0  0  0  0  0
  130.1225   19.3357   48.8218 H   0  0  0  0  0  0  0  0  0  0  0  0
  128.0377   16.0872   37.9307 H   0  0  0  0  0  0  0  0  0  0  0  0
  127.4294   17.9068   35.6341 H   0  0  0  0  0  0  0  0  0  0  0  0
  126.9333   16.2072   35.9374 H   0  0  0  0  0  0  0  0  0  0  0  0
  128.5264   16.8563   34.1368 H   0  0  0  0  0  0  0  0  0  0  0  0
  128.6720   15.4528   34.9846 H   0  0  0  0  0  0  0  0  0  0  0  0
  130.5073   17.4724   34.4430 H   0  0  0  0  0  0  0  0  0  0  0  0
  130.7403   15.7477   34.8881 H   0  0  0  0  0  0  0  0  0  0  0  0
  126.3762   18.1293   37.5215 H   0  0  0  0  0  0  0  0  0  0  0  0
  127.8310   19.1321   37.8446 H   0  0  0  0  0  0  0  0  0  0  0  0
  130.2868   19.8072   38.5214 H   0  0  0  0  0  0  0  0  0  0  0  0
  130.4504   15.5574   39.5814 H   0  0  0  0  0  0  0  0  0  0  0  0
  131.3117   16.1947   41.8624 H   0  0  0  0  0  0  0  0  0  0  0  0
  131.1365   20.4215   40.7728 H   0  0  0  0  0  0  0  0  0  0  0  0
  133.7383   18.3441   42.7397 H   0  0  0  0  0  0  0  0  0  0  0  0
  132.6567   17.1226   43.4911 H   0  0  0  0  0  0  0  0  0  0  0  0
  132.5304   19.8299   44.7506 H   0  0  0  0  0  0  0  0  0  0  0  0
  134.1302   19.0255   44.8936 H   0  0  0  0  0  0  0  0  0  0  0  0
  132.1841   17.0417   45.4738 H   0  0  0  0  0  0  0  0  0  0  0  0
  133.3593   17.8158   46.5901 H   0  0  0  0  0  0  0  0  0  0  0  0
  122.2734   15.7013   38.7291 H   0  0  0  0  0  0  0  0  0  0  0  0
  120.9192   16.6159   37.9831 H   0  0  0  0  0  0  0  0  0  0  0  0
  128.1006   19.5789   41.3179 H   0  0  0  0  0  0  0  0  0  0  0  0
  126.6578   21.2150   42.5722 H   0  0  0  0  0  0  0  0  0  0  0  0
  124.6179   18.2804   39.0565 H   0  0  0  0  0  0  0  0  0  0  0  0
  124.4327   22.6881   42.1480 H   0  0  0  0  0  0  0  0  0  0  0  0
  124.0961   21.4368   43.3920 H   0  0  0  0  0  0  0  0  0  0  0  0
  122.2683   22.8270   41.7022 H   0  0  0  0  0  0  0  0  0  0  0  0
  121.9318   21.5757   42.9462 H   0  0  0  0  0  0  0  0  0  0  0  0
  121.4046   21.5193   40.1538 H   0  0  0  0  0  0  0  0  0  0  0  0
  121.0695   20.2673   41.3976 H   0  0  0  0  0  0  0  0  0  0  0  0
  122.8171   19.0294   38.2762 H   0  0  0  0  0  0  0  0  0  0  0  0
  121.1770   19.4656   38.8648 H   0  0  0  0  0  0  0  0  0  0  0  0
  122.9014   17.2442   39.8428 H   0  0  0  0  0  0  0  0  0  0  0  0
  121.2582   17.6789   40.4237 H   0  0  0  0  0  0  0  0  0  0  0  0
  120.4370   14.4310   38.3423 H   0  0  0  0  0  0  0  0  0  0  0  0
  1 44  1  0  0  0  0
  1 45  1  0  0  0  0
  1 46  1  0  0  0  0
  2  1  1  0  0  0  0
  3  2  1  0  0  0  0
  3  7  1  0  0  0  0
  4  3  2  0  0  0  0
  4 10  1  0  0  0  0
  5  4  1  0  0  0  0
  5 47  1  0  0  0  0
  5 48  1  0  0  0  0
  6  5  1  0  0  0  0
  7  8  2  0  0  0  0
  7 49  1  0  0  0  0
  8 50  1  0  0  0  0
  9  8  1  0  0  0  0
  9 51  1  0  0  0  0
 10  9  2  0  0  0  0
 10 52  1  0  0  0  0
 11 12  1  0  0  0  0
 11 16  1  0  0  0  0
 11 53  1  1  0  0  0
 12 13  1  0  0  0  0
 12 54  1  0  0  0  0
 12 55  1  0  0  0  0
 13 14  1  0  0  0  0
 13 56  1  0  0  0  0
 13 57  1  0  0  0  0
 14 58  1  0  0  0  0
 14 59  1  0  0  0  0
 15 14  1  0  0  0  0
 15 17  2  0  0  0  0
 16 15  1  0  0  0  0
 16 21  1  0  0  0  0
 18 11  1  0  0  0  0
 18 60  1  0  0  0  0
 18 61  1  0  0  0  0
 19 18  1  0  0  0  0
 20 25  1  0  0  0  0
 20 62  1  0  0  0  0
 21 20  2  0  0  0  0
 21 22  1  0  0  0  0
 22 23  2  0  0  0  0
 22 63  1  0  0  0  0
 23 24  1  0  0  0  0
 23 64  1  0  0  0  0
 24 26  1  0  0  0  0
 25 24  2  0  0  0  0
 25 65  1  0  0  0  0
 26 27  1  0  0  0  0
 27 28  1  0  0  0  0
 27 66  1  0  0  0  0
 27 67  1  0  0  0  0
 28 29  1  0  0  0  0
 28 68  1  0  0  0  0
 28 69  1  0  0  0  0
 29  6  1  0  0  0  0
 29 70  1  0  0  0  0
 29 71  1  0  0  0  0
 30 43  1  0  0  0  0
 30 72  1  0  0  0  0
 30 73  1  0  0  0  0
 31 74  1  0  0  0  0
 32 31  2  0  0  0  0
 32 75  1  0  0  0  0
 33 32  1  0  0  0  0
 33 37  1  0  0  0  0
 34 33  2  0  0  0  0
 34 35  1  0  0  0  0
 35 36  2  0  0  0  0
 35 76  1  0  0  0  0
 36 19  1  0  0  0  0
 36 31  1  0  0  0  0
 37 77  1  0  0  0  0
 37 78  1  0  0  0  0
 38 37  1  0  0  0  0
 38 79  1  0  0  0  0
 38 80  1  0  0  0  0
 39 38  1  0  0  0  0
 39 81  1  0  0  0  0
 39 82  1  0  0  0  0
 40 34  1  0  0  0  0
 40 39  1  0  0  0  0
 41 40  1  0  0  0  0
 41 42  1  0  0  0  0
 41 83  1  0  0  0  0
 41 84  1  0  0  0  0
 42 30  1  0  0  0  0
 42 85  1  0  0  0  0
 42 86  1  0  0  0  0
 43 87  1  0  0  0  0
M  CHG  1  13   1
M  END
