2bmg_ligand
 OpenBabel08222323343D

 64 67  0  0  0  0  0  0  0  0999 V2000
    3.8120    7.9900   25.3070 C   0  0  0  0  0  0  0  0  0  0  0  0
    5.0280    7.5780   24.5880 C   0  0  0  0  0  0  0  0  0  0  0  0
    4.9910    6.4930   23.5850 C   0  0  0  0  0  0  0  0  0  0  0  0
    3.7460    5.7790   23.3140 C   0  0  0  0  0  0  0  0  0  0  0  0
    2.5260    6.1320   24.0590 C   0  0  0  0  0  0  0  0  0  0  0  0
    2.5660    7.2380   25.0340 C   0  0  0  0  0  0  0  0  0  0  0  0
    3.9280    9.0680   26.2040 O   0  0  0  0  0  0  0  0  0  0  0  0
    6.1620    8.2690   24.9070 O   0  0  0  0  0  0  0  0  0  0  0  0
    7.4030    7.5870   24.9370 C   0  0  0  0  0  0  0  0  0  0  0  0
    8.2520    8.6020   25.6600 C   0  0  0  0  0  0  0  0  0  0  0  0
    9.6650    8.1600   25.8450 C   0  0  0  0  0  0  0  0  0  0  0  0
   10.0950    7.5480   27.1060 C   0  0  0  0  0  0  0  0  0  0  0  0
   11.5060    7.2120   27.3490 C   0  0  0  0  0  0  0  0  0  0  0  0
   12.4930    7.4540   26.2900 C   0  0  0  0  0  0  0  0  0  0  0  0
   12.0680    8.0340   25.0290 C   0  0  0  0  0  0  0  0  0  0  0  0
   10.6740    8.3950   24.8240 C   0  0  0  0  0  0  0  0  0  0  0  0
   10.2970    9.1490   23.3750 Cl  0  0  0  0  0  0  0  0  0  0  0  0
   14.1310    7.0960   26.5020 Cl  0  0  0  0  0  0  0  0  0  0  0  0
    3.7170    4.8000   22.2570 C   0  0  0  0  0  0  0  0  0  0  0  0
    4.8490    4.0550   22.1330 N   0  0  0  0  0  0  0  0  0  0  0  0
    4.8180    3.1920   20.9580 C   0  0  0  0  0  0  0  0  0  0  0  0
    5.8570    3.6340   19.9300 C   0  0  0  0  0  0  0  0  0  0  0  0
    7.2640    3.3010   20.4130 C   0  0  0  0  0  0  0  0  0  0  0  0
    8.3510    3.5980   19.3810 C   0  0  0  0  0  0  0  0  0  0  0  0
    8.0230    2.8940   18.1060 N   0  0  0  0  0  0  0  0  0  0  0  0
    6.6890    3.2520   17.5610 C   0  0  0  0  0  0  0  0  0  0  0  0
    5.6490    2.8910   18.6090 C   0  0  0  0  0  0  0  0  0  0  0  0
    8.8170    1.8950   17.5260 C   0  0  0  0  0  0  0  0  0  0  0  0
   10.1620    1.6120   18.0440 C   0  0  0  0  0  0  0  0  0  0  0  0
   10.9040    0.4990   17.4880 C   0  0  0  0  0  0  0  0  0  0  0  0
   10.3010   -0.2430   16.4750 N   0  0  0  0  0  0  0  0  0  0  0  0
    9.0470   -0.0170   15.9140 C   0  0  0  0  0  0  0  0  0  0  0  0
    8.2690    1.0760   16.4330 C   0  0  0  0  0  0  0  0  0  0  0  0
    2.7340    4.6680   21.5270 O   0  0  0  0  0  0  0  0  0  0  0  0
    2.7830    9.9030   26.4380 C   0  0  0  0  0  0  0  0  0  0  0  0
    5.8934    6.2255   23.0472 H   0  0  0  0  0  0  0  0  0  0  0  0
    1.6060    5.5835   23.8923 H   0  0  0  0  0  0  0  0  0  0  0  0
    1.6598    7.5073   25.5644 H   0  0  0  0  0  0  0  0  0  0  0  0
    7.7821    7.3873   23.9239 H   0  0  0  0  0  0  0  0  0  0  0  0
    7.3345    6.6420   25.4958 H   0  0  0  0  0  0  0  0  0  0  0  0
    7.8104    8.7855   26.6506 H   0  0  0  0  0  0  0  0  0  0  0  0
    8.2510    9.5362   25.0793 H   0  0  0  0  0  0  0  0  0  0  0  0
    9.3589    7.3392   27.8738 H   0  0  0  0  0  0  0  0  0  0  0  0
   11.8135    6.7905   28.2992 H   0  0  0  0  0  0  0  0  0  0  0  0
   12.7911    8.1984   24.2384 H   0  0  0  0  0  0  0  0  0  0  0  0
    5.6150    4.0948   22.7747 H   0  0  0  0  0  0  0  0  0  0  0  0
    3.8179    3.2395   20.5025 H   0  0  0  0  0  0  0  0  0  0  0  0
    5.0324    2.1577   21.2650 H   0  0  0  0  0  0  0  0  0  0  0  0
    5.7654    4.7180   19.7673 H   0  0  0  0  0  0  0  0  0  0  0  0
    7.3025    2.2298   20.6602 H   0  0  0  0  0  0  0  0  0  0  0  0
    7.4710    3.8935   21.3164 H   0  0  0  0  0  0  0  0  0  0  0  0
    9.3221    3.2441   19.7573 H   0  0  0  0  0  0  0  0  0  0  0  0
    8.4006    4.6819   19.2005 H   0  0  0  0  0  0  0  0  0  0  0  0
    6.4991    2.6888   16.6354 H   0  0  0  0  0  0  0  0  0  0  0  0
    6.6482    4.3306   17.3489 H   0  0  0  0  0  0  0  0  0  0  0  0
    4.6526    3.1430   18.2169 H   0  0  0  0  0  0  0  0  0  0  0  0
    5.7045    1.8094   18.8014 H   0  0  0  0  0  0  0  0  0  0  0  0
   10.5916    2.2249   18.8281 H   0  0  0  0  0  0  0  0  0  0  0  0
   11.8960    0.2517   17.8484 H   0  0  0  0  0  0  0  0  0  0  0  0
    8.6698   -0.6432   15.1136 H   0  0  0  0  0  0  0  0  0  0  0  0
    7.2894    1.2941   16.0233 H   0  0  0  0  0  0  0  0  0  0  0  0
    3.0450   10.6908   27.1596 H   0  0  0  0  0  0  0  0  0  0  0  0
    1.9614    9.2937   26.8426 H   0  0  0  0  0  0  0  0  0  0  0  0
    2.4657   10.3641   25.4910 H   0  0  0  0  0  0  0  0  0  0  0  0
  1  2  2  0  0  0  0
  1  6  1  0  0  0  0
  1  7  1  0  0  0  0
  2  3  1  0  0  0  0
  2  8  1  0  0  0  0
  3  4  2  0  0  0  0
  3 36  1  0  0  0  0
  4  5  1  0  0  0  0
  4 19  1  0  0  0  0
  5  6  2  0  0  0  0
  5 37  1  0  0  0  0
  6 38  1  0  0  0  0
  7 35  1  0  0  0  0
  8  9  1  0  0  0  0
  9 10  1  0  0  0  0
  9 39  1  0  0  0  0
  9 40  1  0  0  0  0
 10 11  1  0  0  0  0
 10 41  1  0  0  0  0
 10 42  1  0  0  0  0
 11 12  2  0  0  0  0
 11 16  1  0  0  0  0
 12 13  1  0  0  0  0
 12 43  1  0  0  0  0
 13 14  2  0  0  0  0
 13 44  1  0  0  0  0
 14 15  1  0  0  0  0
 14 18  1  0  0  0  0
 15 16  2  0  0  0  0
 15 45  1  0  0  0  0
 16 17  1  0  0  0  0
 19 20  1  0  0  0  0
 19 34  2  0  0  0  0
 20 21  1  0  0  0  0
 20 46  1  0  0  0  0
 21 22  1  0  0  0  0
 21 47  1  0  0  0  0
 21 48  1  0  0  0  0
 22 23  1  0  0  0  0
 22 27  1  0  0  0  0
 22 49  1  0  0  0  0
 23 24  1  0  0  0  0
 23 50  1  0  0  0  0
 23 51  1  0  0  0  0
 24 25  1  0  0  0  0
 24 52  1  0  0  0  0
 24 53  1  0  0  0  0
 25 26  1  0  0  0  0
 25 28  1  0  0  0  0
 26 27  1  0  0  0  0
 26 54  1  0  0  0  0
 26 55  1  0  0  0  0
 27 56  1  0  0  0  0
 27 57  1  0  0  0  0
 28 29  2  0  0  0  0
 28 33  1  0  0  0  0
 29 30  1  0  0  0  0
 29 58  1  0  0  0  0
 30 31  2  0  0  0  0
 30 59  1  0  0  0  0
 31 32  1  0  0  0  0
 32 33  2  0  0  0  0
 32 60  1  0  0  0  0
 33 61  1  0  0  0  0
 35 62  1  0  0  0  0
 35 63  1  0  0  0  0
 35 64  1  0  0  0  0
M  END
