2bmv_ligand
 OpenBabel08222323343D

 18 18  0  0  0  0  0  0  0  0999 V2000
   19.8070   36.4260   39.1770 C   0  0  0  0  0  0  0  0  0  0  0  0
   19.6100   37.2280   38.0720 C   0  0  0  0  0  0  0  0  0  0  0  0
   18.3360   37.3430   37.5360 C   0  0  0  0  0  0  0  0  0  0  0  0
   17.2580   36.6600   38.0930 C   0  0  0  0  0  0  0  0  0  0  0  0
   17.4730   35.8650   39.2050 C   0  0  0  0  0  0  0  0  0  0  0  0
   18.7420   35.7460   39.7510 C   0  0  0  0  0  0  0  0  0  0  0  0
   21.1680   36.2800   39.7800 C   0  0  0  0  0  3  0  0  0  0  0  0
   21.8730   37.2780   40.0710 N   0  0  0  0  0  0  0  0  0  0  0  0
   21.6360   35.0660   39.9750 N   0  0  0  0  0  0  0  0  0  0  0  0
   20.4418   37.7624   37.6275 H   0  0  0  0  0  0  0  0  0  0  0  0
   18.1769   37.9747   36.6696 H   0  0  0  0  0  0  0  0  0  0  0  0
   16.2671   36.7496   37.6628 H   0  0  0  0  0  0  0  0  0  0  0  0
   16.6427   35.3310   39.6528 H   0  0  0  0  0  0  0  0  0  0  0  0
   18.9018   35.1235   40.6239 H   0  0  0  0  0  0  0  0  0  0  0  0
   22.8067   37.1458   40.4853 H   0  0  0  0  0  0  0  0  0  0  0  0
   21.5174   38.2286   39.8953 H   0  0  0  0  0  0  0  0  0  0  0  0
   21.0586   34.2470   39.7367 H   0  0  0  0  0  0  0  0  0  0  0  0
   22.5798   34.9345   40.3660 H   0  0  0  0  0  0  0  0  0  0  0  0
  1  2  2  0  0  0  0
  1  6  1  0  0  0  0
  1  7  1  0  0  0  0
  2  3  1  0  0  0  0
  2 10  1  0  0  0  0
  3  4  2  0  0  0  0
  3 11  1  0  0  0  0
  4  5  1  0  0  0  0
  4 12  1  0  0  0  0
  5  6  2  0  0  0  0
  5 13  1  0  0  0  0
  6 14  1  0  0  0  0
  7  8  1  0  0  0  0
  7  9  1  0  0  0  0
  8 15  1  0  0  0  0
  8 16  1  0  0  0  0
  9 17  1  0  0  0  0
  9 18  1  0  0  0  0
M  END
