2bpx_ligand
 OpenBabel08222323343D

 94 98  0  0  1  0  0  0  0  0999 V2000
    9.3350   24.4680    3.1140 N   0  3  1  0  0  0  0  0  0  0  0  0
    9.4030   24.7380    4.5690 C   0  0  0  0  0  0  0  0  0  0  0  0
   10.7000   25.4630    4.9540 C   0  0  1  0  0  0  0  0  0  0  0  0
   10.7510   25.6770    6.4560 C   0  0  0  0  0  0  0  0  0  0  0  0
   11.1530   24.7800    7.1970 O   0  0  0  0  0  0  0  0  0  0  0  0
   10.3340   26.8990    6.8710 N   0  0  0  0  0  0  0  0  0  0  0  0
   10.0620   27.2130    8.2730 C   0  0  0  0  0  0  0  0  0  0  0  0
    9.4680   28.6120    8.3850 C   0  0  0  0  0  0  0  0  0  0  0  0
   11.3670   27.1240    9.1060 C   0  0  0  0  0  0  0  0  0  0  0  0
    8.9380   26.3030    8.7870 C   0  0  0  0  0  0  0  0  0  0  0  0
   11.8610   24.6450    4.5220 N   0  3  1  0  0  0  0  0  0  0  0  0
   11.7780   24.4290    3.0710 C   0  0  0  0  0  0  0  0  0  0  0  0
   10.5050   23.6980    2.6900 C   0  0  0  0  0  0  0  0  0  0  0  0
   13.0700   25.4950    4.5650 C   0  0  0  0  0  0  0  0  0  0  0  0
   14.3490   24.8390    5.1220 C   0  0  1  0  0  0  0  0  0  0  0  0
   15.3090   25.6670    4.8290 O   0  0  0  0  0  0  0  0  0  0  0  0
   14.4490   24.5420    6.6320 C   0  0  0  0  0  0  0  0  0  0  0  0
   15.6490   23.7130    7.1090 C   0  0  1  0  0  0  0  0  0  0  0  0
   15.7550   23.6090    8.6300 C   0  0  0  0  0  0  0  0  0  0  0  0
   16.9130   22.7260    9.0480 C   0  0  0  0  0  0  0  0  0  0  0  0
   18.2390   22.9930    8.6660 C   0  0  0  0  0  0  0  0  0  0  0  0
   19.2700   22.0890    8.9830 C   0  0  0  0  0  0  0  0  0  0  0  0
   18.9350   20.9140    9.6970 C   0  0  0  0  0  0  0  0  0  0  0  0
   17.6150   20.6460   10.1220 C   0  0  0  0  0  0  0  0  0  0  0  0
   16.6110   21.5740    9.7870 C   0  0  0  0  0  0  0  0  0  0  0  0
   15.5650   22.3400    6.5350 C   0  0  0  0  0  0  0  0  0  0  0  0
   14.5180   21.6910    6.5700 O   0  0  0  0  0  0  0  0  0  0  0  0
   16.7330   21.8940    6.0900 N   0  0  0  0  0  0  0  0  0  0  0  0
   16.8990   20.4760    5.8320 C   0  0  2  0  0  0  0  0  0  0  0  0
   18.3450   19.9970    6.0790 C   0  0  2  0  0  0  0  0  0  0  0  0
   19.2450   20.7140    5.4160 O   0  0  0  0  0  0  0  0  0  0  0  0
   18.4690   18.6210    5.4960 C   0  0  0  0  0  0  0  0  0  0  0  0
   17.6110   18.9380    4.2480 C   0  0  0  0  0  0  0  0  0  0  0  0
   17.5970   18.2200    3.0320 C   0  0  0  0  0  0  0  0  0  0  0  0
   16.6960   18.6660    2.0380 C   0  0  0  0  0  0  0  0  0  0  0  0
   15.8570   19.8020    2.2470 C   0  0  0  0  0  0  0  0  0  0  0  0
   15.8770   20.4950    3.4800 C   0  0  0  0  0  0  0  0  0  0  0  0
   16.7610   20.0340    4.4520 C   0  0  0  0  0  0  0  0  0  0  0  0
    8.2090   23.5460    2.9300 C   0  0  0  0  0  0  0  0  0  0  0  0
    6.8650   24.2590    2.8410 C   0  0  0  0  0  0  0  0  0  0  0  0
    6.6250   25.2420    1.8560 C   0  0  0  0  0  0  0  0  0  0  0  0
    5.4280   25.8340    1.7700 N   0  0  0  0  0  0  0  0  0  0  0  0
    4.4200   25.5290    2.6030 C   0  0  0  0  0  0  0  0  0  0  0  0
    4.5560   24.5550    3.6240 C   0  0  0  0  0  0  0  0  0  0  0  0
    5.8140   23.9240    3.7240 C   0  0  0  0  0  0  0  0  0  0  0  0
    9.2330   25.3190    2.5835 H   0  0  0  0  0  0  0  0  0  0  0  0
    9.3550   23.7821    5.1112 H   0  0  0  0  0  0  0  0  0  0  0  0
    8.5460   25.3654    4.8552 H   0  0  0  0  0  0  0  0  0  0  0  0
   10.7343   26.4396    4.4489 H   0  0  0  0  0  0  0  0  0  0  0  0
   10.2068   27.6177    6.1874 H   0  0  0  0  0  0  0  0  0  0  0  0
    9.2661   28.8411    9.4418 H   0  0  0  0  0  0  0  0  0  0  0  0
    8.5290   28.6585    7.8139 H   0  0  0  0  0  0  0  0  0  0  0  0
   10.1801   29.3462    7.9802 H   0  0  0  0  0  0  0  0  0  0  0  0
   11.1479   27.3623   10.1573 H   0  0  0  0  0  0  0  0  0  0  0  0
   12.1025   27.8414    8.7131 H   0  0  0  0  0  0  0  0  0  0  0  0
   11.7763   26.1052    9.0386 H   0  0  0  0  0  0  0  0  0  0  0  0
    8.7306   26.5365    9.8417 H   0  0  0  0  0  0  0  0  0  0  0  0
    9.2482   25.2514    8.6984 H   0  0  0  0  0  0  0  0  0  0  0  0
    8.0296   26.4690    8.1893 H   0  0  0  0  0  0  0  0  0  0  0  0
   11.9412   23.7936    5.0556 H   0  0  0  0  0  0  0  0  0  0  0  0
   12.6434   23.8316    2.7484 H   0  0  0  0  0  0  0  0  0  0  0  0
   11.7958   25.4044    2.5628 H   0  0  0  0  0  0  0  0  0  0  0  0
   10.4758   23.5636    1.5986 H   0  0  0  0  0  0  0  0  0  0  0  0
   10.4901   22.7139    3.1812 H   0  0  0  0  0  0  0  0  0  0  0  0
   12.8422   26.3697    5.1919 H   0  0  0  0  0  0  0  0  0  0  0  0
   13.2835   25.8256    3.5378 H   0  0  0  0  0  0  0  0  0  0  0  0
   14.4942   23.8865    4.5913 H   0  0  0  0  0  0  0  0  0  0  0  0
   15.3536   25.7776    3.8865 H   0  0  0  0  0  0  0  0  0  0  0  0
   13.5369   24.0005    6.9232 H   0  0  0  0  0  0  0  0  0  0  0  0
   14.4854   25.5080    7.1569 H   0  0  0  0  0  0  0  0  0  0  0  0
   16.5637   24.1977    6.7370 H   0  0  0  0  0  0  0  0  0  0  0  0
   14.8207   23.1835    9.0250 H   0  0  0  0  0  0  0  0  0  0  0  0
   15.9047   24.6157    9.0473 H   0  0  0  0  0  0  0  0  0  0  0  0
   18.4694   23.9024    8.1229 H   0  0  0  0  0  0  0  0  0  0  0  0
   20.2940   22.2876    8.6879 H   0  0  0  0  0  0  0  0  0  0  0  0
   19.7158   20.1974    9.9248 H   0  0  0  0  0  0  0  0  0  0  0  0
   17.3820   19.7522   10.6893 H   0  0  0  0  0  0  0  0  0  0  0  0
   15.5902   21.3952   10.1049 H   0  0  0  0  0  0  0  0  0  0  0  0
   17.4903   22.5283    5.9342 H   0  0  0  0  0  0  0  0  0  0  0  0
   16.1875   19.9374    6.4752 H   0  0  0  0  0  0  0  0  0  0  0  0
   18.5635   20.0031    7.1571 H   0  0  0  0  0  0  0  0  0  0  0  0
   20.1143   20.3793    5.6021 H   0  0  0  0  0  0  0  0  0  0  0  0
   18.0286   17.8412    6.1347 H   0  0  0  0  0  0  0  0  0  0  0  0
   19.5059   18.3499    5.2483 H   0  0  0  0  0  0  0  0  0  0  0  0
   18.2462   17.3674    2.8685 H   0  0  0  0  0  0  0  0  0  0  0  0
   16.6410   18.1332    1.0956 H   0  0  0  0  0  0  0  0  0  0  0  0
   15.1986   20.1366    1.4535 H   0  0  0  0  0  0  0  0  0  0  0  0
   15.2323   21.3476    3.6603 H   0  0  0  0  0  0  0  0  0  0  0  0
    8.1816   22.8513    3.7825 H   0  0  0  0  0  0  0  0  0  0  0  0
    8.3677   22.9797    2.0004 H   0  0  0  0  0  0  0  0  0  0  0  0
    7.4142   25.5184    1.1662 H   0  0  0  0  0  0  0  0  0  0  0  0
    3.4725   26.0437    2.4913 H   0  0  0  0  0  0  0  0  0  0  0  0
    3.7382   24.3085    4.2914 H   0  0  0  0  0  0  0  0  0  0  0  0
    5.9763   23.1725    4.4881 H   0  0  0  0  0  0  0  0  0  0  0  0
  1  2  1  0  0  0  0
  1 13  1  0  0  0  0
  1 39  1  0  0  0  0
  1 46  1  6  0  0  0
  2  3  1  0  0  0  0
  2 47  1  0  0  0  0
  2 48  1  0  0  0  0
  3  4  1  0  0  0  0
  3 11  1  0  0  0  0
  3 49  1  6  0  0  0
  4  5  2  0  0  0  0
  4  6  1  0  0  0  0
  6  7  1  0  0  0  0
  6 50  1  0  0  0  0
  7  8  1  0  0  0  0
  7  9  1  0  0  0  0
  7 10  1  0  0  0  0
  8 51  1  0  0  0  0
  8 52  1  0  0  0  0
  8 53  1  0  0  0  0
  9 54  1  0  0  0  0
  9 55  1  0  0  0  0
  9 56  1  0  0  0  0
 10 57  1  0  0  0  0
 10 58  1  0  0  0  0
 10 59  1  0  0  0  0
 11 12  1  0  0  0  0
 11 14  1  0  0  0  0
 11 60  1  1  0  0  0
 12 13  1  0  0  0  0
 12 61  1  0  0  0  0
 12 62  1  0  0  0  0
 13 63  1  0  0  0  0
 13 64  1  0  0  0  0
 14 15  1  0  0  0  0
 14 65  1  0  0  0  0
 14 66  1  0  0  0  0
 15 16  1  0  0  0  0
 15 17  1  0  0  0  0
 15 67  1  6  0  0  0
 16 68  1  0  0  0  0
 17 18  1  0  0  0  0
 17 69  1  0  0  0  0
 17 70  1  0  0  0  0
 18 19  1  0  0  0  0
 18 26  1  0  0  0  0
 18 71  1  6  0  0  0
 19 20  1  0  0  0  0
 19 72  1  0  0  0  0
 19 73  1  0  0  0  0
 20 21  2  0  0  0  0
 20 25  1  0  0  0  0
 21 22  1  0  0  0  0
 21 74  1  0  0  0  0
 22 23  2  0  0  0  0
 22 75  1  0  0  0  0
 23 24  1  0  0  0  0
 23 76  1  0  0  0  0
 24 25  2  0  0  0  0
 24 77  1  0  0  0  0
 25 78  1  0  0  0  0
 26 27  2  0  0  0  0
 26 28  1  0  0  0  0
 28 29  1  0  0  0  0
 28 79  1  0  0  0  0
 29 30  1  0  0  0  0
 29 38  1  0  0  0  0
 29 80  1  1  0  0  0
 30 31  1  0  0  0  0
 30 32  1  0  0  0  0
 30 81  1  1  0  0  0
 31 82  1  0  0  0  0
 32 33  1  0  0  0  0
 32 83  1  0  0  0  0
 32 84  1  0  0  0  0
 33 34  2  0  0  0  0
 33 38  1  0  0  0  0
 34 35  1  0  0  0  0
 34 85  1  0  0  0  0
 35 36  2  0  0  0  0
 35 86  1  0  0  0  0
 36 37  1  0  0  0  0
 36 87  1  0  0  0  0
 37 38  2  0  0  0  0
 37 88  1  0  0  0  0
 39 40  1  0  0  0  0
 39 89  1  0  0  0  0
 39 90  1  0  0  0  0
 40 41  2  0  0  0  0
 40 45  1  0  0  0  0
 41 42  1  0  0  0  0
 41 91  1  0  0  0  0
 42 43  2  0  0  0  0
 43 44  1  0  0  0  0
 43 92  1  0  0  0  0
 44 45  2  0  0  0  0
 44 93  1  0  0  0  0
 45 94  1  0  0  0  0
M  CHG  2   1   1  11   1
M  END
