2brp_ligand
 OpenBabel08222323343D

 68 70  0  0  0  0  0  0  0  0999 V2000
   15.3520  -10.8030   33.6460 C   0  0  0  0  0  0  0  0  0  0  0  0
   16.1400  -11.9350   33.9780 C   0  0  0  0  0  0  0  0  0  0  0  0
   17.5700  -11.8280   34.2050 C   0  0  0  0  0  0  0  0  0  0  0  0
   18.2840  -10.5340   34.1050 C   0  0  0  0  0  0  0  0  0  0  0  0
   17.4220   -9.3020   33.7610 C   0  0  0  0  0  0  0  0  0  0  0  0
   15.9920   -9.4870   33.5400 C   0  0  0  0  0  0  0  0  0  0  0  0
   19.9090  -10.3910   34.3480 O   0  0  0  0  0  0  0  0  0  0  0  0
   20.4990   -9.1530   34.6280 S   0  0  0  0  0  0  0  0  0  0  0  0
   20.1980   -8.0870   33.6950 O   0  0  0  0  0  0  0  0  0  0  0  0
   20.0830   -8.8480   35.9290 O   0  0  0  0  0  0  0  0  0  0  0  0
   22.0030   -9.3470   34.6820 N   0  0  0  0  0  0  0  0  0  0  0  0
   12.8380  -11.9980   33.3800 N   0  0  0  0  0  0  0  0  0  0  0  0
   13.6640  -10.8730   33.3090 C   0  0  0  0  0  0  0  0  0  0  0  0
   12.9960   -9.7400   32.9910 C   0  0  0  0  0  0  0  0  0  0  0  0
   10.5000   -9.3730   32.5400 C   0  0  0  0  0  0  0  0  0  0  0  0
    9.2780  -10.0140   32.4820 C   0  0  0  0  0  0  0  0  0  0  0  0
    9.1470  -11.4080   32.7110 C   0  0  0  0  0  0  0  0  0  0  0  0
   10.2700  -12.2240   33.0260 C   0  0  0  0  0  0  0  0  0  0  0  0
   11.5380  -11.5570   33.0880 C   0  0  0  0  0  0  0  0  0  0  0  0
   11.6320  -10.1310   32.8570 C   0  0  0  0  0  0  0  0  0  0  0  0
   13.2000  -13.4090   33.7750 C   0  0  0  0  0  0  0  0  0  0  0  0
   14.1980  -14.0560   32.8290 C   0  0  0  0  0  0  0  0  0  0  0  0
   14.7750  -15.2990   33.4680 C   0  0  0  0  0  0  0  0  0  0  0  0
   16.2970  -15.2640   33.5420 C   0  0  0  0  0  0  0  0  0  0  0  0
   16.8780  -16.6450   33.8900 C   0  0  0  0  0  0  0  0  0  0  0  0
   16.2210  -17.2910   35.1260 C   0  0  0  0  0  0  0  0  0  0  0  0
   16.3460  -18.8180   35.0780 C   0  0  0  0  0  0  0  0  0  0  0  0
   15.9740  -19.3490   33.6900 C   0  0  0  0  0  0  0  0  0  0  0  0
   14.6860  -20.1440   33.7150 C   0  0  0  0  0  0  0  0  0  0  0  0
   13.9970  -20.1370   32.3600 C   0  0  0  0  0  0  0  0  0  0  0  0
    7.2000  -11.7610   34.8300 O   0  0  0  0  0  0  0  0  0  0  0  0
    6.6210  -12.0350   33.5920 S   0  0  0  0  0  0  0  0  0  0  0  0
    5.6300  -11.1150   33.0920 O   0  0  0  0  0  0  0  0  0  0  0  0
    7.6720  -12.1250   32.6160 O   0  0  0  0  0  0  0  0  0  0  0  0
    6.0080  -13.3990   33.6810 N   0  0  0  0  0  0  0  0  0  0  0  0
   15.6624  -12.9043   34.0644 H   0  0  0  0  0  0  0  0  0  0  0  0
   18.1315  -12.7210   34.4549 H   0  0  0  0  0  0  0  0  0  0  0  0
   17.8701   -8.3179   33.6850 H   0  0  0  0  0  0  0  0  0  0  0  0
   15.3834   -8.6256   33.2897 H   0  0  0  0  0  0  0  0  0  0  0  0
   22.6011   -8.5684   34.8720 H   0  0  0  0  0  0  0  0  0  0  0  0
   22.3961  -10.2534   34.5276 H   0  0  0  0  0  0  0  0  0  0  0  0
   13.4121   -8.7416   32.8644 H   0  0  0  0  0  0  0  0  0  0  0  0
   10.5798   -8.3097   32.3448 H   0  0  0  0  0  0  0  0  0  0  0  0
    8.3911   -9.4338   32.2544 H   0  0  0  0  0  0  0  0  0  0  0  0
   10.1724  -13.2881   33.2085 H   0  0  0  0  0  0  0  0  0  0  0  0
   12.2827  -14.0160   33.7846 H   0  0  0  0  0  0  0  0  0  0  0  0
   13.6369  -13.3888   34.7843 H   0  0  0  0  0  0  0  0  0  0  0  0
   15.0097  -13.3459   32.6125 H   0  0  0  0  0  0  0  0  0  0  0  0
   13.6899  -14.3288   31.8923 H   0  0  0  0  0  0  0  0  0  0  0  0
   14.4707  -16.1742   32.8753 H   0  0  0  0  0  0  0  0  0  0  0  0
   14.3742  -15.3898   34.4883 H   0  0  0  0  0  0  0  0  0  0  0  0
   16.6005  -14.5436   34.3159 H   0  0  0  0  0  0  0  0  0  0  0  0
   16.6947  -14.9446   32.5674 H   0  0  0  0  0  0  0  0  0  0  0  0
   17.9543  -16.5312   34.0866 H   0  0  0  0  0  0  0  0  0  0  0  0
   16.7312  -17.3125   33.0281 H   0  0  0  0  0  0  0  0  0  0  0  0
   15.1558  -17.0177   35.1516 H   0  0  0  0  0  0  0  0  0  0  0  0
   16.7173  -16.9176   36.0339 H   0  0  0  0  0  0  0  0  0  0  0  0
   15.6709  -19.2592   35.8261 H   0  0  0  0  0  0  0  0  0  0  0  0
   17.3835  -19.1027   35.3072 H   0  0  0  0  0  0  0  0  0  0  0  0
   16.7852  -19.9980   33.3286 H   0  0  0  0  0  0  0  0  0  0  0  0
   15.8527  -18.4974   33.0044 H   0  0  0  0  0  0  0  0  0  0  0  0
   14.0091  -19.7034   34.4618 H   0  0  0  0  0  0  0  0  0  0  0  0
   14.9135  -21.1833   33.9943 H   0  0  0  0  0  0  0  0  0  0  0  0
   13.0680  -20.7231   32.4181 H   0  0  0  0  0  0  0  0  0  0  0  0
   14.6644  -20.5814   31.6070 H   0  0  0  0  0  0  0  0  0  0  0  0
   13.7600  -19.1015   32.0745 H   0  0  0  0  0  0  0  0  0  0  0  0
    5.2475  -13.5654   34.3087 H   0  0  0  0  0  0  0  0  0  0  0  0
    6.3593  -14.1431   33.1127 H   0  0  0  0  0  0  0  0  0  0  0  0
  1  2  2  0  0  0  0
  1  6  1  0  0  0  0
  2  3  1  0  0  0  0
  2 36  1  0  0  0  0
  3  4  2  0  0  0  0
  3 37  1  0  0  0  0
  4  7  1  0  0  0  0
  5  4  1  0  0  0  0
  5 38  1  0  0  0  0
  6  5  2  0  0  0  0
  6 39  1  0  0  0  0
  7  8  1  0  0  0  0
  8  9  2  0  0  0  0
  8 10  2  0  0  0  0
  8 11  1  0  0  0  0
 11 40  1  0  0  0  0
 11 41  1  0  0  0  0
 12 13  1  0  0  0  0
 12 21  1  0  0  0  0
 13  1  1  0  0  0  0
 14 13  2  0  0  0  0
 14 42  1  0  0  0  0
 15 20  1  0  0  0  0
 15 43  1  0  0  0  0
 16 15  2  0  0  0  0
 16 44  1  0  0  0  0
 17 16  1  0  0  0  0
 17 18  2  0  0  0  0
 18 19  1  0  0  0  0
 18 45  1  0  0  0  0
 19 12  1  0  0  0  0
 19 20  2  0  0  0  0
 20 14  1  0  0  0  0
 21 22  1  0  0  0  0
 21 46  1  0  0  0  0
 21 47  1  0  0  0  0
 22 23  1  0  0  0  0
 22 48  1  0  0  0  0
 22 49  1  0  0  0  0
 23 24  1  0  0  0  0
 23 50  1  0  0  0  0
 23 51  1  0  0  0  0
 24 25  1  0  0  0  0
 24 52  1  0  0  0  0
 24 53  1  0  0  0  0
 25 26  1  0  0  0  0
 25 54  1  0  0  0  0
 25 55  1  0  0  0  0
 26 27  1  0  0  0  0
 26 56  1  0  0  0  0
 26 57  1  0  0  0  0
 27 28  1  0  0  0  0
 27 58  1  0  0  0  0
 27 59  1  0  0  0  0
 28 29  1  0  0  0  0
 28 60  1  0  0  0  0
 28 61  1  0  0  0  0
 29 30  1  0  0  0  0
 29 62  1  0  0  0  0
 29 63  1  0  0  0  0
 30 64  1  0  0  0  0
 30 65  1  0  0  0  0
 30 66  1  0  0  0  0
 32 31  2  0  0  0  0
 32 33  2  0  0  0  0
 32 34  1  0  0  0  0
 32 35  1  0  0  0  0
 34 17  1  0  0  0  0
 35 67  1  0  0  0  0
 35 68  1  0  0  0  0
M  END
