2bua_ligand
 OpenBabel08222323343D

 31 32  0  0  0  0  0  0  0  0999 V2000
   -5.9900   21.2360    4.0370 C   0  0  0  0  0  0  0  0  0  0  0  0
   -6.0320   22.7600    4.0340 C   0  0  0  0  0  0  0  0  0  0  0  0
   -7.2930   20.7280    4.6940 C   0  0  0  0  0  0  0  0  0  0  0  0
   -7.4930   23.1630    4.1870 C   0  0  0  0  0  0  0  0  0  0  0  0
   -8.2910   21.8740    4.4110 C   0  0  0  0  0  0  0  0  0  0  0  0
   -7.8350   19.3700    4.0770 C   0  0  0  0  0  0  0  0  0  0  0  0
   -6.9200   18.4100    3.5380 C   0  0  0  0  0  0  0  0  0  0  0  0
   -9.2290   19.0520    4.0350 C   0  0  0  0  0  0  0  0  0  0  0  0
   -7.3840   17.2000    2.9890 C   0  0  0  0  0  0  0  0  0  0  0  0
   -9.6880   17.8370    3.4810 C   0  0  0  0  0  0  0  0  0  0  0  0
   -8.7680   16.9150    2.9600 C   0  0  0  0  0  0  0  0  0  0  0  0
   -7.0280   20.5710    6.2270 C   0  0  0  0  0  0  0  0  0  0  0  0
   -7.0990   19.1890    6.7340 N   0  3  0  0  0  0  0  0  0  0  0  0
   -5.1201   20.8869    4.6127 H   0  0  0  0  0  0  0  0  0  0  0  0
   -5.9209   20.8617    3.0050 H   0  0  0  0  0  0  0  0  0  0  0  0
   -5.6301   23.1476    3.0863 H   0  0  0  0  0  0  0  0  0  0  0  0
   -5.4406   23.1563    4.8725 H   0  0  0  0  0  0  0  0  0  0  0  0
   -7.8426   23.6704    3.2758 H   0  0  0  0  0  0  0  0  0  0  0  0
   -7.6113   23.8354    5.0495 H   0  0  0  0  0  0  0  0  0  0  0  0
   -8.9666   21.9994    5.2700 H   0  0  0  0  0  0  0  0  0  0  0  0
   -8.8803   21.6405    3.5120 H   0  0  0  0  0  0  0  0  0  0  0  0
   -5.8562   18.6177    3.5529 H   0  0  0  0  0  0  0  0  0  0  0  0
   -9.9472   19.7577    4.4364 H   0  0  0  0  0  0  0  0  0  0  0  0
   -6.6769   16.4836    2.5867 H   0  0  0  0  0  0  0  0  0  0  0  0
  -10.7492   17.6171    3.4583 H   0  0  0  0  0  0  0  0  0  0  0  0
   -9.1193   15.9820    2.5343 H   0  0  0  0  0  0  0  0  0  0  0  0
   -7.7764   21.1707    6.7657 H   0  0  0  0  0  0  0  0  0  0  0  0
   -6.0222   20.9615    6.4410 H   0  0  0  0  0  0  0  0  0  0  0  0
   -6.9160   19.1850    7.7252 H   0  0  0  0  0  0  0  0  0  0  0  0
   -6.4110   18.6225    6.2631 H   0  0  0  0  0  0  0  0  0  0  0  0
   -8.0185   18.8143    6.5606 H   0  0  0  0  0  0  0  0  0  0  0  0
  1  2  1  0  0  0  0
  1  3  1  0  0  0  0
  1 14  1  0  0  0  0
  1 15  1  0  0  0  0
  2  4  1  0  0  0  0
  2 16  1  0  0  0  0
  2 17  1  0  0  0  0
  3  5  1  0  0  0  0
  3  6  1  0  0  0  0
  3 12  1  0  0  0  0
  4  5  1  0  0  0  0
  4 18  1  0  0  0  0
  4 19  1  0  0  0  0
  5 20  1  0  0  0  0
  5 21  1  0  0  0  0
  6  7  2  0  0  0  0
  6  8  1  0  0  0  0
  7  9  1  0  0  0  0
  7 22  1  0  0  0  0
  8 10  2  0  0  0  0
  8 23  1  0  0  0  0
  9 11  2  0  0  0  0
  9 24  1  0  0  0  0
 10 11  1  0  0  0  0
 10 25  1  0  0  0  0
 11 26  1  0  0  0  0
 12 13  1  0  0  0  0
 12 27  1  0  0  0  0
 12 28  1  0  0  0  0
 13 29  1  0  0  0  0
 13 30  1  0  0  0  0
 13 31  1  0  0  0  0
M  CHG  1  13   1
M  END
