2bv4_ligand
 OpenBabel08222323343D

 27 27  0  0  1  0  0  0  0  0999 V2000
    4.9120   10.5980   -3.1590 C   0  0  1  0  0  0  0  0  0  0  0  0
    6.1880    9.8340   -2.9310 C   0  0  2  0  0  0  0  0  0  0  0  0
    5.8520    8.4860   -2.2890 C   0  0  2  0  0  0  0  0  0  0  0  0
    4.9470    8.6860   -1.0610 C   0  0  1  0  0  0  0  0  0  0  0  0
    3.6830    9.4300   -1.5330 C   0  0  1  0  0  0  0  0  0  0  0  0
    2.6650    9.7520   -0.4460 C   0  0  0  0  0  0  0  0  0  0  0  0
    3.1480   10.8250   -4.7080 C   0  0  0  0  0  0  0  0  0  0  0  0
    4.2840   10.0750   -4.2600 O   0  0  0  0  0  0  0  0  0  0  0  0
    7.0630   10.5050   -2.0260 O   0  0  0  0  0  0  0  0  0  0  0  0
    7.0450    7.7960   -1.9030 O   0  0  0  0  0  0  0  0  0  0  0  0
    4.6840    7.3890   -0.5330 O   0  0  0  0  0  0  0  0  0  0  0  0
    4.1210   10.7250   -2.0210 O   0  0  0  0  0  0  0  0  0  0  0  0
    1.4550   10.1800   -1.1350 O   0  0  0  0  0  0  0  0  0  0  0  0
    5.2022   11.6247   -3.4268 H   0  0  0  0  0  0  0  0  0  0  0  0
    6.6964    9.6828   -3.8947 H   0  0  0  0  0  0  0  0  0  0  0  0
    5.3144    7.8725   -3.0270 H   0  0  0  0  0  0  0  0  0  0  0  0
    5.4585    9.2920   -0.2987 H   0  0  0  0  0  0  0  0  0  0  0  0
    3.1976    8.8459   -2.3287 H   0  0  0  0  0  0  0  0  0  0  0  0
    3.0405   10.5583    0.2011 H   0  0  0  0  0  0  0  0  0  0  0  0
    2.4614    8.8584    0.1623 H   0  0  0  0  0  0  0  0  0  0  0  0
    2.7098   10.3350   -5.5900 H   0  0  0  0  0  0  0  0  0  0  0  0
    3.4635   11.8447   -4.9739 H   0  0  0  0  0  0  0  0  0  0  0  0
    2.3987   10.8709   -3.9040 H   0  0  0  0  0  0  0  0  0  0  0  0
    7.2996   11.3520   -2.3853 H   0  0  0  0  0  0  0  0  0  0  0  0
    7.6000    7.6751   -2.6645 H   0  0  0  0  0  0  0  0  0  0  0  0
    4.1035    7.4646    0.2152 H   0  0  0  0  0  0  0  0  0  0  0  0
    0.7861   10.3933   -0.4950 H   0  0  0  0  0  0  0  0  0  0  0  0
  1  2  1  0  0  0  0
  1  8  1  0  0  0  0
  1 12  1  0  0  0  0
  1 14  1  6  0  0  0
  2  3  1  0  0  0  0
  2  9  1  0  0  0  0
  2 15  1  6  0  0  0
  3  4  1  0  0  0  0
  3 10  1  0  0  0  0
  3 16  1  6  0  0  0
  4  5  1  0  0  0  0
  4 11  1  0  0  0  0
  4 17  1  1  0  0  0
  5  6  1  0  0  0  0
  5 12  1  0  0  0  0
  5 18  1  6  0  0  0
  6 13  1  0  0  0  0
  6 19  1  0  0  0  0
  6 20  1  0  0  0  0
  7 21  1  0  0  0  0
  7 22  1  0  0  0  0
  7 23  1  0  0  0  0
  8  7  1  0  0  0  0
  9 24  1  0  0  0  0
 10 25  1  0  0  0  0
 11 26  1  0  0  0  0
 13 27  1  0  0  0  0
M  END
