2bw7_ligand
 OpenBabel08222323343D

 45 48  0  0  1  0  0  0  0  0999 V2000
    2.5700   -4.3650    5.9530 C   0  0  0  0  0  0  0  0  0  0  0  0
    2.1620   -3.0840    6.5380 C   0  0  0  0  0  0  0  0  0  0  0  0
    0.2660   -2.7630    4.7600 C   0  0  0  0  0  0  0  0  0  0  0  0
   -0.6560   -1.7860    3.9710 C   0  0  0  0  0  0  0  0  0  0  0  0
   -1.5100   -0.9160    4.9340 C   0  0  1  0  0  0  0  0  0  0  0  0
   -0.5110   -0.1550    5.9370 C   0  0  1  0  0  0  0  0  0  0  0  0
   -1.4770    0.8210    6.6110 C   0  0  0  0  0  0  0  0  0  0  0  0
   -2.2240    1.4360    5.3710 C   0  0  0  0  0  0  0  0  0  0  0  0
   -2.2240    0.3080    4.2830 C   0  0  2  0  0  0  0  0  0  0  0  0
   -2.6170   -1.8270    5.6410 C   0  0  0  0  0  0  0  0  0  0  0  0
    3.3940   -5.2880    6.6780 C   0  0  0  0  0  0  0  0  0  0  0  0
    3.8460   -4.9590    8.0040 C   0  0  0  0  0  0  0  0  0  0  0  0
    3.4730   -3.7120    8.6220 C   0  0  0  0  0  0  0  0  0  0  0  0
    2.6380   -2.7560    7.9160 C   0  0  0  0  0  0  0  0  0  0  0  0
    2.2490   -1.4200    8.6070 C   0  0  0  0  0  0  0  0  0  0  0  0
    1.3410   -0.4470    7.7660 C   0  0  0  0  0  0  0  0  0  0  0  0
    0.3860   -1.1730    6.7820 C   0  0  2  0  0  0  0  0  0  0  0  0
    1.2570   -2.0570    5.7620 C   0  0  1  0  0  0  0  0  0  0  0  0
   -3.5880    0.0820    3.8290 O   0  0  0  0  0  0  0  0  0  0  0  0
    4.6340   -5.8490    8.6820 O   0  0  0  0  0  0  0  0  0  0  0  0
    3.7470   -6.4780    6.0940 O   0  0  0  0  0  0  0  0  0  0  0  0
    2.2420   -4.6197    4.9517 H   0  0  0  0  0  0  0  0  0  0  0  0
    0.8613   -3.3361    4.0340 H   0  0  0  0  0  0  0  0  0  0  0  0
   -0.3725   -3.4502    5.3346 H   0  0  0  0  0  0  0  0  0  0  0  0
   -1.3277   -2.3700    3.3247 H   0  0  0  0  0  0  0  0  0  0  0  0
   -0.0318   -1.1264    3.3503 H   0  0  0  0  0  0  0  0  0  0  0  0
    0.2045    0.4435    5.3540 H   0  0  0  0  0  0  0  0  0  0  0  0
   -0.9364    1.5937    7.1773 H   0  0  0  0  0  0  0  0  0  0  0  0
   -2.1750    0.2967    7.2802 H   0  0  0  0  0  0  0  0  0  0  0  0
   -1.6913    2.3253    5.0031 H   0  0  0  0  0  0  0  0  0  0  0  0
   -3.2545    1.7110    5.6401 H   0  0  0  0  0  0  0  0  0  0  0  0
   -1.6319    0.6312    3.4141 H   0  0  0  0  0  0  0  0  0  0  0  0
   -2.1323   -2.6975    6.1071 H   0  0  0  0  0  0  0  0  0  0  0  0
   -3.3436   -2.1704    4.8899 H   0  0  0  0  0  0  0  0  0  0  0  0
   -3.1368   -1.2400    6.4125 H   0  0  0  0  0  0  0  0  0  0  0  0
    3.8190   -3.4851    9.6239 H   0  0  0  0  0  0  0  0  0  0  0  0
    3.1782   -0.8850    8.8526 H   0  0  0  0  0  0  0  0  0  0  0  0
    1.7108   -1.6650    9.5345 H   0  0  0  0  0  0  0  0  0  0  0  0
    1.9940    0.2213    7.1855 H   0  0  0  0  0  0  0  0  0  0  0  0
    0.7331    0.1487    8.4628 H   0  0  0  0  0  0  0  0  0  0  0  0
   -0.2786   -1.8319    7.3601 H   0  0  0  0  0  0  0  0  0  0  0  0
    1.9171   -1.3897    5.1884 H   0  0  0  0  0  0  0  0  0  0  0  0
   -4.1257   -0.1844    4.5655 H   0  0  0  0  0  0  0  0  0  0  0  0
    4.7860   -6.6135    8.1388 H   0  0  0  0  0  0  0  0  0  0  0  0
    3.3644   -6.5293    5.2260 H   0  0  0  0  0  0  0  0  0  0  0  0
  1 11  1  0  0  0  0
  1 22  1  0  0  0  0
  2  1  2  0  0  0  0
  2 14  1  0  0  0  0
  3  4  1  0  0  0  0
  3 18  1  0  0  0  0
  3 23  1  0  0  0  0
  3 24  1  0  0  0  0
  4  5  1  0  0  0  0
  4 25  1  0  0  0  0
  4 26  1  0  0  0  0
  5  6  1  0  0  0  0
  5  9  1  0  0  0  0
  5 10  1  1  0  0  0
  6  7  1  0  0  0  0
  6 17  1  0  0  0  0
  6 27  1  6  0  0  0
  7  8  1  0  0  0  0
  7 28  1  0  0  0  0
  7 29  1  0  0  0  0
  8  9  1  0  0  0  0
  8 30  1  0  0  0  0
  8 31  1  0  0  0  0
  9 19  1  0  0  0  0
  9 32  1  6  0  0  0
 10 33  1  0  0  0  0
 10 34  1  0  0  0  0
 10 35  1  0  0  0  0
 11 12  2  0  0  0  0
 11 21  1  0  0  0  0
 12 13  1  0  0  0  0
 12 20  1  0  0  0  0
 13 14  2  0  0  0  0
 13 36  1  0  0  0  0
 14 15  1  0  0  0  0
 15 16  1  0  0  0  0
 15 37  1  0  0  0  0
 15 38  1  0  0  0  0
 16 17  1  0  0  0  0
 16 39  1  0  0  0  0
 16 40  1  0  0  0  0
 17 18  1  0  0  0  0
 17 41  1  1  0  0  0
 18  2  1  0  0  0  0
 18 42  1  6  0  0  0
 19 43  1  0  0  0  0
 20 44  1  0  0  0  0
 21 45  1  0  0  0  0
M  END
