2bxu_ligand
 OpenBabel08222323343D

 54 56  0  0  0  0  0  0  0  0999 V2000
    6.4780  -15.3240   10.8540 C   0  0  0  0  0  0  0  0  0  0  0  0
    7.6680  -16.0430   10.5970 N   0  0  0  0  0  0  0  0  0  0  0  0
    8.7030  -15.5060    9.8000 C   0  0  0  0  0  0  0  0  0  0  0  0
    8.5330  -14.2160    9.2490 C   0  0  0  0  0  0  0  0  0  0  0  0
    7.3440  -13.4990    9.5060 C   0  0  0  0  0  0  0  0  0  0  0  0
    6.3160  -14.0430   10.3050 C   0  0  0  0  0  0  0  0  0  0  0  0
    9.9860  -16.3030    9.5440 C   0  0  0  0  0  0  0  0  0  0  0  0
   10.6690  -16.7460   10.8490 C   0  0  0  0  0  0  0  0  0  0  0  0
    9.6920  -17.4090    8.8240 F   0  0  0  0  0  0  0  0  0  0  0  0
   10.8780  -15.5660    8.8430 F   0  0  0  0  0  0  0  0  0  0  0  0
   11.1960  -15.5770   11.6040 N   0  0  0  0  0  0  0  0  0  0  0  0
   10.5960  -14.9140   12.6740 C   0  0  0  0  0  0  0  0  0  0  0  0
   11.2160  -13.6760   13.2560 C   0  0  0  0  0  0  0  0  0  0  0  0
   10.5820  -13.0140   14.3540 N   0  0  0  0  0  0  0  0  0  0  0  0
    9.3540  -13.5530   14.8690 C   0  0  0  0  0  0  0  0  0  0  0  0
    8.8080  -14.6710   14.3300 C   0  0  0  0  0  0  0  0  0  0  0  0
    9.4720  -15.3660   13.1850 N   0  0  0  0  0  0  0  0  0  0  0  0
   11.2060  -11.7750   14.9370 C   0  0  0  0  0  0  0  0  0  0  0  0
   12.4770  -12.0280   15.8010 C   0  0  0  0  0  0  0  0  0  0  0  0
   13.5890  -12.7190   15.0930 N   0  3  0  0  0  0  0  0  0  0  0  0
   14.7690  -11.8430   15.2220 C   0  0  0  0  0  0  0  0  0  0  0  0
   15.6930  -11.6910   14.0010 C   0  0  0  0  0  0  0  0  0  0  0  0
   15.8260  -10.3840   13.5000 C   0  0  0  0  0  0  0  0  0  0  0  0
   16.6330  -10.0880   12.3890 C   0  0  0  0  0  0  0  0  0  0  0  0
   16.3490  -14.1870   13.7940 C   0  0  0  0  0  0  0  0  0  0  0  0
   17.3300  -11.1220   11.7540 C   0  0  0  0  0  0  0  0  0  0  0  0
   16.4060  -12.7420   13.3540 C   0  0  0  0  0  0  0  0  0  0  0  0
   12.2550  -13.2530   12.7870 O   0  0  0  0  0  0  0  0  0  0  0  0
   18.1420  -10.8360   10.6330 N   0  0  0  0  0  0  0  0  0  0  0  0
    8.5210  -12.8130   16.1890 Cl  0  0  0  0  0  0  0  0  0  0  0  0
   17.2100  -12.4330   12.2410 N   0  0  0  0  0  0  0  0  0  0  0  0
    5.6983  -15.7583   11.4693 H   0  0  0  0  0  0  0  0  0  0  0  0
    9.3106  -13.7794    8.6327 H   0  0  0  0  0  0  0  0  0  0  0  0
    7.2183  -12.5099    9.0806 H   0  0  0  0  0  0  0  0  0  0  0  0
    5.4106  -13.4772   10.4927 H   0  0  0  0  0  0  0  0  0  0  0  0
   11.5024  -17.4217   10.6064 H   0  0  0  0  0  0  0  0  0  0  0  0
    9.9367  -17.2769   11.4750 H   0  0  0  0  0  0  0  0  0  0  0  0
   12.1114  -15.2151   11.3006 H   0  0  0  0  0  0  0  0  0  0  0  0
    7.8775  -15.0662   14.7348 H   0  0  0  0  0  0  0  0  0  0  0  0
   10.4553  -11.2791   15.5699 H   0  0  0  0  0  0  0  0  0  0  0  0
   11.4837  -11.1087   14.1070 H   0  0  0  0  0  0  0  0  0  0  0  0
   12.1862  -12.6447   16.6642 H   0  0  0  0  0  0  0  0  0  0  0  0
   12.8493  -11.0550   16.1542 H   0  0  0  0  0  0  0  0  0  0  0  0
   13.3561  -12.8500   14.1211 H   0  0  0  0  0  0  0  0  0  0  0  0
   13.7708  -13.6145   15.5186 H   0  0  0  0  0  0  0  0  0  0  0  0
   15.3801  -12.2368   16.0475 H   0  0  0  0  0  0  0  0  0  0  0  0
   14.4039  -10.8387   15.4828 H   0  0  0  0  0  0  0  0  0  0  0  0
   15.2883   -9.5785   13.9870 H   0  0  0  0  0  0  0  0  0  0  0  0
   16.7150   -9.0694   12.0274 H   0  0  0  0  0  0  0  0  0  0  0  0
   16.9843  -14.7964   13.1345 H   0  0  0  0  0  0  0  0  0  0  0  0
   15.3110  -14.5467   13.7380 H   0  0  0  0  0  0  0  0  0  0  0  0
   16.7103  -14.2695   14.8297 H   0  0  0  0  0  0  0  0  0  0  0  0
   18.6566  -11.5944   10.1629 H   0  0  0  0  0  0  0  0  0  0  0  0
   18.2191   -9.8692   10.2862 H   0  0  0  0  0  0  0  0  0  0  0  0
  1  2  2  0  0  0  0
  1  6  1  0  0  0  0
  1 32  1  0  0  0  0
  2  3  1  0  0  0  0
  3  4  2  0  0  0  0
  3  7  1  0  0  0  0
  4  5  1  0  0  0  0
  4 33  1  0  0  0  0
  5  6  2  0  0  0  0
  5 34  1  0  0  0  0
  6 35  1  0  0  0  0
  7  8  1  0  0  0  0
  7  9  1  0  0  0  0
  7 10  1  0  0  0  0
  8 11  1  0  0  0  0
  8 36  1  0  0  0  0
  8 37  1  0  0  0  0
 11 12  1  0  0  0  0
 11 38  1  0  0  0  0
 12 13  1  0  0  0  0
 12 17  2  0  0  0  0
 13 14  1  0  0  0  0
 13 28  2  0  0  0  0
 14 15  1  0  0  0  0
 14 18  1  0  0  0  0
 15 16  2  0  0  0  0
 15 30  1  0  0  0  0
 16 17  1  0  0  0  0
 16 39  1  0  0  0  0
 18 19  1  0  0  0  0
 18 40  1  0  0  0  0
 18 41  1  0  0  0  0
 19 20  1  0  0  0  0
 19 42  1  0  0  0  0
 19 43  1  0  0  0  0
 20 21  1  0  0  0  0
 20 44  1  0  0  0  0
 20 45  1  0  0  0  0
 21 22  1  0  0  0  0
 21 46  1  0  0  0  0
 21 47  1  0  0  0  0
 22 23  2  0  0  0  0
 22 27  1  0  0  0  0
 23 24  1  0  0  0  0
 23 48  1  0  0  0  0
 24 26  2  0  0  0  0
 24 49  1  0  0  0  0
 25 50  1  0  0  0  0
 25 51  1  0  0  0  0
 25 52  1  0  0  0  0
 26 29  1  0  0  0  0
 26 31  1  0  0  0  0
 27 25  1  0  0  0  0
 27 31  2  0  0  0  0
 29 53  1  0  0  0  0
 29 54  1  0  0  0  0
M  CHG  1  20   1
M  END
