2byp_ligand
 OpenBabel08222323343D

171175  0  0  1  0  0  0  0  0999 V2000
   36.1300   50.5560   86.2740 N   0  3  0  0  0  0  0  0  0  0  0  0
   34.8540   50.2790   86.9850 C   0  0  0  0  0  0  0  0  0  0  0  0
   33.7090   50.0700   86.0320 C   0  0  0  0  0  0  0  0  0  0  0  0
   33.9150   49.8250   84.8400 O   0  0  0  0  0  0  0  0  0  0  0  0
   32.5060   50.1790   86.5810 N   0  0  0  0  0  0  0  0  0  0  0  0
   31.2680   49.9360   85.8740 C   0  0  2  0  0  0  0  0  0  0  0  0
   31.1830   50.6650   84.5390 C   0  0  0  0  0  0  0  0  0  0  0  0
   30.8570   50.0730   83.5170 O   0  0  0  0  0  0  0  0  0  0  0  0
   30.1150   50.3840   86.7560 C   0  0  0  0  0  0  0  0  0  0  0  0
   28.5260   50.4390   85.9460 S   0  0  0  0  0  0  0  0  0  0  0  0
   31.4790   51.9610   84.5640 N   0  0  0  0  0  0  0  0  0  0  0  0
   31.3000   52.8220   83.3920 C   0  0  2  0  0  0  0  0  0  0  0  0
   32.2680   52.5060   82.2300 C   0  0  0  0  0  0  0  0  0  0  0  0
   32.0700   53.0200   81.1250 O   0  0  0  0  0  0  0  0  0  0  0  0
   31.3670   54.2900   83.8260 C   0  0  0  0  0  0  0  0  0  0  0  0
   30.1880   54.5940   85.2360 S   0  0  0  0  0  0  0  0  0  0  0  0
   33.2660   51.6470   82.4730 N   0  0  0  0  0  0  0  0  0  0  0  0
   34.1240   51.0830   81.4230 C   0  0  2  0  0  0  0  0  0  0  0  0
   33.6350   49.7370   80.8570 C   0  0  0  0  0  0  0  0  0  0  0  0
   34.0530   49.3210   79.7730 O   0  0  0  0  0  0  0  0  0  0  0  0
   35.5480   50.8980   81.9460 C   0  0  0  0  0  0  0  0  0  0  0  0
   36.0700   52.1200   82.4510 O   0  0  0  0  0  0  0  0  0  0  0  0
   32.7610   49.0630   81.5980 N   0  0  0  0  0  0  0  0  0  0  0  0
   32.2800   47.7320   81.2580 C   0  0  2  0  0  0  0  0  0  0  0  0
   31.0010   47.8240   80.4430 C   0  0  0  0  0  0  0  0  0  0  0  0
   30.0200   48.3670   80.9070 O   0  0  0  0  0  0  0  0  0  0  0  0
   32.0170   46.9420   82.5420 C   0  0  0  0  0  0  0  0  0  0  0  0
   31.7890   45.4580   82.2910 C   0  0  0  0  0  0  0  0  0  0  0  0
   32.3640   44.6560   83.0250 O   0  5  0  0  0  0  0  0  0  0  0  0
   31.0390   45.0900   81.3830 O   0  0  0  0  0  0  0  0  0  0  0  0
   31.0030   47.2640   79.2170 N   0  0  0  0  0  0  0  0  0  0  0  0
   29.8360   47.3660   78.3440 C   0  0  2  0  0  0  0  0  0  0  0  0
   28.5470   46.7290   78.8680 C   0  0  0  0  0  0  0  0  0  0  0  0
   27.4660   47.1010   78.4270 O   0  0  0  0  0  0  0  0  0  0  0  0
   30.2860   46.6850   77.0430 C   0  0  0  0  0  0  0  0  0  0  0  0
   31.5320   46.0340   77.3220 C   0  0  0  0  0  0  0  0  0  0  0  0
   32.1110   46.5440   78.5840 C   0  0  0  0  0  0  0  0  0  0  0  0
   28.6620   45.7640   79.7690 N   0  0  0  0  0  0  0  0  0  0  0  0
   27.4930   45.1480   80.4280 C   0  0  2  0  0  0  0  0  0  0  0  0
   26.8540   46.0670   81.5060 C   0  0  0  0  0  0  0  0  0  0  0  0
   25.7140   45.8820   81.8760 O   0  0  0  0  0  0  0  0  0  0  0  0
   27.9240   43.8150   81.0810 C   0  0  0  0  0  0  0  0  0  0  0  0
   28.4430   42.7540   80.1010 C   0  0  0  0  0  0  0  0  0  0  0  0
   29.2120   41.6490   80.7960 C   0  0  0  0  0  0  0  0  0  0  0  0
   30.4160   42.1230   81.4920 N   0  0  0  0  0  0  0  0  0  0  0  0
   31.3340   41.3280   82.0280 C   0  0  0  0  0  3  0  0  0  0  0  0
   31.2470   40.0200   81.8880 N   0  0  0  0  0  0  0  0  0  0  0  0
   32.3820   41.8330   82.6450 N   0  0  0  0  0  0  0  0  0  0  0  0
   27.6330   47.0130   82.0260 N   0  0  0  0  0  0  0  0  0  0  0  0
   27.2580   47.8520   83.1740 C   0  0  2  0  0  0  0  0  0  0  0  0
   27.0210   49.3160   82.7940 C   0  0  0  0  0  0  0  0  0  0  0  0
   26.1230   49.9530   83.3360 O   0  0  0  0  0  0  0  0  0  0  0  0
   28.3670   47.8010   84.2350 C   0  0  0  0  0  0  0  0  0  0  0  0
   27.9040   48.4780   85.9200 S   0  0  0  0  0  0  0  0  0  0  0  0
   27.8280   49.8350   81.8620 N   0  0  0  0  0  0  0  0  0  0  0  0
   27.9400   51.2740   81.6090 C   0  0  2  0  0  0  0  0  0  0  0  0
   26.6130   51.9950   81.4000 C   0  0  0  0  0  0  0  0  0  0  0  0
   26.4980   53.1590   81.7240 O   0  0  0  0  0  0  0  0  0  0  0  0
   28.8790   51.5310   80.4200 C   0  0  0  0  0  0  0  0  0  0  0  0
   25.6190   51.3030   80.8680 N   0  0  0  0  0  0  0  0  0  0  0  0
   24.2820   51.8710   80.6860 C   0  0  2  0  0  0  0  0  0  0  0  0
   23.5920   52.3450   81.9820 C   0  0  0  0  0  0  0  0  0  0  0  0
   22.5860   53.0530   81.9210 O   0  0  0  0  0  0  0  0  0  0  0  0
   23.3850   50.8560   80.0010 C   0  0  0  0  0  0  0  0  0  0  0  0
   23.1200   49.6390   80.8200 C   0  0  0  0  0  0  0  0  0  0  0  0
   23.9080   48.5220   80.9190 C   0  0  0  0  0  0  0  0  0  0  0  0
   21.9800   49.4000   81.6670 C   0  0  0  0  0  0  0  0  0  0  0  0
   23.3330   47.6120   81.7780 N   0  0  0  0  0  0  0  0  0  0  0  0
   22.1470   48.1190   82.2430 C   0  0  0  0  0  0  0  0  0  0  0  0
   20.8400   50.1420   81.9960 C   0  0  0  0  0  0  0  0  0  0  0  0
   21.2090   47.5620   83.1180 C   0  0  0  0  0  0  0  0  0  0  0  0
   19.9030   49.5810   82.8730 C   0  0  0  0  0  0  0  0  0  0  0  0
   20.0970   48.3080   83.4190 C   0  0  0  0  0  0  0  0  0  0  0  0
   24.1210   51.9370   83.1310 N   0  0  0  0  0  0  0  0  0  0  0  0
   23.6290   52.3770   84.4350 C   0  0  2  0  0  0  0  0  0  0  0  0
   24.1980   53.7370   84.8700 C   0  0  0  0  0  0  0  0  0  0  0  0
   23.7060   54.3170   85.8300 O   0  0  0  0  0  0  0  0  0  0  0  0
   23.9540   51.3220   85.4930 C   0  0  0  0  0  0  0  0  0  0  0  0
   23.2320   50.0150   85.2520 C   0  0  0  0  0  0  0  0  0  0  0  0
   23.5980   48.9760   86.3060 C   0  0  0  0  0  0  0  0  0  0  0  0
   22.9190   47.7060   86.0500 N   0  0  0  0  0  0  0  0  0  0  0  0
   21.6960   47.3920   86.4910 C   0  0  0  0  0  3  0  0  0  0  0  0
   21.0040   48.2400   87.2460 N   0  0  0  0  0  0  0  0  0  0  0  0
   21.1700   46.2030   86.1880 N   0  0  0  0  0  0  0  0  0  0  0  0
   25.2010   54.2990   84.1940 N   0  0  0  0  0  0  0  0  0  0  0  0
   25.9710   55.4490   84.6140 C   0  0  2  0  0  0  0  0  0  0  0  0
   25.3110   56.7350   84.1830 C   0  0  0  0  0  0  0  0  0  0  0  0
   24.5510   56.7450   83.2230 O   0  0  0  0  0  0  0  0  0  0  0  0
   27.3610   55.3220   84.0160 C   0  0  0  0  0  0  0  0  0  0  0  0
   28.3070   53.9870   84.8010 S   0  0  0  0  0  0  0  0  0  0  0  0
   25.5710   57.8630   84.8740 N   0  0  0  0  0  0  0  0  0  0  0  0
   36.8679   50.6892   86.9477 H   0  0  0  0  0  0  0  0  0  0  0  0
   36.0298   51.3896   85.7162 H   0  0  0  0  0  0  0  0  0  0  0  0
   36.3575   49.7770   85.6761 H   0  0  0  0  0  0  0  0  0  0  0  0
   34.6199   51.1320   87.6390 H   0  0  0  0  0  0  0  0  0  0  0  0
   34.9776   49.3722   87.5952 H   0  0  0  0  0  0  0  0  0  0  0  0
   32.4520   50.4457   87.5433 H   0  0  0  0  0  0  0  0  0  0  0  0
   31.1821   48.8559   85.6843 H   0  0  0  0  0  0  0  0  0  0  0  0
   30.3429   51.3931   87.1298 H   0  0  0  0  0  0  0  0  0  0  0  0
   30.0423   49.6867   87.6036 H   0  0  0  0  0  0  0  0  0  0  0  0
   31.8348   52.3605   85.4089 H   0  0  0  0  0  0  0  0  0  0  0  0
   30.2848   52.6394   83.0099 H   0  0  0  0  0  0  0  0  0  0  0  0
   31.0927   54.9334   82.9771 H   0  0  0  0  0  0  0  0  0  0  0  0
   32.3910   54.5274   84.1502 H   0  0  0  0  0  0  0  0  0  0  0  0
   33.4362   51.3750   83.4201 H   0  0  0  0  0  0  0  0  0  0  0  0
   34.1469   51.8060   80.5943 H   0  0  0  0  0  0  0  0  0  0  0  0
   36.1894   50.5453   81.1249 H   0  0  0  0  0  0  0  0  0  0  0  0
   35.5403   50.1500   82.7525 H   0  0  0  0  0  0  0  0  0  0  0  0
   36.0823   52.7686   81.7570 H   0  0  0  0  0  0  0  0  0  0  0  0
   32.4161   49.4928   82.4324 H   0  0  0  0  0  0  0  0  0  0  0  0
   33.0471   47.2132   80.6644 H   0  0  0  0  0  0  0  0  0  0  0  0
   31.1232   47.3561   83.0315 H   0  0  0  0  0  0  0  0  0  0  0  0
   32.8854   47.0555   83.2076 H   0  0  0  0  0  0  0  0  0  0  0  0
   29.6265   48.4294   78.1564 H   0  0  0  0  0  0  0  0  0  0  0  0
   30.4209   47.4357   76.2504 H   0  0  0  0  0  0  0  0  0  0  0  0
   29.5363   45.9458   76.7243 H   0  0  0  0  0  0  0  0  0  0  0  0
   32.2341   46.2271   76.4975 H   0  0  0  0  0  0  0  0  0  0  0  0
   31.3623   44.9510   77.4131 H   0  0  0  0  0  0  0  0  0  0  0  0
   32.4527   45.7146   79.2206 H   0  0  0  0  0  0  0  0  0  0  0  0
   32.9532   47.2221   78.3818 H   0  0  0  0  0  0  0  0  0  0  0  0
   29.5764   45.4403   80.0121 H   0  0  0  0  0  0  0  0  0  0  0  0
   26.7339   44.9404   79.6595 H   0  0  0  0  0  0  0  0  0  0  0  0
   27.0547   43.3963   81.6091 H   0  0  0  0  0  0  0  0  0  0  0  0
   28.7234   44.0317   81.8049 H   0  0  0  0  0  0  0  0  0  0  0  0
   29.1073   43.2416   79.3724 H   0  0  0  0  0  0  0  0  0  0  0  0
   27.5851   42.3098   79.5751 H   0  0  0  0  0  0  0  0  0  0  0  0
   29.5147   40.9076   80.0419 H   0  0  0  0  0  0  0  0  0  0  0  0
   28.5484   41.1728   81.5328 H   0  0  0  0  0  0  0  0  0  0  0  0
   30.5572   43.1404   81.5692 H   0  0  0  0  0  0  0  0  0  0  0  0
   31.9626   39.4086   82.3063 H   0  0  0  0  0  0  0  0  0  0  0  0
   30.4635   39.6095   81.3603 H   0  0  0  0  0  0  0  0  0  0  0  0
   32.4677   42.8525   82.7641 H   0  0  0  0  0  0  0  0  0  0  0  0
   33.1160   41.2085   83.0085 H   0  0  0  0  0  0  0  0  0  0  0  0
   28.5298   47.1625   81.6096 H   0  0  0  0  0  0  0  0  0  0  0  0
   26.3291   47.4496   83.6043 H   0  0  0  0  0  0  0  0  0  0  0  0
   29.2220   48.3824   83.8596 H   0  0  0  0  0  0  0  0  0  0  0  0
   28.6658   46.7501   84.3626 H   0  0  0  0  0  0  0  0  0  0  0  0
   28.3818   49.2106   81.3111 H   0  0  0  0  0  0  0  0  0  0  0  0
   28.4037   51.7176   82.5024 H   0  0  0  0  0  0  0  0  0  0  0  0
   28.9549   52.6135   80.2401 H   0  0  0  0  0  0  0  0  0  0  0  0
   28.4778   51.0374   79.5226 H   0  0  0  0  0  0  0  0  0  0  0  0
   29.8764   51.1261   80.6463 H   0  0  0  0  0  0  0  0  0  0  0  0
   25.7865   50.3600   80.5804 H   0  0  0  0  0  0  0  0  0  0  0  0
   24.3858   52.7464   80.0281 H   0  0  0  0  0  0  0  0  0  0  0  0
   23.8670   50.5445   79.0626 H   0  0  0  0  0  0  0  0  0  0  0  0
   22.4227   51.3392   79.7762 H   0  0  0  0  0  0  0  0  0  0  0  0
   24.8512   48.3754   80.3948 H   0  0  0  0  0  0  0  0  0  0  0  0
   23.7307   46.6961   82.0309 H   0  0  0  0  0  0  0  0  0  0  0  0
   20.6852   51.1311   81.5804 H   0  0  0  0  0  0  0  0  0  0  0  0
   21.3551   46.5758   83.5435 H   0  0  0  0  0  0  0  0  0  0  0  0
   19.0130   50.1426   83.1328 H   0  0  0  0  0  0  0  0  0  0  0  0
   19.3529   47.9018   84.0946 H   0  0  0  0  0  0  0  0  0  0  0  0
   24.8910   51.2997   83.1019 H   0  0  0  0  0  0  0  0  0  0  0  0
   22.5357   52.4764   84.3656 H   0  0  0  0  0  0  0  0  0  0  0  0
   23.6602   51.7101   86.4794 H   0  0  0  0  0  0  0  0  0  0  0  0
   25.0376   51.1332   85.4811 H   0  0  0  0  0  0  0  0  0  0  0  0
   23.5088   49.6307   84.2592 H   0  0  0  0  0  0  0  0  0  0  0  0
   22.1471   50.1935   85.2867 H   0  0  0  0  0  0  0  0  0  0  0  0
   23.3006   49.3492   87.2971 H   0  0  0  0  0  0  0  0  0  0  0  0
   24.6856   48.8123   86.2870 H   0  0  0  0  0  0  0  0  0  0  0  0
   23.4194   47.0019   85.4890 H   0  0  0  0  0  0  0  0  0  0  0  0
   20.0632   47.9841   87.5781 H   0  0  0  0  0  0  0  0  0  0  0  0
   21.4087   49.1528   87.4987 H   0  0  0  0  0  0  0  0  0  0  0  0
   21.6988   45.5397   85.6038 H   0  0  0  0  0  0  0  0  0  0  0  0
   20.2354   45.9489   86.5385 H   0  0  0  0  0  0  0  0  0  0  0  0
   25.4430   53.8871   83.3155 H   0  0  0  0  0  0  0  0  0  0  0  0
   26.0493   55.4484   85.7112 H   0  0  0  0  0  0  0  0  0  0  0  0
   27.8985   56.2712   84.1575 H   0  0  0  0  0  0  0  0  0  0  0  0
   27.2689   55.1095   82.9407 H   0  0  0  0  0  0  0  0  0  0  0  0
   25.1428   58.7252   84.6032 H   0  0  0  0  0  0  0  0  0  0  0  0
   26.1921   57.8376   85.6573 H   0  0  0  0  0  0  0  0  0  0  0  0
  1  2  1  0  0  0  0
  1 92  1  0  0  0  0
  1 93  1  0  0  0  0
  1 94  1  0  0  0  0
  2  3  1  0  0  0  0
  2 95  1  0  0  0  0
  2 96  1  0  0  0  0
  3  4  2  0  0  0  0
  3  5  1  0  0  0  0
  5  6  1  0  0  0  0
  5 97  1  0  0  0  0
  6  7  1  0  0  0  0
  6  9  1  0  0  0  0
  6 98  1  6  0  0  0
  7  8  2  0  0  0  0
  7 11  1  0  0  0  0
  9 10  1  0  0  0  0
  9 99  1  0  0  0  0
  9100  1  0  0  0  0
 10 54  1  0  0  0  0
 11 12  1  0  0  0  0
 11101  1  0  0  0  0
 12 13  1  0  0  0  0
 12 15  1  0  0  0  0
 12102  1  6  0  0  0
 13 14  2  0  0  0  0
 13 17  1  0  0  0  0
 15 16  1  0  0  0  0
 15103  1  0  0  0  0
 15104  1  0  0  0  0
 16 90  1  0  0  0  0
 17 18  1  0  0  0  0
 17105  1  0  0  0  0
 18 19  1  0  0  0  0
 18 21  1  0  0  0  0
 18106  1  6  0  0  0
 19 20  2  0  0  0  0
 19 23  1  0  0  0  0
 21 22  1  0  0  0  0
 21107  1  0  0  0  0
 21108  1  0  0  0  0
 22109  1  0  0  0  0
 23 24  1  0  0  0  0
 23110  1  0  0  0  0
 24 25  1  0  0  0  0
 24 27  1  0  0  0  0
 24111  1  6  0  0  0
 25 26  2  0  0  0  0
 25 31  1  0  0  0  0
 27 28  1  0  0  0  0
 27112  1  0  0  0  0
 27113  1  0  0  0  0
 28 29  1  0  0  0  0
 28 30  2  0  0  0  0
 31 32  1  0  0  0  0
 31 37  1  0  0  0  0
 32 33  1  0  0  0  0
 32 35  1  0  0  0  0
 32114  1  6  0  0  0
 33 34  2  0  0  0  0
 33 38  1  0  0  0  0
 35 36  1  0  0  0  0
 35115  1  0  0  0  0
 35116  1  0  0  0  0
 36 37  1  0  0  0  0
 36117  1  0  0  0  0
 36118  1  0  0  0  0
 37119  1  0  0  0  0
 37120  1  0  0  0  0
 38 39  1  0  0  0  0
 38121  1  0  0  0  0
 39 40  1  0  0  0  0
 39 42  1  0  0  0  0
 39122  1  6  0  0  0
 40 41  2  0  0  0  0
 40 49  1  0  0  0  0
 42 43  1  0  0  0  0
 42123  1  0  0  0  0
 42124  1  0  0  0  0
 43 44  1  0  0  0  0
 43125  1  0  0  0  0
 43126  1  0  0  0  0
 44 45  1  0  0  0  0
 44127  1  0  0  0  0
 44128  1  0  0  0  0
 45 46  1  0  0  0  0
 45129  1  0  0  0  0
 46 47  1  0  0  0  0
 46 48  1  0  0  0  0
 47130  1  0  0  0  0
 47131  1  0  0  0  0
 48132  1  0  0  0  0
 48133  1  0  0  0  0
 49 50  1  0  0  0  0
 49134  1  0  0  0  0
 50 51  1  0  0  0  0
 50 53  1  0  0  0  0
 50135  1  1  0  0  0
 51 52  2  0  0  0  0
 51 55  1  0  0  0  0
 53 54  1  0  0  0  0
 53136  1  0  0  0  0
 53137  1  0  0  0  0
 55 56  1  0  0  0  0
 55138  1  0  0  0  0
 56 57  1  0  0  0  0
 56 59  1  0  0  0  0
 56139  1  1  0  0  0
 57 58  2  0  0  0  0
 57 60  1  0  0  0  0
 59140  1  0  0  0  0
 59141  1  0  0  0  0
 59142  1  0  0  0  0
 60 61  1  0  0  0  0
 60143  1  0  0  0  0
 61 62  1  0  0  0  0
 61 64  1  0  0  0  0
 61144  1  6  0  0  0
 62 63  2  0  0  0  0
 62 74  1  0  0  0  0
 64 65  1  0  0  0  0
 64145  1  0  0  0  0
 64146  1  0  0  0  0
 65 66  2  0  0  0  0
 65 67  1  0  0  0  0
 66 68  1  0  0  0  0
 66147  1  0  0  0  0
 67 69  2  0  0  0  0
 67 70  1  0  0  0  0
 68 69  1  0  0  0  0
 68148  1  0  0  0  0
 69 71  1  0  0  0  0
 70 72  2  0  0  0  0
 70149  1  0  0  0  0
 71 73  2  0  0  0  0
 71150  1  0  0  0  0
 72 73  1  0  0  0  0
 72151  1  0  0  0  0
 73152  1  0  0  0  0
 74 75  1  0  0  0  0
 74153  1  0  0  0  0
 75 76  1  0  0  0  0
 75 78  1  0  0  0  0
 75154  1  6  0  0  0
 76 77  2  0  0  0  0
 76 85  1  0  0  0  0
 78 79  1  0  0  0  0
 78155  1  0  0  0  0
 78156  1  0  0  0  0
 79 80  1  0  0  0  0
 79157  1  0  0  0  0
 79158  1  0  0  0  0
 80 81  1  0  0  0  0
 80159  1  0  0  0  0
 80160  1  0  0  0  0
 81 82  1  0  0  0  0
 81161  1  0  0  0  0
 82 83  1  0  0  0  0
 82 84  1  0  0  0  0
 83162  1  0  0  0  0
 83163  1  0  0  0  0
 84164  1  0  0  0  0
 84165  1  0  0  0  0
 85 86  1  0  0  0  0
 85166  1  0  0  0  0
 86 87  1  0  0  0  0
 86 89  1  0  0  0  0
 86167  1  1  0  0  0
 87 88  2  0  0  0  0
 87 91  1  0  0  0  0
 89 90  1  0  0  0  0
 89168  1  0  0  0  0
 89169  1  0  0  0  0
 91170  1  0  0  0  0
 91171  1  0  0  0  0
M  CHG  2   1   1  29  -1
M  END
