2c0o_ligand
 OpenBabel08222323343D

 86 92  0  0  1  0  0  0  0  0999 V2000
    2.9600   63.1120   13.1380 C   0  0  0  0  0  0  0  0  0  0  0  0
    3.9680   63.9010   12.5360 C   0  0  0  0  0  0  0  0  0  0  0  0
    1.7120   63.5930   13.7790 C   0  0  0  0  0  0  0  0  0  0  0  0
    3.2810   61.8140   12.9140 N   0  0  0  0  0  0  0  0  0  0  0  0
    4.9090   63.0450   12.0100 C   0  0  0  0  0  0  0  0  0  0  0  0
    4.1730   65.2680   12.4440 C   0  0  0  0  0  0  0  0  0  0  0  0
    0.8310   64.3810   13.0540 C   0  0  0  0  0  0  0  0  0  0  0  0
    1.3660   63.1700   15.0500 C   0  0  0  0  0  0  0  0  0  0  0  0
    4.4370   61.8310   12.1490 N   0  0  0  0  0  0  0  0  0  0  0  0
    5.9940   63.5380   11.3690 N   0  0  0  0  0  0  0  0  0  0  0  0
    5.2890   65.7390   11.8220 N   0  0  0  0  0  0  0  0  0  0  0  0
    3.2780   66.1210   12.9560 N   0  0  0  0  0  0  0  0  0  0  0  0
   -0.3790   64.7980   13.6180 C   0  0  0  0  0  0  0  0  0  0  0  0
    0.1430   63.5880   15.6080 C   0  0  0  0  0  0  0  0  0  0  0  0
    5.0530   60.4790   11.9040 C   0  0  1  0  0  0  0  0  0  0  0  0
    6.2010   64.8700   11.3050 C   0  0  0  0  0  0  0  0  0  0  0  0
   -0.7050   64.4440   14.8840 C   0  0  0  0  0  0  0  0  0  0  0  0
   -1.2180   65.5770   12.9080 O   0  0  0  0  0  0  0  0  0  0  0  0
    5.4850   59.8440   13.2290 C   0  0  0  0  0  0  0  0  0  0  0  0
    4.0780   59.5490   11.1760 C   0  0  0  0  0  0  0  0  0  0  0  0
   -1.9570   64.8220   15.3980 N   0  0  0  0  0  0  0  0  0  0  0  0
   -0.7880   66.1220   11.6700 C   0  0  0  0  0  0  0  0  0  0  0  0
    6.1350   58.4770   12.9930 C   0  0  0  0  0  0  0  0  0  0  0  0
    4.7330   58.1750   10.9210 C   0  0  0  0  0  0  0  0  0  0  0  0
   -2.0980   65.3620   16.6060 C   0  0  0  0  0  0  0  0  0  0  0  0
    5.1790   57.5330   12.2510 C   0  0  1  0  0  0  0  0  0  0  0  0
   -3.4920   65.6730   17.0870 C   0  0  0  0  0  0  0  0  0  0  0  0
   -1.1420   65.5740   17.3410 O   0  0  0  0  0  0  0  0  0  0  0  0
    5.8480   56.2190   12.0270 N   0  3  0  0  0  0  0  0  0  0  0  0
   -3.8510   66.6410   18.0360 N   0  0  0  0  0  0  0  0  0  0  0  0
   -4.6610   65.0280   16.6740 C   0  0  0  0  0  0  0  0  0  0  0  0
    6.2480   56.0600   10.6380 C   0  0  0  0  0  0  0  0  0  0  0  0
    4.9450   55.1310   12.3780 C   0  0  0  0  0  0  0  0  0  0  0  0
   -5.2010   66.6080   18.2070 C   0  0  0  0  0  0  0  0  0  0  0  0
   -2.9350   67.5510   18.7270 C   0  0  0  0  0  0  0  0  0  0  0  0
   -5.6490   65.6570   17.3920 C   0  0  0  0  0  0  0  0  0  0  0  0
    7.0960   54.7920   10.5080 C   0  0  0  0  0  0  0  0  0  0  0  0
    5.7480   53.8470   12.4190 C   0  0  0  0  0  0  0  0  0  0  0  0
   -6.0950   67.3580   19.0180 C   0  0  0  0  0  0  0  0  0  0  0  0
   -7.0130   65.3780   17.3380 C   0  0  0  0  0  0  0  0  0  0  0  0
    6.2760   53.6670   11.0550 N   0  0  0  0  0  0  0  0  0  0  0  0
   -7.4530   67.0830   18.9860 C   0  0  0  0  0  0  0  0  0  0  0  0
   -7.9170   66.0980   18.1440 C   0  0  0  0  0  0  0  0  0  0  0  0
    6.1020   52.5220   10.3710 C   0  0  0  0  0  0  0  0  0  0  0  0
    5.3030   51.4370   11.0680 C   0  0  0  0  0  0  0  0  0  0  0  0
    6.5680   52.3620    9.2640 O   0  0  0  0  0  0  0  0  0  0  0  0
    1.0822   64.6763   12.0417 H   0  0  0  0  0  0  0  0  0  0  0  0
    2.0304   62.5227   15.6109 H   0  0  0  0  0  0  0  0  0  0  0  0
    3.4351   67.1365   12.8850 H   0  0  0  0  0  0  0  0  0  0  0  0
    2.4320   65.7621   13.4211 H   0  0  0  0  0  0  0  0  0  0  0  0
   -0.1450   63.2495   16.5967 H   0  0  0  0  0  0  0  0  0  0  0  0
    5.9432   60.6134   11.2720 H   0  0  0  0  0  0  0  0  0  0  0  0
    7.1016   65.2517   10.8377 H   0  0  0  0  0  0  0  0  0  0  0  0
    4.6019   59.7167   13.8724 H   0  0  0  0  0  0  0  0  0  0  0  0
    6.2089   60.5060   13.7267 H   0  0  0  0  0  0  0  0  0  0  0  0
    3.7969   60.0006   10.2132 H   0  0  0  0  0  0  0  0  0  0  0  0
    3.1781   59.4123   11.7936 H   0  0  0  0  0  0  0  0  0  0  0  0
   -2.7716   64.6800   14.8356 H   0  0  0  0  0  0  0  0  0  0  0  0
   -1.5974   66.7264   11.2346 H   0  0  0  0  0  0  0  0  0  0  0  0
   -0.5285   65.3054   10.9802 H   0  0  0  0  0  0  0  0  0  0  0  0
    0.0950   66.7566   11.8357 H   0  0  0  0  0  0  0  0  0  0  0  0
    6.3984   58.0317   13.9637 H   0  0  0  0  0  0  0  0  0  0  0  0
    7.0463   58.6112   12.3917 H   0  0  0  0  0  0  0  0  0  0  0  0
    5.6105   58.3075   10.2710 H   0  0  0  0  0  0  0  0  0  0  0  0
    4.0064   57.5140   10.4259 H   0  0  0  0  0  0  0  0  0  0  0  0
    4.2875   57.3690   12.8742 H   0  0  0  0  0  0  0  0  0  0  0  0
    6.6679   56.1708   12.6114 H   0  0  0  0  0  0  0  0  0  0  0  0
   -4.7643   64.2181   15.9533 H   0  0  0  0  0  0  0  0  0  0  0  0
    6.8380   56.9327   10.3214 H   0  0  0  0  0  0  0  0  0  0  0  0
    5.3535   55.9725   10.0039 H   0  0  0  0  0  0  0  0  0  0  0  0
    4.1491   55.0489   11.6232 H   0  0  0  0  0  0  0  0  0  0  0  0
    4.4968   55.3220   13.3642 H   0  0  0  0  0  0  0  0  0  0  0  0
   -1.9045   67.3553   18.3957 H   0  0  0  0  0  0  0  0  0  0  0  0
   -3.0078   67.3900   19.8127 H   0  0  0  0  0  0  0  0  0  0  0  0
   -3.2045   68.5912   18.4916 H   0  0  0  0  0  0  0  0  0  0  0  0
    8.0266   54.8978   11.0848 H   0  0  0  0  0  0  0  0  0  0  0  0
    7.3386   54.6051    9.4515 H   0  0  0  0  0  0  0  0  0  0  0  0
    5.1037   52.9997   12.6964 H   0  0  0  0  0  0  0  0  0  0  0  0
    6.5727   53.9326   13.1419 H   0  0  0  0  0  0  0  0  0  0  0  0
   -5.7154   68.1440   19.6607 H   0  0  0  0  0  0  0  0  0  0  0  0
   -7.3801   64.6042   16.6735 H   0  0  0  0  0  0  0  0  0  0  0  0
   -8.1405   67.6362   19.6156 H   0  0  0  0  0  0  0  0  0  0  0  0
   -8.9772   65.8763   18.1010 H   0  0  0  0  0  0  0  0  0  0  0  0
    5.2304   50.5567   10.4124 H   0  0  0  0  0  0  0  0  0  0  0  0
    4.2933   51.8117   11.2919 H   0  0  0  0  0  0  0  0  0  0  0  0
    5.8060   51.1558   12.0050 H   0  0  0  0  0  0  0  0  0  0  0  0
  1  2  1  0  0  0  0
  1  3  1  0  0  0  0
  1  4  2  0  0  0  0
  2  5  2  0  0  0  0
  2  6  1  0  0  0  0
  3  7  2  0  0  0  0
  3  8  1  0  0  0  0
  4  9  1  0  0  0  0
  5  9  1  0  0  0  0
  5 10  1  0  0  0  0
  6 11  2  0  0  0  0
  6 12  1  0  0  0  0
  7 13  1  0  0  0  0
  7 47  1  0  0  0  0
  8 14  2  0  0  0  0
  8 48  1  0  0  0  0
  9 15  1  0  0  0  0
 10 16  2  0  0  0  0
 11 16  1  0  0  0  0
 12 49  1  0  0  0  0
 12 50  1  0  0  0  0
 13 17  2  0  0  0  0
 13 18  1  0  0  0  0
 14 17  1  0  0  0  0
 14 51  1  0  0  0  0
 15 19  1  0  0  0  0
 15 20  1  0  0  0  0
 15 52  1  6  0  0  0
 16 53  1  0  0  0  0
 17 21  1  0  0  0  0
 18 22  1  0  0  0  0
 19 23  1  0  0  0  0
 19 54  1  0  0  0  0
 19 55  1  0  0  0  0
 20 24  1  0  0  0  0
 20 56  1  0  0  0  0
 20 57  1  0  0  0  0
 21 25  1  0  0  0  0
 21 58  1  0  0  0  0
 22 59  1  0  0  0  0
 22 60  1  0  0  0  0
 22 61  1  0  0  0  0
 23 26  1  0  0  0  0
 23 62  1  0  0  0  0
 23 63  1  0  0  0  0
 24 26  1  0  0  0  0
 24 64  1  0  0  0  0
 24 65  1  0  0  0  0
 25 27  1  0  0  0  0
 25 28  2  0  0  0  0
 26 29  1  0  0  0  0
 26 66  1  1  0  0  0
 27 30  1  0  0  0  0
 27 31  2  0  0  0  0
 29 32  1  0  0  0  0
 29 33  1  0  0  0  0
 29 67  1  0  0  0  0
 30 34  1  0  0  0  0
 30 35  1  0  0  0  0
 31 36  1  0  0  0  0
 31 68  1  0  0  0  0
 32 37  1  0  0  0  0
 32 69  1  0  0  0  0
 32 70  1  0  0  0  0
 33 38  1  0  0  0  0
 33 71  1  0  0  0  0
 33 72  1  0  0  0  0
 34 36  2  0  0  0  0
 34 39  1  0  0  0  0
 35 73  1  0  0  0  0
 35 74  1  0  0  0  0
 35 75  1  0  0  0  0
 36 40  1  0  0  0  0
 37 41  1  0  0  0  0
 37 76  1  0  0  0  0
 37 77  1  0  0  0  0
 38 41  1  0  0  0  0
 38 78  1  0  0  0  0
 38 79  1  0  0  0  0
 39 42  2  0  0  0  0
 39 80  1  0  0  0  0
 40 43  2  0  0  0  0
 40 81  1  0  0  0  0
 41 44  1  0  0  0  0
 42 43  1  0  0  0  0
 42 82  1  0  0  0  0
 43 83  1  0  0  0  0
 44 45  1  0  0  0  0
 44 46  2  0  0  0  0
 45 84  1  0  0  0  0
 45 85  1  0  0  0  0
 45 86  1  0  0  0  0
M  CHG  1  29   1
M  END
