2c1b_ligand
 OpenBabel08222323343D

 52 55  0  0  1  0  0  0  0  0999 V2000
   12.6650   14.1950   -0.1330 Cl  0  0  0  0  0  0  0  0  0  0  0  0
   13.2450   12.7580    0.5420 C   0  0  0  0  0  0  0  0  0  0  0  0
   14.0250   11.9220   -0.2550 C   0  0  0  0  0  0  0  0  0  0  0  0
   14.5520   10.7540    0.2910 C   0  0  0  0  0  0  0  0  0  0  0  0
   14.3060   10.4030    1.6290 C   0  0  0  0  0  0  0  0  0  0  0  0
   14.9490    9.1530    2.1380 C   0  0  0  0  0  0  0  0  0  0  0  0
   14.3120    8.6760    3.3390 O   0  0  0  0  0  0  0  0  0  0  0  0
   13.5600    7.4940    3.0620 C   0  0  1  0  0  0  0  0  0  0  0  0
   12.9710    7.0150    4.5000 C   0  0  0  0  0  0  0  0  0  0  0  0
   11.9460    8.3050    4.8150 N   0  3  0  0  0  0  0  0  0  0  0  0
   11.2540    8.5020    3.4830 C   0  0  2  0  0  0  0  0  0  0  0  0
    9.8230    7.9390    3.5500 C   0  0  0  0  0  0  0  0  0  0  0  0
    9.0270    8.5410    4.6020 N   0  0  0  0  0  0  0  0  0  0  0  0
    8.4960   10.0900    4.5320 S   0  0  0  0  0  0  0  0  0  0  0  0
    9.4500   10.9570    3.9800 O   0  0  0  0  0  0  0  0  0  0  0  0
    8.1120   10.3760    5.8610 O   0  0  0  0  0  0  0  0  0  0  0  0
    7.2260   10.1130    3.4510 C   0  0  0  0  0  0  0  0  0  0  0  0
    7.5180   10.2640    2.0960 C   0  0  0  0  0  0  0  0  0  0  0  0
    6.5270   10.3200    1.0980 C   0  0  0  0  0  0  0  0  0  0  0  0
    5.1920   10.2040    1.4400 C   0  0  0  0  0  0  0  0  0  0  0  0
    4.8390   10.0630    2.8030 C   0  0  0  0  0  0  0  0  0  0  0  0
    3.4600    9.9370    3.1700 C   0  0  0  0  0  0  0  0  0  0  0  0
    3.0440    9.7730    4.4140 N   0  0  0  0  0  0  0  0  0  0  0  0
    3.9990    9.7300    5.4010 C   0  0  0  0  0  0  0  0  0  0  0  0
    5.3690    9.8210    5.1730 C   0  0  0  0  0  0  0  0  0  0  0  0
    5.8450   10.0030    3.8310 C   0  0  0  0  0  0  0  0  0  0  0  0
   13.5070   11.2510    2.4190 C   0  0  0  0  0  0  0  0  0  0  0  0
   12.0980    7.8580    2.3790 C   0  0  0  0  0  0  0  0  0  0  0  0
   12.9890   12.4240    1.8830 C   0  0  0  0  0  0  0  0  0  0  0  0
   14.2197   12.1784   -1.2901 H   0  0  0  0  0  0  0  0  0  0  0  0
   15.1621   10.1050   -0.3267 H   0  0  0  0  0  0  0  0  0  0  0  0
   16.0076    9.3594    2.3541 H   0  0  0  0  0  0  0  0  0  0  0  0
   14.8777    8.3749    1.3638 H   0  0  0  0  0  0  0  0  0  0  0  0
   14.1431    6.7416    2.5108 H   0  0  0  0  0  0  0  0  0  0  0  0
   13.7621    6.9235    5.2588 H   0  0  0  0  0  0  0  0  0  0  0  0
   12.4238    6.0638    4.4242 H   0  0  0  0  0  0  0  0  0  0  0  0
   12.4652    9.1269    5.0814 H   0  0  0  0  0  0  0  0  0  0  0  0
   11.2838    8.0763    5.5397 H   0  0  0  0  0  0  0  0  0  0  0  0
   11.1855    9.5802    3.2762 H   0  0  0  0  0  0  0  0  0  0  0  0
    9.8805    6.8554    3.7302 H   0  0  0  0  0  0  0  0  0  0  0  0
    9.3276    8.1246    2.5856 H   0  0  0  0  0  0  0  0  0  0  0  0
    8.7927    7.9890    5.4022 H   0  0  0  0  0  0  0  0  0  0  0  0
    8.5571   10.3419    1.7971 H   0  0  0  0  0  0  0  0  0  0  0  0
    6.8105   10.4542    0.0604 H   0  0  0  0  0  0  0  0  0  0  0  0
    4.4256   10.2209    0.6735 H   0  0  0  0  0  0  0  0  0  0  0  0
    2.7156    9.9785    2.3831 H   0  0  0  0  0  0  0  0  0  0  0  0
    3.6630    9.6177    6.4255 H   0  0  0  0  0  0  0  0  0  0  0  0
    6.0681    9.7552    5.9988 H   0  0  0  0  0  0  0  0  0  0  0  0
   13.2950   10.9882    3.4491 H   0  0  0  0  0  0  0  0  0  0  0  0
   11.6106    6.9425    2.0126 H   0  0  0  0  0  0  0  0  0  0  0  0
   12.2326    8.5611    1.5439 H   0  0  0  0  0  0  0  0  0  0  0  0
   12.3871   13.0817    2.4996 H   0  0  0  0  0  0  0  0  0  0  0  0
  1  2  1  0  0  0  0
  2  3  2  0  0  0  0
  2 29  1  0  0  0  0
  3  4  1  0  0  0  0
  3 30  1  0  0  0  0
  4  5  2  0  0  0  0
  4 31  1  0  0  0  0
  5  6  1  0  0  0  0
  5 27  1  0  0  0  0
  6  7  1  0  0  0  0
  6 32  1  0  0  0  0
  6 33  1  0  0  0  0
  7  8  1  0  0  0  0
  8  9  1  0  0  0  0
  8 28  1  0  0  0  0
  8 34  1  6  0  0  0
  9 10  1  0  0  0  0
  9 35  1  0  0  0  0
  9 36  1  0  0  0  0
 10 11  1  0  0  0  0
 10 37  1  0  0  0  0
 10 38  1  0  0  0  0
 11 12  1  0  0  0  0
 11 28  1  0  0  0  0
 11 39  1  6  0  0  0
 12 13  1  0  0  0  0
 12 40  1  0  0  0  0
 12 41  1  0  0  0  0
 13 14  1  0  0  0  0
 13 42  1  0  0  0  0
 14 15  2  0  0  0  0
 14 16  2  0  0  0  0
 14 17  1  0  0  0  0
 17 18  2  0  0  0  0
 17 26  1  0  0  0  0
 18 19  1  0  0  0  0
 18 43  1  0  0  0  0
 19 20  2  0  0  0  0
 19 44  1  0  0  0  0
 20 21  1  0  0  0  0
 20 45  1  0  0  0  0
 21 22  2  0  0  0  0
 21 26  1  0  0  0  0
 22 23  1  0  0  0  0
 22 46  1  0  0  0  0
 23 24  2  0  0  0  0
 24 25  1  0  0  0  0
 24 47  1  0  0  0  0
 25 26  2  0  0  0  0
 25 48  1  0  0  0  0
 27 29  2  0  0  0  0
 27 49  1  0  0  0  0
 28 50  1  0  0  0  0
 28 51  1  0  0  0  0
 29 52  1  0  0  0  0
M  CHG  1  10   1
M  END
