2c2l_ligand
 OpenBabel08222323343D

139138  0  0  1  0  0  0  0  0999 V2000
    8.5730  -31.0520   29.8490 N   0  3  0  0  0  0  0  0  0  0  0  0
    8.1030  -32.4450   30.1340 C   0  0  2  0  0  0  0  0  0  0  0  0
    9.2080  -33.2500   30.8250 C   0  0  0  0  0  0  0  0  0  0  0  0
    9.3360  -34.4590   30.6060 O   0  0  0  0  0  0  0  0  0  0  0  0
    7.6970  -33.1520   28.8330 C   0  0  0  0  0  0  0  0  0  0  0  0
    6.7190  -32.3380   28.0030 C   0  0  0  0  0  0  0  0  0  0  0  0
    5.6410  -31.9720   28.5230 O   0  5  0  0  0  0  0  0  0  0  0  0
    7.0280  -32.0710   26.8230 O   0  0  0  0  0  0  0  0  0  0  0  0
   10.0000  -32.5740   31.6580 N   0  0  0  0  0  0  0  0  0  0  0  0
   11.1120  -33.2020   32.3770 C   0  0  2  0  0  0  0  0  0  0  0  0
   10.6440  -34.1700   33.4640 C   0  0  0  0  0  0  0  0  0  0  0  0
   10.2150  -35.2860   33.1700 O   0  0  0  0  0  0  0  0  0  0  0  0
   12.0170  -32.1310   33.0220 C   0  0  2  0  0  0  0  0  0  0  0  0
   12.4200  -31.1800   32.0280 O   0  0  0  0  0  0  0  0  0  0  0  0
   13.2500  -32.7700   33.6200 C   0  0  0  0  0  0  0  0  0  0  0  0
   10.7350  -33.7320   34.7190 N   0  0  0  0  0  0  0  0  0  0  0  0
   10.3310  -34.5210   35.8880 C   0  0  2  0  0  0  0  0  0  0  0  0
   10.9290  -33.8650   37.1250 C   0  0  0  0  0  0  0  0  0  0  0  0
   12.1090  -33.5170   37.1410 O   0  0  0  0  0  0  0  0  0  0  0  0
   10.8250  -35.9690   35.7730 C   0  0  0  0  0  0  0  0  0  0  0  0
   12.1970  -36.0210   35.4360 O   0  0  0  0  0  0  0  0  0  0  0  0
   10.1210  -33.6830   38.1600 N   0  0  0  0  0  0  0  0  0  0  0  0
   10.6290  -33.0410   39.3620 C   0  0  2  0  0  0  0  0  0  0  0  0
   11.1770  -33.9960   40.4170 C   0  0  0  0  0  0  0  0  0  0  0  0
   11.2250  -35.2010   40.2180 O   0  0  0  0  0  0  0  0  0  0  0  0
    9.5520  -32.1560   39.9770 C   0  0  0  0  0  0  0  0  0  0  0  0
    9.2700  -30.8830   39.1960 C   0  0  0  0  0  0  0  0  0  0  0  0
    8.4110  -29.9510   40.0350 C   0  0  0  0  0  0  0  0  0  0  0  0
    8.2170  -28.6450   39.4200 N   0  0  0  0  0  0  0  0  0  0  0  0
    7.5310  -27.6510   39.9800 C   0  0  0  0  0  3  0  0  0  0  0  0
    6.9770  -27.8270   41.1720 N   0  0  0  0  0  0  0  0  0  0  0  0
    7.3960  -26.4810   39.3510 N   0  0  0  0  0  0  0  0  0  0  0  0
   11.6080  -33.4480   41.5410 N   0  0  0  0  0  0  0  0  0  0  0  0
   12.1510  -34.2860   42.5770 C   0  0  2  0  0  0  0  0  0  0  0  0
   11.2180  -34.3970   43.7380 C   0  0  0  0  0  0  0  0  0  0  0  0
   11.2460  -35.3860   44.4570 O   0  0  0  0  0  0  0  0  0  0  0  0
   13.4650  -33.7350   43.0800 C   0  0  0  0  0  0  0  0  0  0  0  0
   14.5690  -33.8600   42.1060 C   0  0  0  0  0  0  0  0  0  0  0  0
   15.9950  -34.3900   42.9910 S   0  0  0  0  0  0  0  0  0  0  0  0
   15.8890  -36.1110   42.6940 C   0  0  0  0  0  0  0  0  0  0  0  0
   10.4030  -33.3730   43.9450 N   0  0  0  0  0  0  0  0  0  0  0  0
    9.4650  -33.3840   45.0570 C   0  0  2  0  0  0  0  0  0  0  0  0
    8.3410  -34.3690   44.7420 C   0  0  0  0  0  0  0  0  0  0  0  0
    7.2180  -34.2050   45.2070 O   0  0  0  0  0  0  0  0  0  0  0  0
    8.8910  -31.9760   45.2830 C   0  0  0  0  0  0  0  0  0  0  0  0
    9.9130  -30.8940   45.6850 C   0  0  0  0  0  0  0  0  0  0  0  0
   10.1420  -30.7870   47.1930 C   0  0  0  0  0  0  0  0  0  0  0  0
    9.1690  -30.5270   47.9360 O   0  5  0  0  0  0  0  0  0  0  0  0
   11.2980  -30.9490   47.6390 O   0  0  0  0  0  0  0  0  0  0  0  0
    8.6500  -35.3860   43.9430 N   0  0  0  0  0  0  0  0  0  0  0  0
    7.6710  -36.4010   43.5740 C   0  0  2  0  0  0  0  0  0  0  0  0
    8.1700  -37.8020   43.9010 C   0  0  0  0  0  0  0  0  0  0  0  0
    9.3330  -38.1200   43.6550 O   0  0  0  0  0  0  0  0  0  0  0  0
    7.3790  -36.3370   42.0840 C   0  0  0  0  0  0  0  0  0  0  0  0
    8.6270  -36.5090   41.2500 C   0  0  0  0  0  0  0  0  0  0  0  0
    8.3230  -36.9580   39.8360 C   0  0  0  0  0  0  0  0  0  0  0  0
    7.4270  -36.3520   39.2090 O   0  5  0  0  0  0  0  0  0  0  0  0
    8.9830  -37.9070   39.3530 O   0  0  0  0  0  0  0  0  0  0  0  0
    7.2850  -38.6320   44.4520 N   0  0  0  0  0  0  0  0  0  0  0  0
    7.6160  -40.0110   44.7960 C   0  0  2  0  0  0  0  0  0  0  0  0
    7.5000  -40.8270   43.5270 C   0  0  0  0  0  0  0  0  0  0  0  0
    6.6560  -41.7090   43.4350 O   0  0  0  0  0  0  0  0  0  0  0  0
    6.6360  -40.5940   45.8130 C   0  0  0  0  0  0  0  0  0  0  0  0
    6.9430  -42.0480   46.0380 C   0  0  0  0  0  0  0  0  0  0  0  0
    6.7250  -39.8430   47.1090 C   0  0  0  0  0  0  0  0  0  0  0  0
    8.3420  -40.5150   42.5460 N   0  0  0  0  0  0  0  0  0  0  0  0
    8.3350  -41.2020   41.2500 C   0  0  2  0  0  0  0  0  0  0  0  0
    6.9570  -41.0490   40.5780 C   0  0  0  0  0  0  0  0  0  0  0  0
    6.4110  -42.0540   40.0590 O   0  5  0  0  0  0  0  0  0  0  0  0
    8.6730  -42.6860   41.4410 C   0  0  0  0  0  0  0  0  0  0  0  0
    9.6380  -42.9140   42.5780 C   0  0  0  0  0  0  0  0  0  0  0  0
   10.7940  -42.4570   42.4940 O   0  5  0  0  0  0  0  0  0  0  0  0
    9.2200  -43.5490   43.5620 O   0  0  0  0  0  0  0  0  0  0  0  0
    6.4450  -39.9040   40.5820 O   0  0  0  0  0  0  0  0  0  0  0  0
    7.8363  -30.5352   29.3949 H   0  0  0  0  0  0  0  0  0  0  0  0
    9.3801  -31.0864   29.2461 H   0  0  0  0  0  0  0  0  0  0  0  0
    8.8189  -30.5967   30.7141 H   0  0  0  0  0  0  0  0  0  0  0  0
    7.2289  -32.3934   30.7998 H   0  0  0  0  0  0  0  0  0  0  0  0
    7.2273  -34.1137   29.0870 H   0  0  0  0  0  0  0  0  0  0  0  0
    8.6016  -33.3326   28.2337 H   0  0  0  0  0  0  0  0  0  0  0  0
    9.8282  -31.5988   31.7978 H   0  0  0  0  0  0  0  0  0  0  0  0
   11.7068  -33.7694   31.6461 H   0  0  0  0  0  0  0  0  0  0  0  0
   11.4556  -31.6152   33.8149 H   0  0  0  0  0  0  0  0  0  0  0  0
   12.9767  -30.5223   32.4279 H   0  0  0  0  0  0  0  0  0  0  0  0
   13.8820  -31.9928   34.0744 H   0  0  0  0  0  0  0  0  0  0  0  0
   13.8150  -33.2866   32.8302 H   0  0  0  0  0  0  0  0  0  0  0  0
   12.9500  -33.4954   34.3906 H   0  0  0  0  0  0  0  0  0  0  0  0
   11.0993  -32.8135   34.8728 H   0  0  0  0  0  0  0  0  0  0  0  0
    9.2337  -34.5228   35.9654 H   0  0  0  0  0  0  0  0  0  0  0  0
   10.2452  -36.4840   34.9929 H   0  0  0  0  0  0  0  0  0  0  0  0
   10.6740  -36.4763   36.7373 H   0  0  0  0  0  0  0  0  0  0  0  0
   12.7040  -35.5815   36.1085 H   0  0  0  0  0  0  0  0  0  0  0  0
    9.1688  -33.9850   38.1146 H   0  0  0  0  0  0  0  0  0  0  0  0
   11.4623  -32.3937   39.0512 H   0  0  0  0  0  0  0  0  0  0  0  0
    9.8740  -31.8746   40.9904 H   0  0  0  0  0  0  0  0  0  0  0  0
    8.6202  -32.7376   40.0366 H   0  0  0  0  0  0  0  0  0  0  0  0
    8.7380  -31.1338   38.2665 H   0  0  0  0  0  0  0  0  0  0  0  0
   10.2199  -30.3850   38.9519 H   0  0  0  0  0  0  0  0  0  0  0  0
    8.8982  -29.8095   41.0110 H   0  0  0  0  0  0  0  0  0  0  0  0
    7.4263  -30.4190   40.1811 H   0  0  0  0  0  0  0  0  0  0  0  0
    8.6368  -28.4802   38.4940 H   0  0  0  0  0  0  0  0  0  0  0  0
    6.4450  -27.0619   41.6107 H   0  0  0  0  0  0  0  0  0  0  0  0
    7.0788  -28.7288   41.6591 H   0  0  0  0  0  0  0  0  0  0  0  0
    7.8252  -26.3415   38.4251 H   0  0  0  0  0  0  0  0  0  0  0  0
    6.8627  -25.7179   39.7916 H   0  0  0  0  0  0  0  0  0  0  0  0
   11.5568  -32.4577   41.6700 H   0  0  0  0  0  0  0  0  0  0  0  0
   12.3195  -35.2892   42.1585 H   0  0  0  0  0  0  0  0  0  0  0  0
   13.7439  -34.2800   43.9939 H   0  0  0  0  0  0  0  0  0  0  0  0
   13.3281  -32.6694   43.3159 H   0  0  0  0  0  0  0  0  0  0  0  0
   14.7621  -32.8874   41.6298 H   0  0  0  0  0  0  0  0  0  0  0  0
   14.3083  -34.6003   41.3353 H   0  0  0  0  0  0  0  0  0  0  0  0
   16.7286  -36.6209   43.1891 H   0  0  0  0  0  0  0  0  0  0  0  0
   15.9326  -36.2996   41.6112 H   0  0  0  0  0  0  0  0  0  0  0  0
   14.9392  -36.4945   43.0951 H   0  0  0  0  0  0  0  0  0  0  0  0
   10.4330  -32.5846   43.3306 H   0  0  0  0  0  0  0  0  0  0  0  0
    9.9870  -33.7082   45.9693 H   0  0  0  0  0  0  0  0  0  0  0  0
    8.1374  -32.0424   46.0816 H   0  0  0  0  0  0  0  0  0  0  0  0
    8.4079  -31.6540   44.3487 H   0  0  0  0  0  0  0  0  0  0  0  0
    9.5497  -29.9219   45.3202 H   0  0  0  0  0  0  0  0  0  0  0  0
   10.8741  -31.1300   45.2048 H   0  0  0  0  0  0  0  0  0  0  0  0
    9.5810  -35.4566   43.5849 H   0  0  0  0  0  0  0  0  0  0  0  0
    6.7428  -36.2120   44.1332 H   0  0  0  0  0  0  0  0  0  0  0  0
    6.9302  -35.3597   41.8526 H   0  0  0  0  0  0  0  0  0  0  0  0
    6.6686  -37.1367   41.8275 H   0  0  0  0  0  0  0  0  0  0  0  0
    9.2700  -37.2623   41.7286 H   0  0  0  0  0  0  0  0  0  0  0  0
    9.1584  -35.5468   41.2078 H   0  0  0  0  0  0  0  0  0  0  0  0
    6.3607  -38.2978   44.6364 H   0  0  0  0  0  0  0  0  0  0  0  0
    8.6392  -40.0599   45.1968 H   0  0  0  0  0  0  0  0  0  0  0  0
    5.6138  -40.5013   45.4175 H   0  0  0  0  0  0  0  0  0  0  0  0
    6.2352  -42.4631   46.7706 H   0  0  0  0  0  0  0  0  0  0  0  0
    7.9692  -42.1512   46.4205 H   0  0  0  0  0  0  0  0  0  0  0  0
    6.8493  -42.5939   45.0876 H   0  0  0  0  0  0  0  0  0  0  0  0
    6.4988  -38.7809   46.9336 H   0  0  0  0  0  0  0  0  0  0  0  0
    7.7412  -39.9385   47.5191 H   0  0  0  0  0  0  0  0  0  0  0  0
    6.0002  -40.2589   47.8243 H   0  0  0  0  0  0  0  0  0  0  0  0
    9.0062  -39.7830   42.6979 H   0  0  0  0  0  0  0  0  0  0  0  0
    9.0976  -40.7456   40.6018 H   0  0  0  0  0  0  0  0  0  0  0  0
    9.1237  -43.0680   40.5131 H   0  0  0  0  0  0  0  0  0  0  0  0
    7.7437  -43.2359   41.6507 H   0  0  0  0  0  0  0  0  0  0  0  0
  1  2  1  0  0  0  0
  1 75  1  0  0  0  0
  1 76  1  0  0  0  0
  1 77  1  0  0  0  0
  2  3  1  0  0  0  0
  2  5  1  0  0  0  0
  2 78  1  1  0  0  0
  3  4  2  0  0  0  0
  3  9  1  0  0  0  0
  5  6  1  0  0  0  0
  5 79  1  0  0  0  0
  5 80  1  0  0  0  0
  6  7  1  0  0  0  0
  6  8  2  0  0  0  0
  9 10  1  0  0  0  0
  9 81  1  0  0  0  0
 10 11  1  0  0  0  0
 10 13  1  0  0  0  0
 10 82  1  6  0  0  0
 11 12  2  0  0  0  0
 11 16  1  0  0  0  0
 13 14  1  0  0  0  0
 13 15  1  0  0  0  0
 13 83  1  1  0  0  0
 14 84  1  0  0  0  0
 15 85  1  0  0  0  0
 15 86  1  0  0  0  0
 15 87  1  0  0  0  0
 16 17  1  0  0  0  0
 16 88  1  0  0  0  0
 17 18  1  0  0  0  0
 17 20  1  0  0  0  0
 17 89  1  1  0  0  0
 18 19  2  0  0  0  0
 18 22  1  0  0  0  0
 20 21  1  0  0  0  0
 20 90  1  0  0  0  0
 20 91  1  0  0  0  0
 21 92  1  0  0  0  0
 22 23  1  0  0  0  0
 22 93  1  0  0  0  0
 23 24  1  0  0  0  0
 23 26  1  0  0  0  0
 23 94  1  6  0  0  0
 24 25  2  0  0  0  0
 24 33  1  0  0  0  0
 26 27  1  0  0  0  0
 26 95  1  0  0  0  0
 26 96  1  0  0  0  0
 27 28  1  0  0  0  0
 27 97  1  0  0  0  0
 27 98  1  0  0  0  0
 28 29  1  0  0  0  0
 28 99  1  0  0  0  0
 28100  1  0  0  0  0
 29 30  1  0  0  0  0
 29101  1  0  0  0  0
 30 31  1  0  0  0  0
 30 32  1  0  0  0  0
 31102  1  0  0  0  0
 31103  1  0  0  0  0
 32104  1  0  0  0  0
 32105  1  0  0  0  0
 33 34  1  0  0  0  0
 33106  1  0  0  0  0
 34 35  1  0  0  0  0
 34 37  1  0  0  0  0
 34107  1  6  0  0  0
 35 36  2  0  0  0  0
 35 41  1  0  0  0  0
 37 38  1  0  0  0  0
 37108  1  0  0  0  0
 37109  1  0  0  0  0
 38 39  1  0  0  0  0
 38110  1  0  0  0  0
 38111  1  0  0  0  0
 39 40  1  0  0  0  0
 40112  1  0  0  0  0
 40113  1  0  0  0  0
 40114  1  0  0  0  0
 41 42  1  0  0  0  0
 41115  1  0  0  0  0
 42 43  1  0  0  0  0
 42 45  1  0  0  0  0
 42116  1  1  0  0  0
 43 44  2  0  0  0  0
 43 50  1  0  0  0  0
 45 46  1  0  0  0  0
 45117  1  0  0  0  0
 45118  1  0  0  0  0
 46 47  1  0  0  0  0
 46119  1  0  0  0  0
 46120  1  0  0  0  0
 47 48  1  0  0  0  0
 47 49  2  0  0  0  0
 50 51  1  0  0  0  0
 50121  1  0  0  0  0
 51 52  1  0  0  0  0
 51 54  1  0  0  0  0
 51122  1  1  0  0  0
 52 53  2  0  0  0  0
 52 59  1  0  0  0  0
 54 55  1  0  0  0  0
 54123  1  0  0  0  0
 54124  1  0  0  0  0
 55 56  1  0  0  0  0
 55125  1  0  0  0  0
 55126  1  0  0  0  0
 56 57  1  0  0  0  0
 56 58  2  0  0  0  0
 59 60  1  0  0  0  0
 59127  1  0  0  0  0
 60 61  1  0  0  0  0
 60 63  1  0  0  0  0
 60128  1  1  0  0  0
 61 62  2  0  0  0  0
 61 66  1  0  0  0  0
 63 64  1  0  0  0  0
 63 65  1  0  0  0  0
 63129  1  0  0  0  0
 64130  1  0  0  0  0
 64131  1  0  0  0  0
 64132  1  0  0  0  0
 65133  1  0  0  0  0
 65134  1  0  0  0  0
 65135  1  0  0  0  0
 66 67  1  0  0  0  0
 66136  1  0  0  0  0
 67 68  1  0  0  0  0
 67 70  1  0  0  0  0
 67137  1  6  0  0  0
 68 69  1  0  0  0  0
 68 74  2  0  0  0  0
 70 71  1  0  0  0  0
 70138  1  0  0  0  0
 70139  1  0  0  0  0
 71 72  1  0  0  0  0
 71 73  2  0  0  0  0
M  CHG  6   1   1   7  -1  48  -1  57  -1  69  -1  72  -1
M  END
