2c3j_ligand
 OpenBabel08222323343D

 29 31  0  0  0  0  0  0  0  0999 V2000
    3.8910   -1.6130   20.6180 O   0  0  0  0  0  0  0  0  0  0  0  0
    4.6820   -2.1690   19.8560 C   0  0  0  0  0  0  0  0  0  0  0  0
    5.8350   -1.5040   19.6480 N   0  0  0  0  0  0  0  0  0  0  0  0
    6.9320   -1.9230   18.7260 C   0  0  0  0  0  0  0  0  0  0  0  0
    7.2570   -3.4210   18.7060 C   0  0  0  0  0  0  0  0  0  0  0  0
    4.2260   -3.4420   19.1550 C   0  0  0  0  0  0  0  0  0  0  0  0
    2.9680   -3.8670   19.2840 N   0  0  0  0  0  0  0  0  0  0  0  0
    2.8680   -4.9560   18.5270 C   0  0  0  0  0  0  0  0  0  0  0  0
    4.0210   -5.1950   17.9190 C   0  0  0  0  0  0  0  0  0  0  0  0
    4.9030   -4.2910   18.2760 C   0  0  0  0  0  0  0  0  0  0  0  0
    6.2330   -4.1570   17.8520 C   0  0  0  0  0  0  0  0  0  0  0  0
    6.6440   -4.6530   16.5770 C   0  0  0  0  0  0  0  0  0  0  0  0
    5.8280   -5.0760   15.5920 N   0  0  0  0  0  0  0  0  0  0  0  0
    6.5780   -5.4850   14.5490 C   0  0  0  0  0  0  0  0  0  0  0  0
    6.0800   -5.9690   13.3800 N   0  0  0  0  0  0  0  0  0  0  0  0
    7.8860   -5.3230   14.8290 N   0  0  0  0  0  0  0  0  0  0  0  0
    7.9630   -4.7940   16.0580 C   0  0  0  0  0  0  0  0  0  0  0  0
    9.0500   -4.4800   16.5640 O   0  0  0  0  0  0  0  0  0  0  0  0
    5.9680   -0.6534   20.1568 H   0  0  0  0  0  0  0  0  0  0  0  0
    7.8444   -1.3845   19.0218 H   0  0  0  0  0  0  0  0  0  0  0  0
    6.6459   -1.6270   17.7059 H   0  0  0  0  0  0  0  0  0  0  0  0
    7.2280   -3.8152   19.7325 H   0  0  0  0  0  0  0  0  0  0  0  0
    8.2614   -3.5717   18.2835 H   0  0  0  0  0  0  0  0  0  0  0  0
    2.2249   -3.4386   19.8542 H   0  0  0  0  0  0  0  0  0  0  0  0
    1.9698   -5.5627   18.4221 H   0  0  0  0  0  0  0  0  0  0  0  0
    4.2081   -6.0161   17.2286 H   0  0  0  0  0  0  0  0  0  0  0  0
    5.0620   -6.0593   13.2521 H   0  0  0  0  0  0  0  0  0  0  0  0
    6.7208   -6.2453   12.6224 H   0  0  0  0  0  0  0  0  0  0  0  0
    8.6545   -5.5540   14.2323 H   0  0  0  0  0  0  0  0  0  0  0  0
  1  2  2  0  0  0  0
  2  3  1  0  0  0  0
  2  6  1  0  0  0  0
  3  4  1  0  0  0  0
  3 19  1  0  0  0  0
  4  5  1  0  0  0  0
  4 20  1  0  0  0  0
  4 21  1  0  0  0  0
  5 11  1  0  0  0  0
  5 22  1  0  0  0  0
  5 23  1  0  0  0  0
  6  7  1  0  0  0  0
  6 10  2  0  0  0  0
  7  8  1  0  0  0  0
  7 24  1  0  0  0  0
  8  9  2  0  0  0  0
  8 25  1  0  0  0  0
  9 10  1  0  0  0  0
  9 26  1  0  0  0  0
 10 11  1  0  0  0  0
 11 12  2  0  0  0  0
 12 13  1  0  0  0  0
 12 17  1  0  0  0  0
 13 14  2  0  0  0  0
 14 15  1  0  0  0  0
 14 16  1  0  0  0  0
 15 27  1  0  0  0  0
 15 28  1  0  0  0  0
 16 17  1  0  0  0  0
 16 29  1  0  0  0  0
 17 18  2  0  0  0  0
M  END
