2c4g_ligand
 OpenBabel08222323343D

 34 36  0  0  0  0  0  0  0  0999 V2000
  -19.1710  212.4470  104.5130 O   0  0  0  0  0  0  0  0  0  0  0  0
  -13.8820  214.3400  102.4660 C   0  0  0  0  0  0  0  0  0  0  0  0
  -15.2750  213.9600  100.8790 N   0  0  0  0  0  0  0  0  0  0  0  0
  -14.1680  214.3270  101.1020 N   0  0  0  0  0  0  0  0  0  0  0  0
  -11.0000  215.1880  104.7670 C   0  0  0  0  0  0  0  0  0  0  0  0
   -9.8100  214.7010  104.1120 C   0  0  0  0  0  0  0  0  0  0  0  0
  -10.8550  216.1190  105.8580 C   0  0  0  0  0  0  0  0  0  0  0  0
  -12.2840  214.7680  104.3640 C   0  0  0  0  0  0  0  0  0  0  0  0
   -8.5240  215.1310  104.5340 C   0  0  0  0  0  0  0  0  0  0  0  0
   -9.5650  216.5440  106.2740 C   0  0  0  0  0  0  0  0  0  0  0  0
  -13.0810  214.4310  105.2350 O   0  0  0  0  0  0  0  0  0  0  0  0
  -12.5930  214.7480  103.0430 N   0  0  0  0  0  0  0  0  0  0  0  0
   -8.3970  216.0490  105.6110 C   0  0  0  0  0  0  0  0  0  0  0  0
  -15.9330  213.6620  102.0700 C   0  0  0  0  0  0  0  0  0  0  0  0
  -15.1430  213.8710  103.0870 C   0  0  0  0  0  0  0  0  0  0  0  0
  -15.7080  213.6000  104.4140 C   0  0  0  0  0  0  0  0  0  0  0  0
  -17.0700  213.1670  103.9860 N   0  0  0  0  0  0  0  0  0  0  0  0
  -17.2660  213.1820  102.5010 C   0  0  0  0  0  0  0  0  0  0  0  0
  -18.0430  212.7970  104.8820 C   0  0  0  0  0  0  0  0  0  0  0  0
  -17.7330  212.8240  106.3840 C   0  0  0  0  0  0  0  0  0  0  0  0
  -15.6892  213.8743   99.9398 H   0  0  0  0  0  0  0  0  0  0  0  0
   -9.8985  214.0001  103.2898 H   0  0  0  0  0  0  0  0  0  0  0  0
  -11.7359  216.4971  106.3641 H   0  0  0  0  0  0  0  0  0  0  0  0
   -7.6377  214.7582  104.0335 H   0  0  0  0  0  0  0  0  0  0  0  0
   -9.4649  217.2446  107.0951 H   0  0  0  0  0  0  0  0  0  0  0  0
  -11.8797  215.0368  102.4044 H   0  0  0  0  0  0  0  0  0  0  0  0
   -7.4140  216.3750  105.9311 H   0  0  0  0  0  0  0  0  0  0  0  0
  -15.7379  214.5010  105.0443 H   0  0  0  0  0  0  0  0  0  0  0  0
  -15.1652  212.8016  104.9411 H   0  0  0  0  0  0  0  0  0  0  0  0
  -17.4850  212.1782  102.1081 H   0  0  0  0  0  0  0  0  0  0  0  0
  -18.0658  213.8754  102.2019 H   0  0  0  0  0  0  0  0  0  0  0  0
  -16.6954  213.1551  106.5383 H   0  0  0  0  0  0  0  0  0  0  0  0
  -17.8622  211.8153  106.8033 H   0  0  0  0  0  0  0  0  0  0  0  0
  -18.4190  213.5210  106.8875 H   0  0  0  0  0  0  0  0  0  0  0  0
  2  4  2  0  0  0  0
  2 12  1  0  0  0  0
  3  4  1  0  0  0  0
  3 21  1  0  0  0  0
  5  6  2  0  0  0  0
  5  7  1  0  0  0  0
  6  9  1  0  0  0  0
  6 22  1  0  0  0  0
  7 10  2  0  0  0  0
  7 23  1  0  0  0  0
  8  5  1  0  0  0  0
  8 11  2  0  0  0  0
  9 13  2  0  0  0  0
  9 24  1  0  0  0  0
 10 13  1  0  0  0  0
 10 25  1  0  0  0  0
 12  8  1  0  0  0  0
 12 26  1  0  0  0  0
 13 27  1  0  0  0  0
 14  3  1  0  0  0  0
 14 15  2  0  0  0  0
 15  2  1  0  0  0  0
 16 15  1  0  0  0  0
 16 28  1  0  0  0  0
 16 29  1  0  0  0  0
 17 16  1  0  0  0  0
 17 18  1  0  0  0  0
 17 19  1  0  0  0  0
 18 14  1  0  0  0  0
 18 30  1  0  0  0  0
 18 31  1  0  0  0  0
 19  1  2  0  0  0  0
 19 20  1  0  0  0  0
 20 32  1  0  0  0  0
 20 33  1  0  0  0  0
 20 34  1  0  0  0  0
M  END
