2c4v_ligand
 OpenBabel08222323343D

 18 17  0  0  0  0  0  0  0  0999 V2000
   97.2030  -23.6670   85.1630 C   0  0  0  0  0  0  0  0  0  0  0  0
   98.4370  -23.6400   85.2660 O   0  5  0  0  0  0  0  0  0  0  0  0
   96.6470  -23.3400   84.0380 O   0  0  0  0  0  0  0  0  0  0  0  0
   96.3700  -24.0250   86.3660 C   0  0  0  0  0  0  0  0  0  0  0  0
   96.9930  -24.1460   87.7440 C   0  0  0  0  0  0  0  0  0  0  0  0
   95.8340  -24.5180   88.5930 O   0  0  0  0  0  0  0  0  0  0  0  0
   97.7070  -22.8610   88.2730 C   0  0  0  0  0  0  0  0  0  0  0  0
   96.8220  -21.6300   88.4200 C   0  0  0  0  0  0  0  0  0  0  0  0
   96.4990  -20.9250   87.4240 O   0  5  0  0  0  0  0  0  0  0  0  0
   96.3250  -21.3820   89.5450 O   0  0  0  0  0  0  0  0  0  0  0  0
   97.9700  -25.3290   87.7970 C   0  0  0  0  0  0  0  0  0  0  0  0
   99.2030  -25.1580   88.1180 O   0  5  0  0  0  0  0  0  0  0  0  0
   97.5040  -26.4770   87.5650 O   0  0  0  0  0  0  0  0  0  0  0  0
   95.9069  -24.9983   86.1464 H   0  0  0  0  0  0  0  0  0  0  0  0
   95.5875  -23.2558   86.4438 H   0  0  0  0  0  0  0  0  0  0  0  0
   95.4653  -25.3367   88.2826 H   0  0  0  0  0  0  0  0  0  0  0  0
   98.5189  -22.6126   87.5736 H   0  0  0  0  0  0  0  0  0  0  0  0
   98.1320  -23.0922   89.2609 H   0  0  0  0  0  0  0  0  0  0  0  0
  1  2  1  0  0  0  0
  1  3  2  0  0  0  0
  1  4  1  0  0  0  0
  4  5  1  0  0  0  0
  4 14  1  0  0  0  0
  4 15  1  0  0  0  0
  5  6  1  0  0  0  0
  5  7  1  0  0  0  0
  5 11  1  0  0  0  0
  6 16  1  0  0  0  0
  7  8  1  0  0  0  0
  7 17  1  0  0  0  0
  7 18  1  0  0  0  0
  8  9  1  0  0  0  0
  8 10  2  0  0  0  0
 11 12  1  0  0  0  0
 11 13  2  0  0  0  0
M  CHG  3   2  -1   9  -1  12  -1
M  END
