2c57_ligand
 OpenBabel08222323343D

 21 21  0  0  1  0  0  0  0  0999 V2000
    1.2830   19.0930   65.7970 C   0  0  0  0  0  0  0  0  0  0  0  0
    1.9790   18.5890   67.0520 C   0  0  1  0  0  0  0  0  0  0  0  0
    1.2850   19.0590   68.2040 O   0  0  0  0  0  0  0  0  0  0  0  0
    1.9990   17.0420   67.0360 C   0  0  2  0  0  0  0  0  0  0  0  0
    2.9940   16.7650   68.0200 O   0  0  0  0  0  0  0  0  0  0  0  0
    2.3060   16.4170   65.6770 C   0  0  0  0  0  0  0  0  0  0  0  0
    2.3730   17.1620   64.5820 C   0  0  0  0  0  0  0  0  0  0  0  0
    1.3230   18.9890   63.4400 C   0  0  0  0  0  0  0  0  0  0  0  0
    0.1260   19.3570   63.6490 O   0  5  0  0  0  0  0  0  0  0  0  0
    3.3630   19.4710   64.5890 O   0  0  0  0  0  0  0  0  0  0  0  0
    1.8320   18.9590   62.2870 O   0  0  0  0  0  0  0  0  0  0  0  0
    2.1580   18.6510   64.6140 C   0  0  1  0  0  0  0  0  0  0  0  0
    1.2004   20.1896   65.8212 H   0  0  0  0  0  0  0  0  0  0  0  0
    0.2790   18.6513   65.7144 H   0  0  0  0  0  0  0  0  0  0  0  0
    3.0123   18.9655   67.0732 H   0  0  0  0  0  0  0  0  0  0  0  0
    1.7216   18.7429   68.9863 H   0  0  0  0  0  0  0  0  0  0  0  0
    1.0236   16.6542   67.3649 H   0  0  0  0  0  0  0  0  0  0  0  0
    2.7233   17.1304   68.8541 H   0  0  0  0  0  0  0  0  0  0  0  0
    2.4725   15.3431   65.6060 H   0  0  0  0  0  0  0  0  0  0  0  0
    2.5905   16.6810   63.6295 H   0  0  0  0  0  0  0  0  0  0  0  0
    3.8506   19.2912   63.7938 H   0  0  0  0  0  0  0  0  0  0  0  0
  1  2  1  0  0  0  0
  1 13  1  0  0  0  0
  1 14  1  0  0  0  0
  2  3  1  0  0  0  0
  2  4  1  0  0  0  0
  2 15  1  1  0  0  0
  3 16  1  0  0  0  0
  4  5  1  0  0  0  0
  4 17  1  1  0  0  0
  5 18  1  0  0  0  0
  6  4  1  0  0  0  0
  6 19  1  0  0  0  0
  7  6  2  0  0  0  0
  7 20  1  0  0  0  0
  8  9  1  0  0  0  0
  8 11  2  0  0  0  0
 10 21  1  0  0  0  0
 12  1  1  0  0  0  0
 12  7  1  0  0  0  0
 12  8  1  6  0  0  0
 12 10  1  0  0  0  0
M  CHG  1   9  -1
M  END
