2c5y_ligand
 OpenBabel08222323343D

 43 46  0  0  0  0  0  0  0  0999 V2000
   27.3170   24.7460   25.0060 C   0  0  0  0  0  0  0  0  0  0  0  0
   28.1710   23.8510   25.4950 N   0  0  0  0  0  0  0  0  0  0  0  0
   29.3960   24.3630   25.3530 C   0  0  0  0  0  0  0  0  0  0  0  0
   29.2690   25.5500   24.7660 N   0  0  0  0  0  0  0  0  0  0  0  0
   28.0710   25.7450   24.5510 N   0  0  0  0  0  0  0  0  0  0  0  0
   27.5270   26.9730   23.9470 C   0  0  0  0  0  0  0  0  0  0  0  0
   27.8720   28.1490   24.8670 C   0  0  0  0  0  0  0  0  0  0  0  0
   27.0430   28.6400   25.8710 C   0  0  0  0  0  0  0  0  0  0  0  0
   29.1360   28.7020   24.7240 C   0  0  0  0  0  0  0  0  0  0  0  0
   29.5460   29.7810   25.4940 C   0  0  0  0  0  0  0  0  0  0  0  0
   28.6960   30.2900   26.4670 C   0  0  0  0  0  0  0  0  0  0  0  0
   27.4590   29.6960   26.6770 C   0  0  0  0  0  0  0  0  0  0  0  0
   26.6340   30.2650   27.6430 C   0  0  0  0  0  0  0  0  0  0  0  0
   25.6740   29.5350   28.2430 N   0  0  0  0  0  0  0  0  0  0  0  0
   26.7960   31.6240   27.9280 C   0  0  0  0  0  0  0  0  0  0  0  0
   25.8880   32.1930   28.8060 C   0  0  0  0  0  0  0  0  0  0  0  0
   24.9650   31.4110   29.3600 N   0  0  0  0  0  0  0  0  0  0  0  0
   24.8130   30.0970   29.1150 C   0  0  0  0  0  0  0  0  0  0  0  0
   23.8420   29.3780   29.6980 N   0  0  0  0  0  0  0  0  0  0  0  0
   23.5140   28.1070   29.4030 C   0  0  0  0  0  0  0  0  0  0  0  0
   24.2540   27.2850   28.5510 C   0  0  0  0  0  0  0  0  0  0  0  0
   22.3480   27.5550   29.9320 C   0  0  0  0  0  0  0  0  0  0  0  0
   21.9220   26.2700   29.6070 C   0  0  0  0  0  0  0  0  0  0  0  0
   22.6820   25.4680   28.7580 C   0  0  0  0  0  0  0  0  0  0  0  0
   23.8590   25.9830   28.2190 C   0  0  0  0  0  0  0  0  0  0  0  0
   24.6680   25.1940   27.4930 N   0  0  0  0  0  0  0  0  0  0  0  0
   24.5510   24.8250   26.1040 O   0  0  0  0  0  0  0  0  0  0  0  0
   25.8130   24.7340   28.1950 O   0  0  0  0  0  0  0  0  0  0  0  0
   26.2305   24.6765   24.9827 H   0  0  0  0  0  0  0  0  0  0  0  0
   30.3292   23.8942   25.6616 H   0  0  0  0  0  0  0  0  0  0  0  0
   26.4351   26.8867   23.8458 H   0  0  0  0  0  0  0  0  0  0  0  0
   27.9759   27.1313   22.9553 H   0  0  0  0  0  0  0  0  0  0  0  0
   26.0660   28.1969   26.0266 H   0  0  0  0  0  0  0  0  0  0  0  0
   29.8188   28.2818   23.9944 H   0  0  0  0  0  0  0  0  0  0  0  0
   30.5230   30.2235   25.3371 H   0  0  0  0  0  0  0  0  0  0  0  0
   28.9968   31.1466   27.0594 H   0  0  0  0  0  0  0  0  0  0  0  0
   27.5951   32.2056   27.4826 H   0  0  0  0  0  0  0  0  0  0  0  0
   25.9286   33.2514   29.0365 H   0  0  0  0  0  0  0  0  0  0  0  0
   23.2977   29.8415   30.4395 H   0  0  0  0  0  0  0  0  0  0  0  0
   25.1743   27.6713   28.1281 H   0  0  0  0  0  0  0  0  0  0  0  0
   21.7534   28.1460   30.6192 H   0  0  0  0  0  0  0  0  0  0  0  0
   20.9929   25.8909   30.0171 H   0  0  0  0  0  0  0  0  0  0  0  0
   22.3626   24.4597   28.5207 H   0  0  0  0  0  0  0  0  0  0  0  0
  1  2  2  0  0  0  0
  1  5  1  0  0  0  0
  1 29  1  0  0  0  0
  2  3  1  0  0  0  0
  3  4  2  0  0  0  0
  3 30  1  0  0  0  0
  4  5  1  0  0  0  0
  5  6  1  0  0  0  0
  6  7  1  0  0  0  0
  6 31  1  0  0  0  0
  6 32  1  0  0  0  0
  7  8  2  0  0  0  0
  7  9  1  0  0  0  0
  8 12  1  0  0  0  0
  8 33  1  0  0  0  0
  9 10  2  0  0  0  0
  9 34  1  0  0  0  0
 10 11  1  0  0  0  0
 10 35  1  0  0  0  0
 11 12  2  0  0  0  0
 11 36  1  0  0  0  0
 12 13  1  0  0  0  0
 13 14  2  0  0  0  0
 13 15  1  0  0  0  0
 14 18  1  0  0  0  0
 15 16  2  0  0  0  0
 15 37  1  0  0  0  0
 16 17  1  0  0  0  0
 16 38  1  0  0  0  0
 17 18  2  0  0  0  0
 18 19  1  0  0  0  0
 19 20  1  0  0  0  0
 19 39  1  0  0  0  0
 20 21  2  0  0  0  0
 20 22  1  0  0  0  0
 21 25  1  0  0  0  0
 21 40  1  0  0  0  0
 22 23  2  0  0  0  0
 22 41  1  0  0  0  0
 23 24  1  0  0  0  0
 23 42  1  0  0  0  0
 24 25  2  0  0  0  0
 24 43  1  0  0  0  0
 25 26  1  0  0  0  0
 26 27  2  0  0  0  0
 26 28  2  0  0  0  0
M  END
