2c68_ligand
 OpenBabel08222323343D

 38 41  0  0  0  0  0  0  0  0999 V2000
   14.3620   -8.2300    5.3870 Br  0  0  0  0  0  0  0  0  0  0  0  0
   14.0730   -7.4410    7.0900 C   0  0  0  0  0  0  0  0  0  0  0  0
   13.6340   -8.2290    8.1490 C   0  0  0  0  0  0  0  0  0  0  0  0
   13.4350   -7.6580    9.4290 C   0  0  0  0  0  0  0  0  0  0  0  0
   13.6910   -6.2870    9.6370 C   0  0  0  0  0  0  0  0  0  0  0  0
   14.1590   -5.4950    8.5720 C   0  0  0  0  0  0  0  0  0  0  0  0
   14.3450   -6.0700    7.2970 C   0  0  0  0  0  0  0  0  0  0  0  0
   12.9620   -8.5150   10.5510 C   0  0  0  0  0  0  0  0  0  0  0  0
   11.7680   -9.2440   10.4280 C   0  0  0  0  0  0  0  0  0  0  0  0
   11.3510  -10.0490   11.4920 C   0  0  0  0  0  0  0  0  0  0  0  0
   12.1300  -10.1310   12.5920 N   0  0  0  0  0  0  0  0  0  0  0  0
   11.9180  -10.8030   13.7110 N   0  0  0  0  0  0  0  0  0  0  0  0
   12.9550  -10.5240   14.5670 C   0  0  0  0  0  0  0  0  0  0  0  0
   13.2390   -9.4030   12.7030 C   0  0  0  0  0  0  0  0  0  0  0  0
   13.8010   -9.6370   13.9220 C   0  0  0  0  0  0  0  0  0  0  0  0
   13.6800   -8.6010   11.6850 N   0  0  0  0  0  0  0  0  0  0  0  0
   10.1510  -10.8060   11.4040 N   0  0  0  0  0  0  0  0  0  0  0  0
    9.0250  -10.3210   10.5990 C   0  0  0  0  0  0  0  0  0  0  0  0
    8.7780  -11.2930    9.4560 C   0  0  0  0  0  0  0  0  0  0  0  0
    9.0010  -12.6530    9.6390 C   0  0  0  0  0  0  0  0  0  0  0  0
    8.8010  -13.5380    8.5750 C   0  0  0  0  0  0  0  0  0  0  0  0
    8.3780  -13.0750    7.3670 N   0  0  0  0  0  0  0  0  0  0  0  0
    8.1380  -11.7330    7.1800 C   0  0  0  0  0  0  0  0  0  0  0  0
    8.3390  -10.8290    8.2230 C   0  0  0  0  0  0  0  0  0  0  0  0
   13.4435   -9.2847    7.9934 H   0  0  0  0  0  0  0  0  0  0  0  0
   13.5280   -5.8449   10.6132 H   0  0  0  0  0  0  0  0  0  0  0  0
   14.3762   -4.4449    8.7309 H   0  0  0  0  0  0  0  0  0  0  0  0
   14.6974   -5.4585    6.4743 H   0  0  0  0  0  0  0  0  0  0  0  0
   11.1753   -9.1830    9.5165 H   0  0  0  0  0  0  0  0  0  0  0  0
   13.0879  -10.9267   15.5700 H   0  0  0  0  0  0  0  0  0  0  0  0
   14.7262   -9.2133   14.3099 H   0  0  0  0  0  0  0  0  0  0  0  0
   10.0718  -11.7004   11.9086 H   0  0  0  0  0  0  0  0  0  0  0  0
    9.2634   -9.3270   10.1926 H   0  0  0  0  0  0  0  0  0  0  0  0
    8.1245  -10.2541   11.2271 H   0  0  0  0  0  0  0  0  0  0  0  0
    9.3286  -13.0259   10.6027 H   0  0  0  0  0  0  0  0  0  0  0  0
    8.9837  -14.5976    8.7129 H   0  0  0  0  0  0  0  0  0  0  0  0
    7.7909  -11.3765    6.2170 H   0  0  0  0  0  0  0  0  0  0  0  0
    8.1538   -9.7716    8.0721 H   0  0  0  0  0  0  0  0  0  0  0  0
  1  2  1  0  0  0  0
  2  3  2  0  0  0  0
  2  7  1  0  0  0  0
  3  4  1  0  0  0  0
  3 25  1  0  0  0  0
  4  5  2  0  0  0  0
  4  8  1  0  0  0  0
  5  6  1  0  0  0  0
  5 26  1  0  0  0  0
  6  7  2  0  0  0  0
  6 27  1  0  0  0  0
  7 28  1  0  0  0  0
  8  9  1  0  0  0  0
  8 16  2  0  0  0  0
  9 10  2  0  0  0  0
  9 29  1  0  0  0  0
 10 11  1  0  0  0  0
 10 17  1  0  0  0  0
 11 12  1  0  0  0  0
 11 14  1  0  0  0  0
 12 13  2  0  0  0  0
 13 15  1  0  0  0  0
 13 30  1  0  0  0  0
 14 15  2  0  0  0  0
 14 16  1  0  0  0  0
 15 31  1  0  0  0  0
 17 18  1  0  0  0  0
 17 32  1  0  0  0  0
 18 19  1  0  0  0  0
 18 33  1  0  0  0  0
 18 34  1  0  0  0  0
 19 20  2  0  0  0  0
 19 24  1  0  0  0  0
 20 21  1  0  0  0  0
 20 35  1  0  0  0  0
 21 22  2  0  0  0  0
 21 36  1  0  0  0  0
 22 23  1  0  0  0  0
 23 24  2  0  0  0  0
 23 37  1  0  0  0  0
 24 38  1  0  0  0  0
M  END
