2c6k_ligand
 OpenBabel08222323343D

 48 51  0  0  0  0  0  0  0  0999 V2000
    6.2400  -12.0470    6.8590 O   0  0  0  0  0  0  0  0  0  0  0  0
    6.6560  -10.7510    7.1710 S   0  0  0  0  0  0  0  0  0  0  0  0
    5.6040   -9.9930    7.6480 O   0  0  0  0  0  0  0  0  0  0  0  0
    7.3480  -10.0780    5.9650 N   0  0  0  0  0  0  0  0  0  0  0  0
    7.8480  -10.8850    8.4680 C   0  0  0  0  0  0  0  0  0  0  0  0
    8.1500  -12.1350    8.9940 C   0  0  0  0  0  0  0  0  0  0  0  0
    9.0900  -12.2590   10.0120 C   0  0  0  0  0  0  0  0  0  0  0  0
    9.7400  -11.1250   10.5040 C   0  0  0  0  0  0  0  0  0  0  0  0
    9.4240   -9.8540    9.9880 C   0  0  0  0  0  0  0  0  0  0  0  0
    8.4900   -9.7390    8.9600 C   0  0  0  0  0  0  0  0  0  0  0  0
   10.6320  -11.2550   11.5140 N   0  0  0  0  0  0  0  0  0  0  0  0
   11.7190  -10.4320   11.6290 C   0  0  0  0  0  0  0  0  0  0  0  0
   12.3240  -10.2990   12.8200 N   0  0  0  0  0  0  0  0  0  0  0  0
   12.0180  -10.8720   13.9780 N   0  0  0  0  0  0  0  0  0  0  0  0
   12.9080  -10.4240   14.8910 C   0  0  0  0  0  0  0  0  0  0  0  0
   13.3940   -9.5500   12.9720 C   0  0  0  0  0  0  0  0  0  0  0  0
   13.7700   -9.5820   14.2460 N   0  0  0  0  0  0  0  0  0  0  0  0
   13.9080   -8.8230   11.9530 N   0  0  0  0  0  0  0  0  0  0  0  0
   13.3660   -8.9130   10.7180 C   0  0  0  0  0  0  0  0  0  0  0  0
   12.2450   -9.7420   10.5180 C   0  0  0  0  0  0  0  0  0  0  0  0
   13.9630   -8.2450    9.6750 N   0  0  0  0  0  0  0  0  0  0  0  0
   13.2340   -7.8600    8.4730 C   0  0  0  0  0  0  0  0  0  0  0  0
   13.3010   -9.0800    7.5620 C   0  0  0  0  0  0  0  0  0  0  0  0
   12.7350   -8.7230    6.1900 C   0  0  0  0  0  0  0  0  0  0  0  0
   13.5550   -7.5900    5.5790 C   0  0  0  0  0  0  0  0  0  0  0  0
   13.4940   -6.3680    6.4910 C   0  0  0  0  0  0  0  0  0  0  0  0
   14.0570   -6.7270    7.8630 C   0  0  0  0  0  0  0  0  0  0  0  0
    8.1270  -10.5230    5.5232 H   0  0  0  0  0  0  0  0  0  0  0  0
    7.0170   -9.1973    5.6261 H   0  0  0  0  0  0  0  0  0  0  0  0
    7.6511  -13.0173    8.6096 H   0  0  0  0  0  0  0  0  0  0  0  0
    9.3179  -13.2357   10.4233 H   0  0  0  0  0  0  0  0  0  0  0  0
    9.9049   -8.9688   10.3884 H   0  0  0  0  0  0  0  0  0  0  0  0
    8.2601   -8.7658    8.5415 H   0  0  0  0  0  0  0  0  0  0  0  0
   10.4883  -11.9948   12.2161 H   0  0  0  0  0  0  0  0  0  0  0  0
   12.9337  -10.6860   15.9477 H   0  0  0  0  0  0  0  0  0  0  0  0
   11.7965   -9.8471    9.5312 H   0  0  0  0  0  0  0  0  0  0  0  0
   14.9628   -8.0078    9.7457 H   0  0  0  0  0  0  0  0  0  0  0  0
   12.1975   -7.5543    8.6784 H   0  0  0  0  0  0  0  0  0  0  0  0
   12.7105   -9.8979    8.0006 H   0  0  0  0  0  0  0  0  0  0  0  0
   14.3478   -9.4002    7.4546 H   0  0  0  0  0  0  0  0  0  0  0  0
   11.6887   -8.4012    6.2977 H   0  0  0  0  0  0  0  0  0  0  0  0
   12.7819   -9.6044    5.5336 H   0  0  0  0  0  0  0  0  0  0  0  0
   13.1444   -7.3314    4.5918 H   0  0  0  0  0  0  0  0  0  0  0  0
   14.6007   -7.9128    5.4682 H   0  0  0  0  0  0  0  0  0  0  0  0
   12.4488   -6.0422    6.5977 H   0  0  0  0  0  0  0  0  0  0  0  0
   14.0891   -5.5534    6.0525 H   0  0  0  0  0  0  0  0  0  0  0  0
   15.1030   -7.0503    7.7565 H   0  0  0  0  0  0  0  0  0  0  0  0
   14.0107   -5.8459    8.5199 H   0  0  0  0  0  0  0  0  0  0  0  0
  1  2  2  0  0  0  0
  2  3  2  0  0  0  0
  2  4  1  0  0  0  0
  2  5  1  0  0  0  0
  4 28  1  0  0  0  0
  4 29  1  0  0  0  0
  5  6  2  0  0  0  0
  5 10  1  0  0  0  0
  6  7  1  0  0  0  0
  6 30  1  0  0  0  0
  7  8  2  0  0  0  0
  7 31  1  0  0  0  0
  8  9  1  0  0  0  0
  8 11  1  0  0  0  0
  9 10  2  0  0  0  0
  9 32  1  0  0  0  0
 10 33  1  0  0  0  0
 11 12  1  0  0  0  0
 11 34  1  0  0  0  0
 12 13  1  0  0  0  0
 12 20  2  0  0  0  0
 13 14  1  0  0  0  0
 13 16  1  0  0  0  0
 14 15  2  0  0  0  0
 15 17  1  0  0  0  0
 15 35  1  0  0  0  0
 16 17  2  0  0  0  0
 16 18  1  0  0  0  0
 18 19  2  0  0  0  0
 19 20  1  0  0  0  0
 19 21  1  0  0  0  0
 20 36  1  0  0  0  0
 21 22  1  0  0  0  0
 21 37  1  0  0  0  0
 22 23  1  0  0  0  0
 22 27  1  0  0  0  0
 22 38  1  0  0  0  0
 23 24  1  0  0  0  0
 23 39  1  0  0  0  0
 23 40  1  0  0  0  0
 24 25  1  0  0  0  0
 24 41  1  0  0  0  0
 24 42  1  0  0  0  0
 25 26  1  0  0  0  0
 25 43  1  0  0  0  0
 25 44  1  0  0  0  0
 26 27  1  0  0  0  0
 26 45  1  0  0  0  0
 26 46  1  0  0  0  0
 27 47  1  0  0  0  0
 27 48  1  0  0  0  0
M  END
