2c6l_ligand
 OpenBabel08222323343D

 52 55  0  0  1  0  0  0  0  0999 V2000
    5.8780  -12.0370    6.8320 O   0  0  0  0  0  0  0  0  0  0  0  0
    6.4730  -10.8020    7.0150 S   0  0  0  0  0  0  0  0  0  0  0  0
    5.5680   -9.8720    7.4710 O   0  0  0  0  0  0  0  0  0  0  0  0
    7.1820  -10.3250    5.7270 N   0  0  0  0  0  0  0  0  0  0  0  0
    7.7030  -10.9970    8.2720 C   0  0  0  0  0  0  0  0  0  0  0  0
    8.0150  -12.2700    8.7390 C   0  0  0  0  0  0  0  0  0  0  0  0
    8.9590  -12.4360    9.7320 C   0  0  0  0  0  0  0  0  0  0  0  0
    9.6070  -11.3230   10.2760 C   0  0  0  0  0  0  0  0  0  0  0  0
    9.2790  -10.0330    9.8280 C   0  0  0  0  0  0  0  0  0  0  0  0
    8.3340   -9.8720    8.8190 C   0  0  0  0  0  0  0  0  0  0  0  0
   10.5080  -11.4970   11.2850 N   0  0  0  0  0  0  0  0  0  0  0  0
   11.6070  -10.7240   11.3800 C   0  0  1  0  0  3  0  0  0  0  0  0
   12.2050  -10.5550   12.5570 N   0  0  0  0  0  0  0  0  0  0  0  0
   11.8770  -11.0470   13.7320 N   0  0  0  0  0  0  0  0  0  0  0  0
   12.7900  -10.5820   14.6340 C   0  0  0  0  0  0  0  0  0  0  0  0
   13.2850   -9.8110   12.6790 C   0  0  0  0  0  0  0  0  0  0  0  0
   13.6730   -9.8060   13.9580 N   0  0  0  0  0  0  0  0  0  0  0  0
   13.8370   -9.1820   11.6190 N   0  0  0  0  0  0  0  0  0  0  0  0
   13.2530   -9.3030   10.3950 C   0  0  0  0  0  0  0  0  0  0  0  0
   12.1390  -10.1100   10.2550 C   0  0  0  0  0  0  0  0  0  0  0  0
   13.8370   -8.7680    9.3050 N   0  0  0  0  0  0  0  0  0  0  0  0
   13.7310   -7.3600    8.9880 C   0  0  2  0  0  0  0  0  0  0  0  0
   14.4750   -7.2050    7.6630 C   0  0  0  0  0  0  0  0  0  0  0  0
   14.6010   -5.7250    7.3210 C   0  0  0  0  0  0  0  0  0  0  0  0
   15.3790   -5.0150    8.4210 C   0  0  1  0  0  0  0  0  0  0  0  0
   15.5140   -3.5880    8.0860 N   0  3  0  0  0  0  0  0  0  0  0  0
   14.6350   -5.1620    9.7460 C   0  0  0  0  0  0  0  0  0  0  0  0
   14.5020   -6.6430   10.0950 C   0  0  0  0  0  0  0  0  0  0  0  0
    7.8666  -10.9071    5.2883 H   0  0  0  0  0  0  0  0  0  0  0  0
    6.9561   -9.4343    5.3324 H   0  0  0  0  0  0  0  0  0  0  0  0
    7.5142  -13.1356    8.3208 H   0  0  0  0  0  0  0  0  0  0  0  0
    9.1983  -13.4306   10.0906 H   0  0  0  0  0  0  0  0  0  0  0  0
    9.7600   -9.1661   10.2664 H   0  0  0  0  0  0  0  0  0  0  0  0
    8.0872   -8.8802    8.4578 H   0  0  0  0  0  0  0  0  0  0  0  0
   10.3451  -12.2328   11.9871 H   0  0  0  0  0  0  0  0  0  0  0  0
   11.0799  -11.6674   13.9338 H   0  0  0  0  0  0  0  0  0  0  0  0
   12.8063  -10.7953   15.7018 H   0  0  0  0  0  0  0  0  0  0  0  0
   11.6879  -10.2608    9.2809 H   0  0  0  0  0  0  0  0  0  0  0  0
   14.3763   -9.3810    8.6771 H   0  0  0  0  0  0  0  0  0  0  0  0
   12.6897   -7.0122    8.9202 H   0  0  0  0  0  0  0  0  0  0  0  0
   13.9167   -7.7190    6.8667 H   0  0  0  0  0  0  0  0  0  0  0  0
   15.4782   -7.6474    7.7518 H   0  0  0  0  0  0  0  0  0  0  0  0
   13.5980   -5.2814    7.2363 H   0  0  0  0  0  0  0  0  0  0  0  0
   15.1332   -5.6135    6.3648 H   0  0  0  0  0  0  0  0  0  0  0  0
   16.3786   -5.4652    8.5112 H   0  0  0  0  0  0  0  0  0  0  0  0
   16.0290   -3.1191    8.8147 H   0  0  0  0  0  0  0  0  0  0  0  0
   14.5986   -3.1745    8.0022 H   0  0  0  0  0  0  0  0  0  0  0  0
   16.0069   -3.4932    7.2119 H   0  0  0  0  0  0  0  0  0  0  0  0
   13.6338   -4.7155    9.6556 H   0  0  0  0  0  0  0  0  0  0  0  0
   15.1957   -4.6473   10.5402 H   0  0  0  0  0  0  0  0  0  0  0  0
   15.5032   -7.0881   10.1920 H   0  0  0  0  0  0  0  0  0  0  0  0
   13.9602   -6.7482   11.0465 H   0  0  0  0  0  0  0  0  0  0  0  0
  1  2  2  0  0  0  0
  2  3  2  0  0  0  0
  2  4  1  0  0  0  0
  2  5  1  0  0  0  0
  4 29  1  0  0  0  0
  4 30  1  0  0  0  0
  5  6  2  0  0  0  0
  5 10  1  0  0  0  0
  6  7  1  0  0  0  0
  6 31  1  0  0  0  0
  7  8  2  0  0  0  0
  7 32  1  0  0  0  0
  8  9  1  0  0  0  0
  8 11  1  0  0  0  0
  9 10  2  0  0  0  0
  9 33  1  0  0  0  0
 10 34  1  0  0  0  0
 11 35  1  0  0  0  0
 12 11  1  6  0  0  0
 12 13  1  0  0  0  0
 12 20  1  0  0  0  0
 13 14  1  0  0  0  0
 13 16  1  0  0  0  0
 14 15  1  0  0  0  0
 14 36  1  0  0  0  0
 15 17  2  0  0  0  0
 15 37  1  0  0  0  0
 16 17  1  0  0  0  0
 16 18  2  0  0  0  0
 18 19  1  0  0  0  0
 19 20  2  0  0  0  0
 19 21  1  0  0  0  0
 20 38  1  0  0  0  0
 21 22  1  0  0  0  0
 21 39  1  0  0  0  0
 22 23  1  0  0  0  0
 22 28  1  0  0  0  0
 22 40  1  6  0  0  0
 23 24  1  0  0  0  0
 23 41  1  0  0  0  0
 23 42  1  0  0  0  0
 24 25  1  0  0  0  0
 24 43  1  0  0  0  0
 24 44  1  0  0  0  0
 25 26  1  0  0  0  0
 25 27  1  0  0  0  0
 25 45  1  1  0  0  0
 26 46  1  0  0  0  0
 26 47  1  0  0  0  0
 26 48  1  0  0  0  0
 27 28  1  0  0  0  0
 27 49  1  0  0  0  0
 27 50  1  0  0  0  0
 28 51  1  0  0  0  0
 28 52  1  0  0  0  0
M  CHG  1  26   1
M  END
