2c8y_ligand
 OpenBabel08222323343D

 49 51  0  0  1  0  0  0  0  0999 V2000
    7.8290   21.3060   51.8100 N   0  3  0  0  0  0  0  0  0  0  0  0
    6.5520   20.7070   51.4020 C   0  0  1  0  0  0  0  0  0  0  0  0
    5.5980   21.8240   51.0070 C   0  0  0  0  0  0  0  0  0  0  0  0
    4.1400   21.4720   51.1780 C   0  0  0  0  0  0  0  0  0  0  0  0
    3.2480   21.7580   50.1590 C   0  0  0  0  0  0  0  0  0  0  0  0
    1.9090   21.4360   50.3080 C   0  0  0  0  0  0  0  0  0  0  0  0
    1.4470   20.8490   51.4720 C   0  0  0  0  0  0  0  0  0  0  0  0
    2.3350   20.5700   52.4840 C   0  0  0  0  0  0  0  0  0  0  0  0
    3.6700   20.8980   52.3560 C   0  0  0  0  0  0  0  0  0  0  0  0
    6.8550   19.8610   50.1830 C   0  0  2  0  0  0  0  0  0  0  0  0
    7.2100   20.6720   49.0570 O   0  0  0  0  0  0  0  0  0  0  0  0
    5.5920   19.1030   49.8010 C   0  0  0  0  0  0  0  0  0  0  0  0
    6.0100   18.1070   48.8150 N   0  0  0  0  0  0  0  0  0  0  0  0
    4.8770   17.0970   48.1920 S   0  0  0  0  0  0  0  0  0  0  0  0
    5.5170   16.4420   47.1000 O   0  0  0  0  0  0  0  0  0  0  0  0
    4.3790   16.4480   49.3550 O   0  0  0  0  0  0  0  0  0  0  0  0
    3.5760   18.0140   47.4150 C   0  0  0  0  0  0  0  0  0  0  0  0
    3.8680   18.6480   46.1920 C   0  0  0  0  0  0  0  0  0  0  0  0
    2.9430   19.3900   45.4940 C   0  0  0  0  0  0  0  0  0  0  0  0
    1.6450   19.5130   46.0280 C   0  0  0  0  0  0  0  0  0  0  0  0
    0.6610   20.2400   45.3460 C   0  0  0  0  0  0  0  0  0  0  0  0
   -0.5900   20.3330   45.8960 C   0  0  0  0  0  0  0  0  0  0  0  0
   -0.9090   19.7170   47.1070 C   0  0  0  0  0  0  0  0  0  0  0  0
    0.0310   18.9980   47.7880 C   0  0  0  0  0  0  0  0  0  0  0  0
    1.3310   18.8720   47.2810 C   0  0  0  0  0  0  0  0  0  0  0  0
    2.3210   18.1160   47.9720 C   0  0  0  0  0  0  0  0  0  0  0  0
    7.6845   21.8837   52.6233 H   0  0  0  0  0  0  0  0  0  0  0  0
    8.1912   21.8701   51.0573 H   0  0  0  0  0  0  0  0  0  0  0  0
    8.4879   20.5755   52.0296 H   0  0  0  0  0  0  0  0  0  0  0  0
    6.1217   20.0975   52.2103 H   0  0  0  0  0  0  0  0  0  0  0  0
    5.7729   22.0711   49.9495 H   0  0  0  0  0  0  0  0  0  0  0  0
    5.8174   22.7035   51.6302 H   0  0  0  0  0  0  0  0  0  0  0  0
    3.5958   22.2319   49.2482 H   0  0  0  0  0  0  0  0  0  0  0  0
    1.2148   21.6466   49.5025 H   0  0  0  0  0  0  0  0  0  0  0  0
    0.3955   20.6113   51.5853 H   0  0  0  0  0  0  0  0  0  0  0  0
    1.9841   20.0886   53.3897 H   0  0  0  0  0  0  0  0  0  0  0  0
    4.3541   20.7080   53.1751 H   0  0  0  0  0  0  0  0  0  0  0  0
    7.6714   19.1605   50.4127 H   0  0  0  0  0  0  0  0  0  0  0  0
    7.3935   20.1132   48.3109 H   0  0  0  0  0  0  0  0  0  0  0  0
    4.8512   19.7883   49.3633 H   0  0  0  0  0  0  0  0  0  0  0  0
    5.1589   18.6101   50.6839 H   0  0  0  0  0  0  0  0  0  0  0  0
    6.9654   18.0430   48.5268 H   0  0  0  0  0  0  0  0  0  0  0  0
    4.8664   18.5470   45.7820 H   0  0  0  0  0  0  0  0  0  0  0  0
    3.2062   19.8677   44.5572 H   0  0  0  0  0  0  0  0  0  0  0  0
    0.8854   20.7202   44.4004 H   0  0  0  0  0  0  0  0  0  0  0  0
   -1.3533   20.9007   45.3763 H   0  0  0  0  0  0  0  0  0  0  0  0
   -1.9109   19.8101   47.5101 H   0  0  0  0  0  0  0  0  0  0  0  0
   -0.2300   18.5220   48.7263 H   0  0  0  0  0  0  0  0  0  0  0  0
    2.0916   17.6322   48.9145 H   0  0  0  0  0  0  0  0  0  0  0  0
  1  2  1  0  0  0  0
  1 27  1  0  0  0  0
  1 28  1  0  0  0  0
  1 29  1  0  0  0  0
  2  3  1  0  0  0  0
  2 10  1  0  0  0  0
  2 30  1  1  0  0  0
  3  4  1  0  0  0  0
  3 31  1  0  0  0  0
  3 32  1  0  0  0  0
  4  5  2  0  0  0  0
  4  9  1  0  0  0  0
  5  6  1  0  0  0  0
  5 33  1  0  0  0  0
  6  7  2  0  0  0  0
  6 34  1  0  0  0  0
  7  8  1  0  0  0  0
  7 35  1  0  0  0  0
  8  9  2  0  0  0  0
  8 36  1  0  0  0  0
  9 37  1  0  0  0  0
 10 11  1  0  0  0  0
 10 12  1  0  0  0  0
 10 38  1  1  0  0  0
 11 39  1  0  0  0  0
 12 13  1  0  0  0  0
 12 40  1  0  0  0  0
 12 41  1  0  0  0  0
 13 14  1  0  0  0  0
 13 42  1  0  0  0  0
 14 15  2  0  0  0  0
 14 16  2  0  0  0  0
 14 17  1  0  0  0  0
 17 18  2  0  0  0  0
 17 26  1  0  0  0  0
 18 19  1  0  0  0  0
 18 43  1  0  0  0  0
 19 20  2  0  0  0  0
 19 44  1  0  0  0  0
 20 21  1  0  0  0  0
 20 25  1  0  0  0  0
 21 22  2  0  0  0  0
 21 45  1  0  0  0  0
 22 23  1  0  0  0  0
 22 46  1  0  0  0  0
 23 24  2  0  0  0  0
 23 47  1  0  0  0  0
 24 25  1  0  0  0  0
 24 48  1  0  0  0  0
 25 26  2  0  0  0  0
 26 49  1  0  0  0  0
M  CHG  1   1   1
M  END
