2cbs_ligand
 OpenBabel08222323343D

 54 55  0  0  0  0  0  0  0  0999 V2000
   22.0320   30.5980   16.0950 C   0  0  0  0  0  0  0  0  0  0  0  0
   21.0690   31.2690   15.0880 C   0  0  0  0  0  0  0  0  0  0  0  0
   20.4100   30.2440   14.1100 C   0  0  0  0  0  0  0  0  0  0  0  0
   19.5380   29.1960   14.8440 C   0  0  0  0  0  0  0  0  0  0  0  0
   20.2690   28.6070   16.1040 C   0  0  0  0  0  0  0  0  0  0  0  0
   19.7760   27.4010   16.7060 C   0  0  0  0  0  0  0  0  0  0  0  0
   20.4030   26.8550   17.8480 C   0  0  0  0  0  0  0  0  0  0  0  0
   21.5450   27.4930   18.4030 C   0  0  0  0  0  0  0  0  0  0  0  0
   22.0610   28.6780   17.8210 C   0  0  0  0  0  0  0  0  0  0  0  0
   21.4400   29.2640   16.6850 C   0  0  0  0  0  0  0  0  0  0  0  0
   22.2470   26.9180   19.6740 C   0  0  0  0  0  0  0  0  0  0  0  0
   21.6600   25.8630   20.3090 C   0  0  0  0  0  0  0  0  0  0  0  0
   22.1540   25.3030   21.4780 C   0  0  0  0  0  0  0  0  0  0  0  0
   21.4580   24.2850   22.1120 C   0  0  0  0  0  0  0  0  0  0  0  0
   21.9040   23.7090   23.3140 C   0  0  0  0  0  0  0  0  0  0  0  0
   21.1190   22.7080   23.9000 C   0  0  0  0  0  0  0  0  0  0  0  0
   21.3750   21.9950   25.1620 C   0  0  0  0  0  0  0  0  0  0  0  0
   18.2110   29.8240   15.2730 C   0  0  0  0  0  0  0  0  0  0  0  0
   19.2060   28.0870   13.8430 C   0  0  0  0  0  0  0  0  0  0  0  0
   22.2800   31.6070   17.2230 C   0  0  0  0  0  0  0  0  0  0  0  0
   23.3810   30.3210   15.4280 C   0  0  0  0  0  0  0  0  0  0  0  0
   23.5570   27.5550   20.1970 C   0  0  0  0  0  0  0  0  0  0  0  0
   23.2240   24.1810   23.9910 C   0  0  0  0  0  0  0  0  0  0  0  0
   22.4180   21.3230   25.2820 O   0  5  0  0  0  0  0  0  0  0  0  0
   20.5490   22.0950   26.0900 O   0  0  0  0  0  0  0  0  0  0  0  0
   21.6340   32.0054   14.4978 H   0  0  0  0  0  0  0  0  0  0  0  0
   20.2737   31.7813   15.6493 H   0  0  0  0  0  0  0  0  0  0  0  0
   21.2058   29.7183   13.5619 H   0  0  0  0  0  0  0  0  0  0  0  0
   19.7761   30.7935   13.3985 H   0  0  0  0  0  0  0  0  0  0  0  0
   18.9126   26.9034   16.2794 H   0  0  0  0  0  0  0  0  0  0  0  0
   20.0134   25.9503   18.3005 H   0  0  0  0  0  0  0  0  0  0  0  0
   22.9416   29.1437   18.2484 H   0  0  0  0  0  0  0  0  0  0  0  0
   20.7560   25.4380   19.8754 H   0  0  0  0  0  0  0  0  0  0  0  0
   23.0912   25.6639   21.8991 H   0  0  0  0  0  0  0  0  0  0  0  0
   20.5352   23.9197   21.6637 H   0  0  0  0  0  0  0  0  0  0  0  0
   20.2164   22.4249   23.3605 H   0  0  0  0  0  0  0  0  0  0  0  0
   17.6002   29.0712   15.7929 H   0  0  0  0  0  0  0  0  0  0  0  0
   17.6714   30.1839   14.3846 H   0  0  0  0  0  0  0  0  0  0  0  0
   18.4069   30.6685   15.9501 H   0  0  0  0  0  0  0  0  0  0  0  0
   20.1364   27.6061   13.5067 H   0  0  0  0  0  0  0  0  0  0  0  0
   18.6829   28.5191   12.9772 H   0  0  0  0  0  0  0  0  0  0  0  0
   18.5602   27.3387   14.3256 H   0  0  0  0  0  0  0  0  0  0  0  0
   22.9634   31.1674   17.9645 H   0  0  0  0  0  0  0  0  0  0  0  0
   21.3248   31.8572   17.7078 H   0  0  0  0  0  0  0  0  0  0  0  0
   22.7298   32.5201   16.8059 H   0  0  0  0  0  0  0  0  0  0  0  0
   24.0573   29.8442   16.1527 H   0  0  0  0  0  0  0  0  0  0  0  0
   23.8214   31.2685   15.0840 H   0  0  0  0  0  0  0  0  0  0  0  0
   23.2341   29.6512   14.5679 H   0  0  0  0  0  0  0  0  0  0  0  0
   23.8500   28.3850   19.5373 H   0  0  0  0  0  0  0  0  0  0  0  0
   24.3541   26.7971   20.2087 H   0  0  0  0  0  0  0  0  0  0  0  0
   23.3980   27.9357   21.2167 H   0  0  0  0  0  0  0  0  0  0  0  0
   23.6893   24.9674   23.3786 H   0  0  0  0  0  0  0  0  0  0  0  0
   23.9147   23.3297   24.0810 H   0  0  0  0  0  0  0  0  0  0  0  0
   23.0008   24.5795   24.9917 H   0  0  0  0  0  0  0  0  0  0  0  0
  1 21  1  0  0  0  0
  1 20  1  0  0  0  0
  1 10  1  0  0  0  0
  1  2  1  0  0  0  0
  2  3  1  0  0  0  0
  2 26  1  0  0  0  0
  2 27  1  0  0  0  0
  3  4  1  0  0  0  0
  3 28  1  0  0  0  0
  3 29  1  0  0  0  0
  4 19  1  0  0  0  0
  4 18  1  0  0  0  0
  4  5  1  0  0  0  0
  5 10  2  0  0  0  0
  5  6  1  0  0  0  0
  6  7  2  0  0  0  0
  6 30  1  0  0  0  0
  7  8  1  0  0  0  0
  7 31  1  0  0  0  0
  8 11  1  0  0  0  0
  8  9  2  0  0  0  0
  9 10  1  0  0  0  0
  9 32  1  0  0  0  0
 11 22  1  0  0  0  0
 11 12  2  0  0  0  0
 12 13  1  0  0  0  0
 12 33  1  0  0  0  0
 13 14  2  0  0  0  0
 13 34  1  0  0  0  0
 14 15  1  0  0  0  0
 14 35  1  0  0  0  0
 15 23  1  0  0  0  0
 15 16  2  0  0  0  0
 16 17  1  0  0  0  0
 16 36  1  0  0  0  0
 17 25  2  0  0  0  0
 17 24  1  0  0  0  0
 18 37  1  0  0  0  0
 18 38  1  0  0  0  0
 18 39  1  0  0  0  0
 19 40  1  0  0  0  0
 19 41  1  0  0  0  0
 19 42  1  0  0  0  0
 20 43  1  0  0  0  0
 20 44  1  0  0  0  0
 20 45  1  0  0  0  0
 21 46  1  0  0  0  0
 21 47  1  0  0  0  0
 21 48  1  0  0  0  0
 22 49  1  0  0  0  0
 22 50  1  0  0  0  0
 22 51  1  0  0  0  0
 23 52  1  0  0  0  0
 23 53  1  0  0  0  0
 23 54  1  0  0  0  0
M  CHG  1  24  -1
M  END
