2cbu_ligand
 OpenBabel08222323343D

 29 30  0  0  1  0  0  0  0  0999 V2000
   -0.5070   10.8440   10.6270 C   0  0  0  0  0  0  0  0  0  0  0  0
    0.3330   11.6930    9.6800 C   0  0  1  0  0  0  0  0  0  0  0  0
   -0.2730   11.9170    8.2970 C   0  0  2  0  0  0  0  0  0  0  0  0
   -1.0850   10.6940    7.8910 C   0  0  1  0  0  0  0  0  0  0  0  0
   -2.3280   10.6590    8.7820 C   0  0  1  0  0  0  0  0  0  0  0  0
   -3.1010    9.3570    8.7240 C   0  0  1  0  0  0  0  0  0  0  0  0
    0.5420   12.9510   10.3040 O   0  0  0  0  0  0  0  0  0  0  0  0
    0.8230   12.2310    7.4310 O   0  0  0  0  0  0  0  0  0  0  0  0
   -1.5210   10.8180    6.5390 O   0  0  0  0  0  0  0  0  0  0  0  0
   -2.2500    8.1960    8.8240 O   0  0  0  0  0  0  0  0  0  0  0  0
   -1.8710   10.5690   10.1820 N   0  3  1  0  0  0  0  0  0  0  0  0
   -3.8450    9.3820   10.0520 C   0  0  0  0  0  0  0  0  0  0  0  0
   -2.8230    9.8740   11.0510 C   0  0  0  0  0  0  0  0  0  0  0  0
   -0.5646   11.3688   11.5920 H   0  0  0  0  0  0  0  0  0  0  0  0
    0.0057    9.8804   10.7636 H   0  0  0  0  0  0  0  0  0  0  0  0
    1.3022   11.1911    9.5431 H   0  0  0  0  0  0  0  0  0  0  0  0
   -0.9543   12.7801    8.3265 H   0  0  0  0  0  0  0  0  0  0  0  0
   -0.4875    9.7789    8.0160 H   0  0  0  0  0  0  0  0  0  0  0  0
   -2.9676   11.5312    8.5817 H   0  0  0  0  0  0  0  0  0  0  0  0
   -3.7583    9.3043    7.8436 H   0  0  0  0  0  0  0  0  0  0  0  0
    0.9192   12.8171   11.1656 H   0  0  0  0  0  0  0  0  0  0  0  0
    0.4951   12.4000    6.5556 H   0  0  0  0  0  0  0  0  0  0  0  0
   -0.7648   10.8419    5.9645 H   0  0  0  0  0  0  0  0  0  0  0  0
   -2.7822    7.4102    8.7825 H   0  0  0  0  0  0  0  0  0  0  0  0
   -2.1890   11.4941   10.4251 H   0  0  0  0  0  0  0  0  0  0  0  0
   -4.1962    8.3745   10.3197 H   0  0  0  0  0  0  0  0  0  0  0  0
   -4.7030   10.0686   10.0038 H   0  0  0  0  0  0  0  0  0  0  0  0
   -3.2747   10.5610   11.7817 H   0  0  0  0  0  0  0  0  0  0  0  0
   -2.3451    9.0371   11.5813 H   0  0  0  0  0  0  0  0  0  0  0  0
  1  2  1  0  0  0  0
  1 11  1  0  0  0  0
  1 14  1  0  0  0  0
  1 15  1  0  0  0  0
  2  3  1  0  0  0  0
  2  7  1  0  0  0  0
  2 16  1  6  0  0  0
  3  4  1  0  0  0  0
  3  8  1  0  0  0  0
  3 17  1  1  0  0  0
  4  5  1  0  0  0  0
  4  9  1  0  0  0  0
  4 18  1  1  0  0  0
  5  6  1  0  0  0  0
  5 11  1  0  0  0  0
  5 19  1  6  0  0  0
  6 10  1  0  0  0  0
  6 12  1  0  0  0  0
  6 20  1  6  0  0  0
  7 21  1  0  0  0  0
  8 22  1  0  0  0  0
  9 23  1  0  0  0  0
 10 24  1  0  0  0  0
 11 13  1  0  0  0  0
 11 25  1  1  0  0  0
 12 13  1  0  0  0  0
 12 26  1  0  0  0  0
 12 27  1  0  0  0  0
 13 28  1  0  0  0  0
 13 29  1  0  0  0  0
M  CHG  1  11   1
M  END
