2ccs_ligand
 OpenBabel08222323343D

 36 38  0  0  0  0  0  0  0  0999 V2000
   33.4180   12.4120   23.0680 Cl  0  0  0  0  0  0  0  0  0  0  0  0
   31.8580   11.7320   23.5930 C   0  0  0  0  0  0  0  0  0  0  0  0
   30.7280   11.9710   22.8700 C   0  0  0  0  0  0  0  0  0  0  0  0
   30.8540   12.7170   21.6860 O   0  0  0  0  0  0  0  0  0  0  0  0
   29.4780   11.4760   23.2290 C   0  0  0  0  0  0  0  0  0  0  0  0
   29.4140   10.7440   24.4030 C   0  0  0  0  0  0  0  0  0  0  0  0
   28.1680   10.2570   24.8080 O   0  0  0  0  0  0  0  0  0  0  0  0
   31.8220   10.9560   24.7300 C   0  0  0  0  0  0  0  0  0  0  0  0
   30.5660   10.4780   25.1420 C   0  0  0  0  0  0  0  0  0  0  0  0
   30.4910    9.6030   26.3430 C   0  0  0  0  0  0  0  0  0  0  0  0
   29.6900    9.6490   27.3800 N   0  0  0  0  0  0  0  0  0  0  0  0
   29.9620    8.6100   28.1630 N   0  0  0  0  0  0  0  0  0  0  0  0
   30.9230    7.8140   27.6910 C   0  0  0  0  0  0  0  0  0  0  0  0
   31.2860    8.4410   26.4960 C   0  0  0  0  0  0  0  0  0  0  0  0
   32.1990    7.8090   25.6810 N   0  0  0  0  0  0  0  0  0  0  0  0
   31.8170    7.3560   24.3430 C   0  0  0  0  0  0  0  0  0  0  0  0
   32.9930    7.1640   23.3710 C   0  0  0  0  0  0  0  0  0  0  0  0
   33.4830    7.3880   26.2540 C   0  0  0  0  0  0  0  0  0  0  0  0
   34.6030    7.1890   25.2260 C   0  0  0  0  0  0  0  0  0  0  0  0
   34.1340    6.4390   24.0180 N   0  3  0  0  0  0  0  0  0  0  0  0
   30.0002   12.8117   21.2803 H   0  0  0  0  0  0  0  0  0  0  0  0
   28.5988   11.6543   22.6205 H   0  0  0  0  0  0  0  0  0  0  0  0
   27.5719   10.9850   24.9385 H   0  0  0  0  0  0  0  0  0  0  0  0
   32.7243   10.7236   25.2840 H   0  0  0  0  0  0  0  0  0  0  0  0
   28.9731   10.3670   27.5574 H   0  0  0  0  0  0  0  0  0  0  0  0
   31.3251    6.9015   28.1287 H   0  0  0  0  0  0  0  0  0  0  0  0
   31.1332    8.1014   23.9108 H   0  0  0  0  0  0  0  0  0  0  0  0
   31.2943    6.3933   24.4431 H   0  0  0  0  0  0  0  0  0  0  0  0
   33.3427    8.1513   23.0350 H   0  0  0  0  0  0  0  0  0  0  0  0
   32.6473    6.5827   22.5035 H   0  0  0  0  0  0  0  0  0  0  0  0
   33.3279    6.4355   26.7819 H   0  0  0  0  0  0  0  0  0  0  0  0
   33.8076    8.1562   26.9713 H   0  0  0  0  0  0  0  0  0  0  0  0
   35.4210    6.6249   25.6978 H   0  0  0  0  0  0  0  0  0  0  0  0
   34.9727    8.1754   24.9093 H   0  0  0  0  0  0  0  0  0  0  0  0
   34.8935    6.3585   23.3602 H   0  0  0  0  0  0  0  0  0  0  0  0
   33.8300    5.5186   24.2946 H   0  0  0  0  0  0  0  0  0  0  0  0
  1  2  1  0  0  0  0
  2  3  2  0  0  0  0
  2  8  1  0  0  0  0
  3  4  1  0  0  0  0
  3  5  1  0  0  0  0
  4 21  1  0  0  0  0
  5  6  2  0  0  0  0
  5 22  1  0  0  0  0
  6  7  1  0  0  0  0
  6  9  1  0  0  0  0
  7 23  1  0  0  0  0
  8  9  2  0  0  0  0
  8 24  1  0  0  0  0
  9 10  1  0  0  0  0
 10 11  1  0  0  0  0
 10 14  2  0  0  0  0
 11 12  1  0  0  0  0
 11 25  1  0  0  0  0
 12 13  2  0  0  0  0
 13 14  1  0  0  0  0
 13 26  1  0  0  0  0
 14 15  1  0  0  0  0
 15 16  1  0  0  0  0
 15 18  1  0  0  0  0
 16 17  1  0  0  0  0
 16 27  1  0  0  0  0
 16 28  1  0  0  0  0
 17 20  1  0  0  0  0
 17 29  1  0  0  0  0
 17 30  1  0  0  0  0
 18 19  1  0  0  0  0
 18 31  1  0  0  0  0
 18 32  1  0  0  0  0
 19 20  1  0  0  0  0
 19 33  1  0  0  0  0
 19 34  1  0  0  0  0
 20 35  1  0  0  0  0
 20 36  1  0  0  0  0
M  CHG  1  20   1
M  END
