2ceo_ligand
 OpenBabel08222323343D

 35 36  0  0  1  0  0  0  0  0999 V2000
   20.3330    1.9610  -20.5440 C   0  0  0  0  0  0  0  0  0  0  0  0
   20.9890    1.3890  -21.6470 C   0  0  0  0  0  0  0  0  0  0  0  0
   20.7500    1.8190  -22.9490 C   0  0  0  0  0  0  0  0  0  0  0  0
   19.7690    2.9010  -23.1510 C   0  0  0  0  0  0  0  0  0  0  0  0
   19.1010    3.4670  -21.9690 C   0  0  0  0  0  0  0  0  0  0  0  0
   19.3940    2.9850  -20.6950 C   0  0  0  0  0  0  0  0  0  0  0  0
   20.6310    1.4450  -19.1540 C   0  0  0  0  0  0  0  0  0  0  0  0
   21.8870    2.0740  -18.5500 C   0  0  1  0  0  0  0  0  0  0  0  0
   23.0810    1.9650  -19.4750 C   0  0  0  0  0  0  0  0  0  0  0  0
   20.2890    4.3070  -25.0200 C   0  0  0  0  0  0  0  0  0  0  0  0
   21.1700    5.1000  -24.2770 C   0  0  0  0  0  0  0  0  0  0  0  0
   22.0030    6.0320  -24.8920 C   0  0  0  0  0  0  0  0  0  0  0  0
   21.9570    6.1870  -26.3600 C   0  0  0  0  0  0  0  0  0  0  0  0
   21.0140    5.3290  -27.0940 C   0  0  0  0  0  0  0  0  0  0  0  0
   20.2150    4.4180  -26.4110 C   0  0  0  0  0  0  0  0  0  0  0  0
   21.6080    3.4510  -18.1730 N   0  3  0  0  0  0  0  0  0  0  0  0
   19.4740    3.3900  -24.3960 O   0  0  0  0  0  0  0  0  0  0  0  0
   22.7470    7.0750  -27.0270 O   0  0  0  0  0  0  0  0  0  0  0  0
   23.6410    3.0070  -19.8850 O   0  5  0  0  0  0  0  0  0  0  0  0
   23.4890    0.8260  -19.8030 O   0  0  0  0  0  0  0  0  0  0  0  0
   21.7160    0.9900  -24.6080 I   0  0  0  0  0  0  0  0  0  0  0  0
   23.3190    7.2120  -23.7890 I   0  0  0  0  0  0  0  0  0  0  0  0
   17.7410    4.9890  -22.3520 I   0  0  0  0  0  0  0  0  0  0  0  0
   20.9320    5.5350  -29.1550 I   0  0  0  0  0  0  0  0  0  0  0  0
   21.7018    0.5898  -21.4791 H   0  0  0  0  0  0  0  0  0  0  0  0
   18.8968    3.4016  -19.8265 H   0  0  0  0  0  0  0  0  0  0  0  0
   20.7726    0.3554  -19.2055 H   0  0  0  0  0  0  0  0  0  0  0  0
   19.7746    1.6731  -18.5024 H   0  0  0  0  0  0  0  0  0  0  0  0
   22.1330    1.5184  -17.6331 H   0  0  0  0  0  0  0  0  0  0  0  0
   21.2052    4.9868  -23.1995 H   0  0  0  0  0  0  0  0  0  0  0  0
   19.5278    3.7876  -26.9636 H   0  0  0  0  0  0  0  0  0  0  0  0
   22.4365    3.8648  -17.7750 H   0  0  0  0  0  0  0  0  0  0  0  0
   20.8637    3.4691  -17.4935 H   0  0  0  0  0  0  0  0  0  0  0  0
   21.3306    3.9733  -18.9893 H   0  0  0  0  0  0  0  0  0  0  0  0
   23.2906    7.5433  -26.4044 H   0  0  0  0  0  0  0  0  0  0  0  0
  1  7  1  0  0  0  0
  2  1  2  0  0  0  0
  2 25  1  0  0  0  0
  3  2  1  0  0  0  0
  3 21  1  0  0  0  0
  4  3  2  0  0  0  0
  4  5  1  0  0  0  0
  5  6  2  0  0  0  0
  5 23  1  0  0  0  0
  6  1  1  0  0  0  0
  6 26  1  0  0  0  0
  7  8  1  0  0  0  0
  7 27  1  0  0  0  0
  7 28  1  0  0  0  0
  8  9  1  0  0  0  0
  8 16  1  0  0  0  0
  8 29  1  1  0  0  0
  9 19  1  0  0  0  0
  9 20  2  0  0  0  0
 10 11  2  0  0  0  0
 10 15  1  0  0  0  0
 10 17  1  0  0  0  0
 11 12  1  0  0  0  0
 11 30  1  0  0  0  0
 12 13  2  0  0  0  0
 12 22  1  0  0  0  0
 13 14  1  0  0  0  0
 13 18  1  0  0  0  0
 14 15  2  0  0  0  0
 14 24  1  0  0  0  0
 15 31  1  0  0  0  0
 16 32  1  0  0  0  0
 16 33  1  0  0  0  0
 16 34  1  0  0  0  0
 17  4  1  0  0  0  0
 18 35  1  0  0  0  0
M  CHG  2  16   1  19  -1
M  END
