2chx_ligand
 OpenBabel08222323343D

 41 44  0  0  0  0  0  0  0  0999 V2000
   43.9370   13.1730   32.7120 O   0  0  0  0  0  0  0  0  0  0  0  0
   43.4190   12.3190   32.0050 C   0  0  0  0  0  0  0  0  0  0  0  0
   42.0440   11.8030   32.3370 C   0  0  0  0  0  0  0  0  0  0  0  0
   41.4530   10.8220   31.5430 C   0  0  0  0  0  0  0  0  0  0  0  0
   40.2450   10.3360   31.8800 N   0  0  0  0  0  0  0  0  0  0  0  0
   39.5970   10.7580   32.9850 C   0  0  0  0  0  0  0  0  0  0  0  0
   40.1490   11.7060   33.8320 C   0  0  0  0  0  0  0  0  0  0  0  0
   41.3890   12.2250   33.5040 C   0  0  0  0  0  0  0  0  0  0  0  0
   44.1030   11.6770   31.0610 N   0  0  0  0  0  0  0  0  0  0  0  0
   45.3760   11.9880   30.7450 C   0  0  0  0  0  0  0  0  0  0  0  0
   46.0670   12.9780   31.3930 N   0  0  0  0  0  0  0  0  0  0  0  0
   47.3740   13.2620   31.1040 C   0  0  0  0  0  0  0  0  0  0  0  0
   48.0250   14.2850   31.7910 C   0  0  0  0  0  0  0  0  0  0  0  0
   47.3320   15.0180   32.7090 O   0  0  0  0  0  0  0  0  0  0  0  0
   46.5530   16.1210   32.2100 C   0  0  0  0  0  0  0  0  0  0  0  0
   48.0570   12.5260   30.1190 C   0  0  0  0  0  0  0  0  0  0  0  0
   47.3610   11.4980   29.4700 C   0  0  0  0  0  0  0  0  0  0  0  0
   46.0380   11.2310   29.7700 N   0  0  0  0  0  0  0  0  0  0  0  0
   45.4950   10.1250   28.9960 C   0  0  0  0  0  0  0  0  0  0  0  0
   46.7150    9.7690   28.1480 C   0  0  0  0  0  0  0  0  0  0  0  0
   47.7870   10.6690   28.5230 N   0  0  0  0  0  0  0  0  0  0  0  0
   49.3980   12.8300   29.8200 C   0  0  0  0  0  0  0  0  0  0  0  0
   50.0470   13.8570   30.5070 C   0  0  0  0  0  0  0  0  0  0  0  0
   49.3570   14.6060   31.4920 C   0  0  0  0  0  0  0  0  0  0  0  0
   49.9880   15.6380   32.1650 O   0  0  0  0  0  0  0  0  0  0  0  0
   51.3320   16.0090   31.8240 C   0  0  0  0  0  0  0  0  0  0  0  0
   41.9631   10.4534   30.6604 H   0  0  0  0  0  0  0  0  0  0  0  0
   38.6214   10.3460   33.2161 H   0  0  0  0  0  0  0  0  0  0  0  0
   39.6255   12.0308   34.7239 H   0  0  0  0  0  0  0  0  0  0  0  0
   41.8557   12.9596   34.1503 H   0  0  0  0  0  0  0  0  0  0  0  0
   43.6541   10.9332   30.5657 H   0  0  0  0  0  0  0  0  0  0  0  0
   46.0489   16.6230   33.0489 H   0  0  0  0  0  0  0  0  0  0  0  0
   45.8001   15.7469   31.5007 H   0  0  0  0  0  0  0  0  0  0  0  0
   47.2148   16.8359   31.6992 H   0  0  0  0  0  0  0  0  0  0  0  0
   44.5020    9.6783   29.0156 H   0  0  0  0  0  0  0  0  0  0  0  0
   46.7692    8.9816   27.3977 H   0  0  0  0  0  0  0  0  0  0  0  0
   49.9257   12.2679   29.0580 H   0  0  0  0  0  0  0  0  0  0  0  0
   51.0839   14.0827   30.2859 H   0  0  0  0  0  0  0  0  0  0  0  0
   51.6560   16.8426   32.4645 H   0  0  0  0  0  0  0  0  0  0  0  0
   51.3702   16.3205   30.7697 H   0  0  0  0  0  0  0  0  0  0  0  0
   51.9999   15.1484   31.9765 H   0  0  0  0  0  0  0  0  0  0  0  0
  1  2  2  0  0  0  0
  2  3  1  0  0  0  0
  2  9  1  0  0  0  0
  3  4  2  0  0  0  0
  3  8  1  0  0  0  0
  4  5  1  0  0  0  0
  4 27  1  0  0  0  0
  5  6  2  0  0  0  0
  6  7  1  0  0  0  0
  6 28  1  0  0  0  0
  7  8  2  0  0  0  0
  7 29  1  0  0  0  0
  8 30  1  0  0  0  0
  9 10  1  0  0  0  0
  9 31  1  0  0  0  0
 10 11  2  0  0  0  0
 10 18  1  0  0  0  0
 11 12  1  0  0  0  0
 12 13  2  0  0  0  0
 12 16  1  0  0  0  0
 13 14  1  0  0  0  0
 13 24  1  0  0  0  0
 14 15  1  0  0  0  0
 15 32  1  0  0  0  0
 15 33  1  0  0  0  0
 15 34  1  0  0  0  0
 16 17  1  0  0  0  0
 16 22  2  0  0  0  0
 17 18  1  0  0  0  0
 17 21  2  0  0  0  0
 18 19  1  0  0  0  0
 19 20  2  0  0  0  0
 19 35  1  0  0  0  0
 20 21  1  0  0  0  0
 20 36  1  0  0  0  0
 22 23  1  0  0  0  0
 22 37  1  0  0  0  0
 23 24  2  0  0  0  0
 23 38  1  0  0  0  0
 24 25  1  0  0  0  0
 25 26  1  0  0  0  0
 26 39  1  0  0  0  0
 26 40  1  0  0  0  0
 26 41  1  0  0  0  0
M  END
