2clx_ligand
 OpenBabel08222323343D

 26 27  0  0  0  0  0  0  0  0999 V2000
   23.7680   30.7400   10.4770 C   0  0  0  0  0  0  0  0  0  0  0  0
   24.5630   31.3440    9.5070 C   0  0  0  0  0  0  0  0  0  0  0  0
   25.6130   30.6820    8.8890 C   0  0  0  0  0  0  0  0  0  0  0  0
   22.7460   31.4000   11.0880 O   0  0  0  0  0  0  0  0  0  0  0  0
   25.8460   29.3760    9.3070 C   0  0  0  0  0  0  0  0  0  0  0  0
   25.0650   28.7730   10.2850 C   0  0  0  0  0  0  0  0  0  0  0  0
   24.0150   29.4400   10.8800 C   0  0  0  0  0  0  0  0  0  0  0  0
   26.7560   28.5340    8.8590 N   0  0  0  0  0  0  0  0  0  0  0  0
   27.6960   28.6120    8.0750 N   0  0  0  0  0  0  0  0  0  0  0  0
   28.2820   29.5600    7.3460 C   0  0  0  0  0  0  0  0  0  0  0  0
   28.1350   30.9030    6.9920 C   0  0  0  0  0  0  0  0  0  0  0  0
   27.2620   31.8370    7.3420 N   0  0  0  0  0  0  0  0  0  0  0  0
   29.1580   31.1640    6.2020 N   0  0  0  0  0  0  0  0  0  0  0  0
   29.9000   30.1950    5.9980 N   0  0  0  0  0  0  0  0  0  0  0  0
   29.4310   29.1640    6.6850 C   0  0  0  0  0  0  0  0  0  0  0  0
   29.9900   27.9590    6.7150 N   0  0  0  0  0  0  0  0  0  0  0  0
   24.3536   32.3694    9.2244 H   0  0  0  0  0  0  0  0  0  0  0  0
   26.2177   31.1552    8.1238 H   0  0  0  0  0  0  0  0  0  0  0  0
   23.0880   32.1629   11.5391 H   0  0  0  0  0  0  0  0  0  0  0  0
   25.2859   27.7556   10.5870 H   0  0  0  0  0  0  0  0  0  0  0  0
   23.4042   28.9621   11.6374 H   0  0  0  0  0  0  0  0  0  0  0  0
   27.3396   32.7868    6.9512 H   0  0  0  0  0  0  0  0  0  0  0  0
   26.5061   31.6129    8.0048 H   0  0  0  0  0  0  0  0  0  0  0  0
   30.7372   30.1908    5.3980 H   0  0  0  0  0  0  0  0  0  0  0  0
   29.5634   27.2072    7.2750 H   0  0  0  0  0  0  0  0  0  0  0  0
   30.8500   27.7767    6.1782 H   0  0  0  0  0  0  0  0  0  0  0  0
  1  2  2  0  0  0  0
  1  4  1  0  0  0  0
  1  7  1  0  0  0  0
  2  3  1  0  0  0  0
  2 17  1  0  0  0  0
  3  5  2  0  0  0  0
  3 18  1  0  0  0  0
  4 19  1  0  0  0  0
  5  6  1  0  0  0  0
  5  8  1  0  0  0  0
  6  7  2  0  0  0  0
  6 20  1  0  0  0  0
  7 21  1  0  0  0  0
  8  9  2  0  0  0  0
  9 10  1  0  0  0  0
 10 11  1  0  0  0  0
 10 15  2  0  0  0  0
 11 12  1  0  0  0  0
 11 13  2  0  0  0  0
 12 22  1  0  0  0  0
 12 23  1  0  0  0  0
 13 14  1  0  0  0  0
 14 15  1  0  0  0  0
 14 24  1  0  0  0  0
 15 16  1  0  0  0  0
 16 25  1  0  0  0  0
 16 26  1  0  0  0  0
M  END
