2cm7_ligand
 OpenBabel08222323343D

 60 62  0  0  1  0  0  0  0  0999 V2000
   16.7560   -1.4220   -0.4900 C   0  0  2  0  0  0  0  0  0  0  0  0
   17.4780   -1.9420    0.7130 C   0  0  0  0  0  0  0  0  0  0  0  0
   16.9200   -1.2760    1.9380 C   0  0  0  0  0  0  0  0  0  0  0  0
   15.7130   -0.7120    1.7690 N   0  0  0  0  0  0  0  0  0  0  0  0
   15.0880   -1.1180    0.1110 S   0  0  0  0  0  0  0  0  0  0  0  0
   14.3300    0.1280   -0.6880 O   0  0  0  0  0  0  0  0  0  0  0  0
   14.2690   -2.5450    0.0980 O   0  0  0  0  0  0  0  0  0  0  0  0
   17.4860   -1.2290    3.0250 O   0  0  0  0  0  0  0  0  0  0  0  0
   16.7540   -2.2920   -1.7380 C   0  0  0  0  0  0  0  0  0  0  0  0
   16.8020   -3.7550   -1.6280 C   0  0  0  0  0  0  0  0  0  0  0  0
   16.7910   -4.5710   -2.8470 C   0  0  0  0  0  0  0  0  0  0  0  0
   16.7210   -3.9070   -4.1690 C   0  0  0  0  0  0  0  0  0  0  0  0
   16.7080   -2.4540   -4.2630 C   0  0  0  0  0  0  0  0  0  0  0  0
   16.7190   -1.6480   -3.0550 C   0  0  0  0  0  0  0  0  0  0  0  0
   16.7000   -4.7240   -5.4230 C   0  0  0  0  0  0  0  0  0  0  0  0
   17.9020   -4.4400   -6.3270 C   0  0  1  0  0  0  0  0  0  0  0  0
   19.1440   -5.0350   -5.7140 C   0  0  0  0  0  0  0  0  0  0  0  0
   19.8780   -4.3810   -4.9910 O   0  0  0  0  0  0  0  0  0  0  0  0
   19.3790   -6.3290   -5.9240 N   0  0  0  0  0  0  0  0  0  0  0  0
   17.6330   -5.0260   -7.6450 N   0  0  0  0  0  0  0  0  0  0  0  0
   18.4700   -4.6570   -8.6110 C   0  0  0  0  0  0  0  0  0  0  0  0
   18.2690   -5.2610   -9.9800 C   0  0  1  0  0  0  0  0  0  0  0  0
   19.3690   -3.8640   -8.3870 O   0  0  0  0  0  0  0  0  0  0  0  0
   18.3060   -4.2250  -11.0260 N   0  0  0  0  0  0  0  0  0  0  0  0
   19.3730   -6.2750  -10.2500 C   0  0  0  0  0  0  0  0  0  0  0  0
   19.0120   -7.2610  -11.3200 C   0  0  0  0  0  0  0  0  0  0  0  0
   18.3320   -8.5130  -10.9580 C   0  0  0  0  0  0  0  0  0  0  0  0
   17.9810   -9.4780  -11.9960 C   0  0  0  0  0  0  0  0  0  0  0  0
   18.3050   -9.1930  -13.4040 C   0  0  0  0  0  0  0  0  0  0  0  0
   18.9900   -7.9430  -13.7700 C   0  0  0  0  0  0  0  0  0  0  0  0
   19.3470   -6.9780  -12.7290 C   0  0  0  0  0  0  0  0  0  0  0  0
   17.1950   -3.8710  -11.6780 C   0  0  0  0  0  0  0  0  0  0  0  0
   16.1030   -4.3900  -11.3950 O   0  0  0  0  0  0  0  0  0  0  0  0
   17.2840   -2.8710  -12.8180 C   0  0  0  0  0  0  0  0  0  0  0  0
   17.2175   -0.4655   -0.7766 H   0  0  0  0  0  0  0  0  0  0  0  0
   18.5511   -1.7166    0.6262 H   0  0  0  0  0  0  0  0  0  0  0  0
   17.3367   -3.0303    0.7872 H   0  0  0  0  0  0  0  0  0  0  0  0
   15.2336   -0.1563    2.4482 H   0  0  0  0  0  0  0  0  0  0  0  0
   16.8452   -4.2286   -0.6539 H   0  0  0  0  0  0  0  0  0  0  0  0
   16.8338   -5.6521   -2.7807 H   0  0  0  0  0  0  0  0  0  0  0  0
   16.6901   -1.9739   -5.2347 H   0  0  0  0  0  0  0  0  0  0  0  0
   16.7013   -0.5665   -3.1271 H   0  0  0  0  0  0  0  0  0  0  0  0
   15.7787   -4.4944   -5.9784 H   0  0  0  0  0  0  0  0  0  0  0  0
   16.7077   -5.7896   -5.1501 H   0  0  0  0  0  0  0  0  0  0  0  0
   18.0376   -3.3535   -6.4321 H   0  0  0  0  0  0  0  0  0  0  0  0
   20.1929   -6.7592   -5.5334 H   0  0  0  0  0  0  0  0  0  0  0  0
   18.7416   -6.8704   -6.4723 H   0  0  0  0  0  0  0  0  0  0  0  0
   16.8746   -5.6577   -7.8057 H   0  0  0  0  0  0  0  0  0  0  0  0
   17.2925   -5.7666  -10.0088 H   0  0  0  0  0  0  0  0  0  0  0  0
   19.1734   -3.7811  -11.2510 H   0  0  0  0  0  0  0  0  0  0  0  0
   19.5784   -6.8259   -9.3203 H   0  0  0  0  0  0  0  0  0  0  0  0
   20.2779   -5.7334  -10.5629 H   0  0  0  0  0  0  0  0  0  0  0  0
   18.0914   -8.7196   -9.9214 H   0  0  0  0  0  0  0  0  0  0  0  0
   17.4825  -10.4032  -11.7305 H   0  0  0  0  0  0  0  0  0  0  0  0
   18.0377   -9.9072  -14.1744 H   0  0  0  0  0  0  0  0  0  0  0  0
   19.2294   -7.7376  -14.8071 H   0  0  0  0  0  0  0  0  0  0  0  0
   19.8561   -6.0579  -12.9923 H   0  0  0  0  0  0  0  0  0  0  0  0
   16.2805   -2.6998  -13.2347 H   0  0  0  0  0  0  0  0  0  0  0  0
   17.9442   -3.2679  -13.6032 H   0  0  0  0  0  0  0  0  0  0  0  0
   17.6916   -1.9212  -12.4416 H   0  0  0  0  0  0  0  0  0  0  0  0
  1  2  1  0  0  0  0
  1  5  1  0  0  0  0
  1  9  1  0  0  0  0
  1 35  1  6  0  0  0
  2  3  1  0  0  0  0
  2 36  1  0  0  0  0
  2 37  1  0  0  0  0
  3  4  1  0  0  0  0
  3  8  2  0  0  0  0
  4  5  1  0  0  0  0
  4 38  1  0  0  0  0
  5  6  2  0  0  0  0
  5  7  2  0  0  0  0
  9 10  2  0  0  0  0
  9 14  1  0  0  0  0
 10 11  1  0  0  0  0
 10 39  1  0  0  0  0
 11 12  2  0  0  0  0
 11 40  1  0  0  0  0
 12 13  1  0  0  0  0
 12 15  1  0  0  0  0
 13 14  2  0  0  0  0
 13 41  1  0  0  0  0
 14 42  1  0  0  0  0
 15 16  1  0  0  0  0
 15 43  1  0  0  0  0
 15 44  1  0  0  0  0
 16 17  1  0  0  0  0
 16 20  1  0  0  0  0
 16 45  1  6  0  0  0
 17 18  2  0  0  0  0
 17 19  1  0  0  0  0
 19 46  1  0  0  0  0
 19 47  1  0  0  0  0
 20 21  1  0  0  0  0
 20 48  1  0  0  0  0
 21 22  1  0  0  0  0
 21 23  2  0  0  0  0
 22 24  1  0  0  0  0
 22 25  1  0  0  0  0
 22 49  1  6  0  0  0
 24 32  1  0  0  0  0
 24 50  1  0  0  0  0
 25 26  1  0  0  0  0
 25 51  1  0  0  0  0
 25 52  1  0  0  0  0
 26 27  2  0  0  0  0
 26 31  1  0  0  0  0
 27 28  1  0  0  0  0
 27 53  1  0  0  0  0
 28 29  2  0  0  0  0
 28 54  1  0  0  0  0
 29 30  1  0  0  0  0
 29 55  1  0  0  0  0
 30 31  2  0  0  0  0
 30 56  1  0  0  0  0
 31 57  1  0  0  0  0
 32 33  2  0  0  0  0
 32 34  1  0  0  0  0
 34 58  1  0  0  0  0
 34 59  1  0  0  0  0
 34 60  1  0  0  0  0
M  END
