2cm8_ligand
 OpenBabel08222323343D

 22 23  0  0  0  0  0  0  0  0999 V2000
   46.4620   15.4340    3.9400 C   0  0  0  0  0  0  0  0  0  0  0  0
   47.6680   16.1830    3.7160 C   0  0  0  0  0  0  0  0  0  0  0  0
   47.8320   17.0770    4.8510 C   0  0  0  0  0  0  0  0  0  0  0  0
   46.8430   17.0340    5.8710 N   0  0  0  0  0  0  0  0  0  0  0  0
   45.6240   15.8500    5.4680 S   0  0  0  0  0  0  0  0  0  0  0  0
   44.0340   16.5070    5.1850 O   0  0  0  0  0  0  0  0  0  0  0  0
   45.6450   14.4680    6.4180 O   0  0  0  0  0  0  0  0  0  0  0  0
   48.7880   17.8380    4.9280 O   0  0  0  0  0  0  0  0  0  0  0  0
   45.9650   14.4120    3.0230 C   0  0  0  0  0  0  0  0  0  0  0  0
   44.7520   14.6610    2.2320 C   0  0  0  0  0  0  0  0  0  0  0  0
   44.2480   13.6250    1.3130 C   0  0  0  0  0  0  0  0  0  0  0  0
   44.9570   12.3400    1.1850 C   0  0  0  0  0  0  0  0  0  0  0  0
   46.1700   12.0930    1.9760 C   0  0  0  0  0  0  0  0  0  0  0  0
   46.6780   13.1250    2.8950 C   0  0  0  0  0  0  0  0  0  0  0  0
   46.8200   10.9240    1.8610 O   0  0  0  0  0  0  0  0  0  0  0  0
   48.3334   16.0972    2.8582 H   0  0  0  0  0  0  0  0  0  0  0  0
   46.8449   17.5980    6.6968 H   0  0  0  0  0  0  0  0  0  0  0  0
   44.2284   15.6057    2.3243 H   0  0  0  0  0  0  0  0  0  0  0  0
   43.3531   13.8090    0.7296 H   0  0  0  0  0  0  0  0  0  0  0  0
   44.5846   11.5788    0.5090 H   0  0  0  0  0  0  0  0  0  0  0  0
   47.5739   12.9405    3.4767 H   0  0  0  0  0  0  0  0  0  0  0  0
   47.7074   11.0844    1.5621 H   0  0  0  0  0  0  0  0  0  0  0  0
  1  2  2  0  0  0  0
  1  5  1  0  0  0  0
  1  9  1  0  0  0  0
  2  3  1  0  0  0  0
  2 16  1  0  0  0  0
  3  4  1  0  0  0  0
  3  8  2  0  0  0  0
  4  5  1  0  0  0  0
  4 17  1  0  0  0  0
  5  6  2  0  0  0  0
  5  7  2  0  0  0  0
  9 10  2  0  0  0  0
  9 14  1  0  0  0  0
 10 11  1  0  0  0  0
 10 18  1  0  0  0  0
 11 12  2  0  0  0  0
 11 19  1  0  0  0  0
 12 13  1  0  0  0  0
 12 20  1  0  0  0  0
 13 14  2  0  0  0  0
 13 15  1  0  0  0  0
 14 21  1  0  0  0  0
 15 22  1  0  0  0  0
M  END
