2cmc_ligand
 OpenBabel08222323343D

 55 56  0  0  1  0  0  0  0  0999 V2000
   26.0720   31.4290   19.6100 C   0  0  0  0  0  0  0  0  0  0  0  0
   25.1730   33.2820   21.6650 O   0  0  0  0  0  1  0  0  0  0  0  0
   24.5670   30.5810   21.9400 O   0  0  0  0  0  1  0  0  0  0  0  0
   27.2370   31.5510   22.2720 O   0  0  0  0  0  0  0  0  0  0  0  0
   24.9110   31.3600   18.7420 C   0  0  0  0  0  0  0  0  0  0  0  0
   24.5070   32.5990   18.1050 C   0  0  0  0  0  0  0  0  0  0  0  0
   23.3020   32.5620   17.2740 C   0  0  0  0  0  0  0  0  0  0  0  0
   22.5770   31.3040   17.1090 C   0  0  0  0  0  0  0  0  0  0  0  0
   22.9810   30.0390   17.7230 C   0  0  0  0  0  0  0  0  0  0  0  0
   24.1920   30.0930   18.5560 C   0  0  0  0  0  0  0  0  0  0  0  0
   21.3350   31.2400   16.2410 C   0  0  0  0  0  0  0  0  0  0  0  0
   21.5800   31.6810   14.7840 C   0  0  1  0  0  0  0  0  0  0  0  0
   22.6220   30.7880   14.1050 C   0  0  0  0  0  0  0  0  0  0  0  0
   23.7620   31.1880   13.8780 O   0  0  0  0  0  0  0  0  0  0  0  0
   22.2700   29.5400   13.7890 N   0  0  0  0  0  0  0  0  0  0  0  0
   20.2880   31.6360   14.0730 N   0  0  0  0  0  0  0  0  0  0  0  0
   20.0540   32.5190   13.1110 C   0  0  0  0  0  0  0  0  0  0  0  0
   18.7670   32.3920   12.3350 C   0  0  1  0  0  0  0  0  0  0  0  0
   20.8520   33.4120   12.8770 O   0  0  0  0  0  0  0  0  0  0  0  0
   18.1210   33.7080   12.3230 N   0  0  0  0  0  0  0  0  0  0  0  0
   19.0410   31.9870   10.8870 C   0  0  0  0  0  0  0  0  0  0  0  0
   19.8140   30.6960   10.7650 C   0  0  0  0  0  0  0  0  0  0  0  0
   19.1900   29.4410   11.1700 C   0  0  0  0  0  0  0  0  0  0  0  0
   19.9620   28.2010   11.1100 C   0  0  0  0  0  0  0  0  0  0  0  0
   21.3420   28.2970   10.6360 C   0  0  0  0  0  0  0  0  0  0  0  0
   21.9730   29.5520   10.2210 C   0  0  0  0  0  0  0  0  0  0  0  0
   21.1900   30.7910   10.2780 C   0  0  0  0  0  0  0  0  0  0  0  0
   17.0130   33.9010   13.0310 C   0  0  0  0  0  0  0  0  0  0  0  0
   16.3970   32.9360   13.5170 O   0  0  0  0  0  0  0  0  0  0  0  0
   16.4910   35.3100   13.2140 C   0  0  0  0  0  0  0  0  0  0  0  0
   27.0840   32.4280   19.1320 F   0  0  0  0  0  0  0  0  0  0  0  0
   26.8280   30.1590   19.4610 F   0  0  0  0  0  0  0  0  0  0  0  0
   25.7440   31.7240   21.3980 P   0  0  0  0  0  0  0  0  0  0  0  0
   25.0733   33.5137   18.2385 H   0  0  0  0  0  0  0  0  0  0  0  0
   22.9498   33.4625   16.7841 H   0  0  0  0  0  0  0  0  0  0  0  0
   22.4238   29.1212   17.5737 H   0  0  0  0  0  0  0  0  0  0  0  0
   24.5562   29.1917   19.0358 H   0  0  0  0  0  0  0  0  0  0  0  0
   20.5694   31.8969   16.6796 H   0  0  0  0  0  0  0  0  0  0  0  0
   20.9681   30.2030   16.2339 H   0  0  0  0  0  0  0  0  0  0  0  0
   21.9548   32.7152   14.7802 H   0  0  0  0  0  0  0  0  0  0  0  0
   22.9281   28.9322   13.3447 H   0  0  0  0  0  0  0  0  0  0  0  0
   21.3481   29.2128   13.9965 H   0  0  0  0  0  0  0  0  0  0  0  0
   19.5999   30.9510   14.3124 H   0  0  0  0  0  0  0  0  0  0  0  0
   18.1138   31.6473   12.8133 H   0  0  0  0  0  0  0  0  0  0  0  0
   18.5115   34.4555   11.7856 H   0  0  0  0  0  0  0  0  0  0  0  0
   19.6201   32.7878   10.4039 H   0  0  0  0  0  0  0  0  0  0  0  0
   18.0778   31.8676   10.3694 H   0  0  0  0  0  0  0  0  0  0  0  0
   18.1617   29.4281   11.5128 H   0  0  0  0  0  0  0  0  0  0  0  0
   19.5300   27.2513   11.4042 H   0  0  0  0  0  0  0  0  0  0  0  0
   21.9311   27.3883   10.5891 H   0  0  0  0  0  0  0  0  0  0  0  0
   23.0011   29.5649    9.8776 H   0  0  0  0  0  0  0  0  0  0  0  0
   21.6145   31.7401    9.9712 H   0  0  0  0  0  0  0  0  0  0  0  0
   15.5740   35.2853   13.8210 H   0  0  0  0  0  0  0  0  0  0  0  0
   16.2679   35.7490   12.2304 H   0  0  0  0  0  0  0  0  0  0  0  0
   17.2517   35.9196   13.7236 H   0  0  0  0  0  0  0  0  0  0  0  0
  1  5  1  0  0  0  0
  1 31  1  0  0  0  0
  1 32  1  0  0  0  0
  1 33  1  0  0  0  0
  5  6  2  0  0  0  0
  5 10  1  0  0  0  0
  6  7  1  0  0  0  0
  6 34  1  0  0  0  0
  7  8  2  0  0  0  0
  7 35  1  0  0  0  0
  8  9  1  0  0  0  0
  8 11  1  0  0  0  0
  9 10  2  0  0  0  0
  9 36  1  0  0  0  0
 10 37  1  0  0  0  0
 11 12  1  0  0  0  0
 11 38  1  0  0  0  0
 11 39  1  0  0  0  0
 12 13  1  0  0  0  0
 12 16  1  0  0  0  0
 12 40  1  1  0  0  0
 13 14  2  0  0  0  0
 13 15  1  0  0  0  0
 15 41  1  0  0  0  0
 15 42  1  0  0  0  0
 16 17  1  0  0  0  0
 16 43  1  0  0  0  0
 17 18  1  0  0  0  0
 17 19  2  0  0  0  0
 18 20  1  0  0  0  0
 18 21  1  0  0  0  0
 18 44  1  1  0  0  0
 20 28  1  0  0  0  0
 20 45  1  0  0  0  0
 21 22  1  0  0  0  0
 21 46  1  0  0  0  0
 21 47  1  0  0  0  0
 22 23  2  0  0  0  0
 22 27  1  0  0  0  0
 23 24  1  0  0  0  0
 23 48  1  0  0  0  0
 24 25  2  0  0  0  0
 24 49  1  0  0  0  0
 25 26  1  0  0  0  0
 25 50  1  0  0  0  0
 26 27  2  0  0  0  0
 26 51  1  0  0  0  0
 27 52  1  0  0  0  0
 28 29  2  0  0  0  0
 28 30  1  0  0  0  0
 30 53  1  0  0  0  0
 30 54  1  0  0  0  0
 30 55  1  0  0  0  0
 33  2  1  0  0  0  0
 33  3  1  0  0  0  0
 33  4  2  0  0  0  0
M  END
