2cmo_ligand
 OpenBabel08222323343D

 64 67  0  0  1  0  0  0  0  0999 V2000
    3.8380   30.6400   25.6870 C   0  0  0  0  0  0  0  0  0  0  0  0
    5.6850   28.9420   22.6550 C   0  0  0  0  0  0  0  0  0  0  0  0
    6.1790   30.0820   21.9990 C   0  0  0  0  0  0  0  0  0  0  0  0
    5.9460   31.3830   22.5080 C   0  0  0  0  0  0  0  0  0  0  0  0
    5.1940   31.6010   23.6910 C   0  0  0  0  0  0  0  0  0  0  0  0
    4.6660   30.4370   24.3900 C   0  0  0  0  0  0  0  0  0  0  0  0
    4.9180   29.0890   23.8560 C   0  0  0  0  0  0  0  0  0  0  0  0
    3.5040   32.1040   26.0480 C   0  0  0  0  0  0  0  0  0  0  0  0
    4.6560   33.0140   25.6950 N   0  3  1  0  0  0  0  0  0  0  0  0
    4.9440   32.9920   24.2180 C   0  0  0  0  0  0  0  0  0  0  0  0
    6.5350   32.3450   21.6870 N   0  0  0  0  0  0  0  0  0  0  0  0
    7.1810   31.7660   20.6180 C   0  0  0  0  0  0  0  0  0  0  0  0
    7.7900   32.3090   19.7210 O   0  0  0  0  0  0  0  0  0  0  0  0
    6.9820   30.2470   20.7710 C   0  0  0  0  0  0  0  0  0  0  0  0
    7.4860   29.4200   19.8840 N   0  0  0  0  0  0  0  0  0  0  0  0
    4.4010   34.4110   26.1520 C   0  0  0  0  0  0  0  0  0  0  0  0
    4.5370   26.1010   26.2450 C   0  0  0  0  0  0  0  0  0  0  0  0
    5.0480   27.2880   25.6510 C   0  0  0  0  0  0  0  0  0  0  0  0
    4.4120   27.8530   24.4930 C   0  0  0  0  0  0  0  0  0  0  0  0
    3.2580   27.1970   23.9500 C   0  0  0  0  0  0  0  0  0  0  0  0
    2.7480   26.0140   24.5390 C   0  0  0  0  0  0  0  0  0  0  0  0
    3.3860   25.4690   25.6840 C   0  0  0  0  0  0  0  0  0  0  0  0
    2.7370   23.9890   26.4220 S   0  0  0  0  0  0  0  0  0  0  0  0
    3.4860   22.7780   25.5210 N   0  0  0  0  0  0  0  0  0  0  0  0
    1.3050   23.9500   26.1630 O   0  0  0  0  0  0  0  0  0  0  0  0
    3.2040   23.9260   27.7970 O   0  0  0  0  0  0  0  0  0  0  0  0
    2.7760   22.0550   24.4610 C   0  0  0  0  0  0  0  0  0  0  0  0
    4.8800   22.3840   25.7470 C   0  0  0  0  0  0  0  0  0  0  0  0
    7.2140   28.0640   20.1490 O   0  0  0  0  0  0  0  0  0  0  0  0
    7.8000   27.2240   19.1280 C   0  0  1  0  0  0  0  0  0  0  0  0
    7.9200   25.7860   19.6740 C   0  0  0  0  0  0  0  0  0  0  0  0
    8.7750   25.6810   20.9400 C   0  0  0  0  0  0  0  0  0  0  0  0
   10.0190   26.3620   20.7750 O   0  0  0  0  0  0  0  0  0  0  0  0
    6.9130   27.2150   17.8580 C   0  0  0  0  0  0  0  0  0  0  0  0
    7.5040   27.3820   16.7500 O   0  5  0  0  0  0  0  0  0  0  0  0
    5.6620   27.0490   17.9910 O   0  0  0  0  0  0  0  0  0  0  0  0
    4.4080   30.2079   26.5226 H   0  0  0  0  0  0  0  0  0  0  0  0
    2.8890   30.0961   25.5704 H   0  0  0  0  0  0  0  0  0  0  0  0
    5.8835   27.9547   22.2538 H   0  0  0  0  0  0  0  0  0  0  0  0
    3.3057   32.1740   27.1277 H   0  0  0  0  0  0  0  0  0  0  0  0
    2.6101   32.4192   25.4898 H   0  0  0  0  0  0  0  0  0  0  0  0
    5.4742   32.6741   26.1756 H   0  0  0  0  0  0  0  0  0  0  0  0
    4.0817   33.4197   23.6856 H   0  0  0  0  0  0  0  0  0  0  0  0
    5.8357   33.6064   24.0248 H   0  0  0  0  0  0  0  0  0  0  0  0
    6.4932   33.3301   21.8538 H   0  0  0  0  0  0  0  0  0  0  0  0
    4.1923   34.4111   27.2320 H   0  0  0  0  0  0  0  0  0  0  0  0
    3.5355   34.8215   25.6113 H   0  0  0  0  0  0  0  0  0  0  0  0
    5.2872   35.0305   25.9498 H   0  0  0  0  0  0  0  0  0  0  0  0
    5.0189   25.6783   27.1192 H   0  0  0  0  0  0  0  0  0  0  0  0
    5.9223   27.7692   26.0743 H   0  0  0  0  0  0  0  0  0  0  0  0
    2.7690   27.6125   23.0763 H   0  0  0  0  0  0  0  0  0  0  0  0
    1.8756   25.5277   24.1178 H   0  0  0  0  0  0  0  0  0  0  0  0
    3.4506   21.3140   24.0073 H   0  0  0  0  0  0  0  0  0  0  0  0
    2.4426   22.7668   23.6915 H   0  0  0  0  0  0  0  0  0  0  0  0
    1.9023   21.5417   24.8890 H   0  0  0  0  0  0  0  0  0  0  0  0
    5.1518   21.5801   25.0471 H   0  0  0  0  0  0  0  0  0  0  0  0
    4.9968   22.0256   26.7804 H   0  0  0  0  0  0  0  0  0  0  0  0
    5.5372   23.2507   25.5830 H   0  0  0  0  0  0  0  0  0  0  0  0
    8.7990   27.6059   18.8707 H   0  0  0  0  0  0  0  0  0  0  0  0
    8.3728   25.1548   18.8952 H   0  0  0  0  0  0  0  0  0  0  0  0
    6.9101   25.4160   19.9047 H   0  0  0  0  0  0  0  0  0  0  0  0
    8.9714   24.6202   21.1546 H   0  0  0  0  0  0  0  0  0  0  0  0
    8.2279   26.1303   21.7819 H   0  0  0  0  0  0  0  0  0  0  0  0
   10.5303   26.2827   21.5718 H   0  0  0  0  0  0  0  0  0  0  0  0
  1  8  1  0  0  0  0
  1 37  1  0  0  0  0
  1 38  1  0  0  0  0
  2  3  2  0  0  0  0
  2 39  1  0  0  0  0
  3  4  1  0  0  0  0
  3 14  1  0  0  0  0
  4 11  1  0  0  0  0
  5  4  2  0  0  0  0
  5 10  1  0  0  0  0
  6  1  1  0  0  0  0
  6  5  1  0  0  0  0
  7  2  1  0  0  0  0
  7  6  2  0  0  0  0
  8  9  1  0  0  0  0
  8 40  1  0  0  0  0
  8 41  1  0  0  0  0
  9 16  1  0  0  0  0
  9 42  1  1  0  0  0
 10  9  1  0  0  0  0
 10 43  1  0  0  0  0
 10 44  1  0  0  0  0
 11 12  1  0  0  0  0
 11 45  1  0  0  0  0
 12 13  2  0  0  0  0
 14 12  1  0  0  0  0
 14 15  2  0  0  0  0
 15 29  1  0  0  0  0
 16 46  1  0  0  0  0
 16 47  1  0  0  0  0
 16 48  1  0  0  0  0
 17 22  1  0  0  0  0
 17 49  1  0  0  0  0
 18 17  2  0  0  0  0
 18 19  1  0  0  0  0
 18 50  1  0  0  0  0
 19  7  1  0  0  0  0
 19 20  2  0  0  0  0
 20 21  1  0  0  0  0
 20 51  1  0  0  0  0
 21 22  2  0  0  0  0
 21 52  1  0  0  0  0
 22 23  1  0  0  0  0
 23 24  1  0  0  0  0
 23 25  2  0  0  0  0
 23 26  2  0  0  0  0
 24 27  1  0  0  0  0
 24 28  1  0  0  0  0
 27 53  1  0  0  0  0
 27 54  1  0  0  0  0
 27 55  1  0  0  0  0
 28 56  1  0  0  0  0
 28 57  1  0  0  0  0
 28 58  1  0  0  0  0
 29 30  1  0  0  0  0
 30 31  1  0  0  0  0
 30 34  1  0  0  0  0
 30 59  1  6  0  0  0
 31 32  1  0  0  0  0
 31 60  1  0  0  0  0
 31 61  1  0  0  0  0
 32 33  1  0  0  0  0
 32 62  1  0  0  0  0
 32 63  1  0  0  0  0
 33 64  1  0  0  0  0
 34 35  1  0  0  0  0
 34 36  2  0  0  0  0
M  CHG  2   9   1  35  -1
M  END
