2cnh_ligand
 OpenBabel08222323343D

 67 72  0  0  1  0  0  0  0  0999 V2000
   19.4890   16.6620   81.4060 C   0  0  2  0  0  0  0  0  0  0  0  0
   20.8210   17.1900   80.9500 C   0  0  0  0  0  0  0  0  0  0  0  0
   21.8930   16.3940   81.6000 C   0  0  0  0  0  0  0  0  0  0  0  0
   21.5010   15.1850   82.0170 N   0  0  0  0  0  0  0  0  0  0  0  0
   19.7760   14.9170   81.6510 S   0  0  0  0  0  0  0  0  0  0  0  0
   18.9720   14.4430   82.9620 O   0  0  0  0  0  0  0  0  0  0  0  0
   19.6420   14.0860   80.2520 O   0  0  0  0  0  0  0  0  0  0  0  0
   23.0440   16.7680   81.7700 O   0  0  0  0  0  0  0  0  0  0  0  0
   18.2840   16.9220   80.5280 C   0  0  0  0  0  0  0  0  0  0  0  0
   18.4170   16.8970   79.0690 C   0  0  0  0  0  0  0  0  0  0  0  0
   17.2350   17.1070   78.2290 C   0  0  0  0  0  0  0  0  0  0  0  0
   15.9240   17.3440   78.8560 C   0  0  0  0  0  0  0  0  0  0  0  0
   15.7990   17.3710   80.3120 C   0  0  0  0  0  0  0  0  0  0  0  0
   16.9720   17.1610   81.1470 C   0  0  0  0  0  0  0  0  0  0  0  0
   14.7130   17.5900   77.9990 C   0  0  0  0  0  0  0  0  0  0  0  0
   14.1330   18.9900   78.2310 C   0  0  2  0  0  0  0  0  0  0  0  0
   12.8100   19.0650   77.5950 N   0  0  0  0  0  0  0  0  0  0  0  0
   11.7160   20.3830   78.0110 S   0  0  0  0  0  0  0  0  0  0  0  0
   10.2450   19.7860   77.5090 O   0  0  0  0  0  0  0  0  0  0  0  0
   11.8340   20.6580   79.6590 O   0  0  0  0  0  0  0  0  0  0  0  0
   17.9850   23.5440   76.3940 C   0  0  0  0  0  0  0  0  0  0  0  0
   17.4790   22.8450   77.5990 C   0  0  0  0  0  0  0  0  0  0  0  0
   16.5060   21.7390   77.4550 C   0  0  0  0  0  0  0  0  0  0  0  0
   16.0420   21.3370   76.1210 C   0  0  0  0  0  0  0  0  0  0  0  0
   16.5420   22.0310   74.9170 C   0  0  0  0  0  0  0  0  0  0  0  0
   17.5160   23.1380   75.0540 C   0  0  0  0  0  0  0  0  0  0  0  0
   15.8760   20.9260   78.4170 N   0  0  0  0  0  0  0  0  0  0  0  0
   15.0580   20.0610   77.6580 C   0  0  0  0  0  0  0  0  0  0  0  0
   15.1290   20.2730   76.2620 N   0  0  0  0  0  0  0  0  0  0  0  0
   15.2120   25.6060   77.1330 C   0  0  0  0  0  0  0  0  0  0  0  0
   14.2070   24.8990   77.8540 O   0  0  0  0  0  0  0  0  0  0  0  0
   13.5820   23.9570   77.1360 C   0  0  0  0  0  0  0  0  0  0  0  0
   13.4300   24.0590   75.6800 C   0  0  0  0  0  0  0  0  0  0  0  0
   14.0660   25.1090   74.9920 N   0  0  0  0  0  0  0  0  0  0  0  0
   14.7030   26.1560   75.8070 C   0  0  0  0  0  0  0  0  0  0  0  0
   13.0460   22.8010   77.8440 C   0  0  0  0  0  0  0  0  0  0  0  0
   12.3010   21.7820   77.1110 C   0  0  0  0  0  0  0  0  0  0  0  0
   12.0750   21.9270   75.6680 C   0  0  0  0  0  0  0  0  0  0  0  0
   12.6300   23.0730   74.9560 C   0  0  0  0  0  0  0  0  0  0  0  0
   14.2300   25.0330   73.5380 C   0  0  0  0  0  0  0  0  0  0  0  0
   19.2631   17.1244   82.3782 H   0  0  0  0  0  0  0  0  0  0  0  0
   20.9186   18.2474   81.2370 H   0  0  0  0  0  0  0  0  0  0  0  0
   20.9018   17.0978   79.8569 H   0  0  0  0  0  0  0  0  0  0  0  0
   22.0946   14.5214   82.4722 H   0  0  0  0  0  0  0  0  0  0  0  0
   19.3852   16.7240   78.6133 H   0  0  0  0  0  0  0  0  0  0  0  0
   17.3254   17.0879   77.1489 H   0  0  0  0  0  0  0  0  0  0  0  0
   14.8324   17.5475   80.7698 H   0  0  0  0  0  0  0  0  0  0  0  0
   16.8784   17.1808   82.2268 H   0  0  0  0  0  0  0  0  0  0  0  0
   13.9453   16.8407   78.2422 H   0  0  0  0  0  0  0  0  0  0  0  0
   14.9984   17.4926   76.9412 H   0  0  0  0  0  0  0  0  0  0  0  0
   14.0237   19.1589   79.3124 H   0  0  0  0  0  0  0  0  0  0  0  0
   12.5320   18.3720   76.9298 H   0  0  0  0  0  0  0  0  0  0  0  0
   18.6992   24.3530   76.4964 H   0  0  0  0  0  0  0  0  0  0  0  0
   17.8208   23.1431   78.5836 H   0  0  0  0  0  0  0  0  0  0  0  0
   16.1965   21.7305   73.9345 H   0  0  0  0  0  0  0  0  0  0  0  0
   17.8841   23.6495   74.1720 H   0  0  0  0  0  0  0  0  0  0  0  0
   14.6281   19.7659   75.5184 H   0  0  0  0  0  0  0  0  0  0  0  0
   16.0493   24.9214   76.9324 H   0  0  0  0  0  0  0  0  0  0  0  0
   15.5644   26.4453   77.7506 H   0  0  0  0  0  0  0  0  0  0  0  0
   15.5507   26.5773   75.2468 H   0  0  0  0  0  0  0  0  0  0  0  0
   13.9668   26.9480   76.0086 H   0  0  0  0  0  0  0  0  0  0  0  0
   13.2003   22.6984   78.9121 H   0  0  0  0  0  0  0  0  0  0  0  0
   11.4964   21.1834   75.1320 H   0  0  0  0  0  0  0  0  0  0  0  0
   12.4497   23.1928   73.8938 H   0  0  0  0  0  0  0  0  0  0  0  0
   13.6645   24.1731   73.1497 H   0  0  0  0  0  0  0  0  0  0  0  0
   15.2958   24.9107   73.2951 H   0  0  0  0  0  0  0  0  0  0  0  0
   13.8527   25.9580   73.0776 H   0  0  0  0  0  0  0  0  0  0  0  0
  1  2  1  0  0  0  0
  1  5  1  0  0  0  0
  1 41  1  1  0  0  0
  2  3  1  0  0  0  0
  2 42  1  0  0  0  0
  2 43  1  0  0  0  0
  3  8  2  0  0  0  0
  4  3  1  0  0  0  0
  4 44  1  0  0  0  0
  5  4  1  0  0  0  0
  5  6  2  0  0  0  0
  5  7  2  0  0  0  0
  9  1  1  0  0  0  0
 10  9  2  0  0  0  0
 10 45  1  0  0  0  0
 11 10  1  0  0  0  0
 11 46  1  0  0  0  0
 12 11  2  0  0  0  0
 12 13  1  0  0  0  0
 13 14  2  0  0  0  0
 13 47  1  0  0  0  0
 14  9  1  0  0  0  0
 14 48  1  0  0  0  0
 15 12  1  0  0  0  0
 15 49  1  0  0  0  0
 15 50  1  0  0  0  0
 16 15  1  0  0  0  0
 16 28  1  0  0  0  0
 16 51  1  1  0  0  0
 17 16  1  0  0  0  0
 17 52  1  0  0  0  0
 18 17  1  0  0  0  0
 18 19  2  0  0  0  0
 18 20  2  0  0  0  0
 21 53  1  0  0  0  0
 22 21  2  0  0  0  0
 22 54  1  0  0  0  0
 23 22  1  0  0  0  0
 24 23  2  0  0  0  0
 24 25  1  0  0  0  0
 25 26  2  0  0  0  0
 25 55  1  0  0  0  0
 26 21  1  0  0  0  0
 26 56  1  0  0  0  0
 27 23  1  0  0  0  0
 28 27  2  0  0  0  0
 28 29  1  0  0  0  0
 29 24  1  0  0  0  0
 29 57  1  0  0  0  0
 30 35  1  0  0  0  0
 30 58  1  0  0  0  0
 30 59  1  0  0  0  0
 31 30  1  0  0  0  0
 32 31  1  0  0  0  0
 32 33  2  0  0  0  0
 33 34  1  0  0  0  0
 33 39  1  0  0  0  0
 34 35  1  0  0  0  0
 34 40  1  0  0  0  0
 35 60  1  0  0  0  0
 35 61  1  0  0  0  0
 36 32  1  0  0  0  0
 36 37  2  0  0  0  0
 36 62  1  0  0  0  0
 37 18  1  0  0  0  0
 37 38  1  0  0  0  0
 38 39  2  0  0  0  0
 38 63  1  0  0  0  0
 39 64  1  0  0  0  0
 40 65  1  0  0  0  0
 40 66  1  0  0  0  0
 40 67  1  0  0  0  0
M  END
