2cni_ligand
 OpenBabel08222323343D

 81 84  0  0  1  0  0  0  0  0999 V2000
   18.9790   16.7510   82.0810 C   0  0  2  0  0  0  0  0  0  0  0  0
   20.2880   17.3520   81.6380 C   0  0  0  0  0  0  0  0  0  0  0  0
   21.3960   16.6130   82.2880 C   0  0  0  0  0  0  0  0  0  0  0  0
   21.0720   15.3830   82.6970 N   0  0  0  0  0  0  0  0  0  0  0  0
   19.3600   14.9850   82.3430 S   0  0  0  0  0  0  0  0  0  0  0  0
   18.4980   14.5970   83.7200 O   0  0  0  0  0  0  0  0  0  0  0  0
   19.0820   14.1180   80.9170 O   0  0  0  0  0  0  0  0  0  0  0  0
   22.5140   17.0710   82.4850 O   0  0  0  0  0  0  0  0  0  0  0  0
   17.7890   16.9800   81.1460 C   0  0  0  0  0  0  0  0  0  0  0  0
   17.9760   16.9510   79.6950 C   0  0  0  0  0  0  0  0  0  0  0  0
   16.8220   17.1470   78.8100 C   0  0  0  0  0  0  0  0  0  0  0  0
   15.4890   17.3690   79.3870 C   0  0  0  0  0  0  0  0  0  0  0  0
   15.3140   17.4010   80.8330 C   0  0  0  0  0  0  0  0  0  0  0  0
   16.4550   17.2090   81.7090 C   0  0  0  0  0  0  0  0  0  0  0  0
   14.2990   17.5610   78.4870 C   0  0  0  0  0  0  0  0  0  0  0  0
   13.6960   18.9600   78.6360 C   0  0  2  0  0  0  0  0  0  0  0  0
   12.3880   18.9820   77.9620 N   0  0  0  0  0  0  0  0  0  0  0  0
   11.2440   20.2700   78.2180 S   0  0  0  0  0  0  0  0  0  0  0  0
    9.6420   19.6250   78.0160 O   0  0  0  0  0  0  0  0  0  0  0  0
   11.5240   20.8180   79.7740 O   0  0  0  0  0  0  0  0  0  0  0  0
   15.6240   21.0190   76.0430 C   0  0  0  0  0  0  0  0  0  0  0  0
   14.7900   20.0250   76.7400 N   0  0  0  0  0  0  0  0  0  0  0  0
   14.6740   19.9710   78.0630 C   0  0  0  0  0  0  0  0  0  0  0  0
   11.5530   22.3420   74.5890 C   0  0  0  0  0  0  0  0  0  0  0  0
   12.4470   23.4430   74.9620 C   0  0  0  0  0  0  0  0  0  0  0  0
   11.1610   21.3480   75.5920 C   0  0  0  0  0  0  0  0  0  0  0  0
   11.6610   21.4580   76.9640 C   0  0  0  0  0  0  0  0  0  0  0  0
   12.5520   22.5580   77.3380 C   0  0  0  0  0  0  0  0  0  0  0  0
   12.9470   23.5510   76.3360 C   0  0  0  0  0  0  0  0  0  0  0  0
   16.8840   19.3850   74.5090 C   0  0  0  0  0  0  0  0  0  0  0  0
   16.9930   20.4720   75.5760 C   0  0  0  0  0  0  0  0  0  0  0  0
   15.3550   20.6900   78.7890 O   0  0  0  0  0  0  0  0  0  0  0  0
   16.2490   17.2640   83.3700 Cl  0  0  0  0  0  0  0  0  0  0  0  0
   16.6110   18.0160   75.1240 C   0  0  0  0  0  0  0  0  0  0  0  0
   16.5800   16.9240   74.0610 C   0  0  0  0  0  0  0  0  0  0  0  0
   18.0560   16.2540   72.2310 C   0  0  0  0  0  0  0  0  0  0  0  0
   17.0590   15.4080   71.5800 C   0  0  0  0  0  0  0  0  0  0  0  0
   17.2940   14.9160   70.2220 C   0  0  0  0  0  0  0  0  0  0  0  0
   18.5240   15.2680   69.5230 C   0  0  0  0  0  0  0  0  0  0  0  0
   19.5160   16.1110   70.1790 C   0  0  0  0  0  0  0  0  0  0  0  0
   19.2750   16.6050   71.5350 C   0  0  0  0  0  0  0  0  0  0  0  0
   20.2970   17.4880   72.2110 C   0  0  0  0  0  0  0  0  0  0  0  0
   21.4760   17.0340   72.4170 O   0  0  0  0  0  0  0  0  0  0  0  0
   19.9200   18.6190   72.6640 O   0  0  0  0  0  0  0  0  0  0  0  0
   20.8060   19.3240   73.3860 C   0  0  0  0  0  0  0  0  0  0  0  0
   20.6570   16.4220   69.5450 O   0  0  0  0  0  0  0  0  0  0  0  0
   17.8500   16.6970   73.4780 O   0  0  0  0  0  0  0  0  0  0  0  0
   18.7059   17.1996   83.0475 H   0  0  0  0  0  0  0  0  0  0  0  0
   20.3271   18.4112   81.9323 H   0  0  0  0  0  0  0  0  0  0  0  0
   20.3809   17.2715   80.5449 H   0  0  0  0  0  0  0  0  0  0  0  0
   21.7094   14.7579   83.1476 H   0  0  0  0  0  0  0  0  0  0  0  0
   18.9620   16.7856   79.2760 H   0  0  0  0  0  0  0  0  0  0  0  0
   16.9525   17.1281   77.7340 H   0  0  0  0  0  0  0  0  0  0  0  0
   14.3298   17.5685   81.2553 H   0  0  0  0  0  0  0  0  0  0  0  0
   13.5336   16.8138   78.7438 H   0  0  0  0  0  0  0  0  0  0  0  0
   14.6149   17.4184   77.4430 H   0  0  0  0  0  0  0  0  0  0  0  0
   13.5451   19.1829   79.7025 H   0  0  0  0  0  0  0  0  0  0  0  0
   12.1494   18.2366   77.3396 H   0  0  0  0  0  0  0  0  0  0  0  0
   15.8029   21.8616   76.7270 H   0  0  0  0  0  0  0  0  0  0  0  0
   15.0735   21.3744   75.1595 H   0  0  0  0  0  0  0  0  0  0  0  0
   14.2863   19.3580   76.1909 H   0  0  0  0  0  0  0  0  0  0  0  0
   11.1828   22.2635   73.5732 H   0  0  0  0  0  0  0  0  0  0  0  0
   12.7386   24.1782   74.2207 H   0  0  0  0  0  0  0  0  0  0  0  0
   10.5016   20.5322   75.3186 H   0  0  0  0  0  0  0  0  0  0  0  0
   12.9189   22.6375   78.3549 H   0  0  0  0  0  0  0  0  0  0  0  0
   13.6084   24.3649   76.6102 H   0  0  0  0  0  0  0  0  0  0  0  0
   17.8285   19.3413   73.9469 H   0  0  0  0  0  0  0  0  0  0  0  0
   16.0612   19.6387   73.8244 H   0  0  0  0  0  0  0  0  0  0  0  0
   17.5159   20.0523   76.4480 H   0  0  0  0  0  0  0  0  0  0  0  0
   17.5790   21.3067   75.1638 H   0  0  0  0  0  0  0  0  0  0  0  0
   15.6390   18.0422   75.6383 H   0  0  0  0  0  0  0  0  0  0  0  0
   17.4042   17.7856   75.8505 H   0  0  0  0  0  0  0  0  0  0  0  0
   15.8770   17.2225   73.2693 H   0  0  0  0  0  0  0  0  0  0  0  0
   16.2334   15.9892   74.5258 H   0  0  0  0  0  0  0  0  0  0  0  0
   16.1462   15.1449   72.1022 H   0  0  0  0  0  0  0  0  0  0  0  0
   16.5541   14.2903   69.7362 H   0  0  0  0  0  0  0  0  0  0  0  0
   18.7005   14.9036   68.5175 H   0  0  0  0  0  0  0  0  0  0  0  0
   20.3463   20.2700   73.7083 H   0  0  0  0  0  0  0  0  0  0  0  0
   21.6926   19.5380   72.7711 H   0  0  0  0  0  0  0  0  0  0  0  0
   21.1047   18.7416   74.2701 H   0  0  0  0  0  0  0  0  0  0  0  0
   20.6562   16.0261   68.6814 H   0  0  0  0  0  0  0  0  0  0  0  0
  1  2  1  0  0  0  0
  1  5  1  0  0  0  0
  1 48  1  1  0  0  0
  2  3  1  0  0  0  0
  2 49  1  0  0  0  0
  2 50  1  0  0  0  0
  3  8  2  0  0  0  0
  4  3  1  0  0  0  0
  4 51  1  0  0  0  0
  5  4  1  0  0  0  0
  5  6  2  0  0  0  0
  5  7  2  0  0  0  0
  9  1  1  0  0  0  0
 10  9  2  0  0  0  0
 10 52  1  0  0  0  0
 11 10  1  0  0  0  0
 11 53  1  0  0  0  0
 12 11  2  0  0  0  0
 12 13  1  0  0  0  0
 13 14  2  0  0  0  0
 13 54  1  0  0  0  0
 14  9  1  0  0  0  0
 14 33  1  0  0  0  0
 15 12  1  0  0  0  0
 15 55  1  0  0  0  0
 15 56  1  0  0  0  0
 16 15  1  0  0  0  0
 16 17  1  0  0  0  0
 16 57  1  1  0  0  0
 17 18  1  0  0  0  0
 17 58  1  0  0  0  0
 18 19  2  0  0  0  0
 18 20  2  0  0  0  0
 18 27  1  0  0  0  0
 21 22  1  0  0  0  0
 21 59  1  0  0  0  0
 21 60  1  0  0  0  0
 22 23  1  0  0  0  0
 22 61  1  0  0  0  0
 23 16  1  0  0  0  0
 23 32  2  0  0  0  0
 24 25  2  0  0  0  0
 24 62  1  0  0  0  0
 25 63  1  0  0  0  0
 26 24  1  0  0  0  0
 26 64  1  0  0  0  0
 27 26  2  0  0  0  0
 27 28  1  0  0  0  0
 28 29  2  0  0  0  0
 28 65  1  0  0  0  0
 29 25  1  0  0  0  0
 29 66  1  0  0  0  0
 30 31  1  0  0  0  0
 30 67  1  0  0  0  0
 30 68  1  0  0  0  0
 31 21  1  0  0  0  0
 31 69  1  0  0  0  0
 31 70  1  0  0  0  0
 34 30  1  0  0  0  0
 34 71  1  0  0  0  0
 34 72  1  0  0  0  0
 35 34  1  0  0  0  0
 35 73  1  0  0  0  0
 35 74  1  0  0  0  0
 36 37  2  0  0  0  0
 36 41  1  0  0  0  0
 36 47  1  0  0  0  0
 37 38  1  0  0  0  0
 37 75  1  0  0  0  0
 38 39  2  0  0  0  0
 38 76  1  0  0  0  0
 39 40  1  0  0  0  0
 39 77  1  0  0  0  0
 40 41  2  0  0  0  0
 40 46  1  0  0  0  0
 41 42  1  0  0  0  0
 42 43  2  0  0  0  0
 42 44  1  0  0  0  0
 44 45  1  0  0  0  0
 45 78  1  0  0  0  0
 45 79  1  0  0  0  0
 45 80  1  0  0  0  0
 46 81  1  0  0  0  0
 47 35  1  0  0  0  0
M  END
