2csm_ligand
 OpenBabel08222323343D

 24 24  0  0  1  0  0  0  0  0999 V2000
   73.0690   71.4500   17.7680 N   0  3  0  0  0  0  0  0  0  0  0  0
   71.8060   72.1970   17.8620 C   0  0  2  0  0  0  0  0  0  0  0  0
   72.0030   73.5330   17.1720 C   0  0  0  0  0  0  0  0  0  0  0  0
   73.1500   73.8800   16.8340 O   0  5  0  0  0  0  0  0  0  0  0  0
   71.4050   72.3760   19.3310 C   0  0  0  0  0  0  0  0  0  0  0  0
   72.4570   73.0060   20.2280 C   0  0  0  0  0  0  0  0  0  0  0  0
   72.7510   74.3690   20.1480 C   0  0  0  0  0  0  0  0  0  0  0  0
   73.0930   72.2600   21.2230 C   0  0  0  0  0  0  0  0  0  0  0  0
   73.6440   74.9790   21.0450 C   0  0  0  0  0  0  0  0  0  0  0  0
   73.9880   72.8620   22.1240 C   0  0  0  0  0  0  0  0  0  0  0  0
   74.2540   74.2190   22.0310 C   0  0  0  0  0  0  0  0  0  0  0  0
   75.0990   74.8030   22.9570 O   0  0  0  0  0  0  0  0  0  0  0  0
   70.9930   74.1880   16.9080 O   0  0  0  0  0  0  0  0  0  0  0  0
   72.9646   70.5553   18.2204 H   0  0  0  0  0  0  0  0  0  0  0  0
   73.8027   71.9720   18.2210 H   0  0  0  0  0  0  0  0  0  0  0  0
   73.3055   71.3105   16.7981 H   0  0  0  0  0  0  0  0  0  0  0  0
   71.0116   71.6382   17.3457 H   0  0  0  0  0  0  0  0  0  0  0  0
   71.1633   71.3835   19.7389 H   0  0  0  0  0  0  0  0  0  0  0  0
   70.5089   73.0132   19.3617 H   0  0  0  0  0  0  0  0  0  0  0  0
   72.2803   74.9690   19.3776 H   0  0  0  0  0  0  0  0  0  0  0  0
   72.8927   71.1976   21.3017 H   0  0  0  0  0  0  0  0  0  0  0  0
   73.8551   76.0393   20.9664 H   0  0  0  0  0  0  0  0  0  0  0  0
   74.4696   72.2658   22.8906 H   0  0  0  0  0  0  0  0  0  0  0  0
   75.1843   75.7297   22.7660 H   0  0  0  0  0  0  0  0  0  0  0  0
  1  2  1  0  0  0  0
  1 14  1  0  0  0  0
  1 15  1  0  0  0  0
  1 16  1  0  0  0  0
  2  3  1  0  0  0  0
  2  5  1  0  0  0  0
  2 17  1  6  0  0  0
  3  4  1  0  0  0  0
  3 13  2  0  0  0  0
  5  6  1  0  0  0  0
  5 18  1  0  0  0  0
  5 19  1  0  0  0  0
  6  7  2  0  0  0  0
  6  8  1  0  0  0  0
  7  9  1  0  0  0  0
  7 20  1  0  0  0  0
  8 10  2  0  0  0  0
  8 21  1  0  0  0  0
  9 11  2  0  0  0  0
  9 22  1  0  0  0  0
 10 11  1  0  0  0  0
 10 23  1  0  0  0  0
 11 12  1  0  0  0  0
 12 24  1  0  0  0  0
M  CHG  2   1   1   4  -1
M  END
