2d41_ligand
 OpenBabel08222323343D

 44 46  0  0  0  0  0  0  0  0999 V2000
    9.0610   32.4490   72.4310 C   0  0  0  0  0  0  0  0  0  0  0  0
    8.8610   33.1760   73.5840 C   0  0  0  0  0  0  0  0  0  0  0  0
    7.4890   33.5370   73.8300 C   0  0  0  0  0  0  0  0  0  0  0  0
    6.6630   33.0540   72.8140 C   0  0  0  0  0  0  0  0  0  0  0  0
    7.5930   32.1870   71.6260 S   0  0  0  0  0  0  0  0  0  0  0  0
    5.1930   33.2310   72.7220 C   0  0  0  0  0  0  0  0  0  0  0  0
    4.6080   32.7310   71.7430 O   0  5  0  0  0  0  0  0  0  0  0  0
    4.5800   33.8640   73.6070 O   0  0  0  0  0  0  0  0  0  0  0  0
    7.0370   34.2700   74.9450 N   0  0  0  0  0  0  0  0  0  0  0  0
    7.8650   35.5180   75.7150 S   0  0  0  0  0  0  0  0  0  0  0  0
    7.0040   36.1520   76.6860 O   0  0  0  0  0  0  0  0  0  0  0  0
    9.0630   34.9350   76.3010 O   0  0  0  0  0  0  0  0  0  0  0  0
    8.3010   36.7670   74.4830 C   0  0  0  0  0  0  0  0  0  0  0  0
    9.6810   36.9320   74.1700 C   0  0  0  0  0  0  0  0  0  0  0  0
   10.1080   37.8840   73.2120 C   0  0  0  0  0  0  0  0  0  0  0  0
    9.1630   38.6990   72.5400 C   0  0  0  0  0  0  0  0  0  0  0  0
    7.7820   38.5350   72.8510 C   0  0  0  0  0  0  0  0  0  0  0  0
    7.3250   37.5810   73.8130 C   0  0  0  0  0  0  0  0  0  0  0  0
    5.8310   37.4860   74.0660 C   0  0  0  0  0  0  0  0  0  0  0  0
    9.5970   39.7140   71.5210 C   0  0  0  0  0  0  0  0  0  0  0  0
   10.3490   31.9400   71.9220 C   0  0  0  0  0  0  0  0  0  0  0  0
   10.4980   30.8230   71.1280 C   0  0  0  0  0  0  0  0  0  0  0  0
   11.8410   30.5560   70.7840 C   0  0  0  0  0  0  0  0  0  0  0  0
   12.7230   31.4800   71.3220 C   0  0  0  0  0  0  0  0  0  0  0  0
   11.8710   32.6570   72.2370 S   0  0  0  0  0  0  0  0  0  0  0  0
   14.2080   31.4610   71.1380 C   0  0  0  0  0  0  0  0  0  0  0  0
   14.8470   30.3610   70.2990 C   0  0  0  0  0  0  0  0  0  0  0  0
   14.9220   32.3130   71.6490 O   0  0  0  0  0  0  0  0  0  0  0  0
    9.6732   33.4545   74.2538 H   0  0  0  0  0  0  0  0  0  0  0  0
    6.1401   34.0263   75.3139 H   0  0  0  0  0  0  0  0  0  0  0  0
   10.4180   36.3176   74.6744 H   0  0  0  0  0  0  0  0  0  0  0  0
   11.1640   37.9899   72.9915 H   0  0  0  0  0  0  0  0  0  0  0  0
    7.0532   39.1545   72.3409 H   0  0  0  0  0  0  0  0  0  0  0  0
    5.6361   36.7143   74.8252 H   0  0  0  0  0  0  0  0  0  0  0  0
    5.3170   37.2185   73.1310 H   0  0  0  0  0  0  0  0  0  0  0  0
    5.4575   38.4563   74.4252 H   0  0  0  0  0  0  0  0  0  0  0  0
   10.6923   39.6893   71.4223 H   0  0  0  0  0  0  0  0  0  0  0  0
    9.2805   40.7166   71.8443 H   0  0  0  0  0  0  0  0  0  0  0  0
    9.1361   39.4792   70.5502 H   0  0  0  0  0  0  0  0  0  0  0  0
    9.6623   30.2073   70.7986 H   0  0  0  0  0  0  0  0  0  0  0  0
   12.1501   29.7159   70.1638 H   0  0  0  0  0  0  0  0  0  0  0  0
   15.9372   30.5054   70.2741 H   0  0  0  0  0  0  0  0  0  0  0  0
   14.4482   30.4026   69.2747 H   0  0  0  0  0  0  0  0  0  0  0  0
   14.6170   29.3810   70.7426 H   0  0  0  0  0  0  0  0  0  0  0  0
  1  2  2  0  0  0  0
  1  5  1  0  0  0  0
  1 21  1  0  0  0  0
  2  3  1  0  0  0  0
  2 29  1  0  0  0  0
  3  4  2  0  0  0  0
  3  9  1  0  0  0  0
  4  5  1  0  0  0  0
  4  6  1  0  0  0  0
  6  7  1  0  0  0  0
  6  8  2  0  0  0  0
  9 10  1  0  0  0  0
  9 30  1  0  0  0  0
 10 11  2  0  0  0  0
 10 12  2  0  0  0  0
 10 13  1  0  0  0  0
 13 14  2  0  0  0  0
 13 18  1  0  0  0  0
 14 15  1  0  0  0  0
 14 31  1  0  0  0  0
 15 16  2  0  0  0  0
 15 32  1  0  0  0  0
 16 17  1  0  0  0  0
 16 20  1  0  0  0  0
 17 18  2  0  0  0  0
 17 33  1  0  0  0  0
 18 19  1  0  0  0  0
 19 34  1  0  0  0  0
 19 35  1  0  0  0  0
 19 36  1  0  0  0  0
 20 37  1  0  0  0  0
 20 38  1  0  0  0  0
 20 39  1  0  0  0  0
 21 22  2  0  0  0  0
 21 25  1  0  0  0  0
 22 23  1  0  0  0  0
 22 40  1  0  0  0  0
 23 24  2  0  0  0  0
 23 41  1  0  0  0  0
 24 25  1  0  0  0  0
 24 26  1  0  0  0  0
 26 27  1  0  0  0  0
 26 28  2  0  0  0  0
 27 42  1  0  0  0  0
 27 43  1  0  0  0  0
 27 44  1  0  0  0  0
M  CHG  1   7  -1
M  END
