2dbl_ligand
 OpenBabel08222323343D

 67 70  0  0  1  0  0  0  0  0999 V2000
  -19.6090   43.2120  -15.0920 C   0  0  0  0  0  0  0  0  0  0  0  0
  -18.2840   42.9280  -15.8780 C   0  0  0  0  0  0  0  0  0  0  0  0
  -17.0210   43.6270  -15.3230 C   0  0  2  0  0  0  0  0  0  0  0  0
  -15.8150   43.1030  -15.9000 O   0  0  0  0  0  0  0  0  0  0  0  0
  -17.0020   43.4450  -13.7690 C   0  0  0  0  0  0  0  0  0  0  0  0
  -18.1920   44.1920  -13.1820 C   0  0  2  0  0  0  0  0  0  0  0  0
  -18.0910   44.3490  -11.6990 C   0  0  0  0  0  0  0  0  0  0  0  0
  -19.2540   45.1550  -11.1500 C   0  0  0  0  0  0  0  0  0  0  0  0
  -20.6460   44.6780  -11.6080 C   0  0  2  0  0  0  0  0  0  0  0  0
  -20.6780   44.4100  -13.1300 C   0  0  1  0  0  0  0  0  0  0  0  0
  -19.5160   43.4610  -13.5270 C   0  0  1  0  0  0  0  0  0  0  0  0
  -22.0670   43.9550  -13.5650 C   0  0  0  0  0  0  0  0  0  0  0  0
  -23.2140   44.8570  -13.0210 C   0  0  0  0  0  0  0  0  0  0  0  0
  -23.0010   45.2830  -11.5450 C   0  0  1  0  0  0  0  0  0  0  0  0
  -21.6360   45.7790  -11.3530 C   0  0  1  0  0  0  0  0  0  0  0  0
  -21.6730   46.4880  -10.0120 C   0  0  0  0  0  0  0  0  0  0  0  0
  -23.1430   46.9640   -9.8590 C   0  0  0  0  0  0  0  0  0  0  0  0
  -23.9250   46.3880  -11.0620 C   0  0  2  0  0  0  0  0  0  0  0  0
  -23.1810   44.0340  -10.6790 C   0  0  0  0  0  0  0  0  0  0  0  0
  -19.6290   42.1340  -12.7500 C   0  0  0  0  0  0  0  0  0  0  0  0
  -25.3060   45.9000  -10.7100 C   0  0  0  0  0  0  0  0  0  0  0  0
  -25.5100   45.1730   -9.7510 O   0  0  0  0  0  0  0  0  0  0  0  0
  -26.4650   46.2830  -11.5540 C   0  0  0  0  0  0  0  0  0  0  0  0
  -15.7850   42.3040  -16.8680 C   0  0  0  0  0  0  0  0  0  0  0  0
  -16.1250   42.6330  -18.0320 O   0  0  0  0  0  0  0  0  0  0  0  0
  -15.2480   40.8890  -16.6710 C   0  0  0  0  0  0  0  0  0  0  0  0
  -13.7450   40.8590  -16.6750 C   0  0  0  0  0  0  0  0  0  0  0  0
  -13.1960   41.4700  -15.4050 C   0  0  0  0  0  0  0  0  0  0  0  0
  -13.9720   41.4280  -14.3970 O   0  5  0  0  0  0  0  0  0  0  0  0
  -12.0220   41.9830  -15.4060 O   0  0  0  0  0  0  0  0  0  0  0  0
  -20.2707   42.3468  -15.2455 H   0  0  0  0  0  0  0  0  0  0  0  0
  -20.0667   44.1074  -15.5377 H   0  0  0  0  0  0  0  0  0  0  0  0
  -18.4274   43.2609  -16.9166 H   0  0  0  0  0  0  0  0  0  0  0  0
  -18.1059   41.8426  -15.8621 H   0  0  0  0  0  0  0  0  0  0  0  0
  -17.0792   44.6999  -15.5587 H   0  0  0  0  0  0  0  0  0  0  0  0
  -16.0673   43.8547  -13.3585 H   0  0  0  0  0  0  0  0  0  0  0  0
  -17.0747   42.3762  -13.5194 H   0  0  0  0  0  0  0  0  0  0  0  0
  -18.2179   45.1951  -13.6326 H   0  0  0  0  0  0  0  0  0  0  0  0
  -17.1507   44.8657  -11.4564 H   0  0  0  0  0  0  0  0  0  0  0  0
  -18.0931   43.3530  -11.2321 H   0  0  0  0  0  0  0  0  0  0  0  0
  -19.1279   46.1995  -11.4709 H   0  0  0  0  0  0  0  0  0  0  0  0
  -19.2186   45.1020  -10.0519 H   0  0  0  0  0  0  0  0  0  0  0  0
  -20.9257   43.7678  -11.0573 H   0  0  0  0  0  0  0  0  0  0  0  0
  -20.4896   45.3669  -13.6387 H   0  0  0  0  0  0  0  0  0  0  0  0
  -22.2277   42.9296  -13.2006 H   0  0  0  0  0  0  0  0  0  0  0  0
  -22.1082   43.9642  -14.6642 H   0  0  0  0  0  0  0  0  0  0  0  0
  -24.1608   44.3016  -13.0924 H   0  0  0  0  0  0  0  0  0  0  0  0
  -23.2725   45.7628  -13.6424 H   0  0  0  0  0  0  0  0  0  0  0  0
  -21.4271   46.5480  -12.1113 H   0  0  0  0  0  0  0  0  0  0  0  0
  -20.9849   47.3462  -10.0077 H   0  0  0  0  0  0  0  0  0  0  0  0
  -21.4025   45.7969   -9.2001 H   0  0  0  0  0  0  0  0  0  0  0  0
  -23.1884   48.0630   -9.8687 H   0  0  0  0  0  0  0  0  0  0  0  0
  -23.5670   46.5878   -8.9163 H   0  0  0  0  0  0  0  0  0  0  0  0
  -24.0306   47.1566  -11.8418 H   0  0  0  0  0  0  0  0  0  0  0  0
  -22.5084   43.2402  -11.0361 H   0  0  0  0  0  0  0  0  0  0  0  0
  -24.2233   43.6888  -10.7454 H   0  0  0  0  0  0  0  0  0  0  0  0
  -22.9406   44.2752   -9.6331 H   0  0  0  0  0  0  0  0  0  0  0  0
  -18.8016   41.4688  -13.0381 H   0  0  0  0  0  0  0  0  0  0  0  0
  -20.5880   41.6504  -12.9877 H   0  0  0  0  0  0  0  0  0  0  0  0
  -19.5779   42.3360  -11.6699 H   0  0  0  0  0  0  0  0  0  0  0  0
  -27.3818   45.8355  -11.1427 H   0  0  0  0  0  0  0  0  0  0  0  0
  -26.3077   45.9189  -12.5800 H   0  0  0  0  0  0  0  0  0  0  0  0
  -26.5647   47.3784  -11.5648 H   0  0  0  0  0  0  0  0  0  0  0  0
  -15.6194   40.2501  -17.4858 H   0  0  0  0  0  0  0  0  0  0  0  0
  -15.6097   40.5014  -15.7072 H   0  0  0  0  0  0  0  0  0  0  0  0
  -13.3745   41.4291  -17.5397 H   0  0  0  0  0  0  0  0  0  0  0  0
  -13.4046   39.8157  -16.7505 H   0  0  0  0  0  0  0  0  0  0  0  0
  1  2  1  0  0  0  0
  1 11  1  0  0  0  0
  1 31  1  0  0  0  0
  1 32  1  0  0  0  0
  2  3  1  0  0  0  0
  2 33  1  0  0  0  0
  2 34  1  0  0  0  0
  3  4  1  0  0  0  0
  3  5  1  0  0  0  0
  3 35  1  6  0  0  0
  4 24  1  0  0  0  0
  5  6  1  0  0  0  0
  5 36  1  0  0  0  0
  5 37  1  0  0  0  0
  6  7  1  0  0  0  0
  6 11  1  0  0  0  0
  6 38  1  6  0  0  0
  7  8  1  0  0  0  0
  7 39  1  0  0  0  0
  7 40  1  0  0  0  0
  8  9  1  0  0  0  0
  8 41  1  0  0  0  0
  8 42  1  0  0  0  0
  9 10  1  0  0  0  0
  9 15  1  0  0  0  0
  9 43  1  1  0  0  0
 10 11  1  0  0  0  0
 10 12  1  0  0  0  0
 10 44  1  6  0  0  0
 11 20  1  1  0  0  0
 12 13  1  0  0  0  0
 12 45  1  0  0  0  0
 12 46  1  0  0  0  0
 13 14  1  0  0  0  0
 13 47  1  0  0  0  0
 13 48  1  0  0  0  0
 14 15  1  0  0  0  0
 14 18  1  0  0  0  0
 14 19  1  1  0  0  0
 15 16  1  0  0  0  0
 15 49  1  6  0  0  0
 16 17  1  0  0  0  0
 16 50  1  0  0  0  0
 16 51  1  0  0  0  0
 17 18  1  0  0  0  0
 17 52  1  0  0  0  0
 17 53  1  0  0  0  0
 18 21  1  0  0  0  0
 18 54  1  6  0  0  0
 19 55  1  0  0  0  0
 19 56  1  0  0  0  0
 19 57  1  0  0  0  0
 20 58  1  0  0  0  0
 20 59  1  0  0  0  0
 20 60  1  0  0  0  0
 21 22  2  0  0  0  0
 21 23  1  0  0  0  0
 23 61  1  0  0  0  0
 23 62  1  0  0  0  0
 23 63  1  0  0  0  0
 24 25  2  0  0  0  0
 24 26  1  0  0  0  0
 26 27  1  0  0  0  0
 26 64  1  0  0  0  0
 26 65  1  0  0  0  0
 27 28  1  0  0  0  0
 27 66  1  0  0  0  0
 27 67  1  0  0  0  0
 28 29  1  0  0  0  0
 28 30  2  0  0  0  0
M  CHG  1  29  -1
M  END
