2dq7_ligand
 OpenBabel08222323343D

 62 69  0  0  1  0  0  0  0  0999 V2000
  -15.0110   20.1620  -13.9350 O   0  0  0  0  0  0  0  0  0  0  0  0
  -14.8410   18.9340  -14.6700 C   0  0  2  0  0  0  0  0  0  0  0  0
  -15.7380   18.7990  -15.9230 C   0  0  0  0  0  0  0  0  0  0  0  0
  -16.4480   20.0920  -16.1960 C   0  0  2  0  0  0  0  0  0  0  0  0
  -17.2790   20.3420  -14.9420 C   0  0  2  0  0  0  0  0  0  0  0  0
  -16.3160   20.6850  -13.7260 C   0  0  2  0  0  0  0  0  0  0  0  0
  -16.0520   22.1960  -13.5440 C   0  0  0  0  0  0  0  0  0  0  0  0
  -16.9390   20.2490  -12.4460 N   0  0  0  0  0  0  0  0  0  0  0  0
  -16.7450   18.9490  -12.1130 C   0  0  0  0  0  0  0  0  0  0  0  0
  -15.9190   17.9010  -12.6540 C   0  0  0  0  0  0  0  0  0  0  0  0
  -15.8730   16.6270  -11.9850 C   0  0  0  0  0  0  0  0  0  0  0  0
  -16.6140   16.3480  -10.7920 C   0  0  0  0  0  0  0  0  0  0  0  0
  -17.4360   17.3700  -10.2580 C   0  0  0  0  0  0  0  0  0  0  0  0
  -17.4610   18.6370  -10.9240 C   0  0  0  0  0  0  0  0  0  0  0  0
  -18.2560   19.7840  -10.5930 C   0  0  0  0  0  0  0  0  0  0  0  0
  -17.8200   20.7400  -11.5370 C   0  0  0  0  0  0  0  0  0  0  0  0
  -18.4210   21.9960  -11.5170 C   0  0  0  0  0  0  0  0  0  0  0  0
  -19.3910   22.3400  -10.5460 C   0  0  0  0  0  0  0  0  0  0  0  0
  -19.7650   21.3880   -9.5730 C   0  0  0  0  0  0  0  0  0  0  0  0
  -19.2000   20.0680   -9.5850 C   0  0  0  0  0  0  0  0  0  0  0  0
  -18.1120   16.7780   -9.0440 C   0  0  0  0  0  0  0  0  0  0  0  0
  -17.5470   15.3950   -9.0420 N   0  0  0  0  0  0  0  0  0  0  0  0
  -16.6510   15.1550  -10.0520 C   0  0  0  0  0  0  0  0  0  0  0  0
  -16.0100   14.1080  -10.2170 O   0  0  0  0  0  0  0  0  0  0  0  0
  -15.0000   15.7690  -12.7170 C   0  0  0  0  0  0  0  0  0  0  0  0
  -14.5650   16.6060  -13.8000 C   0  0  0  0  0  0  0  0  0  0  0  0
  -13.6730   16.0910  -14.7720 C   0  0  0  0  0  0  0  0  0  0  0  0
  -13.2370   14.7330  -14.6380 C   0  0  0  0  0  0  0  0  0  0  0  0
  -13.6650   13.9260  -13.5580 C   0  0  0  0  0  0  0  0  0  0  0  0
  -14.5650   14.4400  -12.5740 C   0  0  0  0  0  0  0  0  0  0  0  0
  -15.1080   17.8510  -13.7350 N   0  0  0  0  0  0  0  0  0  0  0  0
  -18.0390   19.1520  -14.7230 O   0  0  0  0  0  0  0  0  0  0  0  0
  -19.4150   19.3850  -14.3480 C   0  0  0  0  0  0  0  0  0  0  0  0
  -17.2800   19.9270  -17.4030 N   0  3  0  0  0  0  0  0  0  0  0  0
  -17.8560   21.2250  -17.8740 C   0  0  0  0  0  0  0  0  0  0  0  0
  -13.7945   18.8735  -15.0035 H   0  0  0  0  0  0  0  0  0  0  0  0
  -16.4810   18.0057  -15.7538 H   0  0  0  0  0  0  0  0  0  0  0  0
  -15.1135   18.5377  -16.7900 H   0  0  0  0  0  0  0  0  0  0  0  0
  -15.7328   20.9132  -16.3514 H   0  0  0  0  0  0  0  0  0  0  0  0
  -17.9622   21.1888  -15.1036 H   0  0  0  0  0  0  0  0  0  0  0  0
  -17.0056   22.7167  -13.3721 H   0  0  0  0  0  0  0  0  0  0  0  0
  -15.5738   22.5964  -14.4501 H   0  0  0  0  0  0  0  0  0  0  0  0
  -15.3887   22.3509  -12.6803 H   0  0  0  0  0  0  0  0  0  0  0  0
  -18.1386   22.7287  -12.2643 H   0  0  0  0  0  0  0  0  0  0  0  0
  -19.8427   23.3254  -10.5492 H   0  0  0  0  0  0  0  0  0  0  0  0
  -20.4859   21.6562   -8.8092 H   0  0  0  0  0  0  0  0  0  0  0  0
  -19.4865   19.3229   -8.8516 H   0  0  0  0  0  0  0  0  0  0  0  0
  -19.2060   16.7662   -9.1576 H   0  0  0  0  0  0  0  0  0  0  0  0
  -17.8444   17.3239   -8.1273 H   0  0  0  0  0  0  0  0  0  0  0  0
  -17.7999   14.7050   -8.3638 H   0  0  0  0  0  0  0  0  0  0  0  0
  -13.3296   16.7075  -15.5948 H   0  0  0  0  0  0  0  0  0  0  0  0
  -12.5654   14.3154  -15.3794 H   0  0  0  0  0  0  0  0  0  0  0  0
  -13.3064   12.9064  -13.4758 H   0  0  0  0  0  0  0  0  0  0  0  0
  -14.9006   13.8262  -11.7460 H   0  0  0  0  0  0  0  0  0  0  0  0
  -19.9230   18.4206  -14.2001 H   0  0  0  0  0  0  0  0  0  0  0  0
  -19.9221   19.9480  -15.1454 H   0  0  0  0  0  0  0  0  0  0  0  0
  -19.4473   19.9636  -13.4130 H   0  0  0  0  0  0  0  0  0  0  0  0
  -18.0356   19.2940  -17.1924 H   0  0  0  0  0  0  0  0  0  0  0  0
  -16.7112   19.5383  -18.1388 H   0  0  0  0  0  0  0  0  0  0  0  0
  -18.4660   21.0508  -18.7727 H   0  0  0  0  0  0  0  0  0  0  0  0
  -17.0401   21.9226  -18.1142 H   0  0  0  0  0  0  0  0  0  0  0  0
  -18.4855   21.6559  -17.0815 H   0  0  0  0  0  0  0  0  0  0  0  0
  1  2  1  0  0  0  0
  1  6  1  0  0  0  0
  2  3  1  0  0  0  0
  2 31  1  0  0  0  0
  2 36  1  6  0  0  0
  3  4  1  0  0  0  0
  3 37  1  0  0  0  0
  3 38  1  0  0  0  0
  4  5  1  0  0  0  0
  4 34  1  0  0  0  0
  4 39  1  6  0  0  0
  5  6  1  0  0  0  0
  5 32  1  0  0  0  0
  5 40  1  6  0  0  0
  6  7  1  1  0  0  0
  6  8  1  0  0  0  0
  7 41  1  0  0  0  0
  7 42  1  0  0  0  0
  7 43  1  0  0  0  0
  8  9  1  0  0  0  0
  8 16  1  0  0  0  0
  9 10  2  0  0  0  0
  9 14  1  0  0  0  0
 10 11  1  0  0  0  0
 10 31  1  0  0  0  0
 11 12  2  0  0  0  0
 11 25  1  0  0  0  0
 12 13  1  0  0  0  0
 12 23  1  0  0  0  0
 13 14  2  0  0  0  0
 13 21  1  0  0  0  0
 14 15  1  0  0  0  0
 15 16  2  0  0  0  0
 15 20  1  0  0  0  0
 16 17  1  0  0  0  0
 17 18  2  0  0  0  0
 17 44  1  0  0  0  0
 18 19  1  0  0  0  0
 18 45  1  0  0  0  0
 19 20  2  0  0  0  0
 19 46  1  0  0  0  0
 20 47  1  0  0  0  0
 21 22  1  0  0  0  0
 21 48  1  0  0  0  0
 21 49  1  0  0  0  0
 22 23  1  0  0  0  0
 22 50  1  0  0  0  0
 23 24  2  0  0  0  0
 25 26  2  0  0  0  0
 25 30  1  0  0  0  0
 26 27  1  0  0  0  0
 26 31  1  0  0  0  0
 27 28  2  0  0  0  0
 27 51  1  0  0  0  0
 28 29  1  0  0  0  0
 28 52  1  0  0  0  0
 29 30  2  0  0  0  0
 29 53  1  0  0  0  0
 30 54  1  0  0  0  0
 32 33  1  0  0  0  0
 33 55  1  0  0  0  0
 33 56  1  0  0  0  0
 33 57  1  0  0  0  0
 34 35  1  0  0  0  0
 34 58  1  0  0  0  0
 34 59  1  0  0  0  0
 35 60  1  0  0  0  0
 35 61  1  0  0  0  0
 35 62  1  0  0  0  0
M  CHG  1  34   1
M  END
