2dw7_ligand
 OpenBabel08222323343D

 14 13  0  0  1  0  0  0  0  0999 V2000
   10.2440   36.1510    9.1120 O   0  5  0  0  0  0  0  0  0  0  0  0
    9.5590   35.7970   11.1670 O   0  0  0  0  0  0  0  0  0  0  0  0
    9.5580   35.4350    9.9860 C   0  0  0  0  0  0  0  0  0  0  0  0
    8.8000   34.2380    9.4600 C   0  0  1  0  0  0  0  0  0  0  0  0
    9.4200   33.7600    8.2910 O   0  0  0  0  0  0  0  0  0  0  0  0
    8.7190   33.0500   10.4370 C   0  0  1  0  0  0  0  0  0  0  0  0
    8.7410   33.4950   11.7720 O   0  0  0  0  0  0  0  0  0  0  0  0
    7.4490   32.3030   10.2250 C   0  0  0  0  0  0  0  0  0  0  0  0
    7.4830   31.0720   10.2080 O   0  5  0  0  0  0  0  0  0  0  0  0
    6.2720   32.9380   10.0460 O   0  0  0  0  0  0  0  0  0  0  0  0
    7.7764   34.5642    9.2239 H   0  0  0  0  0  0  0  0  0  0  0  0
    9.4235   34.4451    7.6330 H   0  0  0  0  0  0  0  0  0  0  0  0
    9.5745   32.3815   10.2601 H   0  0  0  0  0  0  0  0  0  0  0  0
    9.5483   33.9692   11.9333 H   0  0  0  0  0  0  0  0  0  0  0  0
  1  3  1  0  0  0  0
  3  2  2  0  0  0  0
  3  4  1  0  0  0  0
  4  5  1  0  0  0  0
  4  6  1  0  0  0  0
  4 11  1  6  0  0  0
  5 12  1  0  0  0  0
  6  7  1  0  0  0  0
  6  8  1  0  0  0  0
  6 13  1  6  0  0  0
  7 14  1  0  0  0  0
  8  9  1  0  0  0  0
  8 10  2  0  0  0  0
M  CHG  2   1  -1   9  -1
M  END
