2e2b_ligand
 OpenBabel08222323343D

 75 79  0  0  1  0  0  0  0  0999 V2000
   15.6550   50.5460   16.6180 C   0  0  0  0  0  0  0  0  0  0  0  0
   16.7720   49.6800   16.8410 C   0  0  0  0  0  0  0  0  0  0  0  0
   16.6580   48.5680   17.7030 C   0  0  0  0  0  0  0  0  0  0  0  0
   15.4080   48.2740   18.3950 C   0  0  0  0  0  0  0  0  0  0  0  0
   14.2470   49.1670   18.1710 C   0  0  0  0  0  0  0  0  0  0  0  0
   14.4220   50.2630   17.2900 C   0  0  0  0  0  0  0  0  0  0  0  0
   12.8320   49.0030   18.8360 C   0  0  0  0  0  0  0  0  0  0  0  0
   12.9460   49.1650   20.1830 F   0  0  0  0  0  0  0  0  0  0  0  0
   12.3190   47.7720   18.5830 F   0  0  0  0  0  0  0  0  0  0  0  0
   11.9420   49.9650   18.4300 F   0  0  0  0  0  0  0  0  0  0  0  0
   15.4200   47.0200   19.3230 C   0  0  0  0  0  0  0  0  0  0  0  0
   16.6820   46.6270   20.0070 N   0  3  2  0  0  0  0  0  0  0  0  0
   16.6770   45.3040   20.6620 C   0  0  0  0  0  0  0  0  0  0  0  0
   17.1820   45.5670   22.0850 C   0  0  0  0  0  0  0  0  0  0  0  0
   18.0920   46.7950   21.8390 C   0  0  1  0  0  0  0  0  0  0  0  0
   17.1450   47.6240   21.0090 C   0  0  0  0  0  0  0  0  0  0  0  0
   18.6280   47.5080   23.0830 N   0  3  0  0  0  0  0  0  0  0  0  0
   19.5410   46.7250   23.9420 C   0  0  0  0  0  0  0  0  0  0  0  0
   19.2540   48.8230   22.6890 C   0  0  0  0  0  0  0  0  0  0  0  0
   11.5450   62.0160   12.1620 N   0  0  0  0  0  0  0  0  0  0  0  0
   10.6260   61.3800   11.4130 C   0  0  0  0  0  0  0  0  0  0  0  0
   10.6700   60.1010   11.0160 N   0  0  0  0  0  0  0  0  0  0  0  0
   11.7450   59.3640   11.4040 C   0  0  0  0  0  0  0  0  0  0  0  0
   12.8520   59.9020   12.2290 C   0  0  0  0  0  0  0  0  0  0  0  0
   12.6290   61.3150   12.5630 C   0  0  0  0  0  0  0  0  0  0  0  0
   13.9470   59.1190   12.6150 C   0  0  0  0  0  0  0  0  0  0  0  0
   13.9940   57.8030   12.2150 N   0  0  0  0  0  0  0  0  0  0  0  0
   15.0140   57.0320   12.5580 C   0  0  0  0  0  0  0  0  0  0  0  0
   16.0610   57.4220   13.2720 N   0  0  0  0  0  0  0  0  0  0  0  0
   16.1060   58.7230   13.7210 C   0  0  0  0  0  0  0  0  0  0  0  0
   15.0700   59.6490   13.4250 C   0  0  0  0  0  0  0  0  0  0  0  0
   14.9480   55.7250   12.0930 N   0  0  0  0  0  0  0  0  0  0  0  0
   15.7000   53.8490   13.3820 C   0  0  0  0  0  0  0  0  0  0  0  0
   16.6380   52.7710   13.6250 C   0  0  0  0  0  0  0  0  0  0  0  0
   17.7250   52.5870   12.7390 C   0  0  0  0  0  0  0  0  0  0  0  0
   17.8950   53.4590   11.6120 C   0  0  0  0  0  0  0  0  0  0  0  0
   16.9640   54.5200   11.3800 C   0  0  0  0  0  0  0  0  0  0  0  0
   15.8750   54.6970   12.2750 C   0  0  0  0  0  0  0  0  0  0  0  0
   17.2370   55.3920   10.1560 C   0  0  0  0  0  0  0  0  0  0  0  0
   16.5330   51.8610   14.7350 N   0  0  0  0  0  0  0  0  0  0  0  0
   15.6600   51.7530   15.7370 C   0  0  0  0  0  0  0  0  0  0  0  0
   14.8550   52.6550   15.9710 O   0  0  0  0  0  0  0  0  0  0  0  0
   17.7142   49.8797   16.3435 H   0  0  0  0  0  0  0  0  0  0  0  0
   17.5146   47.9210   17.8534 H   0  0  0  0  0  0  0  0  0  0  0  0
   13.5789   50.9216   17.1155 H   0  0  0  0  0  0  0  0  0  0  0  0
   15.1096   46.1631   18.7071 H   0  0  0  0  0  0  0  0  0  0  0  0
   14.6714   47.1966   20.1094 H   0  0  0  0  0  0  0  0  0  0  0  0
   17.3811   46.5874   19.2819 H   0  0  0  0  0  0  0  0  0  0  0  0
   17.3476   44.6089   20.1356 H   0  0  0  0  0  0  0  0  0  0  0  0
   15.6596   44.8865   20.6834 H   0  0  0  0  0  0  0  0  0  0  0  0
   17.7514   44.7120   22.4784 H   0  0  0  0  0  0  0  0  0  0  0  0
   16.3561   45.8047   22.7716 H   0  0  0  0  0  0  0  0  0  0  0  0
   18.9652   46.4982   21.2395 H   0  0  0  0  0  0  0  0  0  0  0  0
   16.3086   48.0051   21.6134 H   0  0  0  0  0  0  0  0  0  0  0  0
   17.6637   48.4665   20.5282 H   0  0  0  0  0  0  0  0  0  0  0  0
   17.8242   47.7193   23.6534 H   0  0  0  0  0  0  0  0  0  0  0  0
   19.8567   47.3399   24.7977 H   0  0  0  0  0  0  0  0  0  0  0  0
   20.4249   46.4251   23.3601 H   0  0  0  0  0  0  0  0  0  0  0  0
   19.0208   45.8274   24.3076 H   0  0  0  0  0  0  0  0  0  0  0  0
   18.5557   49.3851   22.0515 H   0  0  0  0  0  0  0  0  0  0  0  0
   20.1854   48.6344   22.1350 H   0  0  0  0  0  0  0  0  0  0  0  0
   19.4773   49.4083   23.5932 H   0  0  0  0  0  0  0  0  0  0  0  0
    9.7650   61.9594   11.0998 H   0  0  0  0  0  0  0  0  0  0  0  0
   11.7947   58.3268   11.0929 H   0  0  0  0  0  0  0  0  0  0  0  0
   13.3744   61.8233   13.1639 H   0  0  0  0  0  0  0  0  0  0  0  0
   16.9525   59.0485   14.3148 H   0  0  0  0  0  0  0  0  0  0  0  0
   15.0987   60.6765   13.7691 H   0  0  0  0  0  0  0  0  0  0  0  0
   14.1099   55.4838   11.5450 H   0  0  0  0  0  0  0  0  0  0  0  0
   14.8633   54.0012   14.0543 H   0  0  0  0  0  0  0  0  0  0  0  0
   18.4325   51.7841   12.9119 H   0  0  0  0  0  0  0  0  0  0  0  0
   18.7297   53.3135   10.9359 H   0  0  0  0  0  0  0  0  0  0  0  0
   18.1418   55.0325    9.6441 H   0  0  0  0  0  0  0  0  0  0  0  0
   17.3855   56.4344   10.4742 H   0  0  0  0  0  0  0  0  0  0  0  0
   16.3804   55.3370    9.4682 H   0  0  0  0  0  0  0  0  0  0  0  0
   17.2586   51.1734   14.7597 H   0  0  0  0  0  0  0  0  0  0  0  0
  1  2  2  0  0  0  0
  1  6  1  0  0  0  0
  2  3  1  0  0  0  0
  2 43  1  0  0  0  0
  3  4  2  0  0  0  0
  3 44  1  0  0  0  0
  4 11  1  0  0  0  0
  5  4  1  0  0  0  0
  5  7  1  0  0  0  0
  6  5  2  0  0  0  0
  6 45  1  0  0  0  0
  7  8  1  0  0  0  0
  7  9  1  0  0  0  0
  7 10  1  0  0  0  0
 11 12  1  0  0  0  0
 11 46  1  0  0  0  0
 11 47  1  0  0  0  0
 12 13  1  0  0  0  0
 12 16  1  0  0  0  0
 12 48  1  6  0  0  0
 13 14  1  0  0  0  0
 13 49  1  0  0  0  0
 13 50  1  0  0  0  0
 14 51  1  0  0  0  0
 14 52  1  0  0  0  0
 15 14  1  0  0  0  0
 15 17  1  0  0  0  0
 15 53  1  6  0  0  0
 16 15  1  0  0  0  0
 16 54  1  0  0  0  0
 16 55  1  0  0  0  0
 17 18  1  0  0  0  0
 17 19  1  0  0  0  0
 17 56  1  0  0  0  0
 18 57  1  0  0  0  0
 18 58  1  0  0  0  0
 18 59  1  0  0  0  0
 19 60  1  0  0  0  0
 19 61  1  0  0  0  0
 19 62  1  0  0  0  0
 20 21  2  0  0  0  0
 21 63  1  0  0  0  0
 22 21  1  0  0  0  0
 23 22  2  0  0  0  0
 23 64  1  0  0  0  0
 24 23  1  0  0  0  0
 24 25  2  0  0  0  0
 25 20  1  0  0  0  0
 25 65  1  0  0  0  0
 26 24  1  0  0  0  0
 26 31  1  0  0  0  0
 27 26  2  0  0  0  0
 28 27  1  0  0  0  0
 28 29  2  0  0  0  0
 29 30  1  0  0  0  0
 30 31  2  0  0  0  0
 30 66  1  0  0  0  0
 31 67  1  0  0  0  0
 32 28  1  0  0  0  0
 32 68  1  0  0  0  0
 33 38  1  0  0  0  0
 33 69  1  0  0  0  0
 34 33  2  0  0  0  0
 34 35  1  0  0  0  0
 35 36  2  0  0  0  0
 35 70  1  0  0  0  0
 36 37  1  0  0  0  0
 36 71  1  0  0  0  0
 37 39  1  0  0  0  0
 38 32  1  0  0  0  0
 38 37  2  0  0  0  0
 39 72  1  0  0  0  0
 39 73  1  0  0  0  0
 39 74  1  0  0  0  0
 40 34  1  0  0  0  0
 40 41  1  0  0  0  0
 40 75  1  0  0  0  0
 41  1  1  0  0  0  0
 41 42  2  0  0  0  0
M  CHG  2  12   1  17   1
M  END
