2e93_ligand
 OpenBabel08222323343D

 44 47  0  0  0  0  0  0  0  0999 V2000
   28.7180   45.6620   16.0090 C   0  0  0  0  0  0  0  0  0  0  0  0
   28.8110   45.0750   17.2650 C   0  0  0  0  0  0  0  0  0  0  0  0
   29.7530   45.5310   18.1810 C   0  0  0  0  0  0  0  0  0  0  0  0
   30.5920   46.5860   17.8410 C   0  0  0  0  0  0  0  0  0  0  0  0
   30.4910   47.1780   16.5850 C   0  0  0  0  0  0  0  0  0  0  0  0
   29.5560   46.7160   15.6630 C   0  0  0  0  0  0  0  0  0  0  0  0
   29.3680   46.9950   14.3370 O   0  0  0  0  0  0  0  0  0  0  0  0
   28.4430   46.1320   13.8280 C   0  0  0  0  0  0  0  0  0  0  0  0
   28.0340   45.2910   14.8580 C   0  0  0  0  0  0  0  0  0  0  0  0
   27.1820   44.2210   14.5920 C   0  0  0  0  0  0  0  0  0  0  0  0
   26.7360   44.0050   13.2920 C   0  0  0  0  0  0  0  0  0  0  0  0
   27.1300   44.8640   12.2680 C   0  0  0  0  0  0  0  0  0  0  0  0
   27.9840   45.9300   12.5300 C   0  0  0  0  0  0  0  0  0  0  0  0
   28.3710   46.7800   11.5000 C   0  0  0  0  0  0  0  0  0  0  0  0
   28.7110   46.2500   10.2600 C   0  0  0  0  0  0  0  0  0  0  0  0
   28.4540   48.1560   11.6950 C   0  0  0  0  0  0  0  0  0  0  0  0
   28.8650   48.9930   10.6610 C   0  0  0  0  0  0  0  0  0  0  0  0
   29.2050   48.4530    9.4240 C   0  0  0  0  0  0  0  0  0  0  0  0
   29.1360   47.0780    9.2240 C   0  0  0  0  0  0  0  0  0  0  0  0
   29.6740   46.4280    7.9430 C   0  0  0  0  0  0  0  0  0  0  0  0
   29.0730   46.9280    6.6250 C   0  0  0  0  0  0  0  0  0  0  0  0
   29.7820   45.8270    5.2990 P   0  0  0  0  0  0  0  0  0  0  0  0
   29.4530   46.4590    3.8620 O   0  0  0  0  0  1  0  0  0  0  0  0
   31.3590   46.0250    5.5480 O   0  0  0  0  0  1  0  0  0  0  0  0
   29.3550   44.4150    5.4330 O   0  0  0  0  0  0  0  0  0  0  0  0
   27.2080   46.8410    6.6760 P   0  0  0  0  0  0  0  0  0  0  0  0
   26.8550   45.5290    7.5310 O   0  0  0  0  0  1  0  0  0  0  0  0
   26.7840   48.1310    7.5450 O   0  0  0  0  0  1  0  0  0  0  0  0
   26.5750   46.8840    5.3420 O   0  0  0  0  0  0  0  0  0  0  0  0
   29.4970   48.2720    6.3760 O   0  0  0  0  0  0  0  0  0  0  0  0
   28.1479   44.2599   17.5315 H   0  0  0  0  0  0  0  0  0  0  0  0
   29.8327   45.0654   19.1567 H   0  0  0  0  0  0  0  0  0  0  0  0
   31.3246   46.9476   18.5535 H   0  0  0  0  0  0  0  0  0  0  0  0
   31.1438   48.0030   16.3237 H   0  0  0  0  0  0  0  0  0  0  0  0
   26.8687   43.5611   15.3929 H   0  0  0  0  0  0  0  0  0  0  0  0
   26.0818   43.1682   13.0756 H   0  0  0  0  0  0  0  0  0  0  0  0
   26.7681   44.7001   11.2594 H   0  0  0  0  0  0  0  0  0  0  0  0
   28.6445   45.1802   10.0980 H   0  0  0  0  0  0  0  0  0  0  0  0
   28.1967   48.5790   12.6593 H   0  0  0  0  0  0  0  0  0  0  0  0
   28.9201   50.0640   10.8192 H   0  0  0  0  0  0  0  0  0  0  0  0
   29.5233   49.1033    8.6172 H   0  0  0  0  0  0  0  0  0  0  0  0
   29.4829   45.3468    8.0098 H   0  0  0  0  0  0  0  0  0  0  0  0
   30.7587   46.6071    7.9061 H   0  0  0  0  0  0  0  0  0  0  0  0
   29.1837   48.5488    5.5229 H   0  0  0  0  0  0  0  0  0  0  0  0
  1  2  2  0  0  0  0
  1  6  1  0  0  0  0
  1  9  1  0  0  0  0
  2  3  1  0  0  0  0
  2 31  1  0  0  0  0
  3  4  2  0  0  0  0
  3 32  1  0  0  0  0
  4  5  1  0  0  0  0
  4 33  1  0  0  0  0
  5  6  2  0  0  0  0
  5 34  1  0  0  0  0
  6  7  1  0  0  0  0
  7  8  1  0  0  0  0
  8  9  2  0  0  0  0
  8 13  1  0  0  0  0
  9 10  1  0  0  0  0
 10 11  2  0  0  0  0
 10 35  1  0  0  0  0
 11 12  1  0  0  0  0
 11 36  1  0  0  0  0
 12 13  2  0  0  0  0
 12 37  1  0  0  0  0
 13 14  1  0  0  0  0
 14 15  2  0  0  0  0
 14 16  1  0  0  0  0
 15 19  1  0  0  0  0
 15 38  1  0  0  0  0
 16 17  2  0  0  0  0
 16 39  1  0  0  0  0
 17 18  1  0  0  0  0
 17 40  1  0  0  0  0
 18 19  2  0  0  0  0
 18 41  1  0  0  0  0
 19 20  1  0  0  0  0
 20 21  1  0  0  0  0
 20 42  1  0  0  0  0
 20 43  1  0  0  0  0
 21 22  1  0  0  0  0
 21 26  1  0  0  0  0
 21 30  1  0  0  0  0
 22 23  1  0  0  0  0
 22 24  1  0  0  0  0
 22 25  2  0  0  0  0
 26 27  1  0  0  0  0
 26 28  1  0  0  0  0
 26 29  2  0  0  0  0
 30 44  1  0  0  0  0
M  END
