2e99_ligand
 OpenBabel08222323343D

 45 47  0  0  0  0  0  0  0  0999 V2000
   42.6190   33.7910   54.9880 C   0  0  0  0  0  0  0  0  0  0  0  0
   42.9660   32.5750   54.4090 C   0  0  0  0  0  0  0  0  0  0  0  0
   43.7130   31.6490   55.1330 C   0  0  0  0  0  0  0  0  0  0  0  0
   44.0990   31.9560   56.4330 C   0  0  0  0  0  0  0  0  0  0  0  0
   43.7490   33.1770   57.0060 C   0  0  0  0  0  0  0  0  0  0  0  0
   43.0060   34.1090   56.2860 C   0  0  0  0  0  0  0  0  0  0  0  0
   42.6420   35.3240   56.8650 C   0  0  0  0  0  0  0  0  0  0  0  0
   41.6060   36.0950   56.3410 C   0  0  0  0  0  0  0  0  0  0  0  0
   43.2980   35.7740   58.0060 C   0  0  0  0  0  0  0  0  0  0  0  0
   42.9180   36.9700   58.6070 C   0  0  0  0  0  0  0  0  0  0  0  0
   41.8830   37.7320   58.0730 C   0  0  0  0  0  0  0  0  0  0  0  0
   41.2220   37.2970   56.9300 C   0  0  0  0  0  0  0  0  0  0  0  0
   40.1830   38.0590   56.3950 C   0  0  0  0  0  0  0  0  0  0  0  0
   40.3040   39.4420   56.2790 C   0  0  0  0  0  0  0  0  0  0  0  0
   39.0610   37.4320   55.8650 C   0  0  0  0  0  0  0  0  0  0  0  0
   38.0800   38.1760   55.2120 C   0  0  0  0  0  0  0  0  0  0  0  0
   38.2130   39.5550   55.0880 C   0  0  0  0  0  0  0  0  0  0  0  0
   39.3280   40.1920   55.6250 C   0  0  0  0  0  0  0  0  0  0  0  0
   39.5280   41.6920   55.3810 C   0  0  0  0  0  0  0  0  0  0  0  0
   38.9660   42.5710   56.5020 C   0  0  0  0  0  0  0  0  0  0  0  0
   39.6910   44.2850   56.3820 P   0  0  0  0  0  0  0  0  0  0  0  0
   41.2880   44.0990   56.4360 O   0  0  0  0  0  1  0  0  0  0  0  0
   39.3830   44.8280   54.8980 O   0  0  0  0  0  1  0  0  0  0  0  0
   39.1530   45.1370   57.4660 O   0  0  0  0  0  0  0  0  0  0  0  0
   37.1090   42.7670   56.4460 P   0  0  0  0  0  0  0  0  0  0  0  0
   36.7220   43.1150   54.9210 O   0  0  0  0  0  1  0  0  0  0  0  0
   36.5210   41.3120   56.8120 O   0  0  0  0  0  1  0  0  0  0  0  0
   36.6180   43.8180   57.3700 O   0  0  0  0  0  0  0  0  0  0  0  0
   39.3840   42.0180   57.7510 O   0  0  0  0  0  0  0  0  0  0  0  0
   42.0359   34.5046   54.4171 H   0  0  0  0  0  0  0  0  0  0  0  0
   42.6554   32.3483   53.3955 H   0  0  0  0  0  0  0  0  0  0  0  0
   43.9902   30.7001   54.6882 H   0  0  0  0  0  0  0  0  0  0  0  0
   44.6770   31.2396   57.0055 H   0  0  0  0  0  0  0  0  0  0  0  0
   44.0576   33.4031   58.0203 H   0  0  0  0  0  0  0  0  0  0  0  0
   41.0868   35.7508   55.4539 H   0  0  0  0  0  0  0  0  0  0  0  0
   44.1082   35.1908   58.4285 H   0  0  0  0  0  0  0  0  0  0  0  0
   43.4322   37.3110   59.4983 H   0  0  0  0  0  0  0  0  0  0  0  0
   41.5929   38.6626   58.5473 H   0  0  0  0  0  0  0  0  0  0  0  0
   41.1680   39.9411   56.7027 H   0  0  0  0  0  0  0  0  0  0  0  0
   38.9485   36.3581   55.9602 H   0  0  0  0  0  0  0  0  0  0  0  0
   37.2101   37.6781   54.7992 H   0  0  0  0  0  0  0  0  0  0  0  0
   37.4514   40.1313   54.5752 H   0  0  0  0  0  0  0  0  0  0  0  0
   39.0252   41.9624   54.4407 H   0  0  0  0  0  0  0  0  0  0  0  0
   40.6063   41.8898   55.2903 H   0  0  0  0  0  0  0  0  0  0  0  0
   40.3329   41.9814   57.7781 H   0  0  0  0  0  0  0  0  0  0  0  0
  1  2  2  0  0  0  0
  1  6  1  0  0  0  0
  1 30  1  0  0  0  0
  2  3  1  0  0  0  0
  2 31  1  0  0  0  0
  3  4  2  0  0  0  0
  3 32  1  0  0  0  0
  4  5  1  0  0  0  0
  4 33  1  0  0  0  0
  5  6  2  0  0  0  0
  5 34  1  0  0  0  0
  6  7  1  0  0  0  0
  7  8  2  0  0  0  0
  7  9  1  0  0  0  0
  8 12  1  0  0  0  0
  8 35  1  0  0  0  0
  9 10  2  0  0  0  0
  9 36  1  0  0  0  0
 10 11  1  0  0  0  0
 10 37  1  0  0  0  0
 11 12  2  0  0  0  0
 11 38  1  0  0  0  0
 12 13  1  0  0  0  0
 13 14  2  0  0  0  0
 13 15  1  0  0  0  0
 14 18  1  0  0  0  0
 14 39  1  0  0  0  0
 15 16  2  0  0  0  0
 15 40  1  0  0  0  0
 16 17  1  0  0  0  0
 16 41  1  0  0  0  0
 17 18  2  0  0  0  0
 17 42  1  0  0  0  0
 18 19  1  0  0  0  0
 19 20  1  0  0  0  0
 19 43  1  0  0  0  0
 19 44  1  0  0  0  0
 20 21  1  0  0  0  0
 20 25  1  0  0  0  0
 20 29  1  0  0  0  0
 21 22  1  0  0  0  0
 21 23  1  0  0  0  0
 21 24  2  0  0  0  0
 25 26  1  0  0  0  0
 25 27  1  0  0  0  0
 25 28  2  0  0  0  0
 29 45  1  0  0  0  0
M  END
