2e9n_ligand
 OpenBabel08222323343D

 62 67  0  0  1  0  0  0  0  0999 V2000
  -13.4960    9.4900  -13.8670 O   0  0  0  0  0  0  0  0  0  0  0  0
   -9.6580    9.3950  -16.0270 C   0  0  0  0  0  0  0  0  0  0  0  0
  -10.3360    8.1260  -15.6120 C   0  0  0  0  0  0  0  0  0  0  0  0
  -11.6250    8.1580  -14.8870 C   0  0  0  0  0  0  0  0  0  0  0  0
  -12.2860    9.4560  -14.5480 C   0  0  0  0  0  0  0  0  0  0  0  0
  -11.6410   10.7100  -14.9420 C   0  0  0  0  0  0  0  0  0  0  0  0
  -10.3660   10.6880  -15.6600 C   0  0  0  0  0  0  0  0  0  0  0  0
   -5.7140    9.6140  -18.3310 C   0  0  0  0  0  0  0  0  0  0  0  0
   -6.1180    8.3060  -17.6850 C   0  0  0  0  0  0  0  0  0  0  0  0
   -7.3940    8.2220  -16.9350 C   0  0  0  0  0  0  0  0  0  0  0  0
   -8.2980    9.4160  -16.8020 C   0  0  0  0  0  0  0  0  0  0  0  0
   -7.8550   10.6720  -17.4560 C   0  0  0  0  0  0  0  0  0  0  0  0
   -6.6180   10.7760  -18.1890 C   0  0  0  0  0  0  0  0  0  0  0  0
   -4.4200    9.8530  -19.1240 C   0  0  0  0  0  0  0  0  0  0  0  0
   -4.2420   10.5910  -20.2580 N   0  0  0  0  0  0  0  0  0  0  0  0
   -2.9630   10.6280  -20.7230 N   0  0  0  0  0  0  0  0  0  0  0  0
   -2.2310    9.8610  -19.8500 C   0  0  0  0  0  0  0  0  0  0  0  0
   -3.1120    9.3620  -18.8240 C   0  0  0  0  0  0  0  0  0  0  0  0
   -0.9270    9.4350  -19.6310 C   0  0  0  0  0  0  0  0  0  0  0  0
   -0.9940    8.6030  -18.3890 C   0  0  0  0  0  0  0  0  0  0  0  0
   -2.3500    8.5850  -17.9410 C   0  0  0  0  0  0  0  0  0  0  0  0
    0.3570    9.6330  -20.3260 C   0  0  0  0  0  0  0  0  0  0  0  0
    1.6120    8.9950  -19.7760 C   0  0  0  0  0  0  0  0  0  0  0  0
    1.5530    8.1490  -18.5110 C   0  0  0  0  0  0  0  0  0  0  0  0
    0.2170    7.9750  -17.8480 C   0  0  0  0  0  0  0  0  0  0  0  0
    2.7020    7.5290  -17.9170 C   0  0  0  0  0  0  0  0  0  0  0  0
    3.5980    6.8640  -18.7560 N   0  0  0  0  0  0  0  0  0  0  0  0
    2.9080    7.5990  -16.6860 O   0  0  0  0  0  0  0  0  0  0  0  0
    4.8400    6.2040  -18.2460 C   0  0  1  0  0  0  0  0  0  0  0  0
    4.9170    4.6690  -18.5860 C   0  0  0  0  0  0  0  0  0  0  0  0
    6.2470    3.9840  -18.0630 C   0  0  0  0  0  0  0  0  0  0  0  0
    7.6020    4.7180  -18.4660 C   0  0  1  0  0  0  0  0  0  0  0  0
    7.4890    6.3300  -18.2950 C   0  0  0  0  0  0  0  0  0  0  0  0
    6.1300    6.9430  -18.8160 C   0  0  0  0  0  0  0  0  0  0  0  0
    8.6830    4.2490  -17.5860 O   0  0  0  0  0  0  0  0  0  0  0  0
  -14.1564    9.0325  -14.3740 H   0  0  0  0  0  0  0  0  0  0  0  0
   -9.8767    7.1723  -15.8457 H   0  0  0  0  0  0  0  0  0  0  0  0
  -12.0976    7.2265  -14.5970 H   0  0  0  0  0  0  0  0  0  0  0  0
  -12.1093   11.6575  -14.7011 H   0  0  0  0  0  0  0  0  0  0  0  0
   -9.9094   11.6302  -15.9407 H   0  0  0  0  0  0  0  0  0  0  0  0
   -5.4777    7.4355  -17.7703 H   0  0  0  0  0  0  0  0  0  0  0  0
   -7.6802    7.2834  -16.4745 H   0  0  0  0  0  0  0  0  0  0  0  0
   -8.4883   11.5485  -17.3794 H   0  0  0  0  0  0  0  0  0  0  0  0
   -6.3458   11.7216  -18.6437 H   0  0  0  0  0  0  0  0  0  0  0  0
   -2.6169   11.1267  -21.5551 H   0  0  0  0  0  0  0  0  0  0  0  0
   -2.7264    7.5514  -17.9342 H   0  0  0  0  0  0  0  0  0  0  0  0
   -2.4127    9.0047  -16.9262 H   0  0  0  0  0  0  0  0  0  0  0  0
    0.4014   10.2334  -21.2275 H   0  0  0  0  0  0  0  0  0  0  0  0
    2.5584    9.1403  -20.2843 H   0  0  0  0  0  0  0  0  0  0  0  0
    0.1455    7.3722  -16.9499 H   0  0  0  0  0  0  0  0  0  0  0  0
    3.4020    6.8274  -19.7359 H   0  0  0  0  0  0  0  0  0  0  0  0
    4.8417    6.3032  -17.1505 H   0  0  0  0  0  0  0  0  0  0  0  0
    4.8674    4.5491  -19.6783 H   0  0  0  0  0  0  0  0  0  0  0  0
    4.0570    4.1638  -18.1222 H   0  0  0  0  0  0  0  0  0  0  0  0
    6.2827    2.9614  -18.4668 H   0  0  0  0  0  0  0  0  0  0  0  0
    6.1977    3.9431  -16.9649 H   0  0  0  0  0  0  0  0  0  0  0  0
    7.8420    4.4792  -19.5126 H   0  0  0  0  0  0  0  0  0  0  0  0
    8.3140    6.7949  -18.8547 H   0  0  0  0  0  0  0  0  0  0  0  0
    7.5890    6.5713  -17.2265 H   0  0  0  0  0  0  0  0  0  0  0  0
    6.0870    8.0002  -18.5152 H   0  0  0  0  0  0  0  0  0  0  0  0
    6.1148    6.8731  -19.9137 H   0  0  0  0  0  0  0  0  0  0  0  0
    8.4766    4.4724  -16.6860 H   0  0  0  0  0  0  0  0  0  0  0  0
  1 36  1  0  0  0  0
  2  3  2  0  0  0  0
  2  7  1  0  0  0  0
  3  4  1  0  0  0  0
  3 37  1  0  0  0  0
  4  5  2  0  0  0  0
  4 38  1  0  0  0  0
  5  1  1  0  0  0  0
  6  5  1  0  0  0  0
  6 39  1  0  0  0  0
  7  6  2  0  0  0  0
  7 40  1  0  0  0  0
  8 13  1  0  0  0  0
  8 14  1  0  0  0  0
  9  8  2  0  0  0  0
  9 41  1  0  0  0  0
 10  9  1  0  0  0  0
 10 11  2  0  0  0  0
 10 42  1  0  0  0  0
 11  2  1  0  0  0  0
 11 12  1  0  0  0  0
 12 13  2  0  0  0  0
 12 43  1  0  0  0  0
 13 44  1  0  0  0  0
 14 15  2  0  0  0  0
 14 18  1  0  0  0  0
 15 16  1  0  0  0  0
 16 17  1  0  0  0  0
 16 45  1  0  0  0  0
 17 18  2  0  0  0  0
 17 19  1  0  0  0  0
 18 21  1  0  0  0  0
 19 20  2  0  0  0  0
 19 22  1  0  0  0  0
 20 21  1  0  0  0  0
 20 25  1  0  0  0  0
 21 46  1  0  0  0  0
 21 47  1  0  0  0  0
 22 23  2  0  0  0  0
 22 48  1  0  0  0  0
 23 24  1  0  0  0  0
 23 49  1  0  0  0  0
 24 25  2  0  0  0  0
 24 26  1  0  0  0  0
 25 50  1  0  0  0  0
 26 27  1  0  0  0  0
 26 28  2  0  0  0  0
 27 29  1  0  0  0  0
 27 51  1  0  0  0  0
 29 30  1  0  0  0  0
 29 34  1  0  0  0  0
 29 52  1  1  0  0  0
 30 31  1  0  0  0  0
 30 53  1  0  0  0  0
 30 54  1  0  0  0  0
 31 32  1  0  0  0  0
 31 55  1  0  0  0  0
 31 56  1  0  0  0  0
 32 33  1  0  0  0  0
 32 35  1  0  0  0  0
 32 57  1  6  0  0  0
 33 34  1  0  0  0  0
 33 58  1  0  0  0  0
 33 59  1  0  0  0  0
 34 60  1  0  0  0  0
 34 61  1  0  0  0  0
 35 62  1  0  0  0  0
M  END
