2er0_ligand
 OpenBabel08222323343D

138142  0  0  1  0  0  0  0  0999 V2000
    1.6070   20.5290   23.8140 C   0  0  0  0  0  0  0  0  0  0  0  0
    0.2090   21.1020   24.0810 C   0  0  0  0  0  0  0  0  0  0  0  0
   -0.4260   21.6970   22.8230 C   0  0  0  0  0  0  0  0  0  0  0  0
   -0.7880   20.0600   24.5950 C   0  0  0  0  0  0  0  0  0  0  0  0
    2.1240   21.9550   24.0220 C   0  0  0  0  0  0  0  0  0  0  0  0
    1.7970   22.6420   24.9860 O   0  0  0  0  0  0  0  0  0  0  0  0
    2.9420   22.4360   23.1030 N   0  0  0  0  0  0  0  0  0  0  0  0
    3.4890   23.7950   23.2600 C   0  0  2  0  0  0  0  0  0  0  0  0
    3.6050   24.5140   21.8990 C   0  0  0  0  0  0  0  0  0  0  0  0
    4.7060   24.8940   21.4720 O   0  0  0  0  0  0  0  0  0  0  0  0
    4.8570   23.7060   23.9540 C   0  0  0  0  0  0  0  0  0  0  0  0
    4.8850   22.6870   25.1160 C   0  0  0  0  0  0  0  0  0  0  0  0
    4.3660   22.9800   26.3800 N   0  0  0  0  0  0  0  0  0  0  0  0
    5.3600   21.4100   25.2030 C   0  0  0  0  0  0  0  0  0  0  0  0
    4.5340   21.9200   27.1570 C   0  0  0  0  0  0  0  0  0  0  0  0
    5.1240   20.9770   26.4700 N   0  0  0  0  0  0  0  0  0  0  0  0
    2.4880   24.7430   21.1630 N   0  0  0  0  0  0  0  0  0  0  0  0
    2.5300   25.3960   19.8490 C   0  0  2  0  0  0  0  0  0  0  0  0
    3.0800   26.8110   19.8890 C   0  0  0  0  0  0  0  0  0  0  0  0
    2.9930   27.4800   20.9690 O   0  0  0  0  0  0  0  0  0  0  0  0
    1.0930   25.4170   19.3910 C   0  0  0  0  0  0  0  0  0  0  0  0
    0.2490   24.7660   20.4720 C   0  0  0  0  0  0  0  0  0  0  0  0
    1.1440   24.3500   21.6040 C   0  0  0  0  0  0  0  0  0  0  0  0
    3.5990   27.1810   18.7160 N   0  0  0  0  0  0  0  0  0  0  0  0
    4.1870   28.5050   18.4150 C   0  0  2  0  0  0  0  0  0  0  0  0
    3.4760   29.1240   17.2060 C   0  0  0  0  0  0  0  0  0  0  0  0
    3.1640   28.4330   16.2260 O   0  0  0  0  0  0  0  0  0  0  0  0
    5.6570   28.3650   17.9900 C   0  0  0  0  0  0  0  0  0  0  0  0
    6.6470   28.2490   19.1480 C   0  0  0  0  0  0  0  0  0  0  0  0
    6.1880   28.2210   20.4680 C   0  0  0  0  0  0  0  0  0  0  0  0
    8.0190   28.1670   18.8760 C   0  0  0  0  0  0  0  0  0  0  0  0
    7.1030   28.1040   21.5220 C   0  0  0  0  0  0  0  0  0  0  0  0
    8.9330   28.0480   19.9290 C   0  0  0  0  0  0  0  0  0  0  0  0
    8.4750   28.0150   21.2520 C   0  0  0  0  0  0  0  0  0  0  0  0
    3.2320   30.4140   17.2920 N   0  0  0  0  0  0  0  0  0  0  0  0
    2.6040   31.1570   16.1900 C   0  0  2  0  0  0  0  0  0  0  0  0
    3.3310   32.4810   15.9830 C   0  0  0  0  0  0  0  0  0  0  0  0
    3.0200   33.4860   16.6420 O   0  0  0  0  0  0  0  0  0  0  0  0
    1.1250   31.4180   16.4680 C   0  0  0  0  0  0  0  0  0  0  0  0
    0.3070   31.4440   15.1760 C   0  0  0  0  0  0  0  0  0  0  0  0
    0.9190   31.5190   13.9280 N   0  0  0  0  0  0  0  0  0  0  0  0
   -1.0300   31.4050   14.9390 C   0  0  0  0  0  0  0  0  0  0  0  0
   -0.0250   31.5230   13.0050 C   0  0  0  0  0  0  0  0  0  0  0  0
   -1.1930   31.4560   13.5910 N   0  0  0  0  0  0  0  0  0  0  0  0
    4.2800   32.4090   15.0630 N   0  0  0  0  0  0  0  0  0  0  0  0
    5.1410   33.5410   14.6890 C   0  0  1  0  0  0  0  0  0  0  0  0
    6.6250   33.1820   14.8800 C   0  0  0  0  0  0  0  0  0  0  0  0
    6.9860   32.5990   16.2540 C   0  0  0  0  0  0  0  0  0  0  0  0
    6.4840   33.5280   17.3700 C   0  0  0  0  0  0  0  0  0  0  0  0
    8.3860   32.4700   16.3340 C   0  0  0  0  0  0  0  0  0  0  0  0
    6.8590   32.9680   18.7500 C   0  0  0  0  0  0  0  0  0  0  0  0
    8.8000   31.8410   17.6700 C   0  0  0  0  0  0  0  0  0  0  0  0
    8.3660   32.7370   18.8260 C   0  0  0  0  0  0  0  0  0  0  0  0
    4.9870   33.8990   13.1960 C   0  0  1  0  0  0  0  0  0  0  0  0
    5.4740   32.8380   12.3880 O   0  0  0  0  0  0  0  0  0  0  0  0
    3.5220   34.1400   12.8070 C   0  0  0  0  0  0  0  0  0  0  0  0
    3.0610   35.5360   13.2460 C   0  0  0  0  0  0  0  0  0  0  0  0
    2.9260   35.8300   14.4350 O   0  0  0  0  0  0  0  0  0  0  0  0
    2.8230   36.4110   12.2820 N   0  0  0  0  0  0  0  0  0  0  0  0
    2.3090   37.7560   12.6010 C   0  0  2  0  0  0  0  0  0  0  0  0
    0.7750   37.6750   12.6530 C   0  0  0  0  0  0  0  0  0  0  0  0
    0.1300   38.2210   13.5570 O   0  0  0  0  0  0  0  0  0  0  0  0
    2.7180   38.7800   11.5350 C   0  0  0  0  0  0  0  0  0  0  0  0
    3.8730   39.7450   11.9090 C   0  0  0  0  0  0  0  0  0  0  0  0
    4.0160   40.8950   10.8920 C   0  0  0  0  0  0  0  0  0  0  0  0
    3.7200   40.4410   13.2640 C   0  0  0  0  0  0  0  0  0  0  0  0
    0.1560   37.0430   11.7750 N   0  0  0  0  0  0  0  0  0  0  0  0
    1.7565   20.1252   22.8018 H   0  0  0  0  0  0  0  0  0  0  0  0
    1.9569   19.7966   24.5564 H   0  0  0  0  0  0  0  0  0  0  0  0
    0.3152   21.8937   24.8373 H   0  0  0  0  0  0  0  0  0  0  0  0
   -1.4229   22.0925   23.0675 H   0  0  0  0  0  0  0  0  0  0  0  0
   -0.5199   20.9153   22.0548 H   0  0  0  0  0  0  0  0  0  0  0  0
    0.2081   22.5111   22.4421 H   0  0  0  0  0  0  0  0  0  0  0  0
   -0.3898   19.5898   25.5062 H   0  0  0  0  0  0  0  0  0  0  0  0
   -0.9449   19.2911   23.8242 H   0  0  0  0  0  0  0  0  0  0  0  0
   -1.7456   20.5504   24.8240 H   0  0  0  0  0  0  0  0  0  0  0  0
    3.1879   21.8823   22.3074 H   0  0  0  0  0  0  0  0  0  0  0  0
    2.8074   24.3760   23.8986 H   0  0  0  0  0  0  0  0  0  0  0  0
    5.1117   24.6988   24.3534 H   0  0  0  0  0  0  0  0  0  0  0  0
    5.6085   23.4068   23.2085 H   0  0  0  0  0  0  0  0  0  0  0  0
    5.8389   20.8435   24.4057 H   0  0  0  0  0  0  0  0  0  0  0  0
    4.2296   21.8461   28.2000 H   0  0  0  0  0  0  0  0  0  0  0  0
    5.3726   20.0461   26.8339 H   0  0  0  0  0  0  0  0  0  0  0  0
    3.1446   24.7996   19.1587 H   0  0  0  0  0  0  0  0  0  0  0  0
    0.9924   24.8563   18.4500 H   0  0  0  0  0  0  0  0  0  0  0  0
    0.7653   26.4555   19.2358 H   0  0  0  0  0  0  0  0  0  0  0  0
   -0.2606   23.8823   20.0604 H   0  0  0  0  0  0  0  0  0  0  0  0
   -0.4998   25.4838   20.8381 H   0  0  0  0  0  0  0  0  0  0  0  0
    0.8690   24.8736   22.5315 H   0  0  0  0  0  0  0  0  0  0  0  0
    1.0887   23.2634   21.7661 H   0  0  0  0  0  0  0  0  0  0  0  0
    3.5896   26.5061   17.9782 H   0  0  0  0  0  0  0  0  0  0  0  0
    4.0998   29.1580   19.2959 H   0  0  0  0  0  0  0  0  0  0  0  0
    5.9276   29.2497   17.3950 H   0  0  0  0  0  0  0  0  0  0  0  0
    5.7496   27.4624   17.3681 H   0  0  0  0  0  0  0  0  0  0  0  0
    5.1263   28.2897   20.6755 H   0  0  0  0  0  0  0  0  0  0  0  0
    8.3720   28.1957   17.8515 H   0  0  0  0  0  0  0  0  0  0  0  0
    6.7497   28.0823   22.5466 H   0  0  0  0  0  0  0  0  0  0  0  0
    9.9947   27.9814   19.7207 H   0  0  0  0  0  0  0  0  0  0  0  0
    9.1825   27.9205   22.0678 H   0  0  0  0  0  0  0  0  0  0  0  0
    3.4803   30.9018   18.1289 H   0  0  0  0  0  0  0  0  0  0  0  0
    2.6871   30.5578   15.2713 H   0  0  0  0  0  0  0  0  0  0  0  0
    1.0227   32.3887   16.9752 H   0  0  0  0  0  0  0  0  0  0  0  0
    0.7379   30.6210   17.1199 H   0  0  0  0  0  0  0  0  0  0  0  0
   -1.8199   31.3445   15.6862 H   0  0  0  0  0  0  0  0  0  0  0  0
    0.1415   31.5738   11.9300 H   0  0  0  0  0  0  0  0  0  0  0  0
   -2.1002   31.4438   13.1034 H   0  0  0  0  0  0  0  0  0  0  0  0
    4.4193   31.5358   14.5960 H   0  0  0  0  0  0  0  0  0  0  0  0
    4.8794   34.4094   15.3115 H   0  0  0  0  0  0  0  0  0  0  0  0
    7.2180   34.0966   14.7322 H   0  0  0  0  0  0  0  0  0  0  0  0
    6.8970   32.4409   14.1140 H   0  0  0  0  0  0  0  0  0  0  0  0
    6.5182   31.6099   16.3675 H   0  0  0  0  0  0  0  0  0  0  0  0
    5.3898   33.6169   17.3013 H   0  0  0  0  0  0  0  0  0  0  0  0
    6.9411   34.5209   17.2466 H   0  0  0  0  0  0  0  0  0  0  0  0
    8.8454   33.4656   16.2466 H   0  0  0  0  0  0  0  0  0  0  0  0
    8.7368   31.8307   15.5105 H   0  0  0  0  0  0  0  0  0  0  0  0
    6.3354   32.0141   18.9109 H   0  0  0  0  0  0  0  0  0  0  0  0
    6.5606   33.6859   19.5282 H   0  0  0  0  0  0  0  0  0  0  0  0
    9.8932   31.7211   17.6928 H   0  0  0  0  0  0  0  0  0  0  0  0
    8.3208   30.8562   17.7729 H   0  0  0  0  0  0  0  0  0  0  0  0
    8.6151   32.2508   19.7807 H   0  0  0  0  0  0  0  0  0  0  0  0
    8.8892   33.7023   18.7586 H   0  0  0  0  0  0  0  0  0  0  0  0
    5.5673   34.8111   12.9929 H   0  0  0  0  0  0  0  0  0  0  0  0
    6.3925   32.6903   12.5810 H   0  0  0  0  0  0  0  0  0  0  0  0
    2.8907   33.3825   13.2945 H   0  0  0  0  0  0  0  0  0  0  0  0
    3.4206   34.0542   11.7151 H   0  0  0  0  0  0  0  0  0  0  0  0
    2.9931   36.1581   11.3296 H   0  0  0  0  0  0  0  0  0  0  0  0
    2.7008   38.0749   13.5781 H   0  0  0  0  0  0  0  0  0  0  0  0
    1.8338   39.3916   11.3025 H   0  0  0  0  0  0  0  0  0  0  0  0
    3.0252   38.2233   10.6374 H   0  0  0  0  0  0  0  0  0  0  0  0
    4.8006   39.1539   11.9206 H   0  0  0  0  0  0  0  0  0  0  0  0
    4.8441   41.5523   11.1958 H   0  0  0  0  0  0  0  0  0  0  0  0
    3.0813   41.4740   10.8594 H   0  0  0  0  0  0  0  0  0  0  0  0
    4.2247   40.4792    9.8952 H   0  0  0  0  0  0  0  0  0  0  0  0
    3.6111   39.6841   14.0547 H   0  0  0  0  0  0  0  0  0  0  0  0
    2.8280   41.0845   13.2471 H   0  0  0  0  0  0  0  0  0  0  0  0
    4.6109   41.0544   13.4638 H   0  0  0  0  0  0  0  0  0  0  0  0
   -0.8420   36.9894   11.8074 H   0  0  0  0  0  0  0  0  0  0  0  0
    0.6574   36.5896   11.0381 H   0  0  0  0  0  0  0  0  0  0  0  0
  1  2  1  0  0  0  0
  1  5  1  0  0  0  0
  1 68  1  0  0  0  0
  1 69  1  0  0  0  0
  2  3  1  0  0  0  0
  2  4  1  0  0  0  0
  2 70  1  0  0  0  0
  3 71  1  0  0  0  0
  3 72  1  0  0  0  0
  3 73  1  0  0  0  0
  4 74  1  0  0  0  0
  4 75  1  0  0  0  0
  4 76  1  0  0  0  0
  5  6  2  0  0  0  0
  5  7  1  0  0  0  0
  7  8  1  0  0  0  0
  7 77  1  0  0  0  0
  8  9  1  0  0  0  0
  8 11  1  0  0  0  0
  8 78  1  1  0  0  0
  9 10  2  0  0  0  0
  9 17  1  0  0  0  0
 11 12  1  0  0  0  0
 11 79  1  0  0  0  0
 11 80  1  0  0  0  0
 12 13  1  0  0  0  0
 12 14  2  0  0  0  0
 13 15  2  0  0  0  0
 14 16  1  0  0  0  0
 14 81  1  0  0  0  0
 15 16  1  0  0  0  0
 15 82  1  0  0  0  0
 16 83  1  0  0  0  0
 17 18  1  0  0  0  0
 17 23  1  0  0  0  0
 18 19  1  0  0  0  0
 18 21  1  0  0  0  0
 18 84  1  6  0  0  0
 19 20  2  0  0  0  0
 19 24  1  0  0  0  0
 21 22  1  0  0  0  0
 21 85  1  0  0  0  0
 21 86  1  0  0  0  0
 22 23  1  0  0  0  0
 22 87  1  0  0  0  0
 22 88  1  0  0  0  0
 23 89  1  0  0  0  0
 23 90  1  0  0  0  0
 24 25  1  0  0  0  0
 24 91  1  0  0  0  0
 25 26  1  0  0  0  0
 25 28  1  0  0  0  0
 25 92  1  1  0  0  0
 26 27  2  0  0  0  0
 26 35  1  0  0  0  0
 28 29  1  0  0  0  0
 28 93  1  0  0  0  0
 28 94  1  0  0  0  0
 29 30  2  0  0  0  0
 29 31  1  0  0  0  0
 30 32  1  0  0  0  0
 30 95  1  0  0  0  0
 31 33  2  0  0  0  0
 31 96  1  0  0  0  0
 32 34  2  0  0  0  0
 32 97  1  0  0  0  0
 33 34  1  0  0  0  0
 33 98  1  0  0  0  0
 34 99  1  0  0  0  0
 35 36  1  0  0  0  0
 35100  1  0  0  0  0
 36 37  1  0  0  0  0
 36 39  1  0  0  0  0
 36101  1  6  0  0  0
 37 38  2  0  0  0  0
 37 45  1  0  0  0  0
 39 40  1  0  0  0  0
 39102  1  0  0  0  0
 39103  1  0  0  0  0
 40 41  1  0  0  0  0
 40 42  2  0  0  0  0
 41 43  2  0  0  0  0
 42 44  1  0  0  0  0
 42104  1  0  0  0  0
 43 44  1  0  0  0  0
 43105  1  0  0  0  0
 44106  1  0  0  0  0
 45 46  1  0  0  0  0
 45107  1  0  0  0  0
 46 47  1  0  0  0  0
 46 54  1  0  0  0  0
 46108  1  1  0  0  0
 47 48  1  0  0  0  0
 47109  1  0  0  0  0
 47110  1  0  0  0  0
 48 49  1  0  0  0  0
 48 50  1  0  0  0  0
 48111  1  0  0  0  0
 49 51  1  0  0  0  0
 49112  1  0  0  0  0
 49113  1  0  0  0  0
 50 52  1  0  0  0  0
 50114  1  0  0  0  0
 50115  1  0  0  0  0
 51 53  1  0  0  0  0
 51116  1  0  0  0  0
 51117  1  0  0  0  0
 52 53  1  0  0  0  0
 52118  1  0  0  0  0
 52119  1  0  0  0  0
 53120  1  0  0  0  0
 53121  1  0  0  0  0
 54 55  1  0  0  0  0
 54 56  1  0  0  0  0
 54122  1  6  0  0  0
 55123  1  0  0  0  0
 56 57  1  0  0  0  0
 56124  1  0  0  0  0
 56125  1  0  0  0  0
 57 58  2  0  0  0  0
 57 59  1  0  0  0  0
 59 60  1  0  0  0  0
 59126  1  0  0  0  0
 60 61  1  0  0  0  0
 60 63  1  0  0  0  0
 60127  1  1  0  0  0
 61 62  2  0  0  0  0
 61 67  1  0  0  0  0
 63 64  1  0  0  0  0
 63128  1  0  0  0  0
 63129  1  0  0  0  0
 64 65  1  0  0  0  0
 64 66  1  0  0  0  0
 64130  1  0  0  0  0
 65131  1  0  0  0  0
 65132  1  0  0  0  0
 65133  1  0  0  0  0
 66134  1  0  0  0  0
 66135  1  0  0  0  0
 66136  1  0  0  0  0
 67137  1  0  0  0  0
 67138  1  0  0  0  0
M  END
