2er6_ligand
 OpenBabel08222323343D

127129  0  0  1  0  0  0  0  0999 V2000
   33.2910   -5.2060   -6.5530 N   0  3  0  0  0  0  0  0  0  0  0  0
   32.8050   -5.8600   -5.3720 C   0  0  2  0  0  0  0  0  0  0  0  0
   33.9550   -6.2230   -4.5050 C   0  0  0  0  0  0  0  0  0  0  0  0
   35.0930   -6.4100   -5.0360 O   0  0  0  0  0  0  0  0  0  0  0  0
   32.0700   -7.0810   -5.8950 C   0  0  0  0  0  0  0  0  0  0  0  0
   32.1920   -7.0710   -7.4250 C   0  0  0  0  0  0  0  0  0  0  0  0
   32.9830   -5.8700   -7.8300 C   0  0  0  0  0  0  0  0  0  0  0  0
   33.6640   -6.2890   -3.2520 N   0  0  0  0  0  0  0  0  0  0  0  0
   34.6320   -6.6340   -2.2380 C   0  0  2  0  0  0  0  0  0  0  0  0
   33.9930   -7.6640   -1.2870 C   0  0  0  0  0  0  0  0  0  0  0  0
   32.7650   -7.8040   -1.2290 O   0  0  0  0  0  0  0  0  0  0  0  0
   35.2880   -5.3470   -1.7290 C   0  0  2  0  0  0  0  0  0  0  0  0
   34.2910   -4.3840   -1.4070 O   0  0  0  0  0  0  0  0  0  0  0  0
   36.1580   -4.6640   -2.7940 C   0  0  0  0  0  0  0  0  0  0  0  0
   34.8370   -8.4880   -0.7070 N   0  0  0  0  0  0  0  0  0  0  0  0
   34.3970   -9.5500    0.2240 C   0  0  2  0  0  0  0  0  0  0  0  0
   35.2890   -9.5610    1.4610 C   0  0  0  0  0  0  0  0  0  0  0  0
   36.1040  -10.4760    1.6510 O   0  0  0  0  0  0  0  0  0  0  0  0
   34.5220  -10.9280   -0.4420 C   0  0  0  0  0  0  0  0  0  0  0  0
   33.7520  -11.0340   -1.7620 C   0  0  0  0  0  0  0  0  0  0  0  0
   33.7760  -12.4480   -2.3570 C   0  0  0  0  0  0  0  0  0  0  0  0
   32.7840  -13.2490   -2.1580 O   0  5  0  0  0  0  0  0  0  0  0  0
   34.7900  -12.8380   -3.0540 O   0  0  0  0  0  0  0  0  0  0  0  0
   35.1440   -8.5190    2.2170 N   0  0  0  0  0  0  0  0  0  0  0  0
   35.8970   -8.3280    3.4640 C   0  0  2  0  0  0  0  0  0  0  0  0
   35.1120   -8.9140    4.6350 C   0  0  0  0  0  0  0  0  0  0  0  0
   36.1370   -6.8370    3.7070 C   0  0  0  0  0  0  0  0  0  0  0  0
   36.8830   -6.1570    2.5570 C   0  0  0  0  0  0  0  0  0  0  0  0
   36.6390   -4.8100    2.2640 C   0  0  0  0  0  0  0  0  0  0  0  0
   37.8090   -6.8820    1.7970 C   0  0  0  0  0  0  0  0  0  0  0  0
   37.3210   -4.1880    1.2120 C   0  0  0  0  0  0  0  0  0  0  0  0
   38.4910   -6.2600    0.7450 C   0  0  0  0  0  0  0  0  0  0  0  0
   38.2470   -4.9130    0.4520 C   0  0  0  0  0  0  0  0  0  0  0  0
   35.0220  -10.3550    4.4950 N   0  3  0  0  0  0  0  0  0  0  0  0
   35.2990  -11.2700    5.6020 C   0  0  2  0  0  0  0  0  0  0  0  0
   36.7430  -11.7550    5.5460 C   0  0  0  0  0  0  0  0  0  0  0  0
   37.3100  -11.9480    4.4600 O   0  0  0  0  0  0  0  0  0  0  0  0
   34.3180  -12.4480    5.5900 C   0  0  0  0  0  0  0  0  0  0  0  0
   34.4040  -13.2950    4.3210 C   0  0  0  0  0  0  0  0  0  0  0  0
   33.7510  -12.8750    3.1580 C   0  0  0  0  0  0  0  0  0  0  0  0
   35.1220  -14.4980    4.3270 C   0  0  0  0  0  0  0  0  0  0  0  0
   33.8170  -13.6550    1.9980 C   0  0  0  0  0  0  0  0  0  0  0  0
   35.1880  -15.2790    3.1670 C   0  0  0  0  0  0  0  0  0  0  0  0
   34.5360  -14.8570    2.0020 C   0  0  0  0  0  0  0  0  0  0  0  0
   37.2650  -11.9090    6.7440 N   0  0  0  0  0  0  0  0  0  0  0  0
   38.6080  -12.4270    6.9880 C   0  0  2  0  0  0  0  0  0  0  0  0
   38.6470  -13.9200    6.6700 C   0  0  0  0  0  0  0  0  0  0  0  0
   37.7460  -14.6790    7.0570 O   0  0  0  0  0  0  0  0  0  0  0  0
   38.9430  -12.2840    8.4720 C   0  0  0  0  0  0  0  0  0  0  0  0
   40.4000  -11.9070    8.7270 C   0  0  0  0  0  0  0  0  0  0  0  0
   40.9600  -12.5280   10.0060 C   0  0  0  0  0  0  0  0  0  0  0  0
   42.1640  -13.3350    9.7690 N   0  0  0  0  0  0  0  0  0  0  0  0
   42.6720  -14.2010   10.6550 C   0  0  0  0  0  3  0  0  0  0  0  0
   42.0920  -14.3900   11.8480 N   0  0  0  0  0  0  0  0  0  0  0  0
   43.7720  -14.9360   10.4380 N   0  0  0  0  0  0  0  0  0  0  0  0
   39.6930  -14.3230    6.0280 N   0  0  0  0  0  0  0  0  0  0  0  0
   39.9350  -15.7430    5.7390 C   0  0  2  0  0  0  0  0  0  0  0  0
   41.3950  -16.0920    6.0230 C   0  0  0  0  0  0  0  0  0  0  0  0
   41.7550  -16.4550    7.1520 O   0  5  0  0  0  0  0  0  0  0  0  0
   39.5730  -16.0550    4.2880 C   0  0  0  0  0  0  0  0  0  0  0  0
   38.2990  -16.8910    4.1640 C   0  0  0  0  0  0  0  0  0  0  0  0
   38.1770  -17.5990    2.8150 C   0  0  0  0  0  0  0  0  0  0  0  0
   38.0340  -18.8800    2.7690 O   0  5  0  0  0  0  0  0  0  0  0  0
   38.2160  -16.9150    1.7220 O   0  0  0  0  0  0  0  0  0  0  0  0
   42.2380  -16.0160    5.1160 O   0  0  0  0  0  0  0  0  0  0  0  0
   34.2935   -5.1350   -6.4761 H   0  0  0  0  0  0  0  0  0  0  0  0
   32.8898   -4.2817   -6.5812 H   0  0  0  0  0  0  0  0  0  0  0  0
   32.1171   -5.2078   -4.8140 H   0  0  0  0  0  0  0  0  0  0  0  0
   31.0106   -7.0360   -5.6022 H   0  0  0  0  0  0  0  0  0  0  0  0
   32.5244   -7.9962   -5.4878 H   0  0  0  0  0  0  0  0  0  0  0  0
   32.7047   -7.9839   -7.7622 H   0  0  0  0  0  0  0  0  0  0  0  0
   31.1901   -7.0250   -7.8767 H   0  0  0  0  0  0  0  0  0  0  0  0
   33.9058   -6.1658   -8.3506 H   0  0  0  0  0  0  0  0  0  0  0  0
   32.3897   -5.2113   -8.4812 H   0  0  0  0  0  0  0  0  0  0  0  0
   32.7253   -6.0924   -2.9688 H   0  0  0  0  0  0  0  0  0  0  0  0
   35.4463   -7.1822   -2.7344 H   0  0  0  0  0  0  0  0  0  0  0  0
   35.8955   -5.5833   -0.8430 H   0  0  0  0  0  0  0  0  0  0  0  0
   33.7092   -4.7409   -0.7462 H   0  0  0  0  0  0  0  0  0  0  0  0
   36.6014   -3.7492   -2.3737 H   0  0  0  0  0  0  0  0  0  0  0  0
   35.5366   -4.4041   -3.6636 H   0  0  0  0  0  0  0  0  0  0  0  0
   36.9593   -5.3492   -3.1075 H   0  0  0  0  0  0  0  0  0  0  0  0
   35.8131   -8.3934   -0.9024 H   0  0  0  0  0  0  0  0  0  0  0  0
   33.3521   -9.3689    0.5162 H   0  0  0  0  0  0  0  0  0  0  0  0
   34.1325  -11.6878    0.2515 H   0  0  0  0  0  0  0  0  0  0  0  0
   35.5858  -11.1244   -0.6414 H   0  0  0  0  0  0  0  0  0  0  0  0
   34.2024  -10.3406   -2.4875 H   0  0  0  0  0  0  0  0  0  0  0  0
   32.7055  -10.7472   -1.5816 H   0  0  0  0  0  0  0  0  0  0  0  0
   34.4912   -7.8140    1.9397 H   0  0  0  0  0  0  0  0  0  0  0  0
   36.8660   -8.8422    3.3830 H   0  0  0  0  0  0  0  0  0  0  0  0
   34.0994   -8.4845    4.6471 H   0  0  0  0  0  0  0  0  0  0  0  0
   35.6251   -8.6701    5.5770 H   0  0  0  0  0  0  0  0  0  0  0  0
   36.7304   -6.7225    4.6261 H   0  0  0  0  0  0  0  0  0  0  0  0
   35.1634   -6.3414    3.8350 H   0  0  0  0  0  0  0  0  0  0  0  0
   35.9218   -4.2487    2.8520 H   0  0  0  0  0  0  0  0  0  0  0  0
   37.9976   -7.9252    2.0235 H   0  0  0  0  0  0  0  0  0  0  0  0
   37.1324   -3.1448    0.9855 H   0  0  0  0  0  0  0  0  0  0  0  0
   39.2082   -6.8213    0.1570 H   0  0  0  0  0  0  0  0  0  0  0  0
   38.7749   -4.4313   -0.3631 H   0  0  0  0  0  0  0  0  0  0  0  0
   34.0778  -10.5493    4.2005 H   0  0  0  0  0  0  0  0  0  0  0  0
   35.6622  -10.6053    3.7578 H   0  0  0  0  0  0  0  0  0  0  0  0
   35.1599  -10.7203    6.5446 H   0  0  0  0  0  0  0  0  0  0  0  0
   33.2956  -12.0515    5.6761 H   0  0  0  0  0  0  0  0  0  0  0  0
   34.5356  -13.0921    6.4547 H   0  0  0  0  0  0  0  0  0  0  0  0
   33.1937  -11.9452    3.1550 H   0  0  0  0  0  0  0  0  0  0  0  0
   35.6263  -14.8240    5.2295 H   0  0  0  0  0  0  0  0  0  0  0  0
   33.3116  -13.3289    1.0962 H   0  0  0  0  0  0  0  0  0  0  0  0
   35.7435  -16.2098    3.1708 H   0  0  0  0  0  0  0  0  0  0  0  0
   34.5877  -15.4606    1.1031 H   0  0  0  0  0  0  0  0  0  0  0  0
   36.7082  -11.6559    7.5351 H   0  0  0  0  0  0  0  0  0  0  0  0
   39.3390  -11.8825    6.3723 H   0  0  0  0  0  0  0  0  0  0  0  0
   38.7378  -13.2428    8.9705 H   0  0  0  0  0  0  0  0  0  0  0  0
   38.2995  -11.5022    8.9017 H   0  0  0  0  0  0  0  0  0  0  0  0
   40.4702  -10.8123    8.8086 H   0  0  0  0  0  0  0  0  0  0  0  0
   41.0057  -12.2509    7.8756 H   0  0  0  0  0  0  0  0  0  0  0  0
   40.1875  -13.1723   10.4509 H   0  0  0  0  0  0  0  0  0  0  0  0
   41.2119  -11.7194   10.7079 H   0  0  0  0  0  0  0  0  0  0  0  0
   42.6473  -13.2283    8.8657 H   0  0  0  0  0  0  0  0  0  0  0  0
   42.4968  -15.0604   12.5170 H   0  0  0  0  0  0  0  0  0  0  0  0
   41.2413  -13.8649   12.0960 H   0  0  0  0  0  0  0  0  0  0  0  0
   44.2798  -14.8520    9.5458 H   0  0  0  0  0  0  0  0  0  0  0  0
   44.1093  -15.5847   11.1635 H   0  0  0  0  0  0  0  0  0  0  0  0
   40.3602  -13.6460    5.7174 H   0  0  0  0  0  0  0  0  0  0  0  0
   39.2958  -16.3504    6.3966 H   0  0  0  0  0  0  0  0  0  0  0  0
   40.4044  -16.6106    3.8296 H   0  0  0  0  0  0  0  0  0  0  0  0
   39.4252  -15.1067    3.7505 H   0  0  0  0  0  0  0  0  0  0  0  0
   37.4309  -16.2276    4.2912 H   0  0  0  0  0  0  0  0  0  0  0  0
   38.2996  -17.6507    4.9595 H   0  0  0  0  0  0  0  0  0  0  0  0
  1  7  1  0  0  0  0
  1 66  1  0  0  0  0
  1 67  1  0  0  0  0
  2  5  1  0  0  0  0
  2  1  1  0  0  0  0
  2 68  1  1  0  0  0
  3  2  1  0  0  0  0
  3  4  2  0  0  0  0
  5  6  1  0  0  0  0
  5 69  1  0  0  0  0
  5 70  1  0  0  0  0
  6 71  1  0  0  0  0
  6 72  1  0  0  0  0
  7  6  1  0  0  0  0
  7 73  1  0  0  0  0
  7 74  1  0  0  0  0
  8  3  1  0  0  0  0
  8 75  1  0  0  0  0
  9  8  1  0  0  0  0
  9 12  1  0  0  0  0
  9 76  1  6  0  0  0
 10  9  1  0  0  0  0
 10 11  2  0  0  0  0
 12 14  1  0  0  0  0
 12 13  1  0  0  0  0
 12 77  1  1  0  0  0
 13 78  1  0  0  0  0
 14 79  1  0  0  0  0
 14 80  1  0  0  0  0
 14 81  1  0  0  0  0
 15 10  1  0  0  0  0
 15 82  1  0  0  0  0
 16 15  1  0  0  0  0
 16 19  1  0  0  0  0
 16 83  1  1  0  0  0
 17 16  1  0  0  0  0
 17 18  2  0  0  0  0
 19 20  1  0  0  0  0
 19 84  1  0  0  0  0
 19 85  1  0  0  0  0
 20 21  1  0  0  0  0
 20 86  1  0  0  0  0
 20 87  1  0  0  0  0
 21 23  2  0  0  0  0
 21 22  1  0  0  0  0
 24 17  1  0  0  0  0
 24 88  1  0  0  0  0
 25 24  1  0  0  0  0
 25 27  1  0  0  0  0
 25 89  1  6  0  0  0
 26 25  1  0  0  0  0
 26 90  1  0  0  0  0
 26 91  1  0  0  0  0
 27 28  1  0  0  0  0
 27 92  1  0  0  0  0
 27 93  1  0  0  0  0
 28 29  2  0  0  0  0
 28 30  1  0  0  0  0
 29 31  1  0  0  0  0
 29 94  1  0  0  0  0
 30 32  2  0  0  0  0
 30 95  1  0  0  0  0
 31 33  2  0  0  0  0
 31 96  1  0  0  0  0
 32 33  1  0  0  0  0
 32 97  1  0  0  0  0
 33 98  1  0  0  0  0
 34 26  1  0  0  0  0
 34 99  1  0  0  0  0
 34100  1  0  0  0  0
 35 34  1  0  0  0  0
 35 38  1  0  0  0  0
 35101  1  1  0  0  0
 36 35  1  0  0  0  0
 36 37  2  0  0  0  0
 38 39  1  0  0  0  0
 38102  1  0  0  0  0
 38103  1  0  0  0  0
 39 40  2  0  0  0  0
 39 41  1  0  0  0  0
 40 42  1  0  0  0  0
 40104  1  0  0  0  0
 41 43  2  0  0  0  0
 41105  1  0  0  0  0
 42 44  2  0  0  0  0
 42106  1  0  0  0  0
 43 44  1  0  0  0  0
 43107  1  0  0  0  0
 44108  1  0  0  0  0
 45 36  1  0  0  0  0
 45109  1  0  0  0  0
 46 45  1  0  0  0  0
 46 49  1  0  0  0  0
 46110  1  6  0  0  0
 47 46  1  0  0  0  0
 47 48  2  0  0  0  0
 47 56  1  0  0  0  0
 49 50  1  0  0  0  0
 49111  1  0  0  0  0
 49112  1  0  0  0  0
 50 51  1  0  0  0  0
 50113  1  0  0  0  0
 50114  1  0  0  0  0
 51 52  1  0  0  0  0
 51115  1  0  0  0  0
 51116  1  0  0  0  0
 52 53  1  0  0  0  0
 52117  1  0  0  0  0
 53 55  1  0  0  0  0
 53 54  1  0  0  0  0
 54118  1  0  0  0  0
 54119  1  0  0  0  0
 55120  1  0  0  0  0
 55121  1  0  0  0  0
 56 57  1  0  0  0  0
 56122  1  0  0  0  0
 57 60  1  0  0  0  0
 57 58  1  0  0  0  0
 57123  1  1  0  0  0
 58 59  1  0  0  0  0
 58 65  2  0  0  0  0
 60 61  1  0  0  0  0
 60124  1  0  0  0  0
 60125  1  0  0  0  0
 61 62  1  0  0  0  0
 61126  1  0  0  0  0
 61127  1  0  0  0  0
 62 64  2  0  0  0  0
 62 63  1  0  0  0  0
M  CHG  5   1   1  22  -1  34   1  59  -1  63  -1
M  END
