2er9_ligand
 OpenBabel08222323343D

132135  0  0  1  0  0  0  0  0999 V2000
   32.9440   -4.9710  -11.3300 O   0  0  0  0  0  0  0  0  0  0  0  0
   32.0340   -4.6980  -10.5550 C   0  0  0  0  0  0  0  0  0  0  0  0
   30.6570   -4.7680  -10.8890 O   0  0  0  0  0  0  0  0  0  0  0  0
   30.4470   -5.2750  -12.1930 C   0  0  0  0  0  0  0  0  0  0  0  0
   30.8750   -4.2200  -13.2280 C   0  0  0  0  0  0  0  0  0  0  0  0
   28.9400   -5.5710  -12.3680 C   0  0  0  0  0  0  0  0  0  0  0  0
   31.2390   -6.5710  -12.4030 C   0  0  0  0  0  0  0  0  0  0  0  0
   32.2360   -4.2970   -9.3080 N   0  0  0  0  0  0  0  0  0  0  0  0
   33.5710   -4.3610   -8.6750 C   0  0  2  0  0  0  0  0  0  0  0  0
   33.3970   -4.7760   -7.2060 C   0  0  0  0  0  0  0  0  0  0  0  0
   33.7020   -3.9880   -6.3210 O   0  0  0  0  0  0  0  0  0  0  0  0
   34.2240   -2.9720   -8.7110 C   0  0  0  0  0  0  0  0  0  0  0  0
   34.0100   -2.2980  -10.0640 C   0  0  0  0  0  0  0  0  0  0  0  0
   32.9450   -1.4820  -10.4290 N   0  0  0  0  0  0  0  0  0  0  0  0
   34.8750   -2.3950  -11.1580 C   0  0  0  0  0  0  0  0  0  0  0  0
   33.1420   -1.0770  -11.7500 C   0  0  0  0  0  0  0  0  0  0  0  0
   34.3380   -1.6410  -12.2010 N   0  0  0  0  0  0  0  0  0  0  0  0
   32.9160   -5.9870   -6.9810 N   0  0  0  0  0  0  0  0  0  0  0  0
   32.4940   -6.4320   -5.6710 C   0  0  2  0  0  0  0  0  0  0  0  0
   33.6560   -6.5580   -4.6880 C   0  0  0  0  0  0  0  0  0  0  0  0
   34.8250   -6.5470   -5.0360 O   0  0  0  0  0  0  0  0  0  0  0  0
   31.9240   -7.7960   -5.9970 C   0  0  0  0  0  0  0  0  0  0  0  0
   32.5500   -8.2490   -7.2920 C   0  0  0  0  0  0  0  0  0  0  0  0
   32.7690   -6.9650   -8.0660 C   0  0  0  0  0  0  0  0  0  0  0  0
   33.2950   -6.6630   -3.4370 N   0  0  0  0  0  0  0  0  0  0  0  0
   34.2820   -6.7970   -2.3380 C   0  0  2  0  0  0  0  0  0  0  0  0
   33.7670   -7.9640   -1.4570 C   0  0  0  0  0  0  0  0  0  0  0  0
   32.5930   -8.0030   -1.2270 O   0  0  0  0  0  0  0  0  0  0  0  0
   34.1210   -5.5090   -1.4650 C   0  0  0  0  0  0  0  0  0  0  0  0
   34.8830   -4.3720   -2.1480 C   0  0  0  0  0  0  0  0  0  0  0  0
   34.2450   -3.5600   -3.0740 C   0  0  0  0  0  0  0  0  0  0  0  0
   36.2210   -4.1670   -1.8240 C   0  0  0  0  0  0  0  0  0  0  0  0
   34.9460   -2.5290   -3.6890 C   0  0  0  0  0  0  0  0  0  0  0  0
   36.9260   -3.1300   -2.4420 C   0  0  0  0  0  0  0  0  0  0  0  0
   36.2830   -2.3210   -3.3670 C   0  0  0  0  0  0  0  0  0  0  0  0
   34.6540   -8.8030   -1.0470 N   0  0  0  0  0  0  0  0  0  0  0  0
   34.4250   -9.8190    0.0040 C   0  0  2  0  0  0  0  0  0  0  0  0
   35.5400   -9.7320    1.0430 C   0  0  0  0  0  0  0  0  0  0  0  0
   36.6080  -10.2910    0.8830 O   0  0  0  0  0  0  0  0  0  0  0  0
   34.3650  -11.1730   -0.6570 C   0  0  0  0  0  0  0  0  0  0  0  0
   34.3570  -12.3510    0.2920 C   0  0  0  0  0  0  0  0  0  0  0  0
   33.9000  -12.3850    1.5950 N   0  0  0  0  0  0  0  0  0  0  0  0
   34.8320  -13.6320   -0.0450 C   0  0  0  0  0  0  0  0  0  0  0  0
   34.0890  -13.6830    2.0850 C   0  0  0  0  0  0  0  0  0  0  0  0
   34.6520  -14.4270    1.0780 N   0  0  0  0  0  0  0  0  0  0  0  0
   35.2660   -9.0110    2.1230 N   0  0  0  0  0  0  0  0  0  0  0  0
   36.2400   -8.7630    3.1850 C   0  0  1  0  0  0  0  0  0  0  0  0
   36.7490   -7.3720    3.2110 C   0  0  0  0  0  0  0  0  0  0  0  0
   37.2040   -6.7510    1.9200 C   0  0  0  0  0  0  0  0  0  0  0  0
   37.3720   -5.2440    2.0540 C   0  0  0  0  0  0  0  0  0  0  0  0
   38.5740   -7.3000    1.4150 C   0  0  0  0  0  0  0  0  0  0  0  0
   35.6950   -9.2000    4.5530 C   0  0  1  0  0  0  0  0  0  0  0  0
   34.5450   -8.4800    4.9000 O   0  0  0  0  0  0  0  0  0  0  0  0
   35.3740  -10.7030    4.5640 C   0  0  0  0  0  0  0  0  0  0  0  0
   36.6380  -11.5220    4.7400 C   0  0  0  0  0  0  0  0  0  0  0  0
   37.4860  -11.5300    3.8500 O   0  0  0  0  0  0  0  0  0  0  0  0
   36.7890  -12.2010    5.8630 N   0  0  0  0  0  0  0  0  0  0  0  0
   37.8180  -13.2800    5.9280 C   0  0  2  0  0  0  0  0  0  0  0  0
   37.2760  -14.5430    5.2570 C   0  0  0  0  0  0  0  0  0  0  0  0
   36.1000  -14.8770    5.4240 O   0  0  0  0  0  0  0  0  0  0  0  0
   38.1510  -13.5490    7.3840 C   0  0  0  0  0  0  0  0  0  0  0  0
   38.9300  -12.4170    8.0130 C   0  0  0  0  0  0  0  0  0  0  0  0
   38.7780  -12.3690    9.5270 C   0  0  0  0  0  0  0  0  0  0  0  0
   40.3760  -12.3210    7.6040 C   0  0  0  0  0  0  0  0  0  0  0  0
   38.1100  -15.2360    4.5030 N   0  0  0  0  0  0  0  0  0  0  0  0
   30.7118   -4.6139  -14.2420 H   0  0  0  0  0  0  0  0  0  0  0  0
   31.9411   -3.9853  -13.0930 H   0  0  0  0  0  0  0  0  0  0  0  0
   30.2780   -3.3066  -13.0890 H   0  0  0  0  0  0  0  0  0  0  0  0
   28.7590   -5.9666  -13.3783 H   0  0  0  0  0  0  0  0  0  0  0  0
   28.3655   -4.6433  -12.2292 H   0  0  0  0  0  0  0  0  0  0  0  0
   28.6230   -6.3138  -11.6212 H   0  0  0  0  0  0  0  0  0  0  0  0
   31.0621   -6.9479  -13.4212 H   0  0  0  0  0  0  0  0  0  0  0  0
   30.9109   -7.3239  -11.6712 H   0  0  0  0  0  0  0  0  0  0  0  0
   32.3121   -6.3710  -12.2674 H   0  0  0  0  0  0  0  0  0  0  0  0
   31.4644   -3.9414   -8.7806 H   0  0  0  0  0  0  0  0  0  0  0  0
   34.2037   -5.0890   -9.2038 H   0  0  0  0  0  0  0  0  0  0  0  0
   35.3037   -3.0780   -8.5294 H   0  0  0  0  0  0  0  0  0  0  0  0
   33.7795   -2.3457   -7.9236 H   0  0  0  0  0  0  0  0  0  0  0  0
   32.1493   -1.2217   -9.8290 H   0  0  0  0  0  0  0  0  0  0  0  0
   35.8052   -2.9603  -11.1901 H   0  0  0  0  0  0  0  0  0  0  0  0
   32.4796   -0.4341  -12.3279 H   0  0  0  0  0  0  0  0  0  0  0  0
   31.7301   -5.7620   -5.2496 H   0  0  0  0  0  0  0  0  0  0  0  0
   30.8319   -7.7297   -6.1104 H   0  0  0  0  0  0  0  0  0  0  0  0
   32.1668   -8.5068   -5.1933 H   0  0  0  0  0  0  0  0  0  0  0  0
   33.5059   -8.7604   -7.1056 H   0  0  0  0  0  0  0  0  0  0  0  0
   31.8736   -8.9233   -7.8377 H   0  0  0  0  0  0  0  0  0  0  0  0
   33.6776   -7.0188   -8.6836 H   0  0  0  0  0  0  0  0  0  0  0  0
   31.9050   -6.7291   -8.7046 H   0  0  0  0  0  0  0  0  0  0  0  0
   32.3205   -6.6527   -3.2128 H   0  0  0  0  0  0  0  0  0  0  0  0
   35.3104   -6.9486   -2.6977 H   0  0  0  0  0  0  0  0  0  0  0  0
   34.5353   -5.6849   -0.4613 H   0  0  0  0  0  0  0  0  0  0  0  0
   33.0561   -5.2463   -1.3813 H   0  0  0  0  0  0  0  0  0  0  0  0
   33.2023   -3.7289   -3.3175 H   0  0  0  0  0  0  0  0  0  0  0  0
   36.7121   -4.8058   -1.0989 H   0  0  0  0  0  0  0  0  0  0  0  0
   34.4539   -1.8915   -4.4146 H   0  0  0  0  0  0  0  0  0  0  0  0
   37.9687   -2.9593   -2.1998 H   0  0  0  0  0  0  0  0  0  0  0  0
   36.8295   -1.5162   -3.8452 H   0  0  0  0  0  0  0  0  0  0  0  0
   35.5602   -8.7651   -1.4681 H   0  0  0  0  0  0  0  0  0  0  0  0
   33.4639   -9.6223    0.5016 H   0  0  0  0  0  0  0  0  0  0  0  0
   35.2419  -11.2707   -1.3138 H   0  0  0  0  0  0  0  0  0  0  0  0
   33.4472  -11.2165   -1.2618 H   0  0  0  0  0  0  0  0  0  0  0  0
   33.4921  -11.5948    2.1147 H   0  0  0  0  0  0  0  0  0  0  0  0
   35.2572  -13.9390   -0.9994 H   0  0  0  0  0  0  0  0  0  0  0  0
   33.8356  -14.0376    3.0830 H   0  0  0  0  0  0  0  0  0  0  0  0
   34.3506   -8.6190    2.2148 H   0  0  0  0  0  0  0  0  0  0  0  0
   37.1066   -9.4050    2.9687 H   0  0  0  0  0  0  0  0  0  0  0  0
   37.6058   -7.3525    3.9005 H   0  0  0  0  0  0  0  0  0  0  0  0
   35.9429   -6.7385    3.6097 H   0  0  0  0  0  0  0  0  0  0  0  0
   36.4377   -6.9617    1.1595 H   0  0  0  0  0  0  0  0  0  0  0  0
   37.7048   -4.8253    1.0928 H   0  0  0  0  0  0  0  0  0  0  0  0
   38.1223   -5.0261    2.8283 H   0  0  0  0  0  0  0  0  0  0  0  0
   36.4103   -4.7916    2.3377 H   0  0  0  0  0  0  0  0  0  0  0  0
   38.5111   -8.3921    1.2991 H   0  0  0  0  0  0  0  0  0  0  0  0
   39.3593   -7.0533    2.1447 H   0  0  0  0  0  0  0  0  0  0  0  0
   38.8176   -6.8418    0.4451 H   0  0  0  0  0  0  0  0  0  0  0  0
   36.4700   -9.0027    5.3082 H   0  0  0  0  0  0  0  0  0  0  0  0
   34.7526   -7.5538    4.9400 H   0  0  0  0  0  0  0  0  0  0  0  0
   34.8965  -10.9768    3.6116 H   0  0  0  0  0  0  0  0  0  0  0  0
   34.6859  -10.9188    5.3946 H   0  0  0  0  0  0  0  0  0  0  0  0
   36.2209  -11.9946    6.6597 H   0  0  0  0  0  0  0  0  0  0  0  0
   38.7269  -12.9535    5.4015 H   0  0  0  0  0  0  0  0  0  0  0  0
   38.7515  -14.4685    7.4455 H   0  0  0  0  0  0  0  0  0  0  0  0
   37.2129  -13.6857    7.9420 H   0  0  0  0  0  0  0  0  0  0  0  0
   38.4582  -11.4987    7.6334 H   0  0  0  0  0  0  0  0  0  0  0  0
   39.3643  -11.5290    9.9279 H   0  0  0  0  0  0  0  0  0  0  0  0
   39.1425  -13.3112    9.9622 H   0  0  0  0  0  0  0  0  0  0  0  0
   37.7175  -12.2320    9.7849 H   0  0  0  0  0  0  0  0  0  0  0  0
   40.4500  -12.3586    6.5071 H   0  0  0  0  0  0  0  0  0  0  0  0
   40.9365  -13.1619    8.0383 H   0  0  0  0  0  0  0  0  0  0  0  0
   40.7977  -11.3724    7.9676 H   0  0  0  0  0  0  0  0  0  0  0  0
   37.7968  -16.0684    4.0458 H   0  0  0  0  0  0  0  0  0  0  0  0
   39.0547  -14.9283    4.3893 H   0  0  0  0  0  0  0  0  0  0  0  0
  2  1  2  0  0  0  0
  2  3  1  0  0  0  0
  3  4  1  0  0  0  0
  4  5  1  0  0  0  0
  4  6  1  0  0  0  0
  4  7  1  0  0  0  0
  5 66  1  0  0  0  0
  5 67  1  0  0  0  0
  5 68  1  0  0  0  0
  6 69  1  0  0  0  0
  6 70  1  0  0  0  0
  6 71  1  0  0  0  0
  7 72  1  0  0  0  0
  7 73  1  0  0  0  0
  7 74  1  0  0  0  0
  8  2  1  0  0  0  0
  8 75  1  0  0  0  0
  9  8  1  0  0  0  0
  9 12  1  0  0  0  0
  9 76  1  6  0  0  0
 10  9  1  0  0  0  0
 10 11  2  0  0  0  0
 12 13  1  0  0  0  0
 12 77  1  0  0  0  0
 12 78  1  0  0  0  0
 13 14  1  0  0  0  0
 13 15  2  0  0  0  0
 14 16  1  0  0  0  0
 14 79  1  0  0  0  0
 15 17  1  0  0  0  0
 15 80  1  0  0  0  0
 16 81  1  0  0  0  0
 17 16  2  0  0  0  0
 18 24  1  0  0  0  0
 18 10  1  0  0  0  0
 19 22  1  0  0  0  0
 19 18  1  0  0  0  0
 19 82  1  1  0  0  0
 20 19  1  0  0  0  0
 20 21  2  0  0  0  0
 22 23  1  0  0  0  0
 22 83  1  0  0  0  0
 22 84  1  0  0  0  0
 23 85  1  0  0  0  0
 23 86  1  0  0  0  0
 24 23  1  0  0  0  0
 24 87  1  0  0  0  0
 24 88  1  0  0  0  0
 25 20  1  0  0  0  0
 25 89  1  0  0  0  0
 26 25  1  0  0  0  0
 26 29  1  0  0  0  0
 26 90  1  6  0  0  0
 27 26  1  0  0  0  0
 27 28  2  0  0  0  0
 29 30  1  0  0  0  0
 29 91  1  0  0  0  0
 29 92  1  0  0  0  0
 30 31  2  0  0  0  0
 30 32  1  0  0  0  0
 31 33  1  0  0  0  0
 31 93  1  0  0  0  0
 32 34  2  0  0  0  0
 32 94  1  0  0  0  0
 33 35  2  0  0  0  0
 33 95  1  0  0  0  0
 34 35  1  0  0  0  0
 34 96  1  0  0  0  0
 35 97  1  0  0  0  0
 36 27  1  0  0  0  0
 36 98  1  0  0  0  0
 37 36  1  0  0  0  0
 37 40  1  0  0  0  0
 37 99  1  1  0  0  0
 38 37  1  0  0  0  0
 38 39  2  0  0  0  0
 40 41  1  0  0  0  0
 40100  1  0  0  0  0
 40101  1  0  0  0  0
 41 42  1  0  0  0  0
 41 43  2  0  0  0  0
 42 44  1  0  0  0  0
 42102  1  0  0  0  0
 43 45  1  0  0  0  0
 43103  1  0  0  0  0
 44104  1  0  0  0  0
 45 44  2  0  0  0  0
 46 38  1  0  0  0  0
 46105  1  0  0  0  0
 47 46  1  0  0  0  0
 47 48  1  0  0  0  0
 47106  1  6  0  0  0
 48 49  1  0  0  0  0
 48107  1  0  0  0  0
 48108  1  0  0  0  0
 49 50  1  0  0  0  0
 49 51  1  0  0  0  0
 49109  1  0  0  0  0
 50110  1  0  0  0  0
 50111  1  0  0  0  0
 50112  1  0  0  0  0
 51113  1  0  0  0  0
 51114  1  0  0  0  0
 51115  1  0  0  0  0
 52 47  1  0  0  0  0
 52 53  1  0  0  0  0
 52116  1  1  0  0  0
 53117  1  0  0  0  0
 54 52  1  0  0  0  0
 54118  1  0  0  0  0
 54119  1  0  0  0  0
 55 54  1  0  0  0  0
 55 56  2  0  0  0  0
 55 57  1  0  0  0  0
 57 58  1  0  0  0  0
 57120  1  0  0  0  0
 58 61  1  0  0  0  0
 58 59  1  0  0  0  0
 58121  1  6  0  0  0
 59 60  2  0  0  0  0
 59 65  1  0  0  0  0
 61 62  1  0  0  0  0
 61122  1  0  0  0  0
 61123  1  0  0  0  0
 62 63  1  0  0  0  0
 62 64  1  0  0  0  0
 62124  1  0  0  0  0
 63125  1  0  0  0  0
 63126  1  0  0  0  0
 63127  1  0  0  0  0
 64128  1  0  0  0  0
 64129  1  0  0  0  0
 64130  1  0  0  0  0
 65131  1  0  0  0  0
 65132  1  0  0  0  0
M  END
