2etk_ligand
 OpenBabel08222323343D

 39 41  0  0  0  0  0  0  0  0999 V2000
   50.1370   98.4500   24.9940 O   0  0  0  0  0  0  0  0  0  0  0  0
   50.2380   99.5810   25.5210 C   0  0  0  0  0  0  0  0  0  0  0  0
   49.9040  100.6800   24.8260 N   0  0  0  0  0  0  0  0  0  0  0  0
   49.9940  101.9200   25.3480 C   0  0  0  0  0  0  0  0  0  0  0  0
   50.4390  102.1680   26.6510 C   0  0  0  0  0  0  0  0  0  0  0  0
   50.8150  101.1100   27.4760 C   0  0  0  0  0  0  0  0  0  0  0  0
   51.3050  101.2740   28.8820 C   0  0  0  0  0  0  0  0  0  0  0  0
   51.6420  100.1120   29.5840 C   0  0  0  0  0  0  0  0  0  0  0  0
   51.5380   98.8390   29.0160 C   0  0  0  0  0  0  0  0  0  0  0  0
   51.0890   98.6440   27.7090 C   0  0  0  0  0  0  0  0  0  0  0  0
   50.7230   99.7330   26.9210 C   0  0  0  0  0  0  0  0  0  0  0  0
   51.4400  102.7120   29.5830 S   0  0  0  0  0  0  0  0  0  0  0  0
   52.1500  103.6120   28.7190 O   0  0  0  0  0  0  0  0  0  0  0  0
   50.1220  103.2420   29.7990 O   0  0  0  0  0  0  0  0  0  0  0  0
   52.1950  102.6000   30.9140 N   0  0  0  0  0  0  0  0  0  0  0  0
   53.6590  102.7090   30.9350 C   0  0  0  0  0  0  0  0  0  0  0  0
   54.0230  104.0180   31.6420 C   0  0  0  0  0  0  0  0  0  0  0  0
   53.8410  103.9030   33.1570 C   0  0  0  0  0  0  0  0  0  0  0  0
   52.4730  104.1420   33.6000 N   0  3  0  0  0  0  0  0  0  0  0  0
   51.2960  103.7010   32.8630 C   0  0  0  0  0  0  0  0  0  0  0  0
   51.4670  102.3510   32.1620 C   0  0  0  0  0  0  0  0  0  0  0  0
   49.5765  100.5752   23.8870 H   0  0  0  0  0  0  0  0  0  0  0  0
   49.7072  102.7673   24.7269 H   0  0  0  0  0  0  0  0  0  0  0  0
   50.4916  103.1907   27.0214 H   0  0  0  0  0  0  0  0  0  0  0  0
   51.9963  100.2019   30.6045 H   0  0  0  0  0  0  0  0  0  0  0  0
   51.8150   97.9754   29.6098 H   0  0  0  0  0  0  0  0  0  0  0  0
   51.0247   97.6402   27.3050 H   0  0  0  0  0  0  0  0  0  0  0  0
   54.0479  102.7192   29.9061 H   0  0  0  0  0  0  0  0  0  0  0  0
   54.0895  101.8569   31.4813 H   0  0  0  0  0  0  0  0  0  0  0  0
   53.3743  104.8217   31.2635 H   0  0  0  0  0  0  0  0  0  0  0  0
   55.0735  104.2619   31.4252 H   0  0  0  0  0  0  0  0  0  0  0  0
   54.4976  104.6395   33.6431 H   0  0  0  0  0  0  0  0  0  0  0  0
   54.1347  102.8892   33.4666 H   0  0  0  0  0  0  0  0  0  0  0  0
   52.3834  105.1422   33.6873 H   0  0  0  0  0  0  0  0  0  0  0  0
   52.4013  103.7173   34.5114 H   0  0  0  0  0  0  0  0  0  0  0  0
   51.0617  104.4587   32.1008 H   0  0  0  0  0  0  0  0  0  0  0  0
   50.4566  103.6196   33.5693 H   0  0  0  0  0  0  0  0  0  0  0  0
   52.0400  101.6639   32.8020 H   0  0  0  0  0  0  0  0  0  0  0  0
   50.4822  101.9127   31.9429 H   0  0  0  0  0  0  0  0  0  0  0  0
  1  2  2  0  0  0  0
  2  3  1  0  0  0  0
  2 11  1  0  0  0  0
  3  4  1  0  0  0  0
  3 22  1  0  0  0  0
  4  5  2  0  0  0  0
  4 23  1  0  0  0  0
  5  6  1  0  0  0  0
  5 24  1  0  0  0  0
  6  7  2  0  0  0  0
  6 11  1  0  0  0  0
  7  8  1  0  0  0  0
  7 12  1  0  0  0  0
  8  9  2  0  0  0  0
  8 25  1  0  0  0  0
  9 10  1  0  0  0  0
  9 26  1  0  0  0  0
 10 11  2  0  0  0  0
 10 27  1  0  0  0  0
 12 13  2  0  0  0  0
 12 14  2  0  0  0  0
 12 15  1  0  0  0  0
 15 16  1  0  0  0  0
 15 21  1  0  0  0  0
 16 17  1  0  0  0  0
 16 28  1  0  0  0  0
 16 29  1  0  0  0  0
 17 18  1  0  0  0  0
 17 30  1  0  0  0  0
 17 31  1  0  0  0  0
 18 19  1  0  0  0  0
 18 32  1  0  0  0  0
 18 33  1  0  0  0  0
 19 20  1  0  0  0  0
 19 34  1  0  0  0  0
 19 35  1  0  0  0  0
 20 21  1  0  0  0  0
 20 36  1  0  0  0  0
 20 37  1  0  0  0  0
 21 38  1  0  0  0  0
 21 39  1  0  0  0  0
M  CHG  1  19   1
M  END
