2euf_ligand
 OpenBabel08222323343D

 63 67  0  0  0  0  0  0  0  0999 V2000
   32.4090   28.5440   60.1410 O   0  0  0  0  0  0  0  0  0  0  0  0
   33.0080   27.5190   59.9010 C   0  0  0  0  0  0  0  0  0  0  0  0
   34.3120   27.5070   59.1620 C   0  0  0  0  0  0  0  0  0  0  0  0
   32.4150   26.2120   60.3390 C   0  0  0  0  0  0  0  0  0  0  0  0
   32.6480   25.6900   61.6150 C   0  0  0  0  0  0  0  0  0  0  0  0
   33.4290   26.4260   62.6690 C   0  0  0  0  0  0  0  0  0  0  0  0
   31.9290   24.4600   62.0050 C   0  0  0  0  0  0  0  0  0  0  0  0
   32.1990   23.7830   63.2720 C   0  0  0  0  0  0  0  0  0  0  0  0
   31.5880   22.6260   63.5420 N   0  0  0  0  0  0  0  0  0  0  0  0
   30.8720   21.9680   62.6070 C   0  0  0  0  0  0  0  0  0  0  0  0
   30.7030   22.5010   61.3540 N   0  0  0  0  0  0  0  0  0  0  0  0
   31.2660   23.6800   60.9670 C   0  0  0  0  0  0  0  0  0  0  0  0
   31.0700   24.2300   59.7410 N   0  0  0  0  0  0  0  0  0  0  0  0
   30.2950   23.4750   58.7390 C   0  0  0  0  0  0  0  0  0  0  0  0
   29.2130   24.2680   58.0150 C   0  0  0  0  0  0  0  0  0  0  0  0
   29.2870   23.8720   56.5360 C   0  0  0  0  0  0  0  0  0  0  0  0
   30.5060   22.9550   56.3320 C   0  0  0  0  0  0  0  0  0  0  0  0
   31.2520   22.9450   57.6650 C   0  0  0  0  0  0  0  0  0  0  0  0
   31.6630   25.4930   59.4060 C   0  0  0  0  0  0  0  0  0  0  0  0
   31.5220   26.0010   58.2620 O   0  0  0  0  0  0  0  0  0  0  0  0
   30.3500   20.7760   63.0170 N   0  0  0  0  0  0  0  0  0  0  0  0
   29.6660   19.8610   62.2880 C   0  0  0  0  0  0  0  0  0  0  0  0
   29.5140   18.6170   62.8010 N   0  0  0  0  0  0  0  0  0  0  0  0
   28.8440   17.6710   62.1330 C   0  0  0  0  0  0  0  0  0  0  0  0
   28.2800   17.9460   60.8870 C   0  0  0  0  0  0  0  0  0  0  0  0
   28.4240   19.2200   60.3470 C   0  0  0  0  0  0  0  0  0  0  0  0
   29.1170   20.1840   61.0520 C   0  0  0  0  0  0  0  0  0  0  0  0
   27.5710   16.9530   60.1740 N   0  0  0  0  0  0  0  0  0  0  0  0
   28.4660   15.8000   59.9060 C   0  0  0  0  0  0  0  0  0  0  0  0
   27.7120   14.6830   59.1890 C   0  0  0  0  0  0  0  0  0  0  0  0
   27.0440   15.1960   58.0030 N   0  3  0  0  0  0  0  0  0  0  0  0
   26.3410   16.4760   58.0250 C   0  0  0  0  0  0  0  0  0  0  0  0
   26.9860   17.5260   58.9330 C   0  0  0  0  0  0  0  0  0  0  0  0
   34.6670   26.4707   59.0616 H   0  0  0  0  0  0  0  0  0  0  0  0
   35.0548   28.0966   59.7193 H   0  0  0  0  0  0  0  0  0  0  0  0
   34.1712   27.9448   58.1627 H   0  0  0  0  0  0  0  0  0  0  0  0
   33.9023   27.3128   62.2223 H   0  0  0  0  0  0  0  0  0  0  0  0
   34.2054   25.7637   63.0795 H   0  0  0  0  0  0  0  0  0  0  0  0
   32.7505   26.7398   63.4759 H   0  0  0  0  0  0  0  0  0  0  0  0
   32.8894   24.2162   63.9867 H   0  0  0  0  0  0  0  0  0  0  0  0
   29.8150   22.6292   59.2529 H   0  0  0  0  0  0  0  0  0  0  0  0
   29.3952   25.3469   58.1275 H   0  0  0  0  0  0  0  0  0  0  0  0
   28.2230   24.0187   58.4245 H   0  0  0  0  0  0  0  0  0  0  0  0
   29.3945   24.7742   55.9160 H   0  0  0  0  0  0  0  0  0  0  0  0
   28.3694   23.3373   56.2494 H   0  0  0  0  0  0  0  0  0  0  0  0
   31.1528   23.3503   55.5349 H   0  0  0  0  0  0  0  0  0  0  0  0
   30.1797   21.9380   56.0689 H   0  0  0  0  0  0  0  0  0  0  0  0
   31.5622   21.9192   57.9129 H   0  0  0  0  0  0  0  0  0  0  0  0
   32.1397   23.5915   57.6023 H   0  0  0  0  0  0  0  0  0  0  0  0
   30.4946   20.5411   64.0094 H   0  0  0  0  0  0  0  0  0  0  0  0
   28.7384   16.6819   62.5638 H   0  0  0  0  0  0  0  0  0  0  0  0
   27.9951   19.4543   59.3794 H   0  0  0  0  0  0  0  0  0  0  0  0
   29.2319   21.1825   60.6460 H   0  0  0  0  0  0  0  0  0  0  0  0
   28.8559   15.4168   60.8605 H   0  0  0  0  0  0  0  0  0  0  0  0
   29.3033   16.1326   59.2749 H   0  0  0  0  0  0  0  0  0  0  0  0
   26.9613   14.2576   59.8713 H   0  0  0  0  0  0  0  0  0  0  0  0
   28.4239   13.8988   58.8922 H   0  0  0  0  0  0  0  0  0  0  0  0
   26.3645   14.5014   57.7348 H   0  0  0  0  0  0  0  0  0  0  0  0
   27.7496   15.2699   57.2870 H   0  0  0  0  0  0  0  0  0  0  0  0
   25.3134   16.3001   58.3757 H   0  0  0  0  0  0  0  0  0  0  0  0
   26.3156   16.8742   56.9999 H   0  0  0  0  0  0  0  0  0  0  0  0
   27.7860   18.0296   58.3704 H   0  0  0  0  0  0  0  0  0  0  0  0
   26.2183   18.2611   59.2163 H   0  0  0  0  0  0  0  0  0  0  0  0
  1  2  2  0  0  0  0
  2  3  1  0  0  0  0
  2  4  1  0  0  0  0
  3 34  1  0  0  0  0
  3 35  1  0  0  0  0
  3 36  1  0  0  0  0
  4  5  2  0  0  0  0
  4 19  1  0  0  0  0
  5  6  1  0  0  0  0
  5  7  1  0  0  0  0
  6 37  1  0  0  0  0
  6 38  1  0  0  0  0
  6 39  1  0  0  0  0
  7  8  2  0  0  0  0
  7 12  1  0  0  0  0
  8  9  1  0  0  0  0
  8 40  1  0  0  0  0
  9 10  2  0  0  0  0
 10 11  1  0  0  0  0
 10 21  1  0  0  0  0
 11 12  2  0  0  0  0
 12 13  1  0  0  0  0
 13 14  1  0  0  0  0
 13 19  1  0  0  0  0
 14 15  1  0  0  0  0
 14 18  1  0  0  0  0
 14 41  1  0  0  0  0
 15 16  1  0  0  0  0
 15 42  1  0  0  0  0
 15 43  1  0  0  0  0
 16 17  1  0  0  0  0
 16 44  1  0  0  0  0
 16 45  1  0  0  0  0
 17 18  1  0  0  0  0
 17 46  1  0  0  0  0
 17 47  1  0  0  0  0
 18 48  1  0  0  0  0
 18 49  1  0  0  0  0
 19 20  2  0  0  0  0
 21 22  1  0  0  0  0
 21 50  1  0  0  0  0
 22 23  2  0  0  0  0
 22 27  1  0  0  0  0
 23 24  1  0  0  0  0
 24 25  2  0  0  0  0
 24 51  1  0  0  0  0
 25 26  1  0  0  0  0
 25 28  1  0  0  0  0
 26 27  2  0  0  0  0
 26 52  1  0  0  0  0
 27 53  1  0  0  0  0
 28 29  1  0  0  0  0
 28 33  1  0  0  0  0
 29 30  1  0  0  0  0
 29 54  1  0  0  0  0
 29 55  1  0  0  0  0
 30 31  1  0  0  0  0
 30 56  1  0  0  0  0
 30 57  1  0  0  0  0
 31 32  1  0  0  0  0
 31 58  1  0  0  0  0
 31 59  1  0  0  0  0
 32 33  1  0  0  0  0
 32 60  1  0  0  0  0
 32 61  1  0  0  0  0
 33 62  1  0  0  0  0
 33 63  1  0  0  0  0
M  CHG  1  31   1
M  END
