2evo_ligand
 OpenBabel08222323343D

 29 30  0  0  0  0  0  0  0  0999 V2000
    8.1480   -0.2440   73.8210 O   0  0  0  0  0  0  0  0  0  0  0  0
    8.3050   -0.4570   72.5990 C   0  0  0  0  0  0  0  0  0  0  0  0
    9.2150    0.2700   71.8470 N   0  0  0  0  0  0  0  0  0  0  0  0
    9.9890    1.2540   72.3700 C   0  0  0  0  0  0  0  0  0  0  0  0
   10.8820    1.9860   71.6980 N   0  0  0  0  0  0  0  0  0  0  0  0
   10.0100    1.7810   73.9600 S   0  0  0  0  0  0  0  0  0  0  0  0
   11.1680    2.9650   73.8200 C   0  0  0  0  0  0  0  0  0  0  0  0
   11.5570    2.9520   72.4880 C   0  0  0  0  0  0  0  0  0  0  0  0
    7.6440   -1.7260   70.7170 O   0  0  0  0  0  0  0  0  0  0  0  0
    7.4940   -1.5100   71.9340 C   0  0  0  0  0  0  0  0  0  0  0  0
    6.5890   -2.2280   72.6770 N   0  0  0  0  0  0  0  0  0  0  0  0
    5.7520   -3.2800   72.0740 C   0  0  0  0  0  0  0  0  0  0  0  0
    6.0670   -4.7380   72.4580 C   0  0  0  0  0  0  0  0  0  0  0  0
    4.2490   -3.2100   72.3850 C   0  0  0  0  0  0  0  0  0  0  0  0
    4.0900   -3.9810   73.7040 C   0  0  0  0  0  0  0  0  0  0  0  0
    5.2700   -4.9710   73.7570 C   0  0  0  0  0  0  0  0  0  0  0  0
    9.3051    0.0593   70.8736 H   0  0  0  0  0  0  0  0  0  0  0  0
   11.5432    3.6153   74.6089 H   0  0  0  0  0  0  0  0  0  0  0  0
   12.3134    3.6238   72.0848 H   0  0  0  0  0  0  0  0  0  0  0  0
    6.4957   -2.0315   73.6531 H   0  0  0  0  0  0  0  0  0  0  0  0
    5.8878   -3.1736   70.9876 H   0  0  0  0  0  0  0  0  0  0  0  0
    7.1448   -4.8706   72.6332 H   0  0  0  0  0  0  0  0  0  0  0  0
    5.7361   -5.4290   71.6687 H   0  0  0  0  0  0  0  0  0  0  0  0
    3.6641   -3.6859   71.5841 H   0  0  0  0  0  0  0  0  0  0  0  0
    3.9253   -2.1655   72.5043 H   0  0  0  0  0  0  0  0  0  0  0  0
    3.1336   -4.5242   73.7172 H   0  0  0  0  0  0  0  0  0  0  0  0
    4.1312   -3.2900   74.5589 H   0  0  0  0  0  0  0  0  0  0  0  0
    5.9006   -4.7697   74.6355 H   0  0  0  0  0  0  0  0  0  0  0  0
    4.9007   -6.0062   73.8002 H   0  0  0  0  0  0  0  0  0  0  0  0
  1  2  2  0  0  0  0
  2  3  1  0  0  0  0
  2 10  1  0  0  0  0
  3  4  1  0  0  0  0
  3 17  1  0  0  0  0
  4  5  2  0  0  0  0
  4  6  1  0  0  0  0
  5  8  1  0  0  0  0
  6  7  1  0  0  0  0
  7  8  2  0  0  0  0
  7 18  1  0  0  0  0
  8 19  1  0  0  0  0
 10  9  2  0  0  0  0
 10 11  1  0  0  0  0
 11 12  1  0  0  0  0
 11 20  1  0  0  0  0
 12 13  1  0  0  0  0
 12 14  1  0  0  0  0
 12 21  1  0  0  0  0
 13 16  1  0  0  0  0
 13 22  1  0  0  0  0
 13 23  1  0  0  0  0
 14 15  1  0  0  0  0
 14 24  1  0  0  0  0
 14 25  1  0  0  0  0
 15 16  1  0  0  0  0
 15 26  1  0  0  0  0
 15 27  1  0  0  0  0
 16 28  1  0  0  0  0
 16 29  1  0  0  0  0
M  END
