2ewp_ligand
 OpenBabel08222323343D

 63 65  0  0  0  0  0  0  0  0999 V2000
   25.1870    3.2040   27.5250 O   0  0  0  0  0  0  0  0  0  0  0  0
   24.1260    2.5960   28.1510 C   0  0  0  0  0  0  0  0  0  0  0  0
   23.2560    3.2750   29.0030 C   0  0  0  0  0  0  0  0  0  0  0  0
   22.1930    2.5950   29.6160 C   0  0  0  0  0  0  0  0  0  0  0  0
   23.9270    1.2480   27.9280 C   0  0  0  0  0  0  0  0  0  0  0  0
   22.8770    0.5700   28.5290 C   0  0  0  0  0  0  0  0  0  0  0  0
   22.0110    1.2200   29.4030 C   0  0  0  0  0  0  0  0  0  0  0  0
   20.8550    0.4410   30.0040 C   0  0  0  0  0  0  0  0  0  0  0  0
   20.9520   -0.7150   30.7100 C   0  0  0  0  0  0  0  0  0  0  0  0
   19.7570   -1.4600   31.2430 C   0  0  0  0  0  0  0  0  0  0  0  0
   19.4050   -1.4360   32.5730 C   0  0  0  0  0  0  0  0  0  0  0  0
   18.3050   -2.1540   33.0290 C   0  0  0  0  0  0  0  0  0  0  0  0
   17.5490   -2.9090   32.1470 C   0  0  0  0  0  0  0  0  0  0  0  0
   17.9110   -2.9500   30.8080 C   0  0  0  0  0  0  0  0  0  0  0  0
   19.0080   -2.2310   30.3600 C   0  0  0  0  0  0  0  0  0  0  0  0
   22.2600   -1.4090   30.9980 C   0  0  0  0  0  0  0  0  0  0  0  0
   22.2880   -2.7960   30.3670 C   0  0  0  0  0  0  0  0  0  0  0  0
   23.6710   -3.4200   30.5150 C   0  0  0  0  0  0  0  0  0  0  0  0
   24.1060   -3.2970   31.8650 O   0  0  0  0  0  0  0  0  0  0  0  0
   19.5400    1.1000   29.7570 C   0  0  0  0  0  0  0  0  0  0  0  0
   18.7710    1.5010   30.8460 C   0  0  0  0  0  0  0  0  0  0  0  0
   17.5620    2.1470   30.6490 C   0  0  0  0  0  0  0  0  0  0  0  0
   19.1250    1.3980   28.4670 C   0  0  0  0  0  0  0  0  0  0  0  0
   17.9030    2.0450   28.2700 C   0  0  0  0  0  0  0  0  0  0  0  0
   17.1250    2.4380   29.3550 C   0  0  0  0  0  0  0  0  0  0  0  0
   15.9100    3.0620   29.1720 O   0  0  0  0  0  0  0  0  0  0  0  0
   15.6850    4.3120   28.5400 C   0  0  0  0  0  0  0  0  0  0  0  0
   14.6030    5.0320   29.3380 C   0  0  0  0  0  0  0  0  0  0  0  0
   13.6650    5.7190   28.4320 N   0  3  0  0  0  0  0  0  0  0  0  0
   12.8230    6.6760   29.1910 C   0  0  0  0  0  0  0  0  0  0  0  0
   12.8060    4.7430   27.7410 C   0  0  0  0  0  0  0  0  0  0  0  0
   24.8665    3.9063   26.9714 H   0  0  0  0  0  0  0  0  0  0  0  0
   23.4015    4.3324   29.1925 H   0  0  0  0  0  0  0  0  0  0  0  0
   21.5075    3.1355   30.2586 H   0  0  0  0  0  0  0  0  0  0  0  0
   24.6027    0.7107   27.2723 H   0  0  0  0  0  0  0  0  0  0  0  0
   22.7287   -0.4822   28.3147 H   0  0  0  0  0  0  0  0  0  0  0  0
   19.9913   -0.8513   33.2725 H   0  0  0  0  0  0  0  0  0  0  0  0
   18.0378   -2.1229   34.0791 H   0  0  0  0  0  0  0  0  0  0  0  0
   16.6850   -3.4611   32.4987 H   0  0  0  0  0  0  0  0  0  0  0  0
   17.3341   -3.5462   30.1103 H   0  0  0  0  0  0  0  0  0  0  0  0
   19.2847   -2.2698   29.3126 H   0  0  0  0  0  0  0  0  0  0  0  0
   22.3848   -1.5057   32.0866 H   0  0  0  0  0  0  0  0  0  0  0  0
   23.0848   -0.8089   30.5862 H   0  0  0  0  0  0  0  0  0  0  0  0
   22.0404   -2.7130   29.2984 H   0  0  0  0  0  0  0  0  0  0  0  0
   21.5462   -3.4364   30.8666 H   0  0  0  0  0  0  0  0  0  0  0  0
   24.3799   -2.9013   29.8529 H   0  0  0  0  0  0  0  0  0  0  0  0
   23.6242   -4.4842   30.2406 H   0  0  0  0  0  0  0  0  0  0  0  0
   24.9678   -3.6863   31.9555 H   0  0  0  0  0  0  0  0  0  0  0  0
   19.1204    1.3065   31.8535 H   0  0  0  0  0  0  0  0  0  0  0  0
   16.9535    2.4274   31.5012 H   0  0  0  0  0  0  0  0  0  0  0  0
   19.7445    1.1307   27.6185 H   0  0  0  0  0  0  0  0  0  0  0  0
   17.5571    2.2430   27.2619 H   0  0  0  0  0  0  0  0  0  0  0  0
   15.3485    4.1557   27.5045 H   0  0  0  0  0  0  0  0  0  0  0  0
   16.6108    4.9060   28.5390 H   0  0  0  0  0  0  0  0  0  0  0  0
   15.0743    5.7727   30.0007 H   0  0  0  0  0  0  0  0  0  0  0  0
   14.0502    4.2980   29.9428 H   0  0  0  0  0  0  0  0  0  0  0  0
   14.1964    6.2284   27.7434 H   0  0  0  0  0  0  0  0  0  0  0  0
   12.1292    7.1802   28.5022 H   0  0  0  0  0  0  0  0  0  0  0  0
   13.4659    7.4247   29.6769 H   0  0  0  0  0  0  0  0  0  0  0  0
   12.2496    6.1328   29.9565 H   0  0  0  0  0  0  0  0  0  0  0  0
   13.4335    4.0352   27.1794 H   0  0  0  0  0  0  0  0  0  0  0  0
   12.1367    5.2710   27.0458 H   0  0  0  0  0  0  0  0  0  0  0  0
   12.2061    4.1935   28.4814 H   0  0  0  0  0  0  0  0  0  0  0  0
  1  2  1  0  0  0  0
  1 32  1  0  0  0  0
  2  3  2  0  0  0  0
  2  5  1  0  0  0  0
  3  4  1  0  0  0  0
  3 33  1  0  0  0  0
  4  7  2  0  0  0  0
  4 34  1  0  0  0  0
  5  6  2  0  0  0  0
  5 35  1  0  0  0  0
  6  7  1  0  0  0  0
  6 36  1  0  0  0  0
  7  8  1  0  0  0  0
  8  9  2  0  0  0  0
  8 20  1  0  0  0  0
  9 10  1  0  0  0  0
  9 16  1  0  0  0  0
 10 11  2  0  0  0  0
 10 15  1  0  0  0  0
 11 12  1  0  0  0  0
 11 37  1  0  0  0  0
 12 13  2  0  0  0  0
 12 38  1  0  0  0  0
 13 14  1  0  0  0  0
 13 39  1  0  0  0  0
 14 15  2  0  0  0  0
 14 40  1  0  0  0  0
 15 41  1  0  0  0  0
 16 17  1  0  0  0  0
 16 42  1  0  0  0  0
 16 43  1  0  0  0  0
 17 18  1  0  0  0  0
 17 44  1  0  0  0  0
 17 45  1  0  0  0  0
 18 19  1  0  0  0  0
 18 46  1  0  0  0  0
 18 47  1  0  0  0  0
 19 48  1  0  0  0  0
 20 21  2  0  0  0  0
 20 23  1  0  0  0  0
 21 22  1  0  0  0  0
 21 49  1  0  0  0  0
 22 25  2  0  0  0  0
 22 50  1  0  0  0  0
 23 24  2  0  0  0  0
 23 51  1  0  0  0  0
 24 25  1  0  0  0  0
 24 52  1  0  0  0  0
 25 26  1  0  0  0  0
 26 27  1  0  0  0  0
 27 28  1  0  0  0  0
 27 53  1  0  0  0  0
 27 54  1  0  0  0  0
 28 29  1  0  0  0  0
 28 55  1  0  0  0  0
 28 56  1  0  0  0  0
 29 30  1  0  0  0  0
 29 31  1  0  0  0  0
 29 57  1  0  0  0  0
 30 58  1  0  0  0  0
 30 59  1  0  0  0  0
 30 60  1  0  0  0  0
 31 61  1  0  0  0  0
 31 62  1  0  0  0  0
 31 63  1  0  0  0  0
M  CHG  1  29   1
M  END
