2ewy_ligand
 OpenBabel08222323343D

 71 75  0  0  1  0  0  0  0  0999 V2000
  107.1910   25.7420    1.6240 N   0  0  0  0  0  0  0  0  0  0  0  0
  107.8880   26.1820    2.8810 C   0  0  2  0  0  0  0  0  0  0  0  0
  107.0370   27.1410    3.7160 C   0  0  2  0  0  0  0  0  0  0  0  0
  107.7130   27.5260    4.8490 O   0  0  0  0  0  0  0  0  0  0  0  0
  105.7550   26.5120    4.1790 C   0  0  0  0  0  0  0  0  0  0  0  0
  104.9630   27.4260    4.9820 N   0  3  0  0  0  0  0  0  0  0  0  0
  104.1060   26.8440    6.0400 C   0  0  0  0  0  0  0  0  0  0  0  0
  104.7210   25.7210    6.9250 C   0  0  0  0  0  0  0  0  0  0  0  0
  105.9330   25.9350    7.8400 C   0  0  0  0  0  0  0  0  0  0  0  0
  106.4990   24.8120    8.6880 C   0  0  0  0  0  0  0  0  0  0  0  0
  105.8360   23.4350    8.6220 C   0  0  0  0  0  0  0  0  0  0  0  0
  104.6230   23.2080    7.7090 C   0  0  0  0  0  0  0  0  0  0  0  0
  104.0760   24.3490    6.8710 C   0  0  0  0  0  0  0  0  0  0  0  0
  107.7270   25.0800    9.5990 C   0  0  0  0  0  0  0  0  0  0  0  0
  109.2070   26.7720    2.4010 C   0  0  0  0  0  0  0  0  0  0  0  0
  110.0880   25.8130    1.5740 C   0  0  0  0  0  0  0  0  0  0  0  0
  110.7600   26.3290    0.3420 C   0  0  0  0  0  0  0  0  0  0  0  0
  111.6410   25.4220   -0.5050 C   0  0  0  0  0  0  0  0  0  0  0  0
  111.8280   23.9860   -0.0810 C   0  0  0  0  0  0  0  0  0  0  0  0
  111.1550   23.4710    1.1530 C   0  0  0  0  0  0  0  0  0  0  0  0
  110.3080   24.3500    1.9640 C   0  0  0  0  0  0  0  0  0  0  0  0
  106.5330   24.5220    1.4260 C   0  0  0  0  0  0  0  0  0  0  0  0
  106.4450   23.6250    2.3010 O   0  0  0  0  0  0  0  0  0  0  0  0
  105.8990   24.2200    0.1560 C   0  0  0  0  0  0  0  0  0  0  0  0
  104.5530   23.8510    0.1950 C   0  0  0  0  0  0  0  0  0  0  0  0
  103.6850   23.4850   -0.9760 C   0  0  0  0  0  0  0  0  0  0  0  0
  103.8370   24.1910   -2.3400 C   0  0  0  0  0  0  0  0  0  0  0  0
  102.9800   23.8200   -3.4690 C   0  0  0  0  0  0  0  0  0  0  0  0
  101.9740   22.7690   -3.2870 C   0  0  0  0  0  0  0  0  0  0  0  0
  101.8210   22.0760   -1.9530 C   0  0  0  0  0  0  0  0  0  0  0  0
  102.6880   22.4450   -0.7970 C   0  0  0  0  0  0  0  0  0  0  0  0
  104.8060   25.2120   -2.5160 O   0  0  0  0  0  0  0  0  0  0  0  0
  106.1290   24.8240   -2.5070 C   0  0  0  0  0  0  0  0  0  0  0  0
  106.7690   24.3140   -1.2080 C   0  0  0  0  0  0  0  0  0  0  0  0
  108.2210   23.9150   -1.2970 C   0  0  0  0  0  0  0  0  0  0  0  0
  108.9950   24.0190   -2.6100 C   0  0  0  0  0  0  0  0  0  0  0  0
  108.3240   24.5270   -3.8660 C   0  0  0  0  0  0  0  0  0  0  0  0
  106.8800   24.9290   -3.8030 C   0  0  0  0  0  0  0  0  0  0  0  0
  107.1979   26.3819    0.8556 H   0  0  0  0  0  0  0  0  0  0  0  0
  108.0987   25.3016    3.5059 H   0  0  0  0  0  0  0  0  0  0  0  0
  106.8071   28.0257    3.1041 H   0  0  0  0  0  0  0  0  0  0  0  0
  108.5189   27.9642    4.6020 H   0  0  0  0  0  0  0  0  0  0  0  0
  105.9924   25.6231    4.7819 H   0  0  0  0  0  0  0  0  0  0  0  0
  105.1678   26.2118    3.2986 H   0  0  0  0  0  0  0  0  0  0  0  0
  104.3618   27.9358    4.3537 H   0  0  0  0  0  0  0  0  0  0  0  0
  105.6014   28.0653    5.4290 H   0  0  0  0  0  0  0  0  0  0  0  0
  103.2146   26.4260    5.5494 H   0  0  0  0  0  0  0  0  0  0  0  0
  103.8058   27.6638    6.7092 H   0  0  0  0  0  0  0  0  0  0  0  0
  106.3970   26.9138    7.8818 H   0  0  0  0  0  0  0  0  0  0  0  0
  106.2232   22.6185    9.2207 H   0  0  0  0  0  0  0  0  0  0  0  0
  104.1562   22.2308    7.6627 H   0  0  0  0  0  0  0  0  0  0  0  0
  103.2183   24.1824    6.2293 H   0  0  0  0  0  0  0  0  0  0  0  0
  108.0404   26.1290    9.4926 H   0  0  0  0  0  0  0  0  0  0  0  0
  108.5544   24.4183    9.3031 H   0  0  0  0  0  0  0  0  0  0  0  0
  107.4563   24.8827   10.6467 H   0  0  0  0  0  0  0  0  0  0  0  0
  109.7817   27.0867    3.2846 H   0  0  0  0  0  0  0  0  0  0  0  0
  108.9814   27.6503    1.7784 H   0  0  0  0  0  0  0  0  0  0  0  0
  110.6178   27.3627    0.0482 H   0  0  0  0  0  0  0  0  0  0  0  0
  112.1258   25.8010   -1.3974 H   0  0  0  0  0  0  0  0  0  0  0  0
  112.4518   23.3251   -0.6719 H   0  0  0  0  0  0  0  0  0  0  0  0
  111.2955   22.4379    1.4496 H   0  0  0  0  0  0  0  0  0  0  0  0
  109.8299   23.9575    2.8542 H   0  0  0  0  0  0  0  0  0  0  0  0
  104.0828   23.8258    1.1769 H   0  0  0  0  0  0  0  0  0  0  0  0
  103.0883   24.3162   -4.4266 H   0  0  0  0  0  0  0  0  0  0  0  0
  101.3350   22.4869   -4.1159 H   0  0  0  0  0  0  0  0  0  0  0  0
  101.0720   21.3013   -1.8348 H   0  0  0  0  0  0  0  0  0  0  0  0
  102.5759   21.9461    0.1588 H   0  0  0  0  0  0  0  0  0  0  0  0
  108.7256   23.5469   -0.4110 H   0  0  0  0  0  0  0  0  0  0  0  0
  110.0379   23.7250   -2.6415 H   0  0  0  0  0  0  0  0  0  0  0  0
  108.8766   24.5995   -4.7958 H   0  0  0  0  0  0  0  0  0  0  0  0
  106.3793   25.2949   -4.6921 H   0  0  0  0  0  0  0  0  0  0  0  0
  1  2  1  0  0  0  0
  1 22  1  0  0  0  0
  1 39  1  0  0  0  0
  2  3  1  0  0  0  0
  2 15  1  0  0  0  0
  2 40  1  1  0  0  0
  3  4  1  0  0  0  0
  3  5  1  0  0  0  0
  3 41  1  6  0  0  0
  4 42  1  0  0  0  0
  5  6  1  0  0  0  0
  5 43  1  0  0  0  0
  5 44  1  0  0  0  0
  6  7  1  0  0  0  0
  6 45  1  0  0  0  0
  6 46  1  0  0  0  0
  7  8  1  0  0  0  0
  7 47  1  0  0  0  0
  7 48  1  0  0  0  0
  8  9  2  0  0  0  0
  8 13  1  0  0  0  0
  9 10  1  0  0  0  0
  9 49  1  0  0  0  0
 10 11  2  0  0  0  0
 10 14  1  0  0  0  0
 11 12  1  0  0  0  0
 11 50  1  0  0  0  0
 12 13  2  0  0  0  0
 12 51  1  0  0  0  0
 13 52  1  0  0  0  0
 14 53  1  0  0  0  0
 14 54  1  0  0  0  0
 14 55  1  0  0  0  0
 15 16  1  0  0  0  0
 15 56  1  0  0  0  0
 15 57  1  0  0  0  0
 16 17  2  0  0  0  0
 16 21  1  0  0  0  0
 17 18  1  0  0  0  0
 17 58  1  0  0  0  0
 18 19  2  0  0  0  0
 18 59  1  0  0  0  0
 19 20  1  0  0  0  0
 19 60  1  0  0  0  0
 20 21  2  0  0  0  0
 20 61  1  0  0  0  0
 21 62  1  0  0  0  0
 22 23  2  0  0  0  0
 22 24  1  0  0  0  0
 24 25  2  0  0  0  0
 24 34  1  0  0  0  0
 25 26  1  0  0  0  0
 25 63  1  0  0  0  0
 26 27  2  0  0  0  0
 26 31  1  0  0  0  0
 27 28  1  0  0  0  0
 27 32  1  0  0  0  0
 28 29  2  0  0  0  0
 28 64  1  0  0  0  0
 29 30  1  0  0  0  0
 29 65  1  0  0  0  0
 30 31  2  0  0  0  0
 30 66  1  0  0  0  0
 31 67  1  0  0  0  0
 32 33  1  0  0  0  0
 33 34  2  0  0  0  0
 33 38  1  0  0  0  0
 34 35  1  0  0  0  0
 35 36  2  0  0  0  0
 35 68  1  0  0  0  0
 36 37  1  0  0  0  0
 36 69  1  0  0  0  0
 37 38  2  0  0  0  0
 37 70  1  0  0  0  0
 38 71  1  0  0  0  0
M  CHG  1   6   1
M  END
