2exc_ligand
 OpenBabel08222323343D

 56 59  0  0  1  0  0  0  0  0999 V2000
   20.3590    9.8190   31.7810 C   0  0  0  0  0  0  0  0  0  0  0  0
   19.9760    8.3760   31.8640 C   0  0  0  0  0  0  0  0  0  0  0  0
   19.6360   10.8230   32.4470 C   0  0  0  0  0  0  0  0  0  0  0  0
   21.4360   10.2130   30.9710 C   0  0  0  0  0  0  0  0  0  0  0  0
   20.9030    7.3940   31.5310 C   0  0  0  0  0  0  0  0  0  0  0  0
   18.6770    7.9660   32.2180 C   0  0  0  0  0  0  0  0  0  0  0  0
   20.0230   12.1580   32.2980 C   0  0  0  0  0  0  0  0  0  0  0  0
   21.7610   11.5420   30.8620 C   0  0  0  0  0  0  0  0  0  0  0  0
   20.5520    6.0600   31.5350 C   0  0  0  0  0  0  0  0  0  0  0  0
   18.4010    6.6150   32.2430 C   0  0  0  0  0  0  0  0  0  0  0  0
   19.3450   13.2130   32.9410 N   0  0  0  0  0  0  0  0  0  0  0  0
   21.0650   12.4520   31.5150 N   0  0  0  0  0  0  0  0  0  0  0  0
   21.5330    5.0810   31.2990 N   0  0  0  0  0  0  0  0  0  0  0  0
   19.3330    5.7290   31.9260 N   0  0  0  0  0  0  0  0  0  0  0  0
   18.3470   13.0670   33.9230 C   0  0  0  0  0  0  0  0  0  0  0  0
   22.8080    5.3190   30.8290 C   0  0  0  0  0  0  0  0  0  0  0  0
   17.1540   13.8090   33.8170 C   0  0  0  0  0  0  0  0  0  0  0  0
   18.5400   12.2010   35.0140 C   0  0  0  0  0  0  0  0  0  0  0  0
   23.8450    4.2210   30.7520 C   0  0  1  0  0  0  0  0  0  0  0  0
   23.1790    6.4350   30.4870 O   0  0  0  0  0  0  0  0  0  0  0  0
   16.1770   13.6510   34.8040 C   0  0  0  0  0  0  0  0  0  0  0  0
   17.5520   12.0490   35.9870 C   0  0  0  0  0  0  0  0  0  0  0  0
   23.4200    2.9630   31.5270 C   0  0  0  0  0  0  0  0  0  0  0  0
   24.3940    3.8740   29.3590 C   0  0  0  0  0  0  0  0  0  0  0  0
   16.3570   12.7720   35.8920 C   0  0  0  0  0  0  0  0  0  0  0  0
   24.6630    2.0830   31.7920 C   0  0  0  0  0  0  0  0  0  0  0  0
   25.5890    2.8940   29.6000 C   0  0  0  0  0  0  0  0  0  0  0  0
   25.9260    2.4670   30.9630 C   0  0  1  0  0  0  0  0  0  0  0  0
   26.7150    3.4670   31.6600 O   0  0  0  0  0  0  0  0  0  0  0  0
   28.1340    3.1990   31.6770 C   0  0  0  0  0  0  0  0  0  0  0  0
   15.3970   12.6240   36.8520 F   0  0  0  0  0  0  0  0  0  0  0  0
   18.7871   10.5651   33.0698 H   0  0  0  0  0  0  0  0  0  0  0  0
   22.0104    9.4682   30.4321 H   0  0  0  0  0  0  0  0  0  0  0  0
   21.9140    7.6806   31.2650 H   0  0  0  0  0  0  0  0  0  0  0  0
   17.9126    8.6939   32.4648 H   0  0  0  0  0  0  0  0  0  0  0  0
   22.5931   11.8448   30.2367 H   0  0  0  0  0  0  0  0  0  0  0  0
   17.4111    6.2748   32.5250 H   0  0  0  0  0  0  0  0  0  0  0  0
   19.6016   14.1728   32.6692 H   0  0  0  0  0  0  0  0  0  0  0  0
   21.2854    4.1308   31.4880 H   0  0  0  0  0  0  0  0  0  0  0  0
   16.9971   14.4884   32.9871 H   0  0  0  0  0  0  0  0  0  0  0  0
   19.4668   11.6454   35.0999 H   0  0  0  0  0  0  0  0  0  0  0  0
   24.7113    4.6232   31.2977 H   0  0  0  0  0  0  0  0  0  0  0  0
   15.2567   14.2191   34.7312 H   0  0  0  0  0  0  0  0  0  0  0  0
   17.7097   11.3704   36.8175 H   0  0  0  0  0  0  0  0  0  0  0  0
   22.6877    2.3957   30.9338 H   0  0  0  0  0  0  0  0  0  0  0  0
   22.9668    3.2571   32.4852 H   0  0  0  0  0  0  0  0  0  0  0  0
   24.7425    4.7835   28.8478 H   0  0  0  0  0  0  0  0  0  0  0  0
   23.6166    3.3871   28.7519 H   0  0  0  0  0  0  0  0  0  0  0  0
   24.4016    1.0413   31.5541 H   0  0  0  0  0  0  0  0  0  0  0  0
   24.9173    2.1627   32.8592 H   0  0  0  0  0  0  0  0  0  0  0  0
   26.4860    3.3803   29.1890 H   0  0  0  0  0  0  0  0  0  0  0  0
   25.3713    1.9811   29.0263 H   0  0  0  0  0  0  0  0  0  0  0  0
   26.5458    1.5626   30.8743 H   0  0  0  0  0  0  0  0  0  0  0  0
   28.6522    4.0017   32.2221 H   0  0  0  0  0  0  0  0  0  0  0  0
   28.5111    3.1542   30.6446 H   0  0  0  0  0  0  0  0  0  0  0  0
   28.3195    2.2371   32.1773 H   0  0  0  0  0  0  0  0  0  0  0  0
  1  2  1  0  0  0  0
  1  3  2  0  0  0  0
  1  4  1  0  0  0  0
  2  5  2  0  0  0  0
  2  6  1  0  0  0  0
  3  7  1  0  0  0  0
  3 32  1  0  0  0  0
  4  8  2  0  0  0  0
  4 33  1  0  0  0  0
  5  9  1  0  0  0  0
  5 34  1  0  0  0  0
  6 10  2  0  0  0  0
  6 35  1  0  0  0  0
  7 11  1  0  0  0  0
  7 12  2  0  0  0  0
  8 12  1  0  0  0  0
  8 36  1  0  0  0  0
  9 13  1  0  0  0  0
  9 14  2  0  0  0  0
 10 14  1  0  0  0  0
 10 37  1  0  0  0  0
 11 15  1  0  0  0  0
 11 38  1  0  0  0  0
 13 16  1  0  0  0  0
 13 39  1  0  0  0  0
 15 17  2  0  0  0  0
 15 18  1  0  0  0  0
 16 19  1  0  0  0  0
 16 20  2  0  0  0  0
 17 21  1  0  0  0  0
 17 40  1  0  0  0  0
 18 22  2  0  0  0  0
 18 41  1  0  0  0  0
 19 23  1  0  0  0  0
 19 24  1  0  0  0  0
 19 42  1  1  0  0  0
 21 25  2  0  0  0  0
 21 43  1  0  0  0  0
 22 25  1  0  0  0  0
 22 44  1  0  0  0  0
 23 26  1  0  0  0  0
 23 45  1  0  0  0  0
 23 46  1  0  0  0  0
 24 27  1  0  0  0  0
 24 47  1  0  0  0  0
 24 48  1  0  0  0  0
 25 31  1  0  0  0  0
 26 28  1  0  0  0  0
 26 49  1  0  0  0  0
 26 50  1  0  0  0  0
 27 28  1  0  0  0  0
 27 51  1  0  0  0  0
 27 52  1  0  0  0  0
 28 29  1  0  0  0  0
 28 53  1  6  0  0  0
 29 30  1  0  0  0  0
 30 54  1  0  0  0  0
 30 55  1  0  0  0  0
 30 56  1  0  0  0  0
M  END
