2ez5_ligand
 OpenBabel08222323343D

163165  0  0  1  0  0  0  0  0999 V2000
   15.7770    9.3370    0.5890 N   0  3  0  0  0  0  0  0  0  0  0  0
   14.7580    8.5810   -0.1820 C   0  0  2  0  0  0  0  0  0  0  0  0
   13.7740    7.8810    0.7470 C   0  0  0  0  0  0  0  0  0  0  0  0
   12.6280    8.3070    0.8890 O   0  0  0  0  0  0  0  0  0  0  0  0
   15.4170    7.5310   -1.0950 C   0  0  2  0  0  0  0  0  0  0  0  0
   16.1000    6.5520   -0.3040 O   0  0  0  0  0  0  0  0  0  0  0  0
   16.3980    8.1890   -2.0540 C   0  0  0  0  0  0  0  0  0  0  0  0
   16.4135    9.7891   -0.0486 H   0  0  0  0  0  0  0  0  0  0  0  0
   16.2892    8.7024    1.1814 H   0  0  0  0  0  0  0  0  0  0  0  0
   15.3202   10.0328    1.1575 H   0  0  0  0  0  0  0  0  0  0  0  0
   14.2030    9.2939   -0.8095 H   0  0  0  0  0  0  0  0  0  0  0  0
   14.6316    7.0309   -1.6806 H   0  0  0  0  0  0  0  0  0  0  0  0
   15.4844    6.1435    0.2933 H   0  0  0  0  0  0  0  0  0  0  0  0
   16.8554    7.4208   -2.6948 H   0  0  0  0  0  0  0  0  0  0  0  0
   17.1832    8.7028   -1.4800 H   0  0  0  0  0  0  0  0  0  0  0  0
   15.8646    8.9190   -2.6805 H   0  0  0  0  0  0  0  0  0  0  0  0
   14.2280    6.8040    1.3810 N   0  0  0  0  0  0  0  0  0  0  0  0
   13.3730    6.0650    2.2910 C   0  0  0  0  0  0  0  0  0  0  0  0
   12.7660    4.8310    1.6510 C   0  0  0  0  0  0  0  0  0  0  0  0
   13.4320    4.1240    0.8960 O   0  0  0  0  0  0  0  0  0  0  0  0
   15.1685    6.5002    1.2290 H   0  0  0  0  0  0  0  0  0  0  0  0
   12.5588    6.7256    2.6238 H   0  0  0  0  0  0  0  0  0  0  0  0
   13.9705    5.7529    3.1602 H   0  0  0  0  0  0  0  0  0  0  0  0
   11.4990    4.5730    1.9580 N   0  0  0  0  0  0  0  0  0  0  0  0
   10.7970    3.4160    1.4120 C   0  0  2  0  0  0  0  0  0  0  0  0
   11.4360    2.1160    1.8930 C   0  0  0  0  0  0  0  0  0  0  0  0
   12.1550    1.4530    1.1440 O   0  0  0  0  0  0  0  0  0  0  0  0
   10.7940    3.4630   -0.1170 C   0  0  0  0  0  0  0  0  0  0  0  0
   10.1660    2.2490   -0.8000 C   0  0  0  0  0  0  0  0  0  0  0  0
    8.6560    2.2610   -0.6220 C   0  0  0  0  0  0  0  0  0  0  0  0
   10.5300    2.2230   -2.2780 C   0  0  0  0  0  0  0  0  0  0  0  0
   11.0138    5.1880    2.5796 H   0  0  0  0  0  0  0  0  0  0  0  0
    9.7555    3.4439    1.7649 H   0  0  0  0  0  0  0  0  0  0  0  0
   11.8367    3.5446   -0.4578 H   0  0  0  0  0  0  0  0  0  0  0  0
   10.2350    4.3573   -0.4297 H   0  0  0  0  0  0  0  0  0  0  0  0
   10.5645    1.3390   -0.3277 H   0  0  0  0  0  0  0  0  0  0  0  0
    8.2212    1.3814   -1.1192 H   0  0  0  0  0  0  0  0  0  0  0  0
    8.2414    3.1768   -1.0686 H   0  0  0  0  0  0  0  0  0  0  0  0
    8.4130    2.2334    0.4504 H   0  0  0  0  0  0  0  0  0  0  0  0
   11.6247    2.2146   -2.3859 H   0  0  0  0  0  0  0  0  0  0  0  0
   10.1197    3.1158   -2.7725 H   0  0  0  0  0  0  0  0  0  0  0  0
   10.1088    1.3198   -2.7436 H   0  0  0  0  0  0  0  0  0  0  0  0
   11.1810    1.7320    3.1550 N   0  0  0  0  0  0  0  0  0  0  0  0
   11.7340    0.5030    3.7340 C   0  0  2  0  0  0  0  0  0  0  0  0
   11.2620   -0.7430    2.9940 C   0  0  0  0  0  0  0  0  0  0  0  0
   10.1550   -1.2300    3.2210 O   0  0  0  0  0  0  0  0  0  0  0  0
   11.2020    0.5030    5.1740 C   0  0  0  0  0  0  0  0  0  0  0  0
   10.7860    1.9100    5.4380 C   0  0  0  0  0  0  0  0  0  0  0  0
   10.3370    2.4600    4.1160 C   0  0  0  0  0  0  0  0  0  0  0  0
   12.8335    0.5344    3.7237 H   0  0  0  0  0  0  0  0  0  0  0  0
   11.9908    0.1959    5.8765 H   0  0  0  0  0  0  0  0  0  0  0  0
   10.3426   -0.1771    5.2675 H   0  0  0  0  0  0  0  0  0  0  0  0
    9.9597    1.9351    6.1636 H   0  0  0  0  0  0  0  0  0  0  0  0
   11.6336    2.4931    5.8272 H   0  0  0  0  0  0  0  0  0  0  0  0
    9.2706    2.2531    3.9427 H   0  0  0  0  0  0  0  0  0  0  0  0
   10.5145    3.5440    4.0572 H   0  0  0  0  0  0  0  0  0  0  0  0
   12.1090   -1.2520    2.1060 N   0  0  0  0  0  0  0  0  0  0  0  0
   11.7790   -2.4420    1.3290 C   0  0  2  0  0  0  0  0  0  0  0  0
   11.2690   -3.5610    2.2320 C   0  0  0  0  0  0  0  0  0  0  0  0
   11.5550   -3.5860    3.4290 O   0  0  0  0  0  0  0  0  0  0  0  0
   13.0050   -2.9210    0.5490 C   0  0  0  0  0  0  0  0  0  0  0  0
   14.1570   -2.9450    1.3730 O   0  0  0  0  0  0  0  0  0  0  0  0
   12.9945   -0.8086    1.9667 H   0  0  0  0  0  0  0  0  0  0  0  0
   10.9855   -2.1816    0.6131 H   0  0  0  0  0  0  0  0  0  0  0  0
   13.1820   -2.2393   -0.2959 H   0  0  0  0  0  0  0  0  0  0  0  0
   12.8147   -3.9353    0.1682 H   0  0  0  0  0  0  0  0  0  0  0  0
   14.9018   -3.2452    0.8654 H   0  0  0  0  0  0  0  0  0  0  0  0
   10.5100   -4.4830    1.6490 N   0  0  0  0  0  0  0  0  0  0  0  0
    9.9570   -5.6060    2.3980 C   0  0  2  0  0  0  0  0  0  0  0  0
   11.0400   -6.3060    3.2130 C   0  0  0  0  0  0  0  0  0  0  0  0
   11.7120   -7.2130    2.7210 O   0  0  0  0  0  0  0  0  0  0  0  0
    9.2960   -6.6040    1.4440 C   0  0  0  0  0  0  0  0  0  0  0  0
    8.3790   -7.5890    2.1340 C   0  0  0  0  0  0  0  0  0  0  0  0
    8.8670   -8.4780    3.0840 C   0  0  0  0  0  0  0  0  0  0  0  0
    7.0230   -7.6290    1.8340 C   0  0  0  0  0  0  0  0  0  0  0  0
    8.0300   -9.3790    3.7140 C   0  0  0  0  0  0  0  0  0  0  0  0
    6.1800   -8.5270    2.4610 C   0  0  0  0  0  0  0  0  0  0  0  0
    6.6880   -9.3990    3.4000 C   0  0  0  0  0  0  0  0  0  0  0  0
    5.8520  -10.2960    4.0250 O   0  0  0  0  0  0  0  0  0  0  0  0
   10.3129   -4.4049    0.6717 H   0  0  0  0  0  0  0  0  0  0  0  0
    9.1932   -5.2210    3.0897 H   0  0  0  0  0  0  0  0  0  0  0  0
   10.0873   -7.1684    0.9290 H   0  0  0  0  0  0  0  0  0  0  0  0
    8.7073   -6.0405    0.7052 H   0  0  0  0  0  0  0  0  0  0  0  0
    9.9215   -8.4644    3.3349 H   0  0  0  0  0  0  0  0  0  0  0  0
    6.6197   -6.9448    1.0962 H   0  0  0  0  0  0  0  0  0  0  0  0
    8.4269  -10.0669    4.4518 H   0  0  0  0  0  0  0  0  0  0  0  0
    5.1243   -8.5455    2.2155 H   0  0  0  0  0  0  0  0  0  0  0  0
    6.3535  -10.8200    4.6385 H   0  0  0  0  0  0  0  0  0  0  0  0
   11.2040   -5.8820    4.4630 N   0  0  0  0  0  0  0  0  0  0  0  0
   12.2050   -6.4700    5.3490 C   0  0  2  0  0  0  0  0  0  0  0  0
   12.3260   -5.6690    6.6410 C   0  0  0  0  0  0  0  0  0  0  0  0
   12.5980   -6.2260    7.7050 O   0  0  0  0  0  0  0  0  0  0  0  0
   13.5660   -6.5360    4.6500 C   0  0  0  0  0  0  0  0  0  0  0  0
   14.0540   -7.9600    4.4680 C   0  0  0  0  0  0  0  0  0  0  0  0
   13.3830   -8.7300    3.7490 O   0  5  0  0  0  0  0  0  0  0  0  0
   15.1080   -8.3050    5.0430 O   0  0  0  0  0  0  0  0  0  0  0  0
   10.6265   -5.1408    4.8052 H   0  0  0  0  0  0  0  0  0  0  0  0
   11.8888   -7.4932    5.6001 H   0  0  0  0  0  0  0  0  0  0  0  0
   14.3011   -5.9854    5.2553 H   0  0  0  0  0  0  0  0  0  0  0  0
   13.4782   -6.0636    3.6605 H   0  0  0  0  0  0  0  0  0  0  0  0
   12.1260   -4.3590    6.5410 N   0  0  0  0  0  0  0  0  0  0  0  0
   12.2170   -3.4810    7.7020 C   0  0  2  0  0  0  0  0  0  0  0  0
   10.8300   -3.1190    8.2240 C   0  0  0  0  0  0  0  0  0  0  0  0
   10.5880   -3.1350    9.4310 O   0  0  0  0  0  0  0  0  0  0  0  0
   12.9880   -2.2090    7.3450 C   0  0  0  0  0  0  0  0  0  0  0  0
   14.1170   -2.4380    6.3530 C   0  0  0  0  0  0  0  0  0  0  0  0
   15.4350   -1.8570    6.8240 C   0  0  0  0  0  0  0  0  0  0  0  0
   15.5720   -0.6150    6.8220 O   0  5  0  0  0  0  0  0  0  0  0  0
   16.3310   -2.6430    7.1970 O   0  0  0  0  0  0  0  0  0  0  0  0
   11.9078   -3.9657    5.6479 H   0  0  0  0  0  0  0  0  0  0  0  0
   12.7618   -4.0110    8.4972 H   0  0  0  0  0  0  0  0  0  0  0  0
   13.4161   -1.7915    8.2683 H   0  0  0  0  0  0  0  0  0  0  0  0
   12.2830   -1.4864    6.9082 H   0  0  0  0  0  0  0  0  0  0  0  0
   13.8463   -1.9668    5.3966 H   0  0  0  0  0  0  0  0  0  0  0  0
   14.2422   -3.5209    6.2059 H   0  0  0  0  0  0  0  0  0  0  0  0
    9.9230   -2.7920    7.3090 N   0  0  0  0  0  0  0  0  0  0  0  0
    8.5610   -2.4250    7.6810 C   0  0  2  0  0  0  0  0  0  0  0  0
    7.7100   -3.6640    7.9350 C   0  0  0  0  0  0  0  0  0  0  0  0
    6.7460   -3.9250    7.2150 O   0  0  0  0  0  0  0  0  0  0  0  0
    7.9320   -1.5640    6.5970 C   0  0  0  0  0  0  0  0  0  0  0  0
   10.1804   -2.7977    6.3427 H   0  0  0  0  0  0  0  0  0  0  0  0
    8.6029   -1.8385    8.6106 H   0  0  0  0  0  0  0  0  0  0  0  0
    6.9066   -1.2954    6.8910 H   0  0  0  0  0  0  0  0  0  0  0  0
    7.9071   -2.1252    5.6513 H   0  0  0  0  0  0  0  0  0  0  0  0
    8.5271   -0.6484    6.4645 H   0  0  0  0  0  0  0  0  0  0  0  0
    8.0720   -4.4240    8.9620 N   0  0  0  0  0  0  0  0  0  0  0  0
    7.3420   -5.6370    9.3120 C   0  0  2  0  0  0  0  0  0  0  0  0
    7.2800   -5.8180   10.8250 C   0  0  0  0  0  0  0  0  0  0  0  0
    7.3300   -6.9400   11.3280 O   0  0  0  0  0  0  0  0  0  0  0  0
    8.0010   -6.8580    8.6670 C   0  0  0  0  0  0  0  0  0  0  0  0
    7.6210   -7.1050    7.2060 C   0  0  0  0  0  0  0  0  0  0  0  0
    8.8630   -7.1430    6.3310 C   0  0  0  0  0  0  0  0  0  0  0  0
    6.8340   -8.4010    7.0730 C   0  0  0  0  0  0  0  0  0  0  0  0
    8.8654   -4.1578    9.5094 H   0  0  0  0  0  0  0  0  0  0  0  0
    6.3149   -5.5481    8.9284 H   0  0  0  0  0  0  0  0  0  0  0  0
    7.7145   -7.7467    9.2484 H   0  0  0  0  0  0  0  0  0  0  0  0
    9.0915   -6.7229    8.7172 H   0  0  0  0  0  0  0  0  0  0  0  0
    6.9833   -6.2750    6.8677 H   0  0  0  0  0  0  0  0  0  0  0  0
    8.5699   -7.3213    5.2859 H   0  0  0  0  0  0  0  0  0  0  0  0
    9.5253   -7.9535    6.6694 H   0  0  0  0  0  0  0  0  0  0  0  0
    9.3928   -6.1818    6.4043 H   0  0  0  0  0  0  0  0  0  0  0  0
    5.9403   -8.3545    7.7126 H   0  0  0  0  0  0  0  0  0  0  0  0
    7.4646   -9.2466    7.3850 H   0  0  0  0  0  0  0  0  0  0  0  0
    6.5283   -8.5385    6.0253 H   0  0  0  0  0  0  0  0  0  0  0  0
    7.1690   -4.7060   11.5450 N   0  0  0  0  0  0  0  0  0  0  0  0
    7.1000   -4.7430   13.0010 C   0  0  2  0  0  0  0  0  0  0  0  0
    5.6510   -4.7740   13.4750 C   0  0  0  0  0  0  0  0  0  0  0  0
    5.2830   -5.6120   14.2960 O   0  0  0  0  0  0  0  0  0  0  0  0
    7.8180   -3.5300   13.5960 C   0  0  0  0  0  0  0  0  0  0  0  0
    9.2810   -3.4840   13.2810 C   0  0  0  0  0  0  0  0  0  0  0  0
    9.9320   -2.3320   12.8930 N   0  0  0  0  0  0  0  0  0  0  0  0
   10.2220   -4.4580   13.2970 C   0  0  0  0  0  0  0  0  0  0  0  0
   11.2090   -2.5990   12.6840 C   0  0  0  0  0  0  0  0  0  0  0  0
   11.4110   -3.8820   12.9230 N   0  0  0  0  0  0  0  0  0  0  0  0
    7.1319   -3.8231   11.0769 H   0  0  0  0  0  0  0  0  0  0  0  0
    7.6025   -5.6567   13.3512 H   0  0  0  0  0  0  0  0  0  0  0  0
    7.6986   -3.5572   14.6892 H   0  0  0  0  0  0  0  0  0  0  0  0
    7.3481   -2.6184   13.1983 H   0  0  0  0  0  0  0  0  0  0  0  0
   10.0648   -5.5035   13.5580 H   0  0  0  0  0  0  0  0  0  0  0  0
   11.9662   -1.8828   12.3683 H   0  0  0  0  0  0  0  0  0  0  0  0
   12.3138   -4.3711   12.8420 H   0  0  0  0  0  0  0  0  0  0  0  0
    4.0727   -4.3478   12.5597 H   0  0  0  0  0  0  0  0  0  0  0  0
    4.7802   -3.8894   12.9975 O   0  0  0  0  0  0  0  0  0  0  0  0
  1  8  1  0  0  0  0
  1  9  1  0  0  0  0
  1 10  1  0  0  0  0
  2  1  1  0  0  0  0
  2  5  1  0  0  0  0
  2 11  1  6  0  0  0
  3  2  1  0  0  0  0
  3  4  2  0  0  0  0
  5  7  1  0  0  0  0
  5  6  1  0  0  0  0
  5 12  1  6  0  0  0
  6 13  1  0  0  0  0
  7 14  1  0  0  0  0
  7 15  1  0  0  0  0
  7 16  1  0  0  0  0
 17 21  1  0  0  0  0
 17  3  1  0  0  0  0
 18 17  1  0  0  0  0
 18 22  1  0  0  0  0
 18 23  1  0  0  0  0
 19 18  1  0  0  0  0
 19 20  2  0  0  0  0
 24 32  1  0  0  0  0
 24 19  1  0  0  0  0
 25 24  1  0  0  0  0
 25 28  1  0  0  0  0
 25 33  1  1  0  0  0
 26 25  1  0  0  0  0
 26 27  2  0  0  0  0
 28 29  1  0  0  0  0
 28 34  1  0  0  0  0
 28 35  1  0  0  0  0
 29 30  1  0  0  0  0
 29 31  1  0  0  0  0
 29 36  1  0  0  0  0
 30 37  1  0  0  0  0
 30 38  1  0  0  0  0
 30 39  1  0  0  0  0
 31 40  1  0  0  0  0
 31 41  1  0  0  0  0
 31 42  1  0  0  0  0
 43 49  1  0  0  0  0
 43 26  1  0  0  0  0
 44 47  1  0  0  0  0
 44 43  1  0  0  0  0
 44 50  1  1  0  0  0
 45 44  1  0  0  0  0
 45 46  2  0  0  0  0
 47 48  1  0  0  0  0
 47 51  1  0  0  0  0
 47 52  1  0  0  0  0
 48 53  1  0  0  0  0
 48 54  1  0  0  0  0
 49 48  1  0  0  0  0
 49 55  1  0  0  0  0
 49 56  1  0  0  0  0
 57 63  1  0  0  0  0
 57 45  1  0  0  0  0
 58 57  1  0  0  0  0
 58 61  1  0  0  0  0
 58 64  1  6  0  0  0
 59 58  1  0  0  0  0
 59 60  2  0  0  0  0
 61 62  1  0  0  0  0
 61 65  1  0  0  0  0
 61 66  1  0  0  0  0
 62 67  1  0  0  0  0
 68 80  1  0  0  0  0
 68 59  1  0  0  0  0
 69 68  1  0  0  0  0
 69 72  1  0  0  0  0
 69 81  1  1  0  0  0
 70 69  1  0  0  0  0
 70 71  2  0  0  0  0
 72 73  1  0  0  0  0
 72 82  1  0  0  0  0
 72 83  1  0  0  0  0
 73 74  2  0  0  0  0
 73 75  1  0  0  0  0
 74 76  1  0  0  0  0
 74 84  1  0  0  0  0
 75 77  2  0  0  0  0
 75 85  1  0  0  0  0
 76 78  2  0  0  0  0
 76 86  1  0  0  0  0
 77 78  1  0  0  0  0
 77 87  1  0  0  0  0
 78 79  1  0  0  0  0
 79 88  1  0  0  0  0
 89 97  1  0  0  0  0
 89 70  1  0  0  0  0
 90 89  1  0  0  0  0
 90 93  1  0  0  0  0
 90 98  1  1  0  0  0
 91 90  1  0  0  0  0
 91 92  2  0  0  0  0
 93 94  1  0  0  0  0
 93 99  1  0  0  0  0
 93100  1  0  0  0  0
 94 95  1  0  0  0  0
 94 96  2  0  0  0  0
101110  1  0  0  0  0
101 91  1  0  0  0  0
102101  1  0  0  0  0
102105  1  0  0  0  0
102111  1  1  0  0  0
103102  1  0  0  0  0
103104  2  0  0  0  0
105106  1  0  0  0  0
105112  1  0  0  0  0
105113  1  0  0  0  0
106107  1  0  0  0  0
106114  1  0  0  0  0
106115  1  0  0  0  0
107109  2  0  0  0  0
107108  1  0  0  0  0
116121  1  0  0  0  0
116103  1  0  0  0  0
117116  1  0  0  0  0
117120  1  0  0  0  0
117122  1  1  0  0  0
118117  1  0  0  0  0
118119  2  0  0  0  0
120123  1  0  0  0  0
120124  1  0  0  0  0
120125  1  0  0  0  0
126134  1  0  0  0  0
126118  1  0  0  0  0
127126  1  0  0  0  0
127130  1  0  0  0  0
127135  1  6  0  0  0
128127  1  0  0  0  0
128129  2  0  0  0  0
128145  1  0  0  0  0
130131  1  0  0  0  0
130136  1  0  0  0  0
130137  1  0  0  0  0
131132  1  0  0  0  0
131133  1  0  0  0  0
131138  1  0  0  0  0
132139  1  0  0  0  0
132140  1  0  0  0  0
132141  1  0  0  0  0
133142  1  0  0  0  0
133143  1  0  0  0  0
133144  1  0  0  0  0
145146  1  0  0  0  0
145155  1  0  0  0  0
146149  1  0  0  0  0
146147  1  0  0  0  0
146156  1  1  0  0  0
147148  2  0  0  0  0
147163  1  0  0  0  0
149150  1  0  0  0  0
149157  1  0  0  0  0
149158  1  0  0  0  0
150151  1  0  0  0  0
150152  2  0  0  0  0
151153  2  0  0  0  0
152154  1  0  0  0  0
152159  1  0  0  0  0
153160  1  0  0  0  0
154153  1  0  0  0  0
154161  1  0  0  0  0
163162  1  0  0  0  0
M  CHG  3   1   1  95  -1 108  -1
M  END
