2f01_ligand
 OpenBabel08222323343D

 31 32  0  0  1  0  0  0  0  0999 V2000
   32.7710   18.1440   14.0480 C   0  0  0  0  0  0  0  0  0  0  0  0
   33.7020   17.4540   13.5160 O   0  5  0  0  0  0  0  0  0  0  0  0
   32.7210   19.4450   13.8670 O   0  0  0  0  0  0  0  0  0  0  0  0
   31.7790   17.4910   14.9420 C   0  0  0  0  0  0  0  0  0  0  0  0
   31.3320   16.1360   14.5750 C   0  0  0  0  0  0  0  0  0  0  0  0
   30.5270   16.1480   13.2710 C   0  0  0  0  0  0  0  0  0  0  0  0
   30.1960   14.7500   12.7940 C   0  0  0  0  0  0  0  0  0  0  0  0
   29.1720   14.6210   11.7530 C   0  0  2  0  0  0  0  0  0  0  0  0
   27.6100   15.2160   11.7380 S   0  0  0  0  0  0  0  0  0  0  0  0
   27.1730   14.6500   10.1760 C   0  0  0  0  0  0  0  0  0  0  0  0
   27.8700   13.2980   10.0920 C   0  0  2  0  0  0  0  0  0  0  0  0
   26.9810   12.2330   10.5690 N   0  0  0  0  0  0  0  0  0  0  0  0
   27.5310   11.6360   11.6660 C   0  0  0  0  0  0  0  0  0  0  0  0
   26.9880   10.6820   12.2550 O   0  0  0  0  0  0  0  0  0  0  0  0
   28.7180   12.1670   11.9760 N   0  0  0  0  0  0  0  0  0  0  0  0
   29.0700   13.2600   11.0360 C   0  0  2  0  0  0  0  0  0  0  0  0
   30.8884   18.1357   14.9751 H   0  0  0  0  0  0  0  0  0  0  0  0
   32.2262   17.4316   15.9452 H   0  0  0  0  0  0  0  0  0  0  0  0
   30.7004   15.7364   15.3820 H   0  0  0  0  0  0  0  0  0  0  0  0
   32.2135   15.4909   14.4457 H   0  0  0  0  0  0  0  0  0  0  0  0
   31.1167   16.6574   12.4946 H   0  0  0  0  0  0  0  0  0  0  0  0
   29.5887   16.6972   13.4383 H   0  0  0  0  0  0  0  0  0  0  0  0
   29.8541   14.1749   13.6672 H   0  0  0  0  0  0  0  0  0  0  0  0
   31.1231   14.3059   12.4026 H   0  0  0  0  0  0  0  0  0  0  0  0
   29.6386   15.2649   10.9930 H   0  0  0  0  0  0  0  0  0  0  0  0
   27.5369   15.3313    9.3928 H   0  0  0  0  0  0  0  0  0  0  0  0
   26.0823   14.5383   10.0871 H   0  0  0  0  0  0  0  0  0  0  0  0
   28.1839   13.1076    9.0551 H   0  0  0  0  0  0  0  0  0  0  0  0
   26.1062   11.9829   10.1540 H   0  0  0  0  0  0  0  0  0  0  0  0
   29.2915   11.8679   12.7387 H   0  0  0  0  0  0  0  0  0  0  0  0
   30.0066   13.0412   10.5023 H   0  0  0  0  0  0  0  0  0  0  0  0
  1  2  1  0  0  0  0
  1  3  2  0  0  0  0
  1  4  1  0  0  0  0
  4  5  1  0  0  0  0
  4 17  1  0  0  0  0
  4 18  1  0  0  0  0
  5  6  1  0  0  0  0
  5 19  1  0  0  0  0
  5 20  1  0  0  0  0
  6  7  1  0  0  0  0
  6 21  1  0  0  0  0
  6 22  1  0  0  0  0
  7  8  1  0  0  0  0
  7 23  1  0  0  0  0
  7 24  1  0  0  0  0
  8  9  1  0  0  0  0
  8 16  1  0  0  0  0
  8 25  1  6  0  0  0
  9 10  1  0  0  0  0
 10 11  1  0  0  0  0
 10 26  1  0  0  0  0
 10 27  1  0  0  0  0
 11 12  1  0  0  0  0
 11 16  1  0  0  0  0
 11 28  1  6  0  0  0
 12 13  1  0  0  0  0
 12 29  1  0  0  0  0
 13 14  2  0  0  0  0
 13 15  1  0  0  0  0
 15 16  1  0  0  0  0
 15 30  1  0  0  0  0
 16 31  1  6  0  0  0
M  CHG  1   2  -1
M  END
