2f0z_ligand
 OpenBabel08222323343D

 45 45  0  0  1  0  0  0  0  0999 V2000
   34.2530   27.7430   25.5550 C   0  0  0  0  0  0  0  0  0  0  0  0
   34.5710   26.6130   24.8490 O   0  5  0  0  0  0  0  0  0  0  0  0
   34.2150   28.8730   24.9340 O   0  0  0  0  0  0  0  0  0  0  0  0
   33.9760   27.6940   26.9340 C   0  0  2  0  0  0  0  0  0  0  0  0
   33.5770   28.9500   27.6530 C   0  0  0  0  0  0  0  0  0  0  0  0
   33.0900   28.6670   29.0860 C   0  0  1  0  0  0  0  0  0  0  0  0
   33.7970   27.4560   29.6910 C   0  0  1  0  0  0  0  0  0  0  0  0
   33.2300   27.2730   31.0320 N   0  0  0  0  0  0  0  0  0  0  0  0
   33.9170   27.1260   32.1600 C   0  0  0  0  0  0  0  0  0  0  0  0
   35.2920   27.1310   32.2030 O   0  0  0  0  0  0  0  0  0  0  0  0
   33.1590   26.9390   33.4550 C   0  0  0  0  0  0  0  0  0  0  0  0
   33.5650   26.2410   28.7720 C   0  0  1  0  0  0  0  0  0  0  0  0
   34.1130   26.5330   27.4770 O   0  0  0  0  0  0  0  0  0  0  0  0
   34.2630   24.9490   29.2640 C   0  0  2  0  0  0  0  0  0  0  0  0
   35.6760   25.1540   29.3090 O   0  0  0  0  0  0  0  0  0  0  0  0
   34.0390   23.7210   28.3490 C   0  0  2  0  0  0  0  0  0  0  0  0
   32.6450   23.4200   28.2400 O   0  0  0  0  0  0  0  0  0  0  0  0
   34.7370   22.4350   28.8470 C   0  0  0  0  0  0  0  0  0  0  0  0
   35.6840   22.6290   29.8690 O   0  0  0  0  0  0  0  0  0  0  0  0
   33.3450   29.8670   29.8650 N   0  0  0  0  0  0  0  0  0  0  0  0
   32.4970   30.5190   30.8700 C   0  0  0  0  0  3  0  0  0  0  0  0
   31.3010   30.0260   31.1990 N   0  0  0  0  0  0  0  0  0  0  0  0
   32.9390   31.6250   31.4620 N   0  0  0  0  0  0  0  0  0  0  0  0
   32.9138   27.4827   26.7413 H   0  0  0  0  0  0  0  0  0  0  0  0
   32.7656   29.4372   27.0924 H   0  0  0  0  0  0  0  0  0  0  0  0
   34.4458   29.6231   27.7001 H   0  0  0  0  0  0  0  0  0  0  0  0
   32.0086   28.4662   29.0691 H   0  0  0  0  0  0  0  0  0  0  0  0
   34.8777   27.6443   29.7717 H   0  0  0  0  0  0  0  0  0  0  0  0
   32.2327   27.2574   31.1038 H   0  0  0  0  0  0  0  0  0  0  0  0
   33.8725   26.8332   34.2855 H   0  0  0  0  0  0  0  0  0  0  0  0
   32.5371   26.0342   33.3885 H   0  0  0  0  0  0  0  0  0  0  0  0
   32.5161   27.8136   33.6332 H   0  0  0  0  0  0  0  0  0  0  0  0
   32.4830   26.0590   28.6935 H   0  0  0  0  0  0  0  0  0  0  0  0
   33.8869   24.7168   30.2713 H   0  0  0  0  0  0  0  0  0  0  0  0
   36.1006   24.3597   29.6111 H   0  0  0  0  0  0  0  0  0  0  0  0
   34.4336   23.9687   27.3525 H   0  0  0  0  0  0  0  0  0  0  0  0
   32.1889   24.1667   27.8701 H   0  0  0  0  0  0  0  0  0  0  0  0
   35.2493   21.9716   27.9909 H   0  0  0  0  0  0  0  0  0  0  0  0
   33.9627   21.7512   29.2250 H   0  0  0  0  0  0  0  0  0  0  0  0
   35.2582   23.0176   30.6241 H   0  0  0  0  0  0  0  0  0  0  0  0
   34.2499   30.3254   29.6864 H   0  0  0  0  0  0  0  0  0  0  0  0
   30.7248   30.5023   31.9075 H   0  0  0  0  0  0  0  0  0  0  0  0
   30.9543   29.1693   30.7443 H   0  0  0  0  0  0  0  0  0  0  0  0
   33.8611   32.0097   31.2119 H   0  0  0  0  0  0  0  0  0  0  0  0
   32.3591   32.0968   32.1706 H   0  0  0  0  0  0  0  0  0  0  0  0
  1  2  1  0  0  0  0
  1  3  2  0  0  0  0
  1  4  1  0  0  0  0
  4  5  1  0  0  0  0
  4 13  1  0  0  0  0
  4 24  1  6  0  0  0
  5  6  1  0  0  0  0
  5 25  1  0  0  0  0
  5 26  1  0  0  0  0
  6  7  1  0  0  0  0
  6 20  1  0  0  0  0
  6 27  1  6  0  0  0
  7  8  1  0  0  0  0
  7 12  1  0  0  0  0
  7 28  1  1  0  0  0
  8  9  1  0  0  0  0
  8 29  1  0  0  0  0
  9 10  2  0  0  0  0
  9 11  1  0  0  0  0
 11 30  1  0  0  0  0
 11 31  1  0  0  0  0
 11 32  1  0  0  0  0
 12 13  1  0  0  0  0
 12 14  1  0  0  0  0
 12 33  1  6  0  0  0
 14 15  1  0  0  0  0
 14 16  1  0  0  0  0
 14 34  1  1  0  0  0
 15 35  1  0  0  0  0
 16 17  1  0  0  0  0
 16 18  1  0  0  0  0
 16 36  1  6  0  0  0
 17 37  1  0  0  0  0
 18 19  1  0  0  0  0
 18 38  1  0  0  0  0
 18 39  1  0  0  0  0
 19 40  1  0  0  0  0
 20 21  1  0  0  0  0
 20 41  1  0  0  0  0
 21 22  1  0  0  0  0
 21 23  1  0  0  0  0
 22 42  1  0  0  0  0
 22 43  1  0  0  0  0
 23 44  1  0  0  0  0
 23 45  1  0  0  0  0
M  CHG  1   2  -1
M  END
