2f18_ligand
 OpenBabel08222323343D

 40 41  0  0  1  0  0  0  0  0999 V2000
   27.3650   67.5130   11.6710 C   0  0  0  0  0  0  0  0  0  0  0  0
   27.1270   68.8950   11.7740 C   0  0  0  0  0  0  0  0  0  0  0  0
   28.0380   69.7160   12.4180 C   0  0  0  0  0  0  0  0  0  0  0  0
   29.1500   69.0950   12.9410 C   0  0  0  0  0  0  0  0  0  0  0  0
   29.4310   67.7270   12.8650 C   0  0  0  0  0  0  0  0  0  0  0  0
   28.5090   66.9010   12.2090 C   0  0  0  0  0  0  0  0  0  0  0  0
   28.7610   65.3820   12.1220 C   0  0  2  0  0  0  0  0  0  0  0  0
   28.9030   64.8450   13.5390 C   0  0  0  0  0  0  0  0  0  0  0  0
   29.0260   63.4440   13.3650 O   0  0  0  0  0  0  0  0  0  0  0  0
   29.9000   65.2630   11.1830 N   0  3  0  0  0  0  0  0  0  0  0  0
   29.8710   65.7140    9.7930 C   0  0  0  0  0  0  0  0  0  0  0  0
   31.0190   65.1920    8.9450 C   0  0  1  0  0  0  0  0  0  0  0  0
   30.7500   65.3810    7.5060 N   0  3  0  0  0  0  0  0  0  0  0  0
   31.2440   66.6410    6.9600 C   0  0  0  0  0  0  0  0  0  0  0  0
   32.6020   66.5920    7.6590 C   0  0  2  0  0  0  0  0  0  0  0  0
   33.6160   65.8690    6.9940 O   0  0  0  0  0  0  0  0  0  0  0  0
   32.2390   66.1040    9.0560 C   0  0  2  0  0  0  0  0  0  0  0  0
   33.2210   65.1740    9.4700 O   0  0  0  0  0  0  0  0  0  0  0  0
   26.6373   66.8960   11.1564 H   0  0  0  0  0  0  0  0  0  0  0  0
   26.2258   69.3202   11.3472 H   0  0  0  0  0  0  0  0  0  0  0  0
   27.8843   70.7855   12.5052 H   0  0  0  0  0  0  0  0  0  0  0  0
   29.8700   69.7205   13.4562 H   0  0  0  0  0  0  0  0  0  0  0  0
   30.3354   67.3180   13.3008 H   0  0  0  0  0  0  0  0  0  0  0  0
   27.8949   64.8773   11.6691 H   0  0  0  0  0  0  0  0  0  0  0  0
   28.0141   65.0876   14.1398 H   0  0  0  0  0  0  0  0  0  0  0  0
   29.7986   65.2584   14.0257 H   0  0  0  0  0  0  0  0  0  0  0  0
   29.1201   63.0277   14.2137 H   0  0  0  0  0  0  0  0  0  0  0  0
   30.1202   64.2801   11.1455 H   0  0  0  0  0  0  0  0  0  0  0  0
   30.6620   65.7618   11.6150 H   0  0  0  0  0  0  0  0  0  0  0  0
   29.9090   66.8133    9.7861 H   0  0  0  0  0  0  0  0  0  0  0  0
   28.9268   65.3769    9.3405 H   0  0  0  0  0  0  0  0  0  0  0  0
   31.2409   64.1463    9.2045 H   0  0  0  0  0  0  0  0  0  0  0  0
   29.7526   65.3458    7.3646 H   0  0  0  0  0  0  0  0  0  0  0  0
   31.1877   64.6259    7.0017 H   0  0  0  0  0  0  0  0  0  0  0  0
   30.6376   67.5053    7.2685 H   0  0  0  0  0  0  0  0  0  0  0  0
   31.3291   66.6254    5.8634 H   0  0  0  0  0  0  0  0  0  0  0  0
   32.9807   67.6213    7.7437 H   0  0  0  0  0  0  0  0  0  0  0  0
   34.4144   65.8998    7.5080 H   0  0  0  0  0  0  0  0  0  0  0  0
   32.1004   66.9381    9.7596 H   0  0  0  0  0  0  0  0  0  0  0  0
   34.0712   65.5976    9.4828 H   0  0  0  0  0  0  0  0  0  0  0  0
  1  2  2  0  0  0  0
  1  6  1  0  0  0  0
  1 19  1  0  0  0  0
  2  3  1  0  0  0  0
  2 20  1  0  0  0  0
  3  4  2  0  0  0  0
  3 21  1  0  0  0  0
  4  5  1  0  0  0  0
  4 22  1  0  0  0  0
  5  6  2  0  0  0  0
  5 23  1  0  0  0  0
  6  7  1  0  0  0  0
  7  8  1  0  0  0  0
  7 10  1  0  0  0  0
  7 24  1  6  0  0  0
  8  9  1  0  0  0  0
  8 25  1  0  0  0  0
  8 26  1  0  0  0  0
  9 27  1  0  0  0  0
 10 11  1  0  0  0  0
 10 28  1  0  0  0  0
 10 29  1  0  0  0  0
 11 12  1  0  0  0  0
 11 30  1  0  0  0  0
 11 31  1  0  0  0  0
 12 13  1  0  0  0  0
 12 17  1  0  0  0  0
 12 32  1  1  0  0  0
 13 14  1  0  0  0  0
 13 33  1  0  0  0  0
 13 34  1  0  0  0  0
 14 15  1  0  0  0  0
 14 35  1  0  0  0  0
 14 36  1  0  0  0  0
 15 16  1  0  0  0  0
 15 17  1  0  0  0  0
 15 37  1  1  0  0  0
 16 38  1  0  0  0  0
 17 18  1  0  0  0  0
 17 39  1  1  0  0  0
 18 40  1  0  0  0  0
M  CHG  2  10   1  13   1
M  END
