2f1a_ligand
 OpenBabel08222323343D

 40 41  0  0  1  0  0  0  0  0999 V2000
   29.0140   65.2650   12.1290 C   0  0  1  0  0  0  0  0  0  0  0  0
   29.8940   65.0670   10.9780 N   0  3  0  0  0  0  0  0  0  0  0  0
   29.8080   65.7580    9.7000 C   0  0  0  0  0  0  0  0  0  0  0  0
   30.9570   65.2300    8.8420 C   0  0  1  0  0  0  0  0  0  0  0  0
   30.7550   65.3650    7.4150 N   0  3  0  0  0  0  0  0  0  0  0  0
   31.3260   66.5690    6.8130 C   0  0  0  0  0  0  0  0  0  0  0  0
   32.6510   66.5270    7.5750 C   0  0  2  0  0  0  0  0  0  0  0  0
   33.6810   65.7670    6.9670 O   0  0  0  0  0  0  0  0  0  0  0  0
   32.2540   66.0200    8.9760 C   0  0  2  0  0  0  0  0  0  0  0  0
   33.2080   65.1240    9.5290 O   0  0  0  0  0  0  0  0  0  0  0  0
   27.3820   67.3270   11.6680 C   0  0  0  0  0  0  0  0  0  0  0  0
   27.0730   68.7150   11.8230 C   0  0  0  0  0  0  0  0  0  0  0  0
   27.9240   69.5600   12.5720 C   0  0  0  0  0  0  0  0  0  0  0  0
   29.0640   68.9690   13.1400 C   0  0  0  0  0  0  0  0  0  0  0  0
   29.4170   67.5960   13.0170 C   0  0  0  0  0  0  0  0  0  0  0  0
   28.5560   66.7360   12.2590 C   0  0  0  0  0  0  0  0  0  0  0  0
   27.8510   64.2850   12.0030 C   0  0  0  0  0  0  0  0  0  0  0  0
   28.3270   63.1030   11.3630 O   0  0  0  0  0  0  0  0  0  0  0  0
   29.5751   65.0146   13.0414 H   0  0  0  0  0  0  0  0  0  0  0  0
   29.8167   64.0875   10.7531 H   0  0  0  0  0  0  0  0  0  0  0  0
   30.8221   65.2610   11.3200 H   0  0  0  0  0  0  0  0  0  0  0  0
   29.9115   66.8432    9.8472 H   0  0  0  0  0  0  0  0  0  0  0  0
   28.8434   65.5438    9.2165 H   0  0  0  0  0  0  0  0  0  0  0  0
   31.1163   64.1755    9.1114 H   0  0  0  0  0  0  0  0  0  0  0  0
   29.7623   65.3706    7.2404 H   0  0  0  0  0  0  0  0  0  0  0  0
   31.1709   64.5648    6.9647 H   0  0  0  0  0  0  0  0  0  0  0  0
   30.7388   67.4724    7.0342 H   0  0  0  0  0  0  0  0  0  0  0  0
   31.4600   66.4759    5.7252 H   0  0  0  0  0  0  0  0  0  0  0  0
   33.0324   67.5548    7.6651 H   0  0  0  0  0  0  0  0  0  0  0  0
   34.4599   65.7999    7.5099 H   0  0  0  0  0  0  0  0  0  0  0  0
   32.1181   66.8791    9.6494 H   0  0  0  0  0  0  0  0  0  0  0  0
   34.0464   65.5639    9.6062 H   0  0  0  0  0  0  0  0  0  0  0  0
   26.7131   66.7009   11.0886 H   0  0  0  0  0  0  0  0  0  0  0  0
   26.1799   69.1220   11.3629 H   0  0  0  0  0  0  0  0  0  0  0  0
   27.7066   70.6141   12.7016 H   0  0  0  0  0  0  0  0  0  0  0  0
   29.7251   69.6068   13.7156 H   0  0  0  0  0  0  0  0  0  0  0  0
   30.3152   67.2097   13.4851 H   0  0  0  0  0  0  0  0  0  0  0  0
   27.0484   64.7361   11.4010 H   0  0  0  0  0  0  0  0  0  0  0  0
   27.4644   64.0365   13.0024 H   0  0  0  0  0  0  0  0  0  0  0  0
   27.6136   62.4817   11.2769 H   0  0  0  0  0  0  0  0  0  0  0  0
  1  2  1  0  0  0  0
  1 17  1  0  0  0  0
  1 19  1  1  0  0  0
  2  3  1  0  0  0  0
  2 20  1  0  0  0  0
  2 21  1  0  0  0  0
  3  4  1  0  0  0  0
  3 22  1  0  0  0  0
  3 23  1  0  0  0  0
  4  5  1  0  0  0  0
  4  9  1  0  0  0  0
  4 24  1  1  0  0  0
  5  6  1  0  0  0  0
  5 25  1  0  0  0  0
  5 26  1  0  0  0  0
  6 27  1  0  0  0  0
  6 28  1  0  0  0  0
  7  6  1  0  0  0  0
  7  8  1  0  0  0  0
  7 29  1  1  0  0  0
  8 30  1  0  0  0  0
  9  7  1  0  0  0  0
  9 10  1  0  0  0  0
  9 31  1  1  0  0  0
 10 32  1  0  0  0  0
 11 12  2  0  0  0  0
 11 16  1  0  0  0  0
 11 33  1  0  0  0  0
 12 13  1  0  0  0  0
 12 34  1  0  0  0  0
 13 14  2  0  0  0  0
 13 35  1  0  0  0  0
 14 15  1  0  0  0  0
 14 36  1  0  0  0  0
 15 16  2  0  0  0  0
 15 37  1  0  0  0  0
 16  1  1  0  0  0  0
 17 18  1  0  0  0  0
 17 38  1  0  0  0  0
 17 39  1  0  0  0  0
 18 40  1  0  0  0  0
M  CHG  2   2   1   5   1
M  END
