2f2c_ligand
 OpenBabel08222323343D

 54 56  0  0  1  0  0  0  0  0999 V2000
   27.4990   22.7740   58.0140 O   0  0  0  0  0  0  0  0  0  0  0  0
   28.4380   22.0740   58.8400 C   0  0  0  0  0  0  0  0  0  0  0  0
   29.8230   22.1260   58.1860 C   0  0  2  0  0  0  0  0  0  0  0  0
   30.4190   20.7610   57.8500 C   0  0  0  0  0  0  0  0  0  0  0  0
   31.8920   20.9050   57.4820 C   0  0  0  0  0  0  0  0  0  0  0  0
   29.6500   20.0820   56.7200 C   0  0  0  0  0  0  0  0  0  0  0  0
   30.7740   22.9020   58.9760 N   0  0  0  0  0  0  0  0  0  0  0  0
   30.9780   22.8650   60.3210 C   0  0  0  0  0  0  0  0  0  0  0  0
   31.8580   23.7890   60.7880 N   0  0  0  0  0  0  0  0  0  0  0  0
   32.1810   23.8960   62.0980 C   0  0  0  0  0  0  0  0  0  0  0  0
   31.5440   22.9630   63.0390 C   0  0  0  0  0  0  0  0  0  0  0  0
   32.0290   23.2780   64.2540 N   0  0  0  0  0  0  0  0  0  0  0  0
   32.8930   24.3140   64.1050 C   0  0  0  0  0  0  0  0  0  0  0  0
   32.9950   24.6910   62.8170 N   0  0  0  0  0  0  0  0  0  0  0  0
   33.8670   25.8130   62.3340 C   0  0  0  0  0  0  0  0  0  0  0  0
   33.3530   27.0990   62.9770 C   0  0  0  0  0  0  0  0  0  0  0  0
   33.7960   26.0270   60.8190 C   0  0  0  0  0  0  0  0  0  0  0  0
   30.5920   21.9480   62.4950 C   0  0  0  0  0  0  0  0  0  0  0  0
   30.3580   21.9660   61.1510 N   0  0  0  0  0  0  0  0  0  0  0  0
   29.9800   21.0910   63.3560 N   0  0  0  0  0  0  0  0  0  0  0  0
   29.6030   19.8100   63.1530 C   0  0  0  0  0  0  0  0  0  0  0  0
   30.1820   18.8130   63.9450 C   0  0  0  0  0  0  0  0  0  0  0  0
   29.8090   17.4750   63.8060 C   0  0  0  0  0  0  0  0  0  0  0  0
   30.3920   16.5260   64.5730 N   0  0  0  0  0  0  0  0  0  0  0  0
   28.8350   17.1250   62.8750 C   0  0  0  0  0  0  0  0  0  0  0  0
   28.2440   18.1190   62.0910 C   0  0  0  0  0  0  0  0  0  0  0  0
   27.2030   17.7230   61.0850 Cl  0  0  0  0  0  0  0  0  0  0  0  0
   28.6150   19.4640   62.2290 C   0  0  0  0  0  0  0  0  0  0  0  0
   26.6394   22.7431   58.4175 H   0  0  0  0  0  0  0  0  0  0  0  0
   28.1220   21.0260   58.9491 H   0  0  0  0  0  0  0  0  0  0  0  0
   28.4814   22.5490   59.8312 H   0  0  0  0  0  0  0  0  0  0  0  0
   29.6903   22.6542   57.2303 H   0  0  0  0  0  0  0  0  0  0  0  0
   30.3459   20.1248   58.7444 H   0  0  0  0  0  0  0  0  0  0  0  0
   32.3085   19.9155   57.2425 H   0  0  0  0  0  0  0  0  0  0  0  0
   32.4413   21.3384   58.3308 H   0  0  0  0  0  0  0  0  0  0  0  0
   31.9886   21.5649   56.6073 H   0  0  0  0  0  0  0  0  0  0  0  0
   28.5912   19.9867   57.0026 H   0  0  0  0  0  0  0  0  0  0  0  0
   30.0722   19.0827   56.5379 H   0  0  0  0  0  0  0  0  0  0  0  0
   29.7323   20.6871   55.8051 H   0  0  0  0  0  0  0  0  0  0  0  0
   31.3652   23.5606   58.4491 H   0  0  0  0  0  0  0  0  0  0  0  0
   33.4358   24.7817   64.9250 H   0  0  0  0  0  0  0  0  0  0  0  0
   34.9085   25.6186   62.6296 H   0  0  0  0  0  0  0  0  0  0  0  0
   33.9701   27.9469   62.6451 H   0  0  0  0  0  0  0  0  0  0  0  0
   33.4107   27.0100   64.0719 H   0  0  0  0  0  0  0  0  0  0  0  0
   32.3080   27.2666   62.6772 H   0  0  0  0  0  0  0  0  0  0  0  0
   34.4559   26.8600   60.5351 H   0  0  0  0  0  0  0  0  0  0  0  0
   32.7614   26.2640   60.5302 H   0  0  0  0  0  0  0  0  0  0  0  0
   34.1198   25.1107   60.3037 H   0  0  0  0  0  0  0  0  0  0  0  0
   29.7761   21.4712   64.2913 H   0  0  0  0  0  0  0  0  0  0  0  0
   30.9326   19.0838   64.6787 H   0  0  0  0  0  0  0  0  0  0  0  0
   30.1160   15.5391   64.4696 H   0  0  0  0  0  0  0  0  0  0  0  0
   31.1120   16.7901   65.2606 H   0  0  0  0  0  0  0  0  0  0  0  0
   28.5374   16.0891   62.7592 H   0  0  0  0  0  0  0  0  0  0  0  0
   28.1395   20.2278   61.6243 H   0  0  0  0  0  0  0  0  0  0  0  0
  1  2  1  0  0  0  0
  1 29  1  0  0  0  0
  2  3  1  0  0  0  0
  2 30  1  0  0  0  0
  2 31  1  0  0  0  0
  3  4  1  0  0  0  0
  3  7  1  0  0  0  0
  3 32  1  6  0  0  0
  4  5  1  0  0  0  0
  4  6  1  0  0  0  0
  4 33  1  0  0  0  0
  5 34  1  0  0  0  0
  5 35  1  0  0  0  0
  5 36  1  0  0  0  0
  6 37  1  0  0  0  0
  6 38  1  0  0  0  0
  6 39  1  0  0  0  0
  7  8  1  0  0  0  0
  7 40  1  0  0  0  0
  8  9  2  0  0  0  0
  8 19  1  0  0  0  0
  9 10  1  0  0  0  0
 10 11  2  0  0  0  0
 10 14  1  0  0  0  0
 11 12  1  0  0  0  0
 11 18  1  0  0  0  0
 12 13  2  0  0  0  0
 13 14  1  0  0  0  0
 13 41  1  0  0  0  0
 14 15  1  0  0  0  0
 15 16  1  0  0  0  0
 15 17  1  0  0  0  0
 15 42  1  0  0  0  0
 16 43  1  0  0  0  0
 16 44  1  0  0  0  0
 16 45  1  0  0  0  0
 17 46  1  0  0  0  0
 17 47  1  0  0  0  0
 17 48  1  0  0  0  0
 18 19  2  0  0  0  0
 18 20  1  0  0  0  0
 20 21  1  0  0  0  0
 20 49  1  0  0  0  0
 21 22  2  0  0  0  0
 21 28  1  0  0  0  0
 22 23  1  0  0  0  0
 22 50  1  0  0  0  0
 23 24  1  0  0  0  0
 23 25  2  0  0  0  0
 24 51  1  0  0  0  0
 24 52  1  0  0  0  0
 25 26  1  0  0  0  0
 25 53  1  0  0  0  0
 26 27  1  0  0  0  0
 26 28  2  0  0  0  0
 28 54  1  0  0  0  0
M  END
