2f3f_ligand
 OpenBabel08222323343D

 77 78  0  0  1  0  0  0  0  0999 V2000
   29.8450    9.0120   18.6550 C   0  0  1  0  0  0  0  0  0  0  0  0
   29.3620    7.7690   19.4580 C   0  0  1  0  0  0  0  0  0  0  0  0
   28.4360   10.0720   18.0740 S   0  0  0  0  0  0  0  0  0  0  0  0
   28.7000    8.1460   20.7160 N   0  3  0  0  0  0  0  0  0  0  0  0
   29.6930    8.8200   21.5910 C   0  0  0  0  0  0  0  0  0  0  0  0
   30.1850   10.1310   20.9180 C   0  0  0  0  0  0  0  0  0  0  0  0
   30.8370    9.8110   19.5370 C   0  0  0  0  0  0  0  0  0  0  0  0
   28.6160    6.7610   18.6510 C   0  0  0  0  0  0  0  0  0  0  0  0
   29.0010    6.7150   17.3600 N   0  0  0  0  0  0  0  0  0  0  0  0
   28.4610    5.7200   16.4560 C   0  0  2  0  0  0  0  0  0  0  0  0
   29.4150    5.7380   15.3050 C   0  0  0  0  0  0  0  0  0  0  0  0
   30.7250    5.5380   15.6250 N   0  0  0  0  0  0  0  0  0  0  0  0
   31.7330    5.5930   14.5890 C   0  0  1  0  0  0  0  0  0  0  0  0
   32.9930    6.3810   15.0680 C   0  0  0  0  0  0  0  0  0  0  0  0
   32.4950    7.8800   15.9940 S   0  0  0  0  0  0  0  0  0  0  0  0
   31.8310    8.9710   14.6630 C   0  0  0  0  0  0  0  0  0  0  0  0
   31.2130   10.0830   15.4810 C   0  0  0  0  0  0  0  0  0  0  0  0
   29.9120   10.0580   15.7800 C   0  0  0  0  0  0  0  0  0  0  0  0
   29.2940   11.0740   16.7000 C   0  0  0  0  0  0  0  0  0  0  0  0
   32.1960    4.2100   14.0730 C   0  0  1  0  0  0  0  0  0  0  0  0
   32.9280    3.5000   15.0810 O   0  0  0  0  0  0  0  0  0  0  0  0
   31.0430    3.3210   13.5870 C   0  0  0  0  0  0  0  0  0  0  0  0
   31.6770    2.3250   12.5970 C   0  0  1  0  0  0  0  0  0  0  0  0
   30.7900    1.0840   12.4130 C   0  0  0  0  0  0  0  0  0  0  0  0
   31.8080    2.9790   11.2440 C   0  0  0  0  0  0  0  0  0  0  0  0
   30.8950    3.6790   10.8270 O   0  0  0  0  0  0  0  0  0  0  0  0
   32.9440    2.7540   10.5720 N   0  0  0  0  0  0  0  0  0  0  0  0
   33.1350    3.3500    9.2610 C   0  0  0  0  0  0  0  0  0  0  0  0
   34.3780    2.7180    8.6150 C   0  0  0  0  0  0  0  0  0  0  0  0
   34.4340    2.9740    7.0740 C   0  0  0  0  0  0  0  0  0  0  0  0
   34.7510    4.4300    6.7610 C   0  0  0  0  0  0  0  0  0  0  0  0
   29.0190    5.9260   14.1770 O   0  0  0  0  0  0  0  0  0  0  0  0
   26.9820    5.9990   16.1140 C   0  0  0  0  0  0  0  0  0  0  0  0
   27.7480    6.0530   19.1530 O   0  0  0  0  0  0  0  0  0  0  0  0
   30.3829    8.6571   17.7635 H   0  0  0  0  0  0  0  0  0  0  0  0
   30.2835    7.2519   19.7637 H   0  0  0  0  0  0  0  0  0  0  0  0
   28.3480    7.3205   21.1751 H   0  0  0  0  0  0  0  0  0  0  0  0
   27.9361    8.7745   20.5226 H   0  0  0  0  0  0  0  0  0  0  0  0
   30.5498    8.1498   21.7544 H   0  0  0  0  0  0  0  0  0  0  0  0
   29.2251    9.0592   22.5573 H   0  0  0  0  0  0  0  0  0  0  0  0
   30.9279   10.6171   21.5674 H   0  0  0  0  0  0  0  0  0  0  0  0
   29.3300   10.8069   20.7691 H   0  0  0  0  0  0  0  0  0  0  0  0
   31.0981   10.7520   19.0307 H   0  0  0  0  0  0  0  0  0  0  0  0
   31.7475    9.2140   19.6937 H   0  0  0  0  0  0  0  0  0  0  0  0
   29.6692    7.3774   17.0213 H   0  0  0  0  0  0  0  0  0  0  0  0
   28.5017    4.7291   16.9320 H   0  0  0  0  0  0  0  0  0  0  0  0
   30.9880    5.3540   16.5721 H   0  0  0  0  0  0  0  0  0  0  0  0
   31.2914    6.1339   13.7391 H   0  0  0  0  0  0  0  0  0  0  0  0
   33.5895    6.6774   14.1926 H   0  0  0  0  0  0  0  0  0  0  0  0
   33.5973    5.7352   15.7220 H   0  0  0  0  0  0  0  0  0  0  0  0
   31.0771    8.4513   14.0535 H   0  0  0  0  0  0  0  0  0  0  0  0
   32.6335    9.3472   14.0114 H   0  0  0  0  0  0  0  0  0  0  0  0
   31.8326   10.9086   15.8280 H   0  0  0  0  0  0  0  0  0  0  0  0
   29.2826    9.2822   15.3466 H   0  0  0  0  0  0  0  0  0  0  0  0
   30.0699   11.7256   17.1282 H   0  0  0  0  0  0  0  0  0  0  0  0
   28.5596   11.6866   16.1566 H   0  0  0  0  0  0  0  0  0  0  0  0
   32.8671    4.3869   13.2196 H   0  0  0  0  0  0  0  0  0  0  0  0
   33.6942    4.0041   15.3286 H   0  0  0  0  0  0  0  0  0  0  0  0
   30.2763    3.9278   13.0831 H   0  0  0  0  0  0  0  0  0  0  0  0
   30.5886    2.7847   14.4331 H   0  0  0  0  0  0  0  0  0  0  0  0
   32.6671    2.0228   12.9690 H   0  0  0  0  0  0  0  0  0  0  0  0
   31.2682    0.3936   11.7026 H   0  0  0  0  0  0  0  0  0  0  0  0
   29.8081    1.3897   12.0227 H   0  0  0  0  0  0  0  0  0  0  0  0
   30.6588    0.5801   13.3820 H   0  0  0  0  0  0  0  0  0  0  0  0
   33.6578    2.1783   10.9708 H   0  0  0  0  0  0  0  0  0  0  0  0
   33.2817    4.4352    9.3645 H   0  0  0  0  0  0  0  0  0  0  0  0
   32.2522    3.1575    8.6336 H   0  0  0  0  0  0  0  0  0  0  0  0
   34.3578    1.6328    8.7938 H   0  0  0  0  0  0  0  0  0  0  0  0
   35.2772    3.1494    9.0791 H   0  0  0  0  0  0  0  0  0  0  0  0
   33.4591    2.7179    6.6335 H   0  0  0  0  0  0  0  0  0  0  0  0
   35.2143    2.3358    6.6338 H   0  0  0  0  0  0  0  0  0  0  0  0
   34.7822    4.5722    5.6707 H   0  0  0  0  0  0  0  0  0  0  0  0
   35.7275    4.6938    7.1932 H   0  0  0  0  0  0  0  0  0  0  0  0
   33.9723    5.0759    7.1929 H   0  0  0  0  0  0  0  0  0  0  0  0
   26.6117    5.2232   15.4277 H   0  0  0  0  0  0  0  0  0  0  0  0
   26.8964    6.9848   15.6335 H   0  0  0  0  0  0  0  0  0  0  0  0
   26.3838    5.9878   17.0370 H   0  0  0  0  0  0  0  0  0  0  0  0
  1  2  1  0  0  0  0
  1  3  1  0  0  0  0
  1  7  1  0  0  0  0
  1 35  1  6  0  0  0
  2  4  1  0  0  0  0
  2  8  1  0  0  0  0
  2 36  1  1  0  0  0
  3 19  1  0  0  0  0
  4  5  1  0  0  0  0
  4 37  1  0  0  0  0
  4 38  1  0  0  0  0
  5  6  1  0  0  0  0
  5 39  1  0  0  0  0
  5 40  1  0  0  0  0
  6  7  1  0  0  0  0
  6 41  1  0  0  0  0
  6 42  1  0  0  0  0
  7 43  1  0  0  0  0
  7 44  1  0  0  0  0
  8  9  1  0  0  0  0
  8 34  2  0  0  0  0
  9 10  1  0  0  0  0
  9 45  1  0  0  0  0
 10 11  1  0  0  0  0
 10 33  1  0  0  0  0
 10 46  1  1  0  0  0
 11 12  1  0  0  0  0
 11 32  2  0  0  0  0
 12 13  1  0  0  0  0
 12 47  1  0  0  0  0
 13 14  1  0  0  0  0
 13 20  1  0  0  0  0
 13 48  1  6  0  0  0
 14 15  1  0  0  0  0
 14 49  1  0  0  0  0
 14 50  1  0  0  0  0
 15 16  1  0  0  0  0
 16 17  1  0  0  0  0
 16 51  1  0  0  0  0
 16 52  1  0  0  0  0
 17 18  2  0  0  0  0
 17 53  1  0  0  0  0
 18 19  1  0  0  0  0
 18 54  1  0  0  0  0
 19 55  1  0  0  0  0
 19 56  1  0  0  0  0
 20 21  1  0  0  0  0
 20 22  1  0  0  0  0
 20 57  1  6  0  0  0
 21 58  1  0  0  0  0
 22 23  1  0  0  0  0
 22 59  1  0  0  0  0
 22 60  1  0  0  0  0
 23 24  1  0  0  0  0
 23 25  1  0  0  0  0
 23 61  1  1  0  0  0
 24 62  1  0  0  0  0
 24 63  1  0  0  0  0
 24 64  1  0  0  0  0
 25 26  2  0  0  0  0
 25 27  1  0  0  0  0
 27 28  1  0  0  0  0
 27 65  1  0  0  0  0
 28 29  1  0  0  0  0
 28 66  1  0  0  0  0
 28 67  1  0  0  0  0
 29 30  1  0  0  0  0
 29 68  1  0  0  0  0
 29 69  1  0  0  0  0
 30 31  1  0  0  0  0
 30 70  1  0  0  0  0
 30 71  1  0  0  0  0
 31 72  1  0  0  0  0
 31 73  1  0  0  0  0
 31 74  1  0  0  0  0
 33 75  1  0  0  0  0
 33 76  1  0  0  0  0
 33 77  1  0  0  0  0
M  CHG  1   4   1
M  END
