2f3k_ligand
 OpenBabel08222323343D

106109  0  0  1  0  0  0  0  0999 V2000
   15.7700   -5.1270   12.2670 O   0  0  0  0  0  0  0  0  0  0  0  0
   15.5540   -5.9210   13.4740 S   0  0  0  0  0  0  0  0  0  0  0  0
   14.2570   -6.0150   14.1470 O   0  0  0  0  0  0  0  0  0  0  0  0
   16.0560   -7.6330   13.1220 C   0  0  0  0  0  0  0  0  0  0  0  0
   16.6390   -5.3060   14.6930 C   0  0  0  0  0  0  0  0  0  0  0  0
   16.0350   -3.9760   15.1590 C   0  0  0  0  0  0  0  0  0  0  0  0
   16.6740   -6.3150   15.8560 C   0  0  0  0  0  0  0  0  0  0  0  0
   18.0660   -5.0040   14.1660 C   0  0  2  0  0  0  0  0  0  0  0  0
   18.8140   -6.2220   13.8920 N   0  0  0  0  0  0  0  0  0  0  0  0
   19.1180   -6.5170   12.6260 C   0  0  0  0  0  0  0  0  0  0  0  0
   18.8050   -5.8080   11.6750 O   0  0  0  0  0  0  0  0  0  0  0  0
   19.8780   -7.7950   12.3850 C   0  0  0  0  0  0  0  0  0  0  0  0
   20.6150   -8.1490   13.5540 O   0  0  0  0  0  0  0  0  0  0  0  0
   21.4940   -9.2070   13.5410 C   0  0  0  0  0  0  0  0  0  0  0  0
   22.2590   -9.4890   12.4140 C   0  0  0  0  0  0  0  0  0  0  0  0
   23.1280  -10.5680   12.4440 C   0  0  0  0  0  0  0  0  0  0  0  0
   23.2310  -11.3400   13.5950 C   0  0  0  0  0  0  0  0  0  0  0  0
   22.4930  -11.0430   14.6740 N   0  0  0  0  0  0  0  0  0  0  0  0
   21.6370  -10.0070   14.6720 C   0  0  0  0  0  0  0  0  0  0  0  0
   18.8620   -4.0970   15.0890 C   0  0  0  0  0  0  0  0  0  0  0  0
   18.9770   -4.3570   16.2810 O   0  0  0  0  0  0  0  0  0  0  0  0
   19.4840   -3.0510   14.5120 N   0  0  0  0  0  0  0  0  0  0  0  0
   20.2730   -2.0690   15.2700 C   0  0  1  0  0  0  0  0  0  0  0  0
   21.7550   -2.1820   14.8640 C   0  0  0  0  0  0  0  0  0  0  0  0
   22.2370   -3.6160   14.8780 C   0  0  0  0  0  0  0  0  0  0  0  0
   22.4170   -4.3050   13.6760 C   0  0  0  0  0  0  0  0  0  0  0  0
   22.8580   -5.6250   13.6920 C   0  0  0  0  0  0  0  0  0  0  0  0
   23.1240   -6.2550   14.9040 C   0  0  0  0  0  0  0  0  0  0  0  0
   22.9640   -5.5620   16.0990 C   0  0  0  0  0  0  0  0  0  0  0  0
   22.5160   -4.2490   16.0860 C   0  0  0  0  0  0  0  0  0  0  0  0
   19.6930   -0.6920   14.9190 C   0  0  2  0  0  0  0  0  0  0  0  0
   20.0520   -0.3750   13.5760 O   0  0  0  0  0  0  0  0  0  0  0  0
   20.2220    0.4210   15.8340 C   0  0  0  0  0  0  0  0  0  0  0  0
   19.4820    0.4190   17.1000 N   0  3  1  0  0  0  0  0  0  0  0  0
   20.3300    0.9960   18.1580 C   0  0  2  0  0  0  0  0  0  0  0  0
   21.6340    0.2910   18.3870 C   0  0  0  0  0  0  0  0  0  0  0  0
   21.7130   -0.9390   18.3540 O   0  0  0  0  0  0  0  0  0  0  0  0
   22.6440    1.1180   18.6640 N   0  0  0  0  0  0  0  0  0  0  0  0
   24.0090    0.7090   18.9410 C   0  0  0  0  0  0  0  0  0  0  0  0
   24.0710   -0.0230   20.2830 C   0  0  0  0  0  0  0  0  0  0  0  0
   24.8800    1.9580   19.0250 C   0  0  0  0  0  0  0  0  0  0  0  0
   24.5080   -0.1890   17.8090 C   0  0  0  0  0  0  0  0  0  0  0  0
   19.5610    0.9050   19.4760 C   0  0  0  0  0  0  0  0  0  0  0  0
   18.2810    1.7080   19.3790 C   0  0  1  0  0  0  0  0  0  0  0  0
   17.4420    1.2040   18.2180 C   0  0  2  0  0  0  0  0  0  0  0  0
   16.8420   -0.1680   18.4950 C   0  0  0  0  0  0  0  0  0  0  0  0
   18.2510    1.2020   16.9170 C   0  0  0  0  0  0  0  0  0  0  0  0
   17.5030    1.6830   20.6900 C   0  0  0  0  0  0  0  0  0  0  0  0
   16.8580    0.3300   20.9610 C   0  0  0  0  0  0  0  0  0  0  0  0
   16.0170   -0.1390   19.7730 C   0  0  0  0  0  0  0  0  0  0  0  0
   17.0309   -7.6318   12.6125 H   0  0  0  0  0  0  0  0  0  0  0  0
   15.3048   -8.1098   12.4751 H   0  0  0  0  0  0  0  0  0  0  0  0
   16.1360   -8.1930   14.0654 H   0  0  0  0  0  0  0  0  0  0  0  0
   16.6774   -3.5333   15.9345 H   0  0  0  0  0  0  0  0  0  0  0  0
   15.0311   -4.1539   15.5720 H   0  0  0  0  0  0  0  0  0  0  0  0
   15.9632   -3.2866   14.3049 H   0  0  0  0  0  0  0  0  0  0  0  0
   17.3535   -5.9481   16.6394 H   0  0  0  0  0  0  0  0  0  0  0  0
   17.0312   -7.2877   15.4869 H   0  0  0  0  0  0  0  0  0  0  0  0
   15.6624   -6.4298   16.2724 H   0  0  0  0  0  0  0  0  0  0  0  0
   17.9461   -4.4706   13.2115 H   0  0  0  0  0  0  0  0  0  0  0  0
   19.0948   -6.8263   14.6377 H   0  0  0  0  0  0  0  0  0  0  0  0
   20.5733   -7.6530   11.5445 H   0  0  0  0  0  0  0  0  0  0  0  0
   19.1694   -8.6007   12.1426 H   0  0  0  0  0  0  0  0  0  0  0  0
   22.1766   -8.8738   11.5253 H   0  0  0  0  0  0  0  0  0  0  0  0
   23.7256  -10.8092   11.5723 H   0  0  0  0  0  0  0  0  0  0  0  0
   23.9100  -12.1846   13.6203 H   0  0  0  0  0  0  0  0  0  0  0  0
   21.0523   -9.7920   15.5591 H   0  0  0  0  0  0  0  0  0  0  0  0
   19.4055   -2.9370   13.5216 H   0  0  0  0  0  0  0  0  0  0  0  0
   20.1770   -2.2518   16.3504 H   0  0  0  0  0  0  0  0  0  0  0  0
   22.3625   -1.5960   15.5694 H   0  0  0  0  0  0  0  0  0  0  0  0
   21.8775   -1.7758   13.8491 H   0  0  0  0  0  0  0  0  0  0  0  0
   22.2135   -3.8122   12.7322 H   0  0  0  0  0  0  0  0  0  0  0  0
   22.9943   -6.1623   12.7604 H   0  0  0  0  0  0  0  0  0  0  0  0
   23.4562   -7.2868   14.9166 H   0  0  0  0  0  0  0  0  0  0  0  0
   23.1895   -6.0480   17.0413 H   0  0  0  0  0  0  0  0  0  0  0  0
   22.3828   -3.7143   17.0195 H   0  0  0  0  0  0  0  0  0  0  0  0
   18.5975   -0.7355   15.0088 H   0  0  0  0  0  0  0  0  0  0  0  0
   19.6979    0.4764   13.3473 H   0  0  0  0  0  0  0  0  0  0  0  0
   20.0927    1.3940   15.3374 H   0  0  0  0  0  0  0  0  0  0  0  0
   21.2900    0.2511   16.0354 H   0  0  0  0  0  0  0  0  0  0  0  0
   19.2403   -0.5270   17.3505 H   0  0  0  0  0  0  0  0  0  0  0  0
   20.5344    2.0472   17.9067 H   0  0  0  0  0  0  0  0  0  0  0  0
   22.4446    2.0978   18.6822 H   0  0  0  0  0  0  0  0  0  0  0  0
   25.1078   -0.3296   20.4858 H   0  0  0  0  0  0  0  0  0  0  0  0
   23.4261   -0.9133   20.2452 H   0  0  0  0  0  0  0  0  0  0  0  0
   23.7238    0.6476   21.0829 H   0  0  0  0  0  0  0  0  0  0  0  0
   25.9197    1.6665   19.2348 H   0  0  0  0  0  0  0  0  0  0  0  0
   24.5116    2.6083   19.8321 H   0  0  0  0  0  0  0  0  0  0  0  0
   24.8370    2.5000   18.0688 H   0  0  0  0  0  0  0  0  0  0  0  0
   25.5424   -0.5002   18.0168 H   0  0  0  0  0  0  0  0  0  0  0  0
   24.4757    0.3656   16.8596 H   0  0  0  0  0  0  0  0  0  0  0  0
   23.8651   -1.0786   17.7361 H   0  0  0  0  0  0  0  0  0  0  0  0
   20.1828    1.3058   20.2901 H   0  0  0  0  0  0  0  0  0  0  0  0
   19.3172   -0.1471   19.6847 H   0  0  0  0  0  0  0  0  0  0  0  0
   18.5514    2.7541   19.1726 H   0  0  0  0  0  0  0  0  0  0  0  0
   16.6059    1.9068   18.0878 H   0  0  0  0  0  0  0  0  0  0  0  0
   17.6532   -0.9028   18.6041 H   0  0  0  0  0  0  0  0  0  0  0  0
   16.1958   -0.4575   17.6532 H   0  0  0  0  0  0  0  0  0  0  0  0
   17.6489    0.7541   16.1128 H   0  0  0  0  0  0  0  0  0  0  0  0
   18.5120    2.2360   16.6472 H   0  0  0  0  0  0  0  0  0  0  0  0
   16.7133    2.4475   20.6460 H   0  0  0  0  0  0  0  0  0  0  0  0
   18.1933    1.9158   21.5142 H   0  0  0  0  0  0  0  0  0  0  0  0
   16.2104    0.4138   21.8462 H   0  0  0  0  0  0  0  0  0  0  0  0
   17.6483   -0.4104   21.1536 H   0  0  0  0  0  0  0  0  0  0  0  0
   15.6376   -1.1508   19.9787 H   0  0  0  0  0  0  0  0  0  0  0  0
   15.1701    0.5499   19.6383 H   0  0  0  0  0  0  0  0  0  0  0  0
  1  2  2  0  0  0  0
  2  3  2  0  0  0  0
  2  4  1  0  0  0  0
  2  5  1  0  0  0  0
  4 51  1  0  0  0  0
  4 52  1  0  0  0  0
  4 53  1  0  0  0  0
  5  6  1  0  0  0  0
  5  7  1  0  0  0  0
  5  8  1  0  0  0  0
  6 54  1  0  0  0  0
  6 55  1  0  0  0  0
  6 56  1  0  0  0  0
  7 57  1  0  0  0  0
  7 58  1  0  0  0  0
  7 59  1  0  0  0  0
  8  9  1  0  0  0  0
  8 20  1  0  0  0  0
  8 60  1  6  0  0  0
  9 10  1  0  0  0  0
  9 61  1  0  0  0  0
 10 11  2  0  0  0  0
 10 12  1  0  0  0  0
 12 13  1  0  0  0  0
 12 62  1  0  0  0  0
 12 63  1  0  0  0  0
 13 14  1  0  0  0  0
 14 15  2  0  0  0  0
 14 19  1  0  0  0  0
 15 16  1  0  0  0  0
 15 64  1  0  0  0  0
 16 17  2  0  0  0  0
 16 65  1  0  0  0  0
 17 18  1  0  0  0  0
 17 66  1  0  0  0  0
 18 19  2  0  0  0  0
 19 67  1  0  0  0  0
 20 21  2  0  0  0  0
 20 22  1  0  0  0  0
 22 23  1  0  0  0  0
 22 68  1  0  0  0  0
 23 24  1  0  0  0  0
 23 31  1  0  0  0  0
 23 69  1  1  0  0  0
 24 25  1  0  0  0  0
 24 70  1  0  0  0  0
 24 71  1  0  0  0  0
 25 26  2  0  0  0  0
 25 30  1  0  0  0  0
 26 27  1  0  0  0  0
 26 72  1  0  0  0  0
 27 28  2  0  0  0  0
 27 73  1  0  0  0  0
 28 29  1  0  0  0  0
 28 74  1  0  0  0  0
 29 30  2  0  0  0  0
 29 75  1  0  0  0  0
 30 76  1  0  0  0  0
 31 32  1  0  0  0  0
 31 33  1  0  0  0  0
 31 77  1  1  0  0  0
 32 78  1  0  0  0  0
 33 34  1  0  0  0  0
 33 79  1  0  0  0  0
 33 80  1  0  0  0  0
 34 35  1  0  0  0  0
 34 47  1  0  0  0  0
 34 81  1  1  0  0  0
 35 36  1  0  0  0  0
 35 43  1  0  0  0  0
 35 82  1  6  0  0  0
 36 37  2  0  0  0  0
 36 38  1  0  0  0  0
 38 39  1  0  0  0  0
 38 83  1  0  0  0  0
 39 40  1  0  0  0  0
 39 41  1  0  0  0  0
 39 42  1  0  0  0  0
 40 84  1  0  0  0  0
 40 85  1  0  0  0  0
 40 86  1  0  0  0  0
 41 87  1  0  0  0  0
 41 88  1  0  0  0  0
 41 89  1  0  0  0  0
 42 90  1  0  0  0  0
 42 91  1  0  0  0  0
 42 92  1  0  0  0  0
 43 44  1  0  0  0  0
 43 93  1  0  0  0  0
 43 94  1  0  0  0  0
 44 45  1  0  0  0  0
 44 48  1  0  0  0  0
 44 95  1  6  0  0  0
 45 46  1  0  0  0  0
 45 47  1  0  0  0  0
 45 96  1  6  0  0  0
 46 50  1  0  0  0  0
 46 97  1  0  0  0  0
 46 98  1  0  0  0  0
 47 99  1  0  0  0  0
 47100  1  0  0  0  0
 48 49  1  0  0  0  0
 48101  1  0  0  0  0
 48102  1  0  0  0  0
 49 50  1  0  0  0  0
 49103  1  0  0  0  0
 49104  1  0  0  0  0
 50105  1  0  0  0  0
 50106  1  0  0  0  0
M  CHG  1  34   1
M  END
