2f3r_ligand
 OpenBabel08222323343D

 82 87  0  0  1  0  0  0  0  0999 V2000
   14.2020   -7.6840   -1.2230 P   0  0  1  0  0  0  0  0  0  0  0  0
   13.8690   -7.2200    0.1570 O   0  0  0  0  0  1  0  0  0  0  0  0
   13.5000   -7.1010   -2.3760 O   0  0  0  0  0  0  0  0  0  0  0  0
   17.2100   -7.6520   -0.9420 P   0  0  1  0  0  0  0  0  0  0  0  0
   17.6200   -6.5760    0.0390 O   0  0  0  0  0  1  0  0  0  0  0  0
   16.9540   -8.9550   -0.2030 O   0  0  0  0  0  0  0  0  0  0  0  0
   15.7660   -7.3290   -1.5520 O   0  0  0  0  0  0  0  0  0  0  0  0
   18.5650   -7.4250   -3.4220 P   0  0  2  0  0  0  0  0  0  0  0  0
   18.3160   -8.5230   -4.4130 O   0  0  0  0  0  1  0  0  0  0  0  0
   19.9520   -6.8950   -3.8200 O   0  0  0  0  0  0  0  0  0  0  0  0
   18.4000   -7.8690   -2.0020 O   0  0  0  0  0  0  0  0  0  0  0  0
   17.7430   -4.8540   -4.4500 P   0  0  2  0  0  0  0  0  0  0  0  0
   18.3830   -3.7780   -3.6270 O   0  0  0  0  0  1  0  0  0  0  0  0
   16.5110   -4.3990   -5.2200 O   0  0  0  0  0  0  0  0  0  0  0  0
   17.5650   -6.1810   -3.7240 O   0  0  0  0  0  0  0  0  0  0  0  0
   18.8650   -5.1940   -5.6370 O   0  0  0  0  0  0  0  0  0  0  0  0
   19.4830   -4.3030   -6.7900 P   0  0  2  0  0  0  0  0  0  0  0  0
   18.8650   -2.9460   -6.8310 O   0  0  0  0  0  1  0  0  0  0  0  0
   19.5970   -5.0690   -8.0950 O   0  0  0  0  0  0  0  0  0  0  0  0
   20.9960   -4.1650   -6.2820 O   0  0  0  0  0  0  0  0  0  0  0  0
   21.2140   -3.4880   -5.0790 C   0  0  0  0  0  0  0  0  0  0  0  0
   22.6290   -3.6400   -4.6250 C   0  0  1  0  0  0  0  0  0  0  0  0
   23.3470   -2.5580   -5.3140 O   0  0  0  0  0  0  0  0  0  0  0  0
   22.7020   -3.3920   -3.1120 C   0  0  1  0  0  0  0  0  0  0  0  0
   23.8630   -4.1650   -2.6140 O   0  0  0  0  0  0  0  0  0  0  0  0
   22.9350   -1.9150   -3.0410 C   0  0  1  0  0  0  0  0  0  0  0  0
   23.4540   -1.5510   -1.8130 O   0  0  0  0  0  0  0  0  0  0  0  0
   23.7960   -1.6510   -4.3340 C   0  0  2  0  0  0  0  0  0  0  0  0
   23.5490   -0.1970   -4.8760 N   0  0  0  0  0  0  0  0  0  0  0  0
   22.3570    0.2660   -5.3660 C   0  0  0  0  0  0  0  0  0  0  0  0
   22.4710    1.5550   -5.7490 N   0  0  0  0  0  0  0  0  0  0  0  0
   23.7910    1.9000   -5.4810 C   0  0  0  0  0  0  0  0  0  0  0  0
   24.4640    3.1340   -5.6870 C   0  0  0  0  0  0  0  0  0  0  0  0
   23.9490    4.1610   -6.1610 O   0  0  0  0  0  0  0  0  0  0  0  0
   25.8230    3.1050   -5.2910 N   0  0  0  0  0  0  0  0  0  0  0  0
   26.4310    1.9590   -4.7500 C   0  0  0  0  0  0  0  0  0  0  0  0
   27.7390    2.0290   -4.4020 N   0  0  0  0  0  0  0  0  0  0  0  0
   25.7700    0.7850   -4.5580 N   0  0  0  0  0  0  0  0  0  0  0  0
   24.4730    0.8320   -4.9440 C   0  0  0  0  0  0  0  0  0  0  0  0
   14.2940   -9.2140   -1.3340 O   0  0  0  0  0  0  0  0  0  0  0  0
   13.2750  -10.1580   -0.9230 C   0  0  0  0  0  0  0  0  0  0  0  0
   13.9290  -11.4470   -0.5540 C   0  0  1  0  0  0  0  0  0  0  0  0
   12.9730  -12.4920   -0.4210 O   0  0  0  0  0  0  0  0  0  0  0  0
   13.3660  -13.6580   -1.1920 C   0  0  2  0  0  0  0  0  0  0  0  0
   14.2150  -13.0910   -2.3240 C   0  0  2  0  0  0  0  0  0  0  0  0
   14.9530  -14.1870   -2.8770 O   0  0  0  0  0  0  0  0  0  0  0  0
   15.0430  -11.9930   -1.5820 C   0  0  2  0  0  0  0  0  0  0  0  0
   16.1080  -12.5190   -0.7250 O   0  0  0  0  0  0  0  0  0  0  0  0
   12.2160  -14.4540   -1.7250 N   0  0  0  0  0  0  0  0  0  0  0  0
   11.8630  -15.7330   -1.2690 C   0  0  0  0  0  0  0  0  0  0  0  0
   12.5050  -16.4700   -0.2610 N   0  0  0  0  0  0  0  0  0  0  0  0
   11.9410  -17.6890   -0.0330 C   0  0  0  0  0  0  0  0  0  0  0  0
   10.8480  -18.1970   -0.7010 N   0  0  0  0  0  0  0  0  0  0  0  0
   10.2230  -17.4690   -1.6930 C   0  0  0  0  0  0  0  0  0  0  0  0
    9.1840  -18.0740   -2.2600 N   0  0  0  0  0  0  0  0  0  0  0  0
   10.7540  -16.1390   -2.0120 C   0  0  0  0  0  0  0  0  0  0  0  0
   10.4220  -15.1400   -2.9090 N   0  0  0  0  0  0  0  0  0  0  0  0
   11.2990  -14.1690   -2.7110 C   0  0  0  0  0  0  0  0  0  0  0  0
   20.5438   -3.8983   -4.3093 H   0  0  0  0  0  0  0  0  0  0  0  0
   20.9959   -2.4196   -5.2234 H   0  0  0  0  0  0  0  0  0  0  0  0
   23.0356   -4.6297   -4.8803 H   0  0  0  0  0  0  0  0  0  0  0  0
   21.7814   -3.6842   -2.5856 H   0  0  0  0  0  0  0  0  0  0  0  0
   23.9464   -4.0400   -1.6760 H   0  0  0  0  0  0  0  0  0  0  0  0
   21.9794   -1.3809   -3.1486 H   0  0  0  0  0  0  0  0  0  0  0  0
   24.2818   -1.9965   -1.6757 H   0  0  0  0  0  0  0  0  0  0  0  0
   24.8646   -1.7999   -4.1199 H   0  0  0  0  0  0  0  0  0  0  0  0
   21.4443   -0.3238   -5.4367 H   0  0  0  0  0  0  0  0  0  0  0  0
   26.3725    3.9333   -5.4006 H   0  0  0  0  0  0  0  0  0  0  0  0
   28.2106    1.2047   -4.0032 H   0  0  0  0  0  0  0  0  0  0  0  0
   28.2614    2.9065   -4.5364 H   0  0  0  0  0  0  0  0  0  0  0  0
   12.5712  -10.3253   -1.7516 H   0  0  0  0  0  0  0  0  0  0  0  0
   12.7307   -9.7586   -0.0546 H   0  0  0  0  0  0  0  0  0  0  0  0
   14.4177  -11.2885    0.4186 H   0  0  0  0  0  0  0  0  0  0  0  0
   13.9760  -14.3223   -0.5622 H   0  0  0  0  0  0  0  0  0  0  0  0
   13.6019  -12.6331   -3.1142 H   0  0  0  0  0  0  0  0  0  0  0  0
   15.5016  -14.5702   -2.2027 H   0  0  0  0  0  0  0  0  0  0  0  0
   15.4297  -11.2298   -2.2734 H   0  0  0  0  0  0  0  0  0  0  0  0
   16.5647  -11.7968   -0.3099 H   0  0  0  0  0  0  0  0  0  0  0  0
   12.3879  -18.3091    0.7356 H   0  0  0  0  0  0  0  0  0  0  0  0
    8.6594  -17.6016   -3.0100 H   0  0  0  0  0  0  0  0  0  0  0  0
    8.9036  -19.0151   -1.9493 H   0  0  0  0  0  0  0  0  0  0  0  0
   11.2955  -13.2362   -3.2729 H   0  0  0  0  0  0  0  0  0  0  0  0
  1  2  1  1  0  0  0
  1  3  2  0  0  0  0
  1 40  1  0  0  0  0
  4  5  1  1  0  0  0
  4  6  2  0  0  0  0
  4  7  1  0  0  0  0
  7  1  1  0  0  0  0
  8  9  1  6  0  0  0
  8 10  2  0  0  0  0
  8 11  1  0  0  0  0
 11  4  1  0  0  0  0
 12 13  1  1  0  0  0
 12 14  2  0  0  0  0
 12 15  1  0  0  0  0
 12 16  1  0  0  0  0
 15  8  1  0  0  0  0
 16 17  1  0  0  0  0
 17 18  1  6  0  0  0
 17 19  2  0  0  0  0
 17 20  1  0  0  0  0
 20 21  1  0  0  0  0
 21 22  1  0  0  0  0
 21 59  1  0  0  0  0
 21 60  1  0  0  0  0
 22 23  1  0  0  0  0
 22 24  1  0  0  0  0
 22 61  1  6  0  0  0
 23 28  1  0  0  0  0
 24 25  1  0  0  0  0
 24 26  1  0  0  0  0
 24 62  1  1  0  0  0
 25 63  1  0  0  0  0
 26 27  1  0  0  0  0
 26 28  1  0  0  0  0
 26 64  1  6  0  0  0
 27 65  1  0  0  0  0
 28 29  1  0  0  0  0
 28 66  1  1  0  0  0
 29 30  1  0  0  0  0
 29 39  1  0  0  0  0
 30 31  2  0  0  0  0
 30 67  1  0  0  0  0
 31 32  1  0  0  0  0
 32 33  1  0  0  0  0
 32 39  2  0  0  0  0
 33 34  2  0  0  0  0
 33 35  1  0  0  0  0
 35 36  1  0  0  0  0
 35 68  1  0  0  0  0
 36 37  1  0  0  0  0
 36 38  2  0  0  0  0
 37 69  1  0  0  0  0
 37 70  1  0  0  0  0
 38 39  1  0  0  0  0
 40 41  1  0  0  0  0
 41 42  1  0  0  0  0
 41 71  1  0  0  0  0
 41 72  1  0  0  0  0
 42 43  1  0  0  0  0
 42 47  1  0  0  0  0
 42 73  1  1  0  0  0
 43 44  1  0  0  0  0
 44 45  1  0  0  0  0
 44 49  1  0  0  0  0
 44 74  1  1  0  0  0
 45 46  1  0  0  0  0
 45 47  1  0  0  0  0
 45 75  1  6  0  0  0
 46 76  1  0  0  0  0
 47 48  1  0  0  0  0
 47 77  1  6  0  0  0
 48 78  1  0  0  0  0
 49 50  1  0  0  0  0
 49 58  1  0  0  0  0
 50 51  2  0  0  0  0
 50 56  1  0  0  0  0
 51 52  1  0  0  0  0
 52 53  2  0  0  0  0
 52 79  1  0  0  0  0
 53 54  1  0  0  0  0
 54 55  1  0  0  0  0
 54 56  2  0  0  0  0
 55 80  1  0  0  0  0
 55 81  1  0  0  0  0
 56 57  1  0  0  0  0
 57 58  2  0  0  0  0
 58 82  1  0  0  0  0
M  END
