2f5t_ligand
 OpenBabel08222323343D

 45 46  0  0  1  0  0  0  0  0999 V2000
   34.4190   33.4820   30.6460 C   0  0  1  0  0  0  0  0  0  0  0  0
   33.1780   32.6280   30.2940 C   0  0  1  0  0  0  0  0  0  0  0  0
   33.6850   31.3090   29.7090 C   0  0  2  0  0  0  0  0  0  0  0  0
   34.5990   31.5520   28.4880 C   0  0  1  0  0  0  0  0  0  0  0  0
   35.7010   32.5520   28.8180 C   0  0  1  0  0  0  0  0  0  0  0  0
   36.4390   32.9750   27.5430 C   0  0  0  0  0  0  0  0  0  0  0  0
   35.1540   32.7630   31.5820 O   0  0  0  0  0  0  0  0  0  0  0  0
   32.3840   32.4080   31.4230 O   0  0  0  0  0  0  0  0  0  0  0  0
   32.5520   30.4710   29.3950 O   0  0  0  0  0  0  0  0  0  0  0  0
   35.1120   30.2950   28.0700 O   0  0  0  0  0  0  0  0  0  0  0  0
   35.1410   33.7160   29.4380 O   0  0  0  0  0  0  0  0  0  0  0  0
   35.5550   33.5740   26.5600 O   0  0  0  0  0  0  0  0  0  0  0  0
   36.8910   33.3440   35.2690 C   0  0  2  0  0  0  0  0  0  0  0  0
   35.7240   34.2810   34.9740 C   0  0  1  0  0  0  0  0  0  0  0  0
   34.9570   33.8190   33.7270 C   0  0  2  0  0  0  0  0  0  0  0  0
   35.8830   33.4960   32.5460 C   0  0  1  0  0  0  0  0  0  0  0  0
   37.0170   32.5890   32.9990 C   0  0  1  0  0  0  0  0  0  0  0  0
   38.0400   32.3270   31.8840 C   0  0  0  0  0  0  0  0  0  0  0  0
   37.6070   33.7320   36.3590 O   0  0  0  0  0  0  0  0  0  0  0  0
   34.8000   34.4230   36.0340 O   0  0  0  0  0  0  0  0  0  0  0  0
   34.0430   34.8130   33.3610 O   0  0  0  0  0  0  0  0  0  0  0  0
   37.6840   33.1200   34.1370 O   0  0  0  0  0  0  0  0  0  0  0  0
   38.8680   33.4540   31.6510 O   0  0  0  0  0  0  0  0  0  0  0  0
   34.1137   34.4453   31.0805 H   0  0  0  0  0  0  0  0  0  0  0  0
   32.5756   33.1538   29.5386 H   0  0  0  0  0  0  0  0  0  0  0  0
   34.2846   30.7981   30.4767 H   0  0  0  0  0  0  0  0  0  0  0  0
   33.9948   31.9722   27.6705 H   0  0  0  0  0  0  0  0  0  0  0  0
   36.4151   32.0810   29.5096 H   0  0  0  0  0  0  0  0  0  0  0  0
   36.9108   32.0867   27.0977 H   0  0  0  0  0  0  0  0  0  0  0  0
   37.2151   33.7069   27.8113 H   0  0  0  0  0  0  0  0  0  0  0  0
   32.0835   33.2419   31.7648 H   0  0  0  0  0  0  0  0  0  0  0  0
   32.8597   29.6266   29.0872 H   0  0  0  0  0  0  0  0  0  0  0  0
   34.3904   29.7082   27.8765 H   0  0  0  0  0  0  0  0  0  0  0  0
   34.8842   32.9473   26.3154 H   0  0  0  0  0  0  0  0  0  0  0  0
   36.4472   32.3714   35.5279 H   0  0  0  0  0  0  0  0  0  0  0  0
   36.1506   35.2742   34.7701 H   0  0  0  0  0  0  0  0  0  0  0  0
   34.4017   32.9049   33.9838 H   0  0  0  0  0  0  0  0  0  0  0  0
   36.2808   34.4257   32.1132 H   0  0  0  0  0  0  0  0  0  0  0  0
   36.5736   31.6234   33.2835 H   0  0  0  0  0  0  0  0  0  0  0  0
   37.5008   32.0840   30.9565 H   0  0  0  0  0  0  0  0  0  0  0  0
   38.6724   31.4751   32.1745 H   0  0  0  0  0  0  0  0  0  0  0  0
   38.2373   33.0562   36.5795 H   0  0  0  0  0  0  0  0  0  0  0  0
   35.2580   34.7090   36.8157 H   0  0  0  0  0  0  0  0  0  0  0  0
   33.4748   35.0059   34.0975 H   0  0  0  0  0  0  0  0  0  0  0  0
   39.3419   33.6672   32.4463 H   0  0  0  0  0  0  0  0  0  0  0  0
  1  2  1  0  0  0  0
  1 11  1  0  0  0  0
  1 24  1  1  0  0  0
  2  3  1  0  0  0  0
  2  8  1  0  0  0  0
  2 25  1  6  0  0  0
  3  4  1  0  0  0  0
  3  9  1  0  0  0  0
  3 26  1  1  0  0  0
  4 10  1  0  0  0  0
  4 27  1  6  0  0  0
  5  4  1  0  0  0  0
  5  6  1  0  0  0  0
  5 28  1  1  0  0  0
  6 12  1  0  0  0  0
  6 29  1  0  0  0  0
  6 30  1  0  0  0  0
  7  1  1  0  0  0  0
  8 31  1  0  0  0  0
  9 32  1  0  0  0  0
 10 33  1  0  0  0  0
 11  5  1  0  0  0  0
 12 34  1  0  0  0  0
 13 19  1  0  0  0  0
 13 22  1  0  0  0  0
 13 35  1  1  0  0  0
 14 13  1  0  0  0  0
 14 20  1  0  0  0  0
 14 36  1  6  0  0  0
 15 14  1  0  0  0  0
 15 16  1  0  0  0  0
 15 21  1  0  0  0  0
 15 37  1  1  0  0  0
 16  7  1  0  0  0  0
 16 17  1  0  0  0  0
 16 38  1  6  0  0  0
 17 18  1  0  0  0  0
 17 22  1  0  0  0  0
 17 39  1  1  0  0  0
 18 23  1  0  0  0  0
 18 40  1  0  0  0  0
 18 41  1  0  0  0  0
 19 42  1  0  0  0  0
 20 43  1  0  0  0  0
 21 44  1  0  0  0  0
 23 45  1  0  0  0  0
M  END
