2f6v_ligand
 OpenBabel08222323343D

 49 51  0  0  1  0  0  0  0  0999 V2000
  -10.3300   46.8010   46.3010 O   0  0  0  0  0  1  0  0  0  0  0  0
   -9.2080   47.5010   46.9620 S   0  0  0  0  0  0  0  0  0  0  0  0
   -8.1040   46.5490   47.1250 O   0  0  0  0  0  1  0  0  0  0  0  0
   -8.8170   48.7640   46.3200 O   0  0  0  0  0  1  0  0  0  0  0  0
   -9.7340   47.8960   48.4470 N   0  0  0  0  0  0  0  0  0  0  0  0
  -10.2590   46.9640   49.2960 C   0  0  0  0  0  0  0  0  0  0  0  0
   -9.4100   46.1880   50.0870 C   0  0  0  0  0  0  0  0  0  0  0  0
  -11.6370   46.7980   49.4300 C   0  0  0  0  0  0  0  0  0  0  0  0
  -12.1540   45.8530   50.3210 C   0  0  0  0  0  0  0  0  0  0  0  0
  -13.6560   45.7040   50.4460 C   0  0  0  0  0  0  0  0  0  0  0  0
  -14.0510   44.9600   51.6520 N   0  0  0  0  0  0  0  0  0  0  0  0
  -13.1020   44.6650   52.7160 C   0  0  2  0  0  0  0  0  0  0  0  0
  -12.8240   45.8690   53.5820 C   0  0  0  0  0  0  0  0  0  0  0  0
  -11.8210   45.9130   54.2870 O   0  0  0  0  0  0  0  0  0  0  0  0
  -13.6590   46.8990   53.5410 N   0  0  0  0  0  0  0  0  0  0  0  0
  -13.3930   48.0730   54.3700 C   0  0  0  0  0  0  0  0  0  0  0  0
  -11.8530   44.0680   52.0590 C   0  0  0  0  0  0  0  0  0  0  0  0
  -11.2920   45.0860   51.0830 C   0  0  0  0  0  0  0  0  0  0  0  0
   -9.9090   45.2360   50.9790 C   0  0  0  0  0  0  0  0  0  0  0  0
  -15.2950   44.5370   51.8310 C   0  0  0  0  0  0  0  0  0  0  0  0
  -15.7010   43.9060   52.8020 O   0  0  0  0  0  0  0  0  0  0  0  0
  -16.1740   44.8840   50.7490 O   0  0  0  0  0  0  0  0  0  0  0  0
  -17.5160   44.3950   50.7670 C   0  0  0  0  0  0  0  0  0  0  0  0
  -18.2600   45.2870   49.8000 C   0  0  0  0  0  0  0  0  0  0  0  0
  -18.4100   46.6580   50.0310 C   0  0  0  0  0  0  0  0  0  0  0  0
  -19.1090   47.4230   49.1010 C   0  0  0  0  0  0  0  0  0  0  0  0
  -18.7790   44.6840   48.6540 C   0  0  0  0  0  0  0  0  0  0  0  0
  -19.4870   45.4500   47.7260 C   0  0  0  0  0  0  0  0  0  0  0  0
  -19.6380   46.8140   47.9600 C   0  0  0  0  0  0  0  0  0  0  0  0
   -9.6717   48.8476   48.7479 H   0  0  0  0  0  0  0  0  0  0  0  0
   -8.3380   46.3275   50.0071 H   0  0  0  0  0  0  0  0  0  0  0  0
  -12.3122   47.4061   48.8390 H   0  0  0  0  0  0  0  0  0  0  0  0
  -14.0319   45.1678   49.5621 H   0  0  0  0  0  0  0  0  0  0  0  0
  -14.1076   46.7062   50.4864 H   0  0  0  0  0  0  0  0  0  0  0  0
  -13.5421   43.8957   53.3675 H   0  0  0  0  0  0  0  0  0  0  0  0
  -14.4637   46.8724   52.9479 H   0  0  0  0  0  0  0  0  0  0  0  0
  -14.1824   48.8219   54.2091 H   0  0  0  0  0  0  0  0  0  0  0  0
  -12.4184   48.5028   54.0952 H   0  0  0  0  0  0  0  0  0  0  0  0
  -13.3780   47.7779   55.4296 H   0  0  0  0  0  0  0  0  0  0  0  0
  -12.1205   43.1463   51.5215 H   0  0  0  0  0  0  0  0  0  0  0  0
  -11.1018   43.8385   52.8291 H   0  0  0  0  0  0  0  0  0  0  0  0
   -9.2381   44.6287   51.5758 H   0  0  0  0  0  0  0  0  0  0  0  0
  -17.9447   44.4744   51.7769 H   0  0  0  0  0  0  0  0  0  0  0  0
  -17.5519   43.3470   50.4347 H   0  0  0  0  0  0  0  0  0  0  0  0
  -17.9895   47.1171   50.9184 H   0  0  0  0  0  0  0  0  0  0  0  0
  -19.2423   48.4867   49.2615 H   0  0  0  0  0  0  0  0  0  0  0  0
  -18.6329   43.6233   48.4845 H   0  0  0  0  0  0  0  0  0  0  0  0
  -19.9111   44.9914   46.8401 H   0  0  0  0  0  0  0  0  0  0  0  0
  -20.1786   47.4178   47.2402 H   0  0  0  0  0  0  0  0  0  0  0  0
  1  2  1  0  0  0  0
  2  3  1  0  0  0  0
  2  4  1  0  0  0  0
  2  5  1  0  0  0  0
  5  6  1  0  0  0  0
  5 30  1  0  0  0  0
  6  7  2  0  0  0  0
  6  8  1  0  0  0  0
  7 19  1  0  0  0  0
  7 31  1  0  0  0  0
  8  9  2  0  0  0  0
  8 32  1  0  0  0  0
  9 10  1  0  0  0  0
  9 18  1  0  0  0  0
 10 11  1  0  0  0  0
 10 33  1  0  0  0  0
 10 34  1  0  0  0  0
 11 12  1  0  0  0  0
 11 20  1  0  0  0  0
 12 13  1  0  0  0  0
 12 17  1  0  0  0  0
 12 35  1  1  0  0  0
 13 14  2  0  0  0  0
 13 15  1  0  0  0  0
 15 16  1  0  0  0  0
 15 36  1  0  0  0  0
 16 37  1  0  0  0  0
 16 38  1  0  0  0  0
 16 39  1  0  0  0  0
 17 18  1  0  0  0  0
 17 40  1  0  0  0  0
 17 41  1  0  0  0  0
 18 19  2  0  0  0  0
 19 42  1  0  0  0  0
 20 21  2  0  0  0  0
 20 22  1  0  0  0  0
 22 23  1  0  0  0  0
 23 24  1  0  0  0  0
 23 43  1  0  0  0  0
 23 44  1  0  0  0  0
 24 25  2  0  0  0  0
 24 27  1  0  0  0  0
 25 26  1  0  0  0  0
 25 45  1  0  0  0  0
 26 29  2  0  0  0  0
 26 46  1  0  0  0  0
 27 28  2  0  0  0  0
 27 47  1  0  0  0  0
 28 29  1  0  0  0  0
 28 48  1  0  0  0  0
 29 49  1  0  0  0  0
M  END
