2f6y_ligand
 OpenBabel08222323343D

 48 49  0  0  1  0  0  0  0  0999 V2000
   41.4250   16.9190   11.7600 O   0  0  0  0  0  1  0  0  0  0  0  0
   42.5050   15.9160   12.1170 S   0  0  0  0  0  0  0  0  0  0  0  0
   42.5170   14.6270   11.3730 O   0  0  0  0  0  1  0  0  0  0  0  0
   43.8120   16.5170   12.5160 O   0  0  0  0  0  1  0  0  0  0  0  0
   41.8880   15.4410   13.5230 N   0  0  0  0  0  0  0  0  0  0  0  0
   42.3520   14.5050   14.3850 C   0  0  0  0  0  0  0  0  0  0  0  0
   42.0870   13.1430   14.1930 C   0  0  0  0  0  0  0  0  0  0  0  0
   42.5380   12.1660   15.0810 C   0  0  0  0  0  0  0  0  0  0  0  0
   43.0640   14.9680   15.4820 C   0  0  0  0  0  0  0  0  0  0  0  0
   43.4920   13.9900   16.3750 C   0  0  0  0  0  0  0  0  0  0  0  0
   44.2340   14.5300   17.5840 C   0  0  0  0  0  0  0  0  0  0  0  0
   44.4160   13.5130   18.6340 N   0  0  0  0  0  0  0  0  0  0  0  0
   43.7290   12.2120   18.5550 C   0  0  1  0  0  0  0  0  0  0  0  0
   42.3130   12.2070   19.0800 C   0  0  0  0  0  0  0  0  0  0  0  0
   41.6230   11.2630   18.7450 O   0  0  0  0  0  0  0  0  0  0  0  0
   41.8030   13.1670   19.8680 N   0  0  0  0  0  0  0  0  0  0  0  0
   40.4530   13.2550   20.4200 C   0  0  0  0  0  0  0  0  0  0  0  0
   43.7490   11.5850   17.1630 C   0  0  0  0  0  0  0  0  0  0  0  0
   43.2520   12.6210   16.1830 C   0  0  0  0  0  0  0  0  0  0  0  0
   45.2240   13.7050   19.6880 C   0  0  0  0  0  0  0  0  0  0  0  0
   45.8570   14.7510   19.8550 O   0  0  0  0  0  0  0  0  0  0  0  0
   45.3810   12.6060   20.6450 O   0  0  0  0  0  0  0  0  0  0  0  0
   46.7450   12.3330   21.0090 C   0  0  0  0  0  0  0  0  0  0  0  0
   47.3790   11.1610   20.2910 C   0  0  0  0  0  0  0  0  0  0  0  0
   47.7320   13.4740   20.7860 C   0  0  0  0  0  0  0  0  0  0  0  0
   46.8190   11.9150   22.4610 C   0  0  0  0  0  0  0  0  0  0  0  0
   41.0441   15.9005   13.7999 H   0  0  0  0  0  0  0  0  0  0  0  0
   41.5125   12.8380   13.3258 H   0  0  0  0  0  0  0  0  0  0  0  0
   42.3426   11.1119   14.9205 H   0  0  0  0  0  0  0  0  0  0  0  0
   43.2730   16.0208   15.6335 H   0  0  0  0  0  0  0  0  0  0  0  0
   43.6617   15.3709   18.0027 H   0  0  0  0  0  0  0  0  0  0  0  0
   45.2239   14.8848   17.2611 H   0  0  0  0  0  0  0  0  0  0  0  0
   44.3029   11.5390   19.2089 H   0  0  0  0  0  0  0  0  0  0  0  0
   42.4236   13.9139   20.1066 H   0  0  0  0  0  0  0  0  0  0  0  0
   40.3631   14.1694   21.0248 H   0  0  0  0  0  0  0  0  0  0  0  0
   40.2574   12.3764   21.0523 H   0  0  0  0  0  0  0  0  0  0  0  0
   39.7222   13.2855   19.5984 H   0  0  0  0  0  0  0  0  0  0  0  0
   43.0921   10.7030   17.1404 H   0  0  0  0  0  0  0  0  0  0  0  0
   44.7747   11.2851   16.9023 H   0  0  0  0  0  0  0  0  0  0  0  0
   48.4155   11.0359   20.6375 H   0  0  0  0  0  0  0  0  0  0  0  0
   47.3749   11.3492   19.2072 H   0  0  0  0  0  0  0  0  0  0  0  0
   46.8074   10.2462   20.5065 H   0  0  0  0  0  0  0  0  0  0  0  0
   48.7377   13.1549   21.0972 H   0  0  0  0  0  0  0  0  0  0  0  0
   47.4240   14.3468   21.3804 H   0  0  0  0  0  0  0  0  0  0  0  0
   47.7464   13.7432   19.7196 H   0  0  0  0  0  0  0  0  0  0  0  0
   47.8654   11.7084   22.7302 H   0  0  0  0  0  0  0  0  0  0  0  0
   46.2155   11.0080   22.6127 H   0  0  0  0  0  0  0  0  0  0  0  0
   46.4301   12.7247   23.0960 H   0  0  0  0  0  0  0  0  0  0  0  0
  1  2  1  0  0  0  0
  2  3  1  0  0  0  0
  2  4  1  0  0  0  0
  2  5  1  0  0  0  0
  5  6  1  0  0  0  0
  5 27  1  0  0  0  0
  6  7  2  0  0  0  0
  6  9  1  0  0  0  0
  7  8  1  0  0  0  0
  7 28  1  0  0  0  0
  8 19  2  0  0  0  0
  8 29  1  0  0  0  0
  9 10  2  0  0  0  0
  9 30  1  0  0  0  0
 10 11  1  0  0  0  0
 10 19  1  0  0  0  0
 11 12  1  0  0  0  0
 11 31  1  0  0  0  0
 11 32  1  0  0  0  0
 12 13  1  0  0  0  0
 12 20  1  0  0  0  0
 13 14  1  0  0  0  0
 13 18  1  0  0  0  0
 13 33  1  1  0  0  0
 14 15  2  0  0  0  0
 14 16  1  0  0  0  0
 16 17  1  0  0  0  0
 16 34  1  0  0  0  0
 17 35  1  0  0  0  0
 17 36  1  0  0  0  0
 17 37  1  0  0  0  0
 18 19  1  0  0  0  0
 18 38  1  0  0  0  0
 18 39  1  0  0  0  0
 20 21  2  0  0  0  0
 20 22  1  0  0  0  0
 22 23  1  0  0  0  0
 23 24  1  0  0  0  0
 23 25  1  0  0  0  0
 23 26  1  0  0  0  0
 24 40  1  0  0  0  0
 24 41  1  0  0  0  0
 24 42  1  0  0  0  0
 25 43  1  0  0  0  0
 25 44  1  0  0  0  0
 25 45  1  0  0  0  0
 26 46  1  0  0  0  0
 26 47  1  0  0  0  0
 26 48  1  0  0  0  0
M  END
