2f89_ligand
 OpenBabel08222323343D

 21 20  0  0  0  0  0  0  0  0999 V2000
   15.4960   75.7870   24.1120 P   0  0  0  0  0  0  0  0  0  0  0  0
   16.8100   75.9320   23.4640 O   0  0  0  0  0  1  0  0  0  0  0  0
   15.2890   74.3620   24.7710 O   0  0  0  0  0  1  0  0  0  0  0  0
   14.1260   75.8030   23.2730 O   0  0  0  0  0  0  0  0  0  0  0  0
   15.1480   77.2250   25.2510 C   0  0  0  0  0  0  0  0  0  0  0  0
   16.5110   77.4700   26.5180 P   0  0  0  0  0  0  0  0  0  0  0  0
   17.8710   77.9190   26.0540 O   0  0  0  0  0  1  0  0  0  0  0  0
   16.5020   76.0190   27.2210 O   0  0  0  0  0  1  0  0  0  0  0  0
   15.8680   78.6010   27.4250 O   0  0  0  0  0  0  0  0  0  0  0  0
   13.9480   76.8500   25.9130 O   0  0  0  0  0  0  0  0  0  0  0  0
   14.8800   78.5590   24.4240 C   0  0  0  0  0  0  0  0  0  0  0  0
   14.2800   79.7430   25.2790 C   0  0  0  0  0  0  0  0  0  0  0  0
   12.8470   80.0570   24.9160 N   0  3  0  0  0  0  0  0  0  0  0  0
   14.0900   76.0402   26.3888 H   0  0  0  0  0  0  0  0  0  0  0  0
   14.1732   78.3262   23.6140 H   0  0  0  0  0  0  0  0  0  0  0  0
   15.8345   78.8947   23.9926 H   0  0  0  0  0  0  0  0  0  0  0  0
   14.8905   80.6425   25.1116 H   0  0  0  0  0  0  0  0  0  0  0  0
   14.3207   79.4649   26.3425 H   0  0  0  0  0  0  0  0  0  0  0  0
   12.5141   80.8167   25.4887 H   0  0  0  0  0  0  0  0  0  0  0  0
   12.2744   79.2423   25.0726 H   0  0  0  0  0  0  0  0  0  0  0  0
   12.7966   80.3215   23.9446 H   0  0  0  0  0  0  0  0  0  0  0  0
  1  2  1  0  0  0  0
  1  3  1  0  0  0  0
  1  4  2  0  0  0  0
  1  5  1  0  0  0  0
  5  6  1  0  0  0  0
  5 10  1  0  0  0  0
  5 11  1  0  0  0  0
  6  7  1  0  0  0  0
  6  8  1  0  0  0  0
  6  9  2  0  0  0  0
 10 14  1  0  0  0  0
 11 12  1  0  0  0  0
 11 15  1  0  0  0  0
 11 16  1  0  0  0  0
 12 13  1  0  0  0  0
 12 17  1  0  0  0  0
 12 18  1  0  0  0  0
 13 19  1  0  0  0  0
 13 20  1  0  0  0  0
 13 21  1  0  0  0  0
M  CHG  1  13   1
M  END
