2f9v_ligand
 OpenBabel08222323343D

101104  0  0  1  0  0  0  0  0999 V2000
  191.1850  -10.7460   48.6260 C   0  0  0  0  0  0  0  0  0  0  0  0
  191.8470  -11.6030   49.2300 O   0  0  0  0  0  0  0  0  0  0  0  0
  189.7790  -10.7020   48.5180 O   0  0  0  0  0  0  0  0  0  0  0  0
  188.8650  -11.4700   49.3690 C   0  0  0  0  0  0  0  0  0  0  0  0
  188.1080  -10.7420   50.4920 C   0  0  0  0  0  0  0  0  0  0  0  0
  187.6970   -9.3360   50.1170 C   0  0  0  0  0  0  0  0  0  0  0  0
  188.8670  -10.7660   51.8050 C   0  0  0  0  0  0  0  0  0  0  0  0
  191.7560   -9.7500   47.9440 N   0  0  0  0  0  0  0  0  0  0  0  0
  193.2010   -9.5480   47.9140 C   0  0  1  0  0  0  0  0  0  0  0  0
  193.5820   -8.6330   46.7290 C   0  0  0  0  0  0  0  0  0  0  0  0
  195.0740   -8.2760   46.7530 C   0  0  0  0  0  0  0  0  0  0  0  0
  193.2910   -9.3330   45.3950 C   0  0  0  0  0  0  0  0  0  0  0  0
  195.5050   -7.4270   45.5500 C   0  0  0  0  0  0  0  0  0  0  0  0
  193.6930   -8.5140   44.1670 C   0  0  0  0  0  0  0  0  0  0  0  0
  195.1690   -8.1340   44.2290 C   0  0  0  0  0  0  0  0  0  0  0  0
  193.5440   -8.8590   49.2310 C   0  0  0  0  0  0  0  0  0  0  0  0
  193.0750   -7.7410   49.4750 O   0  0  0  0  0  0  0  0  0  0  0  0
  194.3110   -9.5390   50.0860 N   0  0  0  0  0  0  0  0  0  0  0  0
  195.6560   -7.8540   50.9680 C   0  0  0  0  0  0  0  0  0  0  0  0
  196.5970   -8.0290   50.1850 O   0  0  0  0  0  0  0  0  0  0  0  0
  194.6860   -9.4710   52.5600 C   0  0  0  0  0  0  0  0  0  0  0  0
  194.0250  -10.8450   52.4970 C   0  0  0  0  0  0  0  0  0  0  0  0
  192.6290  -10.9680   53.0930 C   0  0  0  0  0  0  0  0  0  0  0  0
  193.8340  -11.6080   53.8140 C   0  0  0  0  0  0  0  0  0  0  0  0
  195.4590   -6.7080   51.6160 N   0  0  0  0  0  0  0  0  0  0  0  0
  196.0800   -5.4670   51.1630 C   0  0  1  0  0  0  0  0  0  0  0  0
  195.0320   -4.5310   50.5370 C   0  0  0  0  0  0  0  0  0  0  0  0
  195.0980   -4.7140   49.0250 C   0  0  0  0  0  0  0  0  0  0  0  0
  194.4740   -3.6740   48.0970 C   0  0  0  0  0  0  0  0  0  0  0  0
  193.7640   -5.0150   48.3360 C   0  0  0  0  0  0  0  0  0  0  0  0
  197.5990   -5.7530   53.0680 O   0  0  0  0  0  0  0  0  0  0  0  0
  196.8430   -4.7410   52.3070 C   0  0  1  0  0  0  0  0  0  0  0  0
  197.6760   -2.8170   51.0880 O   0  0  0  0  0  0  0  0  0  0  0  0
  200.7800   -3.8450   49.8770 C   0  0  0  0  0  0  0  0  0  0  0  0
  202.0880   -3.6700   49.7050 N   0  0  0  0  0  0  0  0  0  0  0  0
  202.7290   -3.6380   48.3970 C   0  0  1  0  0  0  0  0  0  0  0  0
  202.4820   -2.3110   47.6110 C   0  0  0  0  0  0  0  0  0  0  0  0
  202.5640   -1.0190   48.2290 C   0  0  0  0  0  0  0  0  0  0  0  0
  202.1880   -2.3600   46.2420 C   0  0  0  0  0  0  0  0  0  0  0  0
  202.3760    0.1720   47.5100 C   0  0  0  0  0  0  0  0  0  0  0  0
  201.9960   -1.1620   45.5150 C   0  0  0  0  0  0  0  0  0  0  0  0
  202.0860    0.0900   46.1490 C   0  0  0  0  0  0  0  0  0  0  0  0
  204.2280   -3.8730   48.6180 C   0  0  0  0  0  0  0  0  0  0  0  0
  204.7710   -3.4810   49.6640 O   0  5  0  0  0  0  0  0  0  0  0  0
  204.8900   -4.4520   47.7580 O   0  0  0  0  0  0  0  0  0  0  0  0
  194.7740   -8.8290   51.2420 N   0  0  0  0  0  0  0  0  0  0  0  0
  199.0790   -4.5290   51.4640 N   0  0  0  0  0  0  0  0  0  0  0  0
  200.3400   -3.8280   51.3220 C   0  0  0  0  0  0  0  0  0  0  0  0
  199.9770   -4.0030   48.9440 O   0  0  0  0  0  0  0  0  0  0  0  0
  197.9010   -3.9220   51.5600 C   0  0  0  0  0  0  0  0  0  0  0  0
  189.4574  -12.2667   49.8427 H   0  0  0  0  0  0  0  0  0  0  0  0
  188.1088  -11.9189   48.7082 H   0  0  0  0  0  0  0  0  0  0  0  0
  187.1780  -11.3064   50.6547 H   0  0  0  0  0  0  0  0  0  0  0  0
  187.1625   -8.8732   50.9597 H   0  0  0  0  0  0  0  0  0  0  0  0
  187.0367   -9.3691   49.2379 H   0  0  0  0  0  0  0  0  0  0  0  0
  188.5927   -8.7428   49.8807 H   0  0  0  0  0  0  0  0  0  0  0  0
  189.1496  -11.8013   52.0463 H   0  0  0  0  0  0  0  0  0  0  0  0
  188.2281  -10.3644   52.6053 H   0  0  0  0  0  0  0  0  0  0  0  0
  189.7738  -10.1498   51.7157 H   0  0  0  0  0  0  0  0  0  0  0  0
  191.1713   -9.1187   47.4345 H   0  0  0  0  0  0  0  0  0  0  0  0
  193.7273  -10.5101   47.8282 H   0  0  0  0  0  0  0  0  0  0  0  0
  192.9884   -7.7092   46.7933 H   0  0  0  0  0  0  0  0  0  0  0  0
  195.6579   -9.2082   46.7516 H   0  0  0  0  0  0  0  0  0  0  0  0
  195.2851   -7.7124   47.6737 H   0  0  0  0  0  0  0  0  0  0  0  0
  192.2114   -9.5359   45.3381 H   0  0  0  0  0  0  0  0  0  0  0  0
  193.8444  -10.2834   45.3742 H   0  0  0  0  0  0  0  0  0  0  0  0
  196.5905   -7.2562   45.6006 H   0  0  0  0  0  0  0  0  0  0  0  0
  194.9798   -6.4611   45.5847 H   0  0  0  0  0  0  0  0  0  0  0  0
  193.0859   -7.5975   44.1302 H   0  0  0  0  0  0  0  0  0  0  0  0
  193.5119   -9.1104   43.2606 H   0  0  0  0  0  0  0  0  0  0  0  0
  195.7782   -9.0461   44.1450 H   0  0  0  0  0  0  0  0  0  0  0  0
  195.4013   -7.4595   43.3917 H   0  0  0  0  0  0  0  0  0  0  0  0
  194.5509  -10.4968   49.9278 H   0  0  0  0  0  0  0  0  0  0  0  0
  195.7023   -9.5865   52.9648 H   0  0  0  0  0  0  0  0  0  0  0  0
  194.0963   -8.8260   53.2280 H   0  0  0  0  0  0  0  0  0  0  0  0
  194.2991  -11.3723   51.5713 H   0  0  0  0  0  0  0  0  0  0  0  0
  191.8773  -11.6064   52.6057 H   0  0  0  0  0  0  0  0  0  0  0  0
  192.1356  -10.0847   53.5247 H   0  0  0  0  0  0  0  0  0  0  0  0
  194.2029  -11.1805   54.7580 H   0  0  0  0  0  0  0  0  0  0  0  0
  193.9446  -12.7021   53.8390 H   0  0  0  0  0  0  0  0  0  0  0  0
  194.8751   -6.6970   52.4277 H   0  0  0  0  0  0  0  0  0  0  0  0
  196.8126   -5.7257   50.3843 H   0  0  0  0  0  0  0  0  0  0  0  0
  195.2572   -3.4867   50.7989 H   0  0  0  0  0  0  0  0  0  0  0  0
  194.0284   -4.7927   50.9033 H   0  0  0  0  0  0  0  0  0  0  0  0
  196.0266   -5.2279   48.7358 H   0  0  0  0  0  0  0  0  0  0  0  0
  194.9340   -3.4615   47.1206 H   0  0  0  0  0  0  0  0  0  0  0  0
  194.0533   -2.7470   48.5136 H   0  0  0  0  0  0  0  0  0  0  0  0
  192.8354   -5.0493   48.9247 H   0  0  0  0  0  0  0  0  0  0  0  0
  193.7161   -5.7639   47.5317 H   0  0  0  0  0  0  0  0  0  0  0  0
  196.9957   -6.3914   53.4300 H   0  0  0  0  0  0  0  0  0  0  0  0
  196.1853   -4.1339   52.9464 H   0  0  0  0  0  0  0  0  0  0  0  0
  202.6611   -3.5544   50.5163 H   0  0  0  0  0  0  0  0  0  0  0  0
  202.3244   -4.4634   47.7929 H   0  0  0  0  0  0  0  0  0  0  0  0
  202.7790   -0.9602   49.2898 H   0  0  0  0  0  0  0  0  0  0  0  0
  202.1076   -3.3171   45.7394 H   0  0  0  0  0  0  0  0  0  0  0  0
  202.4546    1.1345   48.0025 H   0  0  0  0  0  0  0  0  0  0  0  0
  201.7765   -1.2096   44.4545 H   0  0  0  0  0  0  0  0  0  0  0  0
  201.9289    0.9967   45.5760 H   0  0  0  0  0  0  0  0  0  0  0  0
  199.0968   -5.5285   51.4913 H   0  0  0  0  0  0  0  0  0  0  0  0
  200.2171   -2.7863   51.6533 H   0  0  0  0  0  0  0  0  0  0  0  0
  201.1032   -4.3221   51.9412 H   0  0  0  0  0  0  0  0  0  0  0  0
  1  2  2  0  0  0  0
  1  3  1  0  0  0  0
  3  4  1  0  0  0  0
  4  5  1  0  0  0  0
  4 51  1  0  0  0  0
  4 52  1  0  0  0  0
  5  6  1  0  0  0  0
  5  7  1  0  0  0  0
  5 53  1  0  0  0  0
  6 54  1  0  0  0  0
  6 55  1  0  0  0  0
  6 56  1  0  0  0  0
  7 57  1  0  0  0  0
  7 58  1  0  0  0  0
  7 59  1  0  0  0  0
  8  1  1  0  0  0  0
  8 60  1  0  0  0  0
  9  8  1  0  0  0  0
  9 10  1  0  0  0  0
  9 61  1  6  0  0  0
 10 11  1  0  0  0  0
 10 12  1  0  0  0  0
 10 62  1  0  0  0  0
 11 13  1  0  0  0  0
 11 63  1  0  0  0  0
 11 64  1  0  0  0  0
 12 14  1  0  0  0  0
 12 65  1  0  0  0  0
 12 66  1  0  0  0  0
 13 15  1  0  0  0  0
 13 67  1  0  0  0  0
 13 68  1  0  0  0  0
 14 15  1  0  0  0  0
 14 69  1  0  0  0  0
 14 70  1  0  0  0  0
 15 71  1  0  0  0  0
 15 72  1  0  0  0  0
 16  9  1  0  0  0  0
 16 17  2  0  0  0  0
 18 16  1  0  0  0  0
 18 73  1  0  0  0  0
 19 20  2  0  0  0  0
 19 46  1  0  0  0  0
 21 22  1  0  0  0  0
 21 74  1  0  0  0  0
 21 75  1  0  0  0  0
 22 23  1  0  0  0  0
 22 24  1  0  0  0  0
 22 76  1  0  0  0  0
 23 77  1  0  0  0  0
 23 78  1  0  0  0  0
 24 23  1  0  0  0  0
 24 79  1  0  0  0  0
 24 80  1  0  0  0  0
 25 19  1  0  0  0  0
 25 81  1  0  0  0  0
 26 25  1  0  0  0  0
 26 27  1  0  0  0  0
 26 82  1  6  0  0  0
 27 28  1  0  0  0  0
 27 83  1  0  0  0  0
 27 84  1  0  0  0  0
 28 29  1  0  0  0  0
 28 30  1  0  0  0  0
 28 85  1  0  0  0  0
 29 86  1  0  0  0  0
 29 87  1  0  0  0  0
 30 29  1  0  0  0  0
 30 88  1  0  0  0  0
 30 89  1  0  0  0  0
 31 90  1  0  0  0  0
 32 26  1  0  0  0  0
 32 31  1  0  0  0  0
 32 91  1  1  0  0  0
 34 35  1  0  0  0  0
 34 49  2  0  0  0  0
 35 36  1  0  0  0  0
 35 92  1  0  0  0  0
 36 37  1  0  0  0  0
 36 43  1  0  0  0  0
 36 93  1  6  0  0  0
 37 38  2  0  0  0  0
 37 39  1  0  0  0  0
 38 40  1  0  0  0  0
 38 94  1  0  0  0  0
 39 41  2  0  0  0  0
 39 95  1  0  0  0  0
 40 42  2  0  0  0  0
 40 96  1  0  0  0  0
 41 42  1  0  0  0  0
 41 97  1  0  0  0  0
 42 98  1  0  0  0  0
 43 44  1  0  0  0  0
 43 45  2  0  0  0  0
 46 18  1  0  0  0  0
 46 21  1  0  0  0  0
 47 48  1  0  0  0  0
 47 50  1  0  0  0  0
 47 99  1  0  0  0  0
 48 34  1  0  0  0  0
 48100  1  0  0  0  0
 48101  1  0  0  0  0
 50 32  1  0  0  0  0
 50 33  2  0  0  0  0
M  CHG  1  44  -1
M  END
