2fah_ligand
 OpenBabel08222323343D

  9  8  0  0  0  0  0  0  0  0999 V2000
   20.6440   47.5890    2.4790 C   0  0  0  0  0  0  0  0  0  0  0  0
   21.1060   48.0250    1.4000 O   0  5  0  0  0  0  0  0  0  0  0  0
   19.4400   47.3110    2.6570 O   0  0  0  0  0  0  0  0  0  0  0  0
   21.5890   47.3790    3.6350 C   0  0  0  0  0  0  0  0  0  0  0  0
   22.6750   46.4360    3.1960 C   0  0  0  0  0  0  0  0  0  0  0  0
   22.3550   45.2520    2.9600 O   0  5  0  0  0  0  0  0  0  0  0  0
   23.8420   46.8740    3.0830 O   0  0  0  0  0  0  0  0  0  0  0  0
   21.0436   46.9465    4.4867 H   0  0  0  0  0  0  0  0  0  0  0  0
   22.0309   48.3413    3.9330 H   0  0  0  0  0  0  0  0  0  0  0  0
  1  2  1  0  0  0  0
  1  3  2  0  0  0  0
  1  4  1  0  0  0  0
  4  5  1  0  0  0  0
  4  8  1  0  0  0  0
  4  9  1  0  0  0  0
  5  6  1  0  0  0  0
  5  7  2  0  0  0  0
M  CHG  2   2  -1   6  -1
M  END
