2ff2_ligand
 OpenBabel08222323343D

 34 36  0  0  1  0  0  0  0  0999 V2000
  -25.0190   12.9380  -18.9240 O   0  0  0  0  0  0  0  0  0  0  0  0
  -24.4450   11.6690  -19.2490 C   0  0  0  0  0  0  0  0  0  0  0  0
  -25.0790   10.3750  -18.6170 C   0  0  1  0  0  0  0  0  0  0  0  0
  -26.5540   10.4700  -18.8030 N   0  3  0  0  0  0  0  0  0  0  0  0
  -24.7200    9.0300  -19.2680 C   0  0  1  0  0  0  0  0  0  0  0  0
  -24.6900    7.9410  -18.3080 O   0  0  0  0  0  0  0  0  0  0  0  0
  -25.8140    8.7690  -20.3650 C   0  0  1  0  0  0  0  0  0  0  0  0
  -26.1950    7.3870  -20.5030 O   0  0  0  0  0  0  0  0  0  0  0  0
  -27.0180    9.7120  -19.9860 C   0  0  2  0  0  0  0  0  0  0  0  0
  -27.4440   10.7740  -21.1670 C   0  0  0  0  0  0  0  0  0  0  0  0
  -27.1760   12.0990  -21.1720 C   0  0  0  0  0  0  0  0  0  0  0  0
  -27.6750   12.7070  -22.3560 N   0  0  0  0  0  0  0  0  0  0  0  0
  -28.2550   11.6480  -23.0450 C   0  0  0  0  0  0  0  0  0  0  0  0
  -28.9100   11.7400  -24.3510 C   0  0  0  0  0  0  0  0  0  0  0  0
  -29.0420   12.7410  -25.0220 O   0  0  0  0  0  0  0  0  0  0  0  0
  -29.3960   10.4590  -24.7550 N   0  0  0  0  0  0  0  0  0  0  0  0
  -29.2710    9.2400  -24.0110 C   0  0  0  0  0  0  0  0  0  0  0  0
  -28.6430    9.2580  -22.8240 N   0  0  0  0  0  0  0  0  0  0  0  0
  -28.1550   10.4730  -22.3800 C   0  0  0  0  0  0  0  0  0  0  0  0
  -24.9689   13.0759  -17.9854 H   0  0  0  0  0  0  0  0  0  0  0  0
  -23.3907   11.6998  -18.9369 H   0  0  0  0  0  0  0  0  0  0  0  0
  -24.5008   11.5575  -20.3419 H   0  0  0  0  0  0  0  0  0  0  0  0
  -24.8134   10.3421  -17.5501 H   0  0  0  0  0  0  0  0  0  0  0  0
  -26.8048   11.4393  -18.9197 H   0  0  0  0  0  0  0  0  0  0  0  0
  -27.0091   10.1016  -17.9825 H   0  0  0  0  0  0  0  0  0  0  0  0
  -23.7299    9.1061  -19.7411 H   0  0  0  0  0  0  0  0  0  0  0  0
  -24.4647    7.1332  -18.7542 H   0  0  0  0  0  0  0  0  0  0  0  0
  -25.4123    9.0876  -21.3382 H   0  0  0  0  0  0  0  0  0  0  0  0
  -25.4330    6.8718  -20.7408 H   0  0  0  0  0  0  0  0  0  0  0  0
  -27.8954    9.0994  -19.7311 H   0  0  0  0  0  0  0  0  0  0  0  0
  -26.6503   12.6277  -20.3783 H   0  0  0  0  0  0  0  0  0  0  0  0
  -27.6200   13.6965  -22.6366 H   0  0  0  0  0  0  0  0  0  0  0  0
  -29.8658   10.4079  -25.6363 H   0  0  0  0  0  0  0  0  0  0  0  0
  -29.6804    8.3104  -24.4037 H   0  0  0  0  0  0  0  0  0  0  0  0
  1  2  1  0  0  0  0
  1 20  1  0  0  0  0
  2  3  1  0  0  0  0
  2 21  1  0  0  0  0
  2 22  1  0  0  0  0
  3  4  1  0  0  0  0
  3  5  1  0  0  0  0
  3 23  1  1  0  0  0
  4  9  1  0  0  0  0
  4 24  1  0  0  0  0
  4 25  1  0  0  0  0
  5  6  1  0  0  0  0
  5  7  1  0  0  0  0
  5 26  1  6  0  0  0
  6 27  1  0  0  0  0
  7  8  1  0  0  0  0
  7  9  1  0  0  0  0
  7 28  1  6  0  0  0
  8 29  1  0  0  0  0
  9 10  1  0  0  0  0
  9 30  1  1  0  0  0
 10 11  2  0  0  0  0
 10 19  1  0  0  0  0
 11 12  1  0  0  0  0
 11 31  1  0  0  0  0
 12 13  1  0  0  0  0
 12 32  1  0  0  0  0
 13 14  1  0  0  0  0
 13 19  2  0  0  0  0
 14 15  2  0  0  0  0
 14 16  1  0  0  0  0
 16 17  1  0  0  0  0
 16 33  1  0  0  0  0
 17 18  2  0  0  0  0
 17 34  1  0  0  0  0
 18 19  1  0  0  0  0
M  CHG  1   4   1
M  END
