2fix_ligand
 OpenBabel08222323343D

 45 48  0  0  0  0  0  0  0  0999 V2000
   49.4390   -7.4190   22.7650 C   0  0  0  0  0  0  0  0  0  0  0  0
   48.0420   -7.1840   22.8550 C   0  0  0  0  0  0  0  0  0  0  0  0
   47.5550   -5.8640   22.9660 C   0  0  0  0  0  0  0  0  0  0  0  0
   48.4120   -4.7910   22.9920 C   0  0  0  0  0  0  0  0  0  0  0  0
   49.8130   -4.9770   22.9110 C   0  0  0  0  0  0  0  0  0  0  0  0
   50.3380   -6.3120   22.7940 C   0  0  0  0  0  0  0  0  0  0  0  0
   50.8060   -3.5230   22.9680 S   0  0  0  0  0  0  0  0  0  0  0  0
   49.9390   -2.3670   23.0470 O   0  0  0  0  0  0  0  0  0  0  0  0
   51.7180   -3.5610   21.8490 O   0  0  0  0  0  0  0  0  0  0  0  0
   51.7010   -3.5390   24.3350 N   0  0  0  0  0  0  0  0  0  0  0  0
   51.1820   -3.1360   25.6750 C   0  0  0  0  0  0  0  0  0  0  0  0
   49.8940   -2.7300   25.9710 N   0  0  0  0  0  0  0  0  0  0  0  0
   49.9070   -2.4390   27.2980 C   0  0  0  0  0  0  0  0  0  0  0  0
   48.8500   -1.9780   28.0470 C   0  0  0  0  0  0  0  0  0  0  0  0
   49.0250   -1.7080   29.3950 C   0  0  0  0  0  0  0  0  0  0  0  0
   50.3060   -1.9100   29.9990 C   0  0  0  0  0  0  0  0  0  0  0  0
   51.4080   -2.3850   29.2420 C   0  0  0  0  0  0  0  0  0  0  0  0
   51.1850   -2.6730   27.7860 C   0  0  0  0  0  0  0  0  0  0  0  0
   51.9820   -3.1070   26.7990 O   0  0  0  0  0  0  0  0  0  0  0  0
   45.8710   -5.5850   23.0720 Cl  0  0  0  0  0  0  0  0  0  0  0  0
   52.0490   -6.6450   22.6780 Cl  0  0  0  0  0  0  0  0  0  0  0  0
   47.8850   -1.2230   30.0570 O   0  0  0  0  0  0  0  0  0  0  0  0
   48.0420   -0.7980   31.3970 C   0  0  0  0  0  0  0  0  0  0  0  0
   55.1920   -3.2130   29.8120 C   0  0  0  0  0  0  0  0  0  0  0  0
   55.3750   -2.8770   31.1680 C   0  0  0  0  0  0  0  0  0  0  0  0
   54.2940   -2.3830   31.9210 C   0  0  0  0  0  0  0  0  0  0  0  0
   53.0110   -2.2290   31.3160 C   0  0  0  0  0  0  0  0  0  0  0  0
   52.7990   -2.5630   29.9350 C   0  0  0  0  0  0  0  0  0  0  0  0
   53.9230   -3.0510   29.2150 C   0  0  0  0  0  0  0  0  0  0  0  0
   54.4710   -2.0590   33.2240 N   0  0  0  0  0  0  0  0  0  0  0  0
   49.8190   -8.4302   22.6751 H   0  0  0  0  0  0  0  0  0  0  0  0
   47.3496   -8.0179   22.8385 H   0  0  0  0  0  0  0  0  0  0  0  0
   48.0100   -3.7878   23.0757 H   0  0  0  0  0  0  0  0  0  0  0  0
   52.6535   -3.8366   24.2698 H   0  0  0  0  0  0  0  0  0  0  0  0
   47.8817   -1.8261   27.5840 H   0  0  0  0  0  0  0  0  0  0  0  0
   50.4370   -1.6964   31.0536 H   0  0  0  0  0  0  0  0  0  0  0  0
   47.0750   -0.4460   31.7857 H   0  0  0  0  0  0  0  0  0  0  0  0
   48.7741    0.0219   31.4383 H   0  0  0  0  0  0  0  0  0  0  0  0
   48.3988   -1.6394   32.0091 H   0  0  0  0  0  0  0  0  0  0  0  0
   56.0226   -3.5945   29.2292 H   0  0  0  0  0  0  0  0  0  0  0  0
   56.3477   -2.9990   31.6307 H   0  0  0  0  0  0  0  0  0  0  0  0
   52.1835   -1.8542   31.9075 H   0  0  0  0  0  0  0  0  0  0  0  0
   53.8014   -3.3083   28.1690 H   0  0  0  0  0  0  0  0  0  0  0  0
   55.3970   -2.1700   33.6611 H   0  0  0  0  0  0  0  0  0  0  0  0
   53.6796   -1.7016   33.7779 H   0  0  0  0  0  0  0  0  0  0  0  0
  1  2  2  0  0  0  0
  1 31  1  0  0  0  0
  2 32  1  0  0  0  0
  3  2  1  0  0  0  0
  3 20  1  0  0  0  0
  4  3  2  0  0  0  0
  4 33  1  0  0  0  0
  5  4  1  0  0  0  0
  5  6  2  0  0  0  0
  6  1  1  0  0  0  0
  6 21  1  0  0  0  0
  7  5  1  0  0  0  0
  7  8  2  0  0  0  0
  7  9  2  0  0  0  0
 10  7  1  0  0  0  0
 10 34  1  0  0  0  0
 11 10  1  0  0  0  0
 11 12  2  0  0  0  0
 13 12  1  0  0  0  0
 13 14  2  0  0  0  0
 14 35  1  0  0  0  0
 15 14  1  0  0  0  0
 15 22  1  0  0  0  0
 16 15  2  0  0  0  0
 16 36  1  0  0  0  0
 17 16  1  0  0  0  0
 17 18  2  0  0  0  0
 18 13  1  0  0  0  0
 18 19  1  0  0  0  0
 19 11  1  0  0  0  0
 22 23  1  0  0  0  0
 23 37  1  0  0  0  0
 23 38  1  0  0  0  0
 23 39  1  0  0  0  0
 24 29  1  0  0  0  0
 24 40  1  0  0  0  0
 25 24  2  0  0  0  0
 25 41  1  0  0  0  0
 26 25  1  0  0  0  0
 26 30  1  0  0  0  0
 27 26  2  0  0  0  0
 27 28  1  0  0  0  0
 27 42  1  0  0  0  0
 28 17  1  0  0  0  0
 28 29  2  0  0  0  0
 29 43  1  0  0  0  0
 30 44  1  0  0  0  0
 30 45  1  0  0  0  0
M  END
