2fjp_ligand
 OpenBabel08222323343D

 57 60  0  0  1  0  0  0  0  0999 V2000
   47.5750   52.1530   33.8220 C   0  0  0  0  0  0  0  0  0  0  0  0
   46.4920   52.6560   32.9590 C   0  0  0  0  0  0  0  0  0  0  0  0
   45.1990   52.4720   33.3700 C   0  0  0  0  0  0  0  0  0  0  0  0
   44.8740   51.8040   34.6720 C   0  0  0  0  0  0  0  0  0  0  0  0
   45.8940   51.3480   35.4530 C   0  0  0  0  0  0  0  0  0  0  0  0
   47.2840   51.5540   35.0120 N   0  0  0  0  0  0  0  0  0  0  0  0
   48.3290   51.2050   35.5900 N   0  0  0  0  0  0  0  0  0  0  0  0
   49.3290   51.6060   34.7910 C   0  0  0  0  0  0  0  0  0  0  0  0
   48.9020   52.2150   33.6670 N   0  0  0  0  0  0  0  0  0  0  0  0
   43.4820   51.6330   35.1370 C   0  0  0  0  0  0  0  0  0  0  0  0
   42.5980   52.7380   35.0280 C   0  0  0  0  0  0  0  0  0  0  0  0
   41.2820   52.6580   35.4820 C   0  0  0  0  0  0  0  0  0  0  0  0
   40.7780   51.4710   36.0630 C   0  0  0  0  0  0  0  0  0  0  0  0
   41.6620   50.3360   36.1660 C   0  0  0  0  0  0  0  0  0  0  0  0
   43.0040   50.4110   35.7080 C   0  0  0  0  0  0  0  0  0  0  0  0
   39.3180   51.4860   36.5720 C   0  0  1  0  0  0  0  0  0  0  0  0
   38.3460   50.9900   35.4420 C   0  0  1  0  0  0  0  0  0  0  0  0
   36.8970   51.0300   36.0240 C   0  0  0  0  0  0  0  0  0  0  0  0
   36.1220   49.9680   35.7960 N   0  0  0  0  0  0  0  0  0  0  0  0
   39.2940   50.4530   37.7980 C   0  0  0  0  0  0  0  0  0  0  0  0
   38.4220   51.8230   34.2480 N   0  3  0  0  0  0  0  0  0  0  0  0
   36.5100   51.9960   36.6630 O   0  0  0  0  0  0  0  0  0  0  0  0
   38.6650   49.3860   37.8000 O   0  0  0  0  0  0  0  0  0  0  0  0
   39.9030   50.9550   38.9830 N   0  0  0  0  0  0  0  0  0  0  0  0
   39.8980   50.0390   40.1500 C   0  0  0  0  0  0  0  0  0  0  0  0
   40.5090   52.2830   39.1860 C   0  0  0  0  0  0  0  0  0  0  0  0
   36.5690   48.5480   35.4690 C   0  0  0  0  0  0  0  0  0  0  0  0
   35.3620   47.6860   35.5160 C   0  0  2  0  0  0  0  0  0  0  0  0
   34.1870   48.6370   35.5250 C   0  0  0  0  0  0  0  0  0  0  0  0
   34.6860   50.0130   35.9680 C   0  0  0  0  0  0  0  0  0  0  0  0
   35.3670   47.0210   36.7240 F   0  0  0  0  0  0  0  0  0  0  0  0
   46.7139   53.1604   32.0197 H   0  0  0  0  0  0  0  0  0  0  0  0
   44.3858   52.8199   32.7347 H   0  0  0  0  0  0  0  0  0  0  0  0
   45.6836   50.8376   36.3917 H   0  0  0  0  0  0  0  0  0  0  0  0
   50.3813   51.4546   35.0270 H   0  0  0  0  0  0  0  0  0  0  0  0
   42.9524   53.6611   34.5837 H   0  0  0  0  0  0  0  0  0  0  0  0
   40.6333   53.5214   35.3879 H   0  0  0  0  0  0  0  0  0  0  0  0
   41.2965   49.4121   36.5994 H   0  0  0  0  0  0  0  0  0  0  0  0
   43.6595   49.5516   35.7900 H   0  0  0  0  0  0  0  0  0  0  0  0
   39.0276   52.4946   36.9011 H   0  0  0  0  0  0  0  0  0  0  0  0
   38.6066   49.9569   35.1685 H   0  0  0  0  0  0  0  0  0  0  0  0
   37.7846   51.4704   33.5512 H   0  0  0  0  0  0  0  0  0  0  0  0
   39.3618   51.8037   33.8841 H   0  0  0  0  0  0  0  0  0  0  0  0
   38.1720   52.7708   34.4830 H   0  0  0  0  0  0  0  0  0  0  0  0
   40.3913   50.5287   41.0026 H   0  0  0  0  0  0  0  0  0  0  0  0
   40.4390   49.1161   39.8941 H   0  0  0  0  0  0  0  0  0  0  0  0
   38.8601   49.7931   40.4187 H   0  0  0  0  0  0  0  0  0  0  0  0
   40.4491   52.8601   38.2514 H   0  0  0  0  0  0  0  0  0  0  0  0
   41.5632   52.1644   39.4768 H   0  0  0  0  0  0  0  0  0  0  0  0
   39.9669   52.8158   39.9812 H   0  0  0  0  0  0  0  0  0  0  0  0
   37.3061   48.2049   36.2099 H   0  0  0  0  0  0  0  0  0  0  0  0
   37.0163   48.5156   34.4646 H   0  0  0  0  0  0  0  0  0  0  0  0
   35.3213   46.9862   34.6683 H   0  0  0  0  0  0  0  0  0  0  0  0
   33.4212   48.2754   36.2270 H   0  0  0  0  0  0  0  0  0  0  0  0
   33.7559   48.7051   34.5153 H   0  0  0  0  0  0  0  0  0  0  0  0
   34.2468   50.8030   35.3411 H   0  0  0  0  0  0  0  0  0  0  0  0
   34.4290   50.1958   37.0218 H   0  0  0  0  0  0  0  0  0  0  0  0
  1  2  1  0  0  0  0
  1  6  1  0  0  0  0
  1  9  2  0  0  0  0
  2  3  2  0  0  0  0
  2 32  1  0  0  0  0
  3  4  1  0  0  0  0
  3 33  1  0  0  0  0
  4  5  2  0  0  0  0
  4 10  1  0  0  0  0
  5  6  1  0  0  0  0
  5 34  1  0  0  0  0
  6  7  1  0  0  0  0
  7  8  2  0  0  0  0
  8  9  1  0  0  0  0
  8 35  1  0  0  0  0
 10 11  2  0  0  0  0
 10 15  1  0  0  0  0
 11 12  1  0  0  0  0
 11 36  1  0  0  0  0
 12 13  2  0  0  0  0
 12 37  1  0  0  0  0
 13 14  1  0  0  0  0
 13 16  1  0  0  0  0
 14 15  2  0  0  0  0
 14 38  1  0  0  0  0
 15 39  1  0  0  0  0
 16 17  1  0  0  0  0
 16 20  1  0  0  0  0
 16 40  1  1  0  0  0
 17 18  1  0  0  0  0
 17 21  1  0  0  0  0
 17 41  1  6  0  0  0
 18 19  1  0  0  0  0
 18 22  2  0  0  0  0
 19 27  1  0  0  0  0
 19 30  1  0  0  0  0
 20 23  2  0  0  0  0
 20 24  1  0  0  0  0
 21 42  1  0  0  0  0
 21 43  1  0  0  0  0
 21 44  1  0  0  0  0
 24 25  1  0  0  0  0
 24 26  1  0  0  0  0
 25 45  1  0  0  0  0
 25 46  1  0  0  0  0
 25 47  1  0  0  0  0
 26 48  1  0  0  0  0
 26 49  1  0  0  0  0
 26 50  1  0  0  0  0
 27 28  1  0  0  0  0
 27 51  1  0  0  0  0
 27 52  1  0  0  0  0
 28 29  1  0  0  0  0
 28 31  1  0  0  0  0
 28 53  1  6  0  0  0
 29 30  1  0  0  0  0
 29 54  1  0  0  0  0
 29 55  1  0  0  0  0
 30 56  1  0  0  0  0
 30 57  1  0  0  0  0
M  CHG  1  21   1
M  END
