2fkf_ligand
 OpenBabel08222323343D

 30 30  0  0  1  0  0  0  0  0999 V2000
   48.7330   48.6270   18.9360 C   0  0  1  0  0  0  0  0  0  0  0  0
   49.1270   49.9380   18.2450 C   0  0  1  0  0  0  0  0  0  0  0  0
   48.9570   49.7970   16.7420 C   0  0  2  0  0  0  0  0  0  0  0  0
   49.8310   48.6480   16.2770 C   0  0  1  0  0  0  0  0  0  0  0  0
   49.4770   47.3660   17.0380 C   0  0  1  0  0  0  0  0  0  0  0  0
   50.3780   46.1950   16.6590 C   0  0  0  0  0  0  0  0  0  0  0  0
   47.3650   48.3050   18.7040 O   0  0  0  0  0  0  0  0  0  0  0  0
   48.3570   51.0310   18.7140 O   0  0  0  0  0  0  0  0  0  0  0  0
   49.3100   50.9960   16.0660 O   0  0  0  0  0  0  0  0  0  0  0  0
   49.6150   48.4810   14.8920 O   0  0  0  0  0  0  0  0  0  0  0  0
   49.5630   47.5790   18.4450 O   0  0  0  0  0  0  0  0  0  0  0  0
   51.7140   46.4670   17.0590 O   0  0  0  0  0  0  0  0  0  0  0  0
   52.7840   45.5820   16.4620 P   0  0  0  0  0  0  0  0  0  0  0  0
   52.7790   45.7340   14.9730 O   0  0  0  0  0  1  0  0  0  0  0  0
   52.5560   44.1480   16.8430 O   0  0  0  0  0  1  0  0  0  0  0  0
   54.1510   46.0020   16.9460 O   0  0  0  0  0  0  0  0  0  0  0  0
   46.7000   47.1090   19.3520 P   0  0  0  0  0  0  0  0  0  0  0  0
   47.1250   47.0230   20.7930 O   0  0  0  0  0  1  0  0  0  0  0  0
   47.0480   45.8100   18.6770 O   0  0  0  0  0  1  0  0  0  0  0  0
   45.2110   47.3280   19.2680 O   0  0  0  0  0  0  0  0  0  0  0  0
   48.8904   48.7354   20.0193 H   0  0  0  0  0  0  0  0  0  0  0  0
   50.1857   50.1407   18.4639 H   0  0  0  0  0  0  0  0  0  0  0  0
   47.9049   49.5657   16.5193 H   0  0  0  0  0  0  0  0  0  0  0  0
   50.8883   48.8916   16.4580 H   0  0  0  0  0  0  0  0  0  0  0  0
   48.4403   47.0983   16.7861 H   0  0  0  0  0  0  0  0  0  0  0  0
   50.3459   46.0471   15.5695 H   0  0  0  0  0  0  0  0  0  0  0  0
   50.0241   45.2837   17.1633 H   0  0  0  0  0  0  0  0  0  0  0  0
   47.4407   50.8806   18.5135 H   0  0  0  0  0  0  0  0  0  0  0  0
   48.7539   51.7043   16.3686 H   0  0  0  0  0  0  0  0  0  0  0  0
   49.8397   49.2849   14.4384 H   0  0  0  0  0  0  0  0  0  0  0  0
  1  2  1  0  0  0  0
  1  7  1  0  0  0  0
  1 11  1  0  0  0  0
  1 21  1  1  0  0  0
  2  3  1  0  0  0  0
  2  8  1  0  0  0  0
  2 22  1  1  0  0  0
  3  4  1  0  0  0  0
  3  9  1  0  0  0  0
  3 23  1  6  0  0  0
  4  5  1  0  0  0  0
  4 10  1  0  0  0  0
  4 24  1  1  0  0  0
  5  6  1  0  0  0  0
  5 11  1  0  0  0  0
  5 25  1  6  0  0  0
  6 12  1  0  0  0  0
  6 26  1  0  0  0  0
  6 27  1  0  0  0  0
  7 17  1  0  0  0  0
  8 28  1  0  0  0  0
  9 29  1  0  0  0  0
 10 30  1  0  0  0  0
 12 13  1  0  0  0  0
 13 14  1  0  0  0  0
 13 15  1  0  0  0  0
 13 16  2  0  0  0  0
 17 18  1  0  0  0  0
 17 19  1  0  0  0  0
 17 20  2  0  0  0  0
M  END
