2fky_ligand
 OpenBabel08222323343D

 55 58  0  0  1  0  0  0  0  0999 V2000
   22.0270   16.3490  105.6450 C   0  0  0  0  0  0  0  0  0  0  0  0
   20.9050   16.1340  106.4990 C   0  0  0  0  0  0  0  0  0  0  0  0
   20.9060   14.9220  107.2920 C   0  0  0  0  0  0  0  0  0  0  0  0
   22.0270   14.0560  107.1950 C   0  0  0  0  0  0  0  0  0  0  0  0
   23.1530   14.2680  106.3120 C   0  0  0  0  0  0  0  0  0  0  0  0
   23.1200   15.4480  105.5060 C   0  0  0  0  0  0  0  0  0  0  0  0
   19.7310   14.6070  108.1400 C   0  0  0  0  0  0  0  0  0  0  0  0
   18.5190   15.4940  108.1760 C   0  0  0  0  0  0  0  0  0  0  0  0
   17.7860   15.0500  109.3940 N   0  0  0  0  0  0  0  0  0  0  0  0
   18.4430   13.9430  110.0540 C   0  0  1  0  0  0  0  0  0  0  0  0
   19.5280   13.5160  109.1100 C   0  0  0  0  0  0  0  0  0  0  0  0
   18.3550   13.5460  111.4860 C   0  0  0  0  0  0  0  0  0  0  0  0
   17.4590   12.4730  111.9060 C   0  0  0  0  0  0  0  0  0  0  0  0
   17.4300   12.0460  113.2920 C   0  0  0  0  0  0  0  0  0  0  0  0
   18.3150   12.7240  114.2380 C   0  0  0  0  0  0  0  0  0  0  0  0
   19.2300   13.7900  113.8460 C   0  0  0  0  0  0  0  0  0  0  0  0
   19.2250   14.2150  112.4450 C   0  0  0  0  0  0  0  0  0  0  0  0
   16.5380   15.5200  109.6260 C   0  0  0  0  0  0  0  0  0  0  0  0
   16.4810   16.8900  109.7040 N   0  0  0  0  0  0  0  0  0  0  0  0
   15.3550   17.7300  109.4030 C   0  0  0  0  0  0  0  0  0  0  0  0
   21.9500   12.9980  107.9800 F   0  0  0  0  0  0  0  0  0  0  0  0
   22.0560   17.4310  104.9330 F   0  0  0  0  0  0  0  0  0  0  0  0
   15.5810   14.7580  109.7290 O   0  0  0  0  0  0  0  0  0  0  0  0
   14.1030   17.3760  110.2070 C   0  0  0  0  0  0  0  0  0  0  0  0
   17.6490   17.6700  110.1070 C   0  0  0  0  0  0  0  0  0  0  0  0
   14.9520   17.6680  107.9380 C   0  0  0  0  0  0  0  0  0  0  0  0
   12.9200   18.2980  109.9040 C   0  0  0  0  0  0  0  0  0  0  0  0
   13.7960   18.6170  107.5940 C   0  0  0  0  0  0  0  0  0  0  0  0
   12.6390   18.2580  108.4360 N   0  3  0  0  0  0  0  0  0  0  0  0
   20.0887   16.8453  106.5521 H   0  0  0  0  0  0  0  0  0  0  0  0
   23.9793   13.5680  106.2640 H   0  0  0  0  0  0  0  0  0  0  0  0
   23.9158   15.6537  104.7992 H   0  0  0  0  0  0  0  0  0  0  0  0
   17.9034   15.3523  107.2755 H   0  0  0  0  0  0  0  0  0  0  0  0
   18.8103   16.5515  108.2584 H   0  0  0  0  0  0  0  0  0  0  0  0
   17.7087   13.1808  109.7541 H   0  0  0  0  0  0  0  0  0  0  0  0
   20.0680   12.5707  109.1366 H   0  0  0  0  0  0  0  0  0  0  0  0
   16.8129   11.9935  111.1795 H   0  0  0  0  0  0  0  0  0  0  0  0
   16.7719   11.2481  113.6167 H   0  0  0  0  0  0  0  0  0  0  0  0
   18.2899   12.4205  115.2783 H   0  0  0  0  0  0  0  0  0  0  0  0
   19.8924   14.2527  114.5687 H   0  0  0  0  0  0  0  0  0  0  0  0
   19.8674   15.0260  112.1215 H   0  0  0  0  0  0  0  0  0  0  0  0
   15.6447   18.7633  109.6446 H   0  0  0  0  0  0  0  0  0  0  0  0
   14.3410   17.4511  111.2783 H   0  0  0  0  0  0  0  0  0  0  0  0
   13.8127   16.3424  109.9674 H   0  0  0  0  0  0  0  0  0  0  0  0
   18.4854   16.9904  110.3275 H   0  0  0  0  0  0  0  0  0  0  0  0
   17.4062   18.2562  111.0055 H   0  0  0  0  0  0  0  0  0  0  0  0
   17.9348   18.3505  109.2913 H   0  0  0  0  0  0  0  0  0  0  0  0
   14.6427   16.6390  107.7026 H   0  0  0  0  0  0  0  0  0  0  0  0
   15.8228   17.9389  107.3230 H   0  0  0  0  0  0  0  0  0  0  0  0
   13.1670   19.3268  110.2048 H   0  0  0  0  0  0  0  0  0  0  0  0
   12.0339   17.9564  110.4590 H   0  0  0  0  0  0  0  0  0  0  0  0
   13.5306   18.5110  106.5318 H   0  0  0  0  0  0  0  0  0  0  0  0
   14.0948   19.6563  107.7954 H   0  0  0  0  0  0  0  0  0  0  0  0
   11.8908   18.9040  108.2387 H   0  0  0  0  0  0  0  0  0  0  0  0
   12.3487   17.3235  108.1941 H   0  0  0  0  0  0  0  0  0  0  0  0
  1  2  2  0  0  0  0
  1  6  1  0  0  0  0
  1 22  1  0  0  0  0
  2  3  1  0  0  0  0
  2 30  1  0  0  0  0
  3  4  2  0  0  0  0
  3  7  1  0  0  0  0
  4  5  1  0  0  0  0
  4 21  1  0  0  0  0
  5  6  2  0  0  0  0
  5 31  1  0  0  0  0
  6 32  1  0  0  0  0
  7  8  1  0  0  0  0
  7 11  2  0  0  0  0
  8  9  1  0  0  0  0
  8 33  1  0  0  0  0
  8 34  1  0  0  0  0
  9 10  1  0  0  0  0
  9 18  1  0  0  0  0
 10 11  1  0  0  0  0
 10 12  1  0  0  0  0
 10 35  1  6  0  0  0
 11 36  1  0  0  0  0
 12 13  2  0  0  0  0
 12 17  1  0  0  0  0
 13 14  1  0  0  0  0
 13 37  1  0  0  0  0
 14 15  2  0  0  0  0
 14 38  1  0  0  0  0
 15 16  1  0  0  0  0
 15 39  1  0  0  0  0
 16 17  2  0  0  0  0
 16 40  1  0  0  0  0
 17 41  1  0  0  0  0
 18 19  1  0  0  0  0
 18 23  2  0  0  0  0
 19 20  1  0  0  0  0
 19 25  1  0  0  0  0
 20 24  1  0  0  0  0
 20 26  1  0  0  0  0
 20 42  1  0  0  0  0
 24 27  1  0  0  0  0
 24 43  1  0  0  0  0
 24 44  1  0  0  0  0
 25 45  1  0  0  0  0
 25 46  1  0  0  0  0
 25 47  1  0  0  0  0
 26 28  1  0  0  0  0
 26 48  1  0  0  0  0
 26 49  1  0  0  0  0
 27 29  1  0  0  0  0
 27 50  1  0  0  0  0
 27 51  1  0  0  0  0
 28 29  1  0  0  0  0
 28 52  1  0  0  0  0
 28 53  1  0  0  0  0
 29 54  1  0  0  0  0
 29 55  1  0  0  0  0
M  CHG  1  29   1
M  END
