2flh_ligand
 OpenBabel08222323343D

 29 30  0  0  0  0  0  0  0  0999 V2000
   30.8910  -10.3990    0.7040 O   0  0  0  0  0  0  0  0  0  0  0  0
   31.0110  -11.5720    1.6260 C   0  0  0  0  0  0  0  0  0  0  0  0
   29.6830  -12.2650    1.3600 C   0  0  0  0  0  0  0  0  0  0  0  0
   28.4190  -11.5360    1.6340 C   0  0  0  0  0  0  0  0  0  0  0  0
   29.6840  -13.5800    0.7910 C   0  0  0  0  0  0  0  0  0  0  0  0
   28.4470  -14.3150    0.4180 C   0  0  0  0  0  0  0  0  0  0  0  0
   28.6100  -15.7310    0.5270 N   0  0  0  0  0  0  0  0  0  0  0  0
   29.3610  -16.4190   -0.3910 C   0  0  0  0  0  0  0  0  0  0  0  0
   29.3790  -17.8010   -0.4270 C   0  0  0  0  0  0  0  0  0  0  0  0
   28.6880  -18.7740    0.3090 N   0  0  0  0  0  0  0  0  0  0  0  0
   30.1310  -18.3780   -1.3870 C   0  0  0  0  0  0  0  0  0  0  0  0
   29.9680  -19.7410   -1.2860 N   0  0  0  0  0  0  0  0  0  0  0  0
   29.1030  -19.9090   -0.2990 C   0  0  0  0  0  0  0  0  0  0  0  0
   30.9790  -17.7570   -2.2520 N   0  0  0  0  0  0  0  0  0  0  0  0
   30.8580  -16.4220   -2.1670 C   0  0  0  0  0  0  0  0  0  0  0  0
   30.1250  -15.7450   -1.2610 N   0  0  0  0  0  0  0  0  0  0  0  0
   30.7910  -10.7082   -0.1887 H   0  0  0  0  0  0  0  0  0  0  0  0
   31.1021  -11.2566    2.6759 H   0  0  0  0  0  0  0  0  0  0  0  0
   31.8646  -12.2128    1.3602 H   0  0  0  0  0  0  0  0  0  0  0  0
   27.5628  -12.1811    1.3872 H   0  0  0  0  0  0  0  0  0  0  0  0
   28.3806  -10.6247    1.0192 H   0  0  0  0  0  0  0  0  0  0  0  0
   28.3769  -11.2622    2.6985 H   0  0  0  0  0  0  0  0  0  0  0  0
   30.6431  -14.0675    0.6227 H   0  0  0  0  0  0  0  0  0  0  0  0
   28.1866  -14.0669   -0.6215 H   0  0  0  0  0  0  0  0  0  0  0  0
   27.6317  -13.9993    1.0856 H   0  0  0  0  0  0  0  0  0  0  0  0
   28.1595  -16.2387    1.3017 H   0  0  0  0  0  0  0  0  0  0  0  0
   28.0389  -18.6563    1.1000 H   0  0  0  0  0  0  0  0  0  0  0  0
   28.7493  -20.8936    0.0033 H   0  0  0  0  0  0  0  0  0  0  0  0
   31.4017  -15.8329   -2.8967 H   0  0  0  0  0  0  0  0  0  0  0  0
  1  2  1  0  0  0  0
  1 17  1  0  0  0  0
  2  3  1  0  0  0  0
  2 18  1  0  0  0  0
  2 19  1  0  0  0  0
  3  4  1  0  0  0  0
  3  5  2  0  0  0  0
  4 20  1  0  0  0  0
  4 21  1  0  0  0  0
  4 22  1  0  0  0  0
  5  6  1  0  0  0  0
  5 23  1  0  0  0  0
  6  7  1  0  0  0  0
  6 24  1  0  0  0  0
  6 25  1  0  0  0  0
  7  8  1  0  0  0  0
  7 26  1  0  0  0  0
  8  9  2  0  0  0  0
  8 16  1  0  0  0  0
  9 10  1  0  0  0  0
  9 11  1  0  0  0  0
 10 13  1  0  0  0  0
 10 27  1  0  0  0  0
 11 12  1  0  0  0  0
 11 14  2  0  0  0  0
 12 13  2  0  0  0  0
 13 28  1  0  0  0  0
 14 15  1  0  0  0  0
 15 16  2  0  0  0  0
 15 29  1  0  0  0  0
M  END
