2flu_ligand
 OpenBabel08222323343D

247249  0  0  1  0  0  0  0  0999 V2000
  -14.4100   10.0690    4.7180 N   0  3  0  0  0  0  0  0  0  0  0  0
  -15.7700    9.6130    5.1590 C   0  0  2  0  0  0  0  0  0  0  0  0
  -16.1160    8.2190    4.6390 C   0  0  0  0  0  0  0  0  0  0  0  0
  -17.0420    7.5790    5.1410 O   0  0  0  0  0  0  0  0  0  0  0  0
  -16.8480   10.6040    4.7190 C   0  0  0  0  0  0  0  0  0  0  0  0
  -15.3630    7.7590    3.6390 N   0  0  0  0  0  0  0  0  0  0  0  0
  -15.6610    6.4970    2.9670 C   0  0  2  0  0  0  0  0  0  0  0  0
  -14.7180    5.3480    3.3240 C   0  0  0  0  0  0  0  0  0  0  0  0
  -14.7680    4.2960    2.6870 O   0  0  0  0  0  0  0  0  0  0  0  0
  -15.6390    6.7170    1.4530 C   0  0  0  0  0  0  0  0  0  0  0  0
  -16.7640    7.5790    0.9520 C   0  0  0  0  0  0  0  0  0  0  0  0
  -16.6150    8.9590    0.8610 C   0  0  0  0  0  0  0  0  0  0  0  0
  -17.9730    7.0090    0.5770 C   0  0  0  0  0  0  0  0  0  0  0  0
  -17.6550    9.7570    0.3910 C   0  0  0  0  0  0  0  0  0  0  0  0
  -19.0270    7.8110    0.1090 C   0  0  0  0  0  0  0  0  0  0  0  0
  -18.8610    9.1850    0.0190 C   0  0  0  0  0  0  0  0  0  0  0  0
  -13.8850    5.5380    4.3470 N   0  0  0  0  0  0  0  0  0  0  0  0
  -12.9030    4.5180    4.7590 C   0  0  2  0  0  0  0  0  0  0  0  0
  -12.0550    4.0190    3.5870 C   0  0  0  0  0  0  0  0  0  0  0  0
  -11.8730    2.8190    3.3850 O   0  0  0  0  0  0  0  0  0  0  0  0
  -13.5840    3.3700    5.5180 C   0  0  0  0  0  0  0  0  0  0  0  0
  -14.3470    3.8430    6.7190 C   0  0  0  0  0  0  0  0  0  0  0  0
  -15.7030    4.1550    6.6180 C   0  0  0  0  0  0  0  0  0  0  0  0
  -13.6980    4.0200    7.9560 C   0  0  0  0  0  0  0  0  0  0  0  0
  -16.4170    4.6340    7.7420 C   0  0  0  0  0  0  0  0  0  0  0  0
  -14.4070    4.4960    9.0680 C   0  0  0  0  0  0  0  0  0  0  0  0
  -15.7500    4.7980    8.9550 C   0  0  0  0  0  0  0  0  0  0  0  0
  -11.5180    4.9680    2.8320 N   0  0  0  0  0  0  0  0  0  0  0  0
  -10.7220    4.6730    1.6620 C   0  0  2  0  0  0  0  0  0  0  0  0
   -9.4470    3.9120    2.0040 C   0  0  0  0  0  0  0  0  0  0  0  0
   -8.8760    4.0730    3.0820 O   0  0  0  0  0  0  0  0  0  0  0  0
  -10.3760    5.9800    0.9340 C   0  0  0  0  0  0  0  0  0  0  0  0
   -9.0050    3.0960    1.0590 N   0  0  0  0  0  0  0  0  0  0  0  0
   -7.7130    2.4210    1.1480 C   0  0  2  0  0  0  0  0  0  0  0  0
   -6.5790    3.4450    1.2880 C   0  0  0  0  0  0  0  0  0  0  0  0
   -6.6720    4.5680    0.7610 O   0  0  0  0  0  0  0  0  0  0  0  0
   -7.5010    1.5580   -0.1070 C   0  0  0  0  0  0  0  0  0  0  0  0
   -6.2220    0.7420   -0.1810 C   0  0  0  0  0  0  0  0  0  0  0  0
   -6.0360   -0.1810    1.0200 C   0  0  0  0  0  0  0  0  0  0  0  0
   -5.7200    0.2750    2.1220 O   0  0  0  0  0  0  0  0  0  0  0  0
   -6.2090   -1.4880    0.8040 N   0  0  0  0  0  0  0  0  0  0  0  0
   -5.5250    3.0510    1.9990 N   0  0  0  0  0  0  0  0  0  0  0  0
   -4.3390    3.9030    2.1400 C   0  0  2  0  0  0  0  0  0  0  0  0
   -3.5880    4.0490    0.8180 C   0  0  0  0  0  0  0  0  0  0  0  0
   -3.6120    3.1490   -0.0290 O   0  0  0  0  0  0  0  0  0  0  0  0
   -3.3770    3.3130    3.1640 C   0  0  0  0  0  0  0  0  0  0  0  0
   -3.9310    2.9630    4.5390 C   0  0  0  0  0  0  0  0  0  0  0  0
   -2.9710    1.9980    5.2340 C   0  0  0  0  0  0  0  0  0  0  0  0
   -4.1250    4.2140    5.3560 C   0  0  0  0  0  0  0  0  0  0  0  0
   -2.9010    5.1860    0.6790 N   0  0  0  0  0  0  0  0  0  0  0  0
   -2.1050    5.4790   -0.5100 C   0  0  2  0  0  0  0  0  0  0  0  0
   -0.6320    5.5640   -0.1330 C   0  0  0  0  0  0  0  0  0  0  0  0
   -0.2890    6.1040    0.9240 O   0  0  0  0  0  0  0  0  0  0  0  0
   -2.5500    6.7990   -1.1470 C   0  0  0  0  0  0  0  0  0  0  0  0
   -3.8550    6.7100   -1.9360 C   0  0  0  0  0  0  0  0  0  0  0  0
   -3.6880    6.0370   -3.2870 C   0  0  0  0  0  0  0  0  0  0  0  0
   -2.7550    6.3390   -4.0390 O   0  0  0  0  0  0  0  0  0  0  0  0
   -4.5940    5.1190   -3.6030 N   0  0  0  0  0  0  0  0  0  0  0  0
    0.2180    5.0280   -1.0060 N   0  0  0  0  0  0  0  0  0  0  0  0
    1.6680    4.9970   -0.8400 C   0  0  2  0  0  0  0  0  0  0  0  0
    2.2930    6.3400   -1.2030 C   0  0  0  0  0  0  0  0  0  0  0  0
    1.9840    6.9120   -2.2470 O   0  0  0  0  0  0  0  0  0  0  0  0
    2.2440    3.8830   -1.7370 C   0  0  0  0  0  0  0  0  0  0  0  0
    3.7140    3.7260   -2.1630 C   0  0  0  0  0  0  0  0  0  0  0  0
    4.1210    4.6690   -3.3180 C   0  0  0  0  0  0  0  0  0  0  0  0
    4.6790    3.7810   -0.9790 C   0  0  0  0  0  0  0  0  0  0  0  0
    3.1660    6.8440   -0.3280 N   0  0  0  0  0  0  0  0  0  0  0  0
    3.9600    8.0280   -0.6410 C   0  0  2  0  0  0  0  0  0  0  0  0
    5.1810    7.5550   -1.4150 C   0  0  0  0  0  0  0  0  0  0  0  0
    5.9720    6.7720   -0.8870 O   0  0  0  0  0  0  0  0  0  0  0  0
    4.4050    8.7140    0.6520 C   0  0  0  0  0  0  0  0  0  0  0  0
    5.0790   10.0320    0.3980 C   0  0  0  0  0  0  0  0  0  0  0  0
    6.1410   10.0530   -0.2590 O   0  5  0  0  0  0  0  0  0  0  0  0
    4.5460   11.0640    0.8590 O   0  0  0  0  0  0  0  0  0  0  0  0
    5.3400    8.0250   -2.6540 N   0  0  0  0  0  0  0  0  0  0  0  0
    6.4070    7.5210   -3.5330 C   0  0  2  0  0  0  0  0  0  0  0  0
    7.7960    7.9040   -3.0530 C   0  0  0  0  0  0  0  0  0  0  0  0
    8.7830    7.2650   -3.4290 O   0  0  0  0  0  0  0  0  0  0  0  0
    6.2010    8.0170   -4.9630 C   0  0  0  0  0  0  0  0  0  0  0  0
    7.8740    8.9480   -2.2350 N   0  0  0  0  0  0  0  0  0  0  0  0
    9.1650    9.4710   -1.7830 C   0  0  2  0  0  0  0  0  0  0  0  0
    9.6180    8.9050   -0.4370 C   0  0  0  0  0  0  0  0  0  0  0  0
   10.8130    8.7090   -0.2090 O   0  0  0  0  0  0  0  0  0  0  0  0
    9.1170   10.9970   -1.6750 C   0  0  0  0  0  0  0  0  0  0  0  0
    8.9290   11.6810   -3.0060 C   0  0  0  0  0  0  0  0  0  0  0  0
    8.9090   13.1980   -2.9140 C   0  0  0  0  0  0  0  0  0  0  0  0
    9.5520   13.7560   -2.0010 O   0  5  0  0  0  0  0  0  0  0  0  0
    8.2600   13.8270   -3.7730 O   0  0  0  0  0  0  0  0  0  0  0  0
    8.6640    8.6670    0.4630 N   0  0  0  0  0  0  0  0  0  0  0  0
    9.0120    8.2650    1.8270 C   0  0  2  0  0  0  0  0  0  0  0  0
    8.6620    6.8090    2.0920 C   0  0  0  0  0  0  0  0  0  0  0  0
    9.1430    6.2160    3.0640 O   0  0  0  0  0  0  0  0  0  0  0  0
    8.2760    9.1110    2.8920 C   0  0  2  0  0  0  0  0  0  0  0  0
    6.8780    8.8200    2.8560 O   0  0  0  0  0  0  0  0  0  0  0  0
    8.4990   10.6010    2.6410 C   0  0  0  0  0  0  0  0  0  0  0  0
    7.7670    6.2670    1.2650 N   0  0  0  0  0  0  0  0  0  0  0  0
    7.2890    4.9080    1.4630 C   0  0  0  0  0  0  0  0  0  0  0  0
    6.2060    4.7800    2.5180 C   0  0  0  0  0  0  0  0  0  0  0  0
    5.6910    3.6820    2.7570 O   0  0  0  0  0  0  0  0  0  0  0  0
    5.8300    5.8880    3.1590 N   0  0  0  0  0  0  0  0  0  0  0  0
    4.7360    5.8370    4.1440 C   0  0  2  0  0  0  0  0  0  0  0  0
    3.3850    5.6170    3.4740 C   0  0  0  0  0  0  0  0  0  0  0  0
    3.1550    6.0780    2.3530 O   0  0  0  0  0  0  0  0  0  0  0  0
    4.6830    7.1280    4.9660 C   0  0  0  0  0  0  0  0  0  0  0  0
    5.9630    7.3800    5.7800 C   0  0  0  0  0  0  0  0  0  0  0  0
    5.7950    8.4000    6.9140 C   0  0  0  0  0  0  0  0  0  0  0  0
    4.6400    8.7430    7.2560 O   0  5  0  0  0  0  0  0  0  0  0  0
    6.8150    8.8640    7.4760 O   0  0  0  0  0  0  0  0  0  0  0  0
    2.4880    4.9190    4.1750 N   0  0  0  0  0  0  0  0  0  0  0  0
    1.1140    4.7760    3.7010 C   0  0  2  0  0  0  0  0  0  0  0  0
    0.2400    5.6630    4.5430 C   0  0  0  0  0  0  0  0  0  0  0  0
    0.3880    5.6990    5.7710 O   0  0  0  0  0  0  0  0  0  0  0  0
    0.6190    3.3190    3.7960 C   0  0  0  0  0  0  0  0  0  0  0  0
    0.9940    2.4740    2.6060 C   0  0  0  0  0  0  0  0  0  0  0  0
    2.1420    1.6910    2.6280 C   0  0  0  0  0  0  0  0  0  0  0  0
    0.2030    2.4710    1.4560 C   0  0  0  0  0  0  0  0  0  0  0  0
    2.4980    0.9050    1.5220 C   0  0  0  0  0  0  0  0  0  0  0  0
    0.5480    1.6920    0.3470 C   0  0  0  0  0  0  0  0  0  0  0  0
    1.6990    0.9110    0.3790 C   0  0  0  0  0  0  0  0  0  0  0  0
   -0.6750    6.3670    3.8740 N   0  0  0  0  0  0  0  0  0  0  0  0
   -1.5700    7.3220    4.5140 C   0  0  2  0  0  0  0  0  0  0  0  0
   -2.9510    7.2810    3.8570 C   0  0  0  0  0  0  0  0  0  0  0  0
   -3.0730    7.1230    2.6370 O   0  5  0  0  0  0  0  0  0  0  0  0
   -0.9740    8.7330    4.4120 C   0  0  0  0  0  0  0  0  0  0  0  0
   -1.7220    9.9010    5.0610 C   0  0  0  0  0  0  0  0  0  0  0  0
   -1.4720    9.9610    6.5550 C   0  0  0  0  0  0  0  0  0  0  0  0
   -1.3010   11.2020    4.4130 C   0  0  0  0  0  0  0  0  0  0  0  0
   -3.9860    7.4090    4.5310 O   0  0  0  0  0  0  0  0  0  0  0  0
  -14.2291   10.9902    5.0851 H   0  0  0  0  0  0  0  0  0  0  0  0
  -14.3747   10.0957    3.7110 H   0  0  0  0  0  0  0  0  0  0  0  0
  -13.7126    9.4275    5.0618 H   0  0  0  0  0  0  0  0  0  0  0  0
  -15.7677    9.5730    6.2583 H   0  0  0  0  0  0  0  0  0  0  0  0
  -17.8330   10.2469    5.0540 H   0  0  0  0  0  0  0  0  0  0  0  0
  -16.8424   10.6889    3.6223 H   0  0  0  0  0  0  0  0  0  0  0  0
  -16.6442   11.5890    5.1641 H   0  0  0  0  0  0  0  0  0  0  0  0
  -14.5720    8.2933    3.3409 H   0  0  0  0  0  0  0  0  0  0  0  0
  -16.6767    6.1957    3.2629 H   0  0  0  0  0  0  0  0  0  0  0  0
  -15.7057    5.7367    0.9585 H   0  0  0  0  0  0  0  0  0  0  0  0
  -14.6868    7.1985    1.1857 H   0  0  0  0  0  0  0  0  0  0  0  0
  -15.6794    9.4181    1.1591 H   0  0  0  0  0  0  0  0  0  0  0  0
  -18.1049    5.9353    0.6460 H   0  0  0  0  0  0  0  0  0  0  0  0
  -17.5205   10.8300    0.3159 H   0  0  0  0  0  0  0  0  0  0  0  0
  -19.9677    7.3572   -0.1811 H   0  0  0  0  0  0  0  0  0  0  0  0
  -19.6713    9.8088   -0.3408 H   0  0  0  0  0  0  0  0  0  0  0  0
  -13.9273    6.4003    4.8516 H   0  0  0  0  0  0  0  0  0  0  0  0
  -12.2127    5.0038    5.4644 H   0  0  0  0  0  0  0  0  0  0  0  0
  -12.8118    2.6599    5.8489 H   0  0  0  0  0  0  0  0  0  0  0  0
  -14.2813    2.8618    4.8358 H   0  0  0  0  0  0  0  0  0  0  0  0
  -16.2141    4.0294    5.6703 H   0  0  0  0  0  0  0  0  0  0  0  0
  -12.6435    3.7868    8.0492 H   0  0  0  0  0  0  0  0  0  0  0  0
  -17.4717    4.8709    7.6606 H   0  0  0  0  0  0  0  0  0  0  0  0
  -13.9006    4.6271   10.0174 H   0  0  0  0  0  0  0  0  0  0  0  0
  -16.2912    5.1665    9.8189 H   0  0  0  0  0  0  0  0  0  0  0  0
  -11.6696    5.9244    3.0817 H   0  0  0  0  0  0  0  0  0  0  0  0
  -11.3232    4.0447    0.9883 H   0  0  0  0  0  0  0  0  0  0  0  0
   -9.7703    5.7546    0.0439 H   0  0  0  0  0  0  0  0  0  0  0  0
   -9.8062    6.6358    1.6087 H   0  0  0  0  0  0  0  0  0  0  0  0
  -11.3036    6.4858    0.6278 H   0  0  0  0  0  0  0  0  0  0  0  0
   -9.5773    2.9362    0.2546 H   0  0  0  0  0  0  0  0  0  0  0  0
   -7.7116    1.7693    2.0341 H   0  0  0  0  0  0  0  0  0  0  0  0
   -7.5150    2.2306   -0.9773 H   0  0  0  0  0  0  0  0  0  0  0  0
   -8.3454    0.8561   -0.1724 H   0  0  0  0  0  0  0  0  0  0  0  0
   -5.3672    1.4327   -0.2284 H   0  0  0  0  0  0  0  0  0  0  0  0
   -6.2491    0.1289   -1.0939 H   0  0  0  0  0  0  0  0  0  0  0  0
   -6.0993   -2.1379    1.5561 H   0  0  0  0  0  0  0  0  0  0  0  0
   -6.4482   -1.8164   -0.1098 H   0  0  0  0  0  0  0  0  0  0  0  0
   -5.5419    2.1566    2.4459 H   0  0  0  0  0  0  0  0  0  0  0  0
   -4.6630    4.8980    2.4790 H   0  0  0  0  0  0  0  0  0  0  0  0
   -2.5675    4.0428    3.3124 H   0  0  0  0  0  0  0  0  0  0  0  0
   -2.9636    2.3897    2.7321 H   0  0  0  0  0  0  0  0  0  0  0  0
   -4.9059    2.4683    4.4172 H   0  0  0  0  0  0  0  0  0  0  0  0
   -3.3654    1.7410    6.2282 H   0  0  0  0  0  0  0  0  0  0  0  0
   -1.9859    2.4753    5.3425 H   0  0  0  0  0  0  0  0  0  0  0  0
   -2.8708    1.0831    4.6316 H   0  0  0  0  0  0  0  0  0  0  0  0
   -4.8187    4.8891    4.8336 H   0  0  0  0  0  0  0  0  0  0  0  0
   -3.1563    4.7172    5.4918 H   0  0  0  0  0  0  0  0  0  0  0  0
   -4.5417    3.9491    6.3390 H   0  0  0  0  0  0  0  0  0  0  0  0
   -2.9328    5.8613    1.4159 H   0  0  0  0  0  0  0  0  0  0  0  0
   -2.2432    4.6674   -1.2395 H   0  0  0  0  0  0  0  0  0  0  0  0
   -1.7568    7.1358   -1.8307 H   0  0  0  0  0  0  0  0  0  0  0  0
   -2.6825    7.5405   -0.3454 H   0  0  0  0  0  0  0  0  0  0  0  0
   -4.2372    7.7288   -2.0970 H   0  0  0  0  0  0  0  0  0  0  0  0
   -4.5829    6.1343   -1.3455 H   0  0  0  0  0  0  0  0  0  0  0  0
   -4.5369    4.6411   -4.4796 H   0  0  0  0  0  0  0  0  0  0  0  0
   -5.3334    4.9056   -2.9644 H   0  0  0  0  0  0  0  0  0  0  0  0
   -0.1637    4.6175   -1.8341 H   0  0  0  0  0  0  0  0  0  0  0  0
    1.9027    4.7720    0.2108 H   0  0  0  0  0  0  0  0  0  0  0  0
    1.6783    3.9510   -2.6779 H   0  0  0  0  0  0  0  0  0  0  0  0
    1.9918    2.9429   -1.2246 H   0  0  0  0  0  0  0  0  0  0  0  0
    3.7983    2.7073   -2.5693 H   0  0  0  0  0  0  0  0  0  0  0  0
    5.1789    4.5043   -3.5703 H   0  0  0  0  0  0  0  0  0  0  0  0
    3.9768    5.7140   -3.0063 H   0  0  0  0  0  0  0  0  0  0  0  0
    3.4971    4.4598   -4.1994 H   0  0  0  0  0  0  0  0  0  0  0  0
    4.3359    3.0910   -0.1940 H   0  0  0  0  0  0  0  0  0  0  0  0
    4.7104    4.8051   -0.5788 H   0  0  0  0  0  0  0  0  0  0  0  0
    5.6851    3.4864   -1.3120 H   0  0  0  0  0  0  0  0  0  0  0  0
    3.2785    6.4007    0.5613 H   0  0  0  0  0  0  0  0  0  0  0  0
    3.3715    8.7302   -1.2497 H   0  0  0  0  0  0  0  0  0  0  0  0
    5.1091    8.0529    1.1785 H   0  0  0  0  0  0  0  0  0  0  0  0
    3.5208    8.8853    1.2835 H   0  0  0  0  0  0  0  0  0  0  0  0
    4.7213    8.7342   -2.9919 H   0  0  0  0  0  0  0  0  0  0  0  0
    6.3441    6.4228   -3.5371 H   0  0  0  0  0  0  0  0  0  0  0  0
    7.0067    7.6309   -5.6046 H   0  0  0  0  0  0  0  0  0  0  0  0
    6.2175    9.1168   -4.9756 H   0  0  0  0  0  0  0  0  0  0  0  0
    5.2305    7.6604   -5.3386 H   0  0  0  0  0  0  0  0  0  0  0  0
    7.0320    9.3866   -1.9208 H   0  0  0  0  0  0  0  0  0  0  0  0
    9.9171    9.1962   -2.5372 H   0  0  0  0  0  0  0  0  0  0  0  0
   10.0618   11.3461   -1.2329 H   0  0  0  0  0  0  0  0  0  0  0  0
    8.2798   11.2749   -1.0178 H   0  0  0  0  0  0  0  0  0  0  0  0
    7.9739   11.3463   -3.4370 H   0  0  0  0  0  0  0  0  0  0  0  0
    9.7547   11.3839   -3.6692 H   0  0  0  0  0  0  0  0  0  0  0  0
    7.7029    8.7638    0.2044 H   0  0  0  0  0  0  0  0  0  0  0  0
   10.0963    8.4001    1.9535 H   0  0  0  0  0  0  0  0  0  0  0  0
    8.6709    8.8544    3.8861 H   0  0  0  0  0  0  0  0  0  0  0  0
    6.4301    9.3417    3.5115 H   0  0  0  0  0  0  0  0  0  0  0  0
    7.9687   11.1853    3.4074 H   0  0  0  0  0  0  0  0  0  0  0  0
    8.1138   10.8668    1.6455 H   0  0  0  0  0  0  0  0  0  0  0  0
    9.5751   10.8240    2.6894 H   0  0  0  0  0  0  0  0  0  0  0  0
    7.4190    6.8038    0.4964 H   0  0  0  0  0  0  0  0  0  0  0  0
    8.1417    4.2825    1.7656 H   0  0  0  0  0  0  0  0  0  0  0  0
    6.8857    4.5410    0.5077 H   0  0  0  0  0  0  0  0  0  0  0  0
    6.2917    6.7547    2.9704 H   0  0  0  0  0  0  0  0  0  0  0  0
    4.9281    4.9948    4.8250 H   0  0  0  0  0  0  0  0  0  0  0  0
    3.8330    7.0652    5.6614 H   0  0  0  0  0  0  0  0  0  0  0  0
    4.5331    7.9740    4.2792 H   0  0  0  0  0  0  0  0  0  0  0  0
    6.7403    7.7500    5.0953 H   0  0  0  0  0  0  0  0  0  0  0  0
    6.2861    6.4249    6.2198 H   0  0  0  0  0  0  0  0  0  0  0  0
    2.7606    4.4887    5.0356 H   0  0  0  0  0  0  0  0  0  0  0  0
    1.0613    5.0984    2.6507 H   0  0  0  0  0  0  0  0  0  0  0  0
   -0.4775    3.3295    3.8829 H   0  0  0  0  0  0  0  0  0  0  0  0
    1.0539    2.8623    4.6973 H   0  0  0  0  0  0  0  0  0  0  0  0
    2.7704    1.6876    3.5112 H   0  0  0  0  0  0  0  0  0  0  0  0
   -0.6920    3.0816    1.4220 H   0  0  0  0  0  0  0  0  0  0  0  0
    3.3927    0.2939    1.5557 H   0  0  0  0  0  0  0  0  0  0  0  0
   -0.0804    1.6967   -0.5363 H   0  0  0  0  0  0  0  0  0  0  0  0
    1.9734    0.3100   -0.4804 H   0  0  0  0  0  0  0  0  0  0  0  0
   -0.7500    6.2327    2.8859 H   0  0  0  0  0  0  0  0  0  0  0  0
   -1.6754    7.0552    5.5759 H   0  0  0  0  0  0  0  0  0  0  0  0
   -0.8780    8.9663    3.3413 H   0  0  0  0  0  0  0  0  0  0  0  0
    0.0253    8.6952    4.8702 H   0  0  0  0  0  0  0  0  0  0  0  0
   -2.8000    9.7575    4.8958 H   0  0  0  0  0  0  0  0  0  0  0  0
   -2.0237   10.8098    6.9853 H   0  0  0  0  0  0  0  0  0  0  0  0
   -0.3958   10.0908    6.7418 H   0  0  0  0  0  0  0  0  0  0  0  0
   -1.8151    9.0261    7.0221 H   0  0  0  0  0  0  0  0  0  0  0  0
   -1.4861   11.1489    3.3300 H   0  0  0  0  0  0  0  0  0  0  0  0
   -0.2294   11.3718    4.5939 H   0  0  0  0  0  0  0  0  0  0  0  0
   -1.8815   12.0310    4.8439 H   0  0  0  0  0  0  0  0  0  0  0  0
  1  2  1  0  0  0  0
  1129  1  0  0  0  0
  1130  1  0  0  0  0
  1131  1  0  0  0  0
  2  3  1  0  0  0  0
  2  5  1  0  0  0  0
  2132  1  1  0  0  0
  3  4  2  0  0  0  0
  3  6  1  0  0  0  0
  5133  1  0  0  0  0
  5134  1  0  0  0  0
  5135  1  0  0  0  0
  6  7  1  0  0  0  0
  6136  1  0  0  0  0
  7  8  1  0  0  0  0
  7 10  1  0  0  0  0
  7137  1  1  0  0  0
  8  9  2  0  0  0  0
  8 17  1  0  0  0  0
 10 11  1  0  0  0  0
 10138  1  0  0  0  0
 10139  1  0  0  0  0
 11 12  2  0  0  0  0
 11 13  1  0  0  0  0
 12 14  1  0  0  0  0
 12140  1  0  0  0  0
 13 15  2  0  0  0  0
 13141  1  0  0  0  0
 14 16  2  0  0  0  0
 14142  1  0  0  0  0
 15 16  1  0  0  0  0
 15143  1  0  0  0  0
 16144  1  0  0  0  0
 17 18  1  0  0  0  0
 17145  1  0  0  0  0
 18 19  1  0  0  0  0
 18 21  1  0  0  0  0
 18146  1  1  0  0  0
 19 20  2  0  0  0  0
 19 28  1  0  0  0  0
 21 22  1  0  0  0  0
 21147  1  0  0  0  0
 21148  1  0  0  0  0
 22 23  2  0  0  0  0
 22 24  1  0  0  0  0
 23 25  1  0  0  0  0
 23149  1  0  0  0  0
 24 26  2  0  0  0  0
 24150  1  0  0  0  0
 25 27  2  0  0  0  0
 25151  1  0  0  0  0
 26 27  1  0  0  0  0
 26152  1  0  0  0  0
 27153  1  0  0  0  0
 28 29  1  0  0  0  0
 28154  1  0  0  0  0
 29 30  1  0  0  0  0
 29 32  1  0  0  0  0
 29155  1  6  0  0  0
 30 31  2  0  0  0  0
 30 33  1  0  0  0  0
 32156  1  0  0  0  0
 32157  1  0  0  0  0
 32158  1  0  0  0  0
 33 34  1  0  0  0  0
 33159  1  0  0  0  0
 34 35  1  0  0  0  0
 34 37  1  0  0  0  0
 34160  1  1  0  0  0
 35 36  2  0  0  0  0
 35 42  1  0  0  0  0
 37 38  1  0  0  0  0
 37161  1  0  0  0  0
 37162  1  0  0  0  0
 38 39  1  0  0  0  0
 38163  1  0  0  0  0
 38164  1  0  0  0  0
 39 40  2  0  0  0  0
 39 41  1  0  0  0  0
 41165  1  0  0  0  0
 41166  1  0  0  0  0
 42 43  1  0  0  0  0
 42167  1  0  0  0  0
 43 44  1  0  0  0  0
 43 46  1  0  0  0  0
 43168  1  1  0  0  0
 44 45  2  0  0  0  0
 44 50  1  0  0  0  0
 46 47  1  0  0  0  0
 46169  1  0  0  0  0
 46170  1  0  0  0  0
 47 48  1  0  0  0  0
 47 49  1  0  0  0  0
 47171  1  0  0  0  0
 48172  1  0  0  0  0
 48173  1  0  0  0  0
 48174  1  0  0  0  0
 49175  1  0  0  0  0
 49176  1  0  0  0  0
 49177  1  0  0  0  0
 50 51  1  0  0  0  0
 50178  1  0  0  0  0
 51 52  1  0  0  0  0
 51 54  1  0  0  0  0
 51179  1  6  0  0  0
 52 53  2  0  0  0  0
 52 59  1  0  0  0  0
 54 55  1  0  0  0  0
 54180  1  0  0  0  0
 54181  1  0  0  0  0
 55 56  1  0  0  0  0
 55182  1  0  0  0  0
 55183  1  0  0  0  0
 56 57  2  0  0  0  0
 56 58  1  0  0  0  0
 58184  1  0  0  0  0
 58185  1  0  0  0  0
 59 60  1  0  0  0  0
 59186  1  0  0  0  0
 60 61  1  0  0  0  0
 60 63  1  0  0  0  0
 60187  1  1  0  0  0
 61 62  2  0  0  0  0
 61 67  1  0  0  0  0
 63 64  1  0  0  0  0
 63188  1  0  0  0  0
 63189  1  0  0  0  0
 64 65  1  0  0  0  0
 64 66  1  0  0  0  0
 64190  1  0  0  0  0
 65191  1  0  0  0  0
 65192  1  0  0  0  0
 65193  1  0  0  0  0
 66194  1  0  0  0  0
 66195  1  0  0  0  0
 66196  1  0  0  0  0
 67 68  1  0  0  0  0
 67197  1  0  0  0  0
 68 69  1  0  0  0  0
 68 71  1  0  0  0  0
 68198  1  6  0  0  0
 69 70  2  0  0  0  0
 69 75  1  0  0  0  0
 71 72  1  0  0  0  0
 71199  1  0  0  0  0
 71200  1  0  0  0  0
 72 73  1  0  0  0  0
 72 74  2  0  0  0  0
 75 76  1  0  0  0  0
 75201  1  0  0  0  0
 76 77  1  0  0  0  0
 76 79  1  0  0  0  0
 76202  1  6  0  0  0
 77 78  2  0  0  0  0
 77 80  1  0  0  0  0
 79203  1  0  0  0  0
 79204  1  0  0  0  0
 79205  1  0  0  0  0
 80 81  1  0  0  0  0
 80206  1  0  0  0  0
 81 82  1  0  0  0  0
 81 84  1  0  0  0  0
 81207  1  6  0  0  0
 82 83  2  0  0  0  0
 82 89  1  0  0  0  0
 84 85  1  0  0  0  0
 84208  1  0  0  0  0
 84209  1  0  0  0  0
 85 86  1  0  0  0  0
 85210  1  0  0  0  0
 85211  1  0  0  0  0
 86 87  1  0  0  0  0
 86 88  2  0  0  0  0
 89 90  1  0  0  0  0
 89212  1  0  0  0  0
 90 91  1  0  0  0  0
 90 93  1  0  0  0  0
 90213  1  1  0  0  0
 91 92  2  0  0  0  0
 91 96  1  0  0  0  0
 93 94  1  0  0  0  0
 93 95  1  0  0  0  0
 93214  1  1  0  0  0
 94215  1  0  0  0  0
 95216  1  0  0  0  0
 95217  1  0  0  0  0
 95218  1  0  0  0  0
 96 97  1  0  0  0  0
 96219  1  0  0  0  0
 97 98  1  0  0  0  0
 97220  1  0  0  0  0
 97221  1  0  0  0  0
 98 99  2  0  0  0  0
 98100  1  0  0  0  0
100101  1  0  0  0  0
100222  1  0  0  0  0
101102  1  0  0  0  0
101104  1  0  0  0  0
101223  1  1  0  0  0
102103  2  0  0  0  0
102109  1  0  0  0  0
104105  1  0  0  0  0
104224  1  0  0  0  0
104225  1  0  0  0  0
105106  1  0  0  0  0
105226  1  0  0  0  0
105227  1  0  0  0  0
106107  1  0  0  0  0
106108  2  0  0  0  0
109110  1  0  0  0  0
109228  1  0  0  0  0
110111  1  0  0  0  0
110113  1  0  0  0  0
110229  1  6  0  0  0
111112  2  0  0  0  0
111120  1  0  0  0  0
113114  1  0  0  0  0
113230  1  0  0  0  0
113231  1  0  0  0  0
114115  2  0  0  0  0
114116  1  0  0  0  0
115117  1  0  0  0  0
115232  1  0  0  0  0
116118  2  0  0  0  0
116233  1  0  0  0  0
117119  2  0  0  0  0
117234  1  0  0  0  0
118119  1  0  0  0  0
118235  1  0  0  0  0
119236  1  0  0  0  0
120121  1  0  0  0  0
120237  1  0  0  0  0
121122  1  0  0  0  0
121124  1  0  0  0  0
121238  1  1  0  0  0
122123  1  0  0  0  0
122128  2  0  0  0  0
124125  1  0  0  0  0
124239  1  0  0  0  0
124240  1  0  0  0  0
125126  1  0  0  0  0
125127  1  0  0  0  0
125241  1  0  0  0  0
126242  1  0  0  0  0
126243  1  0  0  0  0
126244  1  0  0  0  0
127245  1  0  0  0  0
127246  1  0  0  0  0
127247  1  0  0  0  0
M  CHG  5   1   1  73  -1  87  -1 107  -1 123  -1
M  END
