2fov_ligand
 OpenBabel08222323343D

 40 41  0  0  0  0  0  0  0  0999 V2000
   -5.9240    1.0070   16.8970 S   0  0  0  0  0  0  0  0  0  0  0  0
   -5.3560    1.1510   18.2080 O   0  0  0  0  0  0  0  0  0  0  0  0
   -7.3580    1.1080   16.7330 O   0  0  0  0  0  0  0  0  0  0  0  0
   -5.4020   -0.3530   16.2130 N   0  0  0  0  0  0  0  0  0  0  0  0
   -4.1630    4.5280   14.5650 C   0  0  0  0  0  0  0  0  0  0  0  0
   -3.3580    3.4720   14.9930 C   0  0  0  0  0  0  0  0  0  0  0  0
   -3.9010    2.4130   15.6930 C   0  0  0  0  0  0  0  0  0  0  0  0
   -5.2540    2.3560   15.9480 C   0  0  0  0  0  0  0  0  0  0  0  0
   -6.0430    3.4210   15.5440 C   0  0  0  0  0  0  0  0  0  0  0  0
   -5.5120    4.4820   14.8360 C   0  0  0  0  0  0  0  0  0  0  0  0
   -3.6020    5.6860   13.8060 C   0  0  0  0  0  0  0  0  0  0  0  0
   -4.3320    6.6850   13.6490 O   0  0  0  0  0  0  0  0  0  0  0  0
   -2.3660    5.5760   13.3430 N   0  0  0  0  0  0  0  0  0  0  0  0
   -1.7640    6.4580   12.2910 C   0  0  0  0  0  0  0  0  0  0  0  0
   -0.8150    5.6500   11.3520 C   0  0  0  0  0  0  0  0  0  0  0  0
   -1.3150    5.2210   10.0830 N   0  0  0  0  0  0  0  0  0  0  0  0
   -2.6970    5.3020    9.6580 C   0  0  0  0  0  0  0  0  0  0  0  0
   -3.6350    4.4450   10.4730 C   0  0  0  0  0  0  0  0  0  0  0  0
   -4.8210    4.7490   10.5300 O   0  0  0  0  0  0  0  0  0  0  0  0
   -3.1060    3.4730   11.0350 O   0  0  0  0  0  0  0  0  0  0  0  0
   -0.4260    4.7120    9.0440 C   0  0  0  0  0  0  0  0  0  0  0  0
    0.7970    4.0460    9.6330 C   0  0  0  0  0  0  0  0  0  0  0  0
    0.6540    2.9120   10.1210 O   0  0  0  0  0  0  0  0  0  0  0  0
    1.8850    4.6500    9.6080 O   0  0  0  0  0  0  0  0  0  0  0  0
   -1.2410    3.2140   10.4440 Cu  0  2  0  0  0  0  0  0  0  0  0  0
   -4.4288   -0.5818   16.2342 H   0  0  0  0  0  0  0  0  0  0  0  0
   -6.0509   -0.9693   15.7667 H   0  0  0  0  0  0  0  0  0  0  0  0
   -2.2964    3.4830   14.7740 H   0  0  0  0  0  0  0  0  0  0  0  0
   -3.2554    1.6170   16.0461 H   0  0  0  0  0  0  0  0  0  0  0  0
   -7.0991    3.4218   15.7886 H   0  0  0  0  0  0  0  0  0  0  0  0
   -6.1596    5.2807   14.4928 H   0  0  0  0  0  0  0  0  0  0  0  0
   -1.7919    4.8509   13.7234 H   0  0  0  0  0  0  0  0  0  0  0  0
   -1.1889    7.2582   12.7798 H   0  0  0  0  0  0  0  0  0  0  0  0
   -2.5713    6.9015   11.6896 H   0  0  0  0  0  0  0  0  0  0  0  0
   -0.5055    4.7484   11.9008 H   0  0  0  0  0  0  0  0  0  0  0  0
    0.0647    6.2813   11.1579 H   0  0  0  0  0  0  0  0  0  0  0  0
   -2.7566    4.9798    8.6079 H   0  0  0  0  0  0  0  0  0  0  0  0
   -3.0244    6.3490    9.7395 H   0  0  0  0  0  0  0  0  0  0  0  0
   -0.1044    5.5498    8.4079 H   0  0  0  0  0  0  0  0  0  0  0  0
   -0.9732    3.9778    8.4345 H   0  0  0  0  0  0  0  0  0  0  0  0
  1  2  2  0  0  0  0
  1  3  2  0  0  0  0
  1  4  1  0  0  0  0
  4 26  1  0  0  0  0
  4 27  1  0  0  0  0
  5 10  1  0  0  0  0
  5 11  1  0  0  0  0
  6  5  2  0  0  0  0
  6 28  1  0  0  0  0
  7  6  1  0  0  0  0
  7 29  1  0  0  0  0
  8  1  1  0  0  0  0
  8  7  2  0  0  0  0
  8  9  1  0  0  0  0
  9 10  2  0  0  0  0
  9 30  1  0  0  0  0
 10 31  1  0  0  0  0
 11 12  2  0  0  0  0
 11 13  1  0  0  0  0
 13 14  1  0  0  0  0
 13 32  1  0  0  0  0
 14 15  1  0  0  0  0
 14 33  1  0  0  0  0
 14 34  1  0  0  0  0
 15 16  1  0  0  0  0
 15 35  1  0  0  0  0
 15 36  1  0  0  0  0
 16 17  1  0  0  0  0
 16 21  1  0  0  0  0
 17 18  1  0  0  0  0
 17 37  1  0  0  0  0
 17 38  1  0  0  0  0
 18 19  2  0  0  0  0
 18 20  1  0  0  0  0
 20 25  1  0  0  0  0
 21 22  1  0  0  0  0
 21 39  1  0  0  0  0
 21 40  1  0  0  0  0
 22 23  1  0  0  0  0
 22 24  2  0  0  0  0
 23 25  1  0  0  0  0
M  CHG  1  25   2
M  END
