2fq6_ligand
 OpenBabel08222323343D

 49 50  0  0  0  0  0  0  0  0999 V2000
   -5.1270   10.4150   46.5930 O   0  0  0  0  0  1  0  0  0  0  0  0
   -5.2470   11.4470   47.6890 P   0  0  0  0  0  0  0  0  0  0  0  0
   -6.6710   11.8790   47.9980 O   0  0  0  0  0  1  0  0  0  0  0  0
   -4.2250   12.5780   47.6870 O   0  0  0  0  0  0  0  0  0  0  0  0
   -4.7970   10.5940   48.9950 O   0  0  0  0  0  0  0  0  0  0  0  0
   -5.5640    9.4520   49.4030 C   0  0  0  0  0  0  0  0  0  0  0  0
   -5.3940    9.1750   50.8900 C   0  0  0  0  0  0  0  0  0  0  0  0
   -4.2730    8.4320   51.2680 C   0  0  0  0  0  0  0  0  0  0  0  0
   -4.0510    8.1090   52.5490 N   0  0  0  0  0  0  0  0  0  0  0  0
   -4.8720    8.5140   53.5410 C   0  0  0  0  0  0  0  0  0  0  0  0
   -4.5600    8.1210   54.9800 C   0  0  0  0  0  0  0  0  0  0  0  0
   -6.0120    9.2590   53.1900 C   0  0  0  0  0  0  0  0  0  0  0  0
   -6.8400    9.6580   54.1850 O   0  0  0  0  0  0  0  0  0  0  0  0
   -6.2680    9.6620   51.8630 C   0  0  0  0  0  0  0  0  0  0  0  0
   -7.5940   10.3710   51.5890 C   0  0  0  0  0  0  0  0  0  0  0  0
   -8.2890   11.4700   51.5470 N   0  0  0  0  0  0  0  0  0  0  0  0
   -9.6830   11.0410   51.3780 N   0  0  0  0  0  0  0  0  0  0  0  0
  -10.7860   10.9270   52.2940 C   0  0  0  0  0  0  0  0  0  0  0  0
  -11.0030   11.2870   53.4730 O   0  0  0  0  0  0  0  0  0  0  0  0
  -11.9590   10.2640   51.6270 C   0  0  0  0  0  0  0  0  0  0  0  0
  -11.8030    9.5710   50.3610 N   0  0  0  0  0  0  0  0  0  0  0  0
  -12.5160    8.4250   50.0390 C   0  0  0  0  0  0  0  0  0  0  0  0
  -13.3070    7.8160   50.8070 O   0  0  0  0  0  0  0  0  0  0  0  0
  -12.3430    7.8480   48.6860 C   0  0  0  0  0  0  0  0  0  0  0  0
  -12.6630    8.6460   47.5870 C   0  0  0  0  0  0  0  0  0  0  0  0
  -13.2370    9.9650   47.7660 C   0  0  0  0  0  0  0  0  0  0  0  0
  -14.4590    9.8380   48.3210 F   0  0  0  0  0  0  0  0  0  0  0  0
  -13.3320   10.6030   46.5930 F   0  0  0  0  0  0  0  0  0  0  0  0
  -12.6000   10.7310   48.5900 F   0  0  0  0  0  0  0  0  0  0  0  0
  -11.8080    6.5840   48.4780 C   0  0  0  0  0  0  0  0  0  0  0  0
  -11.6570    6.1290   47.1500 C   0  0  0  0  0  0  0  0  0  0  0  0
  -11.9850    6.9320   46.0780 C   0  0  0  0  0  0  0  0  0  0  0  0
  -12.5230    8.2000   46.2760 C   0  0  0  0  0  0  0  0  0  0  0  0
   -5.2280    8.5726   48.8339 H   0  0  0  0  0  0  0  0  0  0  0  0
   -6.6271    9.6405   49.1928 H   0  0  0  0  0  0  0  0  0  0  0  0
   -3.5686    8.1103   50.5094 H   0  0  0  0  0  0  0  0  0  0  0  0
   -5.3295    8.5350   55.6482 H   0  0  0  0  0  0  0  0  0  0  0  0
   -3.5749    8.5199   55.2637 H   0  0  0  0  0  0  0  0  0  0  0  0
   -4.5505    7.0245   55.0668 H   0  0  0  0  0  0  0  0  0  0  0  0
   -7.1733    8.8954   54.6430 H   0  0  0  0  0  0  0  0  0  0  0  0
   -8.2828    9.5841   51.2853 H   0  0  0  0  0  0  0  0  0  0  0  0
   -9.9104   10.7757   50.4410 H   0  0  0  0  0  0  0  0  0  0  0  0
  -12.7114   11.0495   51.4634 H   0  0  0  0  0  0  0  0  0  0  0  0
  -12.3497    9.5253   52.3423 H   0  0  0  0  0  0  0  0  0  0  0  0
  -11.1542    9.9349   49.6927 H   0  0  0  0  0  0  0  0  0  0  0  0
  -11.5133    5.9614   49.3150 H   0  0  0  0  0  0  0  0  0  0  0  0
  -11.2763    5.1302   46.9698 H   0  0  0  0  0  0  0  0  0  0  0  0
  -11.8218    6.5711   45.0689 H   0  0  0  0  0  0  0  0  0  0  0  0
  -12.8227    8.8190   45.4381 H   0  0  0  0  0  0  0  0  0  0  0  0
  1  2  1  0  0  0  0
  2  3  1  0  0  0  0
  2  4  2  0  0  0  0
  2  5  1  0  0  0  0
  5  6  1  0  0  0  0
  6  7  1  0  0  0  0
  6 34  1  0  0  0  0
  6 35  1  0  0  0  0
  7  8  2  0  0  0  0
  7 14  1  0  0  0  0
  8  9  1  0  0  0  0
  8 36  1  0  0  0  0
  9 10  2  0  0  0  0
 10 11  1  0  0  0  0
 10 12  1  0  0  0  0
 11 37  1  0  0  0  0
 11 38  1  0  0  0  0
 11 39  1  0  0  0  0
 12 13  1  0  0  0  0
 12 14  2  0  0  0  0
 13 40  1  0  0  0  0
 14 15  1  0  0  0  0
 15 16  2  0  0  0  0
 15 41  1  0  0  0  0
 16 17  1  0  0  0  0
 17 18  1  0  0  0  0
 17 42  1  0  0  0  0
 18 19  2  0  0  0  0
 18 20  1  0  0  0  0
 20 21  1  0  0  0  0
 20 43  1  0  0  0  0
 20 44  1  0  0  0  0
 21 22  1  0  0  0  0
 21 45  1  0  0  0  0
 22 23  2  0  0  0  0
 22 24  1  0  0  0  0
 24 25  2  0  0  0  0
 24 30  1  0  0  0  0
 25 26  1  0  0  0  0
 25 33  1  0  0  0  0
 26 27  1  0  0  0  0
 26 28  1  0  0  0  0
 26 29  1  0  0  0  0
 30 31  2  0  0  0  0
 30 46  1  0  0  0  0
 31 32  1  0  0  0  0
 31 47  1  0  0  0  0
 32 33  2  0  0  0  0
 32 48  1  0  0  0  0
 33 49  1  0  0  0  0
M  END
