2frd_ligand
 OpenBabel08222323343D

 70 74  0  0  1  0  0  0  0  0999 V2000
   -7.6530    6.4030   25.2500 O   0  0  0  0  0  0  0  0  0  0  0  0
   -7.7190    6.4160   26.8630 P   0  0  1  0  0  0  0  0  0  0  0  0
   -6.9600    5.2840   27.4450 O   0  0  0  0  0  1  0  0  0  0  0  0
   -7.2640    7.7170   27.4120 O   0  0  0  0  0  0  0  0  0  0  0  0
   -9.2940    6.2150   27.1210 O   0  0  0  0  0  0  0  0  0  0  0  0
   -9.9500    5.0970   26.5680 C   0  0  0  0  0  0  0  0  0  0  0  0
  -11.1040    5.4780   25.6390 C   0  0  1  0  0  0  0  0  0  0  0  0
  -12.2340    5.7990   26.4200 O   0  0  0  0  0  0  0  0  0  0  0  0
  -10.8840    6.6600   24.7010 C   0  0  1  0  0  0  0  0  0  0  0  0
  -10.8950    6.2050   23.3750 O   0  0  0  0  0  0  0  0  0  0  0  0
  -12.0490    7.5960   24.9260 C   0  0  1  0  0  0  0  0  0  0  0  0
  -12.6700    7.9400   23.7120 O   0  0  0  0  0  0  0  0  0  0  0  0
  -13.0000    6.8190   25.8200 C   0  0  2  0  0  0  0  0  0  0  0  0
  -13.6390    7.6290   26.8800 N   0  0  0  0  0  0  0  0  0  0  0  0
  -13.0350    8.4320   27.8180 C   0  0  0  0  0  0  0  0  0  0  0  0
  -13.9940    8.9760   28.6070 N   0  0  0  0  0  0  0  0  0  0  0  0
  -15.2040    8.5200   28.1990 C   0  0  0  0  0  0  0  0  0  0  0  0
  -16.5120    8.7370   28.6450 C   0  0  0  0  0  0  0  0  0  0  0  0
  -16.7400    9.4820   29.7220 N   0  0  0  0  0  0  0  0  0  0  0  0
  -17.5690    8.1090   28.0040 N   0  0  0  0  0  0  0  0  0  0  0  0
  -17.3260    7.2710   26.9300 C   0  0  0  0  0  0  0  0  0  0  0  0
  -16.0310    7.0610   26.4990 N   0  0  0  0  0  0  0  0  0  0  0  0
  -14.9890    7.6700   27.1190 C   0  0  0  0  0  0  0  0  0  0  0  0
   -6.6880    5.4570   24.3710 P   0  0  2  0  0  0  0  0  0  0  0  0
   -7.3310    4.1470   24.1520 O   0  0  0  0  0  1  0  0  0  0  0  0
   -5.3160    5.5110   24.9200 O   0  0  0  0  0  0  0  0  0  0  0  0
   -6.7100    6.2550   22.9780 O   0  0  0  0  0  0  0  0  0  0  0  0
   -7.9180    6.5970   22.3400 C   0  0  0  0  0  0  0  0  0  0  0  0
   -7.6220    6.9500   20.8890 C   0  0  1  0  0  0  0  0  0  0  0  0
   -6.4040    7.6710   20.8190 O   0  0  0  0  0  0  0  0  0  0  0  0
   -7.4740    5.7110   20.0120 C   0  0  1  0  0  0  0  0  0  0  0  0
   -8.5890    5.5400   19.1630 O   0  0  0  0  0  0  0  0  0  0  0  0
   -6.2030    5.9340   19.2140 C   0  0  1  0  0  0  0  0  0  0  0  0
   -6.4690    6.0220   17.8330 O   0  0  0  0  0  0  0  0  0  0  0  0
   -5.6130    7.2440   19.7250 C   0  0  2  0  0  0  0  0  0  0  0  0
   -4.1980    7.0350   20.1060 N   0  0  0  0  0  0  0  0  0  0  0  0
   -3.2100    7.6440   19.3740 C   0  0  0  0  0  3  0  0  0  0  0  0
   -1.8690    7.4550   19.7060 C   0  0  0  0  0  0  0  0  0  0  0  0
   -0.8020    8.0780   18.8440 C   0  0  0  0  0  0  0  0  0  0  0  0
   -1.0960    8.4000   17.5010 O   0  0  0  0  0  0  0  0  0  0  0  0
    0.4060    8.3230   19.3440 N   0  0  0  0  0  0  0  0  0  0  0  0
   -1.5460    6.6350   20.7880 C   0  0  0  0  0  0  0  0  0  0  0  0
   -2.5530    6.0190   21.5210 C   0  0  0  0  0  0  0  0  0  0  0  0
   -3.8810    6.2280   21.1690 C   0  0  0  0  0  0  0  0  0  0  0  0
  -10.3494    4.4837   27.3892 H   0  0  0  0  0  0  0  0  0  0  0  0
   -9.2179    4.5097   25.9943 H   0  0  0  0  0  0  0  0  0  0  0  0
  -11.3268    4.5968   25.0195 H   0  0  0  0  0  0  0  0  0  0  0  0
   -9.9309    7.1631   24.9214 H   0  0  0  0  0  0  0  0  0  0  0  0
  -10.7581    6.9395   22.7882 H   0  0  0  0  0  0  0  0  0  0  0  0
  -11.7109    8.5132   25.4304 H   0  0  0  0  0  0  0  0  0  0  0  0
  -12.9915    7.1530   23.2879 H   0  0  0  0  0  0  0  0  0  0  0  0
  -13.7919    6.3769   25.1976 H   0  0  0  0  0  0  0  0  0  0  0  0
  -11.9636    8.6029   27.9118 H   0  0  0  0  0  0  0  0  0  0  0  0
  -17.7054    9.6380   30.0453 H   0  0  0  0  0  0  0  0  0  0  0  0
  -15.9513    9.9033   30.2332 H   0  0  0  0  0  0  0  0  0  0  0  0
  -18.1514    6.7799   26.4275 H   0  0  0  0  0  0  0  0  0  0  0  0
   -8.3717    7.4620   22.8460 H   0  0  0  0  0  0  0  0  0  0  0  0
   -8.6115    5.7440   22.3791 H   0  0  0  0  0  0  0  0  0  0  0  0
   -8.4433    7.5704   20.5009 H   0  0  0  0  0  0  0  0  0  0  0  0
   -7.3694    4.8158   20.6427 H   0  0  0  0  0  0  0  0  0  0  0  0
   -8.6753    6.2993   18.5986 H   0  0  0  0  0  0  0  0  0  0  0  0
   -5.4995    5.1072   19.3916 H   0  0  0  0  0  0  0  0  0  0  0  0
   -6.8725    5.2144   17.5373 H   0  0  0  0  0  0  0  0  0  0  0  0
   -5.6563    8.0039   18.9308 H   0  0  0  0  0  0  0  0  0  0  0  0
   -3.4734    8.2754   18.5332 H   0  0  0  0  0  0  0  0  0  0  0  0
    1.1111    8.7367   18.7680 H   0  0  0  0  0  0  0  0  0  0  0  0
    0.6091    8.0935   20.2959 H   0  0  0  0  0  0  0  0  0  0  0  0
   -0.5077    6.4783   21.0571 H   0  0  0  0  0  0  0  0  0  0  0  0
   -2.3046    5.3803   22.3609 H   0  0  0  0  0  0  0  0  0  0  0  0
   -4.6708    5.7506   21.7376 H   0  0  0  0  0  0  0  0  0  0  0  0
  1  2  1  0  0  0  0
  1 24  1  0  0  0  0
  2  3  1  1  0  0  0
  2  4  2  0  0  0  0
  2  5  1  0  0  0  0
  5  6  1  0  0  0  0
  6  7  1  0  0  0  0
  6 45  1  0  0  0  0
  6 46  1  0  0  0  0
  7  8  1  0  0  0  0
  7  9  1  0  0  0  0
  7 47  1  6  0  0  0
  8 13  1  0  0  0  0
  9 10  1  0  0  0  0
  9 11  1  0  0  0  0
  9 48  1  1  0  0  0
 10 49  1  0  0  0  0
 11 12  1  0  0  0  0
 11 13  1  0  0  0  0
 11 50  1  1  0  0  0
 12 51  1  0  0  0  0
 13 14  1  0  0  0  0
 13 52  1  6  0  0  0
 14 15  1  0  0  0  0
 14 23  1  0  0  0  0
 15 16  2  0  0  0  0
 15 53  1  0  0  0  0
 16 17  1  0  0  0  0
 17 18  2  0  0  0  0
 17 23  1  0  0  0  0
 18 19  1  0  0  0  0
 18 20  1  0  0  0  0
 19 54  1  0  0  0  0
 19 55  1  0  0  0  0
 20 21  2  0  0  0  0
 21 22  1  0  0  0  0
 21 56  1  0  0  0  0
 22 23  2  0  0  0  0
 24 25  1  6  0  0  0
 24 26  2  0  0  0  0
 24 27  1  0  0  0  0
 27 28  1  0  0  0  0
 28 29  1  0  0  0  0
 28 57  1  0  0  0  0
 28 58  1  0  0  0  0
 29 30  1  0  0  0  0
 29 31  1  0  0  0  0
 29 59  1  6  0  0  0
 30 35  1  0  0  0  0
 31 32  1  0  0  0  0
 31 33  1  0  0  0  0
 31 60  1  1  0  0  0
 32 61  1  0  0  0  0
 33 34  1  0  0  0  0
 33 35  1  0  0  0  0
 33 62  1  1  0  0  0
 34 63  1  0  0  0  0
 35 36  1  0  0  0  0
 35 64  1  6  0  0  0
 36 37  1  0  0  0  0
 36 44  1  0  0  0  0
 37 38  1  0  0  0  0
 37 65  1  0  0  0  0
 38 39  1  0  0  0  0
 38 42  2  0  0  0  0
 39 40  2  0  0  0  0
 39 41  1  0  0  0  0
 41 66  1  0  0  0  0
 41 67  1  0  0  0  0
 42 43  1  0  0  0  0
 42 68  1  0  0  0  0
 43 44  2  0  0  0  0
 43 69  1  0  0  0  0
 44 70  1  0  0  0  0
M  END
