2fsa_ligand
 OpenBabel08222323343D

111110  0  0  1  0  0  0  0  0999 V2000
   30.1760    9.4900   63.9610 N   0  3  0  0  0  0  0  0  0  0  0  0
   30.5030    9.8690   62.5550 C   0  0  2  0  0  0  0  0  0  0  0  0
   31.9200   10.4140   62.4600 C   0  0  0  0  0  0  0  0  0  0  0  0
   32.3870   11.1140   63.3600 O   0  0  0  0  0  0  0  0  0  0  0  0
   29.5130   10.9090   62.0570 C   0  0  0  0  0  0  0  0  0  0  0  0
   32.6040   10.0890   61.3680 N   0  0  0  0  0  0  0  0  0  0  0  0
   33.9660   10.5550   61.1500 C   0  0  2  0  0  0  0  0  0  0  0  0
   33.8990   11.9670   60.5760 C   0  0  0  0  0  0  0  0  0  0  0  0
   33.0780   12.2490   59.7000 O   0  0  0  0  0  0  0  0  0  0  0  0
   34.6930    9.6110   60.1900 C   0  0  0  0  0  0  0  0  0  0  0  0
   34.8300    8.1900   60.7330 C   0  0  0  0  0  0  0  0  0  0  0  0
   35.2910    7.2000   59.6630 C   0  0  0  0  0  0  0  0  0  0  0  0
   34.3420    7.1250   58.5550 N   0  0  0  0  0  0  0  0  0  0  0  0
   34.5310    7.6880   57.3640 C   0  0  0  0  0  3  0  0  0  0  0  0
   35.6430    8.3680   57.1150 N   0  0  0  0  0  0  0  0  0  0  0  0
   33.5940    7.5890   56.4280 N   0  0  0  0  0  0  0  0  0  0  0  0
   34.7590   12.8520   61.0700 N   0  0  0  0  0  0  0  0  0  0  0  0
   34.7570   14.2400   60.6190 C   0  0  2  0  0  0  0  0  0  0  0  0
   36.1450   14.8620   60.5450 C   0  0  0  0  0  0  0  0  0  0  0  0
   37.1150   14.3150   61.0640 O   0  0  0  0  0  0  0  0  0  0  0  0
   33.9280   15.1210   61.5740 C   0  0  2  0  0  0  0  0  0  0  0  0
   34.5290   15.0950   62.8770 O   0  0  0  0  0  0  0  0  0  0  0  0
   32.4950   14.6200   61.6740 C   0  0  0  0  0  0  0  0  0  0  0  0
   36.2220   16.0160   59.8890 N   0  0  0  0  0  0  0  0  0  0  0  0
   37.4630   16.7730   59.7790 C   0  0  1  0  0  0  0  0  0  0  0  0
   37.9710   16.8240   58.3350 C   0  0  0  0  0  0  0  0  0  0  0  0
   38.5430   15.5160   57.8140 C   0  0  0  0  0  0  0  0  0  0  0  0
   39.2010   15.7200   56.4620 C   0  0  0  0  0  0  0  0  0  0  0  0
   39.6880   14.4060   55.8740 C   0  0  0  0  0  0  0  0  0  0  0  0
   40.4120   14.6140   54.6140 N   0  3  0  0  0  0  0  0  0  0  0  0
   40.9690   13.3550   54.1000 C   0  0  0  0  0  0  0  0  0  0  0  0
   39.6140   15.2740   53.5740 C   0  0  0  0  0  0  0  0  0  0  0  0
   37.1340   18.1830   60.2490 C   0  0  0  0  0  0  0  0  0  0  0  0
   36.2090   18.8140   59.7300 O   0  0  0  0  0  0  0  0  0  0  0  0
   37.8760   18.6640   61.2440 N   0  0  0  0  0  0  0  0  0  0  0  0
   37.6580   20.0040   61.7840 C   0  0  2  0  0  0  0  0  0  0  0  0
   38.8920   20.8730   61.5990 C   0  0  0  0  0  0  0  0  0  0  0  0
   39.9920   20.3670   61.3780 O   0  0  0  0  0  0  0  0  0  0  0  0
   37.3340   19.9480   63.2790 C   0  0  0  0  0  0  0  0  0  0  0  0
   36.1580   19.0800   63.6530 C   0  0  0  0  0  0  0  0  0  0  0  0
   36.5190   17.6100   63.7660 C   0  0  0  0  0  0  0  0  0  0  0  0
   36.8790   16.9660   62.7810 O   0  0  0  0  0  0  0  0  0  0  0  0
   36.4220   17.0710   64.9750 N   0  0  0  0  0  0  0  0  0  0  0  0
   38.7010   22.1830   61.7110 N   0  0  0  0  0  0  0  0  0  0  0  0
   39.7860   23.1430   61.5670 C   0  0  2  0  0  0  0  0  0  0  0  0
   40.8630   22.9270   62.6220 C   0  0  0  0  0  0  0  0  0  0  0  0
   40.6370   22.1090   63.5410 O   0  0  0  0  0  0  0  0  0  0  0  0
   39.2670   24.5870   61.6980 C   0  0  2  0  0  0  0  0  0  0  0  0
   40.3770   25.4930   61.7080 O   0  0  0  0  0  0  0  0  0  0  0  0
   38.4700   24.7530   62.9850 C   0  0  0  0  0  0  0  0  0  0  0  0
   42.0141   23.5910   62.5676 O   0  0  0  0  0  0  0  0  0  0  0  0
   29.2346    9.1320   64.0022 H   0  0  0  0  0  0  0  0  0  0  0  0
   30.2531   10.3012   64.5543 H   0  0  0  0  0  0  0  0  0  0  0  0
   30.8193    8.7808   64.2761 H   0  0  0  0  0  0  0  0  0  0  0  0
   30.4267    8.9732   61.9212 H   0  0  0  0  0  0  0  0  0  0  0  0
   29.7598   11.1835   61.0208 H   0  0  0  0  0  0  0  0  0  0  0  0
   29.5675   11.8027   62.6960 H   0  0  0  0  0  0  0  0  0  0  0  0
   28.4952   10.4935   62.0937 H   0  0  0  0  0  0  0  0  0  0  0  0
   32.1717    9.5089   60.6776 H   0  0  0  0  0  0  0  0  0  0  0  0
   34.5054   10.5763   62.1084 H   0  0  0  0  0  0  0  0  0  0  0  0
   35.6998   10.0117   60.0010 H   0  0  0  0  0  0  0  0  0  0  0  0
   34.1307    9.5717   59.2454 H   0  0  0  0  0  0  0  0  0  0  0  0
   33.8531    7.8635   61.1191 H   0  0  0  0  0  0  0  0  0  0  0  0
   35.5651    8.1937   61.5512 H   0  0  0  0  0  0  0  0  0  0  0  0
   35.3886    6.2030   60.1174 H   0  0  0  0  0  0  0  0  0  0  0  0
   36.2681    7.5233   59.2748 H   0  0  0  0  0  0  0  0  0  0  0  0
   33.4680    6.6013   58.7056 H   0  0  0  0  0  0  0  0  0  0  0  0
   35.7854    8.8022   56.1919 H   0  0  0  0  0  0  0  0  0  0  0  0
   36.3638    8.4616   57.8448 H   0  0  0  0  0  0  0  0  0  0  0  0
   32.7298    7.0619   56.6182 H   0  0  0  0  0  0  0  0  0  0  0  0
   33.7316    8.0393   55.5119 H   0  0  0  0  0  0  0  0  0  0  0  0
   35.4190   12.5616   61.7629 H   0  0  0  0  0  0  0  0  0  0  0  0
   34.3057   14.2680   59.6162 H   0  0  0  0  0  0  0  0  0  0  0  0
   33.9213   16.1536   61.1950 H   0  0  0  0  0  0  0  0  0  0  0  0
   35.4242   15.4074   62.8179 H   0  0  0  0  0  0  0  0  0  0  0  0
   31.9279   15.2659   62.3604 H   0  0  0  0  0  0  0  0  0  0  0  0
   32.4930   13.5883   62.0556 H   0  0  0  0  0  0  0  0  0  0  0  0
   32.0280   14.6436   60.6784 H   0  0  0  0  0  0  0  0  0  0  0  0
   35.3974   16.3784   59.4546 H   0  0  0  0  0  0  0  0  0  0  0  0
   38.2355   16.3240   60.4206 H   0  0  0  0  0  0  0  0  0  0  0  0
   38.7588   17.5894   58.2762 H   0  0  0  0  0  0  0  0  0  0  0  0
   37.1305   17.1123   57.6865 H   0  0  0  0  0  0  0  0  0  0  0  0
   37.7307   14.7812   57.7131 H   0  0  0  0  0  0  0  0  0  0  0  0
   39.2915   15.1397   58.5268 H   0  0  0  0  0  0  0  0  0  0  0  0
   40.0591   16.3978   56.5810 H   0  0  0  0  0  0  0  0  0  0  0  0
   38.4707   16.1704   55.7737 H   0  0  0  0  0  0  0  0  0  0  0  0
   38.8208   13.7564   55.6845 H   0  0  0  0  0  0  0  0  0  0  0  0
   40.3602   13.9191   56.5958 H   0  0  0  0  0  0  0  0  0  0  0  0
   41.1866   15.2244   54.8222 H   0  0  0  0  0  0  0  0  0  0  0  0
   41.5030   13.5480   53.1579 H   0  0  0  0  0  0  0  0  0  0  0  0
   40.1530   12.6399   53.9191 H   0  0  0  0  0  0  0  0  0  0  0  0
   41.6679   12.9348   54.8382 H   0  0  0  0  0  0  0  0  0  0  0  0
   39.2023   16.2144   53.9693 H   0  0  0  0  0  0  0  0  0  0  0  0
   38.7897   14.6125   53.2691 H   0  0  0  0  0  0  0  0  0  0  0  0
   40.2518   15.4899   52.7042 H   0  0  0  0  0  0  0  0  0  0  0  0
   38.6006   18.0941   61.6315 H   0  0  0  0  0  0  0  0  0  0  0  0
   36.8124   20.4622   61.2501 H   0  0  0  0  0  0  0  0  0  0  0  0
   37.1217   20.9723   63.6191 H   0  0  0  0  0  0  0  0  0  0  0  0
   38.2206   19.5635   63.8045 H   0  0  0  0  0  0  0  0  0  0  0  0
   35.3806   19.1919   62.8829 H   0  0  0  0  0  0  0  0  0  0  0  0
   35.7654   19.4202   64.6226 H   0  0  0  0  0  0  0  0  0  0  0  0
   36.6466   16.1062   65.1118 H   0  0  0  0  0  0  0  0  0  0  0  0
   36.1243   17.6297   65.7491 H   0  0  0  0  0  0  0  0  0  0  0  0
   37.7794   22.5216   61.9009 H   0  0  0  0  0  0  0  0  0  0  0  0
   40.2329   23.0129   60.5703 H   0  0  0  0  0  0  0  0  0  0  0  0
   38.6178   24.8156   60.8399 H   0  0  0  0  0  0  0  0  0  0  0  0
   40.9334   25.3022   62.4540 H   0  0  0  0  0  0  0  0  0  0  0  0
   38.1080   25.7890   63.0611 H   0  0  0  0  0  0  0  0  0  0  0  0
   39.1141   24.5255   63.8471 H   0  0  0  0  0  0  0  0  0  0  0  0
   37.6121   24.0646   62.9764 H   0  0  0  0  0  0  0  0  0  0  0  0
   42.0124   24.1639   61.8097 H   0  0  0  0  0  0  0  0  0  0  0  0
  1 52  1  0  0  0  0
  1 53  1  0  0  0  0
  1 54  1  0  0  0  0
  2  1  1  0  0  0  0
  2  5  1  0  0  0  0
  2 55  1  6  0  0  0
  3  2  1  0  0  0  0
  3  4  2  0  0  0  0
  5 56  1  0  0  0  0
  5 57  1  0  0  0  0
  5 58  1  0  0  0  0
  6  3  1  0  0  0  0
  6 59  1  0  0  0  0
  7  6  1  0  0  0  0
  7 10  1  0  0  0  0
  7 60  1  1  0  0  0
  8  7  1  0  0  0  0
  8  9  2  0  0  0  0
 10 11  1  0  0  0  0
 10 61  1  0  0  0  0
 10 62  1  0  0  0  0
 11 12  1  0  0  0  0
 11 63  1  0  0  0  0
 11 64  1  0  0  0  0
 12 13  1  0  0  0  0
 12 65  1  0  0  0  0
 12 66  1  0  0  0  0
 13 14  1  0  0  0  0
 13 67  1  0  0  0  0
 14 16  1  0  0  0  0
 14 15  1  0  0  0  0
 15 68  1  0  0  0  0
 15 69  1  0  0  0  0
 16 70  1  0  0  0  0
 16 71  1  0  0  0  0
 17  8  1  0  0  0  0
 17 72  1  0  0  0  0
 18 17  1  0  0  0  0
 18 21  1  0  0  0  0
 18 73  1  6  0  0  0
 19 18  1  0  0  0  0
 19 20  2  0  0  0  0
 19 24  1  0  0  0  0
 21 23  1  0  0  0  0
 21 22  1  0  0  0  0
 21 74  1  6  0  0  0
 22 75  1  0  0  0  0
 23 76  1  0  0  0  0
 23 77  1  0  0  0  0
 23 78  1  0  0  0  0
 24 25  1  0  0  0  0
 24 79  1  0  0  0  0
 25 26  1  0  0  0  0
 25 33  1  0  0  0  0
 25 80  1  1  0  0  0
 26 27  1  0  0  0  0
 26 81  1  0  0  0  0
 26 82  1  0  0  0  0
 27 28  1  0  0  0  0
 27 83  1  0  0  0  0
 27 84  1  0  0  0  0
 28 29  1  0  0  0  0
 28 85  1  0  0  0  0
 28 86  1  0  0  0  0
 29 30  1  0  0  0  0
 29 87  1  0  0  0  0
 29 88  1  0  0  0  0
 30 31  1  0  0  0  0
 30 32  1  0  0  0  0
 30 89  1  0  0  0  0
 31 90  1  0  0  0  0
 31 91  1  0  0  0  0
 31 92  1  0  0  0  0
 32 93  1  0  0  0  0
 32 94  1  0  0  0  0
 32 95  1  0  0  0  0
 33 34  2  0  0  0  0
 33 35  1  0  0  0  0
 35 36  1  0  0  0  0
 35 96  1  0  0  0  0
 36 39  1  0  0  0  0
 36 37  1  0  0  0  0
 36 97  1  6  0  0  0
 37 38  2  0  0  0  0
 37 44  1  0  0  0  0
 39 40  1  0  0  0  0
 39 98  1  0  0  0  0
 39 99  1  0  0  0  0
 40 41  1  0  0  0  0
 40100  1  0  0  0  0
 40101  1  0  0  0  0
 41 43  1  0  0  0  0
 41 42  2  0  0  0  0
 43102  1  0  0  0  0
 43103  1  0  0  0  0
 44 45  1  0  0  0  0
 44104  1  0  0  0  0
 45 48  1  0  0  0  0
 45 46  1  0  0  0  0
 45105  1  6  0  0  0
 46 47  2  0  0  0  0
 46 51  1  0  0  0  0
 48 50  1  0  0  0  0
 48 49  1  0  0  0  0
 48106  1  6  0  0  0
 49107  1  0  0  0  0
 50108  1  0  0  0  0
 50109  1  0  0  0  0
 50110  1  0  0  0  0
 51111  1  0  0  0  0
M  CHG  2   1   1  30   1
M  END
