2fts_ligand
 OpenBabel08222323343D

211213  0  0  1  0  0  0  0  0999 V2000
   15.8030   33.5480  -29.0570 N   0  3  0  0  0  0  0  0  0  0  0  0
   14.6230   32.6200  -28.9180 C   0  0  2  0  0  0  0  0  0  0  0  0
   14.2520   32.4160  -27.4500 C   0  0  0  0  0  0  0  0  0  0  0  0
   15.1310   32.1840  -26.5990 O   0  0  0  0  0  0  0  0  0  0  0  0
   14.9370   31.2480  -29.5500 C   0  0  0  0  0  0  0  0  0  0  0  0
   13.8550   30.2090  -29.3290 C   0  0  0  0  0  0  0  0  0  0  0  0
   12.7690   30.1170  -30.1910 C   0  0  0  0  0  0  0  0  0  0  0  0
   13.9220   29.3370  -28.2590 C   0  0  0  0  0  0  0  0  0  0  0  0
   11.7740   29.1770  -29.9840 C   0  0  0  0  0  0  0  0  0  0  0  0
   12.9280   28.4010  -28.0590 C   0  0  0  0  0  0  0  0  0  0  0  0
   11.8500   28.3270  -28.9390 C   0  0  0  0  0  0  0  0  0  0  0  0
   12.9600   32.4860  -27.1580 N   0  0  0  0  0  0  0  0  0  0  0  0
   12.4720   32.2170  -25.8160 C   0  0  2  0  0  0  0  0  0  0  0  0
   11.1800   31.3720  -25.8860 C   0  0  0  0  0  0  0  0  0  0  0  0
   10.3500   31.5830  -26.7780 O   0  0  0  0  0  0  0  0  0  0  0  0
   12.2080   33.5480  -25.0860 C   0  0  0  0  0  0  0  0  0  0  0  0
   11.9130   33.3450  -23.7140 O   0  0  0  0  0  0  0  0  0  0  0  0
   11.0390   30.3910  -24.9780 N   0  0  0  0  0  0  0  0  0  0  0  0
    9.7460   29.6630  -24.8310 C   0  0  2  0  0  0  0  0  0  0  0  0
    8.8740   30.3160  -23.7490 C   0  0  0  0  0  0  0  0  0  0  0  0
    7.9050   29.7230  -23.2810 O   0  0  0  0  0  0  0  0  0  0  0  0
    9.8790   28.1250  -24.5280 C   0  0  2  0  0  0  0  0  0  0  0  0
   10.7440   27.8850  -23.2950 C   0  0  0  0  0  0  0  0  0  0  0  0
   10.4010   27.3620  -25.7380 C   0  0  0  0  0  0  0  0  0  0  0  0
   10.6730   26.5260  -22.8770 C   0  0  0  0  0  0  0  0  0  0  0  0
    9.2480   31.5220  -23.3420 N   0  0  0  0  0  0  0  0  0  0  0  0
    8.4520   32.3130  -22.4350 C   0  0  2  0  0  0  0  0  0  0  0  0
    7.8400   33.4190  -23.2640 C   0  0  0  0  0  0  0  0  0  0  0  0
    8.5170   34.0170  -24.1040 O   0  0  0  0  0  0  0  0  0  0  0  0
    9.3080   32.9030  -21.2830 C   0  0  0  0  0  0  0  0  0  0  0  0
    8.4390   33.7730  -20.3410 C   0  0  0  0  0  0  0  0  0  0  0  0
    9.9890   31.7780  -20.5170 C   0  0  0  0  0  0  0  0  0  0  0  0
    6.5610   33.6810  -23.0330 N   0  0  0  0  0  0  0  0  0  0  0  0
    5.8420   34.6920  -23.7730 C   0  0  0  0  0  0  0  0  0  0  0  0
    6.3500   36.1120  -23.5770 C   0  0  0  0  0  0  0  0  0  0  0  0
    6.8680   36.4670  -22.5050 O   0  0  0  0  0  0  0  0  0  0  0  0
    6.1970   36.9360  -24.6160 N   0  0  0  0  0  0  0  0  0  0  0  0
    6.6060   38.3390  -24.5440 C   0  0  2  0  0  0  0  0  0  0  0  0
    5.4040   39.2350  -24.2920 C   0  0  0  0  0  0  0  0  0  0  0  0
    4.2550   38.8500  -24.5250 O   0  0  0  0  0  0  0  0  0  0  0  0
    7.3440   38.7640  -25.8210 C   0  0  0  0  0  0  0  0  0  0  0  0
    6.4810   38.8120  -26.9360 O   0  0  0  0  0  0  0  0  0  0  0  0
    5.6800   40.4310  -23.7820 N   0  0  0  0  0  0  0  0  0  0  0  0
    4.6300   41.4320  -23.5340 C   0  0  2  0  0  0  0  0  0  0  0  0
    4.2310   42.0830  -24.8520 C   0  0  0  0  0  0  0  0  0  0  0  0
    5.0430   42.1460  -25.7880 O   0  0  0  0  0  0  0  0  0  0  0  0
    5.1280   42.5080  -22.5650 C   0  0  0  0  0  0  0  0  0  0  0  0
    5.4970   42.0400  -21.1510 C   0  0  0  0  0  0  0  0  0  0  0  0
    6.5360   42.9550  -20.5450 C   0  0  0  0  0  0  0  0  0  0  0  0
    4.2630   41.9230  -20.2500 C   0  0  0  0  0  0  0  0  0  0  0  0
    2.9870   42.5640  -24.9420 N   0  0  0  0  0  0  0  0  0  0  0  0
    2.5680   43.2980  -26.1370 C   0  0  2  0  0  0  0  0  0  0  0  0
    3.4580   44.5510  -26.4130 C   0  0  0  0  0  0  0  0  0  0  0  0
    3.5050   45.0400  -27.5590 O   0  0  0  0  0  0  0  0  0  0  0  0
    1.1200   43.6970  -25.8160 C   0  0  0  0  0  0  0  0  0  0  0  0
    0.6830   42.7580  -24.7540 C   0  0  0  0  0  0  0  0  0  0  0  0
    1.8970   42.4390  -23.9590 C   0  0  0  0  0  0  0  0  0  0  0  0
    4.1470   45.0440  -25.3600 N   0  0  0  0  0  0  0  0  0  0  0  0
    5.1090   46.1540  -25.4840 C   0  0  2  0  0  0  0  0  0  0  0  0
    6.3110   45.7520  -26.3320 C   0  0  0  0  0  0  0  0  0  0  0  0
    6.7500   46.5190  -27.1780 O   0  0  0  0  0  0  0  0  0  0  0  0
    5.6080   46.6510  -24.1120 C   0  0  0  0  0  0  0  0  0  0  0  0
    6.6890   47.7800  -24.2370 C   0  0  0  0  0  0  0  0  0  0  0  0
    6.8170   48.6680  -22.9540 C   0  0  0  0  0  0  0  0  0  0  0  0
    7.4300   49.9870  -23.2570 N   0  0  0  0  0  0  0  0  0  0  0  0
    7.4880   51.0240  -22.4050 C   0  0  0  0  0  3  0  0  0  0  0  0
    6.9690   50.9270  -21.1710 N   0  0  0  0  0  0  0  0  0  0  0  0
    8.0640   52.1710  -22.7910 N   0  0  0  0  0  0  0  0  0  0  0  0
    6.8480   44.5540  -26.0980 N   0  0  0  0  0  0  0  0  0  0  0  0
    7.9800   44.0410  -26.8950 C   0  0  2  0  0  0  0  0  0  0  0  0
    7.6210   43.9480  -28.4050 C   0  0  0  0  0  0  0  0  0  0  0  0
    8.5090   43.8520  -29.2670 O   0  0  0  0  0  0  0  0  0  0  0  0
    8.4220   42.6790  -26.3570 C   0  0  0  0  0  0  0  0  0  0  0  0
    8.8560   42.7430  -24.8870 C   0  0  0  0  0  0  0  0  0  0  0  0
    9.4220   43.7870  -24.4810 O   0  5  0  0  0  0  0  0  0  0  0  0
    8.6270   41.7560  -24.1400 O   0  0  0  0  0  0  0  0  0  0  0  0
    6.3170   43.9900  -28.7080 N   0  0  0  0  0  0  0  0  0  0  0  0
    5.8300   44.0080  -30.0860 C   0  0  2  0  0  0  0  0  0  0  0  0
    5.9810   45.4070  -30.7490 C   0  0  0  0  0  0  0  0  0  0  0  0
    5.7290   45.5390  -31.9430 O   0  0  0  0  0  0  0  0  0  0  0  0
    4.3670   43.5380  -30.1400 C   0  0  0  0  0  0  0  0  0  0  0  0
    3.8850   43.2400  -31.5150 C   0  0  0  0  0  0  0  0  0  0  0  0
    4.4590   42.2100  -32.2520 C   0  0  0  0  0  0  0  0  0  0  0  0
    2.8590   43.9870  -32.0890 C   0  0  0  0  0  0  0  0  0  0  0  0
    4.0240   41.9280  -33.5350 C   0  0  0  0  0  0  0  0  0  0  0  0
    2.4150   43.7160  -33.3850 C   0  0  0  0  0  0  0  0  0  0  0  0
    2.9890   42.6860  -34.1030 C   0  0  0  0  0  0  0  0  0  0  0  0
    6.3990   46.4320  -29.9700 N   0  0  0  0  0  0  0  0  0  0  0  0
    6.6840   47.8130  -30.5000 C   0  0  2  0  0  0  0  0  0  0  0  0
    7.7690   47.8350  -31.5990 C   0  0  0  0  0  0  0  0  0  0  0  0
    7.8420   48.7920  -32.3760 O   0  0  0  0  0  0  0  0  0  0  0  0
    7.1040   48.7620  -29.3750 C   0  0  0  0  0  0  0  0  0  0  0  0
    8.4800   48.4520  -28.7420 C   0  0  0  0  0  0  0  0  0  0  0  0
    8.7260   49.2670  -27.4640 C   0  0  0  0  0  0  0  0  0  0  0  0
    8.4350   50.4900  -27.4600 O   0  5  0  0  0  0  0  0  0  0  0  0
    9.2110   48.6830  -26.4650 O   0  0  0  0  0  0  0  0  0  0  0  0
    8.6310   46.8060  -31.6170 N   0  0  0  0  0  0  0  0  0  0  0  0
    9.6250   46.5970  -32.6980 C   0  0  2  0  0  0  0  0  0  0  0  0
   10.1240   45.1380  -32.6990 C   0  0  0  0  0  0  0  0  0  0  0  0
    9.8070   44.3510  -31.7890 O   0  0  0  0  0  0  0  0  0  0  0  0
   10.8210   47.5750  -32.5920 C   0  0  0  0  0  0  0  0  0  0  0  0
   10.7300   48.9540  -33.2940 C   0  0  0  0  0  0  0  0  0  0  0  0
   11.9550   49.8180  -32.9540 C   0  0  0  0  0  0  0  0  0  0  0  0
   10.5610   48.8150  -34.8420 C   0  0  0  0  0  0  0  0  0  0  0  0
   10.9055   44.7142  -33.6882 O   0  0  0  0  0  0  0  0  0  0  0  0
   16.0256   33.6645  -30.0332 H   0  0  0  0  0  0  0  0  0  0  0  0
   16.5972   33.1561  -28.5758 H   0  0  0  0  0  0  0  0  0  0  0  0
   15.5751   34.4439  -28.6551 H   0  0  0  0  0  0  0  0  0  0  0  0
   13.7648   33.0662  -29.4418 H   0  0  0  0  0  0  0  0  0  0  0  0
   15.8736   30.8713  -29.1130 H   0  0  0  0  0  0  0  0  0  0  0  0
   15.0677   31.3872  -30.6333 H   0  0  0  0  0  0  0  0  0  0  0  0
   12.7000   30.7907  -31.0374 H   0  0  0  0  0  0  0  0  0  0  0  0
   14.7599   29.3886  -27.5732 H   0  0  0  0  0  0  0  0  0  0  0  0
   10.9312   29.1237  -30.6636 H   0  0  0  0  0  0  0  0  0  0  0  0
   12.9858   27.7221  -27.2159 H   0  0  0  0  0  0  0  0  0  0  0  0
   11.0731   27.5871  -28.7840 H   0  0  0  0  0  0  0  0  0  0  0  0
   12.3082   32.7290  -27.8764 H   0  0  0  0  0  0  0  0  0  0  0  0
   13.2366   31.6522  -25.2625 H   0  0  0  0  0  0  0  0  0  0  0  0
   11.3550   34.0529  -25.5629 H   0  0  0  0  0  0  0  0  0  0  0  0
   13.1025   34.1829  -25.1679 H   0  0  0  0  0  0  0  0  0  0  0  0
   12.6477   32.9138  -23.2937 H   0  0  0  0  0  0  0  0  0  0  0  0
   11.8120   30.1460  -24.3929 H   0  0  0  0  0  0  0  0  0  0  0  0
    9.2188   29.7574  -25.7918 H   0  0  0  0  0  0  0  0  0  0  0  0
    8.8721   27.7419  -24.3060 H   0  0  0  0  0  0  0  0  0  0  0  0
   10.3919   28.5313  -22.4775 H   0  0  0  0  0  0  0  0  0  0  0  0
   11.7885   28.1332  -23.5348 H   0  0  0  0  0  0  0  0  0  0  0  0
    9.7526   27.5603  -26.6042 H   0  0  0  0  0  0  0  0  0  0  0  0
   10.4014   26.2839  -25.5195 H   0  0  0  0  0  0  0  0  0  0  0  0
   11.4260   27.6906  -25.9645 H   0  0  0  0  0  0  0  0  0  0  0  0
   11.3049   26.3823  -21.9882 H   0  0  0  0  0  0  0  0  0  0  0  0
   11.0279   25.8737  -23.6885 H   0  0  0  0  0  0  0  0  0  0  0  0
    9.6314   26.2719  -22.6313 H   0  0  0  0  0  0  0  0  0  0  0  0
   10.1130   31.8965  -23.6759 H   0  0  0  0  0  0  0  0  0  0  0  0
    7.6573   31.6886  -22.0008 H   0  0  0  0  0  0  0  0  0  0  0  0
   10.0864   33.5446  -21.7216 H   0  0  0  0  0  0  0  0  0  0  0  0
    9.0667   34.1792  -19.5342 H   0  0  0  0  0  0  0  0  0  0  0  0
    7.6381   33.1562  -19.9072 H   0  0  0  0  0  0  0  0  0  0  0  0
    7.9951   34.6014  -20.9126 H   0  0  0  0  0  0  0  0  0  0  0  0
   10.5976   31.1785  -21.2100 H   0  0  0  0  0  0  0  0  0  0  0  0
    9.2259   31.1373  -20.0510 H   0  0  0  0  0  0  0  0  0  0  0  0
   10.6358   32.2050  -19.7364 H   0  0  0  0  0  0  0  0  0  0  0  0
    6.0798   33.1634  -22.3255 H   0  0  0  0  0  0  0  0  0  0  0  0
    4.7881   34.6600  -23.4597 H   0  0  0  0  0  0  0  0  0  0  0  0
    5.9140   34.4481  -24.8432 H   0  0  0  0  0  0  0  0  0  0  0  0
    5.7941   36.5868  -25.4620 H   0  0  0  0  0  0  0  0  0  0  0  0
    7.2990   38.4496  -23.6969 H   0  0  0  0  0  0  0  0  0  0  0  0
    8.1479   38.0413  -26.0244 H   0  0  0  0  0  0  0  0  0  0  0  0
    7.7791   39.7622  -25.6649 H   0  0  0  0  0  0  0  0  0  0  0  0
    6.1050   37.9517  -27.0813 H   0  0  0  0  0  0  0  0  0  0  0  0
    6.6285   40.6572  -23.5604 H   0  0  0  0  0  0  0  0  0  0  0  0
    3.7537   40.9321  -23.0956 H   0  0  0  0  0  0  0  0  0  0  0  0
    4.3353   43.2646  -22.4700 H   0  0  0  0  0  0  0  0  0  0  0  0
    6.0231   42.9684  -23.0085 H   0  0  0  0  0  0  0  0  0  0  0  0
    5.9411   41.0373  -21.2361 H   0  0  0  0  0  0  0  0  0  0  0  0
    6.7878   42.6045  -19.5332 H   0  0  0  0  0  0  0  0  0  0  0  0
    6.1360   43.9782  -20.4897 H   0  0  0  0  0  0  0  0  0  0  0  0
    7.4405   42.9482  -21.1710 H   0  0  0  0  0  0  0  0  0  0  0  0
    3.5287   41.2518  -20.7193 H   0  0  0  0  0  0  0  0  0  0  0  0
    3.8144   42.9178  -20.1115 H   0  0  0  0  0  0  0  0  0  0  0  0
    4.5600   41.5154  -19.2725 H   0  0  0  0  0  0  0  0  0  0  0  0
    2.6005   42.6413  -27.0189 H   0  0  0  0  0  0  0  0  0  0  0  0
    0.4846   43.5930  -26.7079 H   0  0  0  0  0  0  0  0  0  0  0  0
    1.0772   44.7350  -25.4543 H   0  0  0  0  0  0  0  0  0  0  0  0
   -0.0776   43.2313  -24.1157 H   0  0  0  0  0  0  0  0  0  0  0  0
    0.2684   41.8425  -25.2012 H   0  0  0  0  0  0  0  0  0  0  0  0
    2.0267   43.1542  -23.1334 H   0  0  0  0  0  0  0  0  0  0  0  0
    1.8461   41.4173  -23.5545 H   0  0  0  0  0  0  0  0  0  0  0  0
    3.9978   44.6384  -24.4582 H   0  0  0  0  0  0  0  0  0  0  0  0
    4.5951   46.9878  -25.9846 H   0  0  0  0  0  0  0  0  0  0  0  0
    6.0468   45.8017  -23.5678 H   0  0  0  0  0  0  0  0  0  0  0  0
    4.7506   47.0451  -23.5468 H   0  0  0  0  0  0  0  0  0  0  0  0
    6.4188   48.4284  -25.0834 H   0  0  0  0  0  0  0  0  0  0  0  0
    7.6635   47.3087  -24.4326 H   0  0  0  0  0  0  0  0  0  0  0  0
    7.4451   48.1436  -22.2188 H   0  0  0  0  0  0  0  0  0  0  0  0
    5.8146   48.8297  -22.5310 H   0  0  0  0  0  0  0  0  0  0  0  0
    7.8421   50.1162  -24.1921 H   0  0  0  0  0  0  0  0  0  0  0  0
    7.0195   51.7289  -20.5266 H   0  0  0  0  0  0  0  0  0  0  0  0
    6.5202   50.0506  -20.8685 H   0  0  0  0  0  0  0  0  0  0  0  0
    8.4646   52.2535  -23.7363 H   0  0  0  0  0  0  0  0  0  0  0  0
    8.1060   52.9700  -22.1423 H   0  0  0  0  0  0  0  0  0  0  0  0
    6.4740   43.9881  -25.3632 H   0  0  0  0  0  0  0  0  0  0  0  0
    8.8198   44.7434  -26.7886 H   0  0  0  0  0  0  0  0  0  0  0  0
    9.2688   42.3191  -26.9598 H   0  0  0  0  0  0  0  0  0  0  0  0
    7.5822   41.9743  -26.4468 H   0  0  0  0  0  0  0  0  0  0  0  0
    5.6508   44.0098  -27.9625 H   0  0  0  0  0  0  0  0  0  0  0  0
    6.4380   43.2974  -30.6651 H   0  0  0  0  0  0  0  0  0  0  0  0
    3.7323   44.3286  -29.7133 H   0  0  0  0  0  0  0  0  0  0  0  0
    4.2729   42.6251  -29.5336 H   0  0  0  0  0  0  0  0  0  0  0  0
    5.2574   41.6205  -31.8160 H   0  0  0  0  0  0  0  0  0  0  0  0
    2.3994   44.7888  -31.5226 H   0  0  0  0  0  0  0  0  0  0  0  0
    4.4816   41.1237  -34.0996 H   0  0  0  0  0  0  0  0  0  0  0  0
    1.6234   44.3116  -33.8251 H   0  0  0  0  0  0  0  0  0  0  0  0
    2.6403   42.4631  -35.1049 H   0  0  0  0  0  0  0  0  0  0  0  0
    6.5251   46.2638  -28.9923 H   0  0  0  0  0  0  0  0  0  0  0  0
    5.7509   48.1936  -30.9410 H   0  0  0  0  0  0  0  0  0  0  0  0
    6.3435   48.7097  -28.5820 H   0  0  0  0  0  0  0  0  0  0  0  0
    7.1380   49.7827  -29.7837 H   0  0  0  0  0  0  0  0  0  0  0  0
    9.2678   48.6907  -29.4717 H   0  0  0  0  0  0  0  0  0  0  0  0
    8.5227   47.3813  -28.4933 H   0  0  0  0  0  0  0  0  0  0  0  0
    8.6015   46.1480  -30.8646 H   0  0  0  0  0  0  0  0  0  0  0  0
    9.1211   46.7863  -33.6573 H   0  0  0  0  0  0  0  0  0  0  0  0
   11.6977   47.0583  -33.0096 H   0  0  0  0  0  0  0  0  0  0  0  0
   10.9849   47.7687  -31.5217 H   0  0  0  0  0  0  0  0  0  0  0  0
    9.8372   49.4667  -32.9067 H   0  0  0  0  0  0  0  0  0  0  0  0
   11.8702   50.7902  -33.4615 H   0  0  0  0  0  0  0  0  0  0  0  0
   12.8690   49.3071  -33.2909 H   0  0  0  0  0  0  0  0  0  0  0  0
   12.0024   49.9751  -31.8663 H   0  0  0  0  0  0  0  0  0  0  0  0
    9.6798   48.1938  -35.0603 H   0  0  0  0  0  0  0  0  0  0  0  0
   11.4579   48.3415  -35.2677 H   0  0  0  0  0  0  0  0  0  0  0  0
   10.4263   49.8118  -35.2871 H   0  0  0  0  0  0  0  0  0  0  0  0
   10.4815   43.9932  -34.1386 H   0  0  0  0  0  0  0  0  0  0  0  0
  1106  1  0  0  0  0
  1107  1  0  0  0  0
  1108  1  0  0  0  0
  2  1  1  0  0  0  0
  2  5  1  0  0  0  0
  2109  1  6  0  0  0
  3  2  1  0  0  0  0
  3  4  2  0  0  0  0
  5  6  1  0  0  0  0
  5110  1  0  0  0  0
  5111  1  0  0  0  0
  6  7  2  0  0  0  0
  6  8  1  0  0  0  0
  7  9  1  0  0  0  0
  7112  1  0  0  0  0
  8 10  2  0  0  0  0
  8113  1  0  0  0  0
  9 11  2  0  0  0  0
  9114  1  0  0  0  0
 10 11  1  0  0  0  0
 10115  1  0  0  0  0
 11116  1  0  0  0  0
 12  3  1  0  0  0  0
 12117  1  0  0  0  0
 13 12  1  0  0  0  0
 13 16  1  0  0  0  0
 13118  1  1  0  0  0
 14 13  1  0  0  0  0
 14 15  2  0  0  0  0
 16 17  1  0  0  0  0
 16119  1  0  0  0  0
 16120  1  0  0  0  0
 17121  1  0  0  0  0
 18 14  1  0  0  0  0
 18122  1  0  0  0  0
 19 18  1  0  0  0  0
 19 22  1  0  0  0  0
 19123  1  6  0  0  0
 20 19  1  0  0  0  0
 20 21  2  0  0  0  0
 22 24  1  0  0  0  0
 22 23  1  0  0  0  0
 22124  1  1  0  0  0
 23 25  1  0  0  0  0
 23125  1  0  0  0  0
 23126  1  0  0  0  0
 24127  1  0  0  0  0
 24128  1  0  0  0  0
 24129  1  0  0  0  0
 25130  1  0  0  0  0
 25131  1  0  0  0  0
 25132  1  0  0  0  0
 26 20  1  0  0  0  0
 26133  1  0  0  0  0
 27 26  1  0  0  0  0
 27 30  1  0  0  0  0
 27134  1  1  0  0  0
 28 27  1  0  0  0  0
 28 29  2  0  0  0  0
 30 32  1  0  0  0  0
 30 31  1  0  0  0  0
 30135  1  0  0  0  0
 31136  1  0  0  0  0
 31137  1  0  0  0  0
 31138  1  0  0  0  0
 32139  1  0  0  0  0
 32140  1  0  0  0  0
 32141  1  0  0  0  0
 33 28  1  0  0  0  0
 33142  1  0  0  0  0
 34 33  1  0  0  0  0
 34143  1  0  0  0  0
 34144  1  0  0  0  0
 35 34  1  0  0  0  0
 35 36  2  0  0  0  0
 37 35  1  0  0  0  0
 37145  1  0  0  0  0
 38 37  1  0  0  0  0
 38 41  1  0  0  0  0
 38146  1  1  0  0  0
 39 38  1  0  0  0  0
 39 40  2  0  0  0  0
 41 42  1  0  0  0  0
 41147  1  0  0  0  0
 41148  1  0  0  0  0
 42149  1  0  0  0  0
 43 39  1  0  0  0  0
 43150  1  0  0  0  0
 44 43  1  0  0  0  0
 44 47  1  0  0  0  0
 44151  1  1  0  0  0
 45 44  1  0  0  0  0
 45 46  2  0  0  0  0
 47 48  1  0  0  0  0
 47152  1  0  0  0  0
 47153  1  0  0  0  0
 48 49  1  0  0  0  0
 48 50  1  0  0  0  0
 48154  1  0  0  0  0
 49155  1  0  0  0  0
 49156  1  0  0  0  0
 49157  1  0  0  0  0
 50158  1  0  0  0  0
 50159  1  0  0  0  0
 50160  1  0  0  0  0
 51 57  1  0  0  0  0
 51 45  1  0  0  0  0
 52 55  1  0  0  0  0
 52 51  1  0  0  0  0
 52161  1  6  0  0  0
 53 52  1  0  0  0  0
 53 54  2  0  0  0  0
 55 56  1  0  0  0  0
 55162  1  0  0  0  0
 55163  1  0  0  0  0
 56164  1  0  0  0  0
 56165  1  0  0  0  0
 57 56  1  0  0  0  0
 57166  1  0  0  0  0
 57167  1  0  0  0  0
 58 53  1  0  0  0  0
 58168  1  0  0  0  0
 59 58  1  0  0  0  0
 59 62  1  0  0  0  0
 59169  1  6  0  0  0
 60 59  1  0  0  0  0
 60 61  2  0  0  0  0
 62 63  1  0  0  0  0
 62170  1  0  0  0  0
 62171  1  0  0  0  0
 63 64  1  0  0  0  0
 63172  1  0  0  0  0
 63173  1  0  0  0  0
 64 65  1  0  0  0  0
 64174  1  0  0  0  0
 64175  1  0  0  0  0
 65 66  1  0  0  0  0
 65176  1  0  0  0  0
 66 68  1  0  0  0  0
 66 67  1  0  0  0  0
 67177  1  0  0  0  0
 67178  1  0  0  0  0
 68179  1  0  0  0  0
 68180  1  0  0  0  0
 69 60  1  0  0  0  0
 69181  1  0  0  0  0
 70 69  1  0  0  0  0
 70 73  1  0  0  0  0
 70182  1  1  0  0  0
 71 70  1  0  0  0  0
 71 72  2  0  0  0  0
 73 74  1  0  0  0  0
 73183  1  0  0  0  0
 73184  1  0  0  0  0
 74 75  1  0  0  0  0
 74 76  2  0  0  0  0
 77 71  1  0  0  0  0
 77185  1  0  0  0  0
 78 77  1  0  0  0  0
 78 81  1  0  0  0  0
 78186  1  6  0  0  0
 79 78  1  0  0  0  0
 79 80  2  0  0  0  0
 81 82  1  0  0  0  0
 81187  1  0  0  0  0
 81188  1  0  0  0  0
 82 83  2  0  0  0  0
 82 84  1  0  0  0  0
 83 85  1  0  0  0  0
 83189  1  0  0  0  0
 84 86  2  0  0  0  0
 84190  1  0  0  0  0
 85 87  2  0  0  0  0
 85191  1  0  0  0  0
 86 87  1  0  0  0  0
 86192  1  0  0  0  0
 87193  1  0  0  0  0
 88 79  1  0  0  0  0
 88194  1  0  0  0  0
 89 88  1  0  0  0  0
 89 92  1  0  0  0  0
 89195  1  6  0  0  0
 90 89  1  0  0  0  0
 90 91  2  0  0  0  0
 90 97  1  0  0  0  0
 92 93  1  0  0  0  0
 92196  1  0  0  0  0
 92197  1  0  0  0  0
 93 94  1  0  0  0  0
 93198  1  0  0  0  0
 93199  1  0  0  0  0
 94 96  2  0  0  0  0
 94 95  1  0  0  0  0
 97 98  1  0  0  0  0
 97200  1  0  0  0  0
 98101  1  0  0  0  0
 98 99  1  0  0  0  0
 98201  1  6  0  0  0
 99100  2  0  0  0  0
 99105  1  0  0  0  0
101102  1  0  0  0  0
101202  1  0  0  0  0
101203  1  0  0  0  0
102103  1  0  0  0  0
102104  1  0  0  0  0
102204  1  0  0  0  0
103205  1  0  0  0  0
103206  1  0  0  0  0
103207  1  0  0  0  0
104208  1  0  0  0  0
104209  1  0  0  0  0
104210  1  0  0  0  0
105211  1  0  0  0  0
M  CHG  3   1   1  75  -1  95  -1
M  END
