2fuu_ligand
 OpenBabel08222323343D

240239  0  0  1  0  0  0  0  0999 V2000
    3.1940   -5.0230   -4.2420 N   0  3  0  0  0  0  0  0  0  0  0  0
    3.5300   -4.0990   -5.3640 C   0  0  2  0  0  0  0  0  0  0  0  0
    2.5460   -2.9390   -5.3770 C   0  0  0  0  0  0  0  0  0  0  0  0
    1.5630   -2.9330   -4.6350 O   0  0  0  0  0  0  0  0  0  0  0  0
    3.4460   -4.8580   -6.6930 C   0  0  0  0  0  0  0  0  0  0  0  0
    2.8120   -1.9650   -6.2400 N   0  0  0  0  0  0  0  0  0  0  0  0
    1.9360   -0.8080   -6.3620 C   0  0  2  0  0  0  0  0  0  0  0  0
    0.8120   -1.0970   -7.3420 C   0  0  0  0  0  0  0  0  0  0  0  0
    0.6360   -0.3720   -8.3220 O   0  0  0  0  0  0  0  0  0  0  0  0
    2.7220    0.4080   -6.8560 C   0  0  0  0  0  0  0  0  0  0  0  0
    3.6200    0.9390   -5.7420 C   0  0  0  0  0  0  0  0  0  0  0  0
    4.2730    2.2430   -6.2070 C   0  0  0  0  0  0  0  0  0  0  0  0
    5.2420    1.9770   -7.2630 N   0  0  0  0  0  0  0  0  0  0  0  0
    6.5120    1.7060   -6.9760 C   0  0  0  0  0  3  0  0  0  0  0  0
    6.9020    1.6450   -5.7310 N   0  0  0  0  0  0  0  0  0  0  0  0
    7.3680    1.4980   -7.9370 N   0  0  0  0  0  0  0  0  0  0  0  0
    0.0460   -2.1520   -7.0870 N   0  0  0  0  0  0  0  0  0  0  0  0
   -1.0480   -2.4810   -7.9830 C   0  0  2  0  0  0  0  0  0  0  0  0
   -2.0510   -1.3400   -7.9930 C   0  0  0  0  0  0  0  0  0  0  0  0
   -2.4710   -0.8590   -6.9410 O   0  0  0  0  0  0  0  0  0  0  0  0
   -1.7420   -3.7780   -7.5590 C   0  0  2  0  0  0  0  0  0  0  0  0
   -0.7660   -4.7950   -7.3770 O   0  0  0  0  0  0  0  0  0  0  0  0
   -2.7350   -4.2110   -8.6490 C   0  0  0  0  0  0  0  0  0  0  0  0
   -2.4210   -0.9030   -9.1880 N   0  0  0  0  0  0  0  0  0  0  0  0
   -3.3650    0.1940   -9.3410 C   0  0  1  0  0  0  0  0  0  0  0  0
   -2.7320    1.2600  -10.2470 C   0  0  0  0  0  0  0  0  0  0  0  0
   -2.8840    2.6520   -9.6380 C   0  0  0  0  0  0  0  0  0  0  0  0
   -2.5430    3.7130  -10.6970 C   0  0  0  0  0  0  0  0  0  0  0  0
   -3.8030    4.0570  -11.5060 C   0  0  0  0  0  0  0  0  0  0  0  0
   -3.4640    4.7850  -12.7840 N   0  3  0  0  0  0  0  0  0  0  0  0
   -4.6620   -0.3420   -9.9470 C   0  0  0  0  0  0  0  0  0  0  0  0
   -4.7580   -0.5340  -11.1580 O   0  0  0  0  0  0  0  0  0  0  0  0
   -3.0480    3.8180  -13.8380 C   0  0  0  0  0  0  0  0  0  0  0  0
   -2.4090    5.8070  -12.5570 C   0  0  0  0  0  0  0  0  0  0  0  0
   -4.6680    5.4730  -13.2680 C   0  0  0  0  0  0  0  0  0  0  0  0
   -5.6470   -0.6080   -9.0900 N   0  0  0  0  0  0  0  0  0  0  0  0
   -6.9260   -1.1560   -9.5440 C   0  0  2  0  0  0  0  0  0  0  0  0
   -8.1030   -0.3420   -9.0160 C   0  0  0  0  0  0  0  0  0  0  0  0
   -7.9240    0.6290   -8.2810 O   0  0  0  0  0  0  0  0  0  0  0  0
   -7.0620   -2.6090   -9.0770 C   0  0  0  0  0  0  0  0  0  0  0  0
   -7.0680   -2.6730   -7.5370 C   0  0  0  0  0  0  0  0  0  0  0  0
   -5.7650   -3.2790   -7.0240 C   0  0  0  0  0  0  0  0  0  0  0  0
   -5.6430   -4.5000   -6.9270 O   0  0  0  0  0  0  0  0  0  0  0  0
   -4.7790   -2.4920   -6.6900 N   0  0  0  0  0  0  0  0  0  0  0  0
   -9.3090   -0.7480   -9.4080 N   0  0  0  0  0  0  0  0  0  0  0  0
  -10.5250   -0.0620   -8.9850 C   0  0  2  0  0  0  0  0  0  0  0  0
  -11.5600   -1.0630   -8.4700 C   0  0  0  0  0  0  0  0  0  0  0  0
  -11.5010   -2.2490   -8.7940 O   0  0  0  0  0  0  0  0  0  0  0  0
  -11.1080    0.7200  -10.1670 C   0  0  2  0  0  0  0  0  0  0  0  0
  -12.0760    1.6460   -9.6910 O   0  0  0  0  0  0  0  0  0  0  0  0
  -11.7630   -0.2470  -11.1560 C   0  0  0  0  0  0  0  0  0  0  0  0
  -12.5050   -0.5750   -7.6710 N   0  0  0  0  0  0  0  0  0  0  0  0
  -13.5490   -1.4330   -7.1170 C   0  0  2  0  0  0  0  0  0  0  0  0
  -14.8320   -0.6350   -6.8970 C   0  0  0  0  0  0  0  0  0  0  0  0
  -15.5500   -0.8470   -5.9190 O   0  0  0  0  0  0  0  0  0  0  0  0
  -13.0850   -2.0340   -5.7900 C   0  0  0  0  0  0  0  0  0  0  0  0
  -15.1090    0.2850   -7.8140 N   0  0  0  0  0  0  0  0  0  0  0  0
  -16.3030    1.1210   -7.7200 C   0  0  2  0  0  0  0  0  0  0  0  0
  -17.5630    0.2660   -7.6180 C   0  0  0  0  0  0  0  0  0  0  0  0
  -18.5200    0.6360   -6.9390 O   0  0  0  0  0  0  0  0  0  0  0  0
  -16.4000    2.0260   -8.9490 C   0  0  0  0  0  0  0  0  0  0  0  0
  -17.5640    3.0040   -8.7750 C   0  0  0  0  0  0  0  0  0  0  0  0
  -17.6460    3.9290   -9.9910 C   0  0  0  0  0  0  0  0  0  0  0  0
  -18.1230    3.1910  -11.1570 N   0  0  0  0  0  0  0  0  0  0  0  0
  -17.2790    2.6180  -12.0100 C   0  0  0  0  0  3  0  0  0  0  0  0
  -15.9910    2.6970  -11.8130 N   0  0  0  0  0  0  0  0  0  0  0  0
  -17.7390    1.9690  -13.0450 N   0  0  0  0  0  0  0  0  0  0  0  0
  -17.5610   -0.8710   -8.3070 N   0  0  0  0  0  0  0  0  0  0  0  0
  -18.7180   -1.7590   -8.2960 C   0  0  2  0  0  0  0  0  0  0  0  0
  -19.0830   -2.1670   -6.8710 C   0  0  0  0  0  0  0  0  0  0  0  0
  -20.2600   -2.3060   -6.5410 O   0  0  0  0  0  0  0  0  0  0  0  0
  -18.4240   -3.0110   -9.1300 C   0  0  0  0  0  0  0  0  0  0  0  0
  -17.3590   -3.8610   -8.4310 C   0  0  0  0  0  0  0  0  0  0  0  0
  -16.9670   -5.0310   -9.3350 C   0  0  0  0  0  0  0  0  0  0  0  0
  -16.1770   -6.0600   -8.5270 C   0  0  0  0  0  0  0  0  0  0  0  0
  -15.0980   -5.3710   -7.7630 N   0  3  0  0  0  0  0  0  0  0  0  0
  -18.0720   -2.3600   -6.0290 N   0  0  0  0  0  0  0  0  0  0  0  0
  -18.3150   -2.7540   -4.6450 C   0  0  2  0  0  0  0  0  0  0  0  0
  -18.6700   -1.5390   -3.7920 C   0  0  0  0  0  0  0  0  0  0  0  0
  -18.2060   -0.4290   -4.0500 O   0  0  0  0  0  0  0  0  0  0  0  0
  -17.0750   -3.4360   -4.0690 C   0  0  0  0  0  0  0  0  0  0  0  0
  -16.0800   -2.4550   -3.8070 O   0  0  0  0  0  0  0  0  0  0  0  0
  -19.4920   -1.7630   -2.7690 N   0  0  0  0  0  0  0  0  0  0  0  0
  -19.9000   -0.6830   -1.8760 C   0  0  2  0  0  0  0  0  0  0  0  0
  -19.0420   -0.6800   -0.6160 C   0  0  0  0  0  0  0  0  0  0  0  0
  -18.2190    0.2130   -0.4130 O   0  0  0  0  0  0  0  0  0  0  0  0
  -21.3730   -0.8520   -1.4930 C   0  0  2  0  0  0  0  0  0  0  0  0
  -22.1780   -0.7650   -2.6610 O   0  0  0  0  0  0  0  0  0  0  0  0
  -21.7760    0.2480   -0.5100 C   0  0  0  0  0  0  0  0  0  0  0  0
  -19.2420   -1.6880    0.2270 N   0  0  0  0  0  0  0  0  0  0  0  0
  -18.4840   -1.8020    1.4680 C   0  0  0  0  0  0  0  0  0  0  0  0
  -19.1350   -2.8100    2.4090 C   0  0  0  0  0  0  0  0  0  0  0  0
  -20.1220   -2.5040    3.0760 O   0  0  0  0  0  0  0  0  0  0  0  0
  -18.5770   -4.0160    2.4550 N   0  0  0  0  0  0  0  0  0  0  0  0
  -19.1150   -5.0640    3.3170 C   0  0  0  0  0  0  0  0  0  0  0  0
  -18.6670   -4.8670    4.7610 C   0  0  0  0  0  0  0  0  0  0  0  0
  -17.4900   -4.6240    5.0280 O   0  0  0  0  0  0  0  0  0  0  0  0
  -19.6120   -4.9790    5.6900 N   0  0  0  0  0  0  0  0  0  0  0  0
  -19.3020   -4.8140    7.1050 C   0  0  2  0  0  0  0  0  0  0  0  0
  -18.2680   -5.8450    7.5510 C   0  0  0  0  0  0  0  0  0  0  0  0
  -17.4120   -5.5600    8.3860 O   0  0  0  0  0  0  0  0  0  0  0  0
  -20.5720   -4.9700    7.9420 C   0  0  0  0  0  0  0  0  0  0  0  0
  -21.5500   -3.8430    7.5990 C   0  0  0  0  0  0  0  0  0  0  0  0
  -22.8310   -4.0040    8.4240 C   0  0  0  0  0  0  0  0  0  0  0  0
  -22.5330   -3.7600    9.9080 C   0  0  0  0  0  0  0  0  0  0  0  0
  -23.7810   -3.3190   10.5940 N   0  3  0  0  0  0  0  0  0  0  0  0
  -18.3580   -7.0460    6.9850 N   0  0  0  0  0  0  0  0  0  0  0  0
  -17.4290   -8.1210    7.3280 C   0  0  2  0  0  0  0  0  0  0  0  0
  -16.4200   -8.3320    6.2050 C   0  0  0  0  0  0  0  0  0  0  0  0
  -15.9220   -9.4390    6.0830 O   0  5  0  0  0  0  0  0  0  0  0  0
  -18.2000   -9.4190    7.5710 C   0  0  0  0  0  0  0  0  0  0  0  0
  -16.1600   -7.3840    5.4830 O   0  0  0  0  0  0  0  0  0  0  0  0
    3.8459   -5.7918   -4.2332 H   0  0  0  0  0  0  0  0  0  0  0  0
    2.2586   -5.3772   -4.3670 H   0  0  0  0  0  0  0  0  0  0  0  0
    3.2506   -4.5245   -3.3677 H   0  0  0  0  0  0  0  0  0  0  0  0
    4.5505   -3.7120   -5.2272 H   0  0  0  0  0  0  0  0  0  0  0  0
    3.6937   -4.1769   -7.5205 H   0  0  0  0  0  0  0  0  0  0  0  0
    2.4257   -5.2456   -6.8301 H   0  0  0  0  0  0  0  0  0  0  0  0
    4.1583   -5.6961   -6.6823 H   0  0  0  0  0  0  0  0  0  0  0  0
    3.6274   -2.0272   -6.8156 H   0  0  0  0  0  0  0  0  0  0  0  0
    1.5056   -0.5826   -5.3751 H   0  0  0  0  0  0  0  0  0  0  0  0
    2.0185    1.1959   -7.1631 H   0  0  0  0  0  0  0  0  0  0  0  0
    3.3429    0.1154   -7.7156 H   0  0  0  0  0  0  0  0  0  0  0  0
    4.3996    0.1979   -5.5119 H   0  0  0  0  0  0  0  0  0  0  0  0
    3.0174    1.1290   -4.8416 H   0  0  0  0  0  0  0  0  0  0  0  0
    4.7850    2.7157   -5.3559 H   0  0  0  0  0  0  0  0  0  0  0  0
    3.4962    2.9210   -6.5902 H   0  0  0  0  0  0  0  0  0  0  0  0
    4.9383    1.9993   -8.2470 H   0  0  0  0  0  0  0  0  0  0  0  0
    7.8857    1.4351   -5.5092 H   0  0  0  0  0  0  0  0  0  0  0  0
    6.2259    1.8068   -4.9710 H   0  0  0  0  0  0  0  0  0  0  0  0
    7.0614    1.5459   -8.9191 H   0  0  0  0  0  0  0  0  0  0  0  0
    8.3510    1.2858   -7.7141 H   0  0  0  0  0  0  0  0  0  0  0  0
    0.2222   -2.7173   -6.2811 H   0  0  0  0  0  0  0  0  0  0  0  0
   -0.6455   -2.6134   -8.9981 H   0  0  0  0  0  0  0  0  0  0  0  0
   -2.2824   -3.6138   -6.6151 H   0  0  0  0  0  0  0  0  0  0  0  0
   -1.1951   -5.6007   -7.1138 H   0  0  0  0  0  0  0  0  0  0  0  0
   -3.2325   -5.1429   -8.3425 H   0  0  0  0  0  0  0  0  0  0  0  0
   -2.1944   -4.3772   -9.5925 H   0  0  0  0  0  0  0  0  0  0  0  0
   -3.4889   -3.4229   -8.7922 H   0  0  0  0  0  0  0  0  0  0  0  0
   -2.0422   -1.3378  -10.0050 H   0  0  0  0  0  0  0  0  0  0  0  0
   -3.5818    0.6358   -8.3572 H   0  0  0  0  0  0  0  0  0  0  0  0
   -3.2287    1.2399  -11.2282 H   0  0  0  0  0  0  0  0  0  0  0  0
   -1.6623    1.0368  -10.3729 H   0  0  0  0  0  0  0  0  0  0  0  0
   -2.2005    2.7548   -8.7823 H   0  0  0  0  0  0  0  0  0  0  0  0
   -3.9207    2.7927   -9.2982 H   0  0  0  0  0  0  0  0  0  0  0  0
   -1.7697    3.3199  -11.3734 H   0  0  0  0  0  0  0  0  0  0  0  0
   -2.1685    4.6198  -10.1995 H   0  0  0  0  0  0  0  0  0  0  0  0
   -4.4561    4.6964  -10.8940 H   0  0  0  0  0  0  0  0  0  0  0  0
   -4.3317    3.1253  -11.7559 H   0  0  0  0  0  0  0  0  0  0  0  0
   -2.8048    4.3642  -14.7613 H   0  0  0  0  0  0  0  0  0  0  0  0
   -3.8697    3.1136  -14.0343 H   0  0  0  0  0  0  0  0  0  0  0  0
   -2.1622    3.2622  -13.4967 H   0  0  0  0  0  0  0  0  0  0  0  0
   -2.7393    6.5077  -11.7761 H   0  0  0  0  0  0  0  0  0  0  0  0
   -2.2258    6.3586  -13.4909 H   0  0  0  0  0  0  0  0  0  0  0  0
   -1.4811    5.3111  -12.2359 H   0  0  0  0  0  0  0  0  0  0  0  0
   -5.4656    4.7362  -13.4440 H   0  0  0  0  0  0  0  0  0  0  0  0
   -4.4385    5.9963  -14.2079 H   0  0  0  0  0  0  0  0  0  0  0  0
   -5.0018    6.2017  -12.5146 H   0  0  0  0  0  0  0  0  0  0  0  0
   -5.5094   -0.4294   -8.1157 H   0  0  0  0  0  0  0  0  0  0  0  0
   -6.9468   -1.1306  -10.6435 H   0  0  0  0  0  0  0  0  0  0  0  0
   -6.2148   -3.1955   -9.4620 H   0  0  0  0  0  0  0  0  0  0  0  0
   -8.0033   -3.0282   -9.4620 H   0  0  0  0  0  0  0  0  0  0  0  0
   -7.9124   -3.2941   -7.2035 H   0  0  0  0  0  0  0  0  0  0  0  0
   -7.1785   -1.6561   -7.1325 H   0  0  0  0  0  0  0  0  0  0  0  0
   -3.9214   -2.8804   -6.3528 H   0  0  0  0  0  0  0  0  0  0  0  0
   -4.8810   -1.5005   -6.7713 H   0  0  0  0  0  0  0  0  0  0  0  0
   -9.3832   -1.5443  -10.0083 H   0  0  0  0  0  0  0  0  0  0  0  0
  -10.2754    0.6402   -8.1760 H   0  0  0  0  0  0  0  0  0  0  0  0
  -10.3001    1.2668  -10.6752 H   0  0  0  0  0  0  0  0  0  0  0  0
  -12.4368    2.1302  -10.4243 H   0  0  0  0  0  0  0  0  0  0  0  0
  -12.1794    0.3198  -12.0018 H   0  0  0  0  0  0  0  0  0  0  0  0
  -12.5702   -0.7974  -10.6506 H   0  0  0  0  0  0  0  0  0  0  0  0
  -11.0102   -0.9583  -11.5265 H   0  0  0  0  0  0  0  0  0  0  0  0
  -12.5005    0.3991   -7.4451 H   0  0  0  0  0  0  0  0  0  0  0  0
  -13.7529   -2.2479   -7.8271 H   0  0  0  0  0  0  0  0  0  0  0  0
  -13.8781   -2.6778   -5.3819 H   0  0  0  0  0  0  0  0  0  0  0  0
  -12.8666   -1.2249   -5.0775 H   0  0  0  0  0  0  0  0  0  0  0  0
  -12.1766   -2.6317   -5.9559 H   0  0  0  0  0  0  0  0  0  0  0  0
  -14.4859    0.4081   -8.5864 H   0  0  0  0  0  0  0  0  0  0  0  0
  -16.2256    1.7470   -6.8188 H   0  0  0  0  0  0  0  0  0  0  0  0
  -16.5698    1.4104   -9.8446 H   0  0  0  0  0  0  0  0  0  0  0  0
  -15.4623    2.5895   -9.0637 H   0  0  0  0  0  0  0  0  0  0  0  0
  -17.4038    3.6056   -7.8681 H   0  0  0  0  0  0  0  0  0  0  0  0
  -18.5040    2.4406   -8.6801 H   0  0  0  0  0  0  0  0  0  0  0  0
  -16.6473    4.3380  -10.2040 H   0  0  0  0  0  0  0  0  0  0  0  0
  -18.3412    4.7533   -9.7738 H   0  0  0  0  0  0  0  0  0  0  0  0
  -19.1366    3.1124  -11.3227 H   0  0  0  0  0  0  0  0  0  0  0  0
  -15.3404    2.2519  -12.4759 H   0  0  0  0  0  0  0  0  0  0  0  0
  -15.6253    3.2045  -10.9947 H   0  0  0  0  0  0  0  0  0  0  0  0
  -18.7548    1.9050  -13.2030 H   0  0  0  0  0  0  0  0  0  0  0  0
  -17.0862    1.5209  -13.7037 H   0  0  0  0  0  0  0  0  0  0  0  0
  -16.7535   -1.1213   -8.8412 H   0  0  0  0  0  0  0  0  0  0  0  0
  -19.5726   -1.2276   -8.7401 H   0  0  0  0  0  0  0  0  0  0  0  0
  -18.0579   -2.7109  -10.1229 H   0  0  0  0  0  0  0  0  0  0  0  0
  -19.3461   -3.6003   -9.2418 H   0  0  0  0  0  0  0  0  0  0  0  0
  -17.7625   -4.2485   -7.4839 H   0  0  0  0  0  0  0  0  0  0  0  0
  -16.4725   -3.2428   -8.2263 H   0  0  0  0  0  0  0  0  0  0  0  0
  -16.3457   -4.6611  -10.1640 H   0  0  0  0  0  0  0  0  0  0  0  0
  -17.8753   -5.5018   -9.7392 H   0  0  0  0  0  0  0  0  0  0  0  0
  -15.7292   -6.7969   -9.2100 H   0  0  0  0  0  0  0  0  0  0  0  0
  -16.8523   -6.5725   -7.8261 H   0  0  0  0  0  0  0  0  0  0  0  0
  -14.5773   -6.0501   -7.2303 H   0  0  0  0  0  0  0  0  0  0  0  0
  -15.5081   -4.6958   -7.1370 H   0  0  0  0  0  0  0  0  0  0  0  0
  -14.4790   -4.9014   -8.4051 H   0  0  0  0  0  0  0  0  0  0  0  0
  -17.1329   -2.2335   -6.3484 H   0  0  0  0  0  0  0  0  0  0  0  0
  -19.1562   -3.4624   -4.6219 H   0  0  0  0  0  0  0  0  0  0  0  0
  -16.6880   -4.1679   -4.7932 H   0  0  0  0  0  0  0  0  0  0  0  0
  -17.3394   -3.9505   -3.1334 H   0  0  0  0  0  0  0  0  0  0  0  0
  -15.8534   -2.0115   -4.6159 H   0  0  0  0  0  0  0  0  0  0  0  0
  -19.8362   -2.6882   -2.6095 H   0  0  0  0  0  0  0  0  0  0  0  0
  -19.7723    0.2772   -2.3972 H   0  0  0  0  0  0  0  0  0  0  0  0
  -21.5180   -1.8349   -1.0210 H   0  0  0  0  0  0  0  0  0  0  0  0
  -23.0917   -0.8699   -2.4230 H   0  0  0  0  0  0  0  0  0  0  0  0
  -22.8342    0.1251   -0.2360 H   0  0  0  0  0  0  0  0  0  0  0  0
  -21.6310    1.2316   -0.9807 H   0  0  0  0  0  0  0  0  0  0  0  0
  -21.1528    0.1785    0.3937 H   0  0  0  0  0  0  0  0  0  0  0  0
  -19.9264   -2.3827    0.0058 H   0  0  0  0  0  0  0  0  0  0  0  0
  -18.4487   -0.8192    1.9607 H   0  0  0  0  0  0  0  0  0  0  0  0
  -17.4609   -2.1331    1.2366 H   0  0  0  0  0  0  0  0  0  0  0  0
  -17.7751   -4.2084    1.8894 H   0  0  0  0  0  0  0  0  0  0  0  0
  -18.7588   -6.0416    2.9601 H   0  0  0  0  0  0  0  0  0  0  0  0
  -20.2138   -5.0362    3.2743 H   0  0  0  0  0  0  0  0  0  0  0  0
  -20.5517   -5.1799    5.4131 H   0  0  0  0  0  0  0  0  0  0  0  0
  -18.8910   -3.8059    7.2625 H   0  0  0  0  0  0  0  0  0  0  0  0
  -20.3155   -4.9205    9.0105 H   0  0  0  0  0  0  0  0  0  0  0  0
  -21.0395   -5.9410    7.7217 H   0  0  0  0  0  0  0  0  0  0  0  0
  -21.7968   -3.8860    6.5279 H   0  0  0  0  0  0  0  0  0  0  0  0
  -21.0858   -2.8728    7.8297 H   0  0  0  0  0  0  0  0  0  0  0  0
  -23.2223   -5.0238    8.2939 H   0  0  0  0  0  0  0  0  0  0  0  0
  -23.5806   -3.2768    8.0786 H   0  0  0  0  0  0  0  0  0  0  0  0
  -21.7645   -2.9790   10.0051 H   0  0  0  0  0  0  0  0  0  0  0  0
  -22.1700   -4.6909   10.3680 H   0  0  0  0  0  0  0  0  0  0  0  0
  -23.5887   -3.1576   11.5702 H   0  0  0  0  0  0  0  0  0  0  0  0
  -24.4848   -4.0350   10.5041 H   0  0  0  0  0  0  0  0  0  0  0  0
  -24.1133   -2.4662   10.1716 H   0  0  0  0  0  0  0  0  0  0  0  0
  -19.0765   -7.2166    6.3107 H   0  0  0  0  0  0  0  0  0  0  0  0
  -16.8897   -7.8459    8.2464 H   0  0  0  0  0  0  0  0  0  0  0  0
  -17.4938  -10.2222    7.8284 H   0  0  0  0  0  0  0  0  0  0  0  0
  -18.7517   -9.6939    6.6599 H   0  0  0  0  0  0  0  0  0  0  0  0
  -18.9090   -9.2747    8.3995 H   0  0  0  0  0  0  0  0  0  0  0  0
  1  2  1  0  0  0  0
  1113  1  0  0  0  0
  1114  1  0  0  0  0
  1115  1  0  0  0  0
  2  3  1  0  0  0  0
  2  5  1  0  0  0  0
  2116  1  1  0  0  0
  3  4  2  0  0  0  0
  3  6  1  0  0  0  0
  5117  1  0  0  0  0
  5118  1  0  0  0  0
  5119  1  0  0  0  0
  6  7  1  0  0  0  0
  6120  1  0  0  0  0
  7  8  1  0  0  0  0
  7 10  1  0  0  0  0
  7121  1  1  0  0  0
  8  9  2  0  0  0  0
  8 17  1  0  0  0  0
 10 11  1  0  0  0  0
 10122  1  0  0  0  0
 10123  1  0  0  0  0
 11 12  1  0  0  0  0
 11124  1  0  0  0  0
 11125  1  0  0  0  0
 12 13  1  0  0  0  0
 12126  1  0  0  0  0
 12127  1  0  0  0  0
 13 14  1  0  0  0  0
 13128  1  0  0  0  0
 14 15  1  0  0  0  0
 14 16  1  0  0  0  0
 15129  1  0  0  0  0
 15130  1  0  0  0  0
 16131  1  0  0  0  0
 16132  1  0  0  0  0
 17 18  1  0  0  0  0
 17133  1  0  0  0  0
 18 19  1  0  0  0  0
 18 21  1  0  0  0  0
 18134  1  6  0  0  0
 19 20  2  0  0  0  0
 19 24  1  0  0  0  0
 21 22  1  0  0  0  0
 21 23  1  0  0  0  0
 21135  1  1  0  0  0
 22136  1  0  0  0  0
 23137  1  0  0  0  0
 23138  1  0  0  0  0
 23139  1  0  0  0  0
 24 25  1  0  0  0  0
 24140  1  0  0  0  0
 25 26  1  0  0  0  0
 25 31  1  0  0  0  0
 25141  1  1  0  0  0
 26 27  1  0  0  0  0
 26142  1  0  0  0  0
 26143  1  0  0  0  0
 27 28  1  0  0  0  0
 27144  1  0  0  0  0
 27145  1  0  0  0  0
 28 29  1  0  0  0  0
 28146  1  0  0  0  0
 28147  1  0  0  0  0
 29 30  1  0  0  0  0
 29148  1  0  0  0  0
 29149  1  0  0  0  0
 30 33  1  0  0  0  0
 30 34  1  0  0  0  0
 30 35  1  0  0  0  0
 31 32  2  0  0  0  0
 31 36  1  0  0  0  0
 33150  1  0  0  0  0
 33151  1  0  0  0  0
 33152  1  0  0  0  0
 34153  1  0  0  0  0
 34154  1  0  0  0  0
 34155  1  0  0  0  0
 35156  1  0  0  0  0
 35157  1  0  0  0  0
 35158  1  0  0  0  0
 36 37  1  0  0  0  0
 36159  1  0  0  0  0
 37 38  1  0  0  0  0
 37 40  1  0  0  0  0
 37160  1  6  0  0  0
 38 39  2  0  0  0  0
 38 45  1  0  0  0  0
 40 41  1  0  0  0  0
 40161  1  0  0  0  0
 40162  1  0  0  0  0
 41 42  1  0  0  0  0
 41163  1  0  0  0  0
 41164  1  0  0  0  0
 42 43  2  0  0  0  0
 42 44  1  0  0  0  0
 44165  1  0  0  0  0
 44166  1  0  0  0  0
 45 46  1  0  0  0  0
 45167  1  0  0  0  0
 46 47  1  0  0  0  0
 46 49  1  0  0  0  0
 46168  1  1  0  0  0
 47 48  2  0  0  0  0
 47 52  1  0  0  0  0
 49 50  1  0  0  0  0
 49 51  1  0  0  0  0
 49169  1  6  0  0  0
 50170  1  0  0  0  0
 51171  1  0  0  0  0
 51172  1  0  0  0  0
 51173  1  0  0  0  0
 52 53  1  0  0  0  0
 52174  1  0  0  0  0
 53 54  1  0  0  0  0
 53 56  1  0  0  0  0
 53175  1  6  0  0  0
 54 55  2  0  0  0  0
 54 57  1  0  0  0  0
 56176  1  0  0  0  0
 56177  1  0  0  0  0
 56178  1  0  0  0  0
 57 58  1  0  0  0  0
 57179  1  0  0  0  0
 58 59  1  0  0  0  0
 58 61  1  0  0  0  0
 58180  1  1  0  0  0
 59 60  2  0  0  0  0
 59 68  1  0  0  0  0
 61 62  1  0  0  0  0
 61181  1  0  0  0  0
 61182  1  0  0  0  0
 62 63  1  0  0  0  0
 62183  1  0  0  0  0
 62184  1  0  0  0  0
 63 64  1  0  0  0  0
 63185  1  0  0  0  0
 63186  1  0  0  0  0
 64 65  1  0  0  0  0
 64187  1  0  0  0  0
 65 66  1  0  0  0  0
 65 67  1  0  0  0  0
 66188  1  0  0  0  0
 66189  1  0  0  0  0
 67190  1  0  0  0  0
 67191  1  0  0  0  0
 68 69  1  0  0  0  0
 68192  1  0  0  0  0
 69 70  1  0  0  0  0
 69 72  1  0  0  0  0
 69193  1  6  0  0  0
 70 71  2  0  0  0  0
 70 77  1  0  0  0  0
 72 73  1  0  0  0  0
 72194  1  0  0  0  0
 72195  1  0  0  0  0
 73 74  1  0  0  0  0
 73196  1  0  0  0  0
 73197  1  0  0  0  0
 74 75  1  0  0  0  0
 74198  1  0  0  0  0
 74199  1  0  0  0  0
 75 76  1  0  0  0  0
 75200  1  0  0  0  0
 75201  1  0  0  0  0
 76202  1  0  0  0  0
 76203  1  0  0  0  0
 76204  1  0  0  0  0
 77 78  1  0  0  0  0
 77205  1  0  0  0  0
 78 79  1  0  0  0  0
 78 81  1  0  0  0  0
 78206  1  1  0  0  0
 79 80  2  0  0  0  0
 79 83  1  0  0  0  0
 81 82  1  0  0  0  0
 81207  1  0  0  0  0
 81208  1  0  0  0  0
 82209  1  0  0  0  0
 83 84  1  0  0  0  0
 83210  1  0  0  0  0
 84 85  1  0  0  0  0
 84 87  1  0  0  0  0
 84211  1  6  0  0  0
 85 86  2  0  0  0  0
 85 90  1  0  0  0  0
 87 88  1  0  0  0  0
 87 89  1  0  0  0  0
 87212  1  1  0  0  0
 88213  1  0  0  0  0
 89214  1  0  0  0  0
 89215  1  0  0  0  0
 89216  1  0  0  0  0
 90 91  1  0  0  0  0
 90217  1  0  0  0  0
 91 92  1  0  0  0  0
 91218  1  0  0  0  0
 91219  1  0  0  0  0
 92 93  2  0  0  0  0
 92 94  1  0  0  0  0
 94 95  1  0  0  0  0
 94220  1  0  0  0  0
 95 96  1  0  0  0  0
 95221  1  0  0  0  0
 95222  1  0  0  0  0
 96 97  2  0  0  0  0
 96 98  1  0  0  0  0
 98 99  1  0  0  0  0
 98223  1  0  0  0  0
 99100  1  0  0  0  0
 99102  1  0  0  0  0
 99224  1  1  0  0  0
100101  2  0  0  0  0
100107  1  0  0  0  0
102103  1  0  0  0  0
102225  1  0  0  0  0
102226  1  0  0  0  0
103104  1  0  0  0  0
103227  1  0  0  0  0
103228  1  0  0  0  0
104105  1  0  0  0  0
104229  1  0  0  0  0
104230  1  0  0  0  0
105106  1  0  0  0  0
105231  1  0  0  0  0
105232  1  0  0  0  0
106233  1  0  0  0  0
106234  1  0  0  0  0
106235  1  0  0  0  0
107108  1  0  0  0  0
107236  1  0  0  0  0
108109  1  0  0  0  0
108111  1  0  0  0  0
108237  1  1  0  0  0
109110  1  0  0  0  0
109112  2  0  0  0  0
111238  1  0  0  0  0
111239  1  0  0  0  0
111240  1  0  0  0  0
M  CHG  5   1   1  30   1  76   1 106   1 110  -1
M  END
