2fvc_ligand
 OpenBabel08222323343D

 50 53  0  0  0  0  0  0  0  0999 V2000
    9.4220   43.8660   46.6730 C   0  0  0  0  0  0  0  0  0  0  0  0
    8.7810   42.7530   46.0700 C   0  0  0  0  0  0  0  0  0  0  0  0
    8.7180   42.6470   44.6610 C   0  0  0  0  0  0  0  0  0  0  0  0
    9.2970   43.6510   43.8480 C   0  0  0  0  0  0  0  0  0  0  0  0
    9.9400   44.7690   44.4500 C   0  0  0  0  0  0  0  0  0  0  0  0
    9.9920   44.8630   45.8540 C   0  0  0  0  0  0  0  0  0  0  0  0
   10.7820   46.2330   46.6650 S   0  0  0  0  0  0  0  0  0  0  0  0
   10.4200   46.1220   48.2460 N   0  0  0  0  0  0  0  0  0  0  0  0
    9.9560   44.9680   48.8020 C   0  0  0  0  0  0  0  0  0  0  0  0
    9.4990   43.9480   48.0190 N   0  0  0  0  0  0  0  0  0  0  0  0
    9.9960   44.7030   50.2850 C   0  0  0  0  0  0  0  0  0  0  0  0
   10.8600   45.4330   51.0770 C   0  0  0  0  0  0  0  0  0  0  0  0
   10.9310   45.1330   52.5230 C   0  0  0  0  0  0  0  0  0  0  0  0
   10.1030   44.0990   53.0960 C   0  0  0  0  0  0  0  0  0  0  0  0
    9.1890   43.3580   52.2830 N   0  0  0  0  0  0  0  0  0  0  0  0
    9.1170   43.6210   50.9090 C   0  0  0  0  0  0  0  0  0  0  0  0
   11.8400   45.8670   53.3400 C   0  0  0  0  0  0  0  0  0  0  0  0
   11.9540   45.6010   54.7130 C   0  0  0  0  0  0  0  0  0  0  0  0
   11.1620   44.5950   55.2880 C   0  0  0  0  0  0  0  0  0  0  0  0
   10.2470   43.8590   54.4980 C   0  0  0  0  0  0  0  0  0  0  0  0
   11.6860   46.4310   50.5940 O   0  0  0  0  0  0  0  0  0  0  0  0
    8.3730   43.0060   50.1480 O   0  0  0  0  0  0  0  0  0  0  0  0
    8.3170   42.2770   52.8790 C   0  0  0  0  0  0  0  0  0  0  0  0
    6.9650   42.6370   53.5720 C   0  0  0  0  0  0  0  0  0  0  0  0
    6.0320   43.5710   52.7610 C   0  0  0  0  0  0  0  0  0  0  0  0
    4.9230   44.1220   53.6690 C   0  0  0  0  0  0  0  0  0  0  0  0
   10.1890   47.4500   46.2130 O   0  0  0  0  0  0  0  0  0  0  0  0
   12.1910   46.0730   46.5170 O   0  0  0  0  0  0  0  0  0  0  0  0
    5.3930   42.8330   51.5650 C   0  0  0  0  0  0  0  0  0  0  0  0
    8.3386   41.9822   46.6906 H   0  0  0  0  0  0  0  0  0  0  0  0
    8.2260   41.7964   44.2033 H   0  0  0  0  0  0  0  0  0  0  0  0
    9.2507   43.5684   42.7681 H   0  0  0  0  0  0  0  0  0  0  0  0
   10.3856   45.5411   43.8333 H   0  0  0  0  0  0  0  0  0  0  0  0
   10.5417   46.9257   48.8285 H   0  0  0  0  0  0  0  0  0  0  0  0
   12.4523   46.6423   52.8938 H   0  0  0  0  0  0  0  0  0  0  0  0
   12.6475   46.1673   55.3241 H   0  0  0  0  0  0  0  0  0  0  0  0
   11.2519   44.3798   56.3466 H   0  0  0  0  0  0  0  0  0  0  0  0
    9.6399   43.0938   54.9679 H   0  0  0  0  0  0  0  0  0  0  0  0
   11.5492   46.5289   49.6590 H   0  0  0  0  0  0  0  0  0  0  0  0
    8.9286   41.7595   53.6327 H   0  0  0  0  0  0  0  0  0  0  0  0
    8.0759   41.5813   52.0618 H   0  0  0  0  0  0  0  0  0  0  0  0
    7.1942   43.1321   54.5272 H   0  0  0  0  0  0  0  0  0  0  0  0
    6.4225   41.6999   53.7656 H   0  0  0  0  0  0  0  0  0  0  0  0
    6.6286   44.4115   52.3766 H   0  0  0  0  0  0  0  0  0  0  0  0
    4.2660   44.7835   53.0852 H   0  0  0  0  0  0  0  0  0  0  0  0
    5.3744   44.6902   54.4957 H   0  0  0  0  0  0  0  0  0  0  0  0
    4.3341   43.2871   54.0765 H   0  0  0  0  0  0  0  0  0  0  0  0
    6.1853   42.4371   50.9127 H   0  0  0  0  0  0  0  0  0  0  0  0
    4.7648   43.5334   50.9951 H   0  0  0  0  0  0  0  0  0  0  0  0
    4.7737   42.0026   51.9350 H   0  0  0  0  0  0  0  0  0  0  0  0
  1  2  2  0  0  0  0
  1  6  1  0  0  0  0
  1 10  1  0  0  0  0
  2  3  1  0  0  0  0
  2 30  1  0  0  0  0
  3  4  2  0  0  0  0
  3 31  1  0  0  0  0
  4  5  1  0  0  0  0
  4 32  1  0  0  0  0
  5  6  2  0  0  0  0
  5 33  1  0  0  0  0
  6  7  1  0  0  0  0
  7  8  1  0  0  0  0
  7 27  2  0  0  0  0
  7 28  2  0  0  0  0
  8  9  1  0  0  0  0
  8 34  1  0  0  0  0
  9 10  2  0  0  0  0
  9 11  1  0  0  0  0
 11 12  2  0  0  0  0
 11 16  1  0  0  0  0
 12 13  1  0  0  0  0
 12 21  1  0  0  0  0
 13 14  2  0  0  0  0
 13 17  1  0  0  0  0
 14 15  1  0  0  0  0
 14 20  1  0  0  0  0
 15 16  1  0  0  0  0
 15 23  1  0  0  0  0
 16 22  2  0  0  0  0
 17 18  2  0  0  0  0
 17 35  1  0  0  0  0
 18 19  1  0  0  0  0
 18 36  1  0  0  0  0
 19 20  2  0  0  0  0
 19 37  1  0  0  0  0
 20 38  1  0  0  0  0
 21 39  1  0  0  0  0
 23 24  1  0  0  0  0
 23 40  1  0  0  0  0
 23 41  1  0  0  0  0
 24 25  1  0  0  0  0
 24 42  1  0  0  0  0
 24 43  1  0  0  0  0
 25 26  1  0  0  0  0
 25 29  1  0  0  0  0
 25 44  1  0  0  0  0
 26 45  1  0  0  0  0
 26 46  1  0  0  0  0
 26 47  1  0  0  0  0
 29 48  1  0  0  0  0
 29 49  1  0  0  0  0
 29 50  1  0  0  0  0
M  END
