2fw3_ligand
 OpenBabel08222323343D

 73 72  0  0  1  0  0  0  0  0999 V2000
   27.7370   10.0010   32.4040 O   0  5  0  0  0  0  0  0  0  0  0  0
   26.4760    9.9220   32.2400 C   0  0  0  0  0  0  0  0  0  0  0  0
   25.8540   10.7190   31.4910 O   0  0  0  0  0  0  0  0  0  0  0  0
   25.6900    8.8300   32.9560 C   0  0  0  0  0  0  0  0  0  0  0  0
   24.1790    9.1310   33.1180 C   0  0  2  0  0  0  0  0  0  0  0  0
   23.8600   10.2710   34.1080 C   0  0  0  0  0  0  0  0  0  0  0  0
   22.5080   10.9210   33.9700 N   0  3  0  0  0  0  0  0  0  0  0  0
   21.3620   10.0350   34.2790 C   0  0  0  0  0  0  0  0  0  0  0  0
   22.2860   11.5170   32.6320 C   0  0  0  0  0  0  0  0  0  0  0  0
   22.4240   11.9880   34.9730 C   0  0  0  0  0  0  0  0  0  0  0  0
   23.5840    7.9080   33.6690 N   0  0  0  0  0  0  0  0  0  0  0  0
   22.8390    7.1140   32.8520 C   0  0  0  0  0  0  0  0  0  0  0  0
   22.6920    7.4560   31.6740 O   0  0  0  0  0  0  0  0  0  0  0  0
   22.2500    5.9720   33.3090 N   0  0  0  0  0  0  0  0  0  0  0  0
   21.4280    5.0230   32.5590 C   0  0  0  0  0  0  0  0  0  0  0  0
   20.4290    4.4580   33.5690 C   0  0  0  0  0  0  0  0  0  0  0  0
   18.9530    4.8750   33.4300 C   0  0  0  0  0  0  0  0  0  0  0  0
   18.4310    4.7530   32.0110 C   0  0  0  0  0  0  0  0  0  0  0  0
   16.9150    4.9990   31.9480 C   0  0  0  0  0  0  0  0  0  0  0  0
   16.3310    4.8820   30.5350 C   0  0  0  0  0  0  0  0  0  0  0  0
   15.4030    3.6680   30.4390 C   0  0  0  0  0  0  0  0  0  0  0  0
   14.2870    3.8630   29.4110 C   0  0  0  0  0  0  0  0  0  0  0  0
   13.1460    4.7240   29.9610 C   0  0  0  0  0  0  0  0  0  0  0  0
   11.8080    4.0280   29.7190 C   0  0  0  0  0  0  0  0  0  0  0  0
   10.5940    4.8650   30.1240 C   0  0  0  0  0  0  0  0  0  0  0  0
    9.3370    4.1860   29.5970 C   0  0  0  0  0  0  0  0  0  0  0  0
    8.0640    4.9930   29.8430 C   0  0  0  0  0  0  0  0  0  0  0  0
    7.0850    4.2570   30.7270 C   0  0  0  0  0  0  0  0  0  0  0  0
   26.1232    8.6949   33.9580 H   0  0  0  0  0  0  0  0  0  0  0  0
   25.7954    7.8975   32.3821 H   0  0  0  0  0  0  0  0  0  0  0  0
   23.7460    9.3718   32.1359 H   0  0  0  0  0  0  0  0  0  0  0  0
   24.6221   11.0529   33.9745 H   0  0  0  0  0  0  0  0  0  0  0  0
   23.9309    9.8597   35.1257 H   0  0  0  0  0  0  0  0  0  0  0  0
   20.4225   10.5928   34.1516 H   0  0  0  0  0  0  0  0  0  0  0  0
   21.4409    9.6822   35.3179 H   0  0  0  0  0  0  0  0  0  0  0  0
   21.3713    9.1720   33.5970 H   0  0  0  0  0  0  0  0  0  0  0  0
   23.1272   12.1802   32.3819 H   0  0  0  0  0  0  0  0  0  0  0  0
   21.3515   12.0971   32.6395 H   0  0  0  0  0  0  0  0  0  0  0  0
   22.2146   10.7163   31.8812 H   0  0  0  0  0  0  0  0  0  0  0  0
   22.5866   11.5633   35.9746 H   0  0  0  0  0  0  0  0  0  0  0  0
   21.4287   12.4544   34.9297 H   0  0  0  0  0  0  0  0  0  0  0  0
   23.1937   12.7464   34.7670 H   0  0  0  0  0  0  0  0  0  0  0  0
   23.7234    7.6621   34.6282 H   0  0  0  0  0  0  0  0  0  0  0  0
   22.3982    5.7574   34.2744 H   0  0  0  0  0  0  0  0  0  0  0  0
   22.0523    4.2177   32.1446 H   0  0  0  0  0  0  0  0  0  0  0  0
   20.8996    5.5350   31.7413 H   0  0  0  0  0  0  0  0  0  0  0  0
   20.7642    4.7671   34.5700 H   0  0  0  0  0  0  0  0  0  0  0  0
   20.4687    3.3615   33.4914 H   0  0  0  0  0  0  0  0  0  0  0  0
   18.8535    5.9225   33.7507 H   0  0  0  0  0  0  0  0  0  0  0  0
   18.3446    4.2322   34.0832 H   0  0  0  0  0  0  0  0  0  0  0  0
   18.6452    3.7411   31.6366 H   0  0  0  0  0  0  0  0  0  0  0  0
   18.9404    5.4939   31.3773 H   0  0  0  0  0  0  0  0  0  0  0  0
   16.7113    6.0120   32.3254 H   0  0  0  0  0  0  0  0  0  0  0  0
   16.4160    4.2603   32.5925 H   0  0  0  0  0  0  0  0  0  0  0  0
   17.1521    4.7684   29.8119 H   0  0  0  0  0  0  0  0  0  0  0  0
   15.7606    5.7933   30.3021 H   0  0  0  0  0  0  0  0  0  0  0  0
   14.9476    3.4933   31.4250 H   0  0  0  0  0  0  0  0  0  0  0  0
   15.9994    2.7901   30.1498 H   0  0  0  0  0  0  0  0  0  0  0  0
   13.8856    2.8779   29.1310 H   0  0  0  0  0  0  0  0  0  0  0  0
   14.7059    4.3548   28.5207 H   0  0  0  0  0  0  0  0  0  0  0  0
   13.1471    5.6995   29.4526 H   0  0  0  0  0  0  0  0  0  0  0  0
   13.2895    4.8733   31.0413 H   0  0  0  0  0  0  0  0  0  0  0  0
   11.7936    3.0933   30.2987 H   0  0  0  0  0  0  0  0  0  0  0  0
   11.7269    3.7958   28.6469 H   0  0  0  0  0  0  0  0  0  0  0  0
   10.6788    5.8734   29.6928 H   0  0  0  0  0  0  0  0  0  0  0  0
   10.5435    4.9381   31.2204 H   0  0  0  0  0  0  0  0  0  0  0  0
    9.2330    3.2103   30.0942 H   0  0  0  0  0  0  0  0  0  0  0  0
    9.4503    4.0351   28.5133 H   0  0  0  0  0  0  0  0  0  0  0  0
    7.5825    5.1991   28.8757 H   0  0  0  0  0  0  0  0  0  0  0  0
    8.3345    5.9427   30.3277 H   0  0  0  0  0  0  0  0  0  0  0  0
    6.1876    4.8758   30.8749 H   0  0  0  0  0  0  0  0  0  0  0  0
    7.5532    4.0515   31.7009 H   0  0  0  0  0  0  0  0  0  0  0  0
    6.8012    3.3078   30.2490 H   0  0  0  0  0  0  0  0  0  0  0  0
  1  2  1  0  0  0  0
  2  3  2  0  0  0  0
  2  4  1  0  0  0  0
  4  5  1  0  0  0  0
  4 29  1  0  0  0  0
  4 30  1  0  0  0  0
  5  6  1  0  0  0  0
  5 11  1  0  0  0  0
  5 31  1  6  0  0  0
  6  7  1  0  0  0  0
  6 32  1  0  0  0  0
  6 33  1  0  0  0  0
  7  8  1  0  0  0  0
  7  9  1  0  0  0  0
  7 10  1  0  0  0  0
  8 34  1  0  0  0  0
  8 35  1  0  0  0  0
  8 36  1  0  0  0  0
  9 37  1  0  0  0  0
  9 38  1  0  0  0  0
  9 39  1  0  0  0  0
 10 40  1  0  0  0  0
 10 41  1  0  0  0  0
 10 42  1  0  0  0  0
 11 12  1  0  0  0  0
 11 43  1  0  0  0  0
 12 13  2  0  0  0  0
 12 14  1  0  0  0  0
 14 15  1  0  0  0  0
 14 44  1  0  0  0  0
 15 16  1  0  0  0  0
 15 45  1  0  0  0  0
 15 46  1  0  0  0  0
 16 17  1  0  0  0  0
 16 47  1  0  0  0  0
 16 48  1  0  0  0  0
 17 18  1  0  0  0  0
 17 49  1  0  0  0  0
 17 50  1  0  0  0  0
 18 19  1  0  0  0  0
 18 51  1  0  0  0  0
 18 52  1  0  0  0  0
 19 20  1  0  0  0  0
 19 53  1  0  0  0  0
 19 54  1  0  0  0  0
 20 21  1  0  0  0  0
 20 55  1  0  0  0  0
 20 56  1  0  0  0  0
 21 22  1  0  0  0  0
 21 57  1  0  0  0  0
 21 58  1  0  0  0  0
 22 23  1  0  0  0  0
 22 59  1  0  0  0  0
 22 60  1  0  0  0  0
 23 24  1  0  0  0  0
 23 61  1  0  0  0  0
 23 62  1  0  0  0  0
 24 25  1  0  0  0  0
 24 63  1  0  0  0  0
 24 64  1  0  0  0  0
 25 26  1  0  0  0  0
 25 65  1  0  0  0  0
 25 66  1  0  0  0  0
 26 27  1  0  0  0  0
 26 67  1  0  0  0  0
 26 68  1  0  0  0  0
 27 28  1  0  0  0  0
 27 69  1  0  0  0  0
 27 70  1  0  0  0  0
 28 71  1  0  0  0  0
 28 72  1  0  0  0  0
 28 73  1  0  0  0  0
M  CHG  2   1  -1   7   1
M  END
