2fx7_ligand
 OpenBabel08222323343D

315322  0  0  1  0  0  0  0  0999 V2000
   49.5710  -11.8440   70.2610 N   0  3  0  0  0  0  0  0  0  0  0  0
   49.0560  -11.2630   68.9900 C   0  0  2  0  0  0  0  0  0  0  0  0
   48.4310   -9.8930   69.2430 C   0  0  0  0  0  0  0  0  0  0  0  0
   47.4540   -9.7670   69.9840 O   0  0  0  0  0  0  0  0  0  0  0  0
   48.0280  -12.2180   68.3730 C   0  0  0  0  0  0  0  0  0  0  0  0
   47.4740  -11.7130   67.0550 C   0  0  0  0  0  0  0  0  0  0  0  0
   47.9530  -10.7220   66.5040 O   0  0  0  0  0  0  0  0  0  0  0  0
   46.4630  -12.4030   66.5390 N   0  0  0  0  0  0  0  0  0  0  0  0
   49.0180   -8.8680   68.6320 N   0  0  0  0  0  0  0  0  0  0  0  0
   48.5470   -7.4910   68.7590 C   0  0  2  0  0  0  0  0  0  0  0  0
   47.0620   -7.3760   68.4180 C   0  0  0  0  0  0  0  0  0  0  0  0
   46.3420   -6.5700   69.0070 O   0  0  0  0  0  0  0  0  0  0  0  0
   49.3590   -6.5940   67.8210 C   0  0  0  0  0  0  0  0  0  0  0  0
   48.9910   -5.1310   67.8160 C   0  0  0  0  0  0  0  0  0  0  0  0
   49.4930   -4.1540   68.6310 C   0  0  0  0  0  0  0  0  0  0  0  0
   48.1060   -4.4700   66.9000 C   0  0  0  0  0  0  0  0  0  0  0  0
   48.9840   -2.9280   68.2720 N   0  0  0  0  0  0  0  0  0  0  0  0
   48.1310   -3.0930   67.2130 C   0  0  0  0  0  0  0  0  0  0  0  0
   47.2970   -4.9090   65.8420 C   0  0  0  0  0  0  0  0  0  0  0  0
   47.3780   -2.1480   66.5040 C   0  0  0  0  0  0  0  0  0  0  0  0
   46.5440   -3.9680   65.1370 C   0  0  0  0  0  0  0  0  0  0  0  0
   46.5930   -2.6040   65.4740 C   0  0  0  0  0  0  0  0  0  0  0  0
   46.6010   -8.1810   67.4650 N   0  0  0  0  0  0  0  0  0  0  0  0
   45.1990   -8.1280   67.0640 C   0  0  2  0  0  0  0  0  0  0  0  0
   44.2190   -8.6470   68.1200 C   0  0  0  0  0  0  0  0  0  0  0  0
   43.0090   -8.5790   67.9280 O   0  0  0  0  0  0  0  0  0  0  0  0
   44.9880   -8.8800   65.7400 C   0  0  0  0  0  0  0  0  0  0  0  0
   45.6170   -8.2010   64.5490 C   0  0  0  0  0  0  0  0  0  0  0  0
   46.9070   -8.5270   64.1380 C   0  0  0  0  0  0  0  0  0  0  0  0
   44.9210   -7.2190   63.8500 C   0  0  0  0  0  0  0  0  0  0  0  0
   47.4950   -7.8840   63.0520 C   0  0  0  0  0  0  0  0  0  0  0  0
   45.5000   -6.5680   62.7610 C   0  0  0  0  0  0  0  0  0  0  0  0
   46.7880   -6.8990   62.3600 C   0  0  0  0  0  0  0  0  0  0  0  0
   44.7330   -9.1580   69.2350 N   0  0  0  0  0  0  0  0  0  0  0  0
   43.8640   -9.6590   70.2980 C   0  0  2  0  0  0  0  0  0  0  0  0
   43.7760   -8.6930   71.4790 C   0  0  0  0  0  0  0  0  0  0  0  0
   42.9680   -8.8880   72.3840 O   0  0  0  0  0  0  0  0  0  0  0  0
   44.3530  -11.0210   70.8150 C   0  0  0  0  0  0  0  0  0  0  0  0
   44.1570  -12.1410   69.8100 C   0  0  0  0  0  0  0  0  0  0  0  0
   43.1160  -12.1470   69.1190 O   0  5  0  0  0  0  0  0  0  0  0  0
   45.0370  -13.0260   69.7250 O   0  0  0  0  0  0  0  0  0  0  0  0
   44.6010   -7.6510   71.4690 N   0  0  0  0  0  0  0  0  0  0  0  0
   44.6180   -6.6830   72.5650 C   0  0  2  0  0  0  0  0  0  0  0  0
   43.2900   -5.9750   72.8320 C   0  0  0  0  0  0  0  0  0  0  0  0
   42.8440   -5.8990   73.9810 O   0  0  0  0  0  0  0  0  0  0  0  0
   45.7210   -5.6190   72.3360 C   0  0  2  0  0  0  0  0  0  0  0  0
   47.0920   -6.3060   72.3330 C   0  0  0  0  0  0  0  0  0  0  0  0
   45.6640   -4.5410   73.4280 C   0  0  0  0  0  0  0  0  0  0  0  0
   48.2520   -5.3790   72.0550 C   0  0  0  0  0  0  0  0  0  0  0  0
   42.6480   -5.4600   71.7890 N   0  0  0  0  0  0  0  0  0  0  0  0
   41.3930   -4.7510   71.9900 C   0  0  2  0  0  0  0  0  0  0  0  0
   40.2810   -5.6370   72.5480 C   0  0  0  0  0  0  0  0  0  0  0  0
   39.3940   -5.1510   73.2490 O   0  0  0  0  0  0  0  0  0  0  0  0
   40.9150   -4.0760   70.6900 C   0  0  2  0  0  0  0  0  0  0  0  0
   40.8310   -5.0470   69.6430 O   0  0  0  0  0  0  0  0  0  0  0  0
   41.8840   -2.9640   70.2900 C   0  0  0  0  0  0  0  0  0  0  0  0
   40.3270   -6.9320   72.2470 N   0  0  0  0  0  0  0  0  0  0  0  0
   39.3150   -7.8490   72.7630 C   0  0  2  0  0  0  0  0  0  0  0  0
   39.4940   -7.9250   74.2750 C   0  0  0  0  0  0  0  0  0  0  0  0
   38.5280   -7.8720   75.0350 O   0  0  0  0  0  0  0  0  0  0  0  0
   39.4850   -9.2410   72.1530 C   0  0  0  0  0  0  0  0  0  0  0  0
   38.5190  -10.2520   72.7390 C   0  0  0  0  0  0  0  0  0  0  0  0
   38.9290  -11.2310   73.3630 O   0  0  0  0  0  0  0  0  0  0  0  0
   37.2270  -10.0160   72.5490 N   0  0  0  0  0  0  0  0  0  0  0  0
   40.7470   -8.0360   74.6980 N   0  0  0  0  0  0  0  0  0  0  0  0
   41.0830   -8.1140   76.1120 C   0  0  2  0  0  0  0  0  0  0  0  0
   40.6450   -6.8390   76.8320 C   0  0  0  0  0  0  0  0  0  0  0  0
   40.0630   -6.8980   77.9170 O   0  0  0  0  0  0  0  0  0  0  0  0
   42.5880   -8.3050   76.2700 C   0  0  0  0  0  0  0  0  0  0  0  0
   43.0160   -8.6590   77.6550 C   0  0  0  0  0  0  0  0  0  0  0  0
   42.9370   -9.8840   78.2510 C   0  0  0  0  0  0  0  0  0  0  0  0
   43.6310   -7.7870   78.6080 C   0  0  0  0  0  0  0  0  0  0  0  0
   43.4730   -9.8310   79.5160 N   0  0  0  0  0  0  0  0  0  0  0  0
   43.9070   -8.5540   79.7600 C   0  0  0  0  0  0  0  0  0  0  0  0
   43.9770   -6.4300   78.5990 C   0  0  0  0  0  0  0  0  0  0  0  0
   44.5180   -8.0100   80.8950 C   0  0  0  0  0  0  0  0  0  0  0  0
   44.5870   -5.8880   79.7280 C   0  0  0  0  0  0  0  0  0  0  0  0
   44.8510   -6.6800   80.8590 C   0  0  0  0  0  0  0  0  0  0  0  0
   40.9310   -5.6890   76.2240 N   0  0  0  0  0  0  0  0  0  0  0  0
   40.5620   -4.4000   76.7970 C   0  0  2  0  0  0  0  0  0  0  0  0
   39.0530   -4.3140   76.9860 C   0  0  0  0  0  0  0  0  0  0  0  0
   38.5710   -3.7960   77.9930 O   0  0  0  0  0  0  0  0  0  0  0  0
   41.0270   -3.2550   75.8890 C   0  0  0  0  0  0  0  0  0  0  0  0
   42.5360   -3.0240   75.7850 C   0  0  0  0  0  0  0  0  0  0  0  0
   42.8190   -1.8570   74.8400 C   0  0  0  0  0  0  0  0  0  0  0  0
   43.1000   -2.7350   77.1730 C   0  0  0  0  0  0  0  0  0  0  0  0
   38.3170   -4.8210   76.0040 N   0  0  0  0  0  0  0  0  0  0  0  0
   36.8610   -4.8140   76.0450 C   0  0  2  0  0  0  0  0  0  0  0  0
   36.3570   -5.5290   77.2980 C   0  0  0  0  0  0  0  0  0  0  0  0
   35.5070   -5.0110   78.0200 O   0  0  0  0  0  0  0  0  0  0  0  0
   36.3030   -5.5070   74.8010 C   0  0  0  0  0  0  0  0  0  0  0  0
   34.8260   -5.3680   74.6530 C   0  0  0  0  0  0  0  0  0  0  0  0
   34.1480   -4.2880   74.1670 C   0  0  0  0  0  0  0  0  0  0  0  0
   33.8360   -6.3360   75.0170 C   0  0  0  0  0  0  0  0  0  0  0  0
   32.7940   -4.5240   74.2040 N   0  0  0  0  0  0  0  0  0  0  0  0
   32.5750   -5.7730   74.7210 C   0  0  0  0  0  0  0  0  0  0  0  0
   33.8920   -7.6250   75.5640 C   0  0  0  0  0  0  0  0  0  0  0  0
   31.3760   -6.4570   74.9540 C   0  0  0  0  0  0  0  0  0  0  0  0
   32.6970   -8.3050   75.7970 C   0  0  0  0  0  0  0  0  0  0  0  0
   31.4570   -7.7180   75.4910 C   0  0  0  0  0  0  0  0  0  0  0  0
   36.8820   -6.7240   77.5470 N   0  0  0  0  0  0  0  0  0  0  0  0
   36.4780   -7.5000   78.7150 C   0  0  2  0  0  0  0  0  0  0  0  0
   36.8100   -6.7840   80.0170 C   0  0  0  0  0  0  0  0  0  0  0  0
   36.1290   -6.9650   81.0230 O   0  0  0  0  0  0  0  0  0  0  0  0
   37.1490   -8.8750   78.6990 C   0  0  0  0  0  0  0  0  0  0  0  0
   36.4330   -9.8970   77.8460 C   0  0  0  0  0  0  0  0  0  0  0  0
   35.1530  -10.3390   78.1830 C   0  0  0  0  0  0  0  0  0  0  0  0
   37.0360  -10.4320   76.7080 C   0  0  0  0  0  0  0  0  0  0  0  0
   34.4920  -11.2910   77.4080 C   0  0  0  0  0  0  0  0  0  0  0  0
   36.3830  -11.3840   75.9250 C   0  0  0  0  0  0  0  0  0  0  0  0
   35.1130  -11.8090   76.2820 C   0  0  0  0  0  0  0  0  0  0  0  0
   34.4680  -12.7590   75.5210 O   0  0  0  0  0  0  0  0  0  0  0  0
   37.8570   -5.9670   79.9930 N   0  0  0  0  0  0  0  0  0  0  0  0
   38.2740   -5.2250   81.1770 C   0  0  2  0  0  0  0  0  0  0  0  0
   37.2630   -4.1680   81.6030 C   0  0  0  0  0  0  0  0  0  0  0  0
   36.7390   -4.2170   82.7160 O   0  0  0  0  0  0  0  0  0  0  0  0
   39.6350   -4.5380   80.9510 C   0  0  2  0  0  0  0  0  0  0  0  0
   40.7560   -5.5610   81.1090 C   0  0  0  0  0  0  0  0  0  0  0  0
   39.8120   -3.3770   81.9200 C   0  0  0  0  0  0  0  0  0  0  0  0
   42.1180   -4.9390   81.1490 C   0  0  0  0  0  0  0  0  0  0  0  0
   37.0000   -3.2090   80.7230 N   0  0  0  0  0  0  0  0  0  0  0  0
   36.0590   -2.1420   81.0340 C   0  0  2  0  0  0  0  0  0  0  0  0
   34.6350   -2.6740   81.1570 C   0  0  0  0  0  0  0  0  0  0  0  0
   33.7290   -1.9550   81.5770 O   0  0  0  0  0  0  0  0  0  0  0  0
   36.1200   -1.0520   79.9610 C   0  0  0  0  0  0  0  0  0  0  0  0
   35.6660   -1.4950   78.5840 C   0  0  0  0  0  0  0  0  0  0  0  0
   35.8930   -0.3970   77.5530 C   0  0  0  0  0  0  0  0  0  0  0  0
   35.1570    0.8850   77.9200 C   0  0  0  0  0  0  0  0  0  0  0  0
   35.4200    1.9750   76.9380 N   0  3  0  0  0  0  0  0  0  0  0  0
   34.4460   -3.9370   80.7910 N   0  0  0  0  0  0  0  0  0  0  0  0
   33.1340   -4.5650   80.8710 C   0  0  2  0  0  0  0  0  0  0  0  0
   32.9500   -5.2500   82.2210 C   0  0  0  0  0  0  0  0  0  0  0  0
   31.8250   -5.4320   82.6840 O   0  0  0  0  0  0  0  0  0  0  0  0
   32.9620   -5.5900   79.7450 C   0  0  0  0  0  0  0  0  0  0  0  0
   31.6670   -6.3910   79.8270 C   0  0  0  0  0  0  0  0  0  0  0  0
   30.4400   -5.4930   79.7110 C   0  0  0  0  0  0  0  0  0  0  0  0
   30.2220   -5.0230   78.2810 C   0  0  0  0  0  0  0  0  0  0  0  0
   29.8480   -6.1580   77.3920 N   0  3  0  0  0  0  0  0  0  0  0  0
   34.0590   -5.6240   82.8500 N   0  0  0  0  0  0  0  0  0  0  0  0
   34.0090   -6.2940   84.1440 C   0  0  2  0  0  0  0  0  0  0  0  0
   34.0350   -5.3100   85.3090 C   0  0  0  0  0  0  0  0  0  0  0  0
   33.2480   -5.4330   86.2470 O   0  0  0  0  0  0  0  0  0  0  0  0
   35.1680   -7.2880   84.2650 C   0  0  0  0  0  0  0  0  0  0  0  0
   35.1130   -8.4020   83.2280 C   0  0  0  0  0  0  0  0  0  0  0  0
   36.2220   -9.4230   83.4160 C   0  0  0  0  0  0  0  0  0  0  0  0
   36.0560  -10.1840   84.7200 C   0  0  0  0  0  0  0  0  0  0  0  0
   37.0140  -11.3170   84.8270 N   0  3  0  0  0  0  0  0  0  0  0  0
   34.9390   -4.3380   85.2530 N   0  0  0  0  0  0  0  0  0  0  0  0
   35.0400   -3.3330   86.3080 C   0  0  2  0  0  0  0  0  0  0  0  0
   35.5410   -2.0010   85.7630 C   0  0  0  0  0  0  0  0  0  0  0  0
   35.8070   -1.9260   84.5440 O   0  5  0  0  0  0  0  0  0  0  0  0
   35.9730   -3.8120   87.4270 C   0  0  0  0  0  0  0  0  0  0  0  0
   35.4680   -5.0270   88.1870 C   0  0  0  0  0  0  0  0  0  0  0  0
   36.3870   -5.3890   89.3430 C   0  0  0  0  0  0  0  0  0  0  0  0
   35.7950   -6.5210   90.1650 C   0  0  0  0  0  0  0  0  0  0  0  0
   36.6370   -6.8650   91.3410 N   0  3  0  0  0  0  0  0  0  0  0  0
   35.6600   -1.0480   86.5630 O   0  0  0  0  0  0  0  0  0  0  0  0
   49.9796  -12.7468   70.0764 H   0  0  0  0  0  0  0  0  0  0  0  0
   48.8114  -11.9465   70.9157 H   0  0  0  0  0  0  0  0  0  0  0  0
   50.2705  -11.2320   70.6511 H   0  0  0  0  0  0  0  0  0  0  0  0
   49.8947  -11.1425   68.2886 H   0  0  0  0  0  0  0  0  0  0  0  0
   47.1946  -12.3419   69.0801 H   0  0  0  0  0  0  0  0  0  0  0  0
   48.5110  -13.1912   68.2014 H   0  0  0  0  0  0  0  0  0  0  0  0
   46.0550  -12.1189   65.6713 H   0  0  0  0  0  0  0  0  0  0  0  0
   46.1099  -13.2065   67.0182 H   0  0  0  0  0  0  0  0  0  0  0  0
   49.8180   -9.0480   68.0597 H   0  0  0  0  0  0  0  0  0  0  0  0
   48.6978   -7.1589   69.7968 H   0  0  0  0  0  0  0  0  0  0  0  0
   49.2314   -6.9758   66.7973 H   0  0  0  0  0  0  0  0  0  0  0  0
   50.4166   -6.6732   68.1127 H   0  0  0  0  0  0  0  0  0  0  0  0
   50.1946   -4.3227   69.4466 H   0  0  0  0  0  0  0  0  0  0  0  0
   49.2079   -2.0309   68.7259 H   0  0  0  0  0  0  0  0  0  0  0  0
   47.2570   -5.9592   65.5765 H   0  0  0  0  0  0  0  0  0  0  0  0
   47.4138   -1.0951   66.7593 H   0  0  0  0  0  0  0  0  0  0  0  0
   45.9127   -4.2938   64.3182 H   0  0  0  0  0  0  0  0  0  0  0  0
   45.9978   -1.8966   64.9080 H   0  0  0  0  0  0  0  0  0  0  0  0
   47.2201   -8.8278   67.0197 H   0  0  0  0  0  0  0  0  0  0  0  0
   44.9556   -7.0692   66.8916 H   0  0  0  0  0  0  0  0  0  0  0  0
   43.9065   -8.9670   65.5588 H   0  0  0  0  0  0  0  0  0  0  0  0
   45.4254   -9.8845   65.8378 H   0  0  0  0  0  0  0  0  0  0  0  0
   47.4608   -9.2916   64.6707 H   0  0  0  0  0  0  0  0  0  0  0  0
   43.9149   -6.9566   64.1564 H   0  0  0  0  0  0  0  0  0  0  0  0
   48.5004   -8.1479   62.7442 H   0  0  0  0  0  0  0  0  0  0  0  0
   44.9453   -5.8043   62.2279 H   0  0  0  0  0  0  0  0  0  0  0  0
   47.2418   -6.3952   61.5142 H   0  0  0  0  0  0  0  0  0  0  0  0
   45.7258   -9.2000   69.3474 H   0  0  0  0  0  0  0  0  0  0  0  0
   42.8553   -9.7849   69.8778 H   0  0  0  0  0  0  0  0  0  0  0  0
   43.7955  -11.2695   71.7301 H   0  0  0  0  0  0  0  0  0  0  0  0
   45.4251  -10.9431   71.0485 H   0  0  0  0  0  0  0  0  0  0  0  0
   45.2230   -7.5264   70.6960 H   0  0  0  0  0  0  0  0  0  0  0  0
   44.8723   -7.2431   73.4769 H   0  0  0  0  0  0  0  0  0  0  0  0
   45.5586   -5.1405   71.3590 H   0  0  0  0  0  0  0  0  0  0  0  0
   47.0835   -7.0883   71.5598 H   0  0  0  0  0  0  0  0  0  0  0  0
   47.2484   -6.7670   73.3194 H   0  0  0  0  0  0  0  0  0  0  0  0
   44.6753   -4.0590   73.4161 H   0  0  0  0  0  0  0  0  0  0  0  0
   46.4419   -3.7865   73.2394 H   0  0  0  0  0  0  0  0  0  0  0  0
   45.8338   -5.0052   74.4107 H   0  0  0  0  0  0  0  0  0  0  0  0
   49.1911   -5.9516   72.0716 H   0  0  0  0  0  0  0  0  0  0  0  0
   48.2873   -4.5945   72.8253 H   0  0  0  0  0  0  0  0  0  0  0  0
   48.1224   -4.9159   71.0657 H   0  0  0  0  0  0  0  0  0  0  0  0
   43.0260   -5.5593   70.8685 H   0  0  0  0  0  0  0  0  0  0  0  0
   41.5845   -3.9590   72.7289 H   0  0  0  0  0  0  0  0  0  0  0  0
   39.9188   -3.6404   70.8572 H   0  0  0  0  0  0  0  0  0  0  0  0
   40.5360   -4.6253   68.8444 H   0  0  0  0  0  0  0  0  0  0  0  0
   41.5339   -2.4890   69.3616 H   0  0  0  0  0  0  0  0  0  0  0  0
   42.8851   -3.3904   70.1288 H   0  0  0  0  0  0  0  0  0  0  0  0
   41.9304   -2.2121   71.0916 H   0  0  0  0  0  0  0  0  0  0  0  0
   41.0603   -7.2799   71.6629 H   0  0  0  0  0  0  0  0  0  0  0  0
   38.3116   -7.4675   72.5231 H   0  0  0  0  0  0  0  0  0  0  0  0
   40.5128   -9.5853   72.3400 H   0  0  0  0  0  0  0  0  0  0  0  0
   39.3120   -9.1748   71.0687 H   0  0  0  0  0  0  0  0  0  0  0  0
   36.5442  -10.6493   72.9133 H   0  0  0  0  0  0  0  0  0  0  0  0
   36.9362   -9.2049   72.0415 H   0  0  0  0  0  0  0  0  0  0  0  0
   41.4844   -8.0671   74.0232 H   0  0  0  0  0  0  0  0  0  0  0  0
   40.5617   -8.9740   76.5577 H   0  0  0  0  0  0  0  0  0  0  0  0
   43.0870   -7.3675   75.9835 H   0  0  0  0  0  0  0  0  0  0  0  0
   42.9066   -9.1117   75.5934 H   0  0  0  0  0  0  0  0  0  0  0  0
   42.5111  -10.7746   77.7913 H   0  0  0  0  0  0  0  0  0  0  0  0
   43.5378  -10.6217   80.1729 H   0  0  0  0  0  0  0  0  0  0  0  0
   43.7742   -5.8136   77.7307 H   0  0  0  0  0  0  0  0  0  0  0  0
   44.7206   -8.6169   81.7700 H   0  0  0  0  0  0  0  0  0  0  0  0
   44.8623   -4.8396   79.7345 H   0  0  0  0  0  0  0  0  0  0  0  0
   45.3283   -6.2296   81.7218 H   0  0  0  0  0  0  0  0  0  0  0  0
   41.4133   -5.7102   75.3482 H   0  0  0  0  0  0  0  0  0  0  0  0
   41.0503   -4.2976   77.7773 H   0  0  0  0  0  0  0  0  0  0  0  0
   40.5738   -2.3264   76.2663 H   0  0  0  0  0  0  0  0  0  0  0  0
   40.6516   -3.4608   74.8757 H   0  0  0  0  0  0  0  0  0  0  0  0
   43.0134   -3.9309   75.3854 H   0  0  0  0  0  0  0  0  0  0  0  0
   43.9050   -1.6968   74.7702 H   0  0  0  0  0  0  0  0  0  0  0  0
   42.3383   -0.9466   75.2274 H   0  0  0  0  0  0  0  0  0  0  0  0
   42.4175   -2.0875   73.8422 H   0  0  0  0  0  0  0  0  0  0  0  0
   42.8875   -3.5842   77.8392 H   0  0  0  0  0  0  0  0  0  0  0  0
   42.6313   -1.8257   77.5772 H   0  0  0  0  0  0  0  0  0  0  0  0
   44.1877   -2.5869   77.1033 H   0  0  0  0  0  0  0  0  0  0  0  0
   38.7770   -5.2204   75.2110 H   0  0  0  0  0  0  0  0  0  0  0  0
   36.5104   -3.7715   76.0634 H   0  0  0  0  0  0  0  0  0  0  0  0
   36.5474   -6.5779   74.8602 H   0  0  0  0  0  0  0  0  0  0  0  0
   36.7842   -5.0696   73.9138 H   0  0  0  0  0  0  0  0  0  0  0  0
   34.6119   -3.3725   73.8029 H   0  0  0  0  0  0  0  0  0  0  0  0
   32.0632   -3.8680   73.8934 H   0  0  0  0  0  0  0  0  0  0  0  0
   34.8449   -8.0842   75.8012 H   0  0  0  0  0  0  0  0  0  0  0  0
   30.4181   -6.0073   74.7189 H   0  0  0  0  0  0  0  0  0  0  0  0
   32.7248   -9.3023   76.2209 H   0  0  0  0  0  0  0  0  0  0  0  0
   30.5456   -8.2725   75.6830 H   0  0  0  0  0  0  0  0  0  0  0  0
   37.5670   -7.0987   76.9221 H   0  0  0  0  0  0  0  0  0  0  0  0
   35.3882   -7.6425   78.6694 H   0  0  0  0  0  0  0  0  0  0  0  0
   37.1890   -9.2527   79.7313 H   0  0  0  0  0  0  0  0  0  0  0  0
   38.1718   -8.7566   78.3119 H   0  0  0  0  0  0  0  0  0  0  0  0
   34.6643   -9.9353   79.0623 H   0  0  0  0  0  0  0  0  0  0  0  0
   38.0297  -10.1022   76.4270 H   0  0  0  0  0  0  0  0  0  0  0  0
   33.4982  -11.6242   77.6843 H   0  0  0  0  0  0  0  0  0  0  0  0
   36.8658  -11.7888   75.0429 H   0  0  0  0  0  0  0  0  0  0  0  0
   33.6144  -12.9384   75.8973 H   0  0  0  0  0  0  0  0  0  0  0  0
   38.3716   -5.8581   79.1425 H   0  0  0  0  0  0  0  0  0  0  0  0
   38.3808   -5.9465   82.0004 H   0  0  0  0  0  0  0  0  0  0  0  0
   39.6642   -4.1417   79.9253 H   0  0  0  0  0  0  0  0  0  0  0  0
   40.7149   -6.2593   80.2601 H   0  0  0  0  0  0  0  0  0  0  0  0
   40.5960   -6.1137   82.0465 H   0  0  0  0  0  0  0  0  0  0  0  0
   38.9914   -2.6572   81.7836 H   0  0  0  0  0  0  0  0  0  0  0  0
   40.7730   -2.8789   81.7239 H   0  0  0  0  0  0  0  0  0  0  0  0
   39.7994   -3.7560   82.9526 H   0  0  0  0  0  0  0  0  0  0  0  0
   42.8774   -5.7265   81.2637 H   0  0  0  0  0  0  0  0  0  0  0  0
   42.1790   -4.2441   81.9995 H   0  0  0  0  0  0  0  0  0  0  0  0
   42.2979   -4.3897   80.2131 H   0  0  0  0  0  0  0  0  0  0  0  0
   37.4553   -3.2197   79.8327 H   0  0  0  0  0  0  0  0  0  0  0  0
   36.3469   -1.6991   81.9989 H   0  0  0  0  0  0  0  0  0  0  0  0
   37.1608   -0.7047   79.8837 H   0  0  0  0  0  0  0  0  0  0  0  0
   35.4781   -0.2184   80.2820 H   0  0  0  0  0  0  0  0  0  0  0  0
   34.5938   -1.7380   78.6200 H   0  0  0  0  0  0  0  0  0  0  0  0
   36.2349   -2.3888   78.2883 H   0  0  0  0  0  0  0  0  0  0  0  0
   35.5320   -0.7471   76.5747 H   0  0  0  0  0  0  0  0  0  0  0  0
   36.9704   -0.1837   77.4914 H   0  0  0  0  0  0  0  0  0  0  0  0
   35.4902    1.2144   78.9152 H   0  0  0  0  0  0  0  0  0  0  0  0
   34.0764    0.6807   77.9441 H   0  0  0  0  0  0  0  0  0  0  0  0
   34.9175    2.8042   77.2138 H   0  0  0  0  0  0  0  0  0  0  0  0
   35.1123    1.6845   76.0231 H   0  0  0  0  0  0  0  0  0  0  0  0
   36.4079    2.1736   76.9130 H   0  0  0  0  0  0  0  0  0  0  0  0
   35.2223   -4.4689   80.4528 H   0  0  0  0  0  0  0  0  0  0  0  0
   32.3648   -3.7863   80.7616 H   0  0  0  0  0  0  0  0  0  0  0  0
   33.8067   -6.2934   79.7857 H   0  0  0  0  0  0  0  0  0  0  0  0
   32.9769   -5.0542   78.7844 H   0  0  0  0  0  0  0  0  0  0  0  0
   31.6337   -6.9170   80.7925 H   0  0  0  0  0  0  0  0  0  0  0  0
   31.6497   -7.1256   79.0084 H   0  0  0  0  0  0  0  0  0  0  0  0
   30.5785   -4.6143   80.3581 H   0  0  0  0  0  0  0  0  0  0  0  0
   29.5539   -6.0552   80.0407 H   0  0  0  0  0  0  0  0  0  0  0  0
   31.1505   -4.5660   77.9080 H   0  0  0  0  0  0  0  0  0  0  0  0
   29.4147   -4.2760   78.2680 H   0  0  0  0  0  0  0  0  0  0  0  0
   29.7101   -5.8181   76.4531 H   0  0  0  0  0  0  0  0  0  0  0  0
   28.9951   -6.5791   77.7255 H   0  0  0  0  0  0  0  0  0  0  0  0
   30.5857   -6.8449   77.3956 H   0  0  0  0  0  0  0  0  0  0  0  0
   34.9467   -5.4421   82.4270 H   0  0  0  0  0  0  0  0  0  0  0  0
   33.0647   -6.8555   84.1977 H   0  0  0  0  0  0  0  0  0  0  0  0
   35.1370   -7.7411   85.2669 H   0  0  0  0  0  0  0  0  0  0  0  0
   36.1134   -6.7399   84.1395 H   0  0  0  0  0  0  0  0  0  0  0  0
   35.2082   -7.9574   82.2264 H   0  0  0  0  0  0  0  0  0  0  0  0
   34.1432   -8.9145   83.3110 H   0  0  0  0  0  0  0  0  0  0  0  0
   37.1908   -8.9021   83.4260 H   0  0  0  0  0  0  0  0  0  0  0  0
   36.1979  -10.1365   82.5792 H   0  0  0  0  0  0  0  0  0  0  0  0
   35.0308  -10.5790   84.7732 H   0  0  0  0  0  0  0  0  0  0  0  0
   36.2269   -9.4934   85.5590 H   0  0  0  0  0  0  0  0  0  0  0  0
   36.8724  -11.7951   85.7030 H   0  0  0  0  0  0  0  0  0  0  0  0
   37.9574  -10.9644   84.7853 H   0  0  0  0  0  0  0  0  0  0  0  0
   36.8613  -11.9592   84.0652 H   0  0  0  0  0  0  0  0  0  0  0  0
   35.5629   -4.2936   84.4727 H   0  0  0  0  0  0  0  0  0  0  0  0
   34.0366   -3.1791   86.7316 H   0  0  0  0  0  0  0  0  0  0  0  0
   36.1029   -2.9875   88.1434 H   0  0  0  0  0  0  0  0  0  0  0  0
   36.9453   -4.0656   86.9795 H   0  0  0  0  0  0  0  0  0  0  0  0
   35.4107   -5.8811   87.4962 H   0  0  0  0  0  0  0  0  0  0  0  0
   34.4656   -4.8082   88.5836 H   0  0  0  0  0  0  0  0  0  0  0  0
   36.5219   -4.5074   89.9869 H   0  0  0  0  0  0  0  0  0  0  0  0
   37.3623   -5.7043   88.9439 H   0  0  0  0  0  0  0  0  0  0  0  0
   35.7006   -7.4108   89.5253 H   0  0  0  0  0  0  0  0  0  0  0  0
   34.7991   -6.2172   90.5199 H   0  0  0  0  0  0  0  0  0  0  0  0
   36.2060   -7.6180   91.8541 H   0  0  0  0  0  0  0  0  0  0  0  0
   36.7249   -6.0582   91.9389 H   0  0  0  0  0  0  0  0  0  0  0  0
   37.5510   -7.1521   91.0275 H   0  0  0  0  0  0  0  0  0  0  0  0
  1  2  1  0  0  0  0
  1158  1  0  0  0  0
  1159  1  0  0  0  0
  1160  1  0  0  0  0
  2  3  1  0  0  0  0
  2  5  1  0  0  0  0
  2161  1  6  0  0  0
  3  4  2  0  0  0  0
  3  9  1  0  0  0  0
  5  6  1  0  0  0  0
  5162  1  0  0  0  0
  5163  1  0  0  0  0
  6  7  2  0  0  0  0
  6  8  1  0  0  0  0
  8164  1  0  0  0  0
  8165  1  0  0  0  0
  9 10  1  0  0  0  0
  9166  1  0  0  0  0
 10 11  1  0  0  0  0
 10 13  1  0  0  0  0
 10167  1  1  0  0  0
 11 12  2  0  0  0  0
 11 23  1  0  0  0  0
 13 14  1  0  0  0  0
 13168  1  0  0  0  0
 13169  1  0  0  0  0
 14 15  2  0  0  0  0
 14 16  1  0  0  0  0
 15 17  1  0  0  0  0
 15170  1  0  0  0  0
 16 18  2  0  0  0  0
 16 19  1  0  0  0  0
 17 18  1  0  0  0  0
 17171  1  0  0  0  0
 18 20  1  0  0  0  0
 19 21  2  0  0  0  0
 19172  1  0  0  0  0
 20 22  2  0  0  0  0
 20173  1  0  0  0  0
 21 22  1  0  0  0  0
 21174  1  0  0  0  0
 22175  1  0  0  0  0
 23 24  1  0  0  0  0
 23176  1  0  0  0  0
 24 25  1  0  0  0  0
 24 27  1  0  0  0  0
 24177  1  6  0  0  0
 25 26  2  0  0  0  0
 25 34  1  0  0  0  0
 27 28  1  0  0  0  0
 27178  1  0  0  0  0
 27179  1  0  0  0  0
 28 29  2  0  0  0  0
 28 30  1  0  0  0  0
 29 31  1  0  0  0  0
 29180  1  0  0  0  0
 30 32  2  0  0  0  0
 30181  1  0  0  0  0
 31 33  2  0  0  0  0
 31182  1  0  0  0  0
 32 33  1  0  0  0  0
 32183  1  0  0  0  0
 33184  1  0  0  0  0
 34 35  1  0  0  0  0
 34185  1  0  0  0  0
 35 36  1  0  0  0  0
 35 38  1  0  0  0  0
 35186  1  6  0  0  0
 36 37  2  0  0  0  0
 36 42  1  0  0  0  0
 38 39  1  0  0  0  0
 38187  1  0  0  0  0
 38188  1  0  0  0  0
 39 40  1  0  0  0  0
 39 41  2  0  0  0  0
 42 43  1  0  0  0  0
 42189  1  0  0  0  0
 43 44  1  0  0  0  0
 43 46  1  0  0  0  0
 43190  1  1  0  0  0
 44 45  2  0  0  0  0
 44 50  1  0  0  0  0
 46 47  1  0  0  0  0
 46 48  1  0  0  0  0
 46191  1  6  0  0  0
 47 49  1  0  0  0  0
 47192  1  0  0  0  0
 47193  1  0  0  0  0
 48194  1  0  0  0  0
 48195  1  0  0  0  0
 48196  1  0  0  0  0
 49197  1  0  0  0  0
 49198  1  0  0  0  0
 49199  1  0  0  0  0
 50 51  1  0  0  0  0
 50200  1  0  0  0  0
 51 52  1  0  0  0  0
 51 54  1  0  0  0  0
 51201  1  1  0  0  0
 52 53  2  0  0  0  0
 52 57  1  0  0  0  0
 54 55  1  0  0  0  0
 54 56  1  0  0  0  0
 54202  1  1  0  0  0
 55203  1  0  0  0  0
 56204  1  0  0  0  0
 56205  1  0  0  0  0
 56206  1  0  0  0  0
 57 58  1  0  0  0  0
 57207  1  0  0  0  0
 58 59  1  0  0  0  0
 58 61  1  0  0  0  0
 58208  1  6  0  0  0
 59 60  2  0  0  0  0
 59 65  1  0  0  0  0
 61 62  1  0  0  0  0
 61209  1  0  0  0  0
 61210  1  0  0  0  0
 62 63  2  0  0  0  0
 62 64  1  0  0  0  0
 64211  1  0  0  0  0
 64212  1  0  0  0  0
 65 66  1  0  0  0  0
 65213  1  0  0  0  0
 66 67  1  0  0  0  0
 66 69  1  0  0  0  0
 66214  1  1  0  0  0
 67 68  2  0  0  0  0
 67 79  1  0  0  0  0
 69 70  1  0  0  0  0
 69215  1  0  0  0  0
 69216  1  0  0  0  0
 70 71  2  0  0  0  0
 70 72  1  0  0  0  0
 71 73  1  0  0  0  0
 71217  1  0  0  0  0
 72 74  2  0  0  0  0
 72 75  1  0  0  0  0
 73 74  1  0  0  0  0
 73218  1  0  0  0  0
 74 76  1  0  0  0  0
 75 77  2  0  0  0  0
 75219  1  0  0  0  0
 76 78  2  0  0  0  0
 76220  1  0  0  0  0
 77 78  1  0  0  0  0
 77221  1  0  0  0  0
 78222  1  0  0  0  0
 79 80  1  0  0  0  0
 79223  1  0  0  0  0
 80 81  1  0  0  0  0
 80 83  1  0  0  0  0
 80224  1  1  0  0  0
 81 82  2  0  0  0  0
 81 87  1  0  0  0  0
 83 84  1  0  0  0  0
 83225  1  0  0  0  0
 83226  1  0  0  0  0
 84 85  1  0  0  0  0
 84 86  1  0  0  0  0
 84227  1  0  0  0  0
 85228  1  0  0  0  0
 85229  1  0  0  0  0
 85230  1  0  0  0  0
 86231  1  0  0  0  0
 86232  1  0  0  0  0
 86233  1  0  0  0  0
 87 88  1  0  0  0  0
 87234  1  0  0  0  0
 88 89  1  0  0  0  0
 88 91  1  0  0  0  0
 88235  1  1  0  0  0
 89 90  2  0  0  0  0
 89101  1  0  0  0  0
 91 92  1  0  0  0  0
 91236  1  0  0  0  0
 91237  1  0  0  0  0
 92 93  2  0  0  0  0
 92 94  1  0  0  0  0
 93 95  1  0  0  0  0
 93238  1  0  0  0  0
 94 96  2  0  0  0  0
 94 97  1  0  0  0  0
 95 96  1  0  0  0  0
 95239  1  0  0  0  0
 96 98  1  0  0  0  0
 97 99  2  0  0  0  0
 97240  1  0  0  0  0
 98100  2  0  0  0  0
 98241  1  0  0  0  0
 99100  1  0  0  0  0
 99242  1  0  0  0  0
100243  1  0  0  0  0
101102  1  0  0  0  0
101244  1  0  0  0  0
102103  1  0  0  0  0
102105  1  0  0  0  0
102245  1  6  0  0  0
103104  2  0  0  0  0
103113  1  0  0  0  0
105106  1  0  0  0  0
105246  1  0  0  0  0
105247  1  0  0  0  0
106107  2  0  0  0  0
106108  1  0  0  0  0
107109  1  0  0  0  0
107248  1  0  0  0  0
108110  2  0  0  0  0
108249  1  0  0  0  0
109111  2  0  0  0  0
109250  1  0  0  0  0
110111  1  0  0  0  0
110251  1  0  0  0  0
111112  1  0  0  0  0
112252  1  0  0  0  0
113114  1  0  0  0  0
113253  1  0  0  0  0
114115  1  0  0  0  0
114117  1  0  0  0  0
114254  1  1  0  0  0
115116  2  0  0  0  0
115121  1  0  0  0  0
117118  1  0  0  0  0
117119  1  0  0  0  0
117255  1  6  0  0  0
118120  1  0  0  0  0
118256  1  0  0  0  0
118257  1  0  0  0  0
119258  1  0  0  0  0
119259  1  0  0  0  0
119260  1  0  0  0  0
120261  1  0  0  0  0
120262  1  0  0  0  0
120263  1  0  0  0  0
121122  1  0  0  0  0
121264  1  0  0  0  0
122123  1  0  0  0  0
122125  1  0  0  0  0
122265  1  1  0  0  0
123124  2  0  0  0  0
123130  1  0  0  0  0
125126  1  0  0  0  0
125266  1  0  0  0  0
125267  1  0  0  0  0
126127  1  0  0  0  0
126268  1  0  0  0  0
126269  1  0  0  0  0
127128  1  0  0  0  0
127270  1  0  0  0  0
127271  1  0  0  0  0
128129  1  0  0  0  0
128272  1  0  0  0  0
128273  1  0  0  0  0
129274  1  0  0  0  0
129275  1  0  0  0  0
129276  1  0  0  0  0
130131  1  0  0  0  0
130277  1  0  0  0  0
131132  1  0  0  0  0
131134  1  0  0  0  0
131278  1  6  0  0  0
132133  2  0  0  0  0
132139  1  0  0  0  0
134135  1  0  0  0  0
134279  1  0  0  0  0
134280  1  0  0  0  0
135136  1  0  0  0  0
135281  1  0  0  0  0
135282  1  0  0  0  0
136137  1  0  0  0  0
136283  1  0  0  0  0
136284  1  0  0  0  0
137138  1  0  0  0  0
137285  1  0  0  0  0
137286  1  0  0  0  0
138287  1  0  0  0  0
138288  1  0  0  0  0
138289  1  0  0  0  0
139140  1  0  0  0  0
139290  1  0  0  0  0
140141  1  0  0  0  0
140143  1  0  0  0  0
140291  1  1  0  0  0
141142  2  0  0  0  0
141148  1  0  0  0  0
143144  1  0  0  0  0
143292  1  0  0  0  0
143293  1  0  0  0  0
144145  1  0  0  0  0
144294  1  0  0  0  0
144295  1  0  0  0  0
145146  1  0  0  0  0
145296  1  0  0  0  0
145297  1  0  0  0  0
146147  1  0  0  0  0
146298  1  0  0  0  0
146299  1  0  0  0  0
147300  1  0  0  0  0
147301  1  0  0  0  0
147302  1  0  0  0  0
148149  1  0  0  0  0
148303  1  0  0  0  0
149150  1  0  0  0  0
149152  1  0  0  0  0
149304  1  1  0  0  0
150151  1  0  0  0  0
150157  2  0  0  0  0
152153  1  0  0  0  0
152305  1  0  0  0  0
152306  1  0  0  0  0
153154  1  0  0  0  0
153307  1  0  0  0  0
153308  1  0  0  0  0
154155  1  0  0  0  0
154309  1  0  0  0  0
154310  1  0  0  0  0
155156  1  0  0  0  0
155311  1  0  0  0  0
155312  1  0  0  0  0
156313  1  0  0  0  0
156314  1  0  0  0  0
156315  1  0  0  0  0
M  CHG  7   1   1  40  -1 129   1 138   1 147   1 151  -1 156   1
M  END
