2fxr_ligand
 OpenBabel08222323343D

 79 83  0  0  1  0  0  0  0  0999 V2000
    1.8100   18.3770   71.4840 C   0  0  0  0  0  0  0  0  0  0  0  0
   -0.3230   21.1540   70.4240 C   0  0  0  0  0  0  0  0  0  0  0  0
    3.0780   18.5930   71.1310 C   0  0  0  0  0  0  0  0  0  0  0  0
    0.7880   19.4620   71.6510 C   0  0  0  0  0  0  0  0  0  0  0  0
    0.6050   20.1570   70.3700 O   0  0  0  0  0  0  0  0  0  0  0  0
   -0.9670   21.4720   71.4340 O   0  0  0  0  0  0  0  0  0  0  0  0
   -1.4500   22.8230   68.9160 C   0  0  2  0  0  0  0  0  0  0  0  0
   -0.8320   23.9540   68.0420 C   0  0  0  0  0  0  0  0  0  0  0  0
   -0.4670   21.7330   69.1890 N   0  0  0  0  0  0  0  0  0  0  0  0
    0.3650   24.6560   68.7080 C   0  0  0  0  0  0  0  0  0  0  0  0
    0.9390   25.7870   67.8480 C   0  0  2  0  0  0  0  0  0  0  0  0
    1.5810   25.3580   66.5290 C   0  0  0  0  0  0  0  0  0  0  0  0
    2.5060   26.5180   66.1730 C   0  0  0  0  0  0  0  0  0  0  0  0
    2.5690   27.3610   67.4060 N   0  3  0  0  0  0  0  0  0  0  0  0
    2.0770   26.5030   68.5210 C   0  0  0  0  0  0  0  0  0  0  0  0
   -2.7390   22.1420   68.2560 C   0  0  2  0  0  0  0  0  0  0  0  0
   -3.6200   23.0780   67.8580 O   0  0  0  0  0  0  0  0  0  0  0  0
   -3.4040   21.2530   69.2830 C   0  0  0  0  0  0  0  0  0  0  0  0
   -4.4300   21.6110   70.0820 N   0  0  0  0  0  0  0  0  0  0  0  0
   -4.6540   20.4510   70.8580 O   0  0  0  0  0  0  0  0  0  0  0  0
   -3.7340   19.5200   70.4390 C   0  0  0  0  0  0  0  0  0  0  0  0
   -3.7360   18.1920   71.1030 C   0  0  0  0  0  0  0  0  0  0  0  0
   -5.0430   17.4360   70.9940 C   0  0  0  0  0  0  0  0  0  0  0  0
   -6.1540   17.7660   71.8320 C   0  0  0  0  0  0  0  0  0  0  0  0
   -7.3720   17.0500   71.7300 C   0  0  0  0  0  0  0  0  0  0  0  0
   -7.5070   15.9820   70.7870 C   0  0  0  0  0  0  0  0  0  0  0  0
   -6.4060   15.6450   69.9410 C   0  0  0  0  0  0  0  0  0  0  0  0
   -5.1880   16.3680   70.0470 C   0  0  0  0  0  0  0  0  0  0  0  0
   -8.7910   15.2530   70.7270 C   0  0  0  0  0  0  0  0  0  0  0  0
   -9.6270   15.4580   71.5750 O   0  0  0  0  0  0  0  0  0  0  0  0
   -8.9480   14.3600   69.6820 N   0  0  0  0  0  0  0  0  0  0  0  0
  -10.1290   13.5440   69.4380 C   0  0  0  0  0  0  0  0  0  0  0  0
  -10.1320   12.8710   68.0460 C   0  0  0  0  0  0  0  0  0  0  0  0
  -11.0750   11.7360   68.2690 C   0  0  0  0  0  0  0  0  0  0  0  0
  -11.7960   10.9820   67.3070 C   0  0  0  0  0  0  0  0  0  0  0  0
  -12.6400    9.9350   67.7680 C   0  0  0  0  0  0  0  0  0  0  0  0
  -12.7540    9.6580   69.1690 C   0  0  0  0  0  0  0  0  0  0  0  0
  -12.0230   10.4260   70.1250 C   0  0  0  0  0  0  0  0  0  0  0  0
  -11.1880   11.4610   69.6590 C   0  0  0  0  0  0  0  0  0  0  0  0
  -10.3290   12.3960   70.4630 C   0  0  0  0  0  0  0  0  0  0  0  0
   -2.9480   19.9570   69.4800 N   0  0  0  0  0  0  0  0  0  0  0  0
    1.4974   17.3491   71.6620 H   0  0  0  0  0  0  0  0  0  0  0  0
    3.7652   17.7544   71.0289 H   0  0  0  0  0  0  0  0  0  0  0  0
    3.4261   19.6080   70.9449 H   0  0  0  0  0  0  0  0  0  0  0  0
    1.1329   20.1779   72.4116 H   0  0  0  0  0  0  0  0  0  0  0  0
   -0.1679   19.0207   71.9695 H   0  0  0  0  0  0  0  0  0  0  0  0
   -1.7497   23.2738   69.8736 H   0  0  0  0  0  0  0  0  0  0  0  0
   -1.6102   24.7055   67.8428 H   0  0  0  0  0  0  0  0  0  0  0  0
   -0.4942   23.5151   67.0916 H   0  0  0  0  0  0  0  0  0  0  0  0
    0.1112   21.4112   68.4393 H   0  0  0  0  0  0  0  0  0  0  0  0
    1.1558   23.9121   68.8848 H   0  0  0  0  0  0  0  0  0  0  0  0
    0.0360   25.0770   69.6695 H   0  0  0  0  0  0  0  0  0  0  0  0
    0.1189   26.4908   67.6431 H   0  0  0  0  0  0  0  0  0  0  0  0
    0.8169   25.2145   65.7509 H   0  0  0  0  0  0  0  0  0  0  0  0
    2.1530   24.4272   66.6573 H   0  0  0  0  0  0  0  0  0  0  0  0
    2.0949   27.0952   65.3317 H   0  0  0  0  0  0  0  0  0  0  0  0
    3.5068   26.1462   65.9083 H   0  0  0  0  0  0  0  0  0  0  0  0
    1.9810   28.1734   67.3045 H   0  0  0  0  0  0  0  0  0  0  0  0
    3.5177   27.6527   67.5819 H   0  0  0  0  0  0  0  0  0  0  0  0
    2.8514   25.8004   68.8625 H   0  0  0  0  0  0  0  0  0  0  0  0
    1.7283   27.1065   69.3720 H   0  0  0  0  0  0  0  0  0  0  0  0
   -2.4294   21.5402   67.3889 H   0  0  0  0  0  0  0  0  0  0  0  0
   -3.2092   23.6454   67.2162 H   0  0  0  0  0  0  0  0  0  0  0  0
   -3.5138   18.3413   72.1699 H   0  0  0  0  0  0  0  0  0  0  0  0
   -2.9455   17.5785   70.6461 H   0  0  0  0  0  0  0  0  0  0  0  0
   -6.0632   18.5714   72.5518 H   0  0  0  0  0  0  0  0  0  0  0  0
   -8.2066   17.3126   72.3699 H   0  0  0  0  0  0  0  0  0  0  0  0
   -6.4999   14.8403   69.2208 H   0  0  0  0  0  0  0  0  0  0  0  0
   -4.3556   16.1090   69.4028 H   0  0  0  0  0  0  0  0  0  0  0  0
   -8.1865   14.2672   69.0405 H   0  0  0  0  0  0  0  0  0  0  0  0
  -10.9976   14.2161   69.5003 H   0  0  0  0  0  0  0  0  0  0  0  0
   -9.1293   12.5125   67.7703 H   0  0  0  0  0  0  0  0  0  0  0  0
  -10.5031   13.5555   67.2691 H   0  0  0  0  0  0  0  0  0  0  0  0
  -11.7056   11.1986   66.2487 H   0  0  0  0  0  0  0  0  0  0  0  0
  -13.2011    9.3422   67.0546 H   0  0  0  0  0  0  0  0  0  0  0  0
  -13.4019    8.8571   69.5066 H   0  0  0  0  0  0  0  0  0  0  0  0
  -12.1084   10.2177   71.1854 H   0  0  0  0  0  0  0  0  0  0  0  0
  -10.8460   12.7453   71.3689 H   0  0  0  0  0  0  0  0  0  0  0  0
   -9.3728   11.9300   70.7431 H   0  0  0  0  0  0  0  0  0  0  0  0
  1  3  2  0  0  0  0
  1 42  1  0  0  0  0
  2  5  1  0  0  0  0
  2  6  2  0  0  0  0
  3 43  1  0  0  0  0
  3 44  1  0  0  0  0
  4  1  1  0  0  0  0
  4 45  1  0  0  0  0
  4 46  1  0  0  0  0
  5  4  1  0  0  0  0
  7  8  1  0  0  0  0
  7  9  1  0  0  0  0
  7 16  1  0  0  0  0
  7 47  1  1  0  0  0
  8 10  1  0  0  0  0
  8 48  1  0  0  0  0
  8 49  1  0  0  0  0
  9  2  1  0  0  0  0
  9 50  1  0  0  0  0
 10 11  1  0  0  0  0
 10 51  1  0  0  0  0
 10 52  1  0  0  0  0
 11 12  1  0  0  0  0
 11 15  1  0  0  0  0
 11 53  1  6  0  0  0
 12 13  1  0  0  0  0
 12 54  1  0  0  0  0
 12 55  1  0  0  0  0
 13 14  1  0  0  0  0
 13 56  1  0  0  0  0
 13 57  1  0  0  0  0
 14 15  1  0  0  0  0
 14 58  1  0  0  0  0
 14 59  1  0  0  0  0
 15 60  1  0  0  0  0
 15 61  1  0  0  0  0
 16 17  1  0  0  0  0
 16 18  1  0  0  0  0
 16 62  1  6  0  0  0
 17 63  1  0  0  0  0
 18 19  2  0  0  0  0
 18 41  1  0  0  0  0
 19 20  1  0  0  0  0
 20 21  1  0  0  0  0
 21 22  1  0  0  0  0
 21 41  2  0  0  0  0
 22 23  1  0  0  0  0
 22 64  1  0  0  0  0
 22 65  1  0  0  0  0
 23 24  2  0  0  0  0
 23 28  1  0  0  0  0
 24 25  1  0  0  0  0
 24 66  1  0  0  0  0
 25 26  2  0  0  0  0
 25 67  1  0  0  0  0
 26 27  1  0  0  0  0
 26 29  1  0  0  0  0
 27 28  2  0  0  0  0
 27 68  1  0  0  0  0
 28 69  1  0  0  0  0
 29 30  2  0  0  0  0
 29 31  1  0  0  0  0
 31 32  1  0  0  0  0
 31 70  1  0  0  0  0
 32 33  1  0  0  0  0
 32 40  1  0  0  0  0
 32 71  1  0  0  0  0
 33 34  1  0  0  0  0
 33 72  1  0  0  0  0
 33 73  1  0  0  0  0
 34 35  2  0  0  0  0
 34 39  1  0  0  0  0
 35 36  1  0  0  0  0
 35 74  1  0  0  0  0
 36 37  2  0  0  0  0
 36 75  1  0  0  0  0
 37 38  1  0  0  0  0
 37 76  1  0  0  0  0
 38 39  2  0  0  0  0
 38 77  1  0  0  0  0
 39 40  1  0  0  0  0
 40 78  1  0  0  0  0
 40 79  1  0  0  0  0
M  CHG  1  14   1
M  END
