2fzz_ligand
 OpenBabel08222323343D

 71 77  0  0  1  0  0  0  0  0999 V2000
   25.8170   26.3860   63.4850 F   0  0  0  0  0  0  0  0  0  0  0  0
   25.6410   27.7750   65.1970 F   0  0  0  0  0  0  0  0  0  0  0  0
   25.0350   25.6540   65.4070 F   0  0  0  0  0  0  0  0  0  0  0  0
   16.2800   27.6280   65.7490 O   0  0  0  0  0  0  0  0  0  0  0  0
   20.3600   28.9070   61.6560 O   0  0  0  0  0  0  0  0  0  0  0  0
   16.3940   28.4640   66.7810 N   0  0  0  0  0  0  0  0  0  0  0  0
   18.2730   29.6520   67.7210 N   0  0  0  0  0  0  0  0  0  0  0  0
   21.5750   27.4090   63.8500 N   0  0  0  0  0  0  0  0  0  0  0  0
   22.5580   26.7890   64.5770 N   0  0  0  0  0  0  0  0  0  0  0  0
   22.3870   29.9110   61.3100 N   0  0  0  0  0  0  0  0  0  0  0  0
   17.4480   27.4180   65.1380 C   0  0  0  0  0  0  0  0  0  0  0  0
   18.4640   28.1970   65.8180 C   0  0  0  0  0  0  0  0  0  0  0  0
   17.7070   28.8230   66.8430 C   0  0  0  0  0  0  0  0  0  0  0  0
   17.8530   26.5840   63.9850 C   0  0  0  0  0  0  0  0  0  0  0  0
   19.2640   26.5570   63.5280 C   0  0  0  0  0  0  0  0  0  0  0  0
   20.2650   27.3800   64.2360 C   0  0  0  0  0  0  0  0  0  0  0  0
   19.8650   28.2020   65.3930 C   0  0  0  0  0  0  0  0  0  0  0  0
   23.7580   27.1160   64.0630 C   0  0  0  0  0  0  0  0  0  0  0  0
   23.5290   27.9660   62.9730 C   0  0  0  0  0  0  0  0  0  0  0  0
   22.1510   28.1450   62.8540 C   0  0  0  0  0  0  0  0  0  0  0  0
   25.1310   26.7090   64.5610 C   0  0  0  0  0  0  0  0  0  0  0  0
   21.5590   28.9940   61.9140 C   0  0  0  0  0  0  0  0  0  0  0  0
   21.9050   30.7520   60.3440 C   0  0  0  0  0  0  0  0  0  0  0  0
   22.0090   32.1730   60.6140 C   0  0  0  0  0  0  0  0  0  0  0  0
   21.4020   33.1150   59.6950 C   0  0  0  0  0  0  0  0  0  0  0  0
   20.6900   32.6280   58.4980 C   0  0  0  0  0  0  0  0  0  0  0  0
   20.6350   31.1850   58.2150 C   0  0  0  0  0  0  0  0  0  0  0  0
   21.2470   30.2330   59.1380 C   0  0  0  0  0  0  0  0  0  0  0  0
   19.9970   33.6230   57.5700 C   0  0  0  0  0  0  0  0  0  0  0  0
   20.2620   33.7280   56.1330 C   0  0  0  0  0  0  0  0  0  0  0  0
   21.3210   32.8530   55.4260 C   0  0  0  0  0  0  0  0  0  0  0  0
   22.4710   33.6470   54.9410 N   0  3  2  0  0  0  0  0  0  0  0  0
   23.5700   32.9920   54.1820 C   0  0  0  0  0  0  0  0  0  0  0  0
   23.0880   34.4430   56.0250 C   0  0  0  0  0  0  0  0  0  0  0  0
   18.9480   34.5120   58.1070 C   0  0  0  0  0  0  0  0  0  0  0  0
   18.2420   35.4380   57.2250 C   0  0  0  0  0  0  0  0  0  0  0  0
   19.5360   34.6760   55.2550 C   0  0  0  0  0  0  0  0  0  0  0  0
   18.5230   35.5560   55.8080 C   0  0  0  0  0  0  0  0  0  0  0  0
   24.4880   33.8480   56.0850 C   0  0  1  0  0  0  0  0  0  0  0  0
   24.8140   33.7950   54.5920 C   0  0  0  0  0  0  0  0  0  0  0  0
   25.2570   34.7170   56.7070 O   0  0  0  0  0  0  0  0  0  0  0  0
   23.8010   30.0250   61.7500 C   0  0  0  0  0  0  0  0  0  0  0  0
   24.4750   28.6630   62.0280 C   0  0  0  0  0  0  0  0  0  0  0  0
   19.2828   29.8478   67.6674 H   0  0  0  0  0  0  0  0  0  0  0  0
   17.7004   30.0964   68.4528 H   0  0  0  0  0  0  0  0  0  0  0  0
   17.1106   25.9862   63.4686 H   0  0  0  0  0  0  0  0  0  0  0  0
   19.5565   25.9411   62.6853 H   0  0  0  0  0  0  0  0  0  0  0  0
   20.5977   28.8013   65.9212 H   0  0  0  0  0  0  0  0  0  0  0  0
   22.5349   32.5267   61.4934 H   0  0  0  0  0  0  0  0  0  0  0  0
   21.4712   34.1795   59.8874 H   0  0  0  0  0  0  0  0  0  0  0  0
   20.1392   30.8279   57.3196 H   0  0  0  0  0  0  0  0  0  0  0  0
   21.2163   29.1681   58.9376 H   0  0  0  0  0  0  0  0  0  0  0  0
   20.8500   32.3516   54.5677 H   0  0  0  0  0  0  0  0  0  0  0  0
   21.6872   32.0973   56.1364 H   0  0  0  0  0  0  0  0  0  0  0  0
   22.0631   34.3043   54.2948 H   0  0  0  0  0  0  0  0  0  0  0  0
   23.3960   33.0621   53.0981 H   0  0  0  0  0  0  0  0  0  0  0  0
   23.6714   31.9351   54.4695 H   0  0  0  0  0  0  0  0  0  0  0  0
   22.5533   34.3072   56.9767 H   0  0  0  0  0  0  0  0  0  0  0  0
   23.1174   35.5127   55.7703 H   0  0  0  0  0  0  0  0  0  0  0  0
   18.7002   34.4775   59.1617 H   0  0  0  0  0  0  0  0  0  0  0  0
   17.4698   36.0681   57.6513 H   0  0  0  0  0  0  0  0  0  0  0  0
   19.7625   34.7122   54.1955 H   0  0  0  0  0  0  0  0  0  0  0  0
   17.9979   36.2724   55.1866 H   0  0  0  0  0  0  0  0  0  0  0  0
   24.5279   32.8599   56.5667 H   0  0  0  0  0  0  0  0  0  0  0  0
   24.8472   34.7923   54.1291 H   0  0  0  0  0  0  0  0  0  0  0  0
   25.7524   33.2613   54.3810 H   0  0  0  0  0  0  0  0  0  0  0  0
   25.0349   34.7306   57.6305 H   0  0  0  0  0  0  0  0  0  0  0  0
   23.8307   30.6223   62.6732 H   0  0  0  0  0  0  0  0  0  0  0  0
   24.3699   30.5398   60.9618 H   0  0  0  0  0  0  0  0  0  0  0  0
   24.5903   28.0880   61.0974 H   0  0  0  0  0  0  0  0  0  0  0  0
   25.4603   28.8041   62.4963 H   0  0  0  0  0  0  0  0  0  0  0  0
  6  4  1  0  0  0  0
  7 44  1  0  0  0  0
  7 45  1  0  0  0  0
  8  9  1  0  0  0  0
  8 16  1  0  0  0  0
 10 23  1  0  0  0  0
 10 42  1  0  0  0  0
 11  4  1  0  0  0  0
 12 11  2  0  0  0  0
 12 13  1  0  0  0  0
 13  6  2  0  0  0  0
 13  7  1  0  0  0  0
 14 11  1  0  0  0  0
 14 46  1  0  0  0  0
 15 14  2  0  0  0  0
 15 47  1  0  0  0  0
 16 15  1  0  0  0  0
 16 17  2  0  0  0  0
 17 12  1  0  0  0  0
 17 48  1  0  0  0  0
 18  9  2  0  0  0  0
 18 21  1  0  0  0  0
 19 18  1  0  0  0  0
 19 43  1  0  0  0  0
 20  8  1  0  0  0  0
 20 19  2  0  0  0  0
 20 22  1  0  0  0  0
 21  1  1  0  0  0  0
 21  2  1  0  0  0  0
 21  3  1  0  0  0  0
 22  5  2  0  0  0  0
 22 10  1  0  0  0  0
 23 24  2  0  0  0  0
 23 28  1  0  0  0  0
 24 25  1  0  0  0  0
 24 49  1  0  0  0  0
 25 26  2  0  0  0  0
 25 50  1  0  0  0  0
 26 27  1  0  0  0  0
 26 29  1  0  0  0  0
 27 28  2  0  0  0  0
 27 51  1  0  0  0  0
 28 52  1  0  0  0  0
 29 30  2  0  0  0  0
 29 35  1  0  0  0  0
 30 31  1  0  0  0  0
 30 37  1  0  0  0  0
 31 32  1  0  0  0  0
 31 53  1  0  0  0  0
 31 54  1  0  0  0  0
 32 33  1  0  0  0  0
 32 34  1  0  0  0  0
 32 55  1  6  0  0  0
 33 40  1  0  0  0  0
 33 56  1  0  0  0  0
 33 57  1  0  0  0  0
 34 39  1  0  0  0  0
 34 58  1  0  0  0  0
 34 59  1  0  0  0  0
 35 36  2  0  0  0  0
 35 60  1  0  0  0  0
 36 38  1  0  0  0  0
 36 61  1  0  0  0  0
 37 38  2  0  0  0  0
 37 62  1  0  0  0  0
 38 63  1  0  0  0  0
 39 40  1  0  0  0  0
 39 41  1  0  0  0  0
 39 64  1  1  0  0  0
 40 65  1  0  0  0  0
 40 66  1  0  0  0  0
 41 67  1  0  0  0  0
 42 43  1  0  0  0  0
 42 68  1  0  0  0  0
 42 69  1  0  0  0  0
 43 70  1  0  0  0  0
 43 71  1  0  0  0  0
M  CHG  1  32   1
M  END
