2g01_ligand
 OpenBabel08222323343D

 28 30  0  0  0  0  0  0  0  0999 V2000
   25.7510   96.7380   26.1430 C   0  0  0  0  0  0  0  0  0  0  0  0
   25.5430   95.2700   26.3870 C   0  0  0  0  0  0  0  0  0  0  0  0
   25.6710   94.2940   25.4560 N   0  0  0  0  0  0  0  0  0  0  0  0
   25.3980   93.0770   26.0440 N   0  0  0  0  0  0  0  0  0  0  0  0
   25.4350   91.8060   25.3530 C   0  0  0  0  0  0  0  0  0  0  0  0
   25.1020   93.2460   27.3070 C   0  0  0  0  0  0  0  0  0  0  0  0
   24.7480   92.3610   28.3350 N   0  0  0  0  0  0  0  0  0  0  0  0
   24.6660   91.0390   28.0800 O   0  0  0  0  0  0  0  0  0  0  0  0
   24.4720   92.7790   29.6060 C   0  0  0  0  0  0  0  0  0  0  0  0
   24.0950   91.9410   30.7060 C   0  0  0  0  0  0  0  0  0  0  0  0
   23.8200   92.4010   31.9910 C   0  0  0  0  0  0  0  0  0  0  0  0
   23.9130   93.8100   32.2750 C   0  0  0  0  0  0  0  0  0  0  0  0
   23.5990   94.4580   33.8100 Cl  0  0  0  0  0  0  0  0  0  0  0  0
   24.2770   94.6700   31.2340 C   0  0  0  0  0  0  0  0  0  0  0  0
   24.5550   94.1970   29.9160 C   0  0  0  0  0  0  0  0  0  0  0  0
   24.9210   95.1330   28.8680 C   0  0  0  0  0  0  0  0  0  0  0  0
   24.9950   96.3800   29.1240 O   0  0  0  0  0  0  0  0  0  0  0  0
   25.1890   94.6860   27.5830 C   0  0  0  0  0  0  0  0  0  0  0  0
   25.5796   97.2928   27.0772 H   0  0  0  0  0  0  0  0  0  0  0  0
   25.0444   97.0858   25.3751 H   0  0  0  0  0  0  0  0  0  0  0  0
   26.7813   96.9100   25.7982 H   0  0  0  0  0  0  0  0  0  0  0  0
   25.1770   90.9994   26.0550 H   0  0  0  0  0  0  0  0  0  0  0  0
   26.4455   91.6351   24.9535 H   0  0  0  0  0  0  0  0  0  0  0  0
   24.7106   91.8174   24.5253 H   0  0  0  0  0  0  0  0  0  0  0  0
   24.4174   90.5794   28.8734 H   0  0  0  0  0  0  0  0  0  0  0  0
   24.0187   90.8750   30.5249 H   0  0  0  0  0  0  0  0  0  0  0  0
   23.5380   91.7040   32.7719 H   0  0  0  0  0  0  0  0  0  0  0  0
   24.3506   95.7327   31.4348 H   0  0  0  0  0  0  0  0  0  0  0  0
  1  2  1  0  0  0  0
  1 19  1  0  0  0  0
  1 20  1  0  0  0  0
  1 21  1  0  0  0  0
  2  3  2  0  0  0  0
  2 18  1  0  0  0  0
  3  4  1  0  0  0  0
  4  5  1  0  0  0  0
  4  6  1  0  0  0  0
  5 22  1  0  0  0  0
  5 23  1  0  0  0  0
  5 24  1  0  0  0  0
  6  7  1  0  0  0  0
  6 18  2  0  0  0  0
  7  8  1  0  0  0  0
  7  9  1  0  0  0  0
  8 25  1  0  0  0  0
  9 10  2  0  0  0  0
  9 15  1  0  0  0  0
 10 11  1  0  0  0  0
 10 26  1  0  0  0  0
 11 12  2  0  0  0  0
 11 27  1  0  0  0  0
 12 13  1  0  0  0  0
 12 14  1  0  0  0  0
 14 15  2  0  0  0  0
 14 28  1  0  0  0  0
 15 16  1  0  0  0  0
 16 17  2  0  0  0  0
 16 18  1  0  0  0  0
M  END
