2g19_ligand
 OpenBabel08222323343D

 27 28  0  0  0  0  0  0  0  0999 V2000
    6.4020   47.7320   23.9480 C   0  0  0  0  0  0  0  0  0  0  0  0
    5.6050   48.9260   24.1480 C   0  0  0  0  0  0  0  0  0  0  0  0
    4.3480   48.7720   24.8660 C   0  0  0  0  0  0  0  0  0  0  0  0
    5.8940   46.4670   24.4650 C   0  0  0  0  0  0  0  0  0  0  0  0
    4.6200   46.3470   25.1780 C   0  0  0  0  0  0  0  0  0  0  0  0
    3.8010   47.5370   25.4050 C   0  0  0  0  0  0  0  0  0  0  0  0
    2.5610   47.4220   26.1700 C   0  0  0  0  0  0  0  0  0  0  0  0
    2.1230   46.1910   26.7020 N   0  0  0  0  0  0  0  0  0  0  0  0
    2.9090   45.0360   26.4740 C   0  0  0  0  0  0  0  0  0  0  0  0
    4.1520   45.0730   25.7050 C   0  0  0  0  0  0  0  0  0  0  0  0
    3.2550   50.4520   25.2810 I   0  0  0  0  0  0  0  0  0  0  0  0
    4.8320   43.9350   25.5240 O   0  0  0  0  0  0  0  0  0  0  0  0
    2.3220   43.7880   27.0580 C   0  0  0  0  0  0  0  0  0  0  0  0
    2.0190   41.4360   26.9670 C   0  0  0  0  0  0  0  0  0  0  0  0
    2.6390   40.2040   26.3130 C   0  0  0  0  0  0  0  0  0  0  0  0
    2.2230   39.0850   26.6550 O   0  5  0  0  0  0  0  0  0  0  0  0
    1.4080   43.8810   27.8750 O   0  0  0  0  0  0  0  0  0  0  0  0
    3.5930   40.3510   25.5120 O   0  0  0  0  0  0  0  0  0  0  0  0
    2.7750   42.5910   26.6780 N   0  0  0  0  0  0  0  0  0  0  0  0
    7.3516   47.7784   23.4273 H   0  0  0  0  0  0  0  0  0  0  0  0
    5.9308   49.8918   23.7789 H   0  0  0  0  0  0  0  0  0  0  0  0
    6.4875   45.5724   24.3146 H   0  0  0  0  0  0  0  0  0  0  0  0
    1.9599   48.3091   26.3335 H   0  0  0  0  0  0  0  0  0  0  0  0
    5.0820   43.5791   26.3685 H   0  0  0  0  0  0  0  0  0  0  0  0
    1.9881   41.2887   28.0566 H   0  0  0  0  0  0  0  0  0  0  0  0
    0.9959   41.5701   26.5859 H   0  0  0  0  0  0  0  0  0  0  0  0
    3.6452   42.5138   26.1913 H   0  0  0  0  0  0  0  0  0  0  0  0
  1  2  2  0  0  0  0
  1 20  1  0  0  0  0
  2 21  1  0  0  0  0
  3  2  1  0  0  0  0
  3 11  1  0  0  0  0
  4  1  1  0  0  0  0
  4 22  1  0  0  0  0
  5  4  2  0  0  0  0
  5  6  1  0  0  0  0
  6  3  2  0  0  0  0
  7  6  1  0  0  0  0
  7 23  1  0  0  0  0
  8  7  2  0  0  0  0
  9  8  1  0  0  0  0
  9 10  2  0  0  0  0
 10  5  1  0  0  0  0
 10 12  1  0  0  0  0
 12 24  1  0  0  0  0
 13  9  1  0  0  0  0
 13 17  2  0  0  0  0
 14 15  1  0  0  0  0
 14 19  1  0  0  0  0
 14 25  1  0  0  0  0
 14 26  1  0  0  0  0
 15 16  1  0  0  0  0
 15 18  2  0  0  0  0
 19 13  1  0  0  0  0
 19 27  1  0  0  0  0
M  CHG  1  16  -1
M  END
