2g1q_ligand
 OpenBabel08222323343D

 53 55  0  0  1  0  0  0  0  0999 V2000
   22.1460   16.5720  105.4300 C   0  0  0  0  0  0  0  0  0  0  0  0
   21.0310   16.5870  106.3280 C   0  0  0  0  0  0  0  0  0  0  0  0
   20.8720   15.4240  107.1610 C   0  0  0  0  0  0  0  0  0  0  0  0
   21.8670   14.3750  107.0430 C   0  0  0  0  0  0  0  0  0  0  0  0
   22.9670   14.3710  106.1260 C   0  0  0  0  0  0  0  0  0  0  0  0
   23.0910   15.5070  105.2860 C   0  0  0  0  0  0  0  0  0  0  0  0
   19.7110   15.3360  108.1100 C   0  0  0  0  0  0  0  0  0  0  0  0
   19.0180   16.3610  108.6240 N   0  0  0  0  0  0  0  0  0  0  0  0
   18.1030   15.9790  109.5870 N   0  0  0  0  0  0  0  0  0  0  0  0
   18.0150   14.5180  109.6450 C   0  0  1  0  0  0  0  0  0  0  0  0
   19.3160   14.1440  108.9590 C   0  0  0  0  0  0  0  0  0  0  0  0
   18.0570   14.0090  111.1000 C   0  0  0  0  0  0  0  0  0  0  0  0
   17.2450   12.8820  111.5650 C   0  0  0  0  0  0  0  0  0  0  0  0
   17.3820   12.3720  112.9470 C   0  0  0  0  0  0  0  0  0  0  0  0
   18.3290   13.0230  113.8590 C   0  0  0  0  0  0  0  0  0  0  0  0
   19.1230   14.1550  113.4340 C   0  0  0  0  0  0  0  0  0  0  0  0
   18.9650   14.6470  112.0540 C   0  0  0  0  0  0  0  0  0  0  0  0
   17.0760   16.8160  110.1080 C   0  0  0  0  0  0  0  0  0  0  0  0
   17.1770   18.1730  110.0160 N   0  0  0  0  0  0  0  0  0  0  0  0
   16.0940   19.1500  110.2760 C   0  0  0  0  0  0  0  0  0  0  0  0
   16.1400   16.2160  110.6230 O   0  0  0  0  0  0  0  0  0  0  0  0
   21.7860   13.3450  107.8640 F   0  0  0  0  0  0  0  0  0  0  0  0
   22.3250   17.6150  104.6930 F   0  0  0  0  0  0  0  0  0  0  0  0
   16.8120   13.9780  108.7570 C   0  0  0  0  0  0  0  0  0  0  0  0
   16.7200   14.4850  107.2450 C   0  0  0  0  0  0  0  0  0  0  0  0
   15.1130   19.2480  109.1050 C   0  0  0  0  0  0  0  0  0  0  0  0
   15.6870   13.9620  106.1350 C   0  0  0  0  0  0  0  0  0  0  0  0
   15.8870   12.5840  105.6320 N   0  3  0  0  0  0  0  0  0  0  0  0
   20.3461   17.4258  106.3777 H   0  0  0  0  0  0  0  0  0  0  0  0
   23.6668   13.5446  106.0766 H   0  0  0  0  0  0  0  0  0  0  0  0
   23.8849   15.5673  104.5504 H   0  0  0  0  0  0  0  0  0  0  0  0
   20.0945   13.9356  109.7077 H   0  0  0  0  0  0  0  0  0  0  0  0
   19.1703   13.2570  108.3249 H   0  0  0  0  0  0  0  0  0  0  0  0
   16.5363   12.4168  110.8894 H   0  0  0  0  0  0  0  0  0  0  0  0
   16.7900   11.5278  113.2816 H   0  0  0  0  0  0  0  0  0  0  0  0
   18.4358   12.6486  114.8707 H   0  0  0  0  0  0  0  0  0  0  0  0
   19.8188   14.6308  114.1156 H   0  0  0  0  0  0  0  0  0  0  0  0
   19.5397   15.5091  111.7353 H   0  0  0  0  0  0  0  0  0  0  0  0
   18.0662   18.5436  109.7477 H   0  0  0  0  0  0  0  0  0  0  0  0
   16.5427   20.1398  110.4465 H   0  0  0  0  0  0  0  0  0  0  0  0
   15.5428   18.8375  111.1751 H   0  0  0  0  0  0  0  0  0  0  0  0
   15.8771   14.2686  109.2585 H   0  0  0  0  0  0  0  0  0  0  0  0
   16.8889   12.8810  108.7316 H   0  0  0  0  0  0  0  0  0  0  0  0
   17.7175   14.3025  106.8188 H   0  0  0  0  0  0  0  0  0  0  0  0
   16.5436   15.5685  107.3147 H   0  0  0  0  0  0  0  0  0  0  0  0
   14.3298   19.9827  109.3433 H   0  0  0  0  0  0  0  0  0  0  0  0
   14.6521   18.2648  108.9294 H   0  0  0  0  0  0  0  0  0  0  0  0
   15.6520   19.5670  108.2008 H   0  0  0  0  0  0  0  0  0  0  0  0
   15.7514   14.6430  105.2736 H   0  0  0  0  0  0  0  0  0  0  0  0
   14.6777   14.0143  106.5691 H   0  0  0  0  0  0  0  0  0  0  0  0
   15.1814   12.3717  104.9442 H   0  0  0  0  0  0  0  0  0  0  0  0
   15.8159   11.9330  106.3982 H   0  0  0  0  0  0  0  0  0  0  0  0
   16.7998   12.5091  105.2111 H   0  0  0  0  0  0  0  0  0  0  0  0
  1  2  2  0  0  0  0
  1  6  1  0  0  0  0
  1 23  1  0  0  0  0
  2  3  1  0  0  0  0
  2 29  1  0  0  0  0
  3  4  2  0  0  0  0
  3  7  1  0  0  0  0
  4  5  1  0  0  0  0
  4 22  1  0  0  0  0
  5  6  2  0  0  0  0
  5 30  1  0  0  0  0
  6 31  1  0  0  0  0
  7  8  2  0  0  0  0
  7 11  1  0  0  0  0
  8  9  1  0  0  0  0
  9 10  1  0  0  0  0
  9 18  1  0  0  0  0
 10 11  1  0  0  0  0
 10 12  1  0  0  0  0
 10 24  1  6  0  0  0
 11 32  1  0  0  0  0
 11 33  1  0  0  0  0
 12 13  2  0  0  0  0
 12 17  1  0  0  0  0
 13 14  1  0  0  0  0
 13 34  1  0  0  0  0
 14 15  2  0  0  0  0
 14 35  1  0  0  0  0
 15 16  1  0  0  0  0
 15 36  1  0  0  0  0
 16 17  2  0  0  0  0
 16 37  1  0  0  0  0
 17 38  1  0  0  0  0
 18 19  1  0  0  0  0
 18 21  2  0  0  0  0
 19 20  1  0  0  0  0
 19 39  1  0  0  0  0
 20 26  1  0  0  0  0
 20 40  1  0  0  0  0
 20 41  1  0  0  0  0
 24 25  1  0  0  0  0
 24 42  1  0  0  0  0
 24 43  1  0  0  0  0
 25 27  1  0  0  0  0
 25 44  1  0  0  0  0
 25 45  1  0  0  0  0
 26 46  1  0  0  0  0
 26 47  1  0  0  0  0
 26 48  1  0  0  0  0
 27 28  1  0  0  0  0
 27 49  1  0  0  0  0
 27 50  1  0  0  0  0
 28 51  1  0  0  0  0
 28 52  1  0  0  0  0
 28 53  1  0  0  0  0
M  CHG  1  28   1
M  END
