2g5t_ligand
 OpenBabel08222323343D

 48 50  0  0  1  0  0  0  0  0999 V2000
   15.0380   -3.1780   34.3720 C   0  0  0  0  0  0  0  0  0  0  0  0
   16.2640   -2.8610   35.2980 C   0  0  2  0  0  0  0  0  0  0  0  0
   16.3980   -3.7420   36.5540 C   0  0  0  0  0  0  0  0  0  0  0  0
   17.2210   -2.8850   37.4980 C   0  0  0  0  0  0  0  0  0  0  0  0
   16.8410   -1.4420   37.1390 C   0  0  2  0  0  0  0  0  0  0  0  0
   15.8640   -0.7930   38.1190 C   0  0  0  0  0  0  0  0  0  0  0  0
   14.2040   -2.3080   34.1930 O   0  0  0  0  0  0  0  0  0  0  0  0
   16.2430   -1.4860   35.8070 N   0  3  0  0  0  0  0  0  0  0  0  0
   14.9510   -4.4520   33.7660 N   0  0  0  0  0  0  0  0  0  0  0  0
   13.6200   -1.1670   38.9610 C   0  0  0  0  0  0  0  0  0  0  0  0
   14.6790   -1.5580   38.1280 O   0  0  0  0  0  0  0  0  0  0  0  0
   12.4460   -1.9690   38.9300 C   0  0  0  0  0  0  0  0  0  0  0  0
   11.3200   -1.6600   39.7300 C   0  0  0  0  0  0  0  0  0  0  0  0
   11.3560   -0.5310   40.5800 C   0  0  0  0  0  0  0  0  0  0  0  0
   12.5130    0.2940   40.6390 C   0  0  0  0  0  0  0  0  0  0  0  0
   13.6320   -0.0330   39.8280 C   0  0  0  0  0  0  0  0  0  0  0  0
   13.8400   -4.8460   32.8500 C   0  0  1  0  0  0  0  0  0  0  0  0
   14.2430   -6.2830   32.4370 C   0  0  0  0  0  0  0  0  0  0  0  0
   15.7380   -6.3140   32.6090 C   0  0  0  0  0  0  0  0  0  0  0  0
   15.9070   -5.5440   33.9020 C   0  0  0  0  0  0  0  0  0  0  0  0
   12.4380   -5.0090   33.4500 C   0  0  0  0  0  0  0  0  0  0  0  0
   12.2840   -5.2630   34.7490 N   0  0  0  0  0  0  0  0  0  0  0  0
   12.5620    1.4820   41.5290 C   0  0  0  0  0  0  0  0  0  0  0  0
   12.3680   -3.3680   37.8940 Cl  0  0  0  0  0  0  0  0  0  0  0  0
   13.5830    2.1660   41.5540 O   0  5  0  0  0  0  0  0  0  0  0  0
   11.5870    1.7530   42.2190 O   0  0  0  0  0  0  0  0  0  0  0  0
   17.1667   -2.9986   34.6847 H   0  0  0  0  0  0  0  0  0  0  0  0
   16.9186   -4.6827   36.3214 H   0  0  0  0  0  0  0  0  0  0  0  0
   15.4110   -3.9659   36.9850 H   0  0  0  0  0  0  0  0  0  0  0  0
   18.2962   -3.0546   37.3393 H   0  0  0  0  0  0  0  0  0  0  0  0
   16.9657   -3.1050   38.5451 H   0  0  0  0  0  0  0  0  0  0  0  0
   17.7560   -0.8320   37.1131 H   0  0  0  0  0  0  0  0  0  0  0  0
   15.6415    0.2352   37.7977 H   0  0  0  0  0  0  0  0  0  0  0  0
   16.3038   -0.7751   39.1271 H   0  0  0  0  0  0  0  0  0  0  0  0
   15.2897   -1.1624   35.8574 H   0  0  0  0  0  0  0  0  0  0  0  0
   16.7674   -0.8909   35.1850 H   0  0  0  0  0  0  0  0  0  0  0  0
   10.4354   -2.2853   39.6911 H   0  0  0  0  0  0  0  0  0  0  0  0
   10.4940   -0.2919   41.1923 H   0  0  0  0  0  0  0  0  0  0  0  0
   14.5159    0.5932   39.8683 H   0  0  0  0  0  0  0  0  0  0  0  0
   13.7965   -4.1539   31.9961 H   0  0  0  0  0  0  0  0  0  0  0  0
   13.9671   -6.4795   31.3905 H   0  0  0  0  0  0  0  0  0  0  0  0
   13.7603   -7.0257   33.0892 H   0  0  0  0  0  0  0  0  0  0  0  0
   16.2494   -5.8139   31.7734 H   0  0  0  0  0  0  0  0  0  0  0  0
   16.1107   -7.3446   32.7031 H   0  0  0  0  0  0  0  0  0  0  0  0
   15.6655   -6.1740   34.7708 H   0  0  0  0  0  0  0  0  0  0  0  0
   16.9330   -5.1601   34.0013 H   0  0  0  0  0  0  0  0  0  0  0  0
   11.5620   -4.9165   32.8098 H   0  0  0  0  0  0  0  0  0  0  0  0
   11.3591   -5.3688   35.1357 H   0  0  0  0  0  0  0  0  0  0  0  0
  1  2  1  0  0  0  0
  1  7  2  0  0  0  0
  1  9  1  0  0  0  0
  2  3  1  0  0  0  0
  2  8  1  0  0  0  0
  2 27  1  6  0  0  0
  3  4  1  0  0  0  0
  3 28  1  0  0  0  0
  3 29  1  0  0  0  0
  4  5  1  0  0  0  0
  4 30  1  0  0  0  0
  4 31  1  0  0  0  0
  5  6  1  0  0  0  0
  5  8  1  0  0  0  0
  5 32  1  6  0  0  0
  6 11  1  0  0  0  0
  6 33  1  0  0  0  0
  6 34  1  0  0  0  0
  8 35  1  0  0  0  0
  8 36  1  0  0  0  0
  9 17  1  0  0  0  0
  9 20  1  0  0  0  0
 10 12  2  0  0  0  0
 10 16  1  0  0  0  0
 11 10  1  0  0  0  0
 12 13  1  0  0  0  0
 12 24  1  0  0  0  0
 13 14  2  0  0  0  0
 13 37  1  0  0  0  0
 14 15  1  0  0  0  0
 14 38  1  0  0  0  0
 15 16  2  0  0  0  0
 15 23  1  0  0  0  0
 16 39  1  0  0  0  0
 17 18  1  0  0  0  0
 17 21  1  0  0  0  0
 17 40  1  6  0  0  0
 18 19  1  0  0  0  0
 18 41  1  0  0  0  0
 18 42  1  0  0  0  0
 19 20  1  0  0  0  0
 19 43  1  0  0  0  0
 19 44  1  0  0  0  0
 20 45  1  0  0  0  0
 20 46  1  0  0  0  0
 21 22  2  0  0  0  0
 21 47  1  0  0  0  0
 22 48  1  0  0  0  0
 23 25  1  0  0  0  0
 23 26  2  0  0  0  0
M  CHG  2   8   1  25  -1
M  END
