2g63_ligand
 OpenBabel08222323343D

 57 59  0  0  1  0  0  0  0  0999 V2000
   30.1760    5.9180   63.3430 C   0  0  0  0  0  0  0  0  0  0  0  0
   31.5050    5.7600   64.1470 C   0  0  2  0  0  0  0  0  0  0  0  0
   32.6700    6.5510   63.5310 C   0  0  0  0  0  0  0  0  0  0  0  0
   33.8850    5.7000   63.8640 C   0  0  0  0  0  0  0  0  0  0  0  0
   33.3640    4.2500   63.9400 C   0  0  2  0  0  0  0  0  0  0  0  0
   33.6410    3.3870   62.6540 C   0  0  0  0  0  0  0  0  0  0  0  0
   29.8920    5.0340   62.5400 O   0  0  0  0  0  0  0  0  0  0  0  0
   31.9180    4.3450   64.1490 N   0  3  0  0  0  0  0  0  0  0  0  0
   29.3600    7.0430   63.5770 N   0  0  0  0  0  0  0  0  0  0  0  0
   28.0840    7.2640   62.8710 C   0  0  1  0  0  0  0  0  0  0  0  0
   27.5160    8.5660   63.4780 C   0  0  0  0  0  0  0  0  0  0  0  0
   28.5450    9.1370   64.4320 C   0  0  0  0  0  0  0  0  0  0  0  0
   29.6600    8.1060   64.5340 C   0  0  0  0  0  0  0  0  0  0  0  0
   28.1250    7.5600   61.3410 C   0  0  0  0  0  0  0  0  0  0  0  0
   33.0220    3.9360   61.4170 N   0  0  0  0  0  0  0  0  0  0  0  0
   33.6550    4.8220   60.5940 C   0  0  0  0  0  0  0  0  0  0  0  0
   34.7820    5.2270   60.8520 O   0  0  0  0  0  0  0  0  0  0  0  0
   29.2690    7.6620   60.6450 N   0  0  0  0  0  0  0  0  0  0  0  0
   32.8890    5.2610   59.5320 N   0  0  0  0  0  0  0  0  0  0  0  0
   33.2070    6.2530   58.6110 C   0  0  0  0  0  0  0  0  0  0  0  0
   32.1390    6.7570   57.8220 C   0  0  0  0  0  0  0  0  0  0  0  0
   32.3630    7.7880   56.8710 C   0  0  0  0  0  0  0  0  0  0  0  0
   33.6720    8.3310   56.6890 C   0  0  0  0  0  0  0  0  0  0  0  0
   34.7460    7.8240   57.4790 C   0  0  0  0  0  0  0  0  0  0  0  0
   34.5200    6.8010   58.4180 C   0  0  0  0  0  0  0  0  0  0  0  0
   33.8880    9.4190   55.7030 C   0  0  0  0  0  0  0  0  0  0  0  0
   32.9950    9.8590   55.0320 O   0  0  0  0  0  0  0  0  0  0  0  0
   35.1600    9.8410   55.6460 O   0  0  0  0  0  0  0  0  0  0  0  0
   35.5360   10.8880   54.7460 C   0  0  0  0  0  0  0  0  0  0  0  0
   31.3364    6.1036   65.1783 H   0  0  0  0  0  0  0  0  0  0  0  0
   32.7520    7.5496   63.9850 H   0  0  0  0  0  0  0  0  0  0  0  0
   32.5459    6.6520   62.4427 H   0  0  0  0  0  0  0  0  0  0  0  0
   34.3152    6.0050   64.8294 H   0  0  0  0  0  0  0  0  0  0  0  0
   34.6475    5.7937   63.0768 H   0  0  0  0  0  0  0  0  0  0  0  0
   33.8346    3.7491   64.7988 H   0  0  0  0  0  0  0  0  0  0  0  0
   33.2416    2.3760   62.8222 H   0  0  0  0  0  0  0  0  0  0  0  0
   34.7290    3.3309   62.5018 H   0  0  0  0  0  0  0  0  0  0  0  0
   31.4401    3.8559   63.4085 H   0  0  0  0  0  0  0  0  0  0  0  0
   31.6800    3.9282   65.0354 H   0  0  0  0  0  0  0  0  0  0  0  0
   27.4232    6.4037   63.0532 H   0  0  0  0  0  0  0  0  0  0  0  0
   26.5856    8.3471   64.0225 H   0  0  0  0  0  0  0  0  0  0  0  0
   27.3100    9.2907   62.6765 H   0  0  0  0  0  0  0  0  0  0  0  0
   28.0934    9.3071   65.4205 H   0  0  0  0  0  0  0  0  0  0  0  0
   28.9400   10.0862   64.0410 H   0  0  0  0  0  0  0  0  0  0  0  0
   30.6261    8.5713   64.2887 H   0  0  0  0  0  0  0  0  0  0  0  0
   29.6995    7.6944   65.5533 H   0  0  0  0  0  0  0  0  0  0  0  0
   27.1821    7.6901   60.8119 H   0  0  0  0  0  0  0  0  0  0  0  0
   32.0970    3.6414   61.1770 H   0  0  0  0  0  0  0  0  0  0  0  0
   29.2418    7.8549   59.6560 H   0  0  0  0  0  0  0  0  0  0  0  0
   32.0029    4.8135   59.4114 H   0  0  0  0  0  0  0  0  0  0  0  0
   31.1419    6.3504   57.9469 H   0  0  0  0  0  0  0  0  0  0  0  0
   31.5362    8.1650   56.2800 H   0  0  0  0  0  0  0  0  0  0  0  0
   35.7435    8.2298   57.3550 H   0  0  0  0  0  0  0  0  0  0  0  0
   35.3490    6.4211   59.0041 H   0  0  0  0  0  0  0  0  0  0  0  0
   36.6127   11.0893   54.8471 H   0  0  0  0  0  0  0  0  0  0  0  0
   34.9686   11.7993   54.9860 H   0  0  0  0  0  0  0  0  0  0  0  0
   35.3159   10.5803   53.7131 H   0  0  0  0  0  0  0  0  0  0  0  0
  1  2  1  0  0  0  0
  1  7  2  0  0  0  0
  1  9  1  0  0  0  0
  2  3  1  0  0  0  0
  2  8  1  0  0  0  0
  2 30  1  1  0  0  0
  3  4  1  0  0  0  0
  3 31  1  0  0  0  0
  3 32  1  0  0  0  0
  4  5  1  0  0  0  0
  4 33  1  0  0  0  0
  4 34  1  0  0  0  0
  5  6  1  0  0  0  0
  5  8  1  0  0  0  0
  5 35  1  1  0  0  0
  6 15  1  0  0  0  0
  6 36  1  0  0  0  0
  6 37  1  0  0  0  0
  8 38  1  0  0  0  0
  8 39  1  0  0  0  0
  9 10  1  0  0  0  0
  9 13  1  0  0  0  0
 10 11  1  0  0  0  0
 10 14  1  0  0  0  0
 10 40  1  1  0  0  0
 11 12  1  0  0  0  0
 11 41  1  0  0  0  0
 11 42  1  0  0  0  0
 12 13  1  0  0  0  0
 12 43  1  0  0  0  0
 12 44  1  0  0  0  0
 13 45  1  0  0  0  0
 13 46  1  0  0  0  0
 14 18  2  0  0  0  0
 14 47  1  0  0  0  0
 15 16  1  0  0  0  0
 15 48  1  0  0  0  0
 16 17  2  0  0  0  0
 16 19  1  0  0  0  0
 18 49  1  0  0  0  0
 19 20  1  0  0  0  0
 19 50  1  0  0  0  0
 20 21  2  0  0  0  0
 20 25  1  0  0  0  0
 21 22  1  0  0  0  0
 21 51  1  0  0  0  0
 22 23  2  0  0  0  0
 22 52  1  0  0  0  0
 23 24  1  0  0  0  0
 23 26  1  0  0  0  0
 24 25  2  0  0  0  0
 24 53  1  0  0  0  0
 25 54  1  0  0  0  0
 26 27  2  0  0  0  0
 26 28  1  0  0  0  0
 28 29  1  0  0  0  0
 29 55  1  0  0  0  0
 29 56  1  0  0  0  0
 29 57  1  0  0  0  0
M  CHG  1   8   1
M  END
