2g78_ligand
 OpenBabel08222323343D

 51 51  0  0  0  0  0  0  0  0999 V2000
   21.6270   29.3960   16.5110 C   0  0  0  0  0  0  0  0  0  0  0  0
   20.5360   30.0740   15.6790 C   0  0  0  0  0  0  0  0  0  0  0  0
   19.8510   29.1120   14.7310 C   0  0  0  0  0  0  0  0  0  0  0  0
   19.1600   27.9620   15.4160 C   0  0  0  0  0  0  0  0  0  0  0  0
   20.0480   27.3390   16.4260 C   0  0  0  0  0  0  0  0  0  0  0  0
   21.1140   28.0640   16.9900 C   0  0  0  0  0  0  0  0  0  0  0  0
   21.9100   27.5430   18.0670 C   0  0  0  0  0  0  0  0  0  0  0  0
   21.2650   26.8470   19.1450 C   0  0  0  0  0  0  0  0  0  0  0  0
   22.1110   26.1800   20.0880 C   0  0  0  0  0  0  0  0  0  0  0  0
   21.4310   25.2640   20.9460 C   0  0  0  0  0  0  0  0  0  0  0  0
   22.1430   24.7110   22.0350 C   0  0  0  0  0  0  0  0  0  0  0  0
   21.3270   23.7670   22.7880 C   0  0  0  0  0  0  0  0  0  0  0  0
   21.9120   23.0970   23.9240 C   0  0  0  0  0  0  0  0  0  0  0  0
   21.0020   22.2940   24.6310 C   0  0  0  0  0  0  0  0  0  0  0  0
   21.4340   21.5600   25.8120 C   0  0  0  0  0  0  0  0  0  0  0  0
   22.0600   30.2480   17.7000 C   0  0  0  0  0  0  0  0  0  0  0  0
   22.8920   29.1420   15.6960 C   0  0  0  0  0  0  0  0  0  0  0  0
   19.7050   25.9520   16.8200 C   0  0  0  0  0  0  0  0  0  0  0  0
   23.5870   26.3550   20.2110 C   0  0  0  0  0  0  0  0  0  0  0  0
   23.3450   23.2190   24.3400 C   0  0  0  0  0  0  0  0  0  0  0  0
   22.4630   20.8280   25.7930 O   0  5  0  0  0  0  0  0  0  0  0  0
   20.7930   21.7510   26.8620 O   0  0  0  0  0  0  0  0  0  0  0  0
   20.9922   30.8843   15.0913 H   0  0  0  0  0  0  0  0  0  0  0  0
   19.7823   30.4949   16.3607 H   0  0  0  0  0  0  0  0  0  0  0  0
   20.6089   28.7020   14.0473 H   0  0  0  0  0  0  0  0  0  0  0  0
   19.1005   29.6715   14.1534 H   0  0  0  0  0  0  0  0  0  0  0  0
   18.8844   27.2077   14.6643 H   0  0  0  0  0  0  0  0  0  0  0  0
   18.2518   28.3323   15.9141 H   0  0  0  0  0  0  0  0  0  0  0  0
   22.4466   28.3946   18.5105 H   0  0  0  0  0  0  0  0  0  0  0  0
   22.6342   26.8447   17.6221 H   0  0  0  0  0  0  0  0  0  0  0  0
   20.6018   26.0900   18.7012 H   0  0  0  0  0  0  0  0  0  0  0  0
   20.6633   27.5812   19.7008 H   0  0  0  0  0  0  0  0  0  0  0  0
   20.3904   24.9980   20.7663 H   0  0  0  0  0  0  0  0  0  0  0  0
   23.1743   24.9598   22.2809 H   0  0  0  0  0  0  0  0  0  0  0  0
   20.2955   23.5711   22.4988 H   0  0  0  0  0  0  0  0  0  0  0  0
   19.9689   22.2200   24.2945 H   0  0  0  0  0  0  0  0  0  0  0  0
   22.8424   29.7194   18.2642 H   0  0  0  0  0  0  0  0  0  0  0  0
   21.1952   30.4300   18.3550 H   0  0  0  0  0  0  0  0  0  0  0  0
   22.4547   31.2089   17.3382 H   0  0  0  0  0  0  0  0  0  0  0  0
   22.6450   28.5279   14.8175 H   0  0  0  0  0  0  0  0  0  0  0  0
   23.6288   28.6126   16.3180 H   0  0  0  0  0  0  0  0  0  0  0  0
   23.3140   30.1024   15.3650 H   0  0  0  0  0  0  0  0  0  0  0  0
   20.4268   25.5946   17.5692 H   0  0  0  0  0  0  0  0  0  0  0  0
   19.7418   25.2997   15.9351 H   0  0  0  0  0  0  0  0  0  0  0  0
   18.6920   25.9323   17.2483 H   0  0  0  0  0  0  0  0  0  0  0  0
   23.9658   25.7149   21.0214 H   0  0  0  0  0  0  0  0  0  0  0  0
   23.8139   27.4071   20.4382 H   0  0  0  0  0  0  0  0  0  0  0  0
   24.0700   26.0720   19.2641 H   0  0  0  0  0  0  0  0  0  0  0  0
   23.8712   23.8941   23.6490 H   0  0  0  0  0  0  0  0  0  0  0  0
   23.8196   22.2270   24.3158 H   0  0  0  0  0  0  0  0  0  0  0  0
   23.3972   23.6257   25.3607 H   0  0  0  0  0  0  0  0  0  0  0  0
  1  2  1  0  0  0  0
  1  6  1  0  0  0  0
  1 16  1  0  0  0  0
  1 17  1  0  0  0  0
  2  3  1  0  0  0  0
  2 23  1  0  0  0  0
  2 24  1  0  0  0  0
  3  4  1  0  0  0  0
  3 25  1  0  0  0  0
  3 26  1  0  0  0  0
  4  5  1  0  0  0  0
  4 27  1  0  0  0  0
  4 28  1  0  0  0  0
  5  6  2  0  0  0  0
  5 18  1  0  0  0  0
  6  7  1  0  0  0  0
  7  8  1  0  0  0  0
  7 29  1  0  0  0  0
  7 30  1  0  0  0  0
  8  9  1  0  0  0  0
  8 31  1  0  0  0  0
  8 32  1  0  0  0  0
  9 10  2  0  0  0  0
  9 19  1  0  0  0  0
 10 11  1  0  0  0  0
 10 33  1  0  0  0  0
 11 12  2  0  0  0  0
 11 34  1  0  0  0  0
 12 13  1  0  0  0  0
 12 35  1  0  0  0  0
 13 14  2  0  0  0  0
 13 20  1  0  0  0  0
 14 15  1  0  0  0  0
 14 36  1  0  0  0  0
 15 21  1  0  0  0  0
 15 22  2  0  0  0  0
 16 37  1  0  0  0  0
 16 38  1  0  0  0  0
 16 39  1  0  0  0  0
 17 40  1  0  0  0  0
 17 41  1  0  0  0  0
 17 42  1  0  0  0  0
 18 43  1  0  0  0  0
 18 44  1  0  0  0  0
 18 45  1  0  0  0  0
 19 46  1  0  0  0  0
 19 47  1  0  0  0  0
 19 48  1  0  0  0  0
 20 49  1  0  0  0  0
 20 50  1  0  0  0  0
 20 51  1  0  0  0  0
M  CHG  1  21  -1
M  END
