2g8n_ligand
 OpenBabel08222323343D

 41 43  0  0  1  0  0  0  0  0999 V2000
   29.0990   44.7580   22.6830 O   0  0  0  0  0  0  0  0  0  0  0  0
   29.5500   45.4790   21.5340 C   0  0  0  0  0  0  0  0  0  0  0  0
   28.9030   44.8560   20.2970 C   0  0  2  0  0  0  0  0  0  0  0  0
   29.4180   43.4930   20.0970 N   0  3  0  0  0  0  0  0  0  0  0  0
   28.5950   42.7870   19.1030 C   0  0  0  0  0  0  0  0  0  0  0  0
   28.4720   43.6060   17.8120 C   0  0  0  0  0  0  0  0  0  0  0  0
   28.0420   42.9760   16.6550 C   0  0  0  0  0  0  0  0  0  0  0  0
   27.8460   43.7140   15.4880 C   0  0  0  0  0  0  0  0  0  0  0  0
   28.0770   45.0850   15.4840 C   0  0  0  0  0  0  0  0  0  0  0  0
   28.5160   45.7200   16.6450 C   0  0  0  0  0  0  0  0  0  0  0  0
   28.7180   44.9830   17.8050 C   0  0  0  0  0  0  0  0  0  0  0  0
   29.2450   45.6850   19.0580 C   0  0  0  0  0  0  0  0  0  0  0  0
   27.3310   42.9130   14.0240 S   0  0  0  0  0  0  0  0  0  0  0  0
   25.9100   42.7710   14.0030 O   0  0  0  0  0  0  0  0  0  0  0  0
   27.9720   41.5570   13.9310 O   0  0  0  0  0  0  0  0  0  0  0  0
   27.8390   43.8210   12.7710 N   0  0  0  0  0  0  0  0  0  0  0  0
   26.9100   44.6130   11.9490 C   0  0  0  0  0  0  0  0  0  0  0  0
   25.8530   45.3110   12.5270 C   0  0  0  0  0  0  0  0  0  0  0  0
   25.0270   46.0980   11.7300 C   0  0  0  0  0  0  0  0  0  0  0  0
   25.2620   46.1850   10.3560 C   0  0  0  0  0  0  0  0  0  0  0  0
   26.3130   45.4760    9.7820 C   0  0  0  0  0  0  0  0  0  0  0  0
   27.1380   44.6890   10.5800 C   0  0  0  0  0  0  0  0  0  0  0  0
   24.3110   47.2170    9.3510 Cl  0  0  0  0  0  0  0  0  0  0  0  0
   29.4911   45.1312   23.4637 H   0  0  0  0  0  0  0  0  0  0  0  0
   30.6451   45.4096   21.4566 H   0  0  0  0  0  0  0  0  0  0  0  0
   29.2544   46.5353   21.6171 H   0  0  0  0  0  0  0  0  0  0  0  0
   27.8118   44.8242   20.4323 H   0  0  0  0  0  0  0  0  0  0  0  0
   29.3879   42.9928   20.9716 H   0  0  0  0  0  0  0  0  0  0  0  0
   30.3701   43.5403   19.7695 H   0  0  0  0  0  0  0  0  0  0  0  0
   27.5910   42.6198   19.5202 H   0  0  0  0  0  0  0  0  0  0  0  0
   29.0620   41.8183   18.8716 H   0  0  0  0  0  0  0  0  0  0  0  0
   27.8577   41.9078   16.6571 H   0  0  0  0  0  0  0  0  0  0  0  0
   27.9159   45.6597   14.5791 H   0  0  0  0  0  0  0  0  0  0  0  0
   28.6996   46.7883   16.6424 H   0  0  0  0  0  0  0  0  0  0  0  0
   30.3367   45.7963   18.9826 H   0  0  0  0  0  0  0  0  0  0  0  0
   28.7802   46.6783   19.1431 H   0  0  0  0  0  0  0  0  0  0  0  0
   28.8147   43.8410   12.5529 H   0  0  0  0  0  0  0  0  0  0  0  0
   25.6741   45.2417   13.5939 H   0  0  0  0  0  0  0  0  0  0  0  0
   24.2023   46.6428   12.1751 H   0  0  0  0  0  0  0  0  0  0  0  0
   26.4889   45.5367    8.7141 H   0  0  0  0  0  0  0  0  0  0  0  0
   27.9571   44.1361   10.1346 H   0  0  0  0  0  0  0  0  0  0  0  0
  1  2  1  0  0  0  0
  1 24  1  0  0  0  0
  2  3  1  0  0  0  0
  2 25  1  0  0  0  0
  2 26  1  0  0  0  0
  3  4  1  0  0  0  0
  3 12  1  0  0  0  0
  3 27  1  1  0  0  0
  4  5  1  0  0  0  0
  4 28  1  0  0  0  0
  4 29  1  0  0  0  0
  5  6  1  0  0  0  0
  5 30  1  0  0  0  0
  5 31  1  0  0  0  0
  6  7  2  0  0  0  0
  6 11  1  0  0  0  0
  7  8  1  0  0  0  0
  7 32  1  0  0  0  0
  8  9  2  0  0  0  0
  8 13  1  0  0  0  0
  9 10  1  0  0  0  0
  9 33  1  0  0  0  0
 10 11  2  0  0  0  0
 10 34  1  0  0  0  0
 11 12  1  0  0  0  0
 12 35  1  0  0  0  0
 12 36  1  0  0  0  0
 13 14  2  0  0  0  0
 13 15  2  0  0  0  0
 13 16  1  0  0  0  0
 16 17  1  0  0  0  0
 16 37  1  0  0  0  0
 17 18  2  0  0  0  0
 17 22  1  0  0  0  0
 18 19  1  0  0  0  0
 18 38  1  0  0  0  0
 19 20  2  0  0  0  0
 19 39  1  0  0  0  0
 20 21  1  0  0  0  0
 20 23  1  0  0  0  0
 21 22  2  0  0  0  0
 21 40  1  0  0  0  0
 22 41  1  0  0  0  0
M  CHG  1   4   1
M  END
