2g9q_ligand
 OpenBabel08222323343D

 21 21  0  0  1  0  0  0  0  0999 V2000
   31.1450   20.9550   25.4890 O   0  0  0  0  0  0  0  0  0  0  0  0
   32.5080   21.3430   25.7380 C   0  0  1  0  0  0  0  0  0  0  0  0
   32.7700   22.7760   25.2790 C   0  0  2  0  0  0  0  0  0  0  0  0
   33.1520   22.7920   23.9180 O   0  0  0  0  0  0  0  0  0  0  0  0
   33.9500   23.2260   26.1610 C   0  0  0  0  0  0  0  0  0  0  0  0
   34.0930   22.1650   27.1970 N   0  3  0  0  0  0  0  0  0  0  0  0
   32.7660   21.5110   27.2460 C   0  0  2  0  0  0  0  0  0  0  0  0
   32.8110   20.1940   28.0390 C   0  0  0  0  0  0  0  0  0  0  0  0
   33.7580   19.2940   27.4420 O   0  0  0  0  0  0  0  0  0  0  0  0
   30.5603   21.5358   25.9614 H   0  0  0  0  0  0  0  0  0  0  0  0
   33.1965   20.6224   25.2725 H   0  0  0  0  0  0  0  0  0  0  0  0
   31.8871   23.4141   25.4317 H   0  0  0  0  0  0  0  0  0  0  0  0
   33.3117   23.6880   23.6456 H   0  0  0  0  0  0  0  0  0  0  0  0
   33.7318   24.1964   26.6308 H   0  0  0  0  0  0  0  0  0  0  0  0
   34.8695   23.3067   25.5627 H   0  0  0  0  0  0  0  0  0  0  0  0
   34.3238   22.5692   28.0911 H   0  0  0  0  0  0  0  0  0  0  0  0
   34.8063   21.5035   26.9330 H   0  0  0  0  0  0  0  0  0  0  0  0
   32.0100   22.1674   27.7017 H   0  0  0  0  0  0  0  0  0  0  0  0
   31.8135   19.7303   28.0324 H   0  0  0  0  0  0  0  0  0  0  0  0
   33.1112   20.4033   29.0763 H   0  0  0  0  0  0  0  0  0  0  0  0
   33.7793   18.4839   27.9377 H   0  0  0  0  0  0  0  0  0  0  0  0
  1  2  1  0  0  0  0
  1 10  1  0  0  0  0
  2  3  1  0  0  0  0
  2  7  1  0  0  0  0
  2 11  1  6  0  0  0
  3  4  1  0  0  0  0
  3  5  1  0  0  0  0
  3 12  1  1  0  0  0
  4 13  1  0  0  0  0
  5  6  1  0  0  0  0
  5 14  1  0  0  0  0
  5 15  1  0  0  0  0
  6  7  1  0  0  0  0
  6 16  1  0  0  0  0
  6 17  1  0  0  0  0
  7  8  1  0  0  0  0
  7 18  1  1  0  0  0
  8  9  1  0  0  0  0
  8 19  1  0  0  0  0
  8 20  1  0  0  0  0
  9 21  1  0  0  0  0
M  CHG  1   6   1
M  END
