2g9v_ligand
 OpenBabel08222323343D

 24 24  0  0  1  0  0  0  0  0999 V2000
   31.5400   20.7970   25.2760 O   0  0  0  0  0  0  0  0  0  0  0  0
   32.7190   21.3240   25.9110 C   0  0  1  0  0  0  0  0  0  0  0  0
   32.9430   22.7770   25.4470 C   0  0  2  0  0  0  0  0  0  0  0  0
   33.1770   22.7770   24.0370 O   0  0  0  0  0  0  0  0  0  0  0  0
   34.1500   23.4190   26.1810 C   0  0  0  0  0  0  0  0  0  0  0  0
   33.9860   23.3020   27.6580 N   0  3  0  0  0  0  0  0  0  0  0  0
   33.8250   21.8890   28.1250 C   0  0  0  0  0  0  0  0  0  0  0  0
   32.6080   21.2270   27.4560 C   0  0  2  0  0  0  0  0  0  0  0  0
   32.4560   19.7810   27.9600 C   0  0  0  0  0  0  0  0  0  0  0  0
   33.4890   18.9320   27.4220 O   0  0  0  0  0  0  0  0  0  0  0  0
   30.7889   21.3269   25.5157 H   0  0  0  0  0  0  0  0  0  0  0  0
   33.5837   20.7226   25.5939 H   0  0  0  0  0  0  0  0  0  0  0  0
   32.0405   23.3666   25.6657 H   0  0  0  0  0  0  0  0  0  0  0  0
   33.3164   23.6687   23.7403 H   0  0  0  0  0  0  0  0  0  0  0  0
   34.2160   24.4824   25.9074 H   0  0  0  0  0  0  0  0  0  0  0  0
   35.0736   22.9042   25.8776 H   0  0  0  0  0  0  0  0  0  0  0  0
   33.1687   23.8246   27.9317 H   0  0  0  0  0  0  0  0  0  0  0  0
   34.8007   23.6951   28.1027 H   0  0  0  0  0  0  0  0  0  0  0  0
   33.6839   21.8837   29.2159 H   0  0  0  0  0  0  0  0  0  0  0  0
   34.7308   21.3195   27.8697 H   0  0  0  0  0  0  0  0  0  0  0  0
   31.7073   21.7813   27.7585 H   0  0  0  0  0  0  0  0  0  0  0  0
   31.4746   19.3936   27.6490 H   0  0  0  0  0  0  0  0  0  0  0  0
   32.5216   19.7746   29.0580 H   0  0  0  0  0  0  0  0  0  0  0  0
   34.3390   19.2601   27.6910 H   0  0  0  0  0  0  0  0  0  0  0  0
  1  2  1  0  0  0  0
  1 11  1  0  0  0  0
  2  3  1  0  0  0  0
  2  8  1  0  0  0  0
  2 12  1  6  0  0  0
  3  4  1  0  0  0  0
  3  5  1  0  0  0  0
  3 13  1  1  0  0  0
  4 14  1  0  0  0  0
  5  6  1  0  0  0  0
  5 15  1  0  0  0  0
  5 16  1  0  0  0  0
  6  7  1  0  0  0  0
  6 17  1  0  0  0  0
  6 18  1  0  0  0  0
  7  8  1  0  0  0  0
  7 19  1  0  0  0  0
  7 20  1  0  0  0  0
  8  9  1  0  0  0  0
  8 21  1  1  0  0  0
  9 10  1  0  0  0  0
  9 22  1  0  0  0  0
  9 23  1  0  0  0  0
 10 24  1  0  0  0  0
M  CHG  1   6   1
M  END
