2gbf_ligand
 OpenBabel08222323343D

 40 41  0  0  1  0  0  0  0  0999 V2000
   14.2770   39.3180  -83.2740 C   0  0  2  0  0  0  0  0  0  0  0  0
   16.3030   38.0390  -83.7990 C   0  0  1  0  0  0  0  0  0  0  0  0
   14.8080   37.1930  -81.9510 C   0  0  0  0  0  0  0  0  0  0  0  0
   14.7050   39.6530  -84.7050 C   0  0  0  0  0  0  0  0  0  0  0  0
   14.6430   40.4170  -82.3370 C   0  0  0  0  0  0  0  0  0  0  0  0
   16.1700   39.2400  -84.7620 C   0  0  0  0  0  0  0  0  0  0  0  0
   17.6420   38.2860  -83.0870 C   0  0  0  0  0  0  0  0  0  0  0  0
   13.5140   37.3610  -81.1060 C   0  0  2  0  0  0  0  0  0  0  0  0
   15.0970   38.1240  -82.9370 N   0  0  0  0  0  0  0  0  0  0  0  0
   15.5130   36.2210  -81.6980 O   0  0  0  0  0  0  0  0  0  0  0  0
   14.9620   41.2570  -81.5540 C   0  0  0  0  0  0  0  0  0  0  0  0
   17.6880   38.5860  -81.7720 N   0  0  0  0  0  0  0  0  0  0  0  0
   13.6630   38.0850  -79.7540 C   0  0  0  0  0  0  0  0  0  0  0  0
   12.9760   36.0280  -80.9300 N   0  3  0  0  0  0  0  0  0  0  0  0
   12.3420   38.5400  -79.1320 C   0  0  0  0  0  0  0  0  0  0  0  0
   14.3010   37.3000  -78.6140 C   0  0  0  0  0  0  0  0  0  0  0  0
   12.7300   38.9590  -77.7140 C   0  0  0  0  0  0  0  0  0  0  0  0
   13.9970   38.1560  -77.3790 C   0  0  0  0  0  0  0  0  0  0  0  0
   13.1991   39.1065  -83.2163 H   0  0  0  0  0  0  0  0  0  0  0  0
   16.3245   37.0743  -84.3271 H   0  0  0  0  0  0  0  0  0  0  0  0
   14.5949   40.7293  -84.9035 H   0  0  0  0  0  0  0  0  0  0  0  0
   14.1102   39.0830  -85.4339 H   0  0  0  0  0  0  0  0  0  0  0  0
   16.4455   38.9439  -85.7849 H   0  0  0  0  0  0  0  0  0  0  0  0
   16.8151   40.0683  -84.4337 H   0  0  0  0  0  0  0  0  0  0  0  0
   18.5698   38.2178  -83.6532 H   0  0  0  0  0  0  0  0  0  0  0  0
   12.8027   37.9518  -81.7018 H   0  0  0  0  0  0  0  0  0  0  0  0
   15.2446   42.0013  -80.8602 H   0  0  0  0  0  0  0  0  0  0  0  0
   18.5759   38.7448  -81.3220 H   0  0  0  0  0  0  0  0  0  0  0  0
   14.2848   38.9704  -79.9527 H   0  0  0  0  0  0  0  0  0  0  0  0
   12.8896   35.5792  -81.8284 H   0  0  0  0  0  0  0  0  0  0  0  0
   12.0685   36.0866  -80.4951 H   0  0  0  0  0  0  0  0  0  0  0  0
   13.5954   35.4903  -80.3441 H   0  0  0  0  0  0  0  0  0  0  0  0
   11.6143   37.7154  -79.1113 H   0  0  0  0  0  0  0  0  0  0  0  0
   11.9187   39.3888  -79.6891 H   0  0  0  0  0  0  0  0  0  0  0  0
   15.3858   37.1983  -78.7650 H   0  0  0  0  0  0  0  0  0  0  0  0
   13.8484   36.3017  -78.5219 H   0  0  0  0  0  0  0  0  0  0  0  0
   11.9230   38.7158  -77.0072 H   0  0  0  0  0  0  0  0  0  0  0  0
   12.9381   40.0385  -77.6757 H   0  0  0  0  0  0  0  0  0  0  0  0
   14.8357   38.8366  -77.1711 H   0  0  0  0  0  0  0  0  0  0  0  0
   13.8206   37.5134  -76.5038 H   0  0  0  0  0  0  0  0  0  0  0  0
  1  4  1  0  0  0  0
  1  5  1  0  0  0  0
  1 19  1  1  0  0  0
  2  6  1  0  0  0  0
  2  7  1  0  0  0  0
  2 20  1  6  0  0  0
  3  8  1  0  0  0  0
  3  9  1  0  0  0  0
  3 10  2  0  0  0  0
  4  6  1  0  0  0  0
  4 21  1  0  0  0  0
  4 22  1  0  0  0  0
  5 11  3  0  0  0  0
  6 23  1  0  0  0  0
  6 24  1  0  0  0  0
  7 12  2  0  0  0  0
  7 25  1  0  0  0  0
  8 13  1  0  0  0  0
  8 14  1  0  0  0  0
  8 26  1  6  0  0  0
  9  1  1  0  0  0  0
  9  2  1  0  0  0  0
 11 27  1  0  0  0  0
 12 28  1  0  0  0  0
 13 15  1  0  0  0  0
 13 16  1  0  0  0  0
 13 29  1  0  0  0  0
 14 30  1  0  0  0  0
 14 31  1  0  0  0  0
 14 32  1  0  0  0  0
 15 17  1  0  0  0  0
 15 33  1  0  0  0  0
 15 34  1  0  0  0  0
 16 18  1  0  0  0  0
 16 35  1  0  0  0  0
 16 36  1  0  0  0  0
 17 18  1  0  0  0  0
 17 37  1  0  0  0  0
 17 38  1  0  0  0  0
 18 39  1  0  0  0  0
 18 40  1  0  0  0  0
M  CHG  1  14   1
M  END
