2gbg_ligand
 OpenBabel08222323343D

 43 44  0  0  1  0  0  0  0  0999 V2000
   14.3610   39.0000  -83.1140 C   0  0  2  0  0  0  0  0  0  0  0  0
   16.4110   37.7450  -83.5180 C   0  0  1  0  0  0  0  0  0  0  0  0
   14.8830   36.9140  -81.6770 C   0  0  0  0  0  0  0  0  0  0  0  0
   14.8470   39.2990  -84.5430 C   0  0  0  0  0  0  0  0  0  0  0  0
   14.6680   40.1120  -82.1960 C   0  0  0  0  0  0  0  0  0  0  0  0
   16.3150   38.8840  -84.5390 C   0  0  0  0  0  0  0  0  0  0  0  0
   17.7420   37.9930  -82.7940 C   0  0  0  0  0  0  0  0  0  0  0  0
   13.5590   37.0330  -80.8550 C   0  0  2  0  0  0  0  0  0  0  0  0
   15.1820   37.8400  -82.6970 N   0  0  0  0  0  0  0  0  0  0  0  0
   15.6140   35.9620  -81.3790 O   0  0  0  0  0  0  0  0  0  0  0  0
   14.8760   40.9770  -81.4080 C   0  0  0  0  0  0  0  0  0  0  0  0
   17.7630   38.2940  -81.4990 N   0  0  0  0  0  0  0  0  0  0  0  0
   13.5980   37.8680  -79.5570 C   0  0  0  0  0  0  0  0  0  0  0  0
   13.1490   35.6580  -80.6030 N   0  3  0  0  0  0  0  0  0  0  0  0
   15.0730   42.0280  -80.4270 C   0  0  0  0  0  0  0  0  0  0  0  0
   12.3900   37.7640  -78.6340 C   0  0  0  0  0  0  0  0  0  0  0  0
   14.7160   37.6120  -78.5570 C   0  0  0  0  0  0  0  0  0  0  0  0
   12.8030   38.6880  -77.4930 C   0  0  0  0  0  0  0  0  0  0  0  0
   14.3400   38.5880  -77.4380 C   0  0  0  0  0  0  0  0  0  0  0  0
   13.2850   38.7723  -83.0981 H   0  0  0  0  0  0  0  0  0  0  0  0
   16.4409   36.7613  -84.0093 H   0  0  0  0  0  0  0  0  0  0  0  0
   14.7459   40.3700  -84.7724 H   0  0  0  0  0  0  0  0  0  0  0  0
   14.2784   38.7112  -85.2786 H   0  0  0  0  0  0  0  0  0  0  0  0
   16.6190   38.5339  -85.5365 H   0  0  0  0  0  0  0  0  0  0  0  0
   16.9529   39.7275  -84.2363 H   0  0  0  0  0  0  0  0  0  0  0  0
   18.6778   37.9217  -83.3463 H   0  0  0  0  0  0  0  0  0  0  0  0
   12.8094   37.5100  -81.5035 H   0  0  0  0  0  0  0  0  0  0  0  0
   18.6423   38.4550  -81.0332 H   0  0  0  0  0  0  0  0  0  0  0  0
   13.6823   38.9104  -79.8981 H   0  0  0  0  0  0  0  0  0  0  0  0
   13.1358   35.1468  -81.4716 H   0  0  0  0  0  0  0  0  0  0  0  0
   12.2271   35.6516  -80.1954 H   0  0  0  0  0  0  0  0  0  0  0  0
   13.8004   35.2242  -79.9677 H   0  0  0  0  0  0  0  0  0  0  0  0
   16.1069   42.3983  -80.4891 H   0  0  0  0  0  0  0  0  0  0  0  0
   14.8865   41.6286  -79.4192 H   0  0  0  0  0  0  0  0  0  0  0  0
   14.3750   42.8538  -80.6291 H   0  0  0  0  0  0  0  0  0  0  0  0
   12.2399   36.7326  -78.2823 H   0  0  0  0  0  0  0  0  0  0  0  0
   11.4740   38.1198  -79.1284 H   0  0  0  0  0  0  0  0  0  0  0  0
   15.7016   37.8484  -78.9843 H   0  0  0  0  0  0  0  0  0  0  0  0
   14.7101   36.5706  -78.2029 H   0  0  0  0  0  0  0  0  0  0  0  0
   12.3593   38.3531  -76.5438 H   0  0  0  0  0  0  0  0  0  0  0  0
   12.4897   39.7220  -77.6996 H   0  0  0  0  0  0  0  0  0  0  0  0
   14.7977   39.5726  -77.6142 H   0  0  0  0  0  0  0  0  0  0  0  0
   14.6672   38.2010  -76.4617 H   0  0  0  0  0  0  0  0  0  0  0  0
  1  4  1  0  0  0  0
  1  5  1  0  0  0  0
  1 20  1  1  0  0  0
  2  6  1  0  0  0  0
  2  7  1  0  0  0  0
  2 21  1  6  0  0  0
  3  8  1  0  0  0  0
  3  9  1  0  0  0  0
  3 10  2  0  0  0  0
  4  6  1  0  0  0  0
  4 22  1  0  0  0  0
  4 23  1  0  0  0  0
  5 11  3  0  0  0  0
  6 24  1  0  0  0  0
  6 25  1  0  0  0  0
  7 12  2  0  0  0  0
  7 26  1  0  0  0  0
  8 13  1  0  0  0  0
  8 14  1  0  0  0  0
  8 27  1  6  0  0  0
  9  1  1  0  0  0  0
  9  2  1  0  0  0  0
 11 15  1  0  0  0  0
 12 28  1  0  0  0  0
 13 16  1  0  0  0  0
 13 17  1  0  0  0  0
 13 29  1  0  0  0  0
 14 30  1  0  0  0  0
 14 31  1  0  0  0  0
 14 32  1  0  0  0  0
 15 33  1  0  0  0  0
 15 34  1  0  0  0  0
 15 35  1  0  0  0  0
 16 18  1  0  0  0  0
 16 36  1  0  0  0  0
 16 37  1  0  0  0  0
 17 19  1  0  0  0  0
 17 38  1  0  0  0  0
 17 39  1  0  0  0  0
 18 19  1  0  0  0  0
 18 40  1  0  0  0  0
 18 41  1  0  0  0  0
 19 42  1  0  0  0  0
 19 43  1  0  0  0  0
M  CHG  1  14   1
M  END
