2gbi_ligand
 OpenBabel08222323343D

 53 56  0  0  1  0  0  0  0  0999 V2000
   17.1300   40.5770  -80.0620 C   0  0  0  0  0  0  0  0  0  0  0  0
   17.2110   40.1610  -78.7820 C   0  0  0  0  0  0  0  0  0  0  0  0
   15.1770   39.5090  -79.4950 C   0  0  0  0  0  0  0  0  0  0  0  0
   12.9680   38.9270  -78.3020 C   0  0  0  0  0  0  0  0  0  0  0  0
   12.9190   36.8660  -80.4650 C   0  0  1  0  0  0  0  0  0  0  0  0
   13.2730   38.3120  -80.7080 C   0  0  0  0  0  0  0  0  0  0  0  0
   15.3590   40.4480  -81.9090 C   0  0  0  0  0  0  0  0  0  0  0  0
   15.7010   39.2370  -85.4790 C   0  0  0  0  0  0  0  0  0  0  0  0
   16.1870   37.9290  -85.3660 C   0  0  0  0  0  0  0  0  0  0  0  0
   16.4340   37.3420  -84.1070 C   0  0  0  0  0  0  0  0  0  0  0  0
   16.4820   37.3370  -81.7400 C   0  0  0  0  0  0  0  0  0  0  0  0
   19.5390   41.1270  -78.5570 C   0  0  0  0  0  0  0  0  0  0  0  0
   20.5480   42.2760  -80.5280 C   0  0  0  0  0  0  0  0  0  0  0  0
   19.4080   41.5380  -79.8820 N   0  0  0  0  0  0  0  0  0  0  0  0
   18.2960   41.3180  -80.6640 C   0  0  0  0  0  0  0  0  0  0  0  0
   18.2060   41.6980  -81.8640 O   0  0  0  0  0  0  0  0  0  0  0  0
   15.9680   39.4680  -78.4160 N   0  0  0  0  0  0  0  0  0  0  0  0
   13.8260   38.9480  -79.5210 N   0  0  0  0  0  0  0  0  0  0  0  0
   12.4510   37.4810  -78.0210 C   0  0  0  0  0  0  0  0  0  0  0  0
   11.8970   36.7990  -79.2950 C   0  0  0  0  0  0  0  0  0  0  0  0
   12.4350   36.2350  -81.7050 N   0  3  0  0  0  0  0  0  0  0  0  0
   15.7970   40.1570  -80.5530 N   0  0  0  0  0  0  0  0  0  0  0  0
   15.6960   39.4350  -83.0060 C   0  0  0  0  0  0  0  0  0  0  0  0
   15.4650   39.9700  -84.3080 C   0  0  0  0  0  0  0  0  0  0  0  0
   16.1950   38.0690  -82.9350 C   0  0  0  0  0  0  0  0  0  0  0  0
   16.6160   36.7420  -80.7750 N   0  0  0  0  0  0  0  0  0  0  0  0
   18.4430   40.4370  -78.0030 N   0  0  0  0  0  0  0  0  0  0  0  0
   18.4940   39.9640  -76.6040 C   0  0  0  0  0  0  0  0  0  0  0  0
   20.5690   41.3330  -77.8680 O   0  0  0  0  0  0  0  0  0  0  0  0
   12.1078   39.5957  -78.4534 H   0  0  0  0  0  0  0  0  0  0  0  0
   13.5557   39.2750  -77.4398 H   0  0  0  0  0  0  0  0  0  0  0  0
   13.8279   36.3306  -80.1531 H   0  0  0  0  0  0  0  0  0  0  0  0
   12.3644   38.8536  -81.0097 H   0  0  0  0  0  0  0  0  0  0  0  0
   14.0165   38.3639  -81.5170 H   0  0  0  0  0  0  0  0  0  0  0  0
   15.8111   41.4077  -82.1999 H   0  0  0  0  0  0  0  0  0  0  0  0
   14.2641   40.5510  -81.8841 H   0  0  0  0  0  0  0  0  0  0  0  0
   15.5110   39.6741  -86.4526 H   0  0  0  0  0  0  0  0  0  0  0  0
   16.3777   37.3547  -86.2654 H   0  0  0  0  0  0  0  0  0  0  0  0
   16.8093   36.3268  -84.0473 H   0  0  0  0  0  0  0  0  0  0  0  0
   21.3695   42.3871  -79.8049 H   0  0  0  0  0  0  0  0  0  0  0  0
   20.2056   43.2707  -80.8495 H   0  0  0  0  0  0  0  0  0  0  0  0
   20.9028   41.7101  -81.4020 H   0  0  0  0  0  0  0  0  0  0  0  0
   11.6494   37.5314  -77.2694 H   0  0  0  0  0  0  0  0  0  0  0  0
   13.2831   36.8773  -77.6297 H   0  0  0  0  0  0  0  0  0  0  0  0
   11.6789   35.7445  -79.0703 H   0  0  0  0  0  0  0  0  0  0  0  0
   10.9707   37.3082  -79.5994 H   0  0  0  0  0  0  0  0  0  0  0  0
   13.1417   36.3129  -82.4196 H   0  0  0  0  0  0  0  0  0  0  0  0
   11.5943   36.6987  -82.0120 H   0  0  0  0  0  0  0  0  0  0  0  0
   12.2380   35.2617  -81.5320 H   0  0  0  0  0  0  0  0  0  0  0  0
   15.0920   40.9841  -84.3952 H   0  0  0  0  0  0  0  0  0  0  0  0
   17.5527   39.4520  -76.3555 H   0  0  0  0  0  0  0  0  0  0  0  0
   18.6327   40.8232  -75.9313 H   0  0  0  0  0  0  0  0  0  0  0  0
   19.3345   39.2647  -76.4838 H   0  0  0  0  0  0  0  0  0  0  0  0
  1  2  2  0  0  0  0
  1 15  1  0  0  0  0
  2 27  1  0  0  0  0
  3 17  2  0  0  0  0
  3 18  1  0  0  0  0
  4 19  1  0  0  0  0
  4 30  1  0  0  0  0
  4 31  1  0  0  0  0
  5 20  1  0  0  0  0
  5 21  1  0  0  0  0
  5 32  1  1  0  0  0
  6  5  1  0  0  0  0
  6 33  1  0  0  0  0
  6 34  1  0  0  0  0
  7 22  1  0  0  0  0
  7 35  1  0  0  0  0
  7 36  1  0  0  0  0
  8  9  2  0  0  0  0
  8 37  1  0  0  0  0
  9 10  1  0  0  0  0
  9 38  1  0  0  0  0
 10 25  2  0  0  0  0
 10 39  1  0  0  0  0
 11 26  3  0  0  0  0
 12 29  2  0  0  0  0
 13 40  1  0  0  0  0
 13 41  1  0  0  0  0
 13 42  1  0  0  0  0
 14 12  1  0  0  0  0
 14 13  1  0  0  0  0
 15 14  1  0  0  0  0
 15 16  2  0  0  0  0
 17  2  1  0  0  0  0
 18  4  1  0  0  0  0
 18  6  1  0  0  0  0
 19 20  1  0  0  0  0
 19 43  1  0  0  0  0
 19 44  1  0  0  0  0
 20 45  1  0  0  0  0
 20 46  1  0  0  0  0
 21 47  1  0  0  0  0
 21 48  1  0  0  0  0
 21 49  1  0  0  0  0
 22  1  1  0  0  0  0
 22  3  1  0  0  0  0
 23  7  1  0  0  0  0
 23 24  2  0  0  0  0
 23 25  1  0  0  0  0
 24  8  1  0  0  0  0
 24 50  1  0  0  0  0
 25 11  1  0  0  0  0
 27 12  1  0  0  0  0
 27 28  1  0  0  0  0
 28 51  1  0  0  0  0
 28 52  1  0  0  0  0
 28 53  1  0  0  0  0
M  CHG  1  21   1
M  END
