2gde_ligand
 OpenBabel08222323343D

 87 89  0  0  1  0  0  0  0  0999 V2000
   20.6550  -15.2220   18.4460 C   0  0  1  0  0  0  0  0  0  0  0  0
   21.1760  -14.0950   19.3760 C   0  0  0  0  0  0  0  0  0  0  0  0
   20.2190  -13.5570   20.4370 C   0  0  2  0  0  0  0  0  0  0  0  0
   19.1840  -14.5650   20.9690 C   0  0  2  0  0  0  0  0  0  0  0  0
   18.6110  -15.5450   19.9140 C   0  0  0  0  0  0  0  0  0  0  0  0
   19.7530  -16.2550   19.1810 C   0  0  2  0  0  0  0  0  0  0  0  0
   20.4820  -17.0490   20.1390 O   0  0  0  0  0  0  0  0  0  0  0  0
   18.1550  -13.6680   21.5580 N   0  0  0  0  0  0  0  0  0  0  0  0
   18.1900  -12.3790   20.8640 C   0  0  1  0  0  0  0  0  0  0  0  0
   19.3180  -12.4730   19.8170 C   0  0  0  0  0  0  0  0  0  0  0  0
   16.8780  -12.1300   20.1530 C   0  0  0  0  0  0  0  0  0  0  0  0
   16.3650  -10.8720   20.1540 N   0  0  0  0  0  0  0  0  0  0  0  0
   15.0980  -10.6020   19.4490 C   0  0  0  0  0  0  0  0  0  0  0  0
   14.2810   -9.6110   20.2700 C   0  0  0  0  0  0  0  0  0  0  0  0
   13.5580  -10.3830   21.3480 C   0  0  0  0  0  0  0  0  0  0  0  0
   12.9610   -9.7310   22.5500 C   0  0  0  0  0  0  0  0  0  0  0  0
   12.2090  -10.7550   23.2710 N   0  0  0  0  0  0  0  0  0  0  0  0
   12.6070  -12.0340   22.6700 C   0  0  0  0  0  0  0  0  0  0  0  0
   13.3880  -11.6830   21.4220 C   0  0  0  0  0  0  0  0  0  0  0  0
   11.3470  -10.5390   24.2380 C   0  0  0  0  0  3  0  0  0  0  0  0
   10.6640  -11.5920   24.8210 N   0  0  0  0  0  0  0  0  0  0  0  0
   11.0860   -9.2630   24.6530 N   0  0  0  0  0  0  0  0  0  0  0  0
   16.3050  -13.0560   19.5820 O   0  0  0  0  0  0  0  0  0  0  0  0
   17.3320  -13.9710   22.5800 C   0  0  0  0  0  0  0  0  0  0  0  0
   16.5600  -13.1120   22.9460 O   0  0  0  0  0  0  0  0  0  0  0  0
   17.3660  -15.3270   23.2710 C   0  0  1  0  0  0  0  0  0  0  0  0
   17.7450  -15.1150   24.7500 C   0  0  1  0  0  0  0  0  0  0  0  0
   17.7410  -16.4080   25.5710 C   0  0  0  0  0  0  0  0  0  0  0  0
   18.6580  -17.5010   24.9920 C   0  0  0  0  0  0  0  0  0  0  0  0
   18.1580  -16.0490   26.9950 C   0  0  0  0  0  0  0  0  0  0  0  0
   19.3340  -14.2690   24.8190 Cl  0  0  0  0  0  0  0  0  0  0  0  0
   16.0430  -15.9480   23.2410 N   0  0  0  0  0  0  0  0  0  0  0  0
   15.7690  -17.0330   22.4770 C   0  0  0  0  0  0  0  0  0  0  0  0
   14.3890  -17.6150   22.5220 C   0  0  2  0  0  0  0  0  0  0  0  0
   13.4510  -16.6030   22.9250 O   0  0  0  0  0  0  0  0  0  0  0  0
   12.9280  -15.8390   21.8240 C   0  0  0  0  0  0  0  0  0  0  0  0
   14.4110  -18.8270   23.4710 C   0  0  0  0  0  0  0  0  0  0  0  0
   14.4860  -18.4670   24.8620 O   0  0  0  0  0  0  0  0  0  0  0  0
   15.0530  -19.5630   25.7960 S   0  0  0  0  0  0  0  0  0  0  0  0
   15.2210  -19.0100   27.0920 O   0  0  0  0  0  1  0  0  0  0  0  0
   13.9750  -20.6200   26.0320 O   0  0  0  0  0  1  0  0  0  0  0  0
   16.1130  -20.1720   25.0540 O   0  0  0  0  0  1  0  0  0  0  0  0
   16.6010  -17.5480   21.7500 O   0  0  0  0  0  0  0  0  0  0  0  0
   19.9940  -14.6320   17.3100 O   0  0  0  0  0  0  0  0  0  0  0  0
   21.5311  -15.7725   18.0726 H   0  0  0  0  0  0  0  0  0  0  0  0
   21.4681  -13.2490   18.7366 H   0  0  0  0  0  0  0  0  0  0  0  0
   22.0628  -14.4829   19.8987 H   0  0  0  0  0  0  0  0  0  0  0  0
   20.8126  -13.1528   21.2702 H   0  0  0  0  0  0  0  0  0  0  0  0
   19.6433  -15.1740   21.7615 H   0  0  0  0  0  0  0  0  0  0  0  0
   18.0053  -14.9839   19.1872 H   0  0  0  0  0  0  0  0  0  0  0  0
   17.9806  -16.2932   20.4168 H   0  0  0  0  0  0  0  0  0  0  0  0
   19.3247  -16.9298   18.4252 H   0  0  0  0  0  0  0  0  0  0  0  0
   21.1954  -17.4970   19.6998 H   0  0  0  0  0  0  0  0  0  0  0  0
   18.3896  -11.5655   21.5770 H   0  0  0  0  0  0  0  0  0  0  0  0
   18.9309  -12.7845   18.8356 H   0  0  0  0  0  0  0  0  0  0  0  0
   19.8518  -11.5168   19.7139 H   0  0  0  0  0  0  0  0  0  0  0  0
   16.8434  -10.1338   20.6297 H   0  0  0  0  0  0  0  0  0  0  0  0
   14.5334  -11.5387   19.3313 H   0  0  0  0  0  0  0  0  0  0  0  0
   15.3101  -10.1747   18.4578 H   0  0  0  0  0  0  0  0  0  0  0  0
   13.5519   -9.1016   19.6228 H   0  0  0  0  0  0  0  0  0  0  0  0
   14.9482   -8.8660   20.7280 H   0  0  0  0  0  0  0  0  0  0  0  0
   12.2883   -8.9171   22.2417 H   0  0  0  0  0  0  0  0  0  0  0  0
   13.7565   -9.3258   23.1926 H   0  0  0  0  0  0  0  0  0  0  0  0
   11.7180  -12.6274   22.4103 H   0  0  0  0  0  0  0  0  0  0  0  0
   13.2376  -12.6044   23.3677 H   0  0  0  0  0  0  0  0  0  0  0  0
   13.7552  -12.4031   20.6922 H   0  0  0  0  0  0  0  0  0  0  0  0
    9.9900  -11.4121   25.5788 H   0  0  0  0  0  0  0  0  0  0  0  0
   10.8297  -12.5556   24.4971 H   0  0  0  0  0  0  0  0  0  0  0  0
   11.5873   -8.4703   24.2273 H   0  0  0  0  0  0  0  0  0  0  0  0
   10.3880   -9.0942   25.3914 H   0  0  0  0  0  0  0  0  0  0  0  0
   18.1003  -15.9798   22.7763 H   0  0  0  0  0  0  0  0  0  0  0  0
   16.9896  -14.4509   25.1954 H   0  0  0  0  0  0  0  0  0  0  0  0
   16.7153  -16.8050   25.5890 H   0  0  0  0  0  0  0  0  0  0  0  0
   18.6069  -18.3972   25.6278 H   0  0  0  0  0  0  0  0  0  0  0  0
   19.6938  -17.1321   24.9609 H   0  0  0  0  0  0  0  0  0  0  0  0
   18.3284  -17.7547   23.9737 H   0  0  0  0  0  0  0  0  0  0  0  0
   17.4899  -15.2679   27.3868 H   0  0  0  0  0  0  0  0  0  0  0  0
   19.1934  -15.6778   26.9913 H   0  0  0  0  0  0  0  0  0  0  0  0
   18.0911  -16.9426   27.6330 H   0  0  0  0  0  0  0  0  0  0  0  0
   15.3144  -15.5583   23.8043 H   0  0  0  0  0  0  0  0  0  0  0  0
   14.1096  -17.9630   21.5166 H   0  0  0  0  0  0  0  0  0  0  0  0
   12.2204  -15.0869   22.2030 H   0  0  0  0  0  0  0  0  0  0  0  0
   12.4090  -16.5112   21.1249 H   0  0  0  0  0  0  0  0  0  0  0  0
   13.7546  -15.3346   21.3022 H   0  0  0  0  0  0  0  0  0  0  0  0
   15.2860  -19.4463   23.2243 H   0  0  0  0  0  0  0  0  0  0  0  0
   13.4922  -19.4104   23.3117 H   0  0  0  0  0  0  0  0  0  0  0  0
   20.5785  -14.0101   16.8927 H   0  0  0  0  0  0  0  0  0  0  0  0
  1  2  1  0  0  0  0
  1  6  1  0  0  0  0
  1 44  1  0  0  0  0
  1 45  1  6  0  0  0
  2  3  1  0  0  0  0
  2 46  1  0  0  0  0
  2 47  1  0  0  0  0
  3  4  1  0  0  0  0
  3 10  1  0  0  0  0
  3 48  1  1  0  0  0
  4  5  1  0  0  0  0
  4  8  1  0  0  0  0
  4 49  1  1  0  0  0
  5  6  1  0  0  0  0
  5 50  1  0  0  0  0
  5 51  1  0  0  0  0
  6  7  1  0  0  0  0
  6 52  1  6  0  0  0
  7 53  1  0  0  0  0
  8  9  1  0  0  0  0
  8 24  1  0  0  0  0
  9 10  1  0  0  0  0
  9 11  1  0  0  0  0
  9 54  1  1  0  0  0
 10 55  1  0  0  0  0
 10 56  1  0  0  0  0
 11 12  1  0  0  0  0
 11 23  2  0  0  0  0
 12 13  1  0  0  0  0
 12 57  1  0  0  0  0
 13 14  1  0  0  0  0
 13 58  1  0  0  0  0
 13 59  1  0  0  0  0
 14 15  1  0  0  0  0
 14 60  1  0  0  0  0
 14 61  1  0  0  0  0
 15 16  1  0  0  0  0
 15 19  2  0  0  0  0
 16 17  1  0  0  0  0
 16 62  1  0  0  0  0
 16 63  1  0  0  0  0
 17 18  1  0  0  0  0
 17 20  1  0  0  0  0
 18 19  1  0  0  0  0
 18 64  1  0  0  0  0
 18 65  1  0  0  0  0
 19 66  1  0  0  0  0
 20 21  1  0  0  0  0
 20 22  1  0  0  0  0
 21 67  1  0  0  0  0
 21 68  1  0  0  0  0
 22 69  1  0  0  0  0
 22 70  1  0  0  0  0
 24 25  2  0  0  0  0
 24 26  1  0  0  0  0
 26 27  1  0  0  0  0
 26 32  1  0  0  0  0
 26 71  1  6  0  0  0
 27 28  1  0  0  0  0
 27 31  1  0  0  0  0
 27 72  1  1  0  0  0
 28 29  1  0  0  0  0
 28 30  1  0  0  0  0
 28 73  1  0  0  0  0
 29 74  1  0  0  0  0
 29 75  1  0  0  0  0
 29 76  1  0  0  0  0
 30 77  1  0  0  0  0
 30 78  1  0  0  0  0
 30 79  1  0  0  0  0
 32 33  1  0  0  0  0
 32 80  1  0  0  0  0
 33 34  1  0  0  0  0
 33 43  2  0  0  0  0
 34 35  1  0  0  0  0
 34 37  1  0  0  0  0
 34 81  1  6  0  0  0
 35 36  1  0  0  0  0
 36 82  1  0  0  0  0
 36 83  1  0  0  0  0
 36 84  1  0  0  0  0
 37 38  1  0  0  0  0
 37 85  1  0  0  0  0
 37 86  1  0  0  0  0
 38 39  1  0  0  0  0
 39 40  1  0  0  0  0
 39 41  1  0  0  0  0
 39 42  1  0  0  0  0
 44 87  1  0  0  0  0
M  END
