2gdo_ligand
 OpenBabel08222323343D

 53 58  0  0  1  0  0  0  0  0999 V2000
    4.9190   -1.4740   46.0170 C   0  0  0  0  0  0  0  0  0  0  0  0
    5.7240   -2.3230   45.2280 C   0  0  0  0  0  0  0  0  0  0  0  0
    7.0500   -2.0020   44.9310 C   0  0  0  0  0  0  0  0  0  0  0  0
    7.9820   -3.0800   43.9710 Cl  0  0  0  0  0  0  0  0  0  0  0  0
    7.6190   -0.8190   45.4080 C   0  0  0  0  0  0  0  0  0  0  0  0
    6.8460    0.0470   46.2000 C   0  0  0  0  0  0  0  0  0  0  0  0
    5.5110   -0.2840   46.4980 C   0  0  0  0  0  0  0  0  0  0  0  0
    4.7610    0.5870   47.3010 N   0  0  0  0  0  0  0  0  0  0  0  0
    3.4510    0.3510   47.6640 C   0  0  0  0  0  0  0  0  0  0  0  0
    2.8410    1.1550   48.3750 O   0  0  0  0  0  0  0  0  0  0  0  0
    2.8010   -0.9050   47.1480 C   0  0  0  0  0  0  0  0  0  0  0  0
    1.4280   -1.2210   47.4900 C   0  0  0  0  0  0  0  0  0  0  0  0
    3.5020   -1.7810   46.3620 C   0  0  0  0  0  0  0  0  0  0  0  0
    2.8960   -2.9400   45.8680 N   0  0  0  0  0  0  0  0  0  0  0  0
    2.8120   -3.5020   44.5280 C   0  0  2  0  0  0  0  0  0  0  0  0
    0.6910   -2.2720   47.1330 N   0  0  0  0  0  0  0  0  0  0  0  0
   -0.5410   -2.0940   47.7090 C   0  0  0  0  0  0  0  0  0  0  0  0
   -0.5810   -0.9050   48.4350 C   0  0  0  0  0  0  0  0  0  0  0  0
    0.6740   -0.3690   48.2810 N   0  0  0  0  0  0  0  0  0  0  0  0
   -1.6910   -2.9130   47.6500 C   0  0  0  0  0  0  0  0  0  0  0  0
   -2.8470   -2.5020   48.3340 C   0  0  0  0  0  0  0  0  0  0  0  0
   -2.8590   -1.3000   49.0600 C   0  0  0  0  0  0  0  0  0  0  0  0
   -1.7210   -0.4710   49.1290 C   0  0  0  0  0  0  0  0  0  0  0  0
    1.4170   -3.1860   43.9150 C   0  0  0  0  0  0  0  0  0  0  0  0
    0.7180   -4.4950   43.5420 N   0  3  1  0  0  0  0  0  0  0  0  0
    1.5400   -5.2440   42.5060 C   0  0  0  0  0  0  0  0  0  0  0  0
    2.9130   -5.5700   43.1130 C   0  0  0  0  0  0  0  0  0  0  0  0
    0.5150   -5.3690   44.7760 C   0  0  0  0  0  0  0  0  0  0  0  0
    1.8830   -5.6980   45.3820 C   0  0  0  0  0  0  0  0  0  0  0  0
    3.0100   -5.0400   44.5640 C   0  0  2  0  0  0  0  0  0  0  0  0
    5.3034   -3.2453   44.8438 H   0  0  0  0  0  0  0  0  0  0  0  0
    8.6470   -0.5713   45.1696 H   0  0  0  0  0  0  0  0  0  0  0  0
    7.2764    0.9665   46.5800 H   0  0  0  0  0  0  0  0  0  0  0  0
    5.1991    1.4243   47.6282 H   0  0  0  0  0  0  0  0  0  0  0  0
    2.4193   -3.5019   46.5877 H   0  0  0  0  0  0  0  0  0  0  0  0
    3.5960   -3.0522   43.9012 H   0  0  0  0  0  0  0  0  0  0  0  0
    0.9876   -3.0615   46.5418 H   0  0  0  0  0  0  0  0  0  0  0  0
   -1.6813   -3.8400   47.0881 H   0  0  0  0  0  0  0  0  0  0  0  0
   -3.7381   -3.1184   48.3011 H   0  0  0  0  0  0  0  0  0  0  0  0
   -3.7633   -1.0031   49.5788 H   0  0  0  0  0  0  0  0  0  0  0  0
   -1.7262    0.4562   49.6905 H   0  0  0  0  0  0  0  0  0  0  0  0
    1.5434   -2.5678   43.0140 H   0  0  0  0  0  0  0  0  0  0  0  0
    0.8075   -2.6412   44.6510 H   0  0  0  0  0  0  0  0  0  0  0  0
   -0.1840   -4.2786   43.1476 H   0  0  0  0  0  0  0  0  0  0  0  0
    1.6696   -4.6169   41.6116 H   0  0  0  0  0  0  0  0  0  0  0  0
    1.0265   -6.1764   42.2288 H   0  0  0  0  0  0  0  0  0  0  0  0
    3.6982   -5.0990   42.5034 H   0  0  0  0  0  0  0  0  0  0  0  0
    3.0563   -6.6606   43.1167 H   0  0  0  0  0  0  0  0  0  0  0  0
    0.0048   -6.3003   44.4890 H   0  0  0  0  0  0  0  0  0  0  0  0
   -0.0957   -4.8290   45.5145 H   0  0  0  0  0  0  0  0  0  0  0  0
    2.0257   -6.7887   45.3820 H   0  0  0  0  0  0  0  0  0  0  0  0
    1.9203   -5.3233   46.4155 H   0  0  0  0  0  0  0  0  0  0  0  0
    3.9892   -5.2857   45.0009 H   0  0  0  0  0  0  0  0  0  0  0  0
  1  2  2  0  0  0  0
  1  7  1  0  0  0  0
  1 13  1  0  0  0  0
  2  3  1  0  0  0  0
  2 31  1  0  0  0  0
  3  4  1  0  0  0  0
  3  5  2  0  0  0  0
  5  6  1  0  0  0  0
  5 32  1  0  0  0  0
  6  7  2  0  0  0  0
  6 33  1  0  0  0  0
  7  8  1  0  0  0  0
  8  9  1  0  0  0  0
  8 34  1  0  0  0  0
  9 10  2  0  0  0  0
  9 11  1  0  0  0  0
 11 12  1  0  0  0  0
 11 13  2  0  0  0  0
 12 16  1  0  0  0  0
 12 19  2  0  0  0  0
 13 14  1  0  0  0  0
 14 15  1  0  0  0  0
 14 35  1  0  0  0  0
 15 24  1  0  0  0  0
 15 30  1  0  0  0  0
 15 36  1  6  0  0  0
 16 17  1  0  0  0  0
 16 37  1  0  0  0  0
 17 18  2  0  0  0  0
 17 20  1  0  0  0  0
 18 19  1  0  0  0  0
 18 23  1  0  0  0  0
 20 21  2  0  0  0  0
 20 38  1  0  0  0  0
 21 22  1  0  0  0  0
 21 39  1  0  0  0  0
 22 23  2  0  0  0  0
 22 40  1  0  0  0  0
 23 41  1  0  0  0  0
 24 25  1  0  0  0  0
 24 42  1  0  0  0  0
 24 43  1  0  0  0  0
 25 26  1  0  0  0  0
 25 28  1  0  0  0  0
 25 44  1  6  0  0  0
 26 27  1  0  0  0  0
 26 45  1  0  0  0  0
 26 46  1  0  0  0  0
 27 30  1  0  0  0  0
 27 47  1  0  0  0  0
 27 48  1  0  0  0  0
 28 29  1  0  0  0  0
 28 49  1  0  0  0  0
 28 50  1  0  0  0  0
 29 30  1  0  0  0  0
 29 51  1  0  0  0  0
 29 52  1  0  0  0  0
 30 53  1  1  0  0  0
M  CHG  1  25   1
M  END
