2gfa_ligand
 OpenBabel08222323343D

124123  0  0  1  0  0  0  0  0999 V2000
   27.9830   22.6390  -19.1800 N   0  3  0  0  0  0  0  0  0  0  0  0
   27.9030   22.0700  -20.5660 C   0  0  2  0  0  0  0  0  0  0  0  0
   27.9580   20.5470  -20.5290 C   0  0  0  0  0  0  0  0  0  0  0  0
   27.4880   19.8790  -21.4490 O   0  0  0  0  0  0  0  0  0  0  0  0
   29.0420   22.6120  -21.4220 C   0  0  0  0  0  0  0  0  0  0  0  0
   28.5490   20.0060  -19.4680 N   0  0  0  0  0  0  0  0  0  0  0  0
   28.6540   18.5590  -19.2920 C   0  0  2  0  0  0  0  0  0  0  0  0
   28.8910   17.7680  -20.5820 C   0  0  0  0  0  0  0  0  0  0  0  0
   28.0050   17.0550  -21.0620 O   0  0  0  0  0  0  0  0  0  0  0  0
   27.3970   18.0310  -18.5970 C   0  0  0  0  0  0  0  0  0  0  0  0
   27.2540   18.4790  -17.1560 C   0  0  0  0  0  0  0  0  0  0  0  0
   25.8040   18.7490  -16.8020 C   0  0  0  0  0  0  0  0  0  0  0  0
   25.6210   18.9320  -15.3690 N   0  0  0  0  0  0  0  0  0  0  0  0
   24.5560   19.5050  -14.8180 C   0  0  0  0  0  3  0  0  0  0  0  0
   23.5700   19.9600  -15.5810 N   0  0  0  0  0  0  0  0  0  0  0  0
   24.4720   19.6180  -13.4980 N   0  0  0  0  0  0  0  0  0  0  0  0
   30.0890   17.9050  -21.1370 N   0  0  0  0  0  0  0  0  0  0  0  0
   30.4690   17.1830  -22.3450 C   0  0  2  0  0  0  0  0  0  0  0  0
   31.7800   16.4630  -22.0470 C   0  0  0  0  0  0  0  0  0  0  0  0
   32.6280   16.9660  -21.2980 O   0  0  0  0  0  0  0  0  0  0  0  0
   30.6480   18.1260  -23.5610 C   0  0  2  0  0  0  0  0  0  0  0  0
   31.6010   19.1450  -23.2500 O   0  0  0  0  0  0  0  0  0  0  0  0
   29.3110   18.7740  -23.9400 C   0  0  0  0  0  0  0  0  0  0  0  0
   31.9400   15.2910  -22.6470 N   0  0  0  0  0  0  0  0  0  0  0  0
   33.1140   14.4590  -22.4270 C   0  0  1  0  0  0  0  0  0  0  0  0
   32.6450   13.1630  -21.7560 C   0  0  0  0  0  0  0  0  0  0  0  0
   33.6890   12.1130  -21.5290 C   0  0  0  0  0  0  0  0  0  0  0  0
   33.0370   10.7320  -21.3520 C   0  0  0  0  0  0  0  0  0  0  0  0
   32.0920   10.6960  -20.1620 C   0  0  0  0  0  0  0  0  0  0  0  0
   31.8280    9.3200  -19.5400 N   0  3  0  0  0  0  0  0  0  0  0  0
   33.8040   14.1530  -23.7550 C   0  0  0  0  0  0  0  0  0  0  0  0
   33.1850   14.2640  -24.8110 O   0  0  0  0  0  0  0  0  0  0  0  0
   31.2280    8.4410  -20.6040 C   0  0  0  0  0  0  0  0  0  0  0  0
   33.0320    8.6050  -19.0350 C   0  0  0  0  0  0  0  0  0  0  0  0
   30.8760    9.5650  -18.4230 C   0  0  0  0  0  0  0  0  0  0  0  0
   35.0790   13.7750  -23.7030 N   0  0  0  0  0  0  0  0  0  0  0  0
   35.8250   13.4340  -24.9150 C   0  0  2  0  0  0  0  0  0  0  0  0
   37.2290   12.9200  -24.6160 C   0  0  0  0  0  0  0  0  0  0  0  0
   37.7760   13.1400  -23.5290 O   0  0  0  0  0  0  0  0  0  0  0  0
   35.9310   14.6360  -25.8680 C   0  0  0  0  0  0  0  0  0  0  0  0
   36.8570   15.7560  -25.3920 C   0  0  0  0  0  0  0  0  0  0  0  0
   36.1800   16.6990  -24.4120 C   0  0  0  0  0  0  0  0  0  0  0  0
   35.1060   17.2290  -24.6940 O   0  0  0  0  0  0  0  0  0  0  0  0
   36.8080   16.9190  -23.2590 N   0  0  0  0  0  0  0  0  0  0  0  0
   37.8050   12.2400  -25.6020 N   0  0  0  0  0  0  0  0  0  0  0  0
   39.1400   11.6740  -25.4860 C   0  0  2  0  0  0  0  0  0  0  0  0
   40.0530   12.4370  -26.4210 C   0  0  0  0  0  0  0  0  0  0  0  0
   40.0930   12.1610  -27.6160 O   0  0  0  0  0  0  0  0  0  0  0  0
   39.1820   10.1910  -25.9200 C   0  0  2  0  0  0  0  0  0  0  0  0
   38.2310    9.4270  -25.1640 O   0  0  0  0  0  0  0  0  0  0  0  0
   40.5750    9.6190  -25.6980 C   0  0  0  0  0  0  0  0  0  0  0  0
   40.7800   13.4040  -25.8840 N   0  0  0  0  0  0  0  0  0  0  0  0
   41.6930   14.1760  -26.7100 C   0  0  2  0  0  0  0  0  0  0  0  0
   43.0960   13.9830  -26.1550 C   0  0  0  0  0  0  0  0  0  0  0  0
   43.8800   13.2170  -26.7710 O   0  0  0  0  0  0  0  0  0  0  0  0
   41.3020   15.6610  -26.6820 C   0  0  0  0  0  0  0  0  0  0  0  0
   43.4834   14.6083  -25.0469 O   0  0  0  0  0  0  0  0  0  0  0  0
   27.9450   23.6452  -19.2272 H   0  0  0  0  0  0  0  0  0  0  0  0
   28.8493   22.3553  -18.7498 H   0  0  0  0  0  0  0  0  0  0  0  0
   27.2084   22.2989  -18.6319 H   0  0  0  0  0  0  0  0  0  0  0  0
   26.9468   22.3757  -21.0157 H   0  0  0  0  0  0  0  0  0  0  0  0
   28.9731   22.1884  -22.4348 H   0  0  0  0  0  0  0  0  0  0  0  0
   30.0052   22.3305  -20.9716 H   0  0  0  0  0  0  0  0  0  0  0  0
   28.9695   23.7082  -21.4774 H   0  0  0  0  0  0  0  0  0  0  0  0
   28.9338   20.6081  -18.7684 H   0  0  0  0  0  0  0  0  0  0  0  0
   29.5155   18.3739  -18.6335 H   0  0  0  0  0  0  0  0  0  0  0  0
   27.4275   16.9316  -18.6158 H   0  0  0  0  0  0  0  0  0  0  0  0
   26.5183   18.3831  -19.1573 H   0  0  0  0  0  0  0  0  0  0  0  0
   27.8361   19.4006  -17.0082 H   0  0  0  0  0  0  0  0  0  0  0  0
   27.6427   17.6899  -16.4955 H   0  0  0  0  0  0  0  0  0  0  0  0
   25.1923   17.8967  -17.1328 H   0  0  0  0  0  0  0  0  0  0  0  0
   25.4745   19.6606  -17.3220 H   0  0  0  0  0  0  0  0  0  0  0  0
   26.3654   18.5955  -14.7417 H   0  0  0  0  0  0  0  0  0  0  0  0
   22.7469   20.4033  -15.1487 H   0  0  0  0  0  0  0  0  0  0  0  0
   23.6279   19.8699  -16.6054 H   0  0  0  0  0  0  0  0  0  0  0  0
   25.2345   19.2665  -12.9015 H   0  0  0  0  0  0  0  0  0  0  0  0
   23.6443   20.0572  -13.0703 H   0  0  0  0  0  0  0  0  0  0  0  0
   30.7514   18.5227  -20.7132 H   0  0  0  0  0  0  0  0  0  0  0  0
   29.6890   16.4454  -22.5848 H   0  0  0  0  0  0  0  0  0  0  0  0
   31.0154   17.5389  -24.4156 H   0  0  0  0  0  0  0  0  0  0  0  0
   32.4286   18.7420  -23.0154 H   0  0  0  0  0  0  0  0  0  0  0  0
   29.4577   19.4390  -24.8039 H   0  0  0  0  0  0  0  0  0  0  0  0
   28.9319   19.3577  -23.0882 H   0  0  0  0  0  0  0  0  0  0  0  0
   28.5843   17.9902  -24.1999 H   0  0  0  0  0  0  0  0  0  0  0  0
   31.2295   14.9678  -23.2721 H   0  0  0  0  0  0  0  0  0  0  0  0
   33.8206   14.9828  -21.7664 H   0  0  0  0  0  0  0  0  0  0  0  0
   31.8608   12.7232  -22.3897 H   0  0  0  0  0  0  0  0  0  0  0  0
   32.2194   13.4284  -20.7770 H   0  0  0  0  0  0  0  0  0  0  0  0
   34.2610   12.3616  -20.6229 H   0  0  0  0  0  0  0  0  0  0  0  0
   34.3673   12.0844  -22.3945 H   0  0  0  0  0  0  0  0  0  0  0  0
   33.8279    9.9828  -21.1999 H   0  0  0  0  0  0  0  0  0  0  0  0
   32.4705   10.4875  -22.2626 H   0  0  0  0  0  0  0  0  0  0  0  0
   31.1253   11.1054  -20.4903 H   0  0  0  0  0  0  0  0  0  0  0  0
   32.5163   11.3411  -19.3785 H   0  0  0  0  0  0  0  0  0  0  0  0
   31.0272    7.4438  -20.1855 H   0  0  0  0  0  0  0  0  0  0  0  0
   31.9314    8.3508  -21.4448 H   0  0  0  0  0  0  0  0  0  0  0  0
   30.2868    8.8858  -20.9594 H   0  0  0  0  0  0  0  0  0  0  0  0
   33.5131    9.2065  -18.2497 H   0  0  0  0  0  0  0  0  0  0  0  0
   33.7397    8.4488  -19.8625 H   0  0  0  0  0  0  0  0  0  0  0  0
   32.7329    7.6314  -18.6195 H   0  0  0  0  0  0  0  0  0  0  0  0
   29.9902   10.0933  -18.8054 H   0  0  0  0  0  0  0  0  0  0  0  0
   31.3650   10.1792  -17.6525 H   0  0  0  0  0  0  0  0  0  0  0  0
   30.5689    8.6037  -17.9854 H   0  0  0  0  0  0  0  0  0  0  0  0
   35.5376   13.7228  -22.8159 H   0  0  0  0  0  0  0  0  0  0  0  0
   35.2722   12.6341  -25.4293 H   0  0  0  0  0  0  0  0  0  0  0  0
   34.9237   15.0581  -25.9988 H   0  0  0  0  0  0  0  0  0  0  0  0
   36.3048   14.2722  -26.8365 H   0  0  0  0  0  0  0  0  0  0  0  0
   37.1874   16.3353  -26.2668 H   0  0  0  0  0  0  0  0  0  0  0  0
   37.7310   15.3048  -24.8996 H   0  0  0  0  0  0  0  0  0  0  0  0
   36.4050   17.5316  -22.5791 H   0  0  0  0  0  0  0  0  0  0  0  0
   37.6828   16.4716  -23.0728 H   0  0  0  0  0  0  0  0  0  0  0  0
   37.3013   12.1126  -26.4564 H   0  0  0  0  0  0  0  0  0  0  0  0
   39.4888   11.7658  -24.4468 H   0  0  0  0  0  0  0  0  0  0  0  0
   38.9305   10.1240  -26.9888 H   0  0  0  0  0  0  0  0  0  0  0  0
   37.3606    9.7822  -25.3010 H   0  0  0  0  0  0  0  0  0  0  0  0
   40.5923    8.5644  -26.0102 H   0  0  0  0  0  0  0  0  0  0  0  0
   40.8349    9.6900  -24.6315 H   0  0  0  0  0  0  0  0  0  0  0  0
   41.3045   10.1892  -26.2919 H   0  0  0  0  0  0  0  0  0  0  0  0
   40.7008   13.6038  -24.9074 H   0  0  0  0  0  0  0  0  0  0  0  0
   41.6530   13.8118  -27.7472 H   0  0  0  0  0  0  0  0  0  0  0  0
   41.9989   16.2355  -27.3099 H   0  0  0  0  0  0  0  0  0  0  0  0
   41.3484   16.0330  -25.6479 H   0  0  0  0  0  0  0  0  0  0  0  0
   40.2788   15.7781  -27.0683 H   0  0  0  0  0  0  0  0  0  0  0  0
   43.7281   13.9659  -24.3912 H   0  0  0  0  0  0  0  0  0  0  0  0
  1 58  1  0  0  0  0
  1 59  1  0  0  0  0
  1 60  1  0  0  0  0
  2  1  1  0  0  0  0
  2  5  1  0  0  0  0
  2 61  1  6  0  0  0
  3  2  1  0  0  0  0
  3  4  2  0  0  0  0
  5 62  1  0  0  0  0
  5 63  1  0  0  0  0
  5 64  1  0  0  0  0
  6  3  1  0  0  0  0
  6 65  1  0  0  0  0
  7  6  1  0  0  0  0
  7 10  1  0  0  0  0
  7 66  1  1  0  0  0
  8  7  1  0  0  0  0
  8  9  2  0  0  0  0
 10 11  1  0  0  0  0
 10 67  1  0  0  0  0
 10 68  1  0  0  0  0
 11 12  1  0  0  0  0
 11 69  1  0  0  0  0
 11 70  1  0  0  0  0
 12 13  1  0  0  0  0
 12 71  1  0  0  0  0
 12 72  1  0  0  0  0
 13 14  1  0  0  0  0
 13 73  1  0  0  0  0
 14 16  1  0  0  0  0
 14 15  1  0  0  0  0
 15 74  1  0  0  0  0
 15 75  1  0  0  0  0
 16 76  1  0  0  0  0
 16 77  1  0  0  0  0
 17  8  1  0  0  0  0
 17 78  1  0  0  0  0
 18 17  1  0  0  0  0
 18 21  1  0  0  0  0
 18 79  1  6  0  0  0
 19 18  1  0  0  0  0
 19 20  2  0  0  0  0
 21 23  1  0  0  0  0
 21 22  1  0  0  0  0
 21 80  1  6  0  0  0
 22 81  1  0  0  0  0
 23 82  1  0  0  0  0
 23 83  1  0  0  0  0
 23 84  1  0  0  0  0
 24 19  1  0  0  0  0
 24 85  1  0  0  0  0
 25 24  1  0  0  0  0
 25 26  1  0  0  0  0
 25 86  1  1  0  0  0
 26 27  1  0  0  0  0
 26 87  1  0  0  0  0
 26 88  1  0  0  0  0
 27 28  1  0  0  0  0
 27 89  1  0  0  0  0
 27 90  1  0  0  0  0
 28 29  1  0  0  0  0
 28 91  1  0  0  0  0
 28 92  1  0  0  0  0
 29 30  1  0  0  0  0
 29 93  1  0  0  0  0
 29 94  1  0  0  0  0
 30 33  1  0  0  0  0
 30 34  1  0  0  0  0
 30 35  1  0  0  0  0
 31 25  1  0  0  0  0
 31 32  2  0  0  0  0
 31 36  1  0  0  0  0
 33 95  1  0  0  0  0
 33 96  1  0  0  0  0
 33 97  1  0  0  0  0
 34 98  1  0  0  0  0
 34 99  1  0  0  0  0
 34100  1  0  0  0  0
 35101  1  0  0  0  0
 35102  1  0  0  0  0
 35103  1  0  0  0  0
 36 37  1  0  0  0  0
 36104  1  0  0  0  0
 37 40  1  0  0  0  0
 37 38  1  0  0  0  0
 37105  1  6  0  0  0
 38 39  2  0  0  0  0
 38 45  1  0  0  0  0
 40 41  1  0  0  0  0
 40106  1  0  0  0  0
 40107  1  0  0  0  0
 41 42  1  0  0  0  0
 41108  1  0  0  0  0
 41109  1  0  0  0  0
 42 44  1  0  0  0  0
 42 43  2  0  0  0  0
 44110  1  0  0  0  0
 44111  1  0  0  0  0
 45 46  1  0  0  0  0
 45112  1  0  0  0  0
 46 49  1  0  0  0  0
 46 47  1  0  0  0  0
 46113  1  1  0  0  0
 47 48  2  0  0  0  0
 47 52  1  0  0  0  0
 49 51  1  0  0  0  0
 49 50  1  0  0  0  0
 49114  1  6  0  0  0
 50115  1  0  0  0  0
 51116  1  0  0  0  0
 51117  1  0  0  0  0
 51118  1  0  0  0  0
 52 53  1  0  0  0  0
 52119  1  0  0  0  0
 53 56  1  0  0  0  0
 53 54  1  0  0  0  0
 53120  1  6  0  0  0
 54 55  2  0  0  0  0
 54 57  1  0  0  0  0
 56121  1  0  0  0  0
 56122  1  0  0  0  0
 56123  1  0  0  0  0
 57124  1  0  0  0  0
M  CHG  2   1   1  30   1
M  END
