2gfs_ligand
 OpenBabel08222323343D

 45 47  0  0  1  0  0  0  0  0999 V2000
   19.8940    9.3090   30.8900 N   0  0  0  0  0  0  0  0  0  0  0  0
   20.5990   10.4490   31.1270 C   0  0  0  0  0  0  0  0  0  0  0  0
   21.9790   10.4980   31.2180 C   0  0  0  0  0  0  0  0  0  0  0  0
   22.2960   11.8420   31.4630 C   0  0  0  0  0  0  0  0  0  0  0  0
   21.1400   12.5810   31.5100 N   0  0  0  0  0  0  0  0  0  0  0  0
   20.1010   11.6670   31.2890 N   0  0  0  0  0  0  0  0  0  0  0  0
   18.8050   12.0180   31.2720 C   0  0  0  0  0  0  0  0  0  0  0  0
   17.8810   11.5120   32.1930 C   0  0  0  0  0  0  0  0  0  0  0  0
   16.5340   11.8780   32.1970 C   0  0  0  0  0  0  0  0  0  0  0  0
   16.0590   12.7870   31.2580 C   0  0  0  0  0  0  0  0  0  0  0  0
   14.7570   13.1470   31.2450 F   0  0  0  0  0  0  0  0  0  0  0  0
   16.9490   13.3080   30.3290 C   0  0  0  0  0  0  0  0  0  0  0  0
   18.2920   12.9330   30.3450 C   0  0  0  0  0  0  0  0  0  0  0  0
   22.8390    9.2830   31.0760 C   0  0  0  0  0  0  0  0  0  0  0  0
   22.3420    8.1870   30.8720 O   0  0  0  0  0  0  0  0  0  0  0  0
   24.3390    9.3690   31.1760 C   0  0  0  0  0  0  0  0  0  0  0  0
   25.0490   10.3510   30.4840 C   0  0  0  0  0  0  0  0  0  0  0  0
   26.4390   10.4060   30.5830 C   0  0  0  0  0  0  0  0  0  0  0  0
   27.1160    9.4720   31.3630 C   0  0  0  0  0  0  0  0  0  0  0  0
   26.4120    8.4810   32.0430 C   0  0  0  0  0  0  0  0  0  0  0  0
   27.0850    7.5590   32.8100 O   0  0  0  0  0  0  0  0  0  0  0  0
   26.5580    7.1420   34.0750 C   0  0  0  0  0  0  0  0  0  0  0  0
   27.6440    6.4440   34.8830 C   0  0  1  0  0  0  0  0  0  0  0  0
   28.4770    7.4260   35.5090 O   0  0  0  0  0  0  0  0  0  0  0  0
   27.0000    5.5450   35.9310 C   0  0  0  0  0  0  0  0  0  0  0  0
   26.6540    4.2920   35.3260 O   0  0  0  0  0  0  0  0  0  0  0  0
   25.0220    8.4310   31.9450 C   0  0  0  0  0  0  0  0  0  0  0  0
   20.3876    8.4117   30.7799 H   0  0  0  0  0  0  0  0  0  0  0  0
   18.8669    9.3436   30.8208 H   0  0  0  0  0  0  0  0  0  0  0  0
   23.3020   12.2376   31.5953 H   0  0  0  0  0  0  0  0  0  0  0  0
   18.2270   10.8037   32.9371 H   0  0  0  0  0  0  0  0  0  0  0  0
   15.8588   11.4540   32.9314 H   0  0  0  0  0  0  0  0  0  0  0  0
   16.5969   14.0127   29.5844 H   0  0  0  0  0  0  0  0  0  0  0  0
   18.9636   13.3660   29.6125 H   0  0  0  0  0  0  0  0  0  0  0  0
   24.5203   11.0708   29.8697 H   0  0  0  0  0  0  0  0  0  0  0  0
   26.9912   11.1742   30.0539 H   0  0  0  0  0  0  0  0  0  0  0  0
   28.1963    9.5164   31.4414 H   0  0  0  0  0  0  0  0  0  0  0  0
   25.7217    6.4467   33.9106 H   0  0  0  0  0  0  0  0  0  0  0  0
   26.1997    8.0221   34.6291 H   0  0  0  0  0  0  0  0  0  0  0  0
   28.2582    5.8279   34.2098 H   0  0  0  0  0  0  0  0  0  0  0  0
   29.1543    6.9903   36.0129 H   0  0  0  0  0  0  0  0  0  0  0  0
   26.0926    6.0277   36.3229 H   0  0  0  0  0  0  0  0  0  0  0  0
   27.7087    5.3731   36.7545 H   0  0  0  0  0  0  0  0  0  0  0  0
   26.2519    3.7280   35.9762 H   0  0  0  0  0  0  0  0  0  0  0  0
   24.4712    7.6587   32.4697 H   0  0  0  0  0  0  0  0  0  0  0  0
  1  2  1  0  0  0  0
  1 28  1  0  0  0  0
  1 29  1  0  0  0  0
  2  3  2  0  0  0  0
  2  6  1  0  0  0  0
  3  4  1  0  0  0  0
  3 14  1  0  0  0  0
  4  5  2  0  0  0  0
  4 30  1  0  0  0  0
  5  6  1  0  0  0  0
  6  7  1  0  0  0  0
  7  8  2  0  0  0  0
  7 13  1  0  0  0  0
  8  9  1  0  0  0  0
  8 31  1  0  0  0  0
  9 10  2  0  0  0  0
  9 32  1  0  0  0  0
 10 11  1  0  0  0  0
 10 12  1  0  0  0  0
 12 13  2  0  0  0  0
 12 33  1  0  0  0  0
 13 34  1  0  0  0  0
 14 15  2  0  0  0  0
 14 16  1  0  0  0  0
 16 17  2  0  0  0  0
 16 27  1  0  0  0  0
 17 18  1  0  0  0  0
 17 35  1  0  0  0  0
 18 19  2  0  0  0  0
 18 36  1  0  0  0  0
 19 20  1  0  0  0  0
 19 37  1  0  0  0  0
 20 21  1  0  0  0  0
 20 27  2  0  0  0  0
 21 22  1  0  0  0  0
 22 23  1  0  0  0  0
 22 38  1  0  0  0  0
 22 39  1  0  0  0  0
 23 24  1  0  0  0  0
 23 25  1  0  0  0  0
 23 40  1  6  0  0  0
 24 41  1  0  0  0  0
 25 26  1  0  0  0  0
 25 42  1  0  0  0  0
 25 43  1  0  0  0  0
 26 44  1  0  0  0  0
 27 45  1  0  0  0  0
M  END
