2gg3_ligand
 OpenBabel08222323343D

 25 26  0  0  0  0  0  0  0  0999 V2000
   -8.4270   -1.7810    7.6520 F   0  0  0  0  0  0  0  0  0  0  0  0
   -7.1880   -1.4290    8.0680 C   0  0  0  0  0  0  0  0  0  0  0  0
   -6.0540   -2.0670    7.5690 C   0  0  0  0  0  0  0  0  0  0  0  0
   -4.7900   -1.6780    8.0160 C   0  0  0  0  0  0  0  0  0  0  0  0
   -4.6830   -0.6810    8.9910 C   0  0  0  0  0  0  0  0  0  0  0  0
   -5.8130   -0.0250    9.4630 C   0  0  0  0  0  0  0  0  0  0  0  0
   -7.0660   -0.4170    9.0120 C   0  0  0  0  0  0  0  0  0  0  0  0
   -3.4480   -0.2000    9.4460 N   0  0  0  0  0  0  0  0  0  0  0  0
   -2.4850   -0.4760    8.7240 N   0  0  0  0  0  0  0  0  0  0  0  0
   -1.2090   -0.0390    8.9890 C   0  0  0  0  0  0  0  0  0  0  0  0
   -0.6660    0.8020   10.0640 C   0  0  0  0  0  0  0  0  0  0  0  0
   -1.3420    1.3480   11.1300 N   0  0  0  0  0  0  0  0  0  0  0  0
    0.6700    0.9860    9.8930 N   0  0  0  0  0  0  0  0  0  0  0  0
    1.0850    0.3020    8.7360 N   0  0  0  0  0  0  0  0  0  0  0  0
   -0.0100   -0.2930    8.1920 C   0  0  0  0  0  0  0  0  0  0  0  0
    0.0010   -1.0490    7.0650 N   0  0  0  0  0  0  0  0  0  0  0  0
   -6.1529   -2.8610    6.8377 H   0  0  0  0  0  0  0  0  0  0  0  0
   -3.8993   -2.1446    7.6110 H   0  0  0  0  0  0  0  0  0  0  0  0
   -5.7172    0.7853   10.1767 H   0  0  0  0  0  0  0  0  0  0  0  0
   -7.9543    0.0693    9.3986 H   0  0  0  0  0  0  0  0  0  0  0  0
   -0.8378    1.9241   11.8191 H   0  0  0  0  0  0  0  0  0  0  0  0
   -2.3525    1.1808   11.2393 H   0  0  0  0  0  0  0  0  0  0  0  0
    2.0458    0.2595    8.3671 H   0  0  0  0  0  0  0  0  0  0  0  0
   -0.8737   -1.4665    6.7164 H   0  0  0  0  0  0  0  0  0  0  0  0
    0.8840   -1.2053    6.5583 H   0  0  0  0  0  0  0  0  0  0  0  0
  1  2  1  0  0  0  0
  2  3  2  0  0  0  0
  2  7  1  0  0  0  0
  3  4  1  0  0  0  0
  3 17  1  0  0  0  0
  4  5  2  0  0  0  0
  4 18  1  0  0  0  0
  5  6  1  0  0  0  0
  5  8  1  0  0  0  0
  6  7  2  0  0  0  0
  6 19  1  0  0  0  0
  7 20  1  0  0  0  0
  8  9  2  0  0  0  0
  9 10  1  0  0  0  0
 10 11  1  0  0  0  0
 10 15  2  0  0  0  0
 11 12  1  0  0  0  0
 11 13  2  0  0  0  0
 12 21  1  0  0  0  0
 12 22  1  0  0  0  0
 13 14  1  0  0  0  0
 14 15  1  0  0  0  0
 14 23  1  0  0  0  0
 15 16  1  0  0  0  0
 16 24  1  0  0  0  0
 16 25  1  0  0  0  0
M  END
