2gg5_ligand
 OpenBabel08222323343D

 28 29  0  0  0  0  0  0  0  0999 V2000
   16.3300    0.6290   14.1890 F   0  0  0  0  0  0  0  0  0  0  0  0
   16.8770    1.0150   15.3270 C   0  0  0  0  0  0  0  0  0  0  0  0
   18.0400    1.6160   15.0960 F   0  0  0  0  0  0  0  0  0  0  0  0
   16.0970    1.9650   15.8210 F   0  0  0  0  0  0  0  0  0  0  0  0
   17.0230   -0.0690   16.3960 C   0  0  0  0  0  0  0  0  0  0  0  0
   18.2730   -0.5620   16.7800 C   0  0  0  0  0  0  0  0  0  0  0  0
   18.3820   -1.5370   17.7690 C   0  0  0  0  0  0  0  0  0  0  0  0
   15.8850   -0.5830   17.0300 C   0  0  0  0  0  0  0  0  0  0  0  0
   15.9800   -1.5690   18.0280 C   0  0  0  0  0  0  0  0  0  0  0  0
   17.2420   -2.0430   18.3850 C   0  0  0  0  0  0  0  0  0  0  0  0
   14.6570   -0.1130   16.6610 N   0  0  0  0  0  0  0  0  0  0  0  0
   13.6660   -0.5680   17.2390 N   0  0  0  0  0  0  0  0  0  0  0  0
   12.3930   -0.1830   16.9580 C   0  0  0  0  0  0  0  0  0  0  0  0
   11.8940    0.7920   15.9920 C   0  0  0  0  0  0  0  0  0  0  0  0
   12.6790    1.5150   15.1470 N   0  0  0  0  0  0  0  0  0  0  0  0
   10.5550    0.8580   16.0620 N   0  0  0  0  0  0  0  0  0  0  0  0
   10.0810   -0.0350   17.0470 N   0  0  0  0  0  0  0  0  0  0  0  0
   11.1660   -0.6580   17.5920 C   0  0  0  0  0  0  0  0  0  0  0  0
   11.1760   -1.6070   18.5710 N   0  0  0  0  0  0  0  0  0  0  0  0
   19.1686   -0.1811   16.3025 H   0  0  0  0  0  0  0  0  0  0  0  0
   19.3599   -1.9032   18.0600 H   0  0  0  0  0  0  0  0  0  0  0  0
   15.0889   -1.9535   18.5109 H   0  0  0  0  0  0  0  0  0  0  0  0
   17.3351   -2.8093   19.1460 H   0  0  0  0  0  0  0  0  0  0  0  0
   12.2505    2.1851   14.4926 H   0  0  0  0  0  0  0  0  0  0  0  0
   13.7015    1.3920   15.1620 H   0  0  0  0  0  0  0  0  0  0  0  0
    9.0962   -0.1884   17.3069 H   0  0  0  0  0  0  0  0  0  0  0  0
   12.0700   -2.0012   18.8970 H   0  0  0  0  0  0  0  0  0  0  0  0
   10.2896   -1.9297   18.9845 H   0  0  0  0  0  0  0  0  0  0  0  0
  1  2  1  0  0  0  0
  2  3  1  0  0  0  0
  2  4  1  0  0  0  0
  2  5  1  0  0  0  0
  5  6  2  0  0  0  0
  5  8  1  0  0  0  0
  6  7  1  0  0  0  0
  6 20  1  0  0  0  0
  7 10  2  0  0  0  0
  7 21  1  0  0  0  0
  8  9  2  0  0  0  0
  8 11  1  0  0  0  0
  9 10  1  0  0  0  0
  9 22  1  0  0  0  0
 10 23  1  0  0  0  0
 11 12  2  0  0  0  0
 12 13  1  0  0  0  0
 13 14  1  0  0  0  0
 13 18  2  0  0  0  0
 14 15  1  0  0  0  0
 14 16  2  0  0  0  0
 15 24  1  0  0  0  0
 15 25  1  0  0  0  0
 16 17  1  0  0  0  0
 17 18  1  0  0  0  0
 17 26  1  0  0  0  0
 18 19  1  0  0  0  0
 19 27  1  0  0  0  0
 19 28  1  0  0  0  0
M  END
