2gg7_ligand
 OpenBabel08222323343D

 27 28  0  0  0  0  0  0  0  0999 V2000
   -6.2780   -3.0690    6.8550 O   0  5  0  0  0  0  0  0  0  0  0  0
   -7.0660   -2.4340    7.5870 C   0  0  0  0  0  0  0  0  0  0  0  0
   -8.3110   -2.5900    7.5440 O   0  0  0  0  0  0  0  0  0  0  0  0
   -6.4940   -1.4300    8.5350 C   0  0  0  0  0  0  0  0  0  0  0  0
   -7.3770   -0.6730    9.2980 C   0  0  0  0  0  0  0  0  0  0  0  0
   -6.9030    0.2760   10.1910 C   0  0  0  0  0  0  0  0  0  0  0  0
   -5.5350    0.4550   10.3110 C   0  0  0  0  0  0  0  0  0  0  0  0
   -5.1070   -1.2490    8.6430 C   0  0  0  0  0  0  0  0  0  0  0  0
   -4.6440   -0.3060    9.5580 C   0  0  0  0  0  0  0  0  0  0  0  0
   -3.2980    0.0090    9.7360 N   0  0  0  0  0  0  0  0  0  0  0  0
   -2.3990   -0.5220    8.9790 N   0  0  0  0  0  0  0  0  0  0  0  0
   -1.1270   -0.0610    9.1740 C   0  0  0  0  0  0  0  0  0  0  0  0
   -0.0670   -0.2660    8.3120 C   0  0  0  0  0  0  0  0  0  0  0  0
   -0.0660   -1.0480    7.2000 N   0  0  0  0  0  0  0  0  0  0  0  0
    1.0240    0.3870    8.7540 N   0  0  0  0  0  0  0  0  0  0  0  0
   -0.6550    0.8130   10.1400 C   0  0  0  0  0  0  0  0  0  0  0  0
    0.6210    1.0770    9.9000 N   0  0  0  0  0  0  0  0  0  0  0  0
   -1.2960    1.3410   11.2180 N   0  0  0  0  0  0  0  0  0  0  0  0
   -8.4450   -0.8263    9.1936 H   0  0  0  0  0  0  0  0  0  0  0  0
   -7.5909    0.8672   10.7846 H   0  0  0  0  0  0  0  0  0  0  0  0
   -5.1521    1.1982   11.0010 H   0  0  0  0  0  0  0  0  0  0  0  0
   -4.4183   -1.8239    8.0346 H   0  0  0  0  0  0  0  0  0  0  0  0
    0.7864   -1.1280    6.6274 H   0  0  0  0  0  0  0  0  0  0  0  0
   -0.9177   -1.5605    6.9301 H   0  0  0  0  0  0  0  0  0  0  0  0
    1.9641    0.3795    8.3332 H   0  0  0  0  0  0  0  0  0  0  0  0
   -0.7977    1.9847   11.8491 H   0  0  0  0  0  0  0  0  0  0  0  0
   -2.2794    1.0969   11.4029 H   0  0  0  0  0  0  0  0  0  0  0  0
  1  2  1  0  0  0  0
  2  3  2  0  0  0  0
  2  4  1  0  0  0  0
  4  5  2  0  0  0  0
  4  8  1  0  0  0  0
  5  6  1  0  0  0  0
  5 19  1  0  0  0  0
  6  7  2  0  0  0  0
  6 20  1  0  0  0  0
  7  9  1  0  0  0  0
  7 21  1  0  0  0  0
  8  9  2  0  0  0  0
  8 22  1  0  0  0  0
  9 10  1  0  0  0  0
 10 11  2  0  0  0  0
 11 12  1  0  0  0  0
 12 13  2  0  0  0  0
 12 16  1  0  0  0  0
 13 14  1  0  0  0  0
 13 15  1  0  0  0  0
 14 23  1  0  0  0  0
 14 24  1  0  0  0  0
 15 17  1  0  0  0  0
 15 25  1  0  0  0  0
 16 17  2  0  0  0  0
 16 18  1  0  0  0  0
 18 26  1  0  0  0  0
 18 27  1  0  0  0  0
M  CHG  1   1  -1
M  END
