2ggd_ligand
 OpenBabel08222323343D

 16 15  0  0  0  0  0  0  0  0999 V2000
 -130.2710   27.3180  126.5450 P   0  0  0  0  0  0  0  0  0  0  0  0
 -129.7830   27.9450  127.7940 O   0  0  0  0  0  1  0  0  0  0  0  0
 -129.2150   26.9300  125.6130 O   0  0  0  0  0  1  0  0  0  0  0  0
 -131.2390   26.1710  126.8280 O   0  0  0  0  0  0  0  0  0  0  0  0
 -133.5020   31.0980  127.9580 O   0  5  0  0  0  0  0  0  0  0  0  0
 -134.5540   31.9150  126.2030 O   0  0  0  0  0  0  0  0  0  0  0  0
 -131.2080   28.4840  125.6420 C   0  0  0  0  0  0  0  0  0  0  0  0
 -132.9200   30.3070  125.7970 C   0  0  0  0  0  0  0  0  0  0  0  0
 -133.7100   31.1740  126.7310 C   0  0  0  0  0  0  0  0  0  0  0  0
 -132.0020   29.3620  126.4970 N   0  3  0  0  0  0  0  0  0  0  0  0
 -131.8880   27.9416  124.9687 H   0  0  0  0  0  0  0  0  0  0  0  0
 -130.5195   29.1024  125.0475 H   0  0  0  0  0  0  0  0  0  0  0  0
 -132.3192   30.9563  125.1432 H   0  0  0  0  0  0  0  0  0  0  0  0
 -133.6232   29.7216  125.1864 H   0  0  0  0  0  0  0  0  0  0  0  0
 -131.3639   29.9086  127.0539 H   0  0  0  0  0  0  0  0  0  0  0  0
 -132.5614   28.7801  127.1008 H   0  0  0  0  0  0  0  0  0  0  0  0
  1  2  1  0  0  0  0
  1  3  1  0  0  0  0
  1  4  2  0  0  0  0
  7  1  1  0  0  0  0
  7 11  1  0  0  0  0
  7 12  1  0  0  0  0
  8  9  1  0  0  0  0
  8 10  1  0  0  0  0
  8 13  1  0  0  0  0
  8 14  1  0  0  0  0
  9  5  1  0  0  0  0
  9  6  2  0  0  0  0
 10  7  1  0  0  0  0
 10 15  1  0  0  0  0
 10 16  1  0  0  0  0
M  CHG  2   5  -1  10   1
M  END
