2ggu_ligand
 OpenBabel08222323343D

 66 68  0  0  1  0  0  0  0  0999 V2000
   23.4760   -7.2680    4.5870 C   0  0  2  0  0  0  0  0  0  0  0  0
   23.1650   -8.6380    3.9260 C   0  0  1  0  0  0  0  0  0  0  0  0
   23.7880   -9.7760    4.7400 C   0  0  2  0  0  0  0  0  0  0  0  0
   25.3390   -9.5310    4.7250 C   0  0  1  0  0  0  0  0  0  0  0  0
   25.6400   -8.1210    5.4410 C   0  0  1  0  0  0  0  0  0  0  0  0
   27.1320   -7.7310    5.4880 C   0  0  0  0  0  0  0  0  0  0  0  0
   22.8650   -6.0030    3.7810 O   0  0  0  0  0  0  0  0  0  0  0  0
   21.7310   -8.7390    3.8510 O   0  0  0  0  0  0  0  0  0  0  0  0
   23.4690  -11.0270    4.0920 O   0  0  0  0  0  0  0  0  0  0  0  0
   25.9640  -10.5560    5.4690 O   0  0  0  0  0  0  0  0  0  0  0  0
   24.9400   -7.0770    4.7150 O   0  0  0  0  0  0  0  0  0  0  0  0
   27.8630   -7.5290    4.1990 O   0  0  0  0  0  0  0  0  0  0  0  0
   27.1170  -11.2950    4.7190 C   0  0  2  0  0  0  0  0  0  0  0  0
   26.9470  -12.8310    4.9250 C   0  0  1  0  0  0  0  0  0  0  0  0
   27.0300  -13.1650    6.4550 C   0  0  2  0  0  0  0  0  0  0  0  0
   28.4080  -12.7270    6.9900 C   0  0  1  0  0  0  0  0  0  0  0  0
   28.5840  -11.1570    6.7800 C   0  0  1  0  0  0  0  0  0  0  0  0
   29.9680  -10.6760    7.2900 C   0  0  0  0  0  0  0  0  0  0  0  0
   25.6810  -13.2150    4.3830 O   0  0  0  0  0  0  0  0  0  0  0  0
   26.8740  -14.5970    6.6360 O   0  0  0  0  0  0  0  0  0  0  0  0
   28.4960  -13.0450    8.4210 O   0  0  0  0  0  0  0  0  0  0  0  0
   28.4630  -10.8620    5.3160 O   0  0  0  0  0  0  0  0  0  0  0  0
   30.2060   -9.2720    7.1300 O   0  0  0  0  0  0  0  0  0  0  0  0
   29.0870  -14.2090    8.9550 C   0  0  2  0  0  0  0  0  0  0  0  0
   28.1550  -14.7710   10.1100 C   0  0  1  0  0  0  0  0  0  0  0  0
   28.0600  -13.6920   11.2700 C   0  0  2  0  0  0  0  0  0  0  0  0
   29.5020  -13.4630   11.8140 C   0  0  1  0  0  0  0  0  0  0  0  0
   30.4230  -12.9240   10.6630 C   0  0  1  0  0  0  0  0  0  0  0  0
   31.8530  -12.7060   11.1400 C   0  0  0  0  0  0  0  0  0  0  0  0
   26.8770  -15.0360    9.5640 O   0  0  0  0  0  0  0  0  0  0  0  0
   27.2350  -14.1960   12.3110 O   0  0  0  0  0  0  0  0  0  0  0  0
   29.4730  -12.4970   12.8690 O   0  0  0  0  0  0  0  0  0  0  0  0
   30.4420  -13.9080    9.5290 O   0  0  0  0  0  0  0  0  0  0  0  0
   32.6270  -12.2230   10.0540 O   0  0  0  0  0  0  0  0  0  0  0  0
   23.0327   -7.2759    5.5937 H   0  0  0  0  0  0  0  0  0  0  0  0
   23.5851   -8.6638    2.9097 H   0  0  0  0  0  0  0  0  0  0  0  0
   23.4071   -9.7762    5.7719 H   0  0  0  0  0  0  0  0  0  0  0  0
   25.7158   -9.5241    3.6916 H   0  0  0  0  0  0  0  0  0  0  0  0
   25.2614   -8.1715    6.4726 H   0  0  0  0  0  0  0  0  0  0  0  0
   27.6574   -8.5265    6.0367 H   0  0  0  0  0  0  0  0  0  0  0  0
   27.2027   -6.7888    6.0512 H   0  0  0  0  0  0  0  0  0  0  0  0
   23.0486   -5.2042    4.2614 H   0  0  0  0  0  0  0  0  0  0  0  0
   21.3900   -8.0152    3.3387 H   0  0  0  0  0  0  0  0  0  0  0  0
   23.8995  -11.7388    4.5508 H   0  0  0  0  0  0  0  0  0  0  0  0
   28.7653   -7.2944    4.3813 H   0  0  0  0  0  0  0  0  0  0  0  0
   27.0852  -11.0520    3.6467 H   0  0  0  0  0  0  0  0  0  0  0  0
   27.7483  -13.3671    4.3954 H   0  0  0  0  0  0  0  0  0  0  0  0
   26.2343  -12.6330    6.9971 H   0  0  0  0  0  0  0  0  0  0  0  0
   29.2007  -13.2610    6.4456 H   0  0  0  0  0  0  0  0  0  0  0  0
   27.7936  -10.6259    7.3306 H   0  0  0  0  0  0  0  0  0  0  0  0
   30.7465  -11.2215    6.7365 H   0  0  0  0  0  0  0  0  0  0  0  0
   30.0422  -10.9170    8.3607 H   0  0  0  0  0  0  0  0  0  0  0  0
   24.9890  -12.7466    4.8350 H   0  0  0  0  0  0  0  0  0  0  0  0
   26.9369  -14.8069    7.5603 H   0  0  0  0  0  0  0  0  0  0  0  0
   31.0691   -9.0582    7.4642 H   0  0  0  0  0  0  0  0  0  0  0  0
   29.1885  -14.9626    8.1602 H   0  0  0  0  0  0  0  0  0  0  0  0
   28.5811  -15.7017   10.5128 H   0  0  0  0  0  0  0  0  0  0  0  0
   27.6435  -12.7501   10.8836 H   0  0  0  0  0  0  0  0  0  0  0  0
   29.9044  -14.4134   12.1946 H   0  0  0  0  0  0  0  0  0  0  0  0
   30.0168  -11.9660   10.3063 H   0  0  0  0  0  0  0  0  0  0  0  0
   32.2724  -13.6575   11.4989 H   0  0  0  0  0  0  0  0  0  0  0  0
   31.8623  -11.9697   11.9572 H   0  0  0  0  0  0  0  0  0  0  0  0
   26.3053  -15.3684   10.2460 H   0  0  0  0  0  0  0  0  0  0  0  0
   26.3562  -14.3351   11.9779 H   0  0  0  0  0  0  0  0  0  0  0  0
   30.3543  -12.3614   13.1970 H   0  0  0  0  0  0  0  0  0  0  0  0
   32.6152  -12.8606    9.3499 H   0  0  0  0  0  0  0  0  0  0  0  0
  1  2  1  0  0  0  0
  1  7  1  0  0  0  0
  1 11  1  0  0  0  0
  1 35  1  1  0  0  0
  2  3  1  0  0  0  0
  2  8  1  0  0  0  0
  2 36  1  6  0  0  0
  3  4  1  0  0  0  0
  3  9  1  0  0  0  0
  3 37  1  1  0  0  0
  4  5  1  0  0  0  0
  4 10  1  0  0  0  0
  4 38  1  6  0  0  0
  5  6  1  0  0  0  0
  5 11  1  0  0  0  0
  5 39  1  1  0  0  0
  6 12  1  0  0  0  0
  6 40  1  0  0  0  0
  6 41  1  0  0  0  0
  7 42  1  0  0  0  0
  8 43  1  0  0  0  0
  9 44  1  0  0  0  0
 10 13  1  0  0  0  0
 12 45  1  0  0  0  0
 13 14  1  0  0  0  0
 13 22  1  0  0  0  0
 13 46  1  6  0  0  0
 14 15  1  0  0  0  0
 14 19  1  0  0  0  0
 14 47  1  6  0  0  0
 15 16  1  0  0  0  0
 15 20  1  0  0  0  0
 15 48  1  1  0  0  0
 16 17  1  0  0  0  0
 16 21  1  0  0  0  0
 16 49  1  6  0  0  0
 17 18  1  0  0  0  0
 17 22  1  0  0  0  0
 17 50  1  1  0  0  0
 18 23  1  0  0  0  0
 18 51  1  0  0  0  0
 18 52  1  0  0  0  0
 19 53  1  0  0  0  0
 20 54  1  0  0  0  0
 21 24  1  0  0  0  0
 23 55  1  0  0  0  0
 24 25  1  0  0  0  0
 24 33  1  0  0  0  0
 24 56  1  6  0  0  0
 25 26  1  0  0  0  0
 25 30  1  0  0  0  0
 25 57  1  1  0  0  0
 26 27  1  0  0  0  0
 26 31  1  0  0  0  0
 26 58  1  6  0  0  0
 27 28  1  0  0  0  0
 27 32  1  0  0  0  0
 27 59  1  1  0  0  0
 28 29  1  0  0  0  0
 28 33  1  0  0  0  0
 28 60  1  6  0  0  0
 29 34  1  0  0  0  0
 29 61  1  0  0  0  0
 29 62  1  0  0  0  0
 30 63  1  0  0  0  0
 31 64  1  0  0  0  0
 32 65  1  0  0  0  0
 34 66  1  0  0  0  0
M  END
