2giu_ligand
 OpenBabel08222323343D

 39 41  0  0  1  0  0  0  0  0999 V2000
   22.9210    9.0370  115.3330 C   0  0  2  0  0  0  0  0  0  0  0  0
   22.4450    8.0850  116.4500 C   0  0  0  0  0  0  0  0  0  0  0  0
   20.9070    8.1950  116.5030 C   0  0  0  0  0  0  0  0  0  0  0  0
   20.3470    7.7940  115.1540 C   0  0  0  0  0  0  0  0  0  0  0  0
   19.2410    7.3180  115.1040 O   0  0  0  0  0  0  0  0  0  0  0  0
   21.1430    8.0220  113.9260 C   0  0  0  0  0  0  0  0  0  0  0  0
   20.4090    7.1960  112.5220 Br  0  0  0  0  0  0  0  0  0  0  0  0
   22.3490    8.6250  113.9990 C   0  0  0  0  0  0  0  0  0  0  0  0
   23.4070    8.7370  112.9720 C   0  0  0  0  0  0  0  0  0  0  0  0
   23.3580    8.6780  111.5750 C   0  0  0  0  0  0  0  0  0  0  0  0
   24.5470    8.8530  110.8570 C   0  0  0  0  0  0  0  0  0  0  0  0
   25.7740    9.0260  111.5250 C   0  0  0  0  0  0  0  0  0  0  0  0
   26.9270    9.1090  110.8390 O   0  0  0  0  0  0  0  0  0  0  0  0
   25.8120    9.0600  112.9240 C   0  0  0  0  0  0  0  0  0  0  0  0
   24.6150    8.9510  113.6350 C   0  0  0  0  0  0  0  0  0  0  0  0
   24.4460    9.0220  115.1340 C   0  0  0  0  0  0  0  0  0  0  0  0
   22.4130   10.4820  115.5210 C   0  0  0  0  0  0  0  0  0  0  0  0
   23.1370   11.2900  116.6040 C   0  0  0  0  0  0  0  0  0  0  0  0
   22.2290   12.2960  117.3190 C   0  0  0  0  0  0  0  0  0  0  0  0
   23.0160   12.8190  118.5400 C   0  0  0  0  0  0  0  0  0  0  0  0
   22.8797    8.3856  117.4147 H   0  0  0  0  0  0  0  0  0  0  0  0
   22.7431    7.0516  116.2195 H   0  0  0  0  0  0  0  0  0  0  0  0
   20.6172    9.2313  116.7313 H   0  0  0  0  0  0  0  0  0  0  0  0
   20.5141    7.5244  117.2814 H   0  0  0  0  0  0  0  0  0  0  0  0
   22.4206    8.5008  111.0602 H   0  0  0  0  0  0  0  0  0  0  0  0
   24.5225    8.8553  109.7733 H   0  0  0  0  0  0  0  0  0  0  0  0
   26.8892    9.8510  110.2469 H   0  0  0  0  0  0  0  0  0  0  0  0
   26.7553    9.1692  113.4469 H   0  0  0  0  0  0  0  0  0  0  0  0
   24.8958    8.1440  115.6207 H   0  0  0  0  0  0  0  0  0  0  0  0
   24.9024    9.9383  115.5365 H   0  0  0  0  0  0  0  0  0  0  0  0
   21.3463   10.4365  115.7857 H   0  0  0  0  0  0  0  0  0  0  0  0
   22.5311   11.0120  114.5644 H   0  0  0  0  0  0  0  0  0  0  0  0
   23.9653   11.8403  116.1338 H   0  0  0  0  0  0  0  0  0  0  0  0
   23.5391   10.5902  117.3514 H   0  0  0  0  0  0  0  0  0  0  0  0
   21.3029   11.8024  117.6487 H   0  0  0  0  0  0  0  0  0  0  0  0
   21.9807   13.1282  116.6440 H   0  0  0  0  0  0  0  0  0  0  0  0
   22.4010   13.5483  119.0876 H   0  0  0  0  0  0  0  0  0  0  0  0
   23.9427   13.3036  118.1988 H   0  0  0  0  0  0  0  0  0  0  0  0
   23.2649   11.9778  119.2036 H   0  0  0  0  0  0  0  0  0  0  0  0
  1  2  1  0  0  0  0
  1  8  1  0  0  0  0
  1 16  1  0  0  0  0
  1 17  1  1  0  0  0
  2  3  1  0  0  0  0
  2 21  1  0  0  0  0
  2 22  1  0  0  0  0
  3  4  1  0  0  0  0
  3 23  1  0  0  0  0
  3 24  1  0  0  0  0
  4  5  2  0  0  0  0
  4  6  1  0  0  0  0
  6  7  1  0  0  0  0
  6  8  2  0  0  0  0
  8  9  1  0  0  0  0
  9 10  2  0  0  0  0
  9 15  1  0  0  0  0
 10 11  1  0  0  0  0
 10 25  1  0  0  0  0
 11 12  2  0  0  0  0
 11 26  1  0  0  0  0
 12 13  1  0  0  0  0
 12 14  1  0  0  0  0
 13 27  1  0  0  0  0
 14 15  2  0  0  0  0
 14 28  1  0  0  0  0
 15 16  1  0  0  0  0
 16 29  1  0  0  0  0
 16 30  1  0  0  0  0
 17 18  1  0  0  0  0
 17 31  1  0  0  0  0
 17 32  1  0  0  0  0
 18 19  1  0  0  0  0
 18 33  1  0  0  0  0
 18 34  1  0  0  0  0
 19 20  1  0  0  0  0
 19 35  1  0  0  0  0
 19 36  1  0  0  0  0
 20 37  1  0  0  0  0
 20 38  1  0  0  0  0
 20 39  1  0  0  0  0
M  END
