2gmk_ligand
 OpenBabel08222323343D

 35 37  0  0  1  0  0  0  0  0999 V2000
  -22.5540   -2.0320   -5.0630 P   0  0  0  0  0  0  0  0  0  0  0  0
  -22.7040   -3.4780   -5.4850 O   0  0  0  0  0  1  0  0  0  0  0  0
  -23.8600   -1.2600   -5.0030 O   0  0  0  0  0  1  0  0  0  0  0  0
  -21.4070   -1.3170   -5.7440 O   0  0  0  0  0  0  0  0  0  0  0  0
  -22.0690   -2.1410   -3.5320 O   0  0  0  0  0  0  0  0  0  0  0  0
  -21.6940   -0.9780   -2.7950 C   0  0  0  0  0  0  0  0  0  0  0  0
  -22.3920   -1.0440   -1.4490 C   0  0  1  0  0  0  0  0  0  0  0  0
  -22.1240   -2.3150   -0.8510 O   0  0  0  0  0  0  0  0  0  0  0  0
  -21.8730    0.0120   -0.4880 C   0  0  1  0  0  0  0  0  0  0  0  0
  -22.7040    1.1790   -0.4790 O   0  0  0  0  0  0  0  0  0  0  0  0
  -21.8550   -0.6780    0.8600 C   0  0  1  0  0  0  0  0  0  0  0  0
  -22.9700   -0.2790    1.6730 O   0  0  0  0  0  0  0  0  0  0  0  0
  -21.9370   -2.1660    0.5560 C   0  0  2  0  0  0  0  0  0  0  0  0
  -20.6770   -2.7860    1.0330 N   0  0  0  0  0  0  0  0  0  0  0  0
  -19.5310   -2.9710    0.3420 C   0  0  0  0  0  0  0  0  0  0  0  0
  -18.5900   -3.5650    1.1270 N   0  0  0  0  0  0  0  0  0  0  0  0
  -19.1420   -3.7620    2.3460 C   0  0  0  0  0  0  0  0  0  0  0  0
  -18.7200   -4.3410    3.6480 C   0  0  0  0  0  0  0  0  0  0  0  0
  -17.4760   -4.8440    3.8240 N   0  0  0  0  0  0  0  0  0  0  0  0
  -19.6140   -4.3490    4.6640 N   0  0  0  0  0  0  0  0  0  0  0  0
  -20.8610   -3.8550    4.5230 C   0  0  0  0  0  0  0  0  0  0  0  0
  -21.3170   -3.3180    3.3780 N   0  0  0  0  0  0  0  0  0  0  0  0
  -20.5160   -3.2430    2.2770 C   0  0  0  0  0  0  0  0  0  0  0  0
  -22.0077   -0.0733   -3.3364 H   0  0  0  0  0  0  0  0  0  0  0  0
  -20.6035   -0.9600   -2.6517 H   0  0  0  0  0  0  0  0  0  0  0  0
  -23.4742   -0.9117   -1.5947 H   0  0  0  0  0  0  0  0  0  0  0  0
  -20.8530    0.3105   -0.7716 H   0  0  0  0  0  0  0  0  0  0  0  0
  -23.5832    0.9383   -0.2115 H   0  0  0  0  0  0  0  0  0  0  0  0
  -20.9197   -0.4462    1.3905 H   0  0  0  0  0  0  0  0  0  0  0  0
  -22.9368    0.6597    1.8155 H   0  0  0  0  0  0  0  0  0  0  0  0
  -22.7888   -2.6179    1.0853 H   0  0  0  0  0  0  0  0  0  0  0  0
  -19.3806   -2.6850   -0.6980 H   0  0  0  0  0  0  0  0  0  0  0  0
  -17.2050   -5.2405    4.7352 H   0  0  0  0  0  0  0  0  0  0  0  0
  -16.8002   -4.8303    3.0468 H   0  0  0  0  0  0  0  0  0  0  0  0
  -21.5292   -3.8928    5.3758 H   0  0  0  0  0  0  0  0  0  0  0  0
  1  2  1  0  0  0  0
  1  3  1  0  0  0  0
  1  4  2  0  0  0  0
  1  5  1  0  0  0  0
  5  6  1  0  0  0  0
  6  7  1  0  0  0  0
  6 24  1  0  0  0  0
  6 25  1  0  0  0  0
  7  8  1  0  0  0  0
  7  9  1  0  0  0  0
  7 26  1  6  0  0  0
  8 13  1  0  0  0  0
  9 10  1  0  0  0  0
  9 11  1  0  0  0  0
  9 27  1  6  0  0  0
 10 28  1  0  0  0  0
 11 12  1  0  0  0  0
 11 13  1  0  0  0  0
 11 29  1  1  0  0  0
 12 30  1  0  0  0  0
 13 14  1  0  0  0  0
 13 31  1  1  0  0  0
 14 15  1  0  0  0  0
 14 23  1  0  0  0  0
 15 16  2  0  0  0  0
 15 32  1  0  0  0  0
 16 17  1  0  0  0  0
 17 18  2  0  0  0  0
 17 23  1  0  0  0  0
 18 19  1  0  0  0  0
 18 20  1  0  0  0  0
 19 33  1  0  0  0  0
 19 34  1  0  0  0  0
 20 21  2  0  0  0  0
 21 22  1  0  0  0  0
 21 35  1  0  0  0  0
 22 23  2  0  0  0  0
M  END
