2gnf_ligand
 OpenBabel08222323343D

 40 41  0  0  1  0  0  0  0  0999 V2000
    7.5170   10.0600   41.9260 O   0  0  0  0  0  0  0  0  0  0  0  0
    7.9880    9.7810   43.0660 C   0  0  0  0  0  0  0  0  0  0  0  0
    9.4020    9.3230   43.3050 C   0  0  1  0  0  0  0  0  0  0  0  0
    9.6040    7.9990   42.5540 C   0  0  0  0  0  0  0  0  0  0  0  0
   11.0610    7.4850   42.6130 C   0  0  0  0  0  0  0  0  0  0  0  0
   12.0440    8.5720   42.1270 C   0  0  1  0  0  0  0  0  0  0  0  0
   11.9020    9.7720   43.0770 C   0  0  0  0  0  0  0  0  0  0  0  0
   10.4620   10.3700   42.9070 C   0  0  0  0  0  0  0  0  0  0  0  0
   13.5230    8.0650   42.0410 C   0  0  1  0  0  0  0  0  0  0  0  0
   13.9640    7.4060   43.3560 C   0  0  0  0  0  0  0  0  0  0  0  0
   13.7500    7.1170   40.9030 N   0  3  0  0  0  0  0  0  0  0  0  0
    7.2190    9.8130   44.2520 N   0  0  0  0  0  0  0  0  0  0  0  0
    5.7770    9.9740   44.2750 C   0  0  0  0  0  0  0  0  0  0  0  0
    5.1980    9.9890   45.5840 C   0  0  0  0  0  0  0  0  0  0  0  0
    3.8200   10.1310   45.6670 C   0  0  0  0  0  0  0  0  0  0  0  0
    3.0630   10.2640   44.5440 N   0  0  0  0  0  0  0  0  0  0  0  0
    3.5640   10.2620   43.2940 C   0  0  0  0  0  0  0  0  0  0  0  0
    4.9340   10.1350   43.1070 C   0  0  0  0  0  0  0  0  0  0  0  0
    9.5199    9.1320   44.3818 H   0  0  0  0  0  0  0  0  0  0  0  0
    9.3280    8.1487   41.4998 H   0  0  0  0  0  0  0  0  0  0  0  0
    8.9462    7.2390   43.0009 H   0  0  0  0  0  0  0  0  0  0  0  0
   11.1571    6.5978   41.9698 H   0  0  0  0  0  0  0  0  0  0  0  0
   11.3065    7.2142   43.6505 H   0  0  0  0  0  0  0  0  0  0  0  0
   11.7430    8.8862   41.1167 H   0  0  0  0  0  0  0  0  0  0  0  0
   12.6532   10.5354   42.8262 H   0  0  0  0  0  0  0  0  0  0  0  0
   12.0470    9.4423   44.1163 H   0  0  0  0  0  0  0  0  0  0  0  0
   10.3578   11.2558   43.5507 H   0  0  0  0  0  0  0  0  0  0  0  0
   10.3104   10.6600   41.8568 H   0  0  0  0  0  0  0  0  0  0  0  0
   14.1608    8.9453   41.8728 H   0  0  0  0  0  0  0  0  0  0  0  0
   15.0046    7.0617   43.2626 H   0  0  0  0  0  0  0  0  0  0  0  0
   13.3117    6.5472   43.5726 H   0  0  0  0  0  0  0  0  0  0  0  0
   13.8917    8.1370   44.1748 H   0  0  0  0  0  0  0  0  0  0  0  0
   13.4599    7.5514   40.0409 H   0  0  0  0  0  0  0  0  0  0  0  0
   13.2133    6.2771   41.0532 H   0  0  0  0  0  0  0  0  0  0  0  0
   14.7294    6.8848   40.8493 H   0  0  0  0  0  0  0  0  0  0  0  0
    7.6965    9.7193   45.1256 H   0  0  0  0  0  0  0  0  0  0  0  0
    5.8103    9.8934   46.4734 H   0  0  0  0  0  0  0  0  0  0  0  0
    3.3404   10.1360   46.6391 H   0  0  0  0  0  0  0  0  0  0  0  0
    2.9029   10.3588   42.4404 H   0  0  0  0  0  0  0  0  0  0  0  0
    5.3627   10.1558   42.1116 H   0  0  0  0  0  0  0  0  0  0  0  0
  1  2  2  0  0  0  0
  2  3  1  0  0  0  0
  2 12  1  0  0  0  0
  3  4  1  0  0  0  0
  3  8  1  0  0  0  0
  3 19  1  1  0  0  0
  4  5  1  0  0  0  0
  4 20  1  0  0  0  0
  4 21  1  0  0  0  0
  5  6  1  0  0  0  0
  5 22  1  0  0  0  0
  5 23  1  0  0  0  0
  6  7  1  0  0  0  0
  6  9  1  0  0  0  0
  6 24  1  6  0  0  0
  7  8  1  0  0  0  0
  7 25  1  0  0  0  0
  7 26  1  0  0  0  0
  8 27  1  0  0  0  0
  8 28  1  0  0  0  0
  9 10  1  0  0  0  0
  9 11  1  0  0  0  0
  9 29  1  6  0  0  0
 10 30  1  0  0  0  0
 10 31  1  0  0  0  0
 10 32  1  0  0  0  0
 11 33  1  0  0  0  0
 11 34  1  0  0  0  0
 11 35  1  0  0  0  0
 12 13  1  0  0  0  0
 12 36  1  0  0  0  0
 13 14  2  0  0  0  0
 13 18  1  0  0  0  0
 14 15  1  0  0  0  0
 14 37  1  0  0  0  0
 15 16  2  0  0  0  0
 15 38  1  0  0  0  0
 16 17  1  0  0  0  0
 17 18  2  0  0  0  0
 17 39  1  0  0  0  0
 18 40  1  0  0  0  0
M  CHG  1  11   1
M  END
