2go4_ligand
 OpenBabel08222323343D

 71 71  0  0  1  0  0  0  0  0999 V2000
  -30.9350   77.2910    5.3030 C   0  0  1  0  0  0  0  0  0  0  0  0
  -32.0710   78.3100    5.2000 C   0  0  1  0  0  0  0  0  0  0  0  0
  -32.1150   78.8920    3.7840 C   0  0  2  0  0  0  0  0  0  0  0  0
  -29.6160   77.9540    4.8970 C   0  0  2  0  0  0  0  0  0  0  0  0
  -29.7580   78.5920    3.5110 C   0  0  0  0  0  0  0  0  0  0  0  0
  -30.8550   79.5230    3.4950 O   0  0  0  0  0  0  0  0  0  0  0  0
  -30.8270   76.8150    6.6520 O   0  0  0  0  0  0  0  0  0  0  0  0
  -31.2350   74.7680    5.7900 O   0  0  0  0  0  0  0  0  0  0  0  0
  -30.9760   75.4670    6.7690 C   0  0  0  0  0  0  0  0  0  0  0  0
  -30.8580   74.8550    8.1670 C   0  0  0  0  0  0  0  0  0  0  0  0
  -31.3740   73.4170    8.2340 C   0  0  0  0  0  0  0  0  0  0  0  0
  -31.9200   73.1420    9.6370 C   0  0  0  0  0  0  0  0  0  0  0  0
  -32.3290   71.6790    9.8150 C   0  0  0  0  0  0  0  0  0  0  0  0
  -33.3330   71.4890   10.9560 C   0  0  0  0  0  0  0  0  0  0  0  0
  -32.8430   71.9980   12.3150 C   0  0  0  0  0  0  0  0  0  0  0  0
  -33.8440   71.5970   13.4010 C   0  0  0  0  0  0  0  0  0  0  0  0
  -33.4930   72.1810   14.7710 C   0  0  0  0  0  0  0  0  0  0  0  0
  -34.3970   71.5770   15.8490 C   0  0  0  0  0  0  0  0  0  0  0  0
  -34.1570   72.1950   17.2300 C   0  0  0  0  0  0  0  0  0  0  0  0
  -34.8650   73.5400   17.4300 C   0  0  0  0  0  0  0  0  0  0  0  0
  -36.3660   73.4080   17.7110 C   0  0  0  0  0  0  0  0  0  0  0  0
  -37.1640   72.9100   16.5030 C   0  0  0  0  0  0  0  0  0  0  0  0
  -28.4870   76.9210    4.9330 C   0  0  0  0  0  0  0  0  0  0  0  0
  -27.1010   77.5640    4.8510 C   0  0  0  0  0  0  0  0  0  0  0  0
  -26.5470   78.0000    5.8580 O   0  0  0  0  0  0  0  0  0  0  0  0
  -26.5680   77.5970    3.6340 N   0  0  0  0  0  0  0  0  0  0  0  0
  -25.3210   78.1110    3.4670 O   0  0  0  0  0  0  0  0  0  0  0  0
  -33.3130   77.6660    5.4960 O   0  0  0  0  0  0  0  0  0  0  0  0
  -33.2640   79.8990    3.6810 C   0  0  0  0  0  0  0  0  0  0  0  0
  -33.4170   80.3350    2.3280 O   0  0  0  0  0  0  0  0  0  0  0  0
  -31.1425   76.4445    4.6319 H   0  0  0  0  0  0  0  0  0  0  0  0
  -31.8998   79.1221    5.9219 H   0  0  0  0  0  0  0  0  0  0  0  0
  -32.2846   78.0801    3.0615 H   0  0  0  0  0  0  0  0  0  0  0  0
  -29.3822   78.7483    5.6211 H   0  0  0  0  0  0  0  0  0  0  0  0
  -29.9417   77.8034    2.7665 H   0  0  0  0  0  0  0  0  0  0  0  0
  -28.8283   79.1237    3.2602 H   0  0  0  0  0  0  0  0  0  0  0  0
  -31.4403   75.4696    8.8693 H   0  0  0  0  0  0  0  0  0  0  0  0
  -29.7991   74.8618    8.4647 H   0  0  0  0  0  0  0  0  0  0  0  0
  -30.5508   72.7204    8.0168 H   0  0  0  0  0  0  0  0  0  0  0  0
  -32.1760   73.2792    7.4938 H   0  0  0  0  0  0  0  0  0  0  0  0
  -32.7997   73.7801    9.8073 H   0  0  0  0  0  0  0  0  0  0  0  0
  -31.1418   73.3857   10.3752 H   0  0  0  0  0  0  0  0  0  0  0  0
  -31.4295   71.0846   10.0331 H   0  0  0  0  0  0  0  0  0  0  0  0
  -32.7856   71.3233    8.8796 H   0  0  0  0  0  0  0  0  0  0  0  0
  -33.5511   70.4148   11.0483 H   0  0  0  0  0  0  0  0  0  0  0  0
  -34.2554   72.0296   10.6974 H   0  0  0  0  0  0  0  0  0  0  0  0
  -32.7535   73.0939   12.2855 H   0  0  0  0  0  0  0  0  0  0  0  0
  -31.8613   71.5558   12.5400 H   0  0  0  0  0  0  0  0  0  0  0  0
  -33.8581   70.4999   13.4791 H   0  0  0  0  0  0  0  0  0  0  0  0
  -34.8420   71.9568   13.1102 H   0  0  0  0  0  0  0  0  0  0  0  0
  -33.6333   73.2718   14.7481 H   0  0  0  0  0  0  0  0  0  0  0  0
  -32.4433   71.9512   15.0062 H   0  0  0  0  0  0  0  0  0  0  0  0
  -34.2022   70.4960   15.9077 H   0  0  0  0  0  0  0  0  0  0  0  0
  -35.4461   71.7456   15.5647 H   0  0  0  0  0  0  0  0  0  0  0  0
  -33.0755   72.3483   17.3596 H   0  0  0  0  0  0  0  0  0  0  0  0
  -34.5219   71.4926   17.9939 H   0  0  0  0  0  0  0  0  0  0  0  0
  -34.7336   74.1411   16.5182 H   0  0  0  0  0  0  0  0  0  0  0  0
  -34.3962   74.0566   18.2805 H   0  0  0  0  0  0  0  0  0  0  0  0
  -36.7549   74.3942   18.0044 H   0  0  0  0  0  0  0  0  0  0  0  0
  -36.5056   72.6976   18.5391 H   0  0  0  0  0  0  0  0  0  0  0  0
  -38.2284   72.8381   16.7711 H   0  0  0  0  0  0  0  0  0  0  0  0
  -36.7939   71.9187   16.2024 H   0  0  0  0  0  0  0  0  0  0  0  0
  -37.0432   73.6154   15.6676 H   0  0  0  0  0  0  0  0  0  0  0  0
  -28.6087   76.2357    4.0813 H   0  0  0  0  0  0  0  0  0  0  0  0
  -28.5576   76.3540    5.8729 H   0  0  0  0  0  0  0  0  0  0  0  0
  -27.0793   77.2472    2.8491 H   0  0  0  0  0  0  0  0  0  0  0  0
  -25.3121   79.0169    3.7532 H   0  0  0  0  0  0  0  0  0  0  0  0
  -34.0187   78.2993    5.4373 H   0  0  0  0  0  0  0  0  0  0  0  0
  -33.0451   80.7671    4.3201 H   0  0  0  0  0  0  0  0  0  0  0  0
  -34.1966   79.4222    4.0170 H   0  0  0  0  0  0  0  0  0  0  0  0
  -32.6128   80.7485    2.0369 H   0  0  0  0  0  0  0  0  0  0  0  0
  1  2  1  0  0  0  0
  1  4  1  0  0  0  0
  1  7  1  0  0  0  0
  1 31  1  6  0  0  0
  2  3  1  0  0  0  0
  2 28  1  0  0  0  0
  2 32  1  1  0  0  0
  3  6  1  0  0  0  0
  3 29  1  0  0  0  0
  3 33  1  6  0  0  0
  4  5  1  0  0  0  0
  4 23  1  0  0  0  0
  4 34  1  1  0  0  0
  5  6  1  0  0  0  0
  5 35  1  0  0  0  0
  5 36  1  0  0  0  0
  7  9  1  0  0  0  0
  9  8  2  0  0  0  0
  9 10  1  0  0  0  0
 10 11  1  0  0  0  0
 10 37  1  0  0  0  0
 10 38  1  0  0  0  0
 11 12  1  0  0  0  0
 11 39  1  0  0  0  0
 11 40  1  0  0  0  0
 12 13  1  0  0  0  0
 12 41  1  0  0  0  0
 12 42  1  0  0  0  0
 13 14  1  0  0  0  0
 13 43  1  0  0  0  0
 13 44  1  0  0  0  0
 14 15  1  0  0  0  0
 14 45  1  0  0  0  0
 14 46  1  0  0  0  0
 15 16  1  0  0  0  0
 15 47  1  0  0  0  0
 15 48  1  0  0  0  0
 16 17  1  0  0  0  0
 16 49  1  0  0  0  0
 16 50  1  0  0  0  0
 17 18  1  0  0  0  0
 17 51  1  0  0  0  0
 17 52  1  0  0  0  0
 18 19  1  0  0  0  0
 18 53  1  0  0  0  0
 18 54  1  0  0  0  0
 19 20  1  0  0  0  0
 19 55  1  0  0  0  0
 19 56  1  0  0  0  0
 20 21  1  0  0  0  0
 20 57  1  0  0  0  0
 20 58  1  0  0  0  0
 21 22  1  0  0  0  0
 21 59  1  0  0  0  0
 21 60  1  0  0  0  0
 22 61  1  0  0  0  0
 22 62  1  0  0  0  0
 22 63  1  0  0  0  0
 23 24  1  0  0  0  0
 23 64  1  0  0  0  0
 23 65  1  0  0  0  0
 24 25  2  0  0  0  0
 24 26  1  0  0  0  0
 26 27  1  0  0  0  0
 26 66  1  0  0  0  0
 27 67  1  0  0  0  0
 28 68  1  0  0  0  0
 29 30  1  0  0  0  0
 29 69  1  0  0  0  0
 29 70  1  0  0  0  0
 30 71  1  0  0  0  0
M  END
