2gph_ligand
 OpenBabel08222323343D

262261  0  0  1  0  0  0  0  0999 V2000
   25.5380   27.0060   13.8760 N   0  3  0  0  0  0  0  0  0  0  0  0
   24.8710   26.4110   15.0740 C   0  0  2  0  0  0  0  0  0  0  0  0
   23.9100   27.4310   15.6950 C   0  0  0  0  0  0  0  0  0  0  0  0
   24.2960   28.5700   15.9580 O   0  0  0  0  0  0  0  0  0  0  0  0
   25.9270   25.9870   16.1080 C   0  0  0  0  0  0  0  0  0  0  0  0
   26.0360   24.4770   16.3520 C   0  0  0  0  0  0  0  0  0  0  0  0
   27.3020   24.1150   17.1420 C   0  0  0  0  0  0  0  0  0  0  0  0
   28.5260   24.3390   16.3640 N   0  0  0  0  0  0  0  0  0  0  0  0
   29.7720   24.1520   16.8120 C   0  0  0  0  0  3  0  0  0  0  0  0
   29.9910   23.7320   18.0560 N   0  0  0  0  0  0  0  0  0  0  0  0
   30.8080   24.3780   16.0090 N   0  0  0  0  0  0  0  0  0  0  0  0
   22.6610   27.0240   15.9100 N   0  0  0  0  0  0  0  0  0  0  0  0
   21.6470   27.8920   16.5100 C   0  0  2  0  0  0  0  0  0  0  0  0
   22.2150   28.6240   17.7230 C   0  0  0  0  0  0  0  0  0  0  0  0
   21.9100   29.7960   17.9490 O   0  0  0  0  0  0  0  0  0  0  0  0
   20.4170   27.0570   16.9250 C   0  0  0  0  0  0  0  0  0  0  0  0
   19.4530   27.6360   17.9810 C   0  0  0  0  0  0  0  0  0  0  0  0
   18.9030   28.9840   17.5330 C   0  0  0  0  0  0  0  0  0  0  0  0
   18.3180   26.6460   18.2200 C   0  0  0  0  0  0  0  0  0  0  0  0
   23.0540   27.9270   18.4900 N   0  0  0  0  0  0  0  0  0  0  0  0
   23.6720   28.4960   19.6850 C   0  0  2  0  0  0  0  0  0  0  0  0
   24.6170   29.6570   19.3670 C   0  0  0  0  0  0  0  0  0  0  0  0
   24.6000   30.6780   20.0510 O   0  0  0  0  0  0  0  0  0  0  0  0
   24.4320   27.4060   20.4660 C   0  0  0  0  0  0  0  0  0  0  0  0
   25.2890   27.9410   21.6300 C   0  0  0  0  0  0  0  0  0  0  0  0
   25.9460   26.8420   22.4600 C   0  0  0  0  0  0  0  0  0  0  0  0
   26.3060   25.7850   21.9450 O   0  0  0  0  0  0  0  0  0  0  0  0
   26.1200   27.1040   23.7600 N   0  0  0  0  0  0  0  0  0  0  0  0
   25.4470   29.5090   18.3420 N   0  0  0  0  0  0  0  0  0  0  0  0
   26.3820   30.5770   17.9850 C   0  0  2  0  0  0  0  0  0  0  0  0
   25.5550   31.7720   17.5670 C   0  0  0  0  0  0  0  0  0  0  0  0
   25.8190   32.9040   17.9640 O   0  0  0  0  0  0  0  0  0  0  0  0
   27.2680   30.1630   16.8090 C   0  0  0  0  0  0  0  0  0  0  0  0
   27.9550   28.8290   16.9650 C   0  0  0  0  0  0  0  0  0  0  0  0
   28.6940   28.4200   15.6930 C   0  0  0  0  0  0  0  0  0  0  0  0
   28.1130   28.5810   14.5910 O   0  5  0  0  0  0  0  0  0  0  0  0
   29.8440   27.9310   15.7950 O   0  0  0  0  0  0  0  0  0  0  0  0
   24.5570   31.4880   16.7400 N   0  0  0  0  0  0  0  0  0  0  0  0
   23.6230   32.4730   16.2180 C   0  0  2  0  0  0  0  0  0  0  0  0
   23.0680   33.3450   17.3520 C   0  0  0  0  0  0  0  0  0  0  0  0
   22.9130   34.5540   17.1990 O   0  0  0  0  0  0  0  0  0  0  0  0
   22.4780   31.7340   15.5260 C   0  0  0  0  0  0  0  0  0  0  0  0
   22.0190   32.3450   14.2330 C   0  0  0  0  0  0  0  0  0  0  0  0
   21.6040   31.2580   13.2670 C   0  0  0  0  0  0  0  0  0  0  0  0
   20.2200   30.8360   13.4430 N   0  0  0  0  0  0  0  0  0  0  0  0
   19.8280   29.5640   13.4350 C   0  0  0  0  0  3  0  0  0  0  0  0
   20.7250   28.5950   13.2730 N   0  0  0  0  0  0  0  0  0  0  0  0
   18.5420   29.2650   13.5520 N   0  0  0  0  0  0  0  0  0  0  0  0
   22.7680   32.7200   18.4870 N   0  0  0  0  0  0  0  0  0  0  0  0
   22.2160   33.4420   19.6370 C   0  0  2  0  0  0  0  0  0  0  0  0
   23.3050   34.1400   20.4500 C   0  0  0  0  0  0  0  0  0  0  0  0
   23.0290   34.7560   21.4790 O   0  0  0  0  0  0  0  0  0  0  0  0
   21.4450   32.4720   20.5390 C   0  0  0  0  0  0  0  0  0  0  0  0
   20.1510   31.9410   19.9250 C   0  0  0  0  0  0  0  0  0  0  0  0
   19.0740   33.0130   19.7770 C   0  0  0  0  0  0  0  0  0  0  0  0
   17.8160   32.4370   19.3030 N   0  0  0  0  0  0  0  0  0  0  0  0
   17.5380   32.1730   18.0250 C   0  0  0  0  0  3  0  0  0  0  0  0
   18.4280   32.4480   17.0780 N   0  0  0  0  0  0  0  0  0  0  0  0
   16.3870   31.5960   17.6940 N   0  0  0  0  0  0  0  0  0  0  0  0
   24.5470   34.0120   19.9900 N   0  0  0  0  0  0  0  0  0  0  0  0
   25.6640   34.6420   20.6690 C   0  0  0  0  0  0  0  0  0  0  0  0
   26.1820   33.8970   21.8870 C   0  0  0  0  0  0  0  0  0  0  0  0
   26.9030   34.4770   22.7090 O   0  0  0  0  0  0  0  0  0  0  0  0
   25.8200   32.6230   22.0250 N   0  0  0  0  0  0  0  0  0  0  0  0
   26.2870   31.8460   23.1670 C   0  0  2  0  0  0  0  0  0  0  0  0
   27.6010   31.1770   22.7810 C   0  0  0  0  0  0  0  0  0  0  0  0
   27.6860   30.4780   21.7690 O   0  0  0  0  0  0  0  0  0  0  0  0
   25.2520   30.7950   23.5760 C   0  0  0  0  0  0  0  0  0  0  0  0
   25.6030   30.2130   24.8180 O   0  0  0  0  0  0  0  0  0  0  0  0
   28.6230   31.4060   23.5970 N   0  0  0  0  0  0  0  0  0  0  0  0
   29.9660   30.8790   23.3640 C   0  0  2  0  0  0  0  0  0  0  0  0
   30.2600   29.6010   24.1340 C   0  0  0  0  0  0  0  0  0  0  0  0
   31.1680   28.8460   23.7720 O   0  0  0  0  0  0  0  0  0  0  0  0
   30.9870   31.9250   23.7870 C   0  0  0  0  0  0  0  0  0  0  0  0
   30.7490   32.4100   25.2120 C   0  0  0  0  0  0  0  0  0  0  0  0
   29.7790   33.1340   25.4810 O   0  0  0  0  0  0  0  0  0  0  0  0
   31.6190   31.9960   26.1370 N   0  0  0  0  0  0  0  0  0  0  0  0
   29.5140   29.3910   25.2150 N   0  0  0  0  0  0  0  0  0  0  0  0
   29.6870   28.2240   26.0630 C   0  0  2  0  0  0  0  0  0  0  0  0
   29.8150   26.9570   25.2290 C   0  0  0  0  0  0  0  0  0  0  0  0
   28.9110   26.6030   24.4730 O   0  0  0  0  0  0  0  0  0  0  0  0
   28.5050   28.0830   27.0510 C   0  0  0  0  0  0  0  0  0  0  0  0
   28.6840   26.8390   27.9050 C   0  0  0  0  0  0  0  0  0  0  0  0
   28.4290   29.3200   27.9400 C   0  0  0  0  0  0  0  0  0  0  0  0
   30.9560   26.2890   25.3620 N   0  0  0  0  0  0  0  0  0  0  0  0
   31.2190   25.0600   24.6260 C   0  0  2  0  0  0  0  0  0  0  0  0
   30.4760   23.8980   25.2750 C   0  0  0  0  0  0  0  0  0  0  0  0
   30.9940   23.2460   26.1730 O   0  0  0  0  0  0  0  0  0  0  0  0
   32.7090   24.7760   24.6080 C   0  0  0  0  0  0  0  0  0  0  0  0
   29.2620   23.6360   24.8080 N   0  0  0  0  0  0  0  0  0  0  0  0
   28.4570   22.5620   25.3700 C   0  0  2  0  0  0  0  0  0  0  0  0
   28.8760   21.2090   24.8200 C   0  0  0  0  0  0  0  0  0  0  0  0
   28.7480   20.9420   23.6260 O   0  0  0  0  0  0  0  0  0  0  0  0
   26.9730   22.8330   25.0990 C   0  0  0  0  0  0  0  0  0  0  0  0
   26.4700   24.1470   25.7140 C   0  0  0  0  0  0  0  0  0  0  0  0
   24.9970   24.3420   25.4110 C   0  0  0  0  0  0  0  0  0  0  0  0
   26.6930   24.1250   27.2190 C   0  0  0  0  0  0  0  0  0  0  0  0
   29.3990   20.3610   25.6970 N   0  0  0  0  0  0  0  0  0  0  0  0
   29.8410   19.0420   25.2800 C   0  0  2  0  0  0  0  0  0  0  0  0
   28.9780   17.9100   25.8050 C   0  0  0  0  0  0  0  0  0  0  0  0
   28.2760   18.0480   26.8010 O   0  0  0  0  0  0  0  0  0  0  0  0
   31.2730   18.8130   25.7230 C   0  0  0  0  0  0  0  0  0  0  0  0
   32.2360   19.8610   25.2130 C   0  0  0  0  0  0  0  0  0  0  0  0
   33.8670   19.5460   25.8700 S   0  0  0  0  0  0  0  0  0  0  0  0
   33.5510   19.7520   27.6710 C   0  0  0  0  0  0  0  0  0  0  0  0
   29.0530   16.7810   25.1130 N   0  0  0  0  0  0  0  0  0  0  0  0
   28.3090   15.5860   25.4760 C   0  0  2  0  0  0  0  0  0  0  0  0
   29.3340   14.5170   25.8090 C   0  0  0  0  0  0  0  0  0  0  0  0
   30.4020   14.4650   25.1980 O   0  0  0  0  0  0  0  0  0  0  0  0
   27.4460   15.1140   24.2980 C   0  0  0  0  0  0  0  0  0  0  0  0
   26.4660   16.1250   23.6990 C   0  0  0  0  0  0  0  0  0  0  0  0
   25.6410   15.4450   22.6180 C   0  0  0  0  0  0  0  0  0  0  0  0
   25.5690   16.6870   24.7990 C   0  0  0  0  0  0  0  0  0  0  0  0
   29.0160   13.6580   26.7650 N   0  0  0  0  0  0  0  0  0  0  0  0
   29.9480   12.6150   27.1330 C   0  0  2  0  0  0  0  0  0  0  0  0
   29.5190   11.2660   26.5780 C   0  0  0  0  0  0  0  0  0  0  0  0
   30.2710   10.3020   26.6310 O   0  0  0  0  0  0  0  0  0  0  0  0
   30.0920   12.5500   28.6530 C   0  0  0  0  0  0  0  0  0  0  0  0
   31.3550   11.8180   29.0820 C   0  0  0  0  0  0  0  0  0  0  0  0
   31.2450   10.6710   29.5730 O   0  5  0  0  0  0  0  0  0  0  0  0
   32.4530   12.3980   28.9120 O   0  0  0  0  0  0  0  0  0  0  0  0
   28.3010   11.1980   26.0500 N   0  0  0  0  0  0  0  0  0  0  0  0
   27.7920    9.9560   25.4680 C   0  0  2  0  0  0  0  0  0  0  0  0
   26.6590   10.2490   24.4900 C   0  0  0  0  0  0  0  0  0  0  0  0
   26.6540   11.3690   23.9310 O   0  5  0  0  0  0  0  0  0  0  0  0
   27.3030    8.9840   26.5560 C   0  0  0  0  0  0  0  0  0  0  0  0
   25.7590    9.4660   27.3950 S   0  0  0  0  0  0  0  0  0  0  0  0
   25.8100    9.3490   24.2810 O   0  0  0  0  0  0  0  0  0  0  0  0
   26.1683   26.3308   13.4724 H   0  0  0  0  0  0  0  0  0  0  0  0
   26.0556   27.8257   14.1521 H   0  0  0  0  0  0  0  0  0  0  0  0
   24.8400   27.2627   13.1956 H   0  0  0  0  0  0  0  0  0  0  0  0
   24.2997   25.5242   14.7622 H   0  0  0  0  0  0  0  0  0  0  0  0
   25.6781   26.4687   17.0651 H   0  0  0  0  0  0  0  0  0  0  0  0
   26.9067   26.3466   15.7603 H   0  0  0  0  0  0  0  0  0  0  0  0
   26.0629   23.9608   15.3810 H   0  0  0  0  0  0  0  0  0  0  0  0
   25.1549   24.1439   16.9201 H   0  0  0  0  0  0  0  0  0  0  0  0
   27.2515   23.0530   17.4243 H   0  0  0  0  0  0  0  0  0  0  0  0
   27.3417   24.7343   18.0502 H   0  0  0  0  0  0  0  0  0  0  0  0
   28.4164   24.6670   15.3938 H   0  0  0  0  0  0  0  0  0  0  0  0
   30.9552   23.5915   18.3899 H   0  0  0  0  0  0  0  0  0  0  0  0
   29.1963   23.5475   18.6847 H   0  0  0  0  0  0  0  0  0  0  0  0
   30.6506   24.7032   15.0444 H   0  0  0  0  0  0  0  0  0  0  0  0
   31.7676   24.2278   16.3517 H   0  0  0  0  0  0  0  0  0  0  0  0
   22.4065   26.0919   15.6523 H   0  0  0  0  0  0  0  0  0  0  0  0
   21.3344   28.6370   15.7635 H   0  0  0  0  0  0  0  0  0  0  0  0
   20.7921   26.1007   17.3183 H   0  0  0  0  0  0  0  0  0  0  0  0
   19.8278   26.8732   16.0145 H   0  0  0  0  0  0  0  0  0  0  0  0
   20.0035   27.7791   18.9225 H   0  0  0  0  0  0  0  0  0  0  0  0
   18.2198   29.3749   18.3014 H   0  0  0  0  0  0  0  0  0  0  0  0
   18.3575   28.8610   16.5858 H   0  0  0  0  0  0  0  0  0  0  0  0
   19.7344   29.6896   17.3884 H   0  0  0  0  0  0  0  0  0  0  0  0
   18.7353   25.6806   18.5422 H   0  0  0  0  0  0  0  0  0  0  0  0
   17.7501   26.5073   17.2882 H   0  0  0  0  0  0  0  0  0  0  0  0
   17.6499   27.0359   19.0020 H   0  0  0  0  0  0  0  0  0  0  0  0
   23.2673   26.9829   18.2386 H   0  0  0  0  0  0  0  0  0  0  0  0
   22.8666   28.8830   20.3265 H   0  0  0  0  0  0  0  0  0  0  0  0
   25.0948   26.8782   19.7645 H   0  0  0  0  0  0  0  0  0  0  0  0
   23.6956   26.6996   20.8767 H   0  0  0  0  0  0  0  0  0  0  0  0
   24.6436   28.5376   22.2915 H   0  0  0  0  0  0  0  0  0  0  0  0
   26.0799   28.5821   21.2136 H   0  0  0  0  0  0  0  0  0  0  0  0
   26.5453   26.4220   24.3549 H   0  0  0  0  0  0  0  0  0  0  0  0
   25.8247   27.9819   24.1370 H   0  0  0  0  0  0  0  0  0  0  0  0
   25.4335   28.6623   17.8101 H   0  0  0  0  0  0  0  0  0  0  0  0
   27.0113   30.8293   18.8512 H   0  0  0  0  0  0  0  0  0  0  0  0
   28.0432   30.9325   16.6787 H   0  0  0  0  0  0  0  0  0  0  0  0
   26.6394   30.1193   15.9074 H   0  0  0  0  0  0  0  0  0  0  0  0
   27.1995   28.0646   17.1993 H   0  0  0  0  0  0  0  0  0  0  0  0
   28.6781   28.8953   17.7912 H   0  0  0  0  0  0  0  0  0  0  0  0
   24.4396   30.5359   16.4576 H   0  0  0  0  0  0  0  0  0  0  0  0
   24.1395   33.1154   15.4896 H   0  0  0  0  0  0  0  0  0  0  0  0
   21.6211   31.7100   16.2153 H   0  0  0  0  0  0  0  0  0  0  0  0
   22.8108   30.7063   15.3187 H   0  0  0  0  0  0  0  0  0  0  0  0
   22.8413   32.9286   13.7935 H   0  0  0  0  0  0  0  0  0  0  0  0
   21.1621   33.0070   14.4266 H   0  0  0  0  0  0  0  0  0  0  0  0
   22.2578   30.3865   13.4184 H   0  0  0  0  0  0  0  0  0  0  0  0
   21.7274   31.6352   12.2411 H   0  0  0  0  0  0  0  0  0  0  0  0
   19.5044   31.5637   13.5815 H   0  0  0  0  0  0  0  0  0  0  0  0
   20.4237   27.6101   13.2665 H   0  0  0  0  0  0  0  0  0  0  0  0
   21.7208   28.8297   13.1541 H   0  0  0  0  0  0  0  0  0  0  0  0
   17.8481   30.0157   13.6774 H   0  0  0  0  0  0  0  0  0  0  0  0
   18.2366   28.2819   13.5175 H   0  0  0  0  0  0  0  0  0  0  0  0
   22.9226   31.7345   18.5575 H   0  0  0  0  0  0  0  0  0  0  0  0
   21.5195   34.2067   19.2626 H   0  0  0  0  0  0  0  0  0  0  0  0
   21.1942   32.9952   21.4735 H   0  0  0  0  0  0  0  0  0  0  0  0
   22.0979   31.6153   20.7622 H   0  0  0  0  0  0  0  0  0  0  0  0
   19.7608   31.1395   20.5695 H   0  0  0  0  0  0  0  0  0  0  0  0
   20.3778   31.5329   18.9290 H   0  0  0  0  0  0  0  0  0  0  0  0
   19.4169   33.7689   19.0552 H   0  0  0  0  0  0  0  0  0  0  0  0
   18.9049   33.4891   20.7541 H   0  0  0  0  0  0  0  0  0  0  0  0
   17.0941   32.2199   20.0049 H   0  0  0  0  0  0  0  0  0  0  0  0
   18.2110   32.2432   16.0922 H   0  0  0  0  0  0  0  0  0  0  0  0
   19.3351   32.8660   17.3295 H   0  0  0  0  0  0  0  0  0  0  0  0
   15.6914   31.3794   18.4221 H   0  0  0  0  0  0  0  0  0  0  0  0
   16.1908   31.3656   16.7095 H   0  0  0  0  0  0  0  0  0  0  0  0
   24.7131   33.4735   19.1639 H   0  0  0  0  0  0  0  0  0  0  0  0
   25.3447   35.6436   20.9928 H   0  0  0  0  0  0  0  0  0  0  0  0
   26.4910   34.7354   19.9498 H   0  0  0  0  0  0  0  0  0  0  0  0
   25.2255   32.1975   21.3427 H   0  0  0  0  0  0  0  0  0  0  0  0
   26.4593   32.5217   24.0177 H   0  0  0  0  0  0  0  0  0  0  0  0
   25.2097   30.0096   22.8070 H   0  0  0  0  0  0  0  0  0  0  0  0
   24.2657   31.2736   23.6660 H   0  0  0  0  0  0  0  0  0  0  0  0
   25.6381   30.8890   25.4846 H   0  0  0  0  0  0  0  0  0  0  0  0
   28.4662   31.9662   24.4104 H   0  0  0  0  0  0  0  0  0  0  0  0
   30.0755   30.6730   22.2890 H   0  0  0  0  0  0  0  0  0  0  0  0
   30.9197   32.7841   23.1034 H   0  0  0  0  0  0  0  0  0  0  0  0
   31.9932   31.4849   23.7249 H   0  0  0  0  0  0  0  0  0  0  0  0
   31.5114   32.2834   27.0888 H   0  0  0  0  0  0  0  0  0  0  0  0
   32.3779   31.3987   25.8778 H   0  0  0  0  0  0  0  0  0  0  0  0
   28.8094   30.0597   25.4524 H   0  0  0  0  0  0  0  0  0  0  0  0
   30.6127   28.3539   26.6429 H   0  0  0  0  0  0  0  0  0  0  0  0
   27.5690   27.9931   26.4802 H   0  0  0  0  0  0  0  0  0  0  0  0
   27.8387   26.7488   28.6031 H   0  0  0  0  0  0  0  0  0  0  0  0
   29.6224   26.9165   28.4736 H   0  0  0  0  0  0  0  0  0  0  0  0
   28.7203   25.9512   27.2566 H   0  0  0  0  0  0  0  0  0  0  0  0
   28.2995   30.2146   27.3132 H   0  0  0  0  0  0  0  0  0  0  0  0
   29.3582   29.4112   28.5216 H   0  0  0  0  0  0  0  0  0  0  0  0
   27.5745   29.2264   28.6263 H   0  0  0  0  0  0  0  0  0  0  0  0
   31.6544   26.6403   25.9856 H   0  0  0  0  0  0  0  0  0  0  0  0
   30.8646   25.1790   23.5915 H   0  0  0  0  0  0  0  0  0  0  0  0
   32.8984   23.8468   24.0506 H   0  0  0  0  0  0  0  0  0  0  0  0
   33.0737   24.6653   25.6399 H   0  0  0  0  0  0  0  0  0  0  0  0
   33.2354   25.6098   24.1205 H   0  0  0  0  0  0  0  0  0  0  0  0
   28.8944   24.1855   24.0577 H   0  0  0  0  0  0  0  0  0  0  0  0
   28.6124   22.5485   26.4589 H   0  0  0  0  0  0  0  0  0  0  0  0
   26.3849   22.0039   25.5193 H   0  0  0  0  0  0  0  0  0  0  0  0
   26.8197   22.8765   24.0106 H   0  0  0  0  0  0  0  0  0  0  0  0
   27.0363   24.9842   25.2800 H   0  0  0  0  0  0  0  0  0  0  0  0
   24.6527   25.2863   25.8578 H   0  0  0  0  0  0  0  0  0  0  0  0
   24.4217   23.5051   25.8338 H   0  0  0  0  0  0  0  0  0  0  0  0
   24.8481   24.3761   24.3217 H   0  0  0  0  0  0  0  0  0  0  0  0
   27.7634   23.9832   27.4290 H   0  0  0  0  0  0  0  0  0  0  0  0
   26.1197   23.2977   27.6626 H   0  0  0  0  0  0  0  0  0  0  0  0
   26.3573   25.0782   27.6534 H   0  0  0  0  0  0  0  0  0  0  0  0
   29.4896   20.6332   26.6550 H   0  0  0  0  0  0  0  0  0  0  0  0
   29.8045   19.0110   24.1811 H   0  0  0  0  0  0  0  0  0  0  0  0
   31.5994   17.8302   25.3522 H   0  0  0  0  0  0  0  0  0  0  0  0
   31.3026   18.8184   26.8226 H   0  0  0  0  0  0  0  0  0  0  0  0
   31.8976   20.8569   25.5351 H   0  0  0  0  0  0  0  0  0  0  0  0
   32.2703   19.8230   24.1142 H   0  0  0  0  0  0  0  0  0  0  0  0
   34.4845   19.5853   28.2284 H   0  0  0  0  0  0  0  0  0  0  0  0
   32.7945   19.0227   27.9963 H   0  0  0  0  0  0  0  0  0  0  0  0
   33.1851   20.7711   27.8649 H   0  0  0  0  0  0  0  0  0  0  0  0
   29.6459   16.7505   24.3083 H   0  0  0  0  0  0  0  0  0  0  0  0
   27.6682   15.7876   26.3470 H   0  0  0  0  0  0  0  0  0  0  0  0
   26.8598   14.2495   24.6429 H   0  0  0  0  0  0  0  0  0  0  0  0
   28.1274   14.7979   23.4945 H   0  0  0  0  0  0  0  0  0  0  0  0
   27.0328   16.9522   23.2468 H   0  0  0  0  0  0  0  0  0  0  0  0
   24.9353   16.1694   22.1853 H   0  0  0  0  0  0  0  0  0  0  0  0
   25.0817   14.6057   23.0570 H   0  0  0  0  0  0  0  0  0  0  0  0
   26.3090   15.0681   21.8296 H   0  0  0  0  0  0  0  0  0  0  0  0
   26.1901   17.1723   25.5663 H   0  0  0  0  0  0  0  0  0  0  0  0
   24.9936   15.8688   25.2567 H   0  0  0  0  0  0  0  0  0  0  0  0
   24.8771   17.4248   24.3667 H   0  0  0  0  0  0  0  0  0  0  0  0
   28.1342   13.7301   27.2311 H   0  0  0  0  0  0  0  0  0  0  0  0
   30.9292   12.8645   26.7030 H   0  0  0  0  0  0  0  0  0  0  0  0
   29.2198   12.0243   29.0689 H   0  0  0  0  0  0  0  0  0  0  0  0
   30.1255   13.5755   29.0495 H   0  0  0  0  0  0  0  0  0  0  0  0
   27.7207   12.0124   26.0506 H   0  0  0  0  0  0  0  0  0  0  0  0
   28.6128    9.4736   24.9170 H   0  0  0  0  0  0  0  0  0  0  0  0
   28.0922    8.9019   27.3178 H   0  0  0  0  0  0  0  0  0  0  0  0
   27.1425    8.0020   26.0870 H   0  0  0  0  0  0  0  0  0  0  0  0
   25.8871   10.3588   27.8450 H   0  0  0  0  0  0  0  0  0  0  0  0
  1  2  1  0  0  0  0
  1129  1  0  0  0  0
  1130  1  0  0  0  0
  1131  1  0  0  0  0
  2  3  1  0  0  0  0
  2  5  1  0  0  0  0
  2132  1  6  0  0  0
  3  4  2  0  0  0  0
  3 12  1  0  0  0  0
  5  6  1  0  0  0  0
  5133  1  0  0  0  0
  5134  1  0  0  0  0
  6  7  1  0  0  0  0
  6135  1  0  0  0  0
  6136  1  0  0  0  0
  7  8  1  0  0  0  0
  7137  1  0  0  0  0
  7138  1  0  0  0  0
  8  9  1  0  0  0  0
  8139  1  0  0  0  0
  9 10  1  0  0  0  0
  9 11  1  0  0  0  0
 10140  1  0  0  0  0
 10141  1  0  0  0  0
 11142  1  0  0  0  0
 11143  1  0  0  0  0
 12 13  1  0  0  0  0
 12144  1  0  0  0  0
 13 14  1  0  0  0  0
 13 16  1  0  0  0  0
 13145  1  6  0  0  0
 14 15  2  0  0  0  0
 14 20  1  0  0  0  0
 16 17  1  0  0  0  0
 16146  1  0  0  0  0
 16147  1  0  0  0  0
 17 18  1  0  0  0  0
 17 19  1  0  0  0  0
 17148  1  0  0  0  0
 18149  1  0  0  0  0
 18150  1  0  0  0  0
 18151  1  0  0  0  0
 19152  1  0  0  0  0
 19153  1  0  0  0  0
 19154  1  0  0  0  0
 20 21  1  0  0  0  0
 20155  1  0  0  0  0
 21 22  1  0  0  0  0
 21 24  1  0  0  0  0
 21156  1  1  0  0  0
 22 23  2  0  0  0  0
 22 29  1  0  0  0  0
 24 25  1  0  0  0  0
 24157  1  0  0  0  0
 24158  1  0  0  0  0
 25 26  1  0  0  0  0
 25159  1  0  0  0  0
 25160  1  0  0  0  0
 26 27  2  0  0  0  0
 26 28  1  0  0  0  0
 28161  1  0  0  0  0
 28162  1  0  0  0  0
 29 30  1  0  0  0  0
 29163  1  0  0  0  0
 30 31  1  0  0  0  0
 30 33  1  0  0  0  0
 30164  1  1  0  0  0
 31 32  2  0  0  0  0
 31 38  1  0  0  0  0
 33 34  1  0  0  0  0
 33165  1  0  0  0  0
 33166  1  0  0  0  0
 34 35  1  0  0  0  0
 34167  1  0  0  0  0
 34168  1  0  0  0  0
 35 36  1  0  0  0  0
 35 37  2  0  0  0  0
 38 39  1  0  0  0  0
 38169  1  0  0  0  0
 39 40  1  0  0  0  0
 39 42  1  0  0  0  0
 39170  1  6  0  0  0
 40 41  2  0  0  0  0
 40 49  1  0  0  0  0
 42 43  1  0  0  0  0
 42171  1  0  0  0  0
 42172  1  0  0  0  0
 43 44  1  0  0  0  0
 43173  1  0  0  0  0
 43174  1  0  0  0  0
 44 45  1  0  0  0  0
 44175  1  0  0  0  0
 44176  1  0  0  0  0
 45 46  1  0  0  0  0
 45177  1  0  0  0  0
 46 47  1  0  0  0  0
 46 48  1  0  0  0  0
 47178  1  0  0  0  0
 47179  1  0  0  0  0
 48180  1  0  0  0  0
 48181  1  0  0  0  0
 49 50  1  0  0  0  0
 49182  1  0  0  0  0
 50 51  1  0  0  0  0
 50 53  1  0  0  0  0
 50183  1  6  0  0  0
 51 52  2  0  0  0  0
 51 60  1  0  0  0  0
 53 54  1  0  0  0  0
 53184  1  0  0  0  0
 53185  1  0  0  0  0
 54 55  1  0  0  0  0
 54186  1  0  0  0  0
 54187  1  0  0  0  0
 55 56  1  0  0  0  0
 55188  1  0  0  0  0
 55189  1  0  0  0  0
 56 57  1  0  0  0  0
 56190  1  0  0  0  0
 57 58  1  0  0  0  0
 57 59  1  0  0  0  0
 58191  1  0  0  0  0
 58192  1  0  0  0  0
 59193  1  0  0  0  0
 59194  1  0  0  0  0
 60 61  1  0  0  0  0
 60195  1  0  0  0  0
 61 62  1  0  0  0  0
 61196  1  0  0  0  0
 61197  1  0  0  0  0
 62 63  2  0  0  0  0
 62 64  1  0  0  0  0
 64 65  1  0  0  0  0
 64198  1  0  0  0  0
 65 66  1  0  0  0  0
 65 68  1  0  0  0  0
 65199  1  1  0  0  0
 66 67  2  0  0  0  0
 66 70  1  0  0  0  0
 68 69  1  0  0  0  0
 68200  1  0  0  0  0
 68201  1  0  0  0  0
 69202  1  0  0  0  0
 70 71  1  0  0  0  0
 70203  1  0  0  0  0
 71 72  1  0  0  0  0
 71 74  1  0  0  0  0
 71204  1  6  0  0  0
 72 73  2  0  0  0  0
 72 78  1  0  0  0  0
 74 75  1  0  0  0  0
 74205  1  0  0  0  0
 74206  1  0  0  0  0
 75 76  2  0  0  0  0
 75 77  1  0  0  0  0
 77207  1  0  0  0  0
 77208  1  0  0  0  0
 78 79  1  0  0  0  0
 78209  1  0  0  0  0
 79 80  1  0  0  0  0
 79 82  1  0  0  0  0
 79210  1  1  0  0  0
 80 81  2  0  0  0  0
 80 85  1  0  0  0  0
 82 83  1  0  0  0  0
 82 84  1  0  0  0  0
 82211  1  0  0  0  0
 83212  1  0  0  0  0
 83213  1  0  0  0  0
 83214  1  0  0  0  0
 84215  1  0  0  0  0
 84216  1  0  0  0  0
 84217  1  0  0  0  0
 85 86  1  0  0  0  0
 85218  1  0  0  0  0
 86 87  1  0  0  0  0
 86 89  1  0  0  0  0
 86219  1  6  0  0  0
 87 88  2  0  0  0  0
 87 90  1  0  0  0  0
 89220  1  0  0  0  0
 89221  1  0  0  0  0
 89222  1  0  0  0  0
 90 91  1  0  0  0  0
 90223  1  0  0  0  0
 91 92  1  0  0  0  0
 91 94  1  0  0  0  0
 91224  1  1  0  0  0
 92 93  2  0  0  0  0
 92 98  1  0  0  0  0
 94 95  1  0  0  0  0
 94225  1  0  0  0  0
 94226  1  0  0  0  0
 95 96  1  0  0  0  0
 95 97  1  0  0  0  0
 95227  1  0  0  0  0
 96228  1  0  0  0  0
 96229  1  0  0  0  0
 96230  1  0  0  0  0
 97231  1  0  0  0  0
 97232  1  0  0  0  0
 97233  1  0  0  0  0
 98 99  1  0  0  0  0
 98234  1  0  0  0  0
 99100  1  0  0  0  0
 99102  1  0  0  0  0
 99235  1  6  0  0  0
100101  2  0  0  0  0
100106  1  0  0  0  0
102103  1  0  0  0  0
102236  1  0  0  0  0
102237  1  0  0  0  0
103104  1  0  0  0  0
103238  1  0  0  0  0
103239  1  0  0  0  0
104105  1  0  0  0  0
105240  1  0  0  0  0
105241  1  0  0  0  0
105242  1  0  0  0  0
106107  1  0  0  0  0
106243  1  0  0  0  0
107108  1  0  0  0  0
107110  1  0  0  0  0
107244  1  1  0  0  0
108109  2  0  0  0  0
108114  1  0  0  0  0
110111  1  0  0  0  0
110245  1  0  0  0  0
110246  1  0  0  0  0
111112  1  0  0  0  0
111113  1  0  0  0  0
111247  1  0  0  0  0
112248  1  0  0  0  0
112249  1  0  0  0  0
112250  1  0  0  0  0
113251  1  0  0  0  0
113252  1  0  0  0  0
113253  1  0  0  0  0
114115  1  0  0  0  0
114254  1  0  0  0  0
115116  1  0  0  0  0
115118  1  0  0  0  0
115255  1  6  0  0  0
116117  2  0  0  0  0
116122  1  0  0  0  0
118119  1  0  0  0  0
118256  1  0  0  0  0
118257  1  0  0  0  0
119120  1  0  0  0  0
119121  2  0  0  0  0
122123  1  0  0  0  0
122258  1  0  0  0  0
123124  1  0  0  0  0
123126  1  0  0  0  0
123259  1  6  0  0  0
124125  1  0  0  0  0
124128  2  0  0  0  0
126127  1  0  0  0  0
126260  1  0  0  0  0
126261  1  0  0  0  0
127262  1  0  0  0  0
M  CHG  4   1   1  36  -1 120  -1 125  -1
M  END
