2gpp_ligand
 OpenBabel08222323343D

 39 40  0  0  0  0  0  0  0  0999 V2000
  -53.3290  121.8760    1.9500 N   0  0  0  0  0  0  0  0  0  0  0  0
  -51.6320  118.5440    5.4370 C   0  0  0  0  0  0  0  0  0  0  0  0
  -53.0070  118.5670    5.4900 C   0  0  0  0  0  0  0  0  0  0  0  0
  -53.7010  119.3920    4.6320 C   0  0  0  0  0  0  0  0  0  0  0  0
  -53.0340  120.1940    3.7310 C   0  0  0  0  0  0  0  0  0  0  0  0
  -53.8220  121.0710    2.8430 C   0  0  0  0  0  0  0  0  0  0  0  0
  -54.7030  124.5600   -0.1350 C   0  0  0  0  0  0  0  0  0  0  0  0
  -56.3330  126.5250   -1.0340 C   0  0  0  0  0  0  0  0  0  0  0  0
  -54.9730  124.6460   -1.4780 C   0  0  0  0  0  0  0  0  0  0  0  0
  -50.9810  119.3480    4.5360 C   0  0  0  0  0  0  0  0  0  0  0  0
  -50.1640  118.4200    7.4610 C   0  0  0  0  0  0  0  0  0  0  0  0
  -50.7790  117.6680    6.3070 C   0  0  0  0  0  0  0  0  0  0  0  0
  -51.5370  116.4660    6.8320 C   0  0  0  0  0  0  0  0  0  0  0  0
  -54.2650  122.5990    1.2530 N   0  0  0  0  0  0  0  0  0  0  0  0
  -53.8050  123.4920    0.3050 C   0  0  0  0  0  0  0  0  0  0  0  0
  -52.7010  123.4780   -0.2100 O   0  0  0  0  0  0  0  0  0  0  0  0
  -55.2350  125.4480    0.7690 C   0  0  0  0  0  0  0  0  0  0  0  0
  -56.0650  126.4490    0.3150 C   0  0  0  0  0  0  0  0  0  0  0  0
  -57.1570  127.5150   -1.5070 O   0  0  0  0  0  0  0  0  0  0  0  0
  -55.7990  125.6380   -1.9380 C   0  0  0  0  0  0  0  0  0  0  0  0
  -51.6670  120.1790    3.6830 C   0  0  0  0  0  0  0  0  0  0  0  0
  -53.5384  117.9427    6.1992 H   0  0  0  0  0  0  0  0  0  0  0  0
  -54.7843  119.4106    4.6660 H   0  0  0  0  0  0  0  0  0  0  0  0
  -54.9058  121.0409    2.9446 H   0  0  0  0  0  0  0  0  0  0  0  0
  -54.5362  123.9346   -2.1695 H   0  0  0  0  0  0  0  0  0  0  0  0
  -49.8979  119.3273    4.4958 H   0  0  0  0  0  0  0  0  0  0  0  0
  -49.5520  117.7318    8.0625 H   0  0  0  0  0  0  0  0  0  0  0  0
  -50.9614  118.8451    8.0882 H   0  0  0  0  0  0  0  0  0  0  0  0
  -49.5301  119.2313    7.0738 H   0  0  0  0  0  0  0  0  0  0  0  0
  -49.9568  117.2942    5.6791 H   0  0  0  0  0  0  0  0  0  0  0  0
  -51.9850  115.9185    5.9896 H   0  0  0  0  0  0  0  0  0  0  0  0
  -52.3314  116.8028    7.5143 H   0  0  0  0  0  0  0  0  0  0  0  0
  -50.8451  115.8039    7.3732 H   0  0  0  0  0  0  0  0  0  0  0  0
  -55.2433  122.4834    1.4252 H   0  0  0  0  0  0  0  0  0  0  0  0
  -55.0046  125.3618    1.8247 H   0  0  0  0  0  0  0  0  0  0  0  0
  -56.4988  127.1630    1.0057 H   0  0  0  0  0  0  0  0  0  0  0  0
  -58.0129  127.4329   -1.1031 H   0  0  0  0  0  0  0  0  0  0  0  0
  -56.0268  125.7215   -2.9945 H   0  0  0  0  0  0  0  0  0  0  0  0
  -51.1335  120.8123    2.9835 H   0  0  0  0  0  0  0  0  0  0  0  0
  1  6  2  0  0  0  0
  2 12  1  0  0  0  0
  3  2  2  0  0  0  0
  3 22  1  0  0  0  0
  4  3  1  0  0  0  0
  4 23  1  0  0  0  0
  5  4  2  0  0  0  0
  5 21  1  0  0  0  0
  6  5  1  0  0  0  0
  6 24  1  0  0  0  0
  7  9  2  0  0  0  0
  7 17  1  0  0  0  0
  8 18  1  0  0  0  0
  8 19  1  0  0  0  0
  9 20  1  0  0  0  0
  9 25  1  0  0  0  0
 10  2  1  0  0  0  0
 10 26  1  0  0  0  0
 11 27  1  0  0  0  0
 11 28  1  0  0  0  0
 11 29  1  0  0  0  0
 12 11  1  0  0  0  0
 12 13  1  0  0  0  0
 12 30  1  0  0  0  0
 13 31  1  0  0  0  0
 13 32  1  0  0  0  0
 13 33  1  0  0  0  0
 14  1  1  0  0  0  0
 14 15  1  0  0  0  0
 14 34  1  0  0  0  0
 15  7  1  0  0  0  0
 15 16  2  0  0  0  0
 17 18  2  0  0  0  0
 17 35  1  0  0  0  0
 18 36  1  0  0  0  0
 19 37  1  0  0  0  0
 20  8  2  0  0  0  0
 20 38  1  0  0  0  0
 21 10  2  0  0  0  0
 21 39  1  0  0  0  0
M  END
