2gvf_ligand
 OpenBabel08222323343D

115119  0  0  1  0  0  0  0  0999 V2000
  190.6710  -10.7660   48.1360 C   0  0  0  0  0  0  0  0  0  0  0  0
  190.0340  -11.7900   49.0680 C   0  0  0  0  0  0  0  0  0  0  0  0
  189.8020  -11.2810   50.4460 C   0  0  0  0  0  0  0  0  0  0  0  0
  190.7040  -11.5610   51.4660 C   0  0  0  0  0  0  0  0  0  0  0  0
  188.7000  -10.4840   50.7210 C   0  0  0  0  0  0  0  0  0  0  0  0
  190.5130  -11.0700   52.7590 C   0  0  0  0  0  0  0  0  0  0  0  0
  188.4850   -9.9920   51.9990 C   0  0  0  0  0  0  0  0  0  0  0  0
  189.3950  -10.2820   53.0070 C   0  0  0  0  0  0  0  0  0  0  0  0
  192.1750  -10.7200   48.3730 C   0  0  0  0  0  0  0  0  0  0  0  0
  192.7970  -11.7270   48.7060 O   0  0  0  0  0  0  0  0  0  0  0  0
  191.3960  -11.3270   53.8350 O   0  0  0  0  0  0  0  0  0  0  0  0
  192.5020  -12.1270   53.4680 C   0  0  0  0  0  0  0  0  0  0  0  0
  193.4990  -11.0850   53.0250 C   0  0  0  0  0  0  0  0  0  0  0  0
  194.5650  -11.7550   52.4530 O   0  0  0  0  0  0  0  0  0  0  0  0
  192.7620   -9.5530   48.1690 N   0  0  0  0  0  0  0  0  0  0  0  0
  194.2060   -9.4300   48.2100 C   0  0  1  0  0  0  0  0  0  0  0  0
  194.7350   -8.6670   46.9940 C   0  0  0  0  0  0  0  0  0  0  0  0
  196.2590   -8.5350   47.0510 C   0  0  0  0  0  0  0  0  0  0  0  0
  194.3750   -9.3680   45.6900 C   0  0  0  0  0  0  0  0  0  0  0  0
  196.8210   -7.7790   45.8650 C   0  0  0  0  0  0  0  0  0  0  0  0
  194.8800   -8.6160   44.4760 C   0  0  0  0  0  0  0  0  0  0  0  0
  196.3910   -8.4310   44.5510 C   0  0  0  0  0  0  0  0  0  0  0  0
  194.6410   -8.6560   49.4390 C   0  0  0  0  0  0  0  0  0  0  0  0
  194.3170   -7.4810   49.5760 O   0  0  0  0  0  0  0  0  0  0  0  0
  195.3160   -9.3210   50.3750 N   0  0  0  0  0  0  0  0  0  0  0  0
  195.4340  -10.7800   50.4920 C   0  0  0  0  0  0  0  0  0  0  0  0
  195.7820   -8.6470   51.5810 C   0  0  1  0  0  0  0  0  0  0  0  0
  196.3580   -9.7800   52.4080 C   0  0  0  0  0  0  0  0  0  0  0  0
  195.4860  -10.8620   51.9710 C   0  0  1  0  0  0  0  0  0  0  0  0
  196.8690   -7.6690   51.1830 C   0  0  0  0  0  0  0  0  0  0  0  0
  197.8440   -8.0430   50.5240 O   0  0  0  0  0  0  0  0  0  0  0  0
  196.6850   -6.4110   51.5720 N   0  0  0  0  0  0  0  0  0  0  0  0
  197.6280   -5.3410   51.2610 C   0  0  1  0  0  0  0  0  0  0  0  0
  196.9530   -4.2670   50.3840 C   0  0  0  0  0  0  0  0  0  0  0  0
  196.1020   -4.8340   49.2430 C   0  0  0  0  0  0  0  0  0  0  0  0
  196.0810   -4.0390   47.9920 C   0  0  0  0  0  0  0  0  0  0  0  0
  198.6940   -5.8640   53.4180 O   0  0  0  0  0  0  0  0  0  0  0  0
  198.3220   -4.7920   52.5180 C   0  0  1  0  0  0  0  0  0  0  0  0
  199.5300   -2.8090   51.6750 O   0  0  0  0  0  0  0  0  0  0  0  0
  200.6260   -4.7360   52.0000 N   0  0  0  0  0  0  0  0  0  0  0  0
  201.9470   -4.1920   51.7620 C   0  0  0  0  0  0  0  0  0  0  0  0
  202.2260   -4.1450   50.2840 C   0  0  0  0  0  0  0  0  0  0  0  0
  201.3580   -4.4080   49.4520 O   0  0  0  0  0  0  0  0  0  0  0  0
  199.5330   -3.9930   52.0210 C   0  0  0  0  0  0  0  0  0  0  0  0
  203.4560   -3.7720   49.9640 N   0  0  0  0  0  0  0  0  0  0  0  0
  203.9360   -3.6910   48.6030 C   0  0  1  0  0  0  0  0  0  0  0  0
  203.7270   -2.3680   47.8990 C   0  0  0  0  0  0  0  0  0  0  0  0
  203.3130   -2.3680   46.5820 C   0  0  0  0  0  0  0  0  0  0  0  0
  203.9990   -1.1580   48.5160 C   0  0  0  0  0  0  0  0  0  0  0  0
  203.1760   -1.1860   45.8860 C   0  0  0  0  0  0  0  0  0  0  0  0
  203.8670    0.0330   47.8320 C   0  0  0  0  0  0  0  0  0  0  0  0
  203.4570    0.0230   46.5140 C   0  0  0  0  0  0  0  0  0  0  0  0
  205.4530   -3.7330   48.7280 C   0  0  0  0  0  0  0  0  0  0  0  0
  206.0200   -3.1800   49.6800 O   0  0  0  0  0  0  0  0  0  0  0  0
  206.1330   -4.3830   47.7700 N   0  0  0  0  0  0  0  0  0  0  0  0
  207.5310   -4.3920   47.8330 C   0  0  0  0  0  0  0  0  0  0  0  0
  205.4750   -5.0340   46.7310 C   0  0  0  0  0  0  0  0  0  0  0  0
  190.2394   -9.7737   48.3337 H   0  0  0  0  0  0  0  0  0  0  0  0
  190.4742  -11.0501   47.0917 H   0  0  0  0  0  0  0  0  0  0  0  0
  190.6978  -12.6651   49.1282 H   0  0  0  0  0  0  0  0  0  0  0  0
  189.0660  -12.0926   48.6420 H   0  0  0  0  0  0  0  0  0  0  0  0
  191.5732  -12.1729   51.2532 H   0  0  0  0  0  0  0  0  0  0  0  0
  188.0003  -10.2437   49.9287 H   0  0  0  0  0  0  0  0  0  0  0  0
  187.6122   -9.3848   52.2101 H   0  0  0  0  0  0  0  0  0  0  0  0
  189.2309   -9.8876   54.0033 H   0  0  0  0  0  0  0  0  0  0  0  0
  192.2463  -12.8122   52.6464 H   0  0  0  0  0  0  0  0  0  0  0  0
  192.8801  -12.7055   54.3238 H   0  0  0  0  0  0  0  0  0  0  0  0
  193.8426  -10.5001   53.8909 H   0  0  0  0  0  0  0  0  0  0  0  0
  193.0377  -10.4117   52.2875 H   0  0  0  0  0  0  0  0  0  0  0  0
  192.2028   -8.7448   47.9841 H   0  0  0  0  0  0  0  0  0  0  0  0
  194.6468  -10.4376   48.2319 H   0  0  0  0  0  0  0  0  0  0  0  0
  194.2870   -7.6624   46.9944 H   0  0  0  0  0  0  0  0  0  0  0  0
  196.6999   -9.5426   47.0679 H   0  0  0  0  0  0  0  0  0  0  0  0
  196.5324   -7.9996   47.9722 H   0  0  0  0  0  0  0  0  0  0  0  0
  193.2802   -9.4523   45.6240 H   0  0  0  0  0  0  0  0  0  0  0  0
  194.8206  -10.3737   45.6940 H   0  0  0  0  0  0  0  0  0  0  0  0
  197.9194   -7.7793   45.9250 H   0  0  0  0  0  0  0  0  0  0  0  0
  196.4526   -6.7428   45.8906 H   0  0  0  0  0  0  0  0  0  0  0  0
  194.3964   -7.6289   44.4350 H   0  0  0  0  0  0  0  0  0  0  0  0
  194.6299   -9.1848   43.5683 H   0  0  0  0  0  0  0  0  0  0  0  0
  196.8743   -9.4156   44.4677 H   0  0  0  0  0  0  0  0  0  0  0  0
  196.7130   -7.7925   43.7151 H   0  0  0  0  0  0  0  0  0  0  0  0
  196.3509  -11.1635   50.0205 H   0  0  0  0  0  0  0  0  0  0  0  0
  194.5609  -11.3038   50.0757 H   0  0  0  0  0  0  0  0  0  0  0  0
  194.9680   -8.1300   52.1102 H   0  0  0  0  0  0  0  0  0  0  0  0
  196.2656   -9.5887   53.4873 H   0  0  0  0  0  0  0  0  0  0  0  0
  197.4114   -9.9757   52.1591 H   0  0  0  0  0  0  0  0  0  0  0  0
  196.2918  -11.6051   52.0634 H   0  0  0  0  0  0  0  0  0  0  0  0
  195.8656   -6.1883   52.1002 H   0  0  0  0  0  0  0  0  0  0  0  0
  198.4235   -5.7875   50.6464 H   0  0  0  0  0  0  0  0  0  0  0  0
  197.7393   -3.6342   49.9467 H   0  0  0  0  0  0  0  0  0  0  0  0
  196.3042   -3.6540   51.0269 H   0  0  0  0  0  0  0  0  0  0  0  0
  195.0668   -4.9191   49.6052 H   0  0  0  0  0  0  0  0  0  0  0  0
  196.4888   -5.8346   48.9996 H   0  0  0  0  0  0  0  0  0  0  0  0
  195.4423   -4.5401   47.2498 H   0  0  0  0  0  0  0  0  0  0  0  0
  197.1035   -3.9512   47.5961 H   0  0  0  0  0  0  0  0  0  0  0  0
  195.6816   -3.0358   48.2017 H   0  0  0  0  0  0  0  0  0  0  0  0
  197.9147   -6.3383   53.6830 H   0  0  0  0  0  0  0  0  0  0  0  0
  197.6367   -4.1167   53.0512 H   0  0  0  0  0  0  0  0  0  0  0  0
  200.5366   -5.7198   52.1557 H   0  0  0  0  0  0  0  0  0  0  0  0
  202.6971   -4.8285   52.2541 H   0  0  0  0  0  0  0  0  0  0  0  0
  202.0017   -3.1741   52.1755 H   0  0  0  0  0  0  0  0  0  0  0  0
  204.0860   -3.5338   50.7032 H   0  0  0  0  0  0  0  0  0  0  0  0
  203.5267   -4.5194   48.0061 H   0  0  0  0  0  0  0  0  0  0  0  0
  203.0931   -3.3083   46.0895 H   0  0  0  0  0  0  0  0  0  0  0  0
  204.3202   -1.1466   49.5513 H   0  0  0  0  0  0  0  0  0  0  0  0
  202.8502   -1.1986   44.8522 H   0  0  0  0  0  0  0  0  0  0  0  0
  204.0843    0.9723   48.3275 H   0  0  0  0  0  0  0  0  0  0  0  0
  203.3543    0.9548   45.9698 H   0  0  0  0  0  0  0  0  0  0  0  0
  207.9327   -4.9620   46.9823 H   0  0  0  0  0  0  0  0  0  0  0  0
  207.8526   -4.8622   48.7740 H   0  0  0  0  0  0  0  0  0  0  0  0
  207.9066   -3.3589   47.7922 H   0  0  0  0  0  0  0  0  0  0  0  0
  204.3883   -4.9154   46.8539 H   0  0  0  0  0  0  0  0  0  0  0  0
  205.7313   -6.1036   46.7477 H   0  0  0  0  0  0  0  0  0  0  0  0
  205.7851   -4.5976   45.7701 H   0  0  0  0  0  0  0  0  0  0  0  0
  1  2  1  0  0  0  0
  1 58  1  0  0  0  0
  1 59  1  0  0  0  0
  2  3  1  0  0  0  0
  2 60  1  0  0  0  0
  2 61  1  0  0  0  0
  3  5  1  0  0  0  0
  4  3  2  0  0  0  0
  4 62  1  0  0  0  0
  5 63  1  0  0  0  0
  6  4  1  0  0  0  0
  6  8  2  0  0  0  0
  7  5  2  0  0  0  0
  7 64  1  0  0  0  0
  8  7  1  0  0  0  0
  8 65  1  0  0  0  0
  9  1  1  0  0  0  0
  9 10  2  0  0  0  0
 11  6  1  0  0  0  0
 12 11  1  0  0  0  0
 12 66  1  0  0  0  0
 12 67  1  0  0  0  0
 13 12  1  0  0  0  0
 13 68  1  0  0  0  0
 13 69  1  0  0  0  0
 14 13  1  0  0  0  0
 15  9  1  0  0  0  0
 15 70  1  0  0  0  0
 16 15  1  0  0  0  0
 16 17  1  0  0  0  0
 16 71  1  1  0  0  0
 17 18  1  0  0  0  0
 17 19  1  0  0  0  0
 17 72  1  0  0  0  0
 18 20  1  0  0  0  0
 18 73  1  0  0  0  0
 18 74  1  0  0  0  0
 19 21  1  0  0  0  0
 19 75  1  0  0  0  0
 19 76  1  0  0  0  0
 20 22  1  0  0  0  0
 20 77  1  0  0  0  0
 20 78  1  0  0  0  0
 21 22  1  0  0  0  0
 21 79  1  0  0  0  0
 21 80  1  0  0  0  0
 22 81  1  0  0  0  0
 22 82  1  0  0  0  0
 23 16  1  0  0  0  0
 23 24  2  0  0  0  0
 25 23  1  0  0  0  0
 25 26  1  0  0  0  0
 26 83  1  0  0  0  0
 26 84  1  0  0  0  0
 27 25  1  0  0  0  0
 27 28  1  0  0  0  0
 27 85  1  1  0  0  0
 28 29  1  0  0  0  0
 28 86  1  0  0  0  0
 28 87  1  0  0  0  0
 29 14  1  0  0  0  0
 29 26  1  0  0  0  0
 29 88  1  6  0  0  0
 30 27  1  0  0  0  0
 30 31  2  0  0  0  0
 32 30  1  0  0  0  0
 32 89  1  0  0  0  0
 33 32  1  0  0  0  0
 33 34  1  0  0  0  0
 33 90  1  6  0  0  0
 34 35  1  0  0  0  0
 34 91  1  0  0  0  0
 34 92  1  0  0  0  0
 35 36  1  0  0  0  0
 35 93  1  0  0  0  0
 35 94  1  0  0  0  0
 36 95  1  0  0  0  0
 36 96  1  0  0  0  0
 36 97  1  0  0  0  0
 37 98  1  0  0  0  0
 38 33  1  0  0  0  0
 38 37  1  0  0  0  0
 38 99  1  1  0  0  0
 40 41  1  0  0  0  0
 40 44  1  0  0  0  0
 40100  1  0  0  0  0
 41 42  1  0  0  0  0
 41101  1  0  0  0  0
 41102  1  0  0  0  0
 42 43  2  0  0  0  0
 42 45  1  0  0  0  0
 44 38  1  0  0  0  0
 44 39  2  0  0  0  0
 45 46  1  0  0  0  0
 45103  1  0  0  0  0
 46 47  1  0  0  0  0
 46 53  1  0  0  0  0
 46104  1  6  0  0  0
 47 48  2  0  0  0  0
 47 49  1  0  0  0  0
 48 50  1  0  0  0  0
 48105  1  0  0  0  0
 49 51  2  0  0  0  0
 49106  1  0  0  0  0
 50 52  2  0  0  0  0
 50107  1  0  0  0  0
 51 52  1  0  0  0  0
 51108  1  0  0  0  0
 52109  1  0  0  0  0
 53 54  2  0  0  0  0
 53 55  1  0  0  0  0
 55 56  1  0  0  0  0
 55 57  1  0  0  0  0
 56110  1  0  0  0  0
 56111  1  0  0  0  0
 56112  1  0  0  0  0
 57113  1  0  0  0  0
 57114  1  0  0  0  0
 57115  1  0  0  0  0
M  END
