2gvz_ligand
 OpenBabel08222323343D

 62 65  0  0  1  0  0  0  0  0999 V2000
   66.4750  -13.8310   54.2670 C   0  0  0  0  0  0  0  0  0  0  0  0
   65.0900  -14.2600   54.5890 N   0  0  0  0  0  0  0  0  0  0  0  0
   64.6280  -15.4970   54.9490 C   0  0  0  0  0  0  0  0  0  0  0  0
   65.6330  -16.7210   55.0680 C   0  0  0  0  0  0  0  0  0  0  0  0
   65.0050  -18.1670   55.2880 C   0  0  0  0  0  0  0  0  0  0  0  0
   63.5100  -18.2060   55.7560 C   0  0  0  0  0  0  0  0  0  0  0  0
   62.7080  -16.8750   55.5750 C   0  0  0  0  0  0  0  0  0  0  0  0
   63.2250  -15.6280   55.2040 C   0  0  0  0  0  0  0  0  0  0  0  0
   62.2010  -14.4790   55.1090 C   0  0  0  0  0  0  0  0  0  0  0  0
   62.2030  -13.3990   56.0610 O   0  0  0  0  0  0  0  0  0  0  0  0
   57.5360   -9.8790   54.5440 P   0  0  2  0  0  0  0  0  0  0  0  0
   58.0550   -8.7880   53.5430 O   0  0  0  0  0  1  0  0  0  0  0  0
   56.2280  -10.4840   54.2330 O   0  0  0  0  0  0  0  0  0  0  0  0
   57.7730   -9.6350   56.0790 O   0  0  0  0  0  0  0  0  0  0  0  0
   56.7890   -8.9600   57.0770 P   0  0  2  0  0  0  0  0  0  0  0  0
   55.6160  -10.0680   56.9290 O   0  0  0  0  0  1  0  0  0  0  0  0
   56.1280   -7.5930   56.8900 O   0  0  0  0  0  0  0  0  0  0  0  0
   57.6880   -9.3530   58.2650 O   0  0  0  0  0  0  0  0  0  0  0  0
   58.4560   -8.1580   58.8760 P   0  0  0  0  0  0  0  0  0  0  0  0
   58.9490   -7.1550   57.6840 O   0  0  0  0  0  1  0  0  0  0  0  0
   57.3550   -7.4640   59.8430 O   0  0  0  0  0  1  0  0  0  0  0  0
   59.6300   -8.6540   59.6390 O   0  0  0  0  0  0  0  0  0  0  0  0
   57.4750  -15.5500   52.2530 N   0  0  0  0  0  0  0  0  0  0  0  0
   57.2030  -16.8360   51.9360 C   0  0  0  0  0  0  0  0  0  0  0  0
   56.1400  -16.8940   51.1300 N   0  0  0  0  0  0  0  0  0  0  0  0
   55.7230  -15.6530   50.9250 C   0  0  0  0  0  0  0  0  0  0  0  0
   56.5740  -14.7780   51.6440 C   0  0  0  0  0  0  0  0  0  0  0  0
   56.3950  -13.4190   51.6250 N   0  0  0  0  0  0  0  0  0  0  0  0
   55.4100  -12.8080   50.9330 C   0  0  0  0  0  0  0  0  0  0  0  0
   54.5160  -13.6240   50.1830 N   0  0  0  0  0  0  0  0  0  0  0  0
   54.6750  -15.0600   50.1770 C   0  0  0  0  0  0  0  0  0  0  0  0
   53.8360  -15.8190   49.4700 N   0  0  0  0  0  0  0  0  0  0  0  0
   61.3070  -14.5820   54.0780 O   0  0  0  0  0  0  0  0  0  0  0  0
   60.3130  -13.5540   53.6830 C   0  0  1  0  0  0  0  0  0  0  0  0
   59.5560  -14.0960   52.4810 C   0  0  1  0  0  0  0  0  0  0  0  0
   60.4470  -14.7100   51.5470 O   0  0  0  0  0  0  0  0  0  0  0  0
   59.1710  -13.4130   54.6860 C   0  0  1  0  0  0  0  0  0  0  0  0
   58.4050  -12.0480   54.8740 C   0  0  0  0  0  0  0  0  0  0  0  0
   58.7830  -10.9190   54.3950 O   0  0  0  0  0  0  0  0  0  0  0  0
   58.1630  -14.4440   54.3430 O   0  0  0  0  0  0  0  0  0  0  0  0
   58.6190  -15.1150   53.1320 C   0  0  1  0  0  0  0  0  0  0  0  0
   66.4786  -12.7593   54.0190 H   0  0  0  0  0  0  0  0  0  0  0  0
   66.8469  -14.4075   53.4072 H   0  0  0  0  0  0  0  0  0  0  0  0
   67.1253  -14.0083   55.1363 H   0  0  0  0  0  0  0  0  0  0  0  0
   66.3002  -16.5184   55.9188 H   0  0  0  0  0  0  0  0  0  0  0  0
   66.2224  -16.7552   54.1398 H   0  0  0  0  0  0  0  0  0  0  0  0
   65.6087  -18.6833   56.0488 H   0  0  0  0  0  0  0  0  0  0  0  0
   65.0728  -18.7114   54.3346 H   0  0  0  0  0  0  0  0  0  0  0  0
   63.4970  -18.4658   56.8248 H   0  0  0  0  0  0  0  0  0  0  0  0
   62.9963  -18.9909   55.1816 H   0  0  0  0  0  0  0  0  0  0  0  0
   61.6353  -16.9236   55.7566 H   0  0  0  0  0  0  0  0  0  0  0  0
   57.7682  -17.6983   52.2867 H   0  0  0  0  0  0  0  0  0  0  0  0
   55.3029  -11.7294   50.9478 H   0  0  0  0  0  0  0  0  0  0  0  0
   53.0769  -15.3810   48.9289 H   0  0  0  0  0  0  0  0  0  0  0  0
   53.9474  -16.8430   49.4653 H   0  0  0  0  0  0  0  0  0  0  0  0
   60.8082  -12.5919   53.4853 H   0  0  0  0  0  0  0  0  0  0  0  0
   58.9880  -13.3018   51.9745 H   0  0  0  0  0  0  0  0  0  0  0  0
   60.9016  -15.4288   51.9703 H   0  0  0  0  0  0  0  0  0  0  0  0
   59.6019  -13.6531   55.6692 H   0  0  0  0  0  0  0  0  0  0  0  0
   58.3376  -11.8971   55.9615 H   0  0  0  0  0  0  0  0  0  0  0  0
   57.3984  -12.2179   54.4642 H   0  0  0  0  0  0  0  0  0  0  0  0
   59.1921  -16.0144   53.4014 H   0  0  0  0  0  0  0  0  0  0  0  0
  1 42  1  0  0  0  0
  1 43  1  0  0  0  0
  1 44  1  0  0  0  0
  2  1  1  0  0  0  0
  3  2  2  0  0  0  0
  3  4  1  0  0  0  0
  4  5  1  0  0  0  0
  4 45  1  0  0  0  0
  4 46  1  0  0  0  0
  5 47  1  0  0  0  0
  5 48  1  0  0  0  0
  6  5  1  0  0  0  0
  6 49  1  0  0  0  0
  6 50  1  0  0  0  0
  7  6  1  0  0  0  0
  7 51  1  0  0  0  0
  8  3  1  0  0  0  0
  8  7  2  0  0  0  0
  9  8  1  0  0  0  0
  9 10  2  0  0  0  0
 11 12  1  6  0  0  0
 11 13  2  0  0  0  0
 11 14  1  0  0  0  0
 14 15  1  0  0  0  0
 15 16  1  1  0  0  0
 15 17  2  0  0  0  0
 15 18  1  0  0  0  0
 18 19  1  0  0  0  0
 19 20  1  0  0  0  0
 19 21  1  0  0  0  0
 19 22  2  0  0  0  0
 23 24  1  0  0  0  0
 23 27  1  0  0  0  0
 24 25  2  0  0  0  0
 24 52  1  0  0  0  0
 26 25  1  0  0  0  0
 26 31  1  0  0  0  0
 27 26  2  0  0  0  0
 27 28  1  0  0  0  0
 28 29  2  0  0  0  0
 29 30  1  0  0  0  0
 29 53  1  0  0  0  0
 31 30  2  0  0  0  0
 31 32  1  0  0  0  0
 32 54  1  0  0  0  0
 32 55  1  0  0  0  0
 33  9  1  0  0  0  0
 34 33  1  0  0  0  0
 34 35  1  0  0  0  0
 34 56  1  6  0  0  0
 35 36  1  0  0  0  0
 35 41  1  0  0  0  0
 35 57  1  6  0  0  0
 36 58  1  0  0  0  0
 37 34  1  0  0  0  0
 37 40  1  0  0  0  0
 37 59  1  1  0  0  0
 38 37  1  0  0  0  0
 38 39  1  0  0  0  0
 38 60  1  0  0  0  0
 38 61  1  0  0  0  0
 39 11  1  0  0  0  0
 40 41  1  0  0  0  0
 41 23  1  0  0  0  0
 41 62  1  1  0  0  0
M  END
