2h5a_ligand
 OpenBabel08222323343D

 23 23  0  0  1  0  0  0  0  0999 V2000
  -48.2460  -14.0200   16.3590 C   0  0  2  0  0  0  0  0  0  0  0  0
  -46.9950  -13.3260   16.4110 O   0  0  0  0  0  0  0  0  0  0  0  0
  -46.3920  -12.7730   17.8010 P   0  0  0  0  0  0  0  0  0  0  0  0
  -46.0910  -13.9640   18.6810 O   0  0  0  0  0  1  0  0  0  0  0  0
  -47.3990  -11.8500   18.4640 O   0  0  0  0  0  1  0  0  0  0  0  0
  -45.1440  -12.0070   17.4500 O   0  0  0  0  0  0  0  0  0  0  0  0
  -48.0590  -15.5440   16.2730 C   0  0  2  0  0  0  0  0  0  0  0  0
  -47.3920  -16.0550   17.4250 O   0  0  0  0  0  0  0  0  0  0  0  0
  -47.2970  -15.9240   14.9990 C   0  0  1  0  0  0  0  0  0  0  0  0
  -47.0740  -17.3330   14.9660 O   0  0  0  0  0  0  0  0  0  0  0  0
  -48.1030  -15.4140   13.7980 C   0  0  2  0  0  0  0  0  0  0  0  0
  -47.4240  -15.6170   12.5630 O   0  0  0  0  0  0  0  0  0  0  0  0
  -48.3440  -13.9090   13.9610 C   0  0  0  0  0  0  0  0  0  0  0  0
  -48.9850  -13.5800   15.2080 O   0  0  0  0  0  0  0  0  0  0  0  0
  -48.8167  -13.7847   17.2694 H   0  0  0  0  0  0  0  0  0  0  0  0
  -49.0564  -16.0055   16.2259 H   0  0  0  0  0  0  0  0  0  0  0  0
  -47.9049  -15.8579   18.2000 H   0  0  0  0  0  0  0  0  0  0  0  0
  -46.3179  -15.4227   15.0010 H   0  0  0  0  0  0  0  0  0  0  0  0
  -46.6015  -17.5592   14.1735 H   0  0  0  0  0  0  0  0  0  0  0  0
  -49.0671  -15.9427   13.7680 H   0  0  0  0  0  0  0  0  0  0  0  0
  -47.2665  -16.5456   12.4384 H   0  0  0  0  0  0  0  0  0  0  0  0
  -48.9832  -13.5636   13.1351 H   0  0  0  0  0  0  0  0  0  0  0  0
  -47.3748  -13.3906   13.9162 H   0  0  0  0  0  0  0  0  0  0  0  0
  1  2  1  0  0  0  0
  1  7  1  0  0  0  0
  1 14  1  0  0  0  0
  1 15  1  1  0  0  0
  2  3  1  0  0  0  0
  3  4  1  0  0  0  0
  3  5  1  0  0  0  0
  3  6  2  0  0  0  0
  7  8  1  0  0  0  0
  7  9  1  0  0  0  0
  7 16  1  6  0  0  0
  8 17  1  0  0  0  0
  9 10  1  0  0  0  0
  9 11  1  0  0  0  0
  9 18  1  1  0  0  0
 10 19  1  0  0  0  0
 11 12  1  0  0  0  0
 11 13  1  0  0  0  0
 11 20  1  6  0  0  0
 12 21  1  0  0  0  0
 13 14  1  0  0  0  0
 13 22  1  0  0  0  0
 13 23  1  0  0  0  0
M  END
