2h5d_ligand
 OpenBabel08222323343D

 68 68  0  0  1  0  0  0  0  0999 V2000
   12.0030   41.8080   18.0220 C   0  0  0  0  0  0  0  0  0  0  0  0
   11.7280   41.1780   17.0060 O   0  0  0  0  0  0  0  0  0  0  0  0
   11.3350   43.1730   18.2350 C   0  0  0  0  0  0  0  0  0  0  0  0
   10.4690   43.5190   17.0560 C   0  0  0  0  0  0  0  0  0  0  0  0
   11.2390   43.7670   15.7640 C   0  0  0  0  0  0  0  0  0  0  0  0
   12.4520   43.8460   15.7000 O   0  0  0  0  0  0  0  0  0  0  0  0
   10.4530   43.8690   14.6090 O   0  0  0  0  0  0  0  0  0  0  0  0
   11.0430   44.6880   13.5810 C   0  0  0  0  0  0  0  0  0  0  0  0
   12.8750   41.4490   18.9540 N   0  0  0  0  0  0  0  0  0  0  0  0
   13.6860   40.2690   18.6580 C   0  0  2  0  0  0  0  0  0  0  0  0
   12.8270   39.0200   18.7220 C   0  0  0  0  0  0  0  0  0  0  0  0
   11.9950   38.8650   19.6150 O   0  0  0  0  0  0  0  0  0  0  0  0
   14.7980   40.1460   19.6830 C   0  0  0  0  0  0  0  0  0  0  0  0
   13.0720   38.0980   17.8260 N   0  0  0  0  0  0  0  0  0  0  0  0
   12.4190   36.8260   17.7730 C   0  0  2  0  0  0  0  0  0  0  0  0
   13.4750   35.7560   17.4670 C   0  0  0  0  0  0  0  0  0  0  0  0
   14.3870   36.0250   16.6620 O   0  0  0  0  0  0  0  0  0  0  0  0
   11.3340   36.7470   16.7070 C   0  0  0  0  0  0  0  0  0  0  0  0
   13.3040   34.6160   18.0430 N   0  0  0  0  0  0  0  0  0  0  0  0
   14.0830   33.4280   17.6150 C   0  0  2  0  0  0  0  0  0  0  0  0
   13.7060   33.0860   16.1690 C   0  0  0  0  0  0  0  0  0  0  0  0
   12.5510   33.2550   15.8030 O   0  0  0  0  0  0  0  0  0  0  0  0
   13.6280   32.3410   18.5960 C   0  0  0  0  0  0  0  0  0  0  0  0
   12.9650   33.0490   19.7250 C   0  0  0  0  0  0  0  0  0  0  0  0
   12.3130   34.2340   19.0490 C   0  0  0  0  0  0  0  0  0  0  0  0
   14.6750   32.5670   15.4270 N   0  0  0  0  0  0  0  0  0  0  0  0
   14.5030   32.0300   14.0660 C   0  0  1  0  0  0  0  0  0  0  0  0
   15.2560   32.9000   13.0420 C   0  0  0  0  0  0  0  0  0  0  0  0
   14.7040   34.3090   12.9850 C   0  0  0  0  0  0  0  0  0  0  0  0
   16.7660   32.8940   13.2340 C   0  0  0  0  0  0  0  0  0  0  0  0
   14.8490   30.4590   14.0470 B   0  0  0  0  0  0  0  0  0  0  0  0
   14.8550   29.9150   12.6660 O   0  0  0  0  0  0  0  0  0  0  0  0
   13.8450   29.6500   14.8530 O   0  0  0  0  0  0  0  0  0  0  0  0
   12.1118   43.9428   18.3531 H   0  0  0  0  0  0  0  0  0  0  0  0
   10.7146   43.1359   19.1426 H   0  0  0  0  0  0  0  0  0  0  0  0
    9.9027   44.4300   17.2999 H   0  0  0  0  0  0  0  0  0  0  0  0
    9.7698   42.6870   16.8861 H   0  0  0  0  0  0  0  0  0  0  0  0
   10.3729   44.7216   12.7093 H   0  0  0  0  0  0  0  0  0  0  0  0
   12.0116   44.2607   13.2826 H   0  0  0  0  0  0  0  0  0  0  0  0
   11.1948   45.7071   13.9661 H   0  0  0  0  0  0  0  0  0  0  0  0
   12.9724   41.9562   19.8103 H   0  0  0  0  0  0  0  0  0  0  0  0
   14.1195   40.3669   17.6518 H   0  0  0  0  0  0  0  0  0  0  0  0
   15.4069   39.2578   19.4586 H   0  0  0  0  0  0  0  0  0  0  0  0
   14.3613   40.0468   20.6877 H   0  0  0  0  0  0  0  0  0  0  0  0
   15.4320   41.0441   19.6458 H   0  0  0  0  0  0  0  0  0  0  0  0
   13.7630   38.2961   17.1308 H   0  0  0  0  0  0  0  0  0  0  0  0
   11.9625   36.6248   18.7534 H   0  0  0  0  0  0  0  0  0  0  0  0
   10.8768   35.7466   16.7226 H   0  0  0  0  0  0  0  0  0  0  0  0
   11.7778   36.9318   15.7176 H   0  0  0  0  0  0  0  0  0  0  0  0
   10.5637   37.5054   16.9108 H   0  0  0  0  0  0  0  0  0  0  0  0
   15.1666   33.6017   17.6906 H   0  0  0  0  0  0  0  0  0  0  0  0
   14.4946   31.7700   18.9607 H   0  0  0  0  0  0  0  0  0  0  0  0
   12.9188   31.6579   18.1057 H   0  0  0  0  0  0  0  0  0  0  0  0
   13.7018   33.3770   20.4730 H   0  0  0  0  0  0  0  0  0  0  0  0
   12.2136   32.4067   20.2075 H   0  0  0  0  0  0  0  0  0  0  0  0
   11.3606   33.9478   18.5789 H   0  0  0  0  0  0  0  0  0  0  0  0
   12.1380   35.0515   19.7638 H   0  0  0  0  0  0  0  0  0  0  0  0
   15.5933   32.5379   15.8219 H   0  0  0  0  0  0  0  0  0  0  0  0
   13.4358   32.1135   13.8127 H   0  0  0  0  0  0  0  0  0  0  0  0
   15.0683   32.4484   12.0567 H   0  0  0  0  0  0  0  0  0  0  0  0
   15.2683   34.8941   12.2440 H   0  0  0  0  0  0  0  0  0  0  0  0
   14.7994   34.7805   13.9742 H   0  0  0  0  0  0  0  0  0  0  0  0
   13.6434   34.2759   12.6953 H   0  0  0  0  0  0  0  0  0  0  0  0
   17.1269   31.8555   13.2702 H   0  0  0  0  0  0  0  0  0  0  0  0
   17.0179   33.4027   14.1762 H   0  0  0  0  0  0  0  0  0  0  0  0
   17.2445   33.4194   12.3944 H   0  0  0  0  0  0  0  0  0  0  0  0
   15.1075   28.9994   12.6886 H   0  0  0  0  0  0  0  0  0  0  0  0
   13.8195   29.9769   15.7446 H   0  0  0  0  0  0  0  0  0  0  0  0
  1  2  2  0  0  0  0
  1  3  1  0  0  0  0
  1  9  1  0  0  0  0
  3  4  1  0  0  0  0
  3 34  1  0  0  0  0
  3 35  1  0  0  0  0
  4  5  1  0  0  0  0
  4 36  1  0  0  0  0
  4 37  1  0  0  0  0
  5  6  2  0  0  0  0
  5  7  1  0  0  0  0
  7  8  1  0  0  0  0
  8 38  1  0  0  0  0
  8 39  1  0  0  0  0
  8 40  1  0  0  0  0
  9 10  1  0  0  0  0
  9 41  1  0  0  0  0
 10 11  1  0  0  0  0
 10 13  1  0  0  0  0
 10 42  1  6  0  0  0
 11 12  2  0  0  0  0
 11 14  1  0  0  0  0
 13 43  1  0  0  0  0
 13 44  1  0  0  0  0
 13 45  1  0  0  0  0
 14 15  1  0  0  0  0
 14 46  1  0  0  0  0
 15 16  1  0  0  0  0
 15 18  1  0  0  0  0
 15 47  1  1  0  0  0
 16 17  2  0  0  0  0
 16 19  1  0  0  0  0
 18 48  1  0  0  0  0
 18 49  1  0  0  0  0
 18 50  1  0  0  0  0
 19 20  1  0  0  0  0
 19 25  1  0  0  0  0
 20 21  1  0  0  0  0
 20 23  1  0  0  0  0
 20 51  1  1  0  0  0
 21 22  2  0  0  0  0
 21 26  1  0  0  0  0
 23 24  1  0  0  0  0
 23 52  1  0  0  0  0
 23 53  1  0  0  0  0
 24 25  1  0  0  0  0
 24 54  1  0  0  0  0
 24 55  1  0  0  0  0
 25 56  1  0  0  0  0
 25 57  1  0  0  0  0
 26 27  1  0  0  0  0
 26 58  1  0  0  0  0
 27 28  1  0  0  0  0
 27 31  1  0  0  0  0
 27 59  1  6  0  0  0
 28 29  1  0  0  0  0
 28 30  1  0  0  0  0
 28 60  1  0  0  0  0
 29 61  1  0  0  0  0
 29 62  1  0  0  0  0
 29 63  1  0  0  0  0
 30 64  1  0  0  0  0
 30 65  1  0  0  0  0
 30 66  1  0  0  0  0
 31 32  1  0  0  0  0
 31 33  1  0  0  0  0
 32 67  1  0  0  0  0
 33 68  1  0  0  0  0
M  END
