2h5i_ligand
 OpenBabel08222323343D

 62 61  0  0  1  0  0  0  0  0999 V2000
   -6.7620   71.9270   27.0170 C   0  0  0  0  0  0  0  0  0  0  0  0
   -5.5790   72.0730   26.7120 O   0  0  0  0  0  0  0  0  0  0  0  0
   -7.1800   71.6770   28.4470 C   0  0  0  0  0  0  0  0  0  0  0  0
   -7.7510   71.9860   26.1320 N   0  0  0  0  0  0  0  0  0  0  0  0
   -7.4770   72.1480   24.7040 C   0  0  2  0  0  0  0  0  0  0  0  0
   -7.0780   73.5880   24.3940 C   0  0  0  0  0  0  0  0  0  0  0  0
   -7.7570   74.5280   24.8490 O   0  0  0  0  0  0  0  0  0  0  0  0
   -8.6970   71.7420   23.8800 C   0  0  0  0  0  0  0  0  0  0  0  0
   -9.0730   70.2820   23.9380 C   0  0  0  0  0  0  0  0  0  0  0  0
   -8.1920   69.3910   23.9140 O   0  5  0  0  0  0  0  0  0  0  0  0
  -10.2930   69.9830   23.9730 O   0  0  0  0  0  0  0  0  0  0  0  0
   -6.0060   73.7660   23.6180 N   0  0  0  0  0  0  0  0  0  0  0  0
   -5.5140   75.0960   23.2600 C   0  0  2  0  0  0  0  0  0  0  0  0
   -5.0880   75.1420   21.7920 C   0  0  0  0  0  0  0  0  0  0  0  0
   -4.7960   74.0430   21.2890 O   0  0  0  0  0  0  0  0  0  0  0  0
   -4.2910   75.4600   24.1230 C   0  0  0  0  0  0  0  0  0  0  0  0
   -4.5220   75.3070   25.6290 C   0  0  0  0  0  0  0  0  0  0  0  0
   -3.3760   75.8390   26.4730 C   0  0  0  0  0  0  0  0  0  0  0  0
   -2.2060   75.8790   26.0280 O   0  5  0  0  0  0  0  0  0  0  0  0
   -3.6190   76.2470   27.6420 O   0  0  0  0  0  0  0  0  0  0  0  0
   -4.9830   76.2970   21.1410 N   0  0  0  0  0  0  0  0  0  0  0  0
   -4.5070   76.2410   19.7390 C   0  0  2  0  0  0  0  0  0  0  0  0
   -3.0780   76.7240   19.5290 C   0  0  0  0  0  0  0  0  0  0  0  0
   -2.5610   77.5850   20.2350 O   0  0  0  0  0  0  0  0  0  0  0  0
   -5.4620   77.0370   18.8290 C   0  0  0  0  0  0  0  0  0  0  0  0
   -6.8410   76.3820   18.7880 C   0  0  0  0  0  0  0  0  0  0  0  0
   -5.6100   78.4890   19.2490 C   0  0  0  0  0  0  0  0  0  0  0  0
   -2.3880   76.1850   18.5140 N   0  0  0  0  0  0  0  0  0  0  0  0
   -1.0600   76.5340   18.0330 C   0  0  2  0  0  0  0  0  0  0  0  0
   -1.0790   77.5420   16.8920 C   0  0  0  0  0  0  0  0  0  0  0  0
    0.1510   77.9840   16.3580 O   0  0  0  0  0  0  0  0  0  0  0  0
   -0.3130   75.2450   17.6400 C   0  0  0  0  0  0  0  0  0  0  0  0
    0.3610   74.5270   18.7920 C   0  0  0  0  0  0  0  0  0  0  0  0
    0.7580   75.2090   19.7610 O   0  5  0  0  0  0  0  0  0  0  0  0
    0.8080   73.3560   18.6780 O   0  0  0  0  0  0  0  0  0  0  0  0
   -8.2743   71.5768   28.4969 H   0  0  0  0  0  0  0  0  0  0  0  0
   -6.8601   72.5212   29.0755 H   0  0  0  0  0  0  0  0  0  0  0  0
   -6.7101   70.7510   28.8098 H   0  0  0  0  0  0  0  0  0  0  0  0
   -8.6977   71.9186   26.4469 H   0  0  0  0  0  0  0  0  0  0  0  0
   -6.6388   71.4891   24.4334 H   0  0  0  0  0  0  0  0  0  0  0  0
   -8.4944   71.9967   22.8293 H   0  0  0  0  0  0  0  0  0  0  0  0
   -9.5568   72.3263   24.2397 H   0  0  0  0  0  0  0  0  0  0  0  0
   -5.5231   72.9625   23.2698 H   0  0  0  0  0  0  0  0  0  0  0  0
   -6.3149   75.8305   23.4303 H   0  0  0  0  0  0  0  0  0  0  0  0
   -4.0234   76.5073   23.9191 H   0  0  0  0  0  0  0  0  0  0  0  0
   -3.4561   74.8051   23.8331 H   0  0  0  0  0  0  0  0  0  0  0  0
   -4.6542   74.2385   25.8546 H   0  0  0  0  0  0  0  0  0  0  0  0
   -5.4370   75.8547   25.8987 H   0  0  0  0  0  0  0  0  0  0  0  0
   -5.2152   77.1656   21.5788 H   0  0  0  0  0  0  0  0  0  0  0  0
   -4.5405   75.1861   19.4291 H   0  0  0  0  0  0  0  0  0  0  0  0
   -5.0418   77.0213   17.8126 H   0  0  0  0  0  0  0  0  0  0  0  0
   -7.5050   76.9660   18.1337 H   0  0  0  0  0  0  0  0  0  0  0  0
   -7.2623   76.3503   19.8036 H   0  0  0  0  0  0  0  0  0  0  0  0
   -6.7491   75.3580   18.3970 H   0  0  0  0  0  0  0  0  0  0  0  0
   -4.6186   78.9646   19.2798 H   0  0  0  0  0  0  0  0  0  0  0  0
   -6.0708   78.5370   20.2467 H   0  0  0  0  0  0  0  0  0  0  0  0
   -6.2476   79.0171   18.5247 H   0  0  0  0  0  0  0  0  0  0  0  0
   -2.8468   75.4450   18.0222 H   0  0  0  0  0  0  0  0  0  0  0  0
   -0.5156   77.0001   18.8675 H   0  0  0  0  0  0  0  0  0  0  0  0
   -2.0224   77.9146   16.4957 H   0  0  0  0  0  0  0  0  0  0  0  0
    0.4588   75.5079   16.9017 H   0  0  0  0  0  0  0  0  0  0  0  0
   -1.0376   74.5549   17.1832 H   0  0  0  0  0  0  0  0  0  0  0  0
  1  2  2  0  0  0  0
  1  3  1  0  0  0  0
  1  4  1  0  0  0  0
  3 36  1  0  0  0  0
  3 37  1  0  0  0  0
  3 38  1  0  0  0  0
  4  5  1  0  0  0  0
  4 39  1  0  0  0  0
  5  6  1  0  0  0  0
  5  8  1  0  0  0  0
  5 40  1  6  0  0  0
  6  7  2  0  0  0  0
  6 12  1  0  0  0  0
  8  9  1  0  0  0  0
  8 41  1  0  0  0  0
  8 42  1  0  0  0  0
  9 10  1  0  0  0  0
  9 11  2  0  0  0  0
 12 13  1  0  0  0  0
 12 43  1  0  0  0  0
 13 14  1  0  0  0  0
 13 16  1  0  0  0  0
 13 44  1  1  0  0  0
 14 15  2  0  0  0  0
 14 21  1  0  0  0  0
 16 17  1  0  0  0  0
 16 45  1  0  0  0  0
 16 46  1  0  0  0  0
 17 18  1  0  0  0  0
 17 47  1  0  0  0  0
 17 48  1  0  0  0  0
 18 19  1  0  0  0  0
 18 20  2  0  0  0  0
 21 22  1  0  0  0  0
 21 49  1  0  0  0  0
 22 23  1  0  0  0  0
 22 25  1  0  0  0  0
 22 50  1  6  0  0  0
 23 24  2  0  0  0  0
 23 28  1  0  0  0  0
 25 26  1  0  0  0  0
 25 27  1  0  0  0  0
 25 51  1  0  0  0  0
 26 52  1  0  0  0  0
 26 53  1  0  0  0  0
 26 54  1  0  0  0  0
 27 55  1  0  0  0  0
 27 56  1  0  0  0  0
 27 57  1  0  0  0  0
 28 29  1  0  0  0  0
 28 58  1  0  0  0  0
 29 30  1  0  0  0  0
 29 32  1  0  0  0  0
 29 59  1  1  0  0  0
 30 31  2  0  0  0  0
 30 60  1  0  0  0  0
 32 33  1  0  0  0  0
 32 61  1  0  0  0  0
 32 62  1  0  0  0  0
 33 34  1  0  0  0  0
 33 35  2  0  0  0  0
M  CHG  3  10  -1  19  -1  34  -1
M  END
