2h5j_ligand
 OpenBabel08222323343D

 67 66  0  0  1  0  0  0  0  0999 V2000
   22.4020   14.2030   45.8600 C   0  0  0  0  0  0  0  0  0  0  0  0
   22.3930   13.0010   45.5760 O   0  0  0  0  0  0  0  0  0  0  0  0
   22.6150   14.6460   47.2930 C   0  0  0  0  0  0  0  0  0  0  0  0
   22.2360   15.1710   44.9720 N   0  0  0  0  0  0  0  0  0  0  0  0
   21.9310   14.9550   43.5610 C   0  0  2  0  0  0  0  0  0  0  0  0
   23.1890   14.5770   42.7970 C   0  0  0  0  0  0  0  0  0  0  0  0
   24.1860   15.3030   42.7840 O   0  0  0  0  0  0  0  0  0  0  0  0
   21.2910   16.1970   42.9430 C   0  0  0  0  0  0  0  0  0  0  0  0
   19.8820   16.5220   43.3830 C   0  0  0  0  0  0  0  0  0  0  0  0
   19.0930   15.6260   43.7700 O   0  5  0  0  0  0  0  0  0  0  0  0
   19.5120   17.7220   43.3410 O   0  0  0  0  0  0  0  0  0  0  0  0
   23.2070   13.4220   42.1350 N   0  0  0  0  0  0  0  0  0  0  0  0
   24.4020   13.0240   41.3920 C   0  0  2  0  0  0  0  0  0  0  0  0
   23.9920   12.6330   39.9740 C   0  0  0  0  0  0  0  0  0  0  0  0
   22.7830   12.6180   39.7350 O   0  0  0  0  0  0  0  0  0  0  0  0
   25.0940   11.8510   42.0790 C   0  0  0  0  0  0  0  0  0  0  0  0
   25.3310   12.0980   43.5670 C   0  0  0  0  0  0  0  0  0  0  0  0
   25.9940   10.6600   44.4260 S   0  0  0  0  0  0  0  0  0  0  0  0
   27.7550   10.9320   44.2010 C   0  0  0  0  0  0  0  0  0  0  0  0
   24.9340   12.3070   39.1180 N   0  0  0  0  0  0  0  0  0  0  0  0
   24.6480   11.9790   37.7290 C   0  0  2  0  0  0  0  0  0  0  0  0
   24.9350   10.5090   37.4330 C   0  0  0  0  0  0  0  0  0  0  0  0
   25.9290    9.9630   37.9220 O   0  0  0  0  0  0  0  0  0  0  0  0
   25.4850   12.8320   36.7690 C   0  0  0  0  0  0  0  0  0  0  0  0
   25.2920   14.3280   36.9080 C   0  0  0  0  0  0  0  0  0  0  0  0
   26.2310   14.9670   37.9170 C   0  0  0  0  0  0  0  0  0  0  0  0
   27.4240   14.6830   37.9700 O   0  0  0  0  0  0  0  0  0  0  0  0
   25.6890   15.8560   38.7390 N   0  0  0  0  0  0  0  0  0  0  0  0
   24.0720    9.9110   36.6260 N   0  0  0  0  0  0  0  0  0  0  0  0
   24.2150    8.5530   36.1210 C   0  0  2  0  0  0  0  0  0  0  0  0
   24.5950    8.5140   34.6730 C   0  0  0  0  0  0  0  0  0  0  0  0
   25.2810    7.4560   34.0890 O   0  0  0  0  0  0  0  0  0  0  0  0
   22.8820    7.8030   36.2590 C   0  0  0  0  0  0  0  0  0  0  0  0
   22.7160    7.0770   37.5680 C   0  0  0  0  0  0  0  0  0  0  0  0
   23.7430    6.8270   38.2350 O   0  5  0  0  0  0  0  0  0  0  0  0
   21.5590    6.7690   37.9150 O   0  0  0  0  0  0  0  0  0  0  0  0
   22.5904   15.7445   47.3447 H   0  0  0  0  0  0  0  0  0  0  0  0
   23.5914   14.2841   47.6474 H   0  0  0  0  0  0  0  0  0  0  0  0
   21.8178   14.2312   47.9274 H   0  0  0  0  0  0  0  0  0  0  0  0
   22.3257   16.1149   45.2898 H   0  0  0  0  0  0  0  0  0  0  0  0
   21.2152   14.1232   43.4860 H   0  0  0  0  0  0  0  0  0  0  0  0
   21.2760   16.0571   41.8521 H   0  0  0  0  0  0  0  0  0  0  0  0
   21.9261   17.0595   43.1934 H   0  0  0  0  0  0  0  0  0  0  0  0
   22.4035   12.8268   42.1459 H   0  0  0  0  0  0  0  0  0  0  0  0
   25.0995   13.8734   41.3473 H   0  0  0  0  0  0  0  0  0  0  0  0
   26.0651   11.6802   41.5913 H   0  0  0  0  0  0  0  0  0  0  0  0
   24.4647   10.9558   41.9665 H   0  0  0  0  0  0  0  0  0  0  0  0
   24.3733   12.3732   44.0330 H   0  0  0  0  0  0  0  0  0  0  0  0
   26.0434   12.9292   43.6747 H   0  0  0  0  0  0  0  0  0  0  0  0
   28.3162   10.1171   44.6816 H   0  0  0  0  0  0  0  0  0  0  0  0
   28.0391   11.8917   44.6574 H   0  0  0  0  0  0  0  0  0  0  0  0
   27.9883   10.9537   43.1263 H   0  0  0  0  0  0  0  0  0  0  0  0
   25.8829   12.2833   39.4325 H   0  0  0  0  0  0  0  0  0  0  0  0
   23.5822   12.1770   37.5421 H   0  0  0  0  0  0  0  0  0  0  0  0
   25.2195   12.5479   35.7401 H   0  0  0  0  0  0  0  0  0  0  0  0
   26.5465   12.6067   36.9493 H   0  0  0  0  0  0  0  0  0  0  0  0
   24.2565   14.5177   37.2268 H   0  0  0  0  0  0  0  0  0  0  0  0
   25.4650   14.7944   35.9269 H   0  0  0  0  0  0  0  0  0  0  0  0
   26.2549   16.3118   39.4260 H   0  0  0  0  0  0  0  0  0  0  0  0
   24.7146   16.0703   38.6716 H   0  0  0  0  0  0  0  0  0  0  0  0
   23.2647   10.4290   36.3434 H   0  0  0  0  0  0  0  0  0  0  0  0
   24.9900    8.0406   36.7099 H   0  0  0  0  0  0  0  0  0  0  0  0
   25.2150    9.4061   34.5006 H   0  0  0  0  0  0  0  0  0  0  0  0
   23.6533    8.6079   34.1123 H   0  0  0  0  0  0  0  0  0  0  0  0
   26.1213    7.3491   34.5190 H   0  0  0  0  0  0  0  0  0  0  0  0
   22.8145    7.0664   35.4448 H   0  0  0  0  0  0  0  0  0  0  0  0
   22.0641    8.5322   36.1626 H   0  0  0  0  0  0  0  0  0  0  0  0
  1  2  2  0  0  0  0
  1  3  1  0  0  0  0
  1  4  1  0  0  0  0
  3 37  1  0  0  0  0
  3 38  1  0  0  0  0
  3 39  1  0  0  0  0
  4  5  1  0  0  0  0
  4 40  1  0  0  0  0
  5  6  1  0  0  0  0
  5  8  1  0  0  0  0
  5 41  1  6  0  0  0
  6  7  2  0  0  0  0
  6 12  1  0  0  0  0
  8  9  1  0  0  0  0
  8 42  1  0  0  0  0
  8 43  1  0  0  0  0
  9 10  1  0  0  0  0
  9 11  2  0  0  0  0
 12 13  1  0  0  0  0
 12 44  1  0  0  0  0
 13 14  1  0  0  0  0
 13 16  1  0  0  0  0
 13 45  1  6  0  0  0
 14 15  2  0  0  0  0
 14 20  1  0  0  0  0
 16 17  1  0  0  0  0
 16 46  1  0  0  0  0
 16 47  1  0  0  0  0
 17 18  1  0  0  0  0
 17 48  1  0  0  0  0
 17 49  1  0  0  0  0
 18 19  1  0  0  0  0
 19 50  1  0  0  0  0
 19 51  1  0  0  0  0
 19 52  1  0  0  0  0
 20 21  1  0  0  0  0
 20 53  1  0  0  0  0
 21 22  1  0  0  0  0
 21 24  1  0  0  0  0
 21 54  1  6  0  0  0
 22 23  2  0  0  0  0
 22 29  1  0  0  0  0
 24 25  1  0  0  0  0
 24 55  1  0  0  0  0
 24 56  1  0  0  0  0
 25 26  1  0  0  0  0
 25 57  1  0  0  0  0
 25 58  1  0  0  0  0
 26 27  2  0  0  0  0
 26 28  1  0  0  0  0
 28 59  1  0  0  0  0
 28 60  1  0  0  0  0
 29 30  1  0  0  0  0
 29 61  1  0  0  0  0
 30 31  1  0  0  0  0
 30 33  1  0  0  0  0
 30 62  1  1  0  0  0
 31 32  1  0  0  0  0
 31 63  1  0  0  0  0
 31 64  1  0  0  0  0
 32 65  1  0  0  0  0
 33 34  1  0  0  0  0
 33 66  1  0  0  0  0
 33 67  1  0  0  0  0
 34 35  1  0  0  0  0
 34 36  2  0  0  0  0
M  CHG  2  10  -1  35  -1
M  END
