2h6q_ligand
 OpenBabel08222323343D

123122  0  0  1  0  0  0  0  0999 V2000
    4.7450    6.1730   46.0520 N   0  3  0  0  0  0  0  0  0  0  0  0
    6.1310    5.6240   46.0130 C   0  0  2  0  0  0  0  0  0  0  0  0
    6.7390    5.7210   44.6130 C   0  0  0  0  0  0  0  0  0  0  0  0
    7.9440    5.9280   44.4790 O   0  0  0  0  0  0  0  0  0  0  0  0
    6.1450    4.1690   46.4950 C   0  0  0  0  0  0  0  0  0  0  0  0
    5.9150    5.5830   43.5710 N   0  0  0  0  0  0  0  0  0  0  0  0
    6.4470    5.5700   42.2080 C   0  0  2  0  0  0  0  0  0  0  0  0
    7.2030    6.8570   41.8530 C   0  0  0  0  0  0  0  0  0  0  0  0
    8.1140    6.8360   41.0350 O   0  0  0  0  0  0  0  0  0  0  0  0
    5.3430    5.3070   41.1750 C   0  0  0  0  0  0  0  0  0  0  0  0
    5.9150    5.0820   39.7630 C   0  0  0  0  0  0  0  0  0  0  0  0
    4.8320    4.7980   38.7220 C   0  0  0  0  0  0  0  0  0  0  0  0
    4.0240    3.6160   39.0380 N   0  0  0  0  0  0  0  0  0  0  0  0
    4.2430    2.3860   38.5520 C   0  0  0  0  0  3  0  0  0  0  0  0
    5.2710    2.1360   37.7180 N   0  0  0  0  0  0  0  0  0  0  0  0
    3.4250    1.3950   38.8950 N   0  0  0  0  0  0  0  0  0  0  0  0
    6.8320    7.9670   42.4710 N   0  0  0  0  0  0  0  0  0  0  0  0
    7.4010    9.2700   42.0740 C   0  0  2  0  0  0  0  0  0  0  0  0
    8.7180    9.6170   42.7900 C   0  0  0  0  0  0  0  0  0  0  0  0
    9.3070   10.6880   42.5570 O   0  0  0  0  0  0  0  0  0  0  0  0
    6.3730   10.4180   42.2530 C   0  0  2  0  0  0  0  0  0  0  0  0
    6.0790   10.5510   43.6360 O   0  0  0  0  0  0  0  0  0  0  0  0
    5.0590   10.1550   41.4750 C   0  0  0  0  0  0  0  0  0  0  0  0
    9.1810    8.7170   43.6520 N   0  0  0  0  0  0  0  0  0  0  0  0
   10.5230    8.8330   44.2560 C   0  0  1  0  0  0  0  0  0  0  0  0
   10.3560    8.8710   45.7660 C   0  0  0  0  0  0  0  0  0  0  0  0
    9.5100   10.0750   46.1800 C   0  0  0  0  0  0  0  0  0  0  0  0
   10.1750   11.4040   45.8040 C   0  0  0  0  0  0  0  0  0  0  0  0
    9.3280   12.5920   46.2880 C   0  0  0  0  0  0  0  0  0  0  0  0
    9.6800   13.8800   45.6510 N   0  3  0  0  0  0  0  0  0  0  0  0
   11.3990    7.6700   43.8530 C   0  0  0  0  0  0  0  0  0  0  0  0
   10.9030    6.6800   43.3130 O   0  0  0  0  0  0  0  0  0  0  0  0
   11.1380   14.1480   45.6860 C   0  0  0  0  0  0  0  0  0  0  0  0
    9.0180   14.9920   46.3650 C   0  0  0  0  0  0  0  0  0  0  0  0
    9.2100   13.8320   44.2500 C   0  0  0  0  0  0  0  0  0  0  0  0
   12.7010    7.7490   44.1080 N   0  0  0  0  0  0  0  0  0  0  0  0
   13.5880    6.6510   43.7410 C   0  0  2  0  0  0  0  0  0  0  0  0
   13.6950    5.7300   44.9340 C   0  0  0  0  0  0  0  0  0  0  0  0
   14.0650    6.1740   46.0270 O   0  0  0  0  0  0  0  0  0  0  0  0
   14.9750    7.1570   43.3600 C   0  0  0  0  0  0  0  0  0  0  0  0
   14.9850    8.2540   42.3570 C   0  0  0  0  0  0  0  0  0  0  0  0
   16.3520    8.8710   42.1940 C   0  0  0  0  0  0  0  0  0  0  0  0
   17.3770    8.2090   42.3850 O   0  0  0  0  0  0  0  0  0  0  0  0
   16.3800   10.1540   41.8390 N   0  0  0  0  0  0  0  0  0  0  0  0
   13.3410    4.4640   44.7320 N   0  0  0  0  0  0  0  0  0  0  0  0
   13.2960    3.4770   45.8190 C   0  0  2  0  0  0  0  0  0  0  0  0
   14.1430    2.2340   45.5340 C   0  0  0  0  0  0  0  0  0  0  0  0
   14.1720    1.2840   46.3320 O   0  0  0  0  0  0  0  0  0  0  0  0
   11.8400    3.0390   46.0960 C   0  0  2  0  0  0  0  0  0  0  0  0
   11.2400    2.6010   44.8670 O   0  0  0  0  0  0  0  0  0  0  0  0
   11.0160    4.2070   46.6770 C   0  0  0  0  0  0  0  0  0  0  0  0
   14.8340    2.2350   44.4030 N   0  0  0  0  0  0  0  0  0  0  0  0
   15.5700    1.0530   43.9860 C   0  0  2  0  0  0  0  0  0  0  0  0
   17.0200    1.1680   44.4200 C   0  0  0  0  0  0  0  0  0  0  0  0
   17.4420    2.2700   44.7820 O   0  5  0  0  0  0  0  0  0  0  0  0
   15.4700    0.8750   42.4980 C   0  0  0  0  0  0  0  0  0  0  0  0
   17.7764    0.1604   44.4109 O   0  0  0  0  0  0  0  0  0  0  0  0
    4.3779    6.0924   46.9873 H   0  0  0  0  0  0  0  0  0  0  0  0
    4.1601    5.6543   45.4157 H   0  0  0  0  0  0  0  0  0  0  0  0
    4.7601    7.1433   45.7795 H   0  0  0  0  0  0  0  0  0  0  0  0
    6.7524    6.2207   46.6969 H   0  0  0  0  0  0  0  0  0  0  0  0
    7.1737    3.7809   46.4596 H   0  0  0  0  0  0  0  0  0  0  0  0
    5.5010    3.5605   45.8431 H   0  0  0  0  0  0  0  0  0  0  0  0
    5.7705    4.1214   47.5282 H   0  0  0  0  0  0  0  0  0  0  0  0
    4.9311    5.4882   43.7228 H   0  0  0  0  0  0  0  0  0  0  0  0
    7.1651    4.7389   42.1483 H   0  0  0  0  0  0  0  0  0  0  0  0
    4.6664    6.1739   41.1499 H   0  0  0  0  0  0  0  0  0  0  0  0
    4.7803    4.4113   41.4769 H   0  0  0  0  0  0  0  0  0  0  0  0
    6.6041    4.2252   39.7956 H   0  0  0  0  0  0  0  0  0  0  0  0
    6.4660    5.9843   39.4593 H   0  0  0  0  0  0  0  0  0  0  0  0
    5.3166    4.6399   37.7473 H   0  0  0  0  0  0  0  0  0  0  0  0
    4.1659    5.6714   38.6630 H   0  0  0  0  0  0  0  0  0  0  0  0
    3.2291    3.7399   39.6812 H   0  0  0  0  0  0  0  0  0  0  0  0
    5.4208    1.1833   37.3564 H   0  0  0  0  0  0  0  0  0  0  0  0
    5.9072    2.8976   37.4420 H   0  0  0  0  0  0  0  0  0  0  0  0
    2.6360    1.5756   39.5320 H   0  0  0  0  0  0  0  0  0  0  0  0
    3.5805    0.4470   38.5236 H   0  0  0  0  0  0  0  0  0  0  0  0
    6.1618    7.9227   43.2118 H   0  0  0  0  0  0  0  0  0  0  0  0
    7.6301    9.1997   41.0004 H   0  0  0  0  0  0  0  0  0  0  0  0
    6.8191   11.3531   41.8834 H   0  0  0  0  0  0  0  0  0  0  0  0
    5.7145    9.7361   43.9609 H   0  0  0  0  0  0  0  0  0  0  0  0
    4.3652   10.9938   41.6331 H   0  0  0  0  0  0  0  0  0  0  0  0
    4.5980    9.2245   41.8378 H   0  0  0  0  0  0  0  0  0  0  0  0
    5.2810   10.0600   40.4018 H   0  0  0  0  0  0  0  0  0  0  0  0
    8.6034    7.9388   43.8984 H   0  0  0  0  0  0  0  0  0  0  0  0
   10.9949    9.7669   43.9167 H   0  0  0  0  0  0  0  0  0  0  0  0
   11.3467    8.9450   46.2382 H   0  0  0  0  0  0  0  0  0  0  0  0
    9.8592    7.9477   46.0988 H   0  0  0  0  0  0  0  0  0  0  0  0
    9.3635   10.0476   47.2698 H   0  0  0  0  0  0  0  0  0  0  0  0
    8.5337   10.0122   45.6771 H   0  0  0  0  0  0  0  0  0  0  0  0
   10.2810   11.4580   44.7105 H   0  0  0  0  0  0  0  0  0  0  0  0
   11.1693   11.4553   46.2717 H   0  0  0  0  0  0  0  0  0  0  0  0
    9.4647   12.6946   47.3746 H   0  0  0  0  0  0  0  0  0  0  0  0
    8.2718   12.3755   46.0702 H   0  0  0  0  0  0  0  0  0  0  0  0
   11.3450   15.1136   45.2015 H   0  0  0  0  0  0  0  0  0  0  0  0
   11.6709   13.3479   45.1513 H   0  0  0  0  0  0  0  0  0  0  0  0
   11.4797   14.1814   46.7310 H   0  0  0  0  0  0  0  0  0  0  0  0
    7.9296   14.8327   46.3630 H   0  0  0  0  0  0  0  0  0  0  0  0
    9.2505   15.9416   45.8608 H   0  0  0  0  0  0  0  0  0  0  0  0
    9.3811   15.0293   47.4026 H   0  0  0  0  0  0  0  0  0  0  0  0
    9.7065   13.0026   43.7249 H   0  0  0  0  0  0  0  0  0  0  0  0
    9.4528   14.7807   43.7491 H   0  0  0  0  0  0  0  0  0  0  0  0
    8.1211   13.6768   44.2336 H   0  0  0  0  0  0  0  0  0  0  0  0
   13.0735    8.5635   44.5527 H   0  0  0  0  0  0  0  0  0  0  0  0
   13.1592    6.1054   42.8875 H   0  0  0  0  0  0  0  0  0  0  0  0
   15.5463    6.3119   42.9484 H   0  0  0  0  0  0  0  0  0  0  0  0
   15.4681    7.5233   44.2725 H   0  0  0  0  0  0  0  0  0  0  0  0
   14.2811    9.0350   42.6804 H   0  0  0  0  0  0  0  0  0  0  0  0
   14.6624    7.8486   41.3867 H   0  0  0  0  0  0  0  0  0  0  0  0
   17.2563   10.6195   41.7151 H   0  0  0  0  0  0  0  0  0  0  0  0
   15.5247   10.6521   41.6962 H   0  0  0  0  0  0  0  0  0  0  0  0
   13.0967    4.1736   43.8068 H   0  0  0  0  0  0  0  0  0  0  0  0
   13.6934    3.9589   46.7244 H   0  0  0  0  0  0  0  0  0  0  0  0
   11.8446    2.2086   46.8174 H   0  0  0  0  0  0  0  0  0  0  0  0
   11.2460    3.3154   44.2407 H   0  0  0  0  0  0  0  0  0  0  0  0
    9.9857    3.8709   46.8652 H   0  0  0  0  0  0  0  0  0  0  0  0
   11.0044    5.0404   45.9591 H   0  0  0  0  0  0  0  0  0  0  0  0
   11.4704    4.5424   47.6209 H   0  0  0  0  0  0  0  0  0  0  0  0
   14.8491    3.0557   43.8319 H   0  0  0  0  0  0  0  0  0  0  0  0
   15.1271    0.1719   44.4733 H   0  0  0  0  0  0  0  0  0  0  0  0
   16.0310   -0.0222   42.1976 H   0  0  0  0  0  0  0  0  0  0  0  0
   15.8918    1.7571   41.9940 H   0  0  0  0  0  0  0  0  0  0  0  0
   14.4139    0.7597   42.2126 H   0  0  0  0  0  0  0  0  0  0  0  0
  1  2  1  0  0  0  0
  1 58  1  0  0  0  0
  1 59  1  0  0  0  0
  1 60  1  0  0  0  0
  2  3  1  0  0  0  0
  2  5  1  0  0  0  0
  2 61  1  1  0  0  0
  3  4  2  0  0  0  0
  3  6  1  0  0  0  0
  5 62  1  0  0  0  0
  5 63  1  0  0  0  0
  5 64  1  0  0  0  0
  6  7  1  0  0  0  0
  6 65  1  0  0  0  0
  7  8  1  0  0  0  0
  7 10  1  0  0  0  0
  7 66  1  6  0  0  0
  8  9  2  0  0  0  0
  8 17  1  0  0  0  0
 10 11  1  0  0  0  0
 10 67  1  0  0  0  0
 10 68  1  0  0  0  0
 11 12  1  0  0  0  0
 11 69  1  0  0  0  0
 11 70  1  0  0  0  0
 12 13  1  0  0  0  0
 12 71  1  0  0  0  0
 12 72  1  0  0  0  0
 13 14  1  0  0  0  0
 13 73  1  0  0  0  0
 14 15  1  0  0  0  0
 14 16  1  0  0  0  0
 15 74  1  0  0  0  0
 15 75  1  0  0  0  0
 16 76  1  0  0  0  0
 16 77  1  0  0  0  0
 17 18  1  0  0  0  0
 17 78  1  0  0  0  0
 18 19  1  0  0  0  0
 18 21  1  0  0  0  0
 18 79  1  6  0  0  0
 19 20  2  0  0  0  0
 19 24  1  0  0  0  0
 21 22  1  0  0  0  0
 21 23  1  0  0  0  0
 21 80  1  6  0  0  0
 22 81  1  0  0  0  0
 23 82  1  0  0  0  0
 23 83  1  0  0  0  0
 23 84  1  0  0  0  0
 24 25  1  0  0  0  0
 24 85  1  0  0  0  0
 25 26  1  0  0  0  0
 25 31  1  0  0  0  0
 25 86  1  6  0  0  0
 26 27  1  0  0  0  0
 26 87  1  0  0  0  0
 26 88  1  0  0  0  0
 27 28  1  0  0  0  0
 27 89  1  0  0  0  0
 27 90  1  0  0  0  0
 28 29  1  0  0  0  0
 28 91  1  0  0  0  0
 28 92  1  0  0  0  0
 29 30  1  0  0  0  0
 29 93  1  0  0  0  0
 29 94  1  0  0  0  0
 30 33  1  0  0  0  0
 30 34  1  0  0  0  0
 30 35  1  0  0  0  0
 31 32  2  0  0  0  0
 31 36  1  0  0  0  0
 33 95  1  0  0  0  0
 33 96  1  0  0  0  0
 33 97  1  0  0  0  0
 34 98  1  0  0  0  0
 34 99  1  0  0  0  0
 34100  1  0  0  0  0
 35101  1  0  0  0  0
 35102  1  0  0  0  0
 35103  1  0  0  0  0
 36 37  1  0  0  0  0
 36104  1  0  0  0  0
 37 38  1  0  0  0  0
 37 40  1  0  0  0  0
 37105  1  6  0  0  0
 38 39  2  0  0  0  0
 38 45  1  0  0  0  0
 40 41  1  0  0  0  0
 40106  1  0  0  0  0
 40107  1  0  0  0  0
 41 42  1  0  0  0  0
 41108  1  0  0  0  0
 41109  1  0  0  0  0
 42 43  2  0  0  0  0
 42 44  1  0  0  0  0
 44110  1  0  0  0  0
 44111  1  0  0  0  0
 45 46  1  0  0  0  0
 45112  1  0  0  0  0
 46 47  1  0  0  0  0
 46 49  1  0  0  0  0
 46113  1  1  0  0  0
 47 48  2  0  0  0  0
 47 52  1  0  0  0  0
 49 50  1  0  0  0  0
 49 51  1  0  0  0  0
 49114  1  1  0  0  0
 50115  1  0  0  0  0
 51116  1  0  0  0  0
 51117  1  0  0  0  0
 51118  1  0  0  0  0
 52 53  1  0  0  0  0
 52119  1  0  0  0  0
 53 54  1  0  0  0  0
 53 56  1  0  0  0  0
 53120  1  1  0  0  0
 54 55  1  0  0  0  0
 54 57  2  0  0  0  0
 56121  1  0  0  0  0
 56122  1  0  0  0  0
 56123  1  0  0  0  0
M  CHG  3   1   1  30   1  55  -1
M  END
