2h96_ligand
 OpenBabel08222323343D

 44 45  0  0  0  0  0  0  0  0999 V2000
   20.0930  109.2770   55.8360 C   0  0  0  0  0  0  0  0  0  0  0  0
   19.4820  107.9870   55.2500 C   0  0  0  0  0  0  0  0  0  0  0  0
   18.0470  108.1480   54.7120 C   0  0  0  0  0  0  0  0  0  0  0  0
   17.4070  109.3920   54.7830 C   0  0  0  0  0  0  0  0  0  0  0  0
   18.0260  110.5350   55.3340 C   0  0  0  0  0  0  0  0  0  0  0  0
   19.3510  110.4740   55.8530 C   0  0  0  0  0  0  0  0  0  0  0  0
   17.3070  107.0040   54.1090 C   0  0  0  0  0  0  0  0  0  0  0  0
   17.8210  106.6710   52.7820 N   0  0  0  0  0  0  0  0  0  0  0  0
   17.0080  106.5050   51.7150 C   0  0  0  0  0  0  0  0  0  0  0  0
   17.7150  106.1700   50.4610 C   0  0  0  0  0  0  0  0  0  0  0  0
   19.0790  106.0510   50.4560 N   0  0  0  0  0  0  0  0  0  0  0  0
   19.7280  105.7350   49.2910 C   0  0  0  0  0  0  0  0  0  0  0  0
   19.0120  105.5300   48.0950 C   0  0  0  0  0  0  0  0  0  0  0  0
   17.6070  105.6540   48.1010 C   0  0  0  0  0  0  0  0  0  0  0  0
   16.9420  105.9770   49.2940 C   0  0  0  0  0  0  0  0  0  0  0  0
   17.2690  111.7060   55.3400 O   0  0  0  0  0  0  0  0  0  0  0  0
   17.5380  112.6010   54.2620 C   0  0  0  0  0  0  0  0  0  0  0  0
   20.1270  106.7490   55.1850 O   0  0  0  0  0  0  0  0  0  0  0  0
   21.1780  106.6430   54.2530 C   0  0  0  0  0  0  0  0  0  0  0  0
   19.6810  105.1990   46.8790 C   0  0  0  0  0  0  0  0  0  0  0  0
   20.1900  104.9430   45.8750 N   0  0  0  0  0  0  0  0  0  0  0  0
   21.1280  105.6140   49.3010 O   0  0  0  0  0  0  0  0  0  0  0  0
   21.7770  105.9140   50.5270 C   0  0  0  0  0  0  0  0  0  0  0  0
   22.0220  104.6000   51.2780 C   0  0  0  0  0  0  0  0  0  0  0  0
   15.7810  106.6240   51.7950 O   0  0  0  0  0  0  0  0  0  0  0  0
   21.0999  109.2619   56.2372 H   0  0  0  0  0  0  0  0  0  0  0  0
   16.3968  109.4805   54.3999 H   0  0  0  0  0  0  0  0  0  0  0  0
   19.7983  111.3688   56.2704 H   0  0  0  0  0  0  0  0  0  0  0  0
   16.2436  107.2720   54.0231 H   0  0  0  0  0  0  0  0  0  0  0  0
   17.4122  106.1260   54.7633 H   0  0  0  0  0  0  0  0  0  0  0  0
   18.8075  106.5623   52.6593 H   0  0  0  0  0  0  0  0  0  0  0  0
   17.0432  105.5005   47.1880 H   0  0  0  0  0  0  0  0  0  0  0  0
   15.8628  106.0759   49.3195 H   0  0  0  0  0  0  0  0  0  0  0  0
   16.8955  113.4891   54.3538 H   0  0  0  0  0  0  0  0  0  0  0  0
   17.3319  112.0966   53.3065 H   0  0  0  0  0  0  0  0  0  0  0  0
   18.5939  112.9074   54.2946 H   0  0  0  0  0  0  0  0  0  0  0  0
   21.6041  105.6297   54.2946 H   0  0  0  0  0  0  0  0  0  0  0  0
   21.9586  107.3792   54.4953 H   0  0  0  0  0  0  0  0  0  0  0  0
   20.7920  106.8372   53.2414 H   0  0  0  0  0  0  0  0  0  0  0  0
   21.1398  106.5750   51.1328 H   0  0  0  0  0  0  0  0  0  0  0  0
   22.7370  106.4124   50.3271 H   0  0  0  0  0  0  0  0  0  0  0  0
   22.5253  104.8118   52.2329 H   0  0  0  0  0  0  0  0  0  0  0  0
   22.6569  103.9414   50.6672 H   0  0  0  0  0  0  0  0  0  0  0  0
   21.0597  104.1041   51.4729 H   0  0  0  0  0  0  0  0  0  0  0  0
  1  2  2  0  0  0  0
  1  6  1  0  0  0  0
  1 26  1  0  0  0  0
  2  3  1  0  0  0  0
  2 18  1  0  0  0  0
  3  4  2  0  0  0  0
  3  7  1  0  0  0  0
  4  5  1  0  0  0  0
  4 27  1  0  0  0  0
  5  6  2  0  0  0  0
  5 16  1  0  0  0  0
  6 28  1  0  0  0  0
  7  8  1  0  0  0  0
  7 29  1  0  0  0  0
  7 30  1  0  0  0  0
  8  9  1  0  0  0  0
  8 31  1  0  0  0  0
  9 10  1  0  0  0  0
  9 25  2  0  0  0  0
 10 11  2  0  0  0  0
 10 15  1  0  0  0  0
 11 12  1  0  0  0  0
 12 13  2  0  0  0  0
 12 22  1  0  0  0  0
 13 14  1  0  0  0  0
 13 20  1  0  0  0  0
 14 15  2  0  0  0  0
 14 32  1  0  0  0  0
 15 33  1  0  0  0  0
 16 17  1  0  0  0  0
 17 34  1  0  0  0  0
 17 35  1  0  0  0  0
 17 36  1  0  0  0  0
 18 19  1  0  0  0  0
 19 37  1  0  0  0  0
 19 38  1  0  0  0  0
 19 39  1  0  0  0  0
 20 21  3  0  0  0  0
 22 23  1  0  0  0  0
 23 24  1  0  0  0  0
 23 40  1  0  0  0  0
 23 41  1  0  0  0  0
 24 42  1  0  0  0  0
 24 43  1  0  0  0  0
 24 44  1  0  0  0  0
M  END
