2ha0_ligand
 OpenBabel08222323343D

 30 29  0  0  1  0  0  0  0  0999 V2000
   26.8280   19.2820   14.8480 N   0  3  0  0  0  0  0  0  0  0  0  0
   27.5840   18.6770   13.7260 C   0  0  0  0  0  0  0  0  0  0  0  0
   27.6420   17.1440   13.6630 C   0  0  0  0  0  0  0  0  0  0  0  0
   28.8620   15.2690   12.3190 C   0  0  2  0  0  0  0  0  0  0  0  0
   29.5670   14.9070   13.4990 O   0  0  0  0  0  0  0  0  0  0  0  0
   29.7540   14.9890   11.1030 C   0  0  0  0  0  0  0  0  0  0  0  0
   26.9340   20.7490   14.6940 C   0  0  0  0  0  0  0  0  0  0  0  0
   27.4140   18.9470   16.1360 C   0  0  0  0  0  0  0  0  0  0  0  0
   25.4030   18.8860   14.8240 C   0  0  0  0  0  0  0  0  0  0  0  0
   28.3850   16.7400   12.3830 C   0  0  0  0  0  0  0  0  0  0  0  0
   28.6188   19.0447   13.7882 H   0  0  0  0  0  0  0  0  0  0  0  0
   27.1253   19.0292   12.7903 H   0  0  0  0  0  0  0  0  0  0  0  0
   26.6214   16.7340   13.6453 H   0  0  0  0  0  0  0  0  0  0  0  0
   28.1779   16.7560   14.5418 H   0  0  0  0  0  0  0  0  0  0  0  0
   27.9683   14.6325   12.2401 H   0  0  0  0  0  0  0  0  0  0  0  0
   29.7849   13.9829   13.4654 H   0  0  0  0  0  0  0  0  0  0  0  0
   29.2177   15.2658   10.1834 H   0  0  0  0  0  0  0  0  0  0  0  0
   30.0065   13.9188   11.0721 H   0  0  0  0  0  0  0  0  0  0  0  0
   30.6774   15.5816   11.1814 H   0  0  0  0  0  0  0  0  0  0  0  0
   26.3851   21.2438   15.5088 H   0  0  0  0  0  0  0  0  0  0  0  0
   26.5033   21.0483   13.7271 H   0  0  0  0  0  0  0  0  0  0  0  0
   27.9924   21.0461   14.7317 H   0  0  0  0  0  0  0  0  0  0  0  0
   27.3565   17.8598   16.2933 H   0  0  0  0  0  0  0  0  0  0  0  0
   26.8618   19.4628   16.9354 H   0  0  0  0  0  0  0  0  0  0  0  0
   28.4669   19.2648   16.1536 H   0  0  0  0  0  0  0  0  0  0  0  0
   24.9675   19.1427   13.8470 H   0  0  0  0  0  0  0  0  0  0  0  0
   24.8607   19.4194   15.6186 H   0  0  0  0  0  0  0  0  0  0  0  0
   25.3210   17.8015   14.9884 H   0  0  0  0  0  0  0  0  0  0  0  0
   29.2698   17.3865   12.2876 H   0  0  0  0  0  0  0  0  0  0  0  0
   27.7104   16.9137   11.5317 H   0  0  0  0  0  0  0  0  0  0  0  0
  1  7  1  0  0  0  0
  1  8  1  0  0  0  0
  1  9  1  0  0  0  0
  2  1  1  0  0  0  0
  2 11  1  0  0  0  0
  2 12  1  0  0  0  0
  3  2  1  0  0  0  0
  3 13  1  0  0  0  0
  3 14  1  0  0  0  0
  4  5  1  0  0  0  0
  4  6  1  0  0  0  0
  4 10  1  0  0  0  0
  4 15  1  6  0  0  0
  5 16  1  0  0  0  0
  6 17  1  0  0  0  0
  6 18  1  0  0  0  0
  6 19  1  0  0  0  0
  7 20  1  0  0  0  0
  7 21  1  0  0  0  0
  7 22  1  0  0  0  0
  8 23  1  0  0  0  0
  8 24  1  0  0  0  0
  8 25  1  0  0  0  0
  9 26  1  0  0  0  0
  9 27  1  0  0  0  0
  9 28  1  0  0  0  0
 10  3  1  0  0  0  0
 10 29  1  0  0  0  0
 10 30  1  0  0  0  0
M  CHG  1   1   1
M  END
