2ha4_ligand
 OpenBabel08222323343D

 26 25  0  0  0  0  0  0  0  0999 V2000
   36.3000   24.2130    9.1880 N   0  3  0  0  0  0  0  0  0  0  0  0
   35.6520   23.3870    8.1650 C   0  0  0  0  0  0  0  0  0  0  0  0
   34.8950   22.2170    8.7860 C   0  0  0  0  0  0  0  0  0  0  0  0
   33.7500   22.7390    9.4640 O   0  0  0  0  0  0  0  0  0  0  0  0
   32.4630   22.0710    9.4200 C   0  0  0  0  0  0  0  0  0  0  0  0
   32.4160   20.9400    8.9750 O   0  0  0  0  0  0  0  0  0  0  0  0
   31.2520   22.7840    9.9280 C   0  0  0  0  0  0  0  0  0  0  0  0
   35.4320   25.3420    9.5620 C   0  0  0  0  0  0  0  0  0  0  0  0
   37.5710   24.6940    8.6300 C   0  0  0  0  0  0  0  0  0  0  0  0
   36.5760   23.4290   10.3950 C   0  0  0  0  0  0  0  0  0  0  0  0
   36.4209   22.9936    7.4838 H   0  0  0  0  0  0  0  0  0  0  0  0
   34.9442   24.0100    7.5985 H   0  0  0  0  0  0  0  0  0  0  0  0
   35.5440   21.6905    9.5013 H   0  0  0  0  0  0  0  0  0  0  0  0
   34.5757   21.5191    7.9980 H   0  0  0  0  0  0  0  0  0  0  0  0
   30.3712   22.1341    9.8190 H   0  0  0  0  0  0  0  0  0  0  0  0
   31.1003   23.7072    9.3494 H   0  0  0  0  0  0  0  0  0  0  0  0
   31.3929   23.0355   10.9895 H   0  0  0  0  0  0  0  0  0  0  0  0
   35.9325   25.9508   10.3294 H   0  0  0  0  0  0  0  0  0  0  0  0
   34.4819   24.9575    9.9612 H   0  0  0  0  0  0  0  0  0  0  0  0
   35.2332   25.9612    8.6749 H   0  0  0  0  0  0  0  0  0  0  0  0
   38.2011   23.8341    8.3587 H   0  0  0  0  0  0  0  0  0  0  0  0
   38.0916   25.3080    9.3797 H   0  0  0  0  0  0  0  0  0  0  0  0
   37.3721   25.3000    7.7338 H   0  0  0  0  0  0  0  0  0  0  0  0
   35.6291   23.0645   10.8199 H   0  0  0  0  0  0  0  0  0  0  0  0
   37.0898   24.0617   11.1337 H   0  0  0  0  0  0  0  0  0  0  0  0
   37.2161   22.5723   10.1374 H   0  0  0  0  0  0  0  0  0  0  0  0
  1  2  1  0  0  0  0
  1  8  1  0  0  0  0
  1  9  1  0  0  0  0
  1 10  1  0  0  0  0
  2  3  1  0  0  0  0
  2 11  1  0  0  0  0
  2 12  1  0  0  0  0
  3  4  1  0  0  0  0
  3 13  1  0  0  0  0
  3 14  1  0  0  0  0
  4  5  1  0  0  0  0
  5  6  2  0  0  0  0
  5  7  1  0  0  0  0
  7 15  1  0  0  0  0
  7 16  1  0  0  0  0
  7 17  1  0  0  0  0
  8 18  1  0  0  0  0
  8 19  1  0  0  0  0
  8 20  1  0  0  0  0
  9 21  1  0  0  0  0
  9 22  1  0  0  0  0
  9 23  1  0  0  0  0
 10 24  1  0  0  0  0
 10 25  1  0  0  0  0
 10 26  1  0  0  0  0
M  CHG  1   1   1
M  END
