2hai_ligand
 OpenBabel08222323343D

 53 55  0  0  1  0  0  0  0  0999 V2000
   39.1110   11.5860   60.6420 F   0  0  0  0  0  0  0  0  0  0  0  0
   40.2650   11.9050   60.0460 C   0  0  0  0  0  0  0  0  0  0  0  0
   41.4800   11.3840   60.5740 C   0  0  0  0  0  0  0  0  0  0  0  0
   41.4390   10.5910   61.6780 O   0  0  0  0  0  0  0  0  0  0  0  0
   42.0300   11.0530   62.8990 C   0  0  0  0  0  0  0  0  0  0  0  0
   41.2620   12.2940   63.4310 C   0  0  0  0  0  0  0  0  0  0  0  0
   42.0010    9.9160   63.9060 C   0  0  0  0  0  0  0  0  0  0  0  0
   42.7100   11.7240   59.9480 C   0  0  0  0  0  0  0  0  0  0  0  0
   42.7740   12.5580   58.8210 C   0  0  0  0  0  0  0  0  0  0  0  0
   41.5580   13.0580   58.2960 C   0  0  0  0  0  0  0  0  0  0  0  0
   40.3320   12.7240   58.9270 C   0  0  0  0  0  0  0  0  0  0  0  0
   41.5920   13.9510   57.0900 C   0  0  0  0  0  0  0  0  0  0  0  0
   41.1920   13.1240   55.8090 C   0  0  0  0  0  0  0  0  0  0  0  0
   40.9750   13.9630   54.5430 C   0  0  2  0  0  0  0  0  0  0  0  0
   42.1770   14.8980   54.1930 C   0  0  0  0  0  0  0  0  0  0  0  0
   39.7950   14.9540   54.6850 C   0  0  0  0  0  0  0  0  0  0  0  0
   38.4350   14.3430   55.1080 C   0  0  0  0  0  0  0  0  0  0  0  0
   39.4140   15.6830   53.3670 C   0  0  0  0  0  0  0  0  0  0  0  0
   38.1600   16.4720   53.8180 C   0  0  0  0  0  0  0  0  0  0  0  0
   37.4910   15.4880   54.7950 C   0  0  0  0  0  0  0  0  0  0  0  0
   40.6560   13.1010   53.3910 O   0  0  0  0  0  0  0  0  0  0  0  0
   41.6990   12.3680   52.8820 C   0  0  0  0  0  0  0  0  0  0  0  0
   41.5120   11.2790   52.3380 O   0  0  0  0  0  0  0  0  0  0  0  0
   43.0780   12.9270   53.0080 C   0  0  0  0  0  0  0  0  0  0  0  0
   43.3370   14.0930   53.7090 C   0  0  0  0  0  0  0  0  0  0  0  0
   44.6150   14.5000   53.9750 O   0  0  0  0  0  0  0  0  0  0  0  0
   43.0752   11.3392   62.7105 H   0  0  0  0  0  0  0  0  0  0  0  0
   41.7253   12.6382   64.3674 H   0  0  0  0  0  0  0  0  0  0  0  0
   40.2126   12.0230   63.6191 H   0  0  0  0  0  0  0  0  0  0  0  0
   41.3043   13.0997   62.6833 H   0  0  0  0  0  0  0  0  0  0  0  0
   42.4513   10.2522   64.8516 H   0  0  0  0  0  0  0  0  0  0  0  0
   42.5713    9.0621   63.5115 H   0  0  0  0  0  0  0  0  0  0  0  0
   40.9594    9.6104   64.0842 H   0  0  0  0  0  0  0  0  0  0  0  0
   43.6317   11.3248   60.3557 H   0  0  0  0  0  0  0  0  0  0  0  0
   43.7250   12.8114   58.3666 H   0  0  0  0  0  0  0  0  0  0  0  0
   39.4108   13.1242   58.5191 H   0  0  0  0  0  0  0  0  0  0  0  0
   42.6069   14.3556   56.9624 H   0  0  0  0  0  0  0  0  0  0  0  0
   40.8815   14.7794   57.2276 H   0  0  0  0  0  0  0  0  0  0  0  0
   40.2577   12.5859   56.0271 H   0  0  0  0  0  0  0  0  0  0  0  0
   41.9939   12.3990   55.6056 H   0  0  0  0  0  0  0  0  0  0  0  0
   42.4742   15.4584   55.0916 H   0  0  0  0  0  0  0  0  0  0  0  0
   41.8711   15.6028   53.4058 H   0  0  0  0  0  0  0  0  0  0  0  0
   40.1003   15.6972   55.4363 H   0  0  0  0  0  0  0  0  0  0  0  0
   38.4216   14.0901   56.1784 H   0  0  0  0  0  0  0  0  0  0  0  0
   38.1934   13.4476   54.5166 H   0  0  0  0  0  0  0  0  0  0  0  0
   39.1753   14.9691   52.5649 H   0  0  0  0  0  0  0  0  0  0  0  0
   40.2162   16.3568   53.0315 H   0  0  0  0  0  0  0  0  0  0  0  0
   37.5022   16.6968   52.9655 H   0  0  0  0  0  0  0  0  0  0  0  0
   38.4384   17.4085   54.3234 H   0  0  0  0  0  0  0  0  0  0  0  0
   37.2374   16.0156   55.7263 H   0  0  0  0  0  0  0  0  0  0  0  0
   36.5734   15.0888   54.3382 H   0  0  0  0  0  0  0  0  0  0  0  0
   43.9057   12.4015   52.5340 H   0  0  0  0  0  0  0  0  0  0  0  0
   44.5916   15.3155   54.4616 H   0  0  0  0  0  0  0  0  0  0  0  0
  1  2  1  0  0  0  0
  2  3  2  0  0  0  0
  2 11  1  0  0  0  0
  3  4  1  0  0  0  0
  3  8  1  0  0  0  0
  4  5  1  0  0  0  0
  5  6  1  0  0  0  0
  5  7  1  0  0  0  0
  5 27  1  0  0  0  0
  6 28  1  0  0  0  0
  6 29  1  0  0  0  0
  6 30  1  0  0  0  0
  7 31  1  0  0  0  0
  7 32  1  0  0  0  0
  7 33  1  0  0  0  0
  8  9  2  0  0  0  0
  8 34  1  0  0  0  0
  9 10  1  0  0  0  0
  9 35  1  0  0  0  0
 10 11  2  0  0  0  0
 10 12  1  0  0  0  0
 11 36  1  0  0  0  0
 12 13  1  0  0  0  0
 12 37  1  0  0  0  0
 12 38  1  0  0  0  0
 13 39  1  0  0  0  0
 13 40  1  0  0  0  0
 14 13  1  1  0  0  0
 14 15  1  0  0  0  0
 14 16  1  0  0  0  0
 14 21  1  0  0  0  0
 15 25  1  0  0  0  0
 15 41  1  0  0  0  0
 15 42  1  0  0  0  0
 16 17  1  0  0  0  0
 16 18  1  0  0  0  0
 16 43  1  0  0  0  0
 17 20  1  0  0  0  0
 17 44  1  0  0  0  0
 17 45  1  0  0  0  0
 18 19  1  0  0  0  0
 18 46  1  0  0  0  0
 18 47  1  0  0  0  0
 19 20  1  0  0  0  0
 19 48  1  0  0  0  0
 19 49  1  0  0  0  0
 20 50  1  0  0  0  0
 20 51  1  0  0  0  0
 21 22  1  0  0  0  0
 22 23  2  0  0  0  0
 22 24  1  0  0  0  0
 24 25  2  0  0  0  0
 24 52  1  0  0  0  0
 25 26  1  0  0  0  0
 26 53  1  0  0  0  0
M  END
