2hd1_ligand
 OpenBabel08222323343D

 30 31  0  0  0  0  0  0  0  0999 V2000
   75.2400   51.9130   40.7980 N   0  0  0  0  0  0  0  0  0  0  0  0
   74.3200   52.7130   41.4380 C   0  0  0  0  0  0  0  0  0  0  0  0
   74.5170   52.8150   42.7300 N   0  0  0  0  0  0  0  0  0  0  0  0
   75.6370   52.0260   42.9590 C   0  0  0  0  0  0  0  0  0  0  0  0
   76.0960   51.4650   41.7820 C   0  0  0  0  0  0  0  0  0  0  0  0
   77.1620   50.6430   41.6220 N   0  0  0  0  0  0  0  0  0  0  0  0
   77.8550   50.3790   42.7720 C   0  0  0  0  0  0  0  0  0  0  0  0
   77.4620   50.8930   44.0110 N   0  0  0  0  0  0  0  0  0  0  0  0
   76.3520   51.7100   44.1130 C   0  0  0  0  0  0  0  0  0  0  0  0
   75.9920   52.1470   45.2100 O   0  0  0  0  0  0  0  0  0  0  0  0
   78.8500   49.6620   42.7170 O   0  0  0  0  0  0  0  0  0  0  0  0
   78.2260   50.5590   45.2030 C   0  0  0  0  0  0  0  0  0  0  0  0
   77.5140   50.0460   40.3350 C   0  0  0  0  0  0  0  0  0  0  0  0
   78.5750   50.8980   39.6280 C   0  0  0  0  0  0  0  0  0  0  0  0
   78.4320   50.7430   38.1130 C   0  0  0  0  0  0  0  0  0  0  0  0
   79.9940   50.5280   40.0580 C   0  0  0  0  0  0  0  0  0  0  0  0
   73.5044   53.2144   40.9190 H   0  0  0  0  0  0  0  0  0  0  0  0
   73.9691   53.3544   43.4154 H   0  0  0  0  0  0  0  0  0  0  0  0
   79.0665   49.9047   44.9284 H   0  0  0  0  0  0  0  0  0  0  0  0
   77.5757   50.0385   45.9215 H   0  0  0  0  0  0  0  0  0  0  0  0
   78.6136   51.4812   45.6605 H   0  0  0  0  0  0  0  0  0  0  0  0
   76.6152   49.9877   39.7036 H   0  0  0  0  0  0  0  0  0  0  0  0
   77.9121   49.0340   40.5007 H   0  0  0  0  0  0  0  0  0  0  0  0
   78.4011   51.9516   39.8918 H   0  0  0  0  0  0  0  0  0  0  0  0
   79.1940   51.3550   37.6083 H   0  0  0  0  0  0  0  0  0  0  0  0
   77.4304   51.0758   37.8033 H   0  0  0  0  0  0  0  0  0  0  0  0
   78.5688   49.6868   37.8379 H   0  0  0  0  0  0  0  0  0  0  0  0
   80.0883   50.6421   41.1480 H   0  0  0  0  0  0  0  0  0  0  0  0
   80.7139   51.1913   39.5563 H   0  0  0  0  0  0  0  0  0  0  0  0
   80.2012   49.4843   39.7793 H   0  0  0  0  0  0  0  0  0  0  0  0
  1  5  1  0  0  0  0
  1  2  2  0  0  0  0
  2  3  1  0  0  0  0
  2 17  1  0  0  0  0
  3  4  1  0  0  0  0
  3 18  1  0  0  0  0
  4  9  1  0  0  0  0
  4  5  2  0  0  0  0
  5  6  1  0  0  0  0
  6 13  1  0  0  0  0
  6  7  1  0  0  0  0
  7 11  2  0  0  0  0
  7  8  1  0  0  0  0
  8 12  1  0  0  0  0
  8  9  1  0  0  0  0
  9 10  2  0  0  0  0
 12 19  1  0  0  0  0
 12 20  1  0  0  0  0
 12 21  1  0  0  0  0
 13 14  1  0  0  0  0
 13 22  1  0  0  0  0
 13 23  1  0  0  0  0
 14 16  1  0  0  0  0
 14 15  1  0  0  0  0
 14 24  1  0  0  0  0
 15 25  1  0  0  0  0
 15 26  1  0  0  0  0
 15 27  1  0  0  0  0
 16 28  1  0  0  0  0
 16 29  1  0  0  0  0
 16 30  1  0  0  0  0
M  END
