2hd6_ligand
 OpenBabel08222323343D

 32 33  0  0  0  0  0  0  0  0999 V2000
   -5.3400   -0.5360   15.9860 N   0  0  0  0  0  0  0  0  0  0  0  0
   -5.9140    0.8420   16.6720 S   0  0  0  0  0  0  0  0  0  0  0  0
   -5.3600    0.8590   17.9970 O   0  0  0  0  0  0  0  0  0  0  0  0
   -7.3280    0.8260   16.5340 O   0  0  0  0  0  0  0  0  0  0  0  0
   -5.2400    2.1820   15.7720 C   0  0  0  0  0  0  0  0  0  0  0  0
   -3.8790    2.1650   15.4100 C   0  0  0  0  0  0  0  0  0  0  0  0
   -3.3290    3.2450   14.6960 C   0  0  0  0  0  0  0  0  0  0  0  0
   -4.1410    4.3630   14.3340 C   0  0  0  0  0  0  0  0  0  0  0  0
   -5.5120    4.3620   14.7060 C   0  0  0  0  0  0  0  0  0  0  0  0
   -6.0560    3.2780   15.4200 C   0  0  0  0  0  0  0  0  0  0  0  0
   -3.6230    5.4800   13.6190 N   0  0  0  0  0  0  0  0  0  0  0  0
   -2.3490    5.7700   13.1940 C   0  0  0  0  0  0  0  0  0  0  0  0
   -1.3650    5.0690   13.3650 O   0  0  0  0  0  0  0  0  0  0  0  0
   -2.2570    7.0880   12.4680 C   0  0  0  0  0  0  0  0  0  0  0  0
   -1.5670    8.1470   13.1110 C   0  0  0  0  0  0  0  0  0  0  0  0
   -1.4390    9.4050   12.5000 C   0  0  0  0  0  0  0  0  0  0  0  0
   -1.9990    9.6430   11.2200 C   0  0  0  0  0  0  0  0  0  0  0  0
   -2.6890    8.6060   10.5610 C   0  0  0  0  0  0  0  0  0  0  0  0
   -2.8330    7.3230   11.1610 C   0  0  0  0  0  0  0  0  0  0  0  0
   -3.7220    6.0140   10.2970 S   0  0  0  0  0  0  0  0  0  0  0  0
   -4.3569   -0.7186   15.9781 H   0  0  0  0  0  0  0  0  0  0  0  0
   -5.9738   -1.1921   15.5763 H   0  0  0  0  0  0  0  0  0  0  0  0
   -3.2559    1.3205   15.6813 H   0  0  0  0  0  0  0  0  0  0  0  0
   -2.2813    3.2287   14.4185 H   0  0  0  0  0  0  0  0  0  0  0  0
   -6.1433    5.2016   14.4382 H   0  0  0  0  0  0  0  0  0  0  0  0
   -7.1032    3.2851   15.6999 H   0  0  0  0  0  0  0  0  0  0  0  0
   -4.3045    6.1736   13.3857 H   0  0  0  0  0  0  0  0  0  0  0  0
   -1.1313    7.9828   14.0899 H   0  0  0  0  0  0  0  0  0  0  0  0
   -0.9080   10.1998   13.0112 H   0  0  0  0  0  0  0  0  0  0  0  0
   -1.8973   10.6152   10.7515 H   0  0  0  0  0  0  0  0  0  0  0  0
   -3.1169    8.7881    9.5818 H   0  0  0  0  0  0  0  0  0  0  0  0
   -3.2650    5.8218    9.4193 H   0  0  0  0  0  0  0  0  0  0  0  0
  1  2  1  0  0  0  0
  1 21  1  0  0  0  0
  1 22  1  0  0  0  0
  2  3  2  0  0  0  0
  2  4  2  0  0  0  0
  2  5  1  0  0  0  0
  5  6  2  0  0  0  0
  5 10  1  0  0  0  0
  6  7  1  0  0  0  0
  6 23  1  0  0  0  0
  7  8  2  0  0  0  0
  7 24  1  0  0  0  0
  8  9  1  0  0  0  0
  8 11  1  0  0  0  0
  9 10  2  0  0  0  0
  9 25  1  0  0  0  0
 10 26  1  0  0  0  0
 11 12  1  0  0  0  0
 11 27  1  0  0  0  0
 12 13  2  0  0  0  0
 12 14  1  0  0  0  0
 14 15  2  0  0  0  0
 14 19  1  0  0  0  0
 15 16  1  0  0  0  0
 15 28  1  0  0  0  0
 16 17  2  0  0  0  0
 16 29  1  0  0  0  0
 17 18  1  0  0  0  0
 17 30  1  0  0  0  0
 18 19  2  0  0  0  0
 18 31  1  0  0  0  0
 19 20  1  0  0  0  0
 20 32  1  0  0  0  0
M  END
