2hds_ligand
 OpenBabel08222323343D

 22 22  0  0  0  0  0  0  0  0999 V2000
   27.3900    9.1420   20.1840 C   0  0  0  0  0  0  0  0  0  0  0  0
   29.2650   10.3480   21.0530 C   0  0  0  0  0  0  0  0  0  0  0  0
   25.6570   10.2090   18.9640 N   0  0  0  0  0  0  0  0  0  0  0  0
   26.8580   10.2810   19.6600 C   0  0  0  0  0  0  0  0  0  0  0  0
   28.6120    9.1760   20.8460 C   0  0  0  0  0  0  0  0  0  0  0  0
   30.5540   10.4580   21.7800 C   0  0  0  0  0  0  0  0  0  0  0  0
   28.7150   11.5380   20.5230 C   0  0  0  0  0  0  0  0  0  0  0  0
   24.1780   12.1270   20.0940 C   0  0  0  0  0  0  0  0  0  0  0  0
   27.5350   11.4980   19.7960 C   0  0  0  0  0  0  0  0  0  0  0  0
   31.1890    9.3810   22.0130 O   0  5  0  0  0  0  0  0  0  0  0  0
   31.0120   11.5810   22.1260 O   0  0  0  0  0  0  0  0  0  0  0  0
   24.6950   11.4380   18.5990 S   0  0  0  0  0  0  0  0  0  0  0  0
   25.4200   12.4650   17.9240 O   0  0  0  0  0  0  0  0  0  0  0  0
   23.5570   10.8780   17.9000 O   0  0  0  0  0  0  0  0  0  0  0  0
   26.8573    8.2032   20.0843 H   0  0  0  0  0  0  0  0  0  0  0  0
   25.3646    9.3018   18.6614 H   0  0  0  0  0  0  0  0  0  0  0  0
   29.0507    8.2512   21.2029 H   0  0  0  0  0  0  0  0  0  0  0  0
   29.2175   12.4846   20.6856 H   0  0  0  0  0  0  0  0  0  0  0  0
   23.5117   12.9791   19.8940 H   0  0  0  0  0  0  0  0  0  0  0  0
   25.0549   12.4725   20.6612 H   0  0  0  0  0  0  0  0  0  0  0  0
   23.6378   11.3688   20.6798 H   0  0  0  0  0  0  0  0  0  0  0  0
   27.1417   12.3986   19.3385 H   0  0  0  0  0  0  0  0  0  0  0  0
  1  4  2  0  0  0  0
  1  5  1  0  0  0  0
  1 15  1  0  0  0  0
  2  6  1  0  0  0  0
  2  7  1  0  0  0  0
  3 12  1  0  0  0  0
  3 16  1  0  0  0  0
  4  3  1  0  0  0  0
  4  9  1  0  0  0  0
  5  2  2  0  0  0  0
  5 17  1  0  0  0  0
  6 10  1  0  0  0  0
  6 11  2  0  0  0  0
  7  9  2  0  0  0  0
  7 18  1  0  0  0  0
  8 19  1  0  0  0  0
  8 20  1  0  0  0  0
  8 21  1  0  0  0  0
  9 22  1  0  0  0  0
 12  8  1  0  0  0  0
 12 13  2  0  0  0  0
 12 14  2  0  0  0  0
M  CHG  1  10  -1
M  END
