2hdu_ligand
 OpenBabel08222323343D

 18 18  0  0  0  0  0  0  0  0999 V2000
   21.9940    6.2380   16.6280 O   0  5  0  0  0  0  0  0  0  0  0  0
   20.7940    6.6220   16.6310 C   0  0  0  0  0  0  0  0  0  0  0  0
   20.1930    7.0820   17.6430 O   0  0  0  0  0  0  0  0  0  0  0  0
   20.0070    6.5430   15.3580 C   0  0  0  0  0  0  0  0  0  0  0  0
   18.6730    6.9590   15.2620 C   0  0  0  0  0  0  0  0  0  0  0  0
   18.0900    6.8180   14.0060 C   0  0  0  0  0  0  0  0  0  0  0  0
   19.2030    6.1690   12.8640 S   0  0  0  0  0  0  0  0  0  0  0  0
   20.4540    6.0510   14.0270 C   0  0  0  0  0  0  0  0  0  0  0  0
   21.6860    5.5730   13.7410 N   0  0  0  0  0  0  0  0  0  0  0  0
   22.0820    5.1270   12.5400 C   0  0  0  0  0  0  0  0  0  0  0  0
   21.3800    5.0920   11.5450 O   0  0  0  0  0  0  0  0  0  0  0  0
   23.4960    4.6360   12.4920 C   0  0  0  0  0  0  0  0  0  0  0  0
   18.1285    7.3655   16.1130 H   0  0  0  0  0  0  0  0  0  0  0  0
   17.0598    7.0846   13.7748 H   0  0  0  0  0  0  0  0  0  0  0  0
   22.3549    5.5503   14.4840 H   0  0  0  0  0  0  0  0  0  0  0  0
   23.7304    4.2922   11.4737 H   0  0  0  0  0  0  0  0  0  0  0  0
   23.6186    3.8015   13.1980 H   0  0  0  0  0  0  0  0  0  0  0  0
   24.1777    5.4537   12.7688 H   0  0  0  0  0  0  0  0  0  0  0  0
  1  2  1  0  0  0  0
  2  3  2  0  0  0  0
  2  4  1  0  0  0  0
  4  5  1  0  0  0  0
  4  8  2  0  0  0  0
  5  6  2  0  0  0  0
  5 13  1  0  0  0  0
  6  7  1  0  0  0  0
  6 14  1  0  0  0  0
  7  8  1  0  0  0  0
  8  9  1  0  0  0  0
  9 10  1  0  0  0  0
  9 15  1  0  0  0  0
 10 11  2  0  0  0  0
 10 12  1  0  0  0  0
 12 16  1  0  0  0  0
 12 17  1  0  0  0  0
 12 18  1  0  0  0  0
M  CHG  1   1  -1
M  END
