2hj4_ligand
 OpenBabel08222323343D

 20 20  0  0  0  0  0  0  0  0999 V2000
   23.1590   17.2320   27.8430 C   0  0  0  0  0  0  0  0  0  0  0  0
   23.1590   17.2890   29.2170 C   0  0  0  0  0  0  0  0  0  0  0  0
   22.5560   15.9930   30.0170 C   0  0  0  0  0  0  0  0  0  0  0  0
   22.0930   14.9220   29.2740 C   0  0  0  0  0  0  0  0  0  0  0  0
   22.1270   14.9870   27.8600 C   0  0  0  0  0  0  0  0  0  0  0  0
   22.6490   16.0970   27.1630 C   0  0  0  0  0  0  0  0  0  0  0  0
   20.0630   13.7590   30.3510 N   0  3  0  0  0  0  0  0  0  0  0  0
   21.4910   13.7370   29.9720 C   0  0  0  0  0  0  0  0  0  0  0  0
   23.6300   18.3080   27.1660 N   0  0  0  0  0  0  0  0  0  0  0  0
   24.0060   19.2560   27.8080 O   0  0  0  0  0  0  0  0  0  0  0  0
   23.6740   18.2840   25.9630 O   0  0  0  0  0  0  0  0  0  0  0  0
   23.5413   18.1536   29.7474 H   0  0  0  0  0  0  0  0  0  0  0  0
   22.5207   15.9751   31.1003 H   0  0  0  0  0  0  0  0  0  0  0  0
   21.7367   14.1512   27.2907 H   0  0  0  0  0  0  0  0  0  0  0  0
   22.6605   16.0818   26.0792 H   0  0  0  0  0  0  0  0  0  0  0  0
   19.8230   12.8926   30.8068 H   0  0  0  0  0  0  0  0  0  0  0  0
   19.4976   13.8715   29.5241 H   0  0  0  0  0  0  0  0  0  0  0  0
   19.8943   14.5279   30.9806 H   0  0  0  0  0  0  0  0  0  0  0  0
   22.0647   13.5869   30.8984 H   0  0  0  0  0  0  0  0  0  0  0  0
   21.6318   12.8706   29.3090 H   0  0  0  0  0  0  0  0  0  0  0  0
  1  2  2  0  0  0  0
  1  6  1  0  0  0  0
  1  9  1  0  0  0  0
  2  3  1  0  0  0  0
  2 12  1  0  0  0  0
  3  4  2  0  0  0  0
  3 13  1  0  0  0  0
  4  5  1  0  0  0  0
  4  8  1  0  0  0  0
  5  6  2  0  0  0  0
  5 14  1  0  0  0  0
  6 15  1  0  0  0  0
  7 16  1  0  0  0  0
  7 17  1  0  0  0  0
  7 18  1  0  0  0  0
  8  7  1  0  0  0  0
  8 19  1  0  0  0  0
  8 20  1  0  0  0  0
  9 10  2  0  0  0  0
  9 11  2  0  0  0  0
M  CHG  1   7   1
M  END
