2hk5_ligand
 OpenBabel08222323343D

 62 65  0  0  0  0  0  0  0  0999 V2000
   50.8600    8.9450    2.0930 O   0  0  0  0  0  0  0  0  0  0  0  0
   49.9570    9.8340    1.6810 C   0  0  0  0  0  0  0  0  0  0  0  0
   49.1740   10.5830    2.5600 C   0  0  0  0  0  0  0  0  0  0  0  0
   48.2310   11.4750    2.0540 C   0  0  0  0  0  0  0  0  0  0  0  0
   48.0640   11.6020    0.6760 C   0  0  0  0  0  0  0  0  0  0  0  0
   47.0630   12.5630    0.0980 C   0  0  0  0  0  0  0  0  0  0  0  0
   49.7910    9.9970    0.3110 C   0  0  0  0  0  0  0  0  0  0  0  0
   48.8480   10.8740   -0.2050 C   0  0  0  0  0  0  0  0  0  0  0  0
   48.7100   10.9980   -1.5470 N   0  0  0  0  0  0  0  0  0  0  0  0
   48.1220   10.0520   -2.3110 C   0  0  0  0  0  0  0  0  0  0  0  0
   48.0070   10.3040   -3.6290 N   0  0  0  0  0  0  0  0  0  0  0  0
   47.6200    8.8480   -1.8150 C   0  0  0  0  0  0  0  0  0  0  0  0
   47.0360    7.9120   -2.6660 C   0  0  0  0  0  0  0  0  0  0  0  0
   46.5400    6.7210   -2.2460 N   0  0  0  0  0  0  0  0  0  0  0  0
   46.5130    6.2580   -0.8700 C   0  0  0  0  0  0  0  0  0  0  0  0
   47.8170    5.7050   -0.2950 C   0  0  0  0  0  0  0  0  0  0  0  0
   48.0730    4.3820   -0.8520 N   0  3  0  0  0  0  0  0  0  0  0  0
   47.8700    3.2180    0.0070 C   0  0  0  0  0  0  0  0  0  0  0  0
   47.7360    1.9020   -0.7310 C   0  0  0  0  0  0  0  0  0  0  0  0
   48.5400    4.2820   -2.2280 C   0  0  0  0  0  0  0  0  0  0  0  0
   49.8750    4.9660   -2.4050 C   0  0  0  0  0  0  0  0  0  0  0  0
   46.9420    8.2130   -3.9820 N   0  0  0  0  0  0  0  0  0  0  0  0
   47.4250    9.3900   -4.4400 C   0  0  0  0  0  0  0  0  0  0  0  0
   47.3700    9.7520   -5.7880 N   0  0  0  0  0  0  0  0  0  0  0  0
   46.7260    9.1750   -6.8850 C   0  0  0  0  0  0  0  0  0  0  0  0
   45.9370    8.0330   -6.9750 C   0  0  0  0  0  0  0  0  0  0  0  0
   46.9940    9.9570   -7.9950 C   0  0  0  0  0  0  0  0  0  0  0  0
   47.7500   11.0340   -7.6980 N   0  0  0  0  0  0  0  0  0  0  0  0
   48.0310   10.9430   -6.2840 C   0  0  0  0  0  0  0  0  0  0  0  0
   46.4960    9.6290   -9.2480 C   0  0  0  0  0  0  0  0  0  0  0  0
   45.7160    8.4790   -9.3500 C   0  0  0  0  0  0  0  0  0  0  0  0
   45.4430    7.6880   -8.2310 C   0  0  0  0  0  0  0  0  0  0  0  0
   50.4289    8.2722    2.6068 H   0  0  0  0  0  0  0  0  0  0  0  0
   49.2987   10.4715    3.6310 H   0  0  0  0  0  0  0  0  0  0  0  0
   47.6281   12.0694    2.7309 H   0  0  0  0  0  0  0  0  0  0  0  0
   46.5208   13.0627    0.9143 H   0  0  0  0  0  0  0  0  0  0  0  0
   46.3495   12.0135   -0.5336 H   0  0  0  0  0  0  0  0  0  0  0  0
   47.5862   13.3161   -0.5095 H   0  0  0  0  0  0  0  0  0  0  0  0
   50.4122    9.4262   -0.3697 H   0  0  0  0  0  0  0  0  0  0  0  0
   49.0683   11.8489   -2.0036 H   0  0  0  0  0  0  0  0  0  0  0  0
   47.6853    8.6382   -0.7535 H   0  0  0  0  0  0  0  0  0  0  0  0
   46.1500    6.0928   -2.9631 H   0  0  0  0  0  0  0  0  0  0  0  0
   45.7575    5.4613   -0.8033 H   0  0  0  0  0  0  0  0  0  0  0  0
   46.2073    7.1069   -0.2408 H   0  0  0  0  0  0  0  0  0  0  0  0
   47.7330    5.6318    0.7993 H   0  0  0  0  0  0  0  0  0  0  0  0
   48.6468    6.3787   -0.5548 H   0  0  0  0  0  0  0  0  0  0  0  0
   47.1194    4.3136   -1.1713 H   0  0  0  0  0  0  0  0  0  0  0  0
   46.9513    3.3787    0.5903 H   0  0  0  0  0  0  0  0  0  0  0  0
   48.7292    3.1420    0.6896 H   0  0  0  0  0  0  0  0  0  0  0  0
   47.5871    1.0884   -0.0058 H   0  0  0  0  0  0  0  0  0  0  0  0
   48.6507    1.7125   -1.3119 H   0  0  0  0  0  0  0  0  0  0  0  0
   46.8728    1.9493   -1.4112 H   0  0  0  0  0  0  0  0  0  0  0  0
   47.8030    4.7572   -2.8921 H   0  0  0  0  0  0  0  0  0  0  0  0
   48.6433    3.2200   -2.4952 H   0  0  0  0  0  0  0  0  0  0  0  0
   50.1988    4.8726   -3.4521 H   0  0  0  0  0  0  0  0  0  0  0  0
   50.6193    4.4931   -1.7475 H   0  0  0  0  0  0  0  0  0  0  0  0
   49.7791    6.0304   -2.1444 H   0  0  0  0  0  0  0  0  0  0  0  0
   45.7146    7.4334   -6.0997 H   0  0  0  0  0  0  0  0  0  0  0  0
   48.6289   11.6402   -5.6988 H   0  0  0  0  0  0  0  0  0  0  0  0
   46.7060   10.2446  -10.1152 H   0  0  0  0  0  0  0  0  0  0  0  0
   45.3136    8.1927  -10.3150 H   0  0  0  0  0  0  0  0  0  0  0  0
   44.8392    6.7946   -8.3416 H   0  0  0  0  0  0  0  0  0  0  0  0
  1  2  1  0  0  0  0
  1 33  1  0  0  0  0
  2  3  2  0  0  0  0
  2  7  1  0  0  0  0
  3  4  1  0  0  0  0
  3 34  1  0  0  0  0
  4  5  2  0  0  0  0
  4 35  1  0  0  0  0
  5  6  1  0  0  0  0
  5  8  1  0  0  0  0
  6 36  1  0  0  0  0
  6 37  1  0  0  0  0
  6 38  1  0  0  0  0
  7  8  2  0  0  0  0
  7 39  1  0  0  0  0
  8  9  1  0  0  0  0
  9 10  1  0  0  0  0
  9 40  1  0  0  0  0
 10 11  2  0  0  0  0
 10 12  1  0  0  0  0
 11 23  1  0  0  0  0
 12 13  2  0  0  0  0
 12 41  1  0  0  0  0
 13 14  1  0  0  0  0
 13 22  1  0  0  0  0
 14 15  1  0  0  0  0
 14 42  1  0  0  0  0
 15 16  1  0  0  0  0
 15 43  1  0  0  0  0
 15 44  1  0  0  0  0
 16 17  1  0  0  0  0
 16 45  1  0  0  0  0
 16 46  1  0  0  0  0
 17 18  1  0  0  0  0
 17 20  1  0  0  0  0
 17 47  1  0  0  0  0
 18 19  1  0  0  0  0
 18 48  1  0  0  0  0
 18 49  1  0  0  0  0
 19 50  1  0  0  0  0
 19 51  1  0  0  0  0
 19 52  1  0  0  0  0
 20 21  1  0  0  0  0
 20 53  1  0  0  0  0
 20 54  1  0  0  0  0
 21 55  1  0  0  0  0
 21 56  1  0  0  0  0
 21 57  1  0  0  0  0
 22 23  2  0  0  0  0
 23 24  1  0  0  0  0
 24 25  1  0  0  0  0
 24 29  1  0  0  0  0
 25 26  2  0  0  0  0
 25 27  1  0  0  0  0
 26 32  1  0  0  0  0
 26 58  1  0  0  0  0
 27 28  1  0  0  0  0
 27 30  2  0  0  0  0
 28 29  2  0  0  0  0
 29 59  1  0  0  0  0
 30 31  1  0  0  0  0
 30 60  1  0  0  0  0
 31 32  2  0  0  0  0
 31 61  1  0  0  0  0
 32 62  1  0  0  0  0
M  CHG  1  17   1
M  END
