2hmw_ligand
 OpenBabel08222323343D

 43 45  0  0  1  0  0  0  0  0999 V2000
   47.4740   48.5180   19.0160 P   0  0  0  0  0  0  0  0  0  0  0  0
   46.0210   48.5910   18.7480 O   0  0  0  0  0  1  0  0  0  0  0  0
   47.8480   46.9780   19.2650 O   0  0  0  0  0  1  0  0  0  0  0  0
   47.8510   49.3770   20.3280 O   0  0  0  0  0  0  0  0  0  0  0  0
   48.0380   50.6370   17.4700 P   0  0  1  0  0  0  0  0  0  0  0  0
   48.5000   51.4460   18.6260 O   0  0  0  0  0  1  0  0  0  0  0  0
   48.8640   51.0970   16.1690 O   0  0  0  0  0  0  0  0  0  0  0  0
   48.3100   49.0550   17.7270 O   0  0  0  0  0  0  0  0  0  0  0  0
   45.7650   51.8760   18.2370 P   0  0  2  0  0  0  0  0  0  0  0  0
   46.3990   53.2270   18.1740 O   0  0  0  0  0  1  0  0  0  0  0  0
   45.9290   51.2840   19.7300 O   0  0  0  0  0  0  0  0  0  0  0  0
   46.4580   50.8650   17.1660 O   0  0  0  0  0  0  0  0  0  0  0  0
   42.4670   54.7910   13.9310 N   0  0  0  0  0  0  0  0  0  0  0  0
   42.9280   55.8010   14.7360 C   0  0  0  0  0  0  0  0  0  0  0  0
   42.1230   56.8250   14.6770 N   0  0  0  0  0  0  0  0  0  0  0  0
   41.1020   56.5550   13.8270 C   0  0  0  0  0  0  0  0  0  0  0  0
   39.9300   57.2520   13.3770 C   0  0  0  0  0  0  0  0  0  0  0  0
   39.6620   58.5370   13.7870 N   0  0  0  0  0  0  0  0  0  0  0  0
   39.1040   56.6470   12.5100 N   0  0  0  0  0  0  0  0  0  0  0  0
   39.3360   55.4010   12.0850 C   0  0  0  0  0  0  0  0  0  0  0  0
   40.4130   54.7060   12.4810 N   0  0  0  0  0  0  0  0  0  0  0  0
   41.3000   55.2310   13.3560 C   0  0  0  0  0  0  0  0  0  0  0  0
   44.1820   51.9660   17.8830 O   0  0  0  0  0  0  0  0  0  0  0  0
   43.9880   52.8720   16.7920 C   0  0  0  0  0  0  0  0  0  0  0  0
   43.8230   52.1000   15.4760 C   0  0  1  0  0  0  0  0  0  0  0  0
   42.6450   52.5330   14.7400 O   0  0  0  0  0  0  0  0  0  0  0  0
   45.0210   52.3230   14.5470 C   0  0  1  0  0  0  0  0  0  0  0  0
   45.2410   51.1530   13.7530 O   0  0  0  0  0  0  0  0  0  0  0  0
   44.6160   53.5440   13.7210 C   0  0  1  0  0  0  0  0  0  0  0  0
   45.2020   53.5180   12.4100 O   0  0  0  0  0  0  0  0  0  0  0  0
   43.0680   53.4700   13.7080 C   0  0  2  0  0  0  0  0  0  0  0  0
   43.8348   55.7545   15.3372 H   0  0  0  0  0  0  0  0  0  0  0  0
   38.8154   59.0185   13.4519 H   0  0  0  0  0  0  0  0  0  0  0  0
   40.3079   59.0180   14.4292 H   0  0  0  0  0  0  0  0  0  0  0  0
   38.6337   54.9389   11.4007 H   0  0  0  0  0  0  0  0  0  0  0  0
   44.8604   53.5375   16.7144 H   0  0  0  0  0  0  0  0  0  0  0  0
   43.0844   53.4718   16.9757 H   0  0  0  0  0  0  0  0  0  0  0  0
   43.7342   51.0288   15.7098 H   0  0  0  0  0  0  0  0  0  0  0  0
   45.9313   52.5405   15.1250 H   0  0  0  0  0  0  0  0  0  0  0  0
   44.4669   50.9751   13.2319 H   0  0  0  0  0  0  0  0  0  0  0  0
   44.9408   54.4669   14.2238 H   0  0  0  0  0  0  0  0  0  0  0  0
   44.9142   52.7375   11.9511 H   0  0  0  0  0  0  0  0  0  0  0  0
   42.7371   53.0978   12.7272 H   0  0  0  0  0  0  0  0  0  0  0  0
  1  2  1  0  0  0  0
  1  3  1  0  0  0  0
  1  4  2  0  0  0  0
  5  6  1  1  0  0  0
  5  7  2  0  0  0  0
  5  8  1  0  0  0  0
  8  1  1  0  0  0  0
  9 10  1  6  0  0  0
  9 11  2  0  0  0  0
  9 12  1  0  0  0  0
 12  5  1  0  0  0  0
 13 14  1  0  0  0  0
 13 22  1  0  0  0  0
 14 15  2  0  0  0  0
 14 32  1  0  0  0  0
 16 15  1  0  0  0  0
 16 17  2  0  0  0  0
 17 18  1  0  0  0  0
 17 19  1  0  0  0  0
 18 33  1  0  0  0  0
 18 34  1  0  0  0  0
 20 19  2  0  0  0  0
 20 35  1  0  0  0  0
 21 20  1  0  0  0  0
 22 16  1  0  0  0  0
 22 21  2  0  0  0  0
 23  9  1  0  0  0  0
 24 23  1  0  0  0  0
 24 36  1  0  0  0  0
 24 37  1  0  0  0  0
 25 24  1  0  0  0  0
 25 27  1  0  0  0  0
 25 38  1  1  0  0  0
 26 25  1  0  0  0  0
 26 31  1  0  0  0  0
 27 28  1  0  0  0  0
 27 29  1  0  0  0  0
 27 39  1  1  0  0  0
 28 40  1  0  0  0  0
 29 30  1  0  0  0  0
 29 31  1  0  0  0  0
 29 41  1  1  0  0  0
 30 42  1  0  0  0  0
 31 13  1  0  0  0  0
 31 43  1  6  0  0  0
M  END
