2hrp_ligand
 OpenBabel08222323343D

165168  0  0  1  0  0  0  0  0999 V2000
    8.4720   34.9810   67.1040 N   0  3  0  0  0  0  0  0  0  0  0  0
    7.4870   35.4990   66.1180 C   0  0  2  0  0  0  0  0  0  0  0  0
    7.5820   34.7500   64.7870 C   0  0  0  0  0  0  0  0  0  0  0  0
    8.3560   33.8010   64.6460 O   0  0  0  0  0  0  0  0  0  0  0  0
    7.6870   36.9980   65.9160 C   0  0  0  0  0  0  0  0  0  0  0  0
    6.3850   37.7530   65.9320 C   0  0  0  0  0  0  0  0  0  0  0  0
    6.5950   39.4770   66.3240 S   0  0  0  0  0  0  0  0  0  0  0  0
    7.1220   39.3230   68.0710 C   0  0  0  0  0  0  0  0  0  0  0  0
    6.7660   35.1520   63.8300 N   0  0  0  0  0  0  0  0  0  0  0  0
    6.7420   34.4980   62.5350 C   0  0  2  0  0  0  0  0  0  0  0  0
    7.9730   34.7760   61.6680 C   0  0  0  0  0  0  0  0  0  0  0  0
    8.3240   35.9220   61.4070 O   0  0  0  0  0  0  0  0  0  0  0  0
    5.4700   34.9040   61.7870 C   0  0  0  0  0  0  0  0  0  0  0  0
    5.1450   33.9760   60.7690 O   0  0  0  0  0  0  0  0  0  0  0  0
    8.6490   33.7120   61.2620 N   0  0  0  0  0  0  0  0  0  0  0  0
    9.8090   33.8150   60.3940 C   0  0  2  0  0  0  0  0  0  0  0  0
    9.3800   33.1050   59.1300 C   0  0  0  0  0  0  0  0  0  0  0  0
    9.4100   31.8730   59.0630 O   0  0  0  0  0  0  0  0  0  0  0  0
   11.0070   33.0780   60.9820 C   0  0  0  0  0  0  0  0  0  0  0  0
   11.6120   33.5290   62.3090 C   0  0  0  0  0  0  0  0  0  0  0  0
   12.8390   32.6570   62.6210 C   0  0  0  0  0  0  0  0  0  0  0  0
   12.0190   34.9970   62.2050 C   0  0  0  0  0  0  0  0  0  0  0  0
    8.9630   33.8610   58.1060 N   0  0  0  0  0  0  0  0  0  0  0  0
    8.5210   33.2760   56.8370 C   0  0  2  0  0  0  0  0  0  0  0  0
    9.3730   32.1080   56.3040 C   0  0  0  0  0  0  0  0  0  0  0  0
   10.5700   32.2630   56.0360 O   0  0  0  0  0  0  0  0  0  0  0  0
    8.5310   34.4800   55.8990 C   0  0  0  0  0  0  0  0  0  0  0  0
    8.1150   35.5800   56.8250 C   0  0  0  0  0  0  0  0  0  0  0  0
    8.9570   35.3330   58.0370 C   0  0  0  0  0  0  0  0  0  0  0  0
    8.7320   30.9450   56.1790 N   0  0  0  0  0  0  0  0  0  0  0  0
    9.3850   29.7490   55.6780 C   0  0  0  0  0  0  0  0  0  0  0  0
   10.2250   29.0270   56.7170 C   0  0  0  0  0  0  0  0  0  0  0  0
   10.8840   28.0240   56.4240 O   0  0  0  0  0  0  0  0  0  0  0  0
   10.1480   29.4780   57.9570 N   0  0  0  0  0  0  0  0  0  0  0  0
   10.9610   28.8720   59.0000 C   0  0  2  0  0  0  0  0  0  0  0  0
   10.2130   28.5590   60.2900 C   0  0  0  0  0  0  0  0  0  0  0  0
   10.3140   27.4410   60.8180 O   0  0  0  0  0  0  0  0  0  0  0  0
   12.1750   29.7790   59.2670 C   0  0  0  0  0  0  0  0  0  0  0  0
   13.0390   29.9830   58.0110 C   0  0  0  0  0  0  0  0  0  0  0  0
   13.8500   31.2600   58.0510 C   0  0  0  0  0  0  0  0  0  0  0  0
   13.0940   32.4150   57.5790 N   0  0  0  0  0  0  0  0  0  0  0  0
   13.3640   33.6790   57.9120 C   0  0  0  0  0  3  0  0  0  0  0  0
   14.3490   33.9560   58.7540 N   0  0  0  0  0  0  0  0  0  0  0  0
   12.6350   34.6750   57.4180 N   0  0  0  0  0  0  0  0  0  0  0  0
    9.4250   29.5230   60.7610 N   0  0  0  0  0  0  0  0  0  0  0  0
    8.6720   29.3810   62.0000 C   0  0  2  0  0  0  0  0  0  0  0  0
    7.3400   30.1480   61.9710 C   0  0  0  0  0  0  0  0  0  0  0  0
    7.3070   31.3630   61.8050 O   0  0  0  0  0  0  0  0  0  0  0  0
    9.5180   29.8660   63.1900 C   0  0  0  0  0  0  0  0  0  0  0  0
    8.8040   29.7450   64.4900 C   0  0  0  0  0  0  0  0  0  0  0  0
    8.3170   30.7670   65.2590 C   0  0  0  0  0  0  0  0  0  0  0  0
    8.3920   28.5280   65.1350 C   0  0  0  0  0  0  0  0  0  0  0  0
    7.6130   30.2630   66.3320 N   0  0  0  0  0  0  0  0  0  0  0  0
    7.6400   28.8950   66.2820 C   0  0  0  0  0  0  0  0  0  0  0  0
    8.5740   27.1590   64.8510 C   0  0  0  0  0  0  0  0  0  0  0  0
    7.0700   27.9420   67.1450 C   0  0  0  0  0  0  0  0  0  0  0  0
    8.0010   26.2080   65.7160 C   0  0  0  0  0  0  0  0  0  0  0  0
    7.2600   26.6100   66.8450 C   0  0  0  0  0  0  0  0  0  0  0  0
    6.2530   29.4480   62.2350 N   0  0  0  0  0  0  0  0  0  0  0  0
    4.9350   30.0650   62.2260 C   0  0  2  0  0  0  0  0  0  0  0  0
    4.2870   29.7360   63.5730 C   0  0  0  0  0  0  0  0  0  0  0  0
    3.8740   28.6060   63.8250 O   0  0  0  0  0  0  0  0  0  0  0  0
    4.1310   29.4820   61.0670 C   0  0  0  0  0  0  0  0  0  0  0  0
    3.0180   30.3400   60.5230 C   0  0  0  0  0  0  0  0  0  0  0  0
    1.8410   30.4130   61.4520 C   0  0  0  0  0  0  0  0  0  0  0  0
    0.5380   30.4520   60.6550 C   0  0  0  0  0  0  0  0  0  0  0  0
    0.2430   29.1510   59.9790 N   0  3  0  0  0  0  0  0  0  0  0  0
    4.2140   30.7250   64.4640 N   0  0  0  0  0  0  0  0  0  0  0  0
    3.6290   30.5580   65.7980 C   0  0  2  0  0  0  0  0  0  0  0  0
    2.1830   30.0910   65.7330 C   0  0  0  0  0  0  0  0  0  0  0  0
    1.5160   30.2990   64.7230 O   0  0  0  0  0  0  0  0  0  0  0  0
    3.7040   31.9670   66.3780 C   0  0  0  0  0  0  0  0  0  0  0  0
    4.8310   32.5990   65.6210 C   0  0  0  0  0  0  0  0  0  0  0  0
    4.5780   32.1260   64.2270 C   0  0  0  0  0  0  0  0  0  0  0  0
    1.7300   29.4210   66.7870 N   0  0  0  0  0  0  0  0  0  0  0  0
    0.3500   28.9520   66.8610 C   0  0  2  0  0  0  0  0  0  0  0  0
   -0.5370   30.0640   67.4400 C   0  0  0  0  0  0  0  0  0  0  0  0
   -0.1380   30.6460   68.4820 O   0  5  0  0  0  0  0  0  0  0  0  0
    0.2560   27.6820   67.7210 C   0  0  0  0  0  0  0  0  0  0  0  0
   -1.6030   30.3560   66.8390 O   0  0  0  0  0  0  0  0  0  0  0  0
    8.3842   35.4935   67.9675 H   0  0  0  0  0  0  0  0  0  0  0  0
    9.4046   35.0950   66.7389 H   0  0  0  0  0  0  0  0  0  0  0  0
    8.2949   34.0034   67.2740 H   0  0  0  0  0  0  0  0  0  0  0  0
    6.4781   35.3387   66.5258 H   0  0  0  0  0  0  0  0  0  0  0  0
    8.1796   37.1621   64.9463 H   0  0  0  0  0  0  0  0  0  0  0  0
    8.3287   37.3816   66.7229 H   0  0  0  0  0  0  0  0  0  0  0  0
    5.7241   37.2989   66.6850 H   0  0  0  0  0  0  0  0  0  0  0  0
    5.9191   37.6722   64.9388 H   0  0  0  0  0  0  0  0  0  0  0  0
    7.3023   40.3243   68.4892 H   0  0  0  0  0  0  0  0  0  0  0  0
    8.0478   38.7314   68.1239 H   0  0  0  0  0  0  0  0  0  0  0  0
    6.3324   38.8209   68.6493 H   0  0  0  0  0  0  0  0  0  0  0  0
    6.1522   35.9227   64.0011 H   0  0  0  0  0  0  0  0  0  0  0  0
    6.7059   33.4132   62.7137 H   0  0  0  0  0  0  0  0  0  0  0  0
    5.6240   35.8935   61.3319 H   0  0  0  0  0  0  0  0  0  0  0  0
    4.6361   34.9553   62.5026 H   0  0  0  0  0  0  0  0  0  0  0  0
    4.3530   34.2576   60.3264 H   0  0  0  0  0  0  0  0  0  0  0  0
    8.3505   32.8064   61.5634 H   0  0  0  0  0  0  0  0  0  0  0  0
   10.0676   34.8667   60.2014 H   0  0  0  0  0  0  0  0  0  0  0  0
   11.8108   33.1328   60.2331 H   0  0  0  0  0  0  0  0  0  0  0  0
   10.6999   32.0301   61.1144 H   0  0  0  0  0  0  0  0  0  0  0  0
   10.8684   33.4135   63.1114 H   0  0  0  0  0  0  0  0  0  0  0  0
   13.2816   32.9753   63.5764 H   0  0  0  0  0  0  0  0  0  0  0  0
   13.5819   32.7685   61.8175 H   0  0  0  0  0  0  0  0  0  0  0  0
   12.5314   31.6033   62.6925 H   0  0  0  0  0  0  0  0  0  0  0  0
   11.1322   35.6084   61.9817 H   0  0  0  0  0  0  0  0  0  0  0  0
   12.7588   35.1163   61.3997 H   0  0  0  0  0  0  0  0  0  0  0  0
   12.4591   35.3240   63.1586 H   0  0  0  0  0  0  0  0  0  0  0  0
    7.4929   32.9021   56.9520 H   0  0  0  0  0  0  0  0  0  0  0  0
    7.8127   34.3543   55.0755 H   0  0  0  0  0  0  0  0  0  0  0  0
    9.5345   34.6599   55.4860 H   0  0  0  0  0  0  0  0  0  0  0  0
    7.0441   35.5104   57.0663 H   0  0  0  0  0  0  0  0  0  0  0  0
    8.3292   36.5668   56.3888 H   0  0  0  0  0  0  0  0  0  0  0  0
    9.9737   35.7319   57.9062 H   0  0  0  0  0  0  0  0  0  0  0  0
    8.5030   35.7742   58.9366 H   0  0  0  0  0  0  0  0  0  0  0  0
    7.7678   30.8951   56.4395 H   0  0  0  0  0  0  0  0  0  0  0  0
   10.0394   30.0359   54.8417 H   0  0  0  0  0  0  0  0  0  0  0  0
    8.6104   29.0567   55.3166 H   0  0  0  0  0  0  0  0  0  0  0  0
    9.5321   30.2343   58.1777 H   0  0  0  0  0  0  0  0  0  0  0  0
   11.3330   27.9138   58.6084 H   0  0  0  0  0  0  0  0  0  0  0  0
   12.7942   29.3194   60.0514 H   0  0  0  0  0  0  0  0  0  0  0  0
   11.8149   30.7596   59.6116 H   0  0  0  0  0  0  0  0  0  0  0  0
   12.3779   30.0153   57.1324 H   0  0  0  0  0  0  0  0  0  0  0  0
   13.7299   29.1320   57.9190 H   0  0  0  0  0  0  0  0  0  0  0  0
   14.7377   31.1346   57.4136 H   0  0  0  0  0  0  0  0  0  0  0  0
   14.1664   31.4450   59.0881 H   0  0  0  0  0  0  0  0  0  0  0  0
   12.2991   32.2436   56.9468 H   0  0  0  0  0  0  0  0  0  0  0  0
   14.5513   34.9340   59.0061 H   0  0  0  0  0  0  0  0  0  0  0  0
   14.9124   33.1933   59.1563 H   0  0  0  0  0  0  0  0  0  0  0  0
   11.8662   34.4746   56.7625 H   0  0  0  0  0  0  0  0  0  0  0  0
   12.8390   35.6470   57.6908 H   0  0  0  0  0  0  0  0  0  0  0  0
    9.3471   30.3762   60.2453 H   0  0  0  0  0  0  0  0  0  0  0  0
    8.4483   28.3133   62.1410 H   0  0  0  0  0  0  0  0  0  0  0  0
    9.7788   30.9224   63.0289 H   0  0  0  0  0  0  0  0  0  0  0  0
   10.4376   29.2642   63.2364 H   0  0  0  0  0  0  0  0  0  0  0  0
    8.4644   31.8261   65.0530 H   0  0  0  0  0  0  0  0  0  0  0  0
    7.1423   30.8254   67.0552 H   0  0  0  0  0  0  0  0  0  0  0  0
    9.1438   26.8452   63.9839 H   0  0  0  0  0  0  0  0  0  0  0  0
    6.5006   28.2446   68.0164 H   0  0  0  0  0  0  0  0  0  0  0  0
    8.1316   25.1516   65.5108 H   0  0  0  0  0  0  0  0  0  0  0  0
    6.8295   25.8546   67.4924 H   0  0  0  0  0  0  0  0  0  0  0  0
    6.3366   28.4740   62.4455 H   0  0  0  0  0  0  0  0  0  0  0  0
    5.0197   31.1551   62.1053 H   0  0  0  0  0  0  0  0  0  0  0  0
    3.6866   28.5363   61.4107 H   0  0  0  0  0  0  0  0  0  0  0  0
    4.8309   29.2801   60.2427 H   0  0  0  0  0  0  0  0  0  0  0  0
    2.6842   29.9181   59.5635 H   0  0  0  0  0  0  0  0  0  0  0  0
    3.4036   31.3575   60.3619 H   0  0  0  0  0  0  0  0  0  0  0  0
    1.9186   31.3229   62.0652 H   0  0  0  0  0  0  0  0  0  0  0  0
    1.8398   29.5288   62.1063 H   0  0  0  0  0  0  0  0  0  0  0  0
    0.6157   31.2380   59.8894 H   0  0  0  0  0  0  0  0  0  0  0  0
   -0.2886   30.6888   61.3410 H   0  0  0  0  0  0  0  0  0  0  0  0
   -0.6227   29.2265   59.4682 H   0  0  0  0  0  0  0  0  0  0  0  0
    0.1620   28.4232   60.6717 H   0  0  0  0  0  0  0  0  0  0  0  0
    0.9908   28.9265   59.3414 H   0  0  0  0  0  0  0  0  0  0  0  0
    4.2165   29.8476   66.3981 H   0  0  0  0  0  0  0  0  0  0  0  0
    3.9226   31.9372   67.4556 H   0  0  0  0  0  0  0  0  0  0  0  0
    2.7634   32.5118   66.2096 H   0  0  0  0  0  0  0  0  0  0  0  0
    5.8060   32.2484   65.9905 H   0  0  0  0  0  0  0  0  0  0  0  0
    4.7881   33.6964   65.6839 H   0  0  0  0  0  0  0  0  0  0  0  0
    3.7545   32.6824   63.7557 H   0  0  0  0  0  0  0  0  0  0  0  0
    5.4803   32.2082   63.6033 H   0  0  0  0  0  0  0  0  0  0  0  0
    2.3501   29.2334   67.5487 H   0  0  0  0  0  0  0  0  0  0  0  0
    0.0017   28.7136   65.8452 H   0  0  0  0  0  0  0  0  0  0  0  0
   -0.7902   27.3451   67.7642 H   0  0  0  0  0  0  0  0  0  0  0  0
    0.6131   27.9007   68.7382 H   0  0  0  0  0  0  0  0  0  0  0  0
    0.8778   26.8911   67.2762 H   0  0  0  0  0  0  0  0  0  0  0  0
  1  2  1  0  0  0  0
  1 81  1  0  0  0  0
  1 82  1  0  0  0  0
  1 83  1  0  0  0  0
  2  3  1  0  0  0  0
  2  5  1  0  0  0  0
  2 84  1  1  0  0  0
  3  4  2  0  0  0  0
  3  9  1  0  0  0  0
  5  6  1  0  0  0  0
  5 85  1  0  0  0  0
  5 86  1  0  0  0  0
  6  7  1  0  0  0  0
  6 87  1  0  0  0  0
  6 88  1  0  0  0  0
  7  8  1  0  0  0  0
  8 89  1  0  0  0  0
  8 90  1  0  0  0  0
  8 91  1  0  0  0  0
  9 10  1  0  0  0  0
  9 92  1  0  0  0  0
 10 11  1  0  0  0  0
 10 13  1  0  0  0  0
 10 93  1  1  0  0  0
 11 12  2  0  0  0  0
 11 15  1  0  0  0  0
 13 14  1  0  0  0  0
 13 94  1  0  0  0  0
 13 95  1  0  0  0  0
 14 96  1  0  0  0  0
 15 16  1  0  0  0  0
 15 97  1  0  0  0  0
 16 17  1  0  0  0  0
 16 19  1  0  0  0  0
 16 98  1  6  0  0  0
 17 18  2  0  0  0  0
 17 23  1  0  0  0  0
 19 20  1  0  0  0  0
 19 99  1  0  0  0  0
 19100  1  0  0  0  0
 20 21  1  0  0  0  0
 20 22  1  0  0  0  0
 20101  1  0  0  0  0
 21102  1  0  0  0  0
 21103  1  0  0  0  0
 21104  1  0  0  0  0
 22105  1  0  0  0  0
 22106  1  0  0  0  0
 22107  1  0  0  0  0
 23 24  1  0  0  0  0
 23 29  1  0  0  0  0
 24 25  1  0  0  0  0
 24 27  1  0  0  0  0
 24108  1  1  0  0  0
 25 26  2  0  0  0  0
 25 30  1  0  0  0  0
 27 28  1  0  0  0  0
 27109  1  0  0  0  0
 27110  1  0  0  0  0
 28 29  1  0  0  0  0
 28111  1  0  0  0  0
 28112  1  0  0  0  0
 29113  1  0  0  0  0
 29114  1  0  0  0  0
 30 31  1  0  0  0  0
 30115  1  0  0  0  0
 31 32  1  0  0  0  0
 31116  1  0  0  0  0
 31117  1  0  0  0  0
 32 33  2  0  0  0  0
 32 34  1  0  0  0  0
 34 35  1  0  0  0  0
 34118  1  0  0  0  0
 35 36  1  0  0  0  0
 35 38  1  0  0  0  0
 35119  1  6  0  0  0
 36 37  2  0  0  0  0
 36 45  1  0  0  0  0
 38 39  1  0  0  0  0
 38120  1  0  0  0  0
 38121  1  0  0  0  0
 39 40  1  0  0  0  0
 39122  1  0  0  0  0
 39123  1  0  0  0  0
 40 41  1  0  0  0  0
 40124  1  0  0  0  0
 40125  1  0  0  0  0
 41 42  1  0  0  0  0
 41126  1  0  0  0  0
 42 43  1  0  0  0  0
 42 44  1  0  0  0  0
 43127  1  0  0  0  0
 43128  1  0  0  0  0
 44129  1  0  0  0  0
 44130  1  0  0  0  0
 45 46  1  0  0  0  0
 45131  1  0  0  0  0
 46 47  1  0  0  0  0
 46 49  1  0  0  0  0
 46132  1  1  0  0  0
 47 48  2  0  0  0  0
 47 59  1  0  0  0  0
 49 50  1  0  0  0  0
 49133  1  0  0  0  0
 49134  1  0  0  0  0
 50 51  2  0  0  0  0
 50 52  1  0  0  0  0
 51 53  1  0  0  0  0
 51135  1  0  0  0  0
 52 54  2  0  0  0  0
 52 55  1  0  0  0  0
 53 54  1  0  0  0  0
 53136  1  0  0  0  0
 54 56  1  0  0  0  0
 55 57  2  0  0  0  0
 55137  1  0  0  0  0
 56 58  2  0  0  0  0
 56138  1  0  0  0  0
 57 58  1  0  0  0  0
 57139  1  0  0  0  0
 58140  1  0  0  0  0
 59 60  1  0  0  0  0
 59141  1  0  0  0  0
 60 61  1  0  0  0  0
 60 63  1  0  0  0  0
 60142  1  6  0  0  0
 61 62  2  0  0  0  0
 61 68  1  0  0  0  0
 63 64  1  0  0  0  0
 63143  1  0  0  0  0
 63144  1  0  0  0  0
 64 65  1  0  0  0  0
 64145  1  0  0  0  0
 64146  1  0  0  0  0
 65 66  1  0  0  0  0
 65147  1  0  0  0  0
 65148  1  0  0  0  0
 66 67  1  0  0  0  0
 66149  1  0  0  0  0
 66150  1  0  0  0  0
 67151  1  0  0  0  0
 67152  1  0  0  0  0
 67153  1  0  0  0  0
 68 69  1  0  0  0  0
 68 74  1  0  0  0  0
 69 70  1  0  0  0  0
 69 72  1  0  0  0  0
 69154  1  1  0  0  0
 70 71  2  0  0  0  0
 70 75  1  0  0  0  0
 72 73  1  0  0  0  0
 72155  1  0  0  0  0
 72156  1  0  0  0  0
 73 74  1  0  0  0  0
 73157  1  0  0  0  0
 73158  1  0  0  0  0
 74159  1  0  0  0  0
 74160  1  0  0  0  0
 75 76  1  0  0  0  0
 75161  1  0  0  0  0
 76 77  1  0  0  0  0
 76 79  1  0  0  0  0
 76162  1  6  0  0  0
 77 78  1  0  0  0  0
 77 80  2  0  0  0  0
 79163  1  0  0  0  0
 79164  1  0  0  0  0
 79165  1  0  0  0  0
M  CHG  3   1   1  67   1  78  -1
M  END
