2hwg_ligand
 OpenBabel08222323343D

  6  5  0  0  0  0  0  0  0  0999 V2000
   21.5630   -8.1150   19.2100 C   0  0  0  0  0  0  0  0  0  0  0  0
   20.1000   -8.2180   19.0210 C   0  0  0  0  0  0  0  0  0  0  0  0
   22.2150   -7.1730   18.6670 O   0  5  0  0  0  0  0  0  0  0  0  0
   19.5090   -7.4230   18.2520 O   0  5  0  0  0  0  0  0  0  0  0  0
   22.1230   -8.9780   19.9290 O   0  0  0  0  0  0  0  0  0  0  0  0
   19.4540   -9.0960   19.6480 O   0  0  0  0  0  0  0  0  0  0  0  0
  1  2  1  0  0  0  0
  1  3  1  0  0  0  0
  1  5  2  0  0  0  0
  2  4  1  0  0  0  0
  2  6  2  0  0  0  0
M  CHG  2   3  -1   4  -1
M  END
