2hwh_ligand
 OpenBabel08222323343D

 40 42  0  0  0  0  0  0  0  0999 V2000
   10.2660   29.1620   73.4880 C   0  0  0  0  0  0  0  0  0  0  0  0
    9.0540   29.6500   73.0310 C   0  0  0  0  0  0  0  0  0  0  0  0
    9.3170   30.6330   72.0760 C   0  0  0  0  0  0  0  0  0  0  0  0
   10.6920   30.7380   71.9500 O   0  0  0  0  0  0  0  0  0  0  0  0
   11.2800   29.8380   72.8190 C   0  0  0  0  0  0  0  0  0  0  0  0
   12.7710   29.6500   72.9960 C   0  0  0  0  0  0  0  0  0  0  0  0
    7.3420   32.2730   72.1900 C   0  0  0  0  0  0  0  0  0  0  0  0
    7.8920   33.1020   73.6240 S   0  0  0  0  0  0  0  0  0  0  0  0
    6.2730   33.6410   73.8590 C   0  0  0  0  0  0  0  0  0  0  0  0
    5.9200   34.4610   74.9500 N   0  0  0  0  0  0  0  0  0  0  0  0
    7.0170   35.5440   75.6950 S   0  0  0  0  0  0  0  0  0  0  0  0
    7.7240   36.6040   74.5170 C   0  0  0  0  0  0  0  0  0  0  0  0
    9.0830   36.4520   74.1650 C   0  0  0  0  0  0  0  0  0  0  0  0
    9.6460   37.3330   73.1980 C   0  0  0  0  0  0  0  0  0  0  0  0
    8.8470   38.3550   72.5940 C   0  0  0  0  0  0  0  0  0  0  0  0
    7.4730   38.4870   72.9670 C   0  0  0  0  0  0  0  0  0  0  0  0
    6.9090   37.6090   73.9340 C   0  0  0  0  0  0  0  0  0  0  0  0
    9.4490   39.3100   71.5560 C   0  0  0  0  0  0  0  0  0  0  0  0
    8.1280   34.6370   76.3790 O   0  0  0  0  0  0  0  0  0  0  0  0
    6.2550   36.3670   76.8210 O   0  0  0  0  0  0  0  0  0  0  0  0
    5.9910   32.4520   71.9920 C   0  0  0  0  0  0  0  0  0  0  0  0
    5.3720   33.2280   72.9310 N   0  0  0  0  0  0  0  0  0  0  0  0
    5.2980   31.9020   70.9300 O   0  0  0  0  0  0  0  0  0  0  0  0
    8.3090   31.4590   71.3000 C   0  0  0  0  0  0  0  0  0  0  0  0
   10.4014   28.3853   74.2393 H   0  0  0  0  0  0  0  0  0  0  0  0
    8.0681   29.3240   73.3591 H   0  0  0  0  0  0  0  0  0  0  0  0
   13.3092   30.3331   72.3224 H   0  0  0  0  0  0  0  0  0  0  0  0
   13.0406   28.6109   72.7562 H   0  0  0  0  0  0  0  0  0  0  0  0
   13.0471   29.8694   74.0379 H   0  0  0  0  0  0  0  0  0  0  0  0
    4.9866   34.4077   75.3049 H   0  0  0  0  0  0  0  0  0  0  0  0
    9.6876   35.6777   74.6232 H   0  0  0  0  0  0  0  0  0  0  0  0
   10.6878   37.2286   72.9173 H   0  0  0  0  0  0  0  0  0  0  0  0
    6.8603   39.2570   72.5124 H   0  0  0  0  0  0  0  0  0  0  0  0
    5.8686   37.7065   74.2222 H   0  0  0  0  0  0  0  0  0  0  0  0
   10.5081   39.0588   71.3975 H   0  0  0  0  0  0  0  0  0  0  0  0
    9.3681   40.3450   71.9196 H   0  0  0  0  0  0  0  0  0  0  0  0
    8.9027   39.2111   70.6064 H   0  0  0  0  0  0  0  0  0  0  0  0
    5.8958   31.3987   70.3898 H   0  0  0  0  0  0  0  0  0  0  0  0
    7.7127   30.7783   70.6746 H   0  0  0  0  0  0  0  0  0  0  0  0
    8.8596   32.1608   70.6563 H   0  0  0  0  0  0  0  0  0  0  0  0
  1 25  1  0  0  0  0
  2  1  1  0  0  0  0
  2 26  1  0  0  0  0
  3  2  2  0  0  0  0
  3  4  1  0  0  0  0
  4  5  1  0  0  0  0
  5  1  2  0  0  0  0
  5  6  1  0  0  0  0
  6 27  1  0  0  0  0
  6 28  1  0  0  0  0
  6 29  1  0  0  0  0
  7  8  1  0  0  0  0
  7 21  2  0  0  0  0
  7 24  1  0  0  0  0
  8  9  1  0  0  0  0
  9 10  1  0  0  0  0
  9 22  2  0  0  0  0
 10 11  1  0  0  0  0
 10 30  1  0  0  0  0
 11 12  1  0  0  0  0
 11 19  2  0  0  0  0
 11 20  2  0  0  0  0
 12 13  2  0  0  0  0
 12 17  1  0  0  0  0
 13 14  1  0  0  0  0
 13 31  1  0  0  0  0
 14 15  2  0  0  0  0
 14 32  1  0  0  0  0
 15 16  1  0  0  0  0
 15 18  1  0  0  0  0
 16 17  2  0  0  0  0
 16 33  1  0  0  0  0
 17 34  1  0  0  0  0
 18 35  1  0  0  0  0
 18 36  1  0  0  0  0
 18 37  1  0  0  0  0
 21 22  1  0  0  0  0
 21 23  1  0  0  0  0
 23 38  1  0  0  0  0
 24  3  1  0  0  0  0
 24 39  1  0  0  0  0
 24 40  1  0  0  0  0
M  END
