2hwp_ligand
 OpenBabel08222323343D

 38 40  0  0  0  0  0  0  0  0999 V2000
    7.4010  -39.3000   23.5400 C   0  0  0  0  0  0  0  0  0  0  0  0
    7.0390  -40.1490   24.7660 C   0  0  0  0  0  0  0  0  0  0  0  0
    7.0490  -39.3530   26.0660 C   0  0  0  0  0  0  0  0  0  0  0  0
    8.1150  -38.9660   26.5150 O   0  0  0  0  0  0  0  0  0  0  0  0
    5.8630  -39.0360   26.6180 N   0  0  0  0  0  0  0  0  0  0  0  0
    5.6530  -38.3630   27.8010 C   0  0  0  0  0  0  0  0  0  0  0  0
    6.6780  -37.9240   28.6680 C   0  0  0  0  0  0  0  0  0  0  0  0
    4.3280  -38.0910   28.1500 C   0  0  0  0  0  0  0  0  0  0  0  0
    4.0160  -37.4200   29.3280 C   0  0  0  0  0  0  0  0  0  0  0  0
    5.0300  -36.9980   30.1830 C   0  0  0  0  0  0  0  0  0  0  0  0
    6.3710  -37.2390   29.8650 C   0  0  0  0  0  0  0  0  0  0  0  0
    7.3590  -36.7880   30.7600 C   0  0  0  0  0  0  0  0  0  0  0  0
    6.9850  -36.1430   31.8890 N   0  0  0  0  0  0  0  0  0  0  0  0
    5.6860  -35.9240   32.1570 C   0  0  0  0  0  0  0  0  0  0  0  0
    4.7160  -36.3430   31.3250 N   0  0  0  0  0  0  0  0  0  0  0  0
    8.6780  -37.0040   30.4980 N   0  0  0  0  0  0  0  0  0  0  0  0
    9.7740  -36.6500   31.2500 C   0  0  0  0  0  0  0  0  0  0  0  0
    9.7060  -35.9580   32.4710 C   0  0  0  0  0  0  0  0  0  0  0  0
   11.0330  -37.0020   30.7420 C   0  0  0  0  0  0  0  0  0  0  0  0
   12.2150  -36.6830   31.4180 C   0  0  0  0  0  0  0  0  0  0  0  0
   12.1410  -36.0050   32.6340 C   0  0  0  0  0  0  0  0  0  0  0  0
   10.8920  -35.6360   33.1570 C   0  0  0  0  0  0  0  0  0  0  0  0
   10.8570  -34.6920   34.8080 Br  0  0  0  0  0  0  0  0  0  0  0  0
    7.3762  -39.9292   22.6381 H   0  0  0  0  0  0  0  0  0  0  0  0
    8.4106  -38.8826   23.6682 H   0  0  0  0  0  0  0  0  0  0  0  0
    6.6757  -38.4797   23.4349 H   0  0  0  0  0  0  0  0  0  0  0  0
    7.7670  -40.9692   24.8517 H   0  0  0  0  0  0  0  0  0  0  0  0
    6.0320  -40.5664   24.6184 H   0  0  0  0  0  0  0  0  0  0  0  0
    5.0466  -39.3197   26.1150 H   0  0  0  0  0  0  0  0  0  0  0  0
    7.7138  -38.1151   28.4117 H   0  0  0  0  0  0  0  0  0  0  0  0
    3.5282  -38.4086   27.4908 H   0  0  0  0  0  0  0  0  0  0  0  0
    2.9800  -37.2252   29.5808 H   0  0  0  0  0  0  0  0  0  0  0  0
    5.4141  -35.3975   33.0647 H   0  0  0  0  0  0  0  0  0  0  0  0
    8.8823  -37.4991   29.6182 H   0  0  0  0  0  0  0  0  0  0  0  0
    8.7445  -35.6734   32.8827 H   0  0  0  0  0  0  0  0  0  0  0  0
   11.0915  -37.5356   29.8002 H   0  0  0  0  0  0  0  0  0  0  0  0
   13.1769  -36.9595   31.0016 H   0  0  0  0  0  0  0  0  0  0  0  0
   13.0483  -35.7628   33.1756 H   0  0  0  0  0  0  0  0  0  0  0  0
  1  2  1  0  0  0  0
  1 24  1  0  0  0  0
  1 25  1  0  0  0  0
  1 26  1  0  0  0  0
  2  3  1  0  0  0  0
  2 27  1  0  0  0  0
  2 28  1  0  0  0  0
  3  4  2  0  0  0  0
  3  5  1  0  0  0  0
  5  6  1  0  0  0  0
  5 29  1  0  0  0  0
  6  7  2  0  0  0  0
  6  8  1  0  0  0  0
  7 11  1  0  0  0  0
  7 30  1  0  0  0  0
  8  9  2  0  0  0  0
  8 31  1  0  0  0  0
  9 10  1  0  0  0  0
  9 32  1  0  0  0  0
 10 11  2  0  0  0  0
 10 15  1  0  0  0  0
 11 12  1  0  0  0  0
 12 13  2  0  0  0  0
 12 16  1  0  0  0  0
 13 14  1  0  0  0  0
 14 15  2  0  0  0  0
 14 33  1  0  0  0  0
 16 17  1  0  0  0  0
 16 34  1  0  0  0  0
 17 18  2  0  0  0  0
 17 19  1  0  0  0  0
 18 22  1  0  0  0  0
 18 35  1  0  0  0  0
 19 20  2  0  0  0  0
 19 36  1  0  0  0  0
 20 21  1  0  0  0  0
 20 37  1  0  0  0  0
 21 22  2  0  0  0  0
 21 38  1  0  0  0  0
 22 23  1  0  0  0  0
M  END
