2hxq_ligand
 OpenBabel08222323343D

 57 61  0  0  1  0  0  0  0  0999 V2000
   14.8080   -1.7500   10.8440 C   0  0  0  0  0  0  0  0  0  0  0  0
   14.1310   -2.5900   11.8120 C   0  0  0  0  0  0  0  0  0  0  0  0
   12.7720   -2.2190   12.1800 C   0  0  0  0  0  0  0  0  0  0  0  0
   12.1320   -1.0350   11.6150 C   0  0  0  0  0  0  0  0  0  0  0  0
   12.8000   -0.2210   10.6160 C   0  0  0  0  0  0  0  0  0  0  0  0
   14.1430   -0.6030   10.2540 C   0  0  0  0  0  0  0  0  0  0  0  0
   14.8540    0.1860    9.3960 N   0  0  0  0  0  0  0  0  0  0  0  0
   16.1490   -0.0560    9.0860 C   0  0  0  0  0  0  0  0  0  0  0  0
   16.8850   -1.2130    9.6950 C   0  0  0  0  0  0  0  0  0  0  0  0
   16.2010   -2.0400   10.5160 C   0  0  0  0  0  0  0  0  0  0  0  0
   18.3380   -1.4000    9.4110 C   0  0  0  0  0  0  0  0  0  0  0  0
   19.1620   -0.5230    8.6810 N   0  0  0  0  0  0  0  0  0  0  0  0
   20.4420   -1.0460    8.6260 C   0  0  0  0  0  0  0  0  0  0  0  0
   20.4480   -2.3040    9.3660 C   0  0  0  0  0  0  0  0  0  0  0  0
   19.1490   -2.4680    9.8660 C   0  0  0  0  0  0  0  0  0  0  0  0
   21.6220   -0.5150    7.9610 C   0  0  0  0  0  0  0  0  0  0  0  0
   22.8720   -1.2800    8.0410 C   0  0  0  0  0  0  0  0  0  0  0  0
   22.8620   -2.5500    8.7940 C   0  0  0  0  0  0  0  0  0  0  0  0
   21.6700   -3.0640    9.4570 C   0  0  0  0  0  0  0  0  0  0  0  0
   24.0750   -3.4470    8.8370 C   0  0  0  0  0  0  0  0  0  0  0  0
   24.0800   -4.2690    7.6040 N   0  3  1  0  0  0  0  0  0  0  0  0
   25.2940   -3.9330    6.8360 C   0  0  0  0  0  0  0  0  0  0  0  0
   25.1120   -4.5000    5.4370 C   0  0  0  0  0  0  0  0  0  0  0  0
   24.9640   -6.0130    5.4770 C   0  0  1  0  0  0  0  0  0  0  0  0
   23.7940   -6.3830    6.4100 C   0  0  0  0  0  0  0  0  0  0  0  0
   24.0100   -5.7470    7.7840 C   0  0  0  0  0  0  0  0  0  0  0  0
   24.7100   -6.5230    4.0340 C   0  0  0  0  0  0  0  0  0  0  0  0
   25.8240   -6.0950    3.1620 N   0  3  0  0  0  0  0  0  0  0  0  0
   16.7750    0.6520    8.3040 O   0  0  0  0  0  0  0  0  0  0  0  0
   14.6161   -3.4579   12.2438 H   0  0  0  0  0  0  0  0  0  0  0  0
   12.2255   -2.8333   12.8865 H   0  0  0  0  0  0  0  0  0  0  0  0
   11.1383   -0.7582   11.9481 H   0  0  0  0  0  0  0  0  0  0  0  0
   12.3122    0.6344   10.1629 H   0  0  0  0  0  0  0  0  0  0  0  0
   14.3999    0.9739    8.9801 H   0  0  0  0  0  0  0  0  0  0  0  0
   16.6876   -2.9209   10.9322 H   0  0  0  0  0  0  0  0  0  0  0  0
   18.8606    0.3655    8.2559 H   0  0  0  0  0  0  0  0  0  0  0  0
   18.8163   -3.2863   10.5029 H   0  0  0  0  0  0  0  0  0  0  0  0
   21.5790    0.4231    7.4195 H   0  0  0  0  0  0  0  0  0  0  0  0
   23.7762   -0.9230    7.5613 H   0  0  0  0  0  0  0  0  0  0  0  0
   21.7015   -3.9977   10.0068 H   0  0  0  0  0  0  0  0  0  0  0  0
   24.0254   -4.1000    9.7208 H   0  0  0  0  0  0  0  0  0  0  0  0
   24.9891   -2.8369    8.8827 H   0  0  0  0  0  0  0  0  0  0  0  0
   23.2721   -4.0003    7.0645 H   0  0  0  0  0  0  0  0  0  0  0  0
   26.1779   -4.3820    7.3126 H   0  0  0  0  0  0  0  0  0  0  0  0
   25.4188   -2.8412    6.7869 H   0  0  0  0  0  0  0  0  0  0  0  0
   25.9896   -4.2405    4.8267 H   0  0  0  0  0  0  0  0  0  0  0  0
   24.2093   -4.0621    4.9860 H   0  0  0  0  0  0  0  0  0  0  0  0
   25.8896   -6.4646    5.8633 H   0  0  0  0  0  0  0  0  0  0  0  0
   23.7434   -7.4766    6.5171 H   0  0  0  0  0  0  0  0  0  0  0  0
   22.8518   -6.0127    5.9797 H   0  0  0  0  0  0  0  0  0  0  0  0
   23.1718   -6.0024    8.4490 H   0  0  0  0  0  0  0  0  0  0  0  0
   24.9501   -6.1144    8.2213 H   0  0  0  0  0  0  0  0  0  0  0  0
   23.7658   -6.1033    3.6567 H   0  0  0  0  0  0  0  0  0  0  0  0
   24.6475   -7.6212    4.0380 H   0  0  0  0  0  0  0  0  0  0  0  0
   25.6618   -6.4249    2.2234 H   0  0  0  0  0  0  0  0  0  0  0  0
   26.6889   -6.4796    3.5086 H   0  0  0  0  0  0  0  0  0  0  0  0
   25.8810   -5.0886    3.1592 H   0  0  0  0  0  0  0  0  0  0  0  0
  1  2  2  0  0  0  0
  1  6  1  0  0  0  0
  1 10  1  0  0  0  0
  2  3  1  0  0  0  0
  2 30  1  0  0  0  0
  3  4  2  0  0  0  0
  3 31  1  0  0  0  0
  4  5  1  0  0  0  0
  4 32  1  0  0  0  0
  5  6  2  0  0  0  0
  5 33  1  0  0  0  0
  6  7  1  0  0  0  0
  7  8  1  0  0  0  0
  7 34  1  0  0  0  0
  8  9  1  0  0  0  0
  8 29  2  0  0  0  0
  9 10  2  0  0  0  0
  9 11  1  0  0  0  0
 10 35  1  0  0  0  0
 11 12  1  0  0  0  0
 11 15  2  0  0  0  0
 12 13  1  0  0  0  0
 12 36  1  0  0  0  0
 13 14  2  0  0  0  0
 13 16  1  0  0  0  0
 14 15  1  0  0  0  0
 14 19  1  0  0  0  0
 15 37  1  0  0  0  0
 16 17  2  0  0  0  0
 16 38  1  0  0  0  0
 17 18  1  0  0  0  0
 17 39  1  0  0  0  0
 18 19  2  0  0  0  0
 18 20  1  0  0  0  0
 19 40  1  0  0  0  0
 20 21  1  0  0  0  0
 20 41  1  0  0  0  0
 20 42  1  0  0  0  0
 21 22  1  0  0  0  0
 21 26  1  0  0  0  0
 21 43  1  6  0  0  0
 22 23  1  0  0  0  0
 22 44  1  0  0  0  0
 22 45  1  0  0  0  0
 23 24  1  0  0  0  0
 23 46  1  0  0  0  0
 23 47  1  0  0  0  0
 24 25  1  0  0  0  0
 24 27  1  0  0  0  0
 24 48  1  1  0  0  0
 25 26  1  0  0  0  0
 25 49  1  0  0  0  0
 25 50  1  0  0  0  0
 26 51  1  0  0  0  0
 26 52  1  0  0  0  0
 27 28  1  0  0  0  0
 27 53  1  0  0  0  0
 27 54  1  0  0  0  0
 28 55  1  0  0  0  0
 28 56  1  0  0  0  0
 28 57  1  0  0  0  0
M  CHG  2  21   1  28   1
M  END
