2hy0_ligand
 OpenBabel08222323343D

 58 63  0  0  0  0  0  0  0  0999 V2000
   12.4160   -4.4350   13.4230 C   0  0  0  0  0  0  0  0  0  0  0  0
   12.0700   -3.2150   12.7910 C   0  0  0  0  0  0  0  0  0  0  0  0
   10.6990   -3.0860   13.1050 C   0  0  0  0  0  0  0  0  0  0  0  0
   10.3040   -4.1050   13.9200 N   0  0  0  0  0  0  0  0  0  0  0  0
   11.3240   -5.0030   13.9820 N   0  0  0  0  0  0  0  0  0  0  0  0
   18.5660   -1.4240    9.2760 C   0  0  0  0  0  0  0  0  0  0  0  0
   19.3980   -2.4860    9.7310 C   0  0  0  0  0  0  0  0  0  0  0  0
   19.3170   -0.5600    8.5620 N   0  0  0  0  0  0  0  0  0  0  0  0
   20.6630   -2.2750    9.2000 C   0  0  0  0  0  0  0  0  0  0  0  0
   20.6140   -1.0180    8.4180 C   0  0  0  0  0  0  0  0  0  0  0  0
   21.7690   -0.5100    7.6920 C   0  0  0  0  0  0  0  0  0  0  0  0
   23.0170   -1.2700    7.7270 C   0  0  0  0  0  0  0  0  0  0  0  0
   23.0580   -2.5230    8.4970 C   0  0  0  0  0  0  0  0  0  0  0  0
   21.9020   -3.0180    9.2440 C   0  0  0  0  0  0  0  0  0  0  0  0
   24.3030   -3.3970    8.4600 C   0  0  0  0  0  0  0  0  0  0  0  0
   12.9270   -2.3540   11.8920 C   0  0  0  0  0  0  0  0  0  0  0  0
   12.3460   -1.1410   11.3200 C   0  0  0  0  0  0  0  0  0  0  0  0
   13.0440   -0.3150   10.3990 C   0  0  0  0  0  0  0  0  0  0  0  0
   14.2980   -2.7250   11.5700 C   0  0  0  0  0  0  0  0  0  0  0  0
   15.0320   -1.8760   10.6760 C   0  0  0  0  0  0  0  0  0  0  0  0
   14.3780   -0.7090   10.1090 C   0  0  0  0  0  0  0  0  0  0  0  0
   15.0920    0.1310    9.2870 N   0  0  0  0  0  0  0  0  0  0  0  0
   16.4000   -0.1010    8.9610 C   0  0  0  0  0  0  0  0  0  0  0  0
   17.1210   -1.2750    9.5780 C   0  0  0  0  0  0  0  0  0  0  0  0
   16.3780   -2.1410   10.4370 C   0  0  0  0  0  0  0  0  0  0  0  0
   16.9310    0.6710    8.1690 O   0  0  0  0  0  0  0  0  0  0  0  0
   24.4930   -4.1030    7.1640 N   0  3  0  0  0  0  0  0  0  0  0  0
   25.4530   -5.2230    7.2650 C   0  0  0  0  0  0  0  0  0  0  0  0
   25.6250   -5.9000    5.8940 C   0  0  0  0  0  0  0  0  0  0  0  0
   24.2870   -6.4300    5.3790 C   0  0  0  0  0  0  0  0  0  0  0  0
   23.3440   -5.2420    5.2690 C   0  0  0  0  0  0  0  0  0  0  0  0
   23.2000   -4.5960    6.6450 C   0  0  0  0  0  0  0  0  0  0  0  0
   13.4200   -4.8558   13.4541 H   0  0  0  0  0  0  0  0  0  0  0  0
   10.0507   -2.2874   12.7475 H   0  0  0  0  0  0  0  0  0  0  0  0
    9.3969   -4.1812   14.4019 H   0  0  0  0  0  0  0  0  0  0  0  0
   19.0977   -3.3106   10.3758 H   0  0  0  0  0  0  0  0  0  0  0  0
   18.9686    0.3280    8.1735 H   0  0  0  0  0  0  0  0  0  0  0  0
   21.7045    0.4173    7.1343 H   0  0  0  0  0  0  0  0  0  0  0  0
   23.8943   -0.9177    7.1966 H   0  0  0  0  0  0  0  0  0  0  0  0
   21.9736   -3.9312    9.8237 H   0  0  0  0  0  0  0  0  0  0  0  0
   24.2242   -4.1496    9.2584 H   0  0  0  0  0  0  0  0  0  0  0  0
   25.1813   -2.7602    8.6418 H   0  0  0  0  0  0  0  0  0  0  0  0
   11.3403   -0.8599   11.6108 H   0  0  0  0  0  0  0  0  0  0  0  0
   12.5887    0.5588    9.9470 H   0  0  0  0  0  0  0  0  0  0  0  0
   14.7500   -3.6150   11.9927 H   0  0  0  0  0  0  0  0  0  0  0  0
   14.6386    0.9406    8.9142 H   0  0  0  0  0  0  0  0  0  0  0  0
   16.8597   -3.0006   10.9008 H   0  0  0  0  0  0  0  0  0  0  0  0
   24.8638   -3.4372    6.5043 H   0  0  0  0  0  0  0  0  0  0  0  0
   25.0766   -5.9601    7.9896 H   0  0  0  0  0  0  0  0  0  0  0  0
   26.4258   -4.8383    7.6049 H   0  0  0  0  0  0  0  0  0  0  0  0
   26.3313   -6.7376    5.9914 H   0  0  0  0  0  0  0  0  0  0  0  0
   26.0225   -5.1667    5.1769 H   0  0  0  0  0  0  0  0  0  0  0  0
   23.8792   -7.1707    6.0826 H   0  0  0  0  0  0  0  0  0  0  0  0
   24.4214   -6.8969    4.3921 H   0  0  0  0  0  0  0  0  0  0  0  0
   22.3595   -5.5834    4.9165 H   0  0  0  0  0  0  0  0  0  0  0  0
   23.7542   -4.5095    4.5583 H   0  0  0  0  0  0  0  0  0  0  0  0
   22.5021   -3.7492    6.5683 H   0  0  0  0  0  0  0  0  0  0  0  0
   22.7967   -5.3411    7.3465 H   0  0  0  0  0  0  0  0  0  0  0  0
  1  5  2  0  0  0  0
  1 33  1  0  0  0  0
  2  1  1  0  0  0  0
  2  3  2  0  0  0  0
  3  4  1  0  0  0  0
  3 34  1  0  0  0  0
  4  5  1  0  0  0  0
  4 35  1  0  0  0  0
  6  7  2  0  0  0  0
  6  8  1  0  0  0  0
  7  9  1  0  0  0  0
  7 36  1  0  0  0  0
  8 10  1  0  0  0  0
  8 37  1  0  0  0  0
  9 14  1  0  0  0  0
 10  9  2  0  0  0  0
 10 11  1  0  0  0  0
 11 12  2  0  0  0  0
 11 38  1  0  0  0  0
 12 13  1  0  0  0  0
 12 39  1  0  0  0  0
 13 15  1  0  0  0  0
 14 13  2  0  0  0  0
 14 40  1  0  0  0  0
 15 27  1  0  0  0  0
 15 41  1  0  0  0  0
 15 42  1  0  0  0  0
 16  2  1  0  0  0  0
 17 16  2  0  0  0  0
 17 43  1  0  0  0  0
 18 17  1  0  0  0  0
 18 44  1  0  0  0  0
 19 16  1  0  0  0  0
 19 45  1  0  0  0  0
 20 19  2  0  0  0  0
 20 25  1  0  0  0  0
 21 18  2  0  0  0  0
 21 20  1  0  0  0  0
 22 21  1  0  0  0  0
 22 46  1  0  0  0  0
 23 22  1  0  0  0  0
 23 24  1  0  0  0  0
 23 26  2  0  0  0  0
 24  6  1  0  0  0  0
 24 25  2  0  0  0  0
 25 47  1  0  0  0  0
 27 28  1  0  0  0  0
 27 32  1  0  0  0  0
 27 48  1  0  0  0  0
 28 29  1  0  0  0  0
 28 49  1  0  0  0  0
 28 50  1  0  0  0  0
 29 30  1  0  0  0  0
 29 51  1  0  0  0  0
 29 52  1  0  0  0  0
 30 31  1  0  0  0  0
 30 53  1  0  0  0  0
 30 54  1  0  0  0  0
 31 32  1  0  0  0  0
 31 55  1  0  0  0  0
 31 56  1  0  0  0  0
 32 57  1  0  0  0  0
 32 58  1  0  0  0  0
M  CHG  1  27   1
M  END
