2hz4_ligand
 OpenBabel08222323343D

 66 73  0  0  1  0  0  0  0  0999 V2000
   24.5600    4.7580   25.4650 C   0  0  0  0  0  0  0  0  0  0  0  0
   25.0800    5.0520   26.7580 O   0  0  0  0  0  0  0  0  0  0  0  0
   25.0820    4.0320   27.7760 C   0  0  2  0  0  0  0  0  0  0  0  0
   25.0900    4.7730   29.1140 C   0  0  2  0  0  0  0  0  0  0  0  0
   23.8280    5.5410   29.2760 N   0  3  0  0  0  0  0  0  0  0  0  0
   23.2360    5.8860   30.5830 C   0  0  0  0  0  0  0  0  0  0  0  0
   26.3850    5.6050   29.1340 C   0  0  0  0  0  0  0  0  0  0  0  0
   27.5350    4.6870   28.6540 C   0  0  1  0  0  0  0  0  0  0  0  0
   27.2650    3.2740   28.4590 O   0  0  0  0  0  0  0  0  0  0  0  0
   26.1590    2.8890   27.6240 C   0  0  1  0  0  0  0  0  0  0  0  0
   25.7670    1.5880   28.3540 C   0  0  0  0  0  0  0  0  0  0  0  0
   26.6590    2.6650   26.2470 N   0  0  0  0  0  0  0  0  0  0  0  0
   26.2510    1.7600   25.2350 C   0  0  0  0  0  0  0  0  0  0  0  0
   25.2550    0.7280   25.1860 C   0  0  0  0  0  0  0  0  0  0  0  0
   25.0630   -0.0780   24.0140 C   0  0  0  0  0  0  0  0  0  0  0  0
   25.8630    0.1510   22.8660 C   0  0  0  0  0  0  0  0  0  0  0  0
   26.8550    1.1730   22.9270 C   0  0  0  0  0  0  0  0  0  0  0  0
   27.0110    1.9350   24.1220 C   0  0  0  0  0  0  0  0  0  0  0  0
   27.9270    3.0020   24.3920 C   0  0  0  0  0  0  0  0  0  0  0  0
   27.6990    3.4580   25.7410 C   0  0  0  0  0  0  0  0  0  0  0  0
   28.4310    4.4750   26.2900 C   0  0  0  0  0  0  0  0  0  0  0  0
   28.3700    5.0960   27.5330 N   0  0  0  0  0  0  0  0  0  0  0  0
   29.3260    6.0820   27.6120 C   0  0  0  0  0  0  0  0  0  0  0  0
   29.6050    6.9680   28.8130 C   0  0  0  0  0  0  0  0  0  0  0  0
   30.2140    8.3110   28.3770 C   0  0  0  0  0  0  0  0  0  0  0  0
   31.4130    8.1240   27.4240 C   0  0  0  0  0  0  0  0  0  0  0  0
   31.1210    7.1740   26.2280 C   0  0  0  0  0  0  0  0  0  0  0  0
   30.0170    6.1670   26.4560 C   0  0  0  0  0  0  0  0  0  0  0  0
   29.4730    5.1610   25.5620 C   0  0  0  0  0  0  0  0  0  0  0  0
   29.6800    4.6970   24.2280 C   0  0  0  0  0  0  0  0  0  0  0  0
   28.9460    3.6500   23.6580 C   0  0  0  0  0  0  0  0  0  0  0  0
   29.3630    3.3680   22.2350 C   0  0  0  0  0  0  0  0  0  0  0  0
   30.4180    4.3800   22.1310 N   0  0  0  0  0  0  0  0  0  0  0  0
   30.6190    5.1420   23.2230 C   0  0  0  0  0  0  0  0  0  0  0  0
   31.4300    6.0540   23.3670 O   0  0  0  0  0  0  0  0  0  0  0  0
   24.6406    5.6497   24.8260 H   0  0  0  0  0  0  0  0  0  0  0  0
   23.5036    4.4641   25.5527 H   0  0  0  0  0  0  0  0  0  0  0  0
   25.1342    3.9333   25.0177 H   0  0  0  0  0  0  0  0  0  0  0  0
   24.1134    3.5155   27.7050 H   0  0  0  0  0  0  0  0  0  0  0  0
   25.1390    4.0424   29.9349 H   0  0  0  0  0  0  0  0  0  0  0  0
   23.1220    5.0136   28.7866 H   0  0  0  0  0  0  0  0  0  0  0  0
   23.9793    6.4187   28.8040 H   0  0  0  0  0  0  0  0  0  0  0  0
   22.3074    6.4545   30.4263 H   0  0  0  0  0  0  0  0  0  0  0  0
   23.9474    6.4970   31.1580 H   0  0  0  0  0  0  0  0  0  0  0  0
   23.0118    4.9637   31.1389 H   0  0  0  0  0  0  0  0  0  0  0  0
   26.5884    5.9589   30.1555 H   0  0  0  0  0  0  0  0  0  0  0  0
   26.2872    6.4684   28.4595 H   0  0  0  0  0  0  0  0  0  0  0  0
   28.2161    4.7155   29.5173 H   0  0  0  0  0  0  0  0  0  0  0  0
   26.5556    0.8348   28.2098 H   0  0  0  0  0  0  0  0  0  0  0  0
   24.8189    1.2092   27.9446 H   0  0  0  0  0  0  0  0  0  0  0  0
   25.6470    1.7921   29.4282 H   0  0  0  0  0  0  0  0  0  0  0  0
   24.6322    0.5528   26.0558 H   0  0  0  0  0  0  0  0  0  0  0  0
   24.3101   -0.8579   24.0066 H   0  0  0  0  0  0  0  0  0  0  0  0
   25.7239   -0.4358   21.9653 H   0  0  0  0  0  0  0  0  0  0  0  0
   27.4876    1.3699   22.0690 H   0  0  0  0  0  0  0  0  0  0  0  0
   30.3098    6.4541   29.4832 H   0  0  0  0  0  0  0  0  0  0  0  0
   28.6623    7.1571   29.3474 H   0  0  0  0  0  0  0  0  0  0  0  0
   30.5537    8.8533   29.2717 H   0  0  0  0  0  0  0  0  0  0  0  0
   29.4408    8.9004   27.8624 H   0  0  0  0  0  0  0  0  0  0  0  0
   32.2527    7.7082   28.0003 H   0  0  0  0  0  0  0  0  0  0  0  0
   31.6950    9.1090   27.0238 H   0  0  0  0  0  0  0  0  0  0  0  0
   32.0440    6.6204   26.0008 H   0  0  0  0  0  0  0  0  0  0  0  0
   30.8424    7.7932   25.3626 H   0  0  0  0  0  0  0  0  0  0  0  0
   28.5464    3.5415   21.5187 H   0  0  0  0  0  0  0  0  0  0  0  0
   29.7509    2.3465   22.1085 H   0  0  0  0  0  0  0  0  0  0  0  0
   30.9574    4.4979   21.2973 H   0  0  0  0  0  0  0  0  0  0  0  0
  1  2  1  0  0  0  0
  1 36  1  0  0  0  0
  1 37  1  0  0  0  0
  1 38  1  0  0  0  0
  2  3  1  0  0  0  0
  3  4  1  0  0  0  0
  3 10  1  0  0  0  0
  3 39  1  6  0  0  0
  4  5  1  0  0  0  0
  4  7  1  0  0  0  0
  4 40  1  1  0  0  0
  5  6  1  0  0  0  0
  5 41  1  0  0  0  0
  5 42  1  0  0  0  0
  6 43  1  0  0  0  0
  6 44  1  0  0  0  0
  6 45  1  0  0  0  0
  7  8  1  0  0  0  0
  7 46  1  0  0  0  0
  7 47  1  0  0  0  0
  8  9  1  0  0  0  0
  8 22  1  0  0  0  0
  8 48  1  1  0  0  0
  9 10  1  0  0  0  0
 10 11  1  1  0  0  0
 10 12  1  0  0  0  0
 11 49  1  0  0  0  0
 11 50  1  0  0  0  0
 11 51  1  0  0  0  0
 12 13  1  0  0  0  0
 12 20  1  0  0  0  0
 13 14  2  0  0  0  0
 13 18  1  0  0  0  0
 14 15  1  0  0  0  0
 14 52  1  0  0  0  0
 15 16  2  0  0  0  0
 15 53  1  0  0  0  0
 16 17  1  0  0  0  0
 16 54  1  0  0  0  0
 17 18  2  0  0  0  0
 17 55  1  0  0  0  0
 18 19  1  0  0  0  0
 19 20  2  0  0  0  0
 19 31  1  0  0  0  0
 20 21  1  0  0  0  0
 21 22  1  0  0  0  0
 21 29  2  0  0  0  0
 22 23  1  0  0  0  0
 23 24  1  0  0  0  0
 23 28  2  0  0  0  0
 24 25  1  0  0  0  0
 24 56  1  0  0  0  0
 24 57  1  0  0  0  0
 25 26  1  0  0  0  0
 25 58  1  0  0  0  0
 25 59  1  0  0  0  0
 26 27  1  0  0  0  0
 26 60  1  0  0  0  0
 26 61  1  0  0  0  0
 27 28  1  0  0  0  0
 27 62  1  0  0  0  0
 27 63  1  0  0  0  0
 28 29  1  0  0  0  0
 29 30  1  0  0  0  0
 30 31  2  0  0  0  0
 30 34  1  0  0  0  0
 31 32  1  0  0  0  0
 32 33  1  0  0  0  0
 32 64  1  0  0  0  0
 32 65  1  0  0  0  0
 33 34  1  0  0  0  0
 33 66  1  0  0  0  0
 34 35  2  0  0  0  0
M  CHG  1   5   1
M  END
