2hzi_ligand
 OpenBabel08222323343D

 44 47  0  0  0  0  0  0  0  0999 V2000
   18.7180   14.5070    3.5840 C   0  0  0  0  0  0  0  0  0  0  0  0
   17.6050   16.1330    4.9300 C   0  0  0  0  0  0  0  0  0  0  0  0
   15.1530   16.0020    5.3110 C   0  0  0  0  0  0  0  0  0  0  0  0
   22.0520   16.8670    5.8630 C   0  0  0  0  0  0  0  0  0  0  0  0
   22.4560   17.8380    4.9110 C   0  0  0  0  0  0  0  0  0  0  0  0
   20.1290   16.3200    4.5030 C   0  0  0  0  0  0  0  0  0  0  0  0
   20.8670   16.1450    5.6450 C   0  0  0  0  0  0  0  0  0  0  0  0
   12.7210   12.4780    3.1580 C   0  0  0  0  0  0  0  0  0  0  0  0
    9.9420   13.0810    3.6230 C   0  0  0  0  0  0  0  0  0  0  0  0
   10.9270   13.7090    4.3430 C   0  0  0  0  0  0  0  0  0  0  0  0
    9.2220   11.4610    1.9550 C   0  0  0  0  0  0  0  0  0  0  0  0
    8.6710   13.3630    3.8870 F   0  0  0  0  0  0  0  0  0  0  0  0
   10.3390   12.1550    2.6880 C   0  0  0  0  0  0  0  0  0  0  0  0
   11.6930   11.7860    2.4860 C   0  0  0  0  0  0  0  0  0  0  0  0
   12.2820   13.4030    4.1210 C   0  0  0  0  0  0  0  0  0  0  0  0
   13.9880   12.0550    2.8670 N   0  0  0  0  0  0  0  0  0  0  0  0
   15.1360   12.7130    3.0870 C   0  0  0  0  0  0  0  0  0  0  0  0
   16.1630   12.1260    2.5210 N   0  0  0  0  0  0  0  0  0  0  0  0
   17.3840   12.6850    2.6400 C   0  0  0  0  0  0  0  0  0  0  0  0
   15.1830   13.8300    3.8310 N   0  0  0  0  0  0  0  0  0  0  0  0
   16.3920   14.4070    3.9860 C   0  0  0  0  0  0  0  0  0  0  0  0
   16.4410   15.4940    4.7440 N   0  0  0  0  0  0  0  0  0  0  0  0
   17.5860   17.1530    5.6210 O   0  0  0  0  0  0  0  0  0  0  0  0
   18.7910   15.6810    4.3350 C   0  0  0  0  0  0  0  0  0  0  0  0
   17.5060   13.8530    3.4140 C   0  0  0  0  0  0  0  0  0  0  0  0
   20.5380   17.2630    3.5440 C   0  0  0  0  0  0  0  0  0  0  0  0
   21.7110   18.0230    3.7110 C   0  0  0  0  0  0  0  0  0  0  0  0
   19.6970   17.5810    2.0470 Cl  0  0  0  0  0  0  0  0  0  0  0  0
   20.3770   14.9170    6.8500 Cl  0  0  0  0  0  0  0  0  0  0  0  0
   19.6195   14.1008    3.1277 H   0  0  0  0  0  0  0  0  0  0  0  0
   15.3471   16.9017    5.9134 H   0  0  0  0  0  0  0  0  0  0  0  0
   14.7006   15.2261    5.9461 H   0  0  0  0  0  0  0  0  0  0  0  0
   14.4643   16.2518    4.4904 H   0  0  0  0  0  0  0  0  0  0  0  0
   22.6506   16.6844    6.7481 H   0  0  0  0  0  0  0  0  0  0  0  0
   23.3363   18.4424    5.0977 H   0  0  0  0  0  0  0  0  0  0  0  0
   10.6585   14.4476    5.0896 H   0  0  0  0  0  0  0  0  0  0  0  0
    9.6451   10.7452    1.2349 H   0  0  0  0  0  0  0  0  0  0  0  0
    8.6167   12.2064    1.4184 H   0  0  0  0  0  0  0  0  0  0  0  0
    8.5881   10.9242    2.6761 H   0  0  0  0  0  0  0  0  0  0  0  0
   11.9379   10.9712    1.8143 H   0  0  0  0  0  0  0  0  0  0  0  0
   13.0275   13.9076    4.7249 H   0  0  0  0  0  0  0  0  0  0  0  0
   14.0704   11.1262    2.4294 H   0  0  0  0  0  0  0  0  0  0  0  0
   18.2475   12.2466    2.1528 H   0  0  0  0  0  0  0  0  0  0  0  0
   22.0364   18.7253    2.9521 H   0  0  0  0  0  0  0  0  0  0  0  0
  1 24  2  0  0  0  0
  1 30  1  0  0  0  0
  2 22  1  0  0  0  0
  2 23  2  0  0  0  0
  3 31  1  0  0  0  0
  3 32  1  0  0  0  0
  3 33  1  0  0  0  0
  4  5  2  0  0  0  0
  4 34  1  0  0  0  0
  5 27  1  0  0  0  0
  5 35  1  0  0  0  0
  6  7  2  0  0  0  0
  6 26  1  0  0  0  0
  7  4  1  0  0  0  0
  7 29  1  0  0  0  0
  8 14  2  0  0  0  0
  8 15  1  0  0  0  0
  9 12  1  0  0  0  0
 10  9  1  0  0  0  0
 10 36  1  0  0  0  0
 11 37  1  0  0  0  0
 11 38  1  0  0  0  0
 11 39  1  0  0  0  0
 13  9  2  0  0  0  0
 13 11  1  0  0  0  0
 14 13  1  0  0  0  0
 14 40  1  0  0  0  0
 15 10  2  0  0  0  0
 15 41  1  0  0  0  0
 16  8  1  0  0  0  0
 16 42  1  0  0  0  0
 17 16  1  0  0  0  0
 17 20  1  0  0  0  0
 18 17  2  0  0  0  0
 19 18  1  0  0  0  0
 19 25  2  0  0  0  0
 19 43  1  0  0  0  0
 20 21  2  0  0  0  0
 21 22  1  0  0  0  0
 21 25  1  0  0  0  0
 22  3  1  0  0  0  0
 24  2  1  0  0  0  0
 24  6  1  0  0  0  0
 25  1  1  0  0  0  0
 26 27  2  0  0  0  0
 26 28  1  0  0  0  0
 27 44  1  0  0  0  0
M  END
