2i03_ligand
 OpenBabel08222323343D

 56 58  0  0  1  0  0  0  0  0999 V2000
   32.4490    4.6210   64.0770 N   0  3  0  0  0  0  0  0  0  0  0  0
   33.5320    4.8000   63.0720 C   0  0  0  0  0  0  0  0  0  0  0  0
   34.3470    3.4980   63.0160 C   0  0  0  0  0  0  0  0  0  0  0  0
   35.4710    3.6080   61.9700 C   0  0  0  0  0  0  0  0  0  0  0  0
   34.9240    4.0110   60.6130 N   0  0  0  0  0  0  0  0  0  0  0  0
   34.0500    5.2270   60.5730 C   0  0  0  0  0  0  0  0  0  0  0  0
   32.9600    5.0840   61.6340 C   0  0  0  0  0  0  0  0  0  0  0  0
   29.7170    8.1340   64.0000 C   0  0  2  0  0  0  0  0  0  0  0  0
   29.4490    6.8000   63.3880 N   0  0  0  0  0  0  0  0  0  0  0  0
   28.1710    6.7890   62.6680 C   0  0  1  0  0  0  0  0  0  0  0  0
   27.4070    7.8680   63.4440 C   0  0  0  0  0  0  0  0  0  0  0  0
   28.4640    8.9470   63.6380 C   0  0  0  0  0  0  0  0  0  0  0  0
   28.2720    7.1940   61.1650 C   0  0  0  0  0  0  0  0  0  0  0  0
   29.4500    7.4330   60.5690 N   0  0  0  0  0  0  0  0  0  0  0  0
   30.2280    5.6600   63.4780 C   0  0  0  0  0  0  0  0  0  0  0  0
   29.9490    4.6090   62.9280 O   0  0  0  0  0  0  0  0  0  0  0  0
   31.5070    5.7030   64.3530 C   0  0  0  0  0  0  0  0  0  0  0  0
   35.2170    3.2840   59.4470 C   0  0  0  0  0  0  0  0  0  0  0  0
   36.0460    2.1430   59.4930 C   0  0  0  0  0  0  0  0  0  0  0  0
   36.3320    1.4210   58.3230 C   0  0  0  0  0  0  0  0  0  0  0  0
   35.7800    1.8530   57.0770 C   0  0  0  0  0  0  0  0  0  0  0  0
   34.9570    3.0090   57.0790 C   0  0  0  0  0  0  0  0  0  0  0  0
   34.6870    3.7090   58.2340 N   0  0  0  0  0  0  0  0  0  0  0  0
   30.8610    8.8250   63.3480 C   0  0  0  0  0  0  0  0  0  0  0  0
   31.7610    9.3350   62.7360 C   0  0  0  0  0  0  0  0  0  0  0  0
   34.4650    5.9740   63.5350 C   0  0  0  0  0  0  0  0  0  0  0  0
   37.2100    0.2410   58.4290 C   0  0  0  0  0  0  0  0  0  0  0  0
   37.6770   -0.0690   59.5540 O   0  5  0  0  0  0  0  0  0  0  0  0
   37.4720   -0.4190   57.4090 O   0  0  0  0  0  0  0  0  0  0  0  0
   32.8998    4.4007   64.9512 H   0  0  0  0  0  0  0  0  0  0  0  0
   31.9009    3.8315   63.7733 H   0  0  0  0  0  0  0  0  0  0  0  0
   33.6809    2.6657   62.7448 H   0  0  0  0  0  0  0  0  0  0  0  0
   34.7902    3.3059   64.0042 H   0  0  0  0  0  0  0  0  0  0  0  0
   35.9725    2.6332   61.8790 H   0  0  0  0  0  0  0  0  0  0  0  0
   36.1972    4.3643   62.3025 H   0  0  0  0  0  0  0  0  0  0  0  0
   33.5885    5.3182   59.5787 H   0  0  0  0  0  0  0  0  0  0  0  0
   34.6532    6.1230   60.7809 H   0  0  0  0  0  0  0  0  0  0  0  0
   32.3785    6.0172   61.6665 H   0  0  0  0  0  0  0  0  0  0  0  0
   32.3008    4.2509   61.3486 H   0  0  0  0  0  0  0  0  0  0  0  0
   29.8729    8.0551   65.0860 H   0  0  0  0  0  0  0  0  0  0  0  0
   27.6850    5.8052   62.7447 H   0  0  0  0  0  0  0  0  0  0  0  0
   27.0493    7.4840   64.4107 H   0  0  0  0  0  0  0  0  0  0  0  0
   26.5542    8.2474   62.8619 H   0  0  0  0  0  0  0  0  0  0  0  0
   28.6180    9.5217   62.7128 H   0  0  0  0  0  0  0  0  0  0  0  0
   28.1865    9.6316   64.4531 H   0  0  0  0  0  0  0  0  0  0  0  0
   27.3574    7.2856   60.5810 H   0  0  0  0  0  0  0  0  0  0  0  0
   29.4788    7.6928   59.5955 H   0  0  0  0  0  0  0  0  0  0  0  0
   32.0173    6.6608   64.1737 H   0  0  0  0  0  0  0  0  0  0  0  0
   31.2064    5.6397   65.4092 H   0  0  0  0  0  0  0  0  0  0  0  0
   36.4655    1.8212   60.4393 H   0  0  0  0  0  0  0  0  0  0  0  0
   35.9839    1.3140   56.1589 H   0  0  0  0  0  0  0  0  0  0  0  0
   34.5282    3.3512   56.1440 H   0  0  0  0  0  0  0  0  0  0  0  0
   32.5517    9.7831   62.1983 H   0  0  0  0  0  0  0  0  0  0  0  0
   35.2698    6.1150   62.7985 H   0  0  0  0  0  0  0  0  0  0  0  0
   34.9027    5.7302   64.5142 H   0  0  0  0  0  0  0  0  0  0  0  0
   33.8765    6.8997   63.6167 H   0  0  0  0  0  0  0  0  0  0  0  0
  1  2  1  0  0  0  0
  1 30  1  0  0  0  0
  1 31  1  0  0  0  0
  2  3  1  0  0  0  0
  2  7  1  0  0  0  0
  2 26  1  0  0  0  0
  3  4  1  0  0  0  0
  3 32  1  0  0  0  0
  3 33  1  0  0  0  0
  4  5  1  0  0  0  0
  4 34  1  0  0  0  0
  4 35  1  0  0  0  0
  5 18  1  0  0  0  0
  6  5  1  0  0  0  0
  6 36  1  0  0  0  0
  6 37  1  0  0  0  0
  7  6  1  0  0  0  0
  7 38  1  0  0  0  0
  7 39  1  0  0  0  0
  8 12  1  0  0  0  0
  8 24  1  0  0  0  0
  8 40  1  1  0  0  0
  9  8  1  0  0  0  0
  9 10  1  0  0  0  0
 10 11  1  0  0  0  0
 10 13  1  0  0  0  0
 10 41  1  1  0  0  0
 11 12  1  0  0  0  0
 11 42  1  0  0  0  0
 11 43  1  0  0  0  0
 12 44  1  0  0  0  0
 12 45  1  0  0  0  0
 13 14  2  0  0  0  0
 13 46  1  0  0  0  0
 14 47  1  0  0  0  0
 15  9  1  0  0  0  0
 15 16  2  0  0  0  0
 15 17  1  0  0  0  0
 17  1  1  0  0  0  0
 17 48  1  0  0  0  0
 17 49  1  0  0  0  0
 18 19  2  0  0  0  0
 18 23  1  0  0  0  0
 19 20  1  0  0  0  0
 19 50  1  0  0  0  0
 20 21  2  0  0  0  0
 20 27  1  0  0  0  0
 21 22  1  0  0  0  0
 21 51  1  0  0  0  0
 22 23  2  0  0  0  0
 22 52  1  0  0  0  0
 24 25  3  0  0  0  0
 25 53  1  0  0  0  0
 26 54  1  0  0  0  0
 26 55  1  0  0  0  0
 26 56  1  0  0  0  0
 27 28  1  0  0  0  0
 27 29  2  0  0  0  0
M  CHG  2   1   1  28  -1
M  END
