2i0g_ligand
 OpenBabel08222323343D

 39 42  0  0  1  0  0  0  0  0999 V2000
   77.0370   39.8630   67.5790 C   0  0  1  0  0  0  0  0  0  0  0  0
   77.8800   40.8900   68.3520 C   0  0  0  0  0  0  0  0  0  0  0  0
   78.7870   41.7320   67.6420 C   0  0  0  0  0  0  0  0  0  0  0  0
   79.5730   42.6830   68.3470 C   0  0  0  0  0  0  0  0  0  0  0  0
   79.4570   42.7880   69.7490 C   0  0  0  0  0  0  0  0  0  0  0  0
   75.6740   38.5710   72.3300 C   0  0  0  0  0  0  0  0  0  0  0  0
   74.1550   36.3510   71.4500 C   0  0  0  0  0  0  0  0  0  0  0  0
   74.9640   37.0520   70.5380 C   0  0  0  0  0  0  0  0  0  0  0  0
   74.7270   40.6460   67.1340 C   0  0  0  0  0  0  0  0  0  0  0  0
   74.7290   39.8970   68.4920 C   0  0  0  0  0  0  0  0  0  0  0  0
   76.0490   39.0640   68.5110 C   0  0  2  0  0  0  0  0  0  0  0  0
   80.4400   43.4980   67.6880 O   0  0  0  0  0  0  0  0  0  0  0  0
   78.5650   41.9630   70.4420 C   0  0  0  0  0  0  0  0  0  0  0  0
   77.7740   41.0120   69.7530 C   0  0  0  0  0  0  0  0  0  0  0  0
   76.9200   40.2500   70.5140 O   0  0  0  0  0  0  0  0  0  0  0  0
   76.6420   38.9490   69.9620 C   0  0  1  0  0  0  0  0  0  0  0  0
   75.7340   38.1700   70.9620 C   0  0  0  0  0  0  0  0  0  0  0  0
   74.8620   37.8620   73.2410 C   0  0  0  0  0  0  0  0  0  0  0  0
   74.1020   36.7480   72.7960 C   0  0  0  0  0  0  0  0  0  0  0  0
   73.3320   36.0650   73.6600 O   0  0  0  0  0  0  0  0  0  0  0  0
   76.1430   40.5400   66.5290 C   0  0  0  0  0  0  0  0  0  0  0  0
   77.7222   39.1596   67.0833 H   0  0  0  0  0  0  0  0  0  0  0  0
   78.8765   41.6463   66.5651 H   0  0  0  0  0  0  0  0  0  0  0  0
   80.0597   43.5087   70.2898 H   0  0  0  0  0  0  0  0  0  0  0  0
   76.2532   39.4218   72.6703 H   0  0  0  0  0  0  0  0  0  0  0  0
   73.5709   35.5022   71.1132 H   0  0  0  0  0  0  0  0  0  0  0  0
   75.0011   36.7370   69.5014 H   0  0  0  0  0  0  0  0  0  0  0  0
   74.4663   41.7031   67.2910 H   0  0  0  0  0  0  0  0  0  0  0  0
   73.9952   40.1849   66.4544 H   0  0  0  0  0  0  0  0  0  0  0  0
   73.8551   39.2330   68.5654 H   0  0  0  0  0  0  0  0  0  0  0  0
   74.7157   40.6142   69.3259 H   0  0  0  0  0  0  0  0  0  0  0  0
   75.8701   38.0548   68.1117 H   0  0  0  0  0  0  0  0  0  0  0  0
   80.4052   43.3094   66.7576 H   0  0  0  0  0  0  0  0  0  0  0  0
   78.4783   42.0527   71.5188 H   0  0  0  0  0  0  0  0  0  0  0  0
   77.5922   38.4009   69.8800 H   0  0  0  0  0  0  0  0  0  0  0  0
   74.8185   38.1677   74.2801 H   0  0  0  0  0  0  0  0  0  0  0  0
   73.8752   35.7082   74.3529 H   0  0  0  0  0  0  0  0  0  0  0  0
   76.1160   39.9350   65.6107 H   0  0  0  0  0  0  0  0  0  0  0  0
   76.5291   41.5433   66.2959 H   0  0  0  0  0  0  0  0  0  0  0  0
  1  2  1  0  0  0  0
  1 21  1  0  0  0  0
  1 22  1  6  0  0  0
  2  3  2  0  0  0  0
  3  4  1  0  0  0  0
  3 23  1  0  0  0  0
  4 12  1  0  0  0  0
  5  4  2  0  0  0  0
  5 24  1  0  0  0  0
  6 18  1  0  0  0  0
  6 25  1  0  0  0  0
  7 19  1  0  0  0  0
  7 26  1  0  0  0  0
  8  7  2  0  0  0  0
  8 27  1  0  0  0  0
  9 21  1  0  0  0  0
  9 28  1  0  0  0  0
  9 29  1  0  0  0  0
 10  9  1  0  0  0  0
 10 30  1  0  0  0  0
 10 31  1  0  0  0  0
 11  1  1  0  0  0  0
 11 10  1  0  0  0  0
 11 32  1  6  0  0  0
 12 33  1  0  0  0  0
 13  5  1  0  0  0  0
 13 34  1  0  0  0  0
 14  2  1  0  0  0  0
 14 13  2  0  0  0  0
 15 14  1  0  0  0  0
 16 11  1  0  0  0  0
 16 15  1  0  0  0  0
 16 17  1  0  0  0  0
 16 35  1  6  0  0  0
 17  6  2  0  0  0  0
 17  8  1  0  0  0  0
 18 19  2  0  0  0  0
 18 36  1  0  0  0  0
 19 20  1  0  0  0  0
 20 37  1  0  0  0  0
 21 38  1  0  0  0  0
 21 39  1  0  0  0  0
M  END
