2i0v_ligand
 OpenBabel08222323343D

 39 42  0  0  1  0  0  0  0  0999 V2000
    8.6990   25.9350    7.8890 C   0  0  0  0  0  0  0  0  0  0  0  0
    7.8980   26.6870    6.9720 C   0  0  0  0  0  0  0  0  0  0  0  0
    7.6680   26.1070    5.6790 C   0  0  0  0  0  0  0  0  0  0  0  0
    7.2920   28.0220    7.3900 C   0  0  1  0  0  0  0  0  0  0  0  0
    7.5420   28.4900    8.7370 C   0  0  2  0  0  0  0  0  0  0  0  0
    8.4250   27.6200    9.6670 C   0  0  0  0  0  0  0  0  0  0  0  0
    5.0730   28.7240    6.3350 C   0  0  0  0  0  0  0  0  0  0  0  0
    4.3540   29.4760    5.3790 C   0  0  0  0  0  0  0  0  0  0  0  0
    5.0360   30.2980    4.4500 C   0  0  0  0  0  0  0  0  0  0  0  0
    6.4450   30.3720    4.4710 C   0  0  0  0  0  0  0  0  0  0  0  0
    7.1740   29.6300    5.4250 C   0  0  0  0  0  0  0  0  0  0  0  0
    6.4950   28.8070    6.3750 C   0  0  0  0  0  0  0  0  0  0  0  0
    6.0920   30.5850    8.8630 C   0  0  0  0  0  0  0  0  0  0  0  0
    4.7470   32.6220    9.7320 C   0  0  0  0  0  0  0  0  0  0  0  0
    8.2090   24.8470    5.3410 C   0  0  0  0  0  0  0  0  0  0  0  0
    9.0000   24.1200    6.2570 C   0  0  0  0  0  0  0  0  0  0  0  0
    9.2490   24.6620    7.5360 C   0  0  0  0  0  0  0  0  0  0  0  0
    8.9220   26.4320    9.1730 N   0  0  0  0  0  0  0  0  0  0  0  0
    7.8720   24.1940    3.8030 Cl  0  0  0  0  0  0  0  0  0  0  0  0
    8.7180   27.9500   10.8330 O   0  0  0  0  0  0  0  0  0  0  0  0
    6.9910   29.6970    9.4580 C   0  0  0  0  0  0  0  0  0  0  0  0
    7.1850   30.2100   10.7360 O   0  0  0  0  0  0  0  0  0  0  0  0
    6.4370   31.3470   10.9590 N   0  0  0  0  0  0  0  0  0  0  0  0
    5.7720   31.5570    9.8210 C   0  0  0  0  0  0  0  0  0  0  0  0
    7.0703   26.6441    4.9514 H   0  0  0  0  0  0  0  0  0  0  0  0
    6.3720   27.5235    7.7292 H   0  0  0  0  0  0  0  0  0  0  0  0
    8.3961   29.0770    8.3683 H   0  0  0  0  0  0  0  0  0  0  0  0
    4.5451   28.0866    7.0351 H   0  0  0  0  0  0  0  0  0  0  0  0
    3.2715   29.4230    5.3568 H   0  0  0  0  0  0  0  0  0  0  0  0
    4.4749   30.8716    3.7212 H   0  0  0  0  0  0  0  0  0  0  0  0
    6.9666   30.9976    3.7557 H   0  0  0  0  0  0  0  0  0  0  0  0
    8.2565   29.6850    5.4369 H   0  0  0  0  0  0  0  0  0  0  0  0
    5.7106   30.5321    7.8443 H   0  0  0  0  0  0  0  0  0  0  0  0
    4.7536   33.2155   10.6581 H   0  0  0  0  0  0  0  0  0  0  0  0
    3.7553   32.1660    9.5959 H   0  0  0  0  0  0  0  0  0  0  0  0
    4.9707   33.2756    8.8760 H   0  0  0  0  0  0  0  0  0  0  0  0
    9.4116   23.1559    5.9809 H   0  0  0  0  0  0  0  0  0  0  0  0
    9.8553   24.1154    8.2492 H   0  0  0  0  0  0  0  0  0  0  0  0
    9.4889   25.8816    9.7859 H   0  0  0  0  0  0  0  0  0  0  0  0
  1 17  1  0  0  0  0
  1 18  1  0  0  0  0
  2  1  2  0  0  0  0
  2  3  1  0  0  0  0
  3 15  2  0  0  0  0
  3 25  1  0  0  0  0
  4  2  1  0  0  0  0
  4  5  1  0  0  0  0
  4 26  1  1  0  0  0
  5  6  1  0  0  0  0
  5 21  1  0  0  0  0
  5 27  1  6  0  0  0
  6 18  1  0  0  0  0
  6 20  2  0  0  0  0
  7  8  2  0  0  0  0
  7 12  1  0  0  0  0
  7 28  1  0  0  0  0
  8  9  1  0  0  0  0
  8 29  1  0  0  0  0
  9 10  2  0  0  0  0
  9 30  1  0  0  0  0
 10 11  1  0  0  0  0
 10 31  1  0  0  0  0
 11 12  2  0  0  0  0
 11 32  1  0  0  0  0
 12  4  1  0  0  0  0
 13 24  1  0  0  0  0
 13 33  1  0  0  0  0
 14 34  1  0  0  0  0
 14 35  1  0  0  0  0
 14 36  1  0  0  0  0
 15 16  1  0  0  0  0
 15 19  1  0  0  0  0
 16 17  2  0  0  0  0
 16 37  1  0  0  0  0
 17 38  1  0  0  0  0
 18 39  1  0  0  0  0
 21 13  2  0  0  0  0
 21 22  1  0  0  0  0
 22 23  1  0  0  0  0
 23 24  2  0  0  0  0
 24 14  1  0  0  0  0
M  END
