2i0y_ligand
 OpenBabel08222323343D

 46 48  0  0  0  0  0  0  0  0999 V2000
    4.8210   29.4920    6.6940 C   0  0  0  0  0  0  0  0  0  0  0  0
    4.0660   30.6670    7.0190 C   0  0  0  0  0  0  0  0  0  0  0  0
    4.0100   31.1710    8.3450 C   0  0  0  0  0  0  0  0  0  0  0  0
    6.3080   28.5200    3.3060 C   0  0  0  0  0  0  0  0  0  0  0  0
    6.2000   29.3000    4.6260 C   0  0  0  0  0  0  0  0  0  0  0  0
    3.6200   28.7700    4.6020 C   0  0  0  0  0  0  0  0  0  0  0  0
    3.8570   28.0410    3.2600 C   0  0  0  0  0  0  0  0  0  0  0  0
    5.0380   28.6280    2.4680 C   0  0  0  0  0  0  0  0  0  0  0  0
    5.2240   27.8740    1.1540 C   0  0  0  0  0  0  0  0  0  0  0  0
    4.6580   31.0470   10.8010 C   0  0  0  0  0  0  0  0  0  0  0  0
    7.0690   26.7940    8.1310 C   0  0  0  0  0  0  0  0  0  0  0  0
    7.4480   25.6140    7.3570 C   0  0  0  0  0  0  0  0  0  0  0  0
    8.2850   24.5520    7.6490 C   0  0  0  0  0  0  0  0  0  0  0  0
    7.0100   23.9000    4.3000 C   0  0  0  0  0  0  0  0  0  0  0  0
    4.7120   30.5160    9.3960 C   0  0  0  0  0  0  0  0  0  0  0  0
    5.4680   29.3420    9.0980 C   0  0  0  0  0  0  0  0  0  0  0  0
    5.5300   28.8160    7.7630 C   0  0  0  0  0  0  0  0  0  0  0  0
    4.8900   29.1020    5.3310 N   0  0  0  0  0  0  0  0  0  0  0  0
    3.3930   30.6960   11.3640 O   0  0  0  0  0  0  0  0  0  0  0  0
    6.1970   27.6130    7.4300 N   0  0  0  0  0  0  0  0  0  0  0  0
    7.4780   26.9850    9.2800 O   0  0  0  0  0  0  0  0  0  0  0  0
    8.2660   23.6880    6.5170 C   0  0  0  0  0  0  0  0  0  0  0  0
    7.4180   24.2790    5.6030 C   0  0  0  0  0  0  0  0  0  0  0  0
    6.9180   25.4400    6.0940 O   0  0  0  0  0  0  0  0  0  0  0  0
    6.6830   23.6010    3.2280 N   0  0  0  0  0  0  0  0  0  0  0  0
    3.5252   31.1826    6.2336 H   0  0  0  0  0  0  0  0  0  0  0  0
    3.4287   32.0607    8.5586 H   0  0  0  0  0  0  0  0  0  0  0  0
    6.4924   27.4600    3.5348 H   0  0  0  0  0  0  0  0  0  0  0  0
    7.1511   28.9218    2.7249 H   0  0  0  0  0  0  0  0  0  0  0  0
    6.3201   30.3715    4.4085 H   0  0  0  0  0  0  0  0  0  0  0  0
    7.0087   28.9685    5.2939 H   0  0  0  0  0  0  0  0  0  0  0  0
    3.0064   28.1236    5.2467 H   0  0  0  0  0  0  0  0  0  0  0  0
    3.0788   29.7061    4.3998 H   0  0  0  0  0  0  0  0  0  0  0  0
    2.9466   28.1243    2.6483 H   0  0  0  0  0  0  0  0  0  0  0  0
    4.0640   26.9807    3.4669 H   0  0  0  0  0  0  0  0  0  0  0  0
    4.8355   29.6868    2.2493 H   0  0  0  0  0  0  0  0  0  0  0  0
    6.0711   28.3054    0.6005 H   0  0  0  0  0  0  0  0  0  0  0  0
    4.3091   27.9598    0.5493 H   0  0  0  0  0  0  0  0  0  0  0  0
    5.4259   26.8135    1.3652 H   0  0  0  0  0  0  0  0  0  0  0  0
    4.7695   32.1413   10.7898 H   0  0  0  0  0  0  0  0  0  0  0  0
    5.4674   30.6020   11.3983 H   0  0  0  0  0  0  0  0  0  0  0  0
    8.8501   24.4048    8.5682 H   0  0  0  0  0  0  0  0  0  0  0  0
    6.0049   28.8385    9.8938 H   0  0  0  0  0  0  0  0  0  0  0  0
    2.6980   31.0804   10.8427 H   0  0  0  0  0  0  0  0  0  0  0  0
    6.0001   27.2891    6.5046 H   0  0  0  0  0  0  0  0  0  0  0  0
    8.8097   22.7521    6.3973 H   0  0  0  0  0  0  0  0  0  0  0  0
  1  2  2  0  0  0  0
  1 18  1  0  0  0  0
  2  3  1  0  0  0  0
  2 26  1  0  0  0  0
  3 27  1  0  0  0  0
  4  8  1  0  0  0  0
  4 28  1  0  0  0  0
  4 29  1  0  0  0  0
  5  4  1  0  0  0  0
  5 30  1  0  0  0  0
  5 31  1  0  0  0  0
  6  7  1  0  0  0  0
  6 32  1  0  0  0  0
  6 33  1  0  0  0  0
  7  8  1  0  0  0  0
  7 34  1  0  0  0  0
  7 35  1  0  0  0  0
  8  9  1  0  0  0  0
  8 36  1  0  0  0  0
  9 37  1  0  0  0  0
  9 38  1  0  0  0  0
  9 39  1  0  0  0  0
 10 19  1  0  0  0  0
 10 40  1  0  0  0  0
 10 41  1  0  0  0  0
 11 20  1  0  0  0  0
 11 21  2  0  0  0  0
 12 11  1  0  0  0  0
 12 24  1  0  0  0  0
 13 12  2  0  0  0  0
 13 42  1  0  0  0  0
 14 25  3  0  0  0  0
 15  3  2  0  0  0  0
 15 10  1  0  0  0  0
 16 15  1  0  0  0  0
 16 43  1  0  0  0  0
 17  1  1  0  0  0  0
 17 16  2  0  0  0  0
 18  5  1  0  0  0  0
 18  6  1  0  0  0  0
 19 44  1  0  0  0  0
 20 17  1  0  0  0  0
 20 45  1  0  0  0  0
 22 13  1  0  0  0  0
 22 23  2  0  0  0  0
 22 46  1  0  0  0  0
 23 14  1  0  0  0  0
 23 24  1  0  0  0  0
M  END
