2i40_ligand
 OpenBabel08222323343D

 51 54  0  0  1  0  0  0  0  0999 V2000
   -6.7900  208.4020  110.9490 C   0  0  0  0  0  0  0  0  0  0  0  0
   -7.4790  207.8610  112.0600 O   0  0  0  0  0  0  0  0  0  0  0  0
   -8.7540  207.4780  111.6640 C   0  0  0  0  0  0  0  0  0  0  0  0
   -9.2110  207.6380  110.3710 C   0  0  0  0  0  0  0  0  0  0  0  0
  -10.5030  207.2120  110.1120 C   0  0  0  0  0  0  0  0  0  0  0  0
  -11.2020  207.2510  108.9350 N   0  0  0  0  0  0  0  0  0  0  0  0
  -12.3760  206.7330  109.2160 C   0  0  0  0  0  0  0  0  0  0  0  0
  -12.4690  206.3490  110.5240 N   0  0  0  0  0  0  0  0  0  0  0  0
  -13.5800  205.7990  111.1400 C   0  0  0  0  0  0  0  0  0  0  0  0
  -13.6700  204.8100  112.0950 C   0  0  0  0  0  0  0  0  0  0  0  0
  -15.0170  204.6010  112.5030 C   0  0  0  0  0  0  0  0  0  0  0  0
  -15.4600  203.7190  113.4340 O   0  0  0  0  0  0  0  0  0  0  0  0
  -14.7030  203.6690  114.6620 C   0  0  2  0  0  0  0  0  0  0  0  0
  -15.5660  202.9480  115.6730 C   0  0  0  0  0  0  0  0  0  0  0  0
  -14.2850  204.9930  115.2620 C   0  0  0  0  0  0  0  0  0  0  0  0
  -15.0740  206.1160  115.0920 C   0  0  0  0  0  0  0  0  0  0  0  0
  -14.7140  207.3320  115.6260 C   0  0  0  0  0  0  0  0  0  0  0  0
  -13.5500  207.4380  116.3510 C   0  0  0  0  0  0  0  0  0  0  0  0
  -12.7560  206.3290  116.5350 C   0  0  0  0  0  0  0  0  0  0  0  0
  -13.1120  205.1120  115.9960 C   0  0  0  0  0  0  0  0  0  0  0  0
  -12.1910  203.9660  116.2420 Cl  0  0  0  0  0  0  0  0  0  0  0  0
  -15.9110  205.4310  111.8600 C   0  0  0  0  0  0  0  0  0  0  0  0
  -15.1110  206.4580  110.7460 S   0  0  0  0  0  0  0  0  0  0  0  0
  -17.3270  205.5410  111.9970 C   0  0  0  0  0  0  0  0  0  0  0  0
  -18.0030  206.4200  111.4850 O   0  0  0  0  0  0  0  0  0  0  0  0
  -17.8470  204.5600  112.7920 N   0  0  0  0  0  0  0  0  0  0  0  0
  -11.2730  206.6590  111.1190 C   0  0  0  0  0  0  0  0  0  0  0  0
  -10.8290  206.4950  112.4160 C   0  0  0  0  0  0  0  0  0  0  0  0
   -9.5370  206.9270  112.6530 C   0  0  0  0  0  0  0  0  0  0  0  0
   -8.9230  206.8410  113.8990 O   0  0  0  0  0  0  0  0  0  0  0  0
   -9.8050  206.2620  114.8470 C   0  0  0  0  0  0  0  0  0  0  0  0
   -5.7792  208.7070  111.2575 H   0  0  0  0  0  0  0  0  0  0  0  0
   -7.3371  209.2773  110.5690 H   0  0  0  0  0  0  0  0  0  0  0  0
   -6.7179  207.6423  110.1568 H   0  0  0  0  0  0  0  0  0  0  0  0
   -8.5898  208.0750  109.5976 H   0  0  0  0  0  0  0  0  0  0  0  0
  -13.1811  206.6225  108.4911 H   0  0  0  0  0  0  0  0  0  0  0  0
  -12.8176  204.2578  112.4880 H   0  0  0  0  0  0  0  0  0  0  0  0
  -13.7894  203.0865  114.4722 H   0  0  0  0  0  0  0  0  0  0  0  0
  -15.0310  202.8833  116.6319 H   0  0  0  0  0  0  0  0  0  0  0  0
  -15.7889  201.9344  115.3084 H   0  0  0  0  0  0  0  0  0  0  0  0
  -16.5058  203.5018  115.8142 H   0  0  0  0  0  0  0  0  0  0  0  0
  -15.9953  206.0366  114.5263 H   0  0  0  0  0  0  0  0  0  0  0  0
  -15.3441  208.2013  115.4762 H   0  0  0  0  0  0  0  0  0  0  0  0
  -13.2590  208.3918  116.7760 H   0  0  0  0  0  0  0  0  0  0  0  0
  -11.8410  206.4139  117.1100 H   0  0  0  0  0  0  0  0  0  0  0  0
  -18.8311  204.5273  112.9668 H   0  0  0  0  0  0  0  0  0  0  0  0
  -17.2437  203.8743  113.1994 H   0  0  0  0  0  0  0  0  0  0  0  0
  -11.4481  206.0594  113.1919 H   0  0  0  0  0  0  0  0  0  0  0  0
   -9.3043  206.2017  115.8246 H   0  0  0  0  0  0  0  0  0  0  0  0
  -10.0866  205.2514  114.5164 H   0  0  0  0  0  0  0  0  0  0  0  0
  -10.7080  206.8839  114.9353 H   0  0  0  0  0  0  0  0  0  0  0  0
  1  2  1  0  0  0  0
  1 32  1  0  0  0  0
  1 33  1  0  0  0  0
  1 34  1  0  0  0  0
  2  3  1  0  0  0  0
  3  4  2  0  0  0  0
  3 29  1  0  0  0  0
  4  5  1  0  0  0  0
  4 35  1  0  0  0  0
  5  6  1  0  0  0  0
  5 27  2  0  0  0  0
  6  7  2  0  0  0  0
  7  8  1  0  0  0  0
  7 36  1  0  0  0  0
  8  9  1  0  0  0  0
  8 27  1  0  0  0  0
  9 10  2  0  0  0  0
  9 23  1  0  0  0  0
 10 11  1  0  0  0  0
 10 37  1  0  0  0  0
 11 12  1  0  0  0  0
 11 22  2  0  0  0  0
 12 13  1  0  0  0  0
 13 14  1  0  0  0  0
 13 15  1  0  0  0  0
 13 38  1  6  0  0  0
 14 39  1  0  0  0  0
 14 40  1  0  0  0  0
 14 41  1  0  0  0  0
 15 16  2  0  0  0  0
 15 20  1  0  0  0  0
 16 17  1  0  0  0  0
 16 42  1  0  0  0  0
 17 18  2  0  0  0  0
 17 43  1  0  0  0  0
 18 19  1  0  0  0  0
 18 44  1  0  0  0  0
 19 20  2  0  0  0  0
 19 45  1  0  0  0  0
 20 21  1  0  0  0  0
 22 23  1  0  0  0  0
 22 24  1  0  0  0  0
 24 25  2  0  0  0  0
 24 26  1  0  0  0  0
 26 46  1  0  0  0  0
 26 47  1  0  0  0  0
 27 28  1  0  0  0  0
 28 29  2  0  0  0  0
 28 48  1  0  0  0  0
 29 30  1  0  0  0  0
 30 31  1  0  0  0  0
 31 49  1  0  0  0  0
 31 50  1  0  0  0  0
 31 51  1  0  0  0  0
M  END
