2i47_ligand
 OpenBabel08222323343D

 62 64  0  0  0  0  0  0  0  0999 V2000
   19.6150   64.4160    8.4560 S   0  0  0  0  0  0  0  0  0  0  0  0
   18.8360   62.9090    8.6800 C   0  0  0  0  0  0  0  0  0  0  0  0
   19.3040   65.1950    9.6140 O   0  0  0  0  0  0  0  0  0  0  0  0
   19.2390   65.0240    7.1960 O   0  0  0  0  0  0  0  0  0  0  0  0
   17.9090   62.2750    7.8530 C   0  0  0  0  0  0  0  0  0  0  0  0
   19.0330   62.0600    9.7780 C   0  0  0  0  0  0  0  0  0  0  0  0
   17.5870   61.0990    8.4630 N   0  0  0  0  0  0  0  0  0  0  0  0
   17.3370   62.7070    6.5730 C   0  0  0  0  0  0  0  0  0  0  0  0
   18.2480   60.9780    9.5910 O   0  0  0  0  0  0  0  0  0  0  0  0
   19.8970   62.2150   10.9620 C   0  0  0  0  0  0  0  0  0  0  0  0
   21.2060   64.0140    8.3910 N   0  0  0  0  0  0  0  0  0  0  0  0
   22.1380   64.4400    9.4350 C   0  0  0  0  0  0  0  0  0  0  0  0
   23.3260   65.2060    8.8250 C   0  0  0  0  0  0  0  0  0  0  0  0
   23.9830   64.5200    7.5870 C   0  0  0  0  0  0  0  0  0  0  0  0
   22.9260   63.9260    6.5880 C   0  0  0  0  0  0  0  0  0  0  0  0
   21.7350   63.2210    7.2710 C   0  0  0  0  0  0  0  0  0  0  0  0
   24.9650   63.4470    8.1140 C   0  0  0  0  0  0  0  0  0  0  0  0
   24.8000   65.6510    6.9800 C   0  0  0  0  0  0  0  0  0  0  0  0
   25.7330   63.7250    9.0290 O   0  0  0  0  0  0  0  0  0  0  0  0
   24.9200   62.2450    7.5060 N   0  0  0  0  0  0  0  0  0  0  0  0
   25.6070   65.5720    5.4130 S   0  0  0  0  0  0  0  0  0  0  0  0
   25.6920   66.9400    5.0030 O   0  0  0  0  0  0  0  0  0  0  0  0
   24.8450   64.7100    4.5540 O   0  0  0  0  0  0  0  0  0  0  0  0
   27.2760   64.9970    5.5120 C   0  0  0  0  0  0  0  0  0  0  0  0
   27.6630   63.8120    4.8050 C   0  0  0  0  0  0  0  0  0  0  0  0
   29.0190   63.3760    4.8710 C   0  0  0  0  0  0  0  0  0  0  0  0
   29.9650   64.1170    5.6450 C   0  0  0  0  0  0  0  0  0  0  0  0
   29.5600   65.3090    6.3620 C   0  0  0  0  0  0  0  0  0  0  0  0
   28.2080   65.7460    6.2970 C   0  0  0  0  0  0  0  0  0  0  0  0
   31.2890   63.6240    5.6520 O   0  0  0  0  0  0  0  0  0  0  0  0
   32.3940   64.5680    5.6080 C   0  0  0  0  0  0  0  0  0  0  0  0
   32.5310   65.2180    4.2860 C   0  0  0  0  0  0  0  0  0  0  0  0
   32.6240   65.7850    3.2290 C   0  0  0  0  0  0  0  0  0  0  0  0
   32.7820   66.4270    1.9370 C   0  0  0  0  0  0  0  0  0  0  0  0
   25.7500   61.2320    7.8910 O   0  0  0  0  0  0  0  0  0  0  0  0
   16.6335   61.9435    6.2095 H   0  0  0  0  0  0  0  0  0  0  0  0
   18.1439   62.8419    5.8377 H   0  0  0  0  0  0  0  0  0  0  0  0
   16.8046   63.6595    6.7121 H   0  0  0  0  0  0  0  0  0  0  0  0
   19.7862   61.3362   11.6143 H   0  0  0  0  0  0  0  0  0  0  0  0
   19.6041   63.1204   11.5137 H   0  0  0  0  0  0  0  0  0  0  0  0
   20.9456   62.3039   10.6417 H   0  0  0  0  0  0  0  0  0  0  0  0
   22.5146   63.5536    9.9664 H   0  0  0  0  0  0  0  0  0  0  0  0
   21.6111   65.0960   10.1436 H   0  0  0  0  0  0  0  0  0  0  0  0
   24.0961   65.3179    9.6025 H   0  0  0  0  0  0  0  0  0  0  0  0
   22.9697   66.1998    8.5160 H   0  0  0  0  0  0  0  0  0  0  0  0
   23.4347   63.1954    5.9419 H   0  0  0  0  0  0  0  0  0  0  0  0
   22.5329   64.7486    5.9726 H   0  0  0  0  0  0  0  0  0  0  0  0
   20.9357   63.0722    6.5301 H   0  0  0  0  0  0  0  0  0  0  0  0
   22.0688   62.2444    7.6514 H   0  0  0  0  0  0  0  0  0  0  0  0
   25.5934   65.8677    7.7105 H   0  0  0  0  0  0  0  0  0  0  0  0
   24.1152   66.5095    6.9169 H   0  0  0  0  0  0  0  0  0  0  0  0
   24.2692   62.0931    6.7621 H   0  0  0  0  0  0  0  0  0  0  0  0
   26.9344   63.2544    4.2276 H   0  0  0  0  0  0  0  0  0  0  0  0
   29.3312   62.4862    4.3364 H   0  0  0  0  0  0  0  0  0  0  0  0
   30.2844   65.8655    6.9456 H   0  0  0  0  0  0  0  0  0  0  0  0
   27.8891   66.6322    6.8336 H   0  0  0  0  0  0  0  0  0  0  0  0
   33.3265   64.0306    5.8352 H   0  0  0  0  0  0  0  0  0  0  0  0
   32.2244   65.3454    6.3675 H   0  0  0  0  0  0  0  0  0  0  0  0
   32.0866   67.2760    1.8620 H   0  0  0  0  0  0  0  0  0  0  0  0
   32.5638   65.7026    1.1385 H   0  0  0  0  0  0  0  0  0  0  0  0
   33.8153   66.7891    1.8314 H   0  0  0  0  0  0  0  0  0  0  0  0
   25.5802   60.4648    7.3571 H   0  0  0  0  0  0  0  0  0  0  0  0
  1  2  1  0  0  0  0
  1  3  2  0  0  0  0
  1  4  2  0  0  0  0
  1 11  1  0  0  0  0
  2  5  1  0  0  0  0
  2  6  2  0  0  0  0
  5  7  2  0  0  0  0
  5  8  1  0  0  0  0
  6  9  1  0  0  0  0
  6 10  1  0  0  0  0
  7  9  1  0  0  0  0
  8 36  1  0  0  0  0
  8 37  1  0  0  0  0
  8 38  1  0  0  0  0
 10 39  1  0  0  0  0
 10 40  1  0  0  0  0
 10 41  1  0  0  0  0
 11 12  1  0  0  0  0
 11 16  1  0  0  0  0
 12 13  1  0  0  0  0
 12 42  1  0  0  0  0
 12 43  1  0  0  0  0
 13 14  1  0  0  0  0
 13 44  1  0  0  0  0
 13 45  1  0  0  0  0
 14 15  1  0  0  0  0
 14 17  1  0  0  0  0
 14 18  1  0  0  0  0
 15 16  1  0  0  0  0
 15 46  1  0  0  0  0
 15 47  1  0  0  0  0
 16 48  1  0  0  0  0
 16 49  1  0  0  0  0
 17 19  2  0  0  0  0
 17 20  1  0  0  0  0
 18 21  1  0  0  0  0
 18 50  1  0  0  0  0
 18 51  1  0  0  0  0
 20 35  1  0  0  0  0
 20 52  1  0  0  0  0
 21 22  2  0  0  0  0
 21 23  2  0  0  0  0
 21 24  1  0  0  0  0
 24 25  2  0  0  0  0
 24 29  1  0  0  0  0
 25 26  1  0  0  0  0
 25 53  1  0  0  0  0
 26 27  2  0  0  0  0
 26 54  1  0  0  0  0
 27 28  1  0  0  0  0
 27 30  1  0  0  0  0
 28 29  2  0  0  0  0
 28 55  1  0  0  0  0
 29 56  1  0  0  0  0
 30 31  1  0  0  0  0
 31 32  1  0  0  0  0
 31 57  1  0  0  0  0
 31 58  1  0  0  0  0
 32 33  3  0  0  0  0
 33 34  1  0  0  0  0
 34 59  1  0  0  0  0
 34 60  1  0  0  0  0
 34 61  1  0  0  0  0
 35 62  1  0  0  0  0
M  END
