2i4p_ligand
 OpenBabel08222323343D

 68 70  0  0  1  0  0  0  0  0999 V2000
   19.9570   20.9670   17.2010 C   0  0  0  0  0  0  0  0  0  0  0  0
   19.0550   19.9690   17.9360 C   0  0  0  0  0  0  0  0  0  0  0  0
   19.8090   18.7160   18.3920 C   0  0  2  0  0  0  0  0  0  0  0  0
   18.9360   17.9330   19.3800 C   0  0  0  0  0  0  0  0  0  0  0  0
   19.4040   17.6920   20.5030 O   0  5  0  0  0  0  0  0  0  0  0  0
   17.7790   17.6120   18.9950 O   0  0  0  0  0  0  0  0  0  0  0  0
   21.0940   19.1130   19.1230 C   0  0  0  0  0  0  0  0  0  0  0  0
   20.2170   17.9380   17.2560 O   0  0  0  0  0  0  0  0  0  0  0  0
   19.3900   17.1840   16.4650 C   0  0  0  0  0  0  0  0  0  0  0  0
   18.3430   16.4410   16.9850 C   0  0  0  0  0  0  0  0  0  0  0  0
   17.5640   15.6260   16.1510 C   0  0  0  0  0  0  0  0  0  0  0  0
   19.6490   17.1360   15.1040 C   0  0  0  0  0  0  0  0  0  0  0  0
   18.8730   16.3230   14.2660 C   0  0  0  0  0  0  0  0  0  0  0  0
   17.8350   15.5780   14.7930 C   0  0  0  0  0  0  0  0  0  0  0  0
   17.0370   14.6420   13.8650 C   0  0  0  0  0  0  0  0  0  0  0  0
   15.5210   14.7040   14.0440 C   0  0  0  0  0  0  0  0  0  0  0  0
   14.8500   15.8340   13.3700 N   0  0  0  0  0  0  0  0  0  0  0  0
   13.3900   15.7750   13.2080 C   0  0  0  0  0  0  0  0  0  0  0  0
   12.7020   15.1560   14.4280 C   0  0  0  0  0  0  0  0  0  0  0  0
   11.2420   14.8350   14.1190 C   0  0  0  0  0  0  0  0  0  0  0  0
   10.5970   14.3020   15.4000 C   0  0  0  0  0  0  0  0  0  0  0  0
    9.1610   13.8240   15.1880 C   0  0  0  0  0  0  0  0  0  0  0  0
    8.5480   13.4210   16.5270 C   0  0  0  0  0  0  0  0  0  0  0  0
    9.4180   12.3890   17.2580 C   0  0  0  0  0  0  0  0  0  0  0  0
   15.4700   16.7130   12.5870 C   0  0  0  0  0  0  0  0  0  0  0  0
   16.7540   16.6140   12.1140 O   0  0  0  0  0  0  0  0  0  0  0  0
   16.8900   17.6190   11.1970 C   0  0  0  0  0  0  0  0  0  0  0  0
   17.9280   17.9980   10.3620 C   0  0  0  0  0  0  0  0  0  0  0  0
   17.7640   19.0650    9.4830 C   0  0  0  0  0  0  0  0  0  0  0  0
   16.5510   19.7590    9.4430 C   0  0  0  0  0  0  0  0  0  0  0  0
   15.5130   19.3780   10.2800 C   0  0  0  0  0  0  0  0  0  0  0  0
   15.6760   18.3100   11.1550 C   0  0  0  0  0  0  0  0  0  0  0  0
   14.8440   17.7310   12.0150 N   0  0  0  0  0  0  0  0  0  0  0  0
   19.3644   21.8429   16.8984 H   0  0  0  0  0  0  0  0  0  0  0  0
   20.3838   20.4869   16.3081 H   0  0  0  0  0  0  0  0  0  0  0  0
   20.7700   21.2874   17.8690 H   0  0  0  0  0  0  0  0  0  0  0  0
   18.2427   19.6643   17.2597 H   0  0  0  0  0  0  0  0  0  0  0  0
   18.6290   20.4649   18.8207 H   0  0  0  0  0  0  0  0  0  0  0  0
   21.6271   18.2066   19.4458 H   0  0  0  0  0  0  0  0  0  0  0  0
   20.8418   19.7230   20.0029 H   0  0  0  0  0  0  0  0  0  0  0  0
   21.7365   19.6946   18.4456 H   0  0  0  0  0  0  0  0  0  0  0  0
   18.1239   16.4899   18.0455 H   0  0  0  0  0  0  0  0  0  0  0  0
   16.7544   15.0369   16.5664 H   0  0  0  0  0  0  0  0  0  0  0  0
   20.4544   17.7292   14.6862 H   0  0  0  0  0  0  0  0  0  0  0  0
   19.0872   16.2787   13.2043 H   0  0  0  0  0  0  0  0  0  0  0  0
   17.3626   13.6092   14.0582 H   0  0  0  0  0  0  0  0  0  0  0  0
   17.2701   14.9114   12.8243 H   0  0  0  0  0  0  0  0  0  0  0  0
   15.3089   14.7767   15.1209 H   0  0  0  0  0  0  0  0  0  0  0  0
   15.0939   13.7707   13.6483 H   0  0  0  0  0  0  0  0  0  0  0  0
   13.1553   15.1673   12.3216 H   0  0  0  0  0  0  0  0  0  0  0  0
   13.0070   16.7961   13.0644 H   0  0  0  0  0  0  0  0  0  0  0  0
   12.7458   15.8666   15.2665 H   0  0  0  0  0  0  0  0  0  0  0  0
   13.2246   14.2287   14.7055 H   0  0  0  0  0  0  0  0  0  0  0  0
   11.1861   14.0732   13.3274 H   0  0  0  0  0  0  0  0  0  0  0  0
   10.7207   15.7457   13.7890 H   0  0  0  0  0  0  0  0  0  0  0  0
   10.5922   15.1055   16.1512 H   0  0  0  0  0  0  0  0  0  0  0  0
   11.1970   13.4576   15.7701 H   0  0  0  0  0  0  0  0  0  0  0  0
    9.1607   12.9574   14.5105 H   0  0  0  0  0  0  0  0  0  0  0  0
    8.5672   14.6367   14.7442 H   0  0  0  0  0  0  0  0  0  0  0  0
    7.5532   12.9869   16.3482 H   0  0  0  0  0  0  0  0  0  0  0  0
    8.4493   14.3162   17.1585 H   0  0  0  0  0  0  0  0  0  0  0  0
    8.9458   12.1237   18.2154 H   0  0  0  0  0  0  0  0  0  0  0  0
   10.4138   12.8165   17.4464 H   0  0  0  0  0  0  0  0  0  0  0  0
    9.5178   11.4872   16.6361 H   0  0  0  0  0  0  0  0  0  0  0  0
   18.8701   17.4627   10.3930 H   0  0  0  0  0  0  0  0  0  0  0  0
   18.5774   19.3580    8.8291 H   0  0  0  0  0  0  0  0  0  0  0  0
   16.4224   20.5914    8.7606 H   0  0  0  0  0  0  0  0  0  0  0  0
   14.5716   19.9146   10.2519 H   0  0  0  0  0  0  0  0  0  0  0  0
  1  2  1  0  0  0  0
  1 34  1  0  0  0  0
  1 35  1  0  0  0  0
  1 36  1  0  0  0  0
  2  3  1  0  0  0  0
  2 37  1  0  0  0  0
  2 38  1  0  0  0  0
  3  4  1  1  0  0  0
  3  7  1  0  0  0  0
  3  8  1  0  0  0  0
  4  5  1  0  0  0  0
  4  6  2  0  0  0  0
  7 39  1  0  0  0  0
  7 40  1  0  0  0  0
  7 41  1  0  0  0  0
  8  9  1  0  0  0  0
  9 10  2  0  0  0  0
  9 12  1  0  0  0  0
 10 11  1  0  0  0  0
 10 42  1  0  0  0  0
 11 14  2  0  0  0  0
 11 43  1  0  0  0  0
 12 13  2  0  0  0  0
 12 44  1  0  0  0  0
 13 14  1  0  0  0  0
 13 45  1  0  0  0  0
 14 15  1  0  0  0  0
 15 16  1  0  0  0  0
 15 46  1  0  0  0  0
 15 47  1  0  0  0  0
 16 17  1  0  0  0  0
 16 48  1  0  0  0  0
 16 49  1  0  0  0  0
 17 18  1  0  0  0  0
 17 25  1  0  0  0  0
 18 19  1  0  0  0  0
 18 50  1  0  0  0  0
 18 51  1  0  0  0  0
 19 20  1  0  0  0  0
 19 52  1  0  0  0  0
 19 53  1  0  0  0  0
 20 21  1  0  0  0  0
 20 54  1  0  0  0  0
 20 55  1  0  0  0  0
 21 22  1  0  0  0  0
 21 56  1  0  0  0  0
 21 57  1  0  0  0  0
 22 23  1  0  0  0  0
 22 58  1  0  0  0  0
 22 59  1  0  0  0  0
 23 24  1  0  0  0  0
 23 60  1  0  0  0  0
 23 61  1  0  0  0  0
 24 62  1  0  0  0  0
 24 63  1  0  0  0  0
 24 64  1  0  0  0  0
 25 26  1  0  0  0  0
 25 33  2  0  0  0  0
 26 27  1  0  0  0  0
 27 28  2  0  0  0  0
 27 32  1  0  0  0  0
 28 29  1  0  0  0  0
 28 65  1  0  0  0  0
 29 30  2  0  0  0  0
 29 66  1  0  0  0  0
 30 31  1  0  0  0  0
 30 67  1  0  0  0  0
 31 32  2  0  0  0  0
 31 68  1  0  0  0  0
 32 33  1  0  0  0  0
M  CHG  1   5  -1
M  END
