2i72_ligand
 OpenBabel08222323343D

 28 29  0  0  0  0  0  0  0  0999 V2000
   -5.7190    9.8390   51.3750 O   0  0  0  0  0  0  0  0  0  0  0  0
   -6.8250    9.2880   51.4780 C   0  0  0  0  0  0  0  0  0  0  0  0
   -6.9880    8.1230   51.9970 N   0  0  0  0  0  0  0  0  0  0  0  0
   -8.1510    7.6340   52.2240 C   0  0  0  0  0  0  0  0  0  0  0  0
   -9.1950    8.2680   52.0380 O   0  0  0  0  0  0  0  0  0  0  0  0
   -5.8300    7.2950   52.3390 C   0  0  0  0  0  0  0  0  0  0  0  0
   -5.3530    7.3740   53.7820 C   0  0  0  0  0  0  0  0  0  0  0  0
   -4.8830    6.1980   54.3670 C   0  0  0  0  0  0  0  0  0  0  0  0
   -4.4050    6.1840   55.6770 C   0  0  0  0  0  0  0  0  0  0  0  0
   -3.8900    5.0230   56.3860 C   0  0  0  0  0  0  0  0  0  0  0  0
   -5.3300    8.5790   54.5190 C   0  0  0  0  0  0  0  0  0  0  0  0
   -4.8750    8.5870   55.8490 C   0  0  0  0  0  0  0  0  0  0  0  0
   -4.4140    7.3730   56.3860 C   0  0  0  0  0  0  0  0  0  0  0  0
   -3.7840    7.1590   57.9320 S   0  0  0  0  0  0  0  0  0  0  0  0
   -3.5090    5.4740   57.6460 C   0  0  0  0  0  0  0  0  0  0  0  0
   -2.9810    4.5280   58.7420 B   0  0  0  0  0  0  0  0  0  0  0  0
   -3.8110    3.2510   58.8410 O   0  0  0  0  0  0  0  0  0  0  0  0
   -2.7030    5.0980   60.1320 O   0  0  0  0  0  0  0  0  0  0  0  0
   -7.7027    9.8176   51.1103 H   0  0  0  0  0  0  0  0  0  0  0  0
   -8.2220    6.6136   52.5977 H   0  0  0  0  0  0  0  0  0  0  0  0
   -4.9949    7.6013   51.6918 H   0  0  0  0  0  0  0  0  0  0  0  0
   -6.0919    6.2476   52.1286 H   0  0  0  0  0  0  0  0  0  0  0  0
   -4.8895    5.2785   53.7929 H   0  0  0  0  0  0  0  0  0  0  0  0
   -3.8172    4.0048   56.0067 H   0  0  0  0  0  0  0  0  0  0  0  0
   -5.6645    9.5009   54.0572 H   0  0  0  0  0  0  0  0  0  0  0  0
   -4.8796    9.4965   56.4389 H   0  0  0  0  0  0  0  0  0  0  0  0
   -3.9735    2.9118   57.9686 H   0  0  0  0  0  0  0  0  0  0  0  0
   -3.5264    5.2981   60.5615 H   0  0  0  0  0  0  0  0  0  0  0  0
  1  2  2  0  0  0  0
  2  3  1  0  0  0  0
  2 19  1  0  0  0  0
  3  4  1  0  0  0  0
  3  6  1  0  0  0  0
  4  5  2  0  0  0  0
  4 20  1  0  0  0  0
  6  7  1  0  0  0  0
  6 21  1  0  0  0  0
  6 22  1  0  0  0  0
  7  8  2  0  0  0  0
  7 11  1  0  0  0  0
  8  9  1  0  0  0  0
  8 23  1  0  0  0  0
  9 10  1  0  0  0  0
  9 13  2  0  0  0  0
 10 15  2  0  0  0  0
 10 24  1  0  0  0  0
 11 12  2  0  0  0  0
 11 25  1  0  0  0  0
 12 13  1  0  0  0  0
 12 26  1  0  0  0  0
 13 14  1  0  0  0  0
 14 15  1  0  0  0  0
 15 16  1  0  0  0  0
 16 17  1  0  0  0  0
 16 18  1  0  0  0  0
 17 27  1  0  0  0  0
 18 28  1  0  0  0  0
M  END
