2i7c_ligand
 OpenBabel08222323343D

 60 62  0  0  1  0  0  0  0  0999 V2000
   12.9340  113.1580   32.2670 N   0  3  0  0  0  0  0  0  0  0  0  0
   12.2760  114.1620   31.4080 C   0  0  0  0  0  0  0  0  0  0  0  0
   13.3360  114.6800   30.6750 C   0  0  0  0  0  0  0  0  0  0  0  0
   13.6450  114.6990   29.3220 C   0  0  0  0  0  0  0  0  0  0  0  0
   15.1650  115.4200   28.7920 S   0  0  0  0  0  0  0  0  0  0  0  0
   16.3750  115.0470   30.1310 C   0  0  0  0  0  0  0  0  0  0  0  0
   17.8070  115.6890   29.9140 C   0  0  1  0  0  0  0  0  0  0  0  0
   18.5280  115.4350   28.6660 O   0  0  0  0  0  0  0  0  0  0  0  0
   17.8270  117.2380   30.0410 C   0  0  1  0  0  0  0  0  0  0  0  0
   18.1270  117.5520   31.3990 O   0  0  0  0  0  0  0  0  0  0  0  0
   18.9330  117.6690   29.0690 C   0  0  1  0  0  0  0  0  0  0  0  0
   19.8660  118.6580   29.5850 O   0  0  0  0  0  0  0  0  0  0  0  0
   19.6660  116.3420   28.8060 C   0  0  2  0  0  0  0  0  0  0  0  0
   20.5290  116.3540   27.5840 N   0  0  0  0  0  0  0  0  0  0  0  0
   20.2660  116.9640   26.4260 C   0  0  0  0  0  0  0  0  0  0  0  0
   21.2580  116.7570   25.5680 N   0  0  0  0  0  0  0  0  0  0  0  0
   22.1680  115.9900   26.1770 C   0  0  0  0  0  0  0  0  0  0  0  0
   23.3920  115.4500   25.7820 C   0  0  0  0  0  0  0  0  0  0  0  0
   23.8770  115.6710   24.5530 N   0  0  0  0  0  0  0  0  0  0  0  0
   24.0840  114.7090   26.6740 N   0  0  0  0  0  0  0  0  0  0  0  0
   23.6040  114.4860   27.8940 C   0  0  0  0  0  0  0  0  0  0  0  0
   22.4370  114.9870   28.2990 N   0  0  0  0  0  0  0  0  0  0  0  0
   21.7010  115.7430   27.4560 C   0  0  0  0  0  0  0  0  0  0  0  0
   12.6710  114.2370   28.2430 C   0  0  0  0  0  0  0  0  0  0  0  0
   12.0470  115.5070   27.6060 C   0  0  0  0  0  0  0  0  0  0  0  0
   11.3600  115.2180   26.2590 C   0  0  0  0  0  0  0  0  0  0  0  0
   10.7960  116.4950   25.5860 C   0  0  0  0  0  0  0  0  0  0  0  0
    9.6920  116.1550   24.5620 C   0  0  0  0  0  0  0  0  0  0  0  0
    9.3640  117.3490   23.7650 N   0  3  0  0  0  0  0  0  0  0  0  0
   12.2444  112.7123   32.8516 H   0  0  0  0  0  0  0  0  0  0  0  0
   13.6232  113.6113   32.8463 H   0  0  0  0  0  0  0  0  0  0  0  0
   13.3837  112.4648   31.6897 H   0  0  0  0  0  0  0  0  0  0  0  0
   11.7918  114.9439   32.0115 H   0  0  0  0  0  0  0  0  0  0  0  0
   11.5304  113.6927   30.7493 H   0  0  0  0  0  0  0  0  0  0  0  0
   14.0829  115.1764   31.2928 H   0  0  0  0  0  0  0  0  0  0  0  0
   16.4931  113.9552   30.1941 H   0  0  0  0  0  0  0  0  0  0  0  0
   15.9673  115.4272   31.0793 H   0  0  0  0  0  0  0  0  0  0  0  0
   18.4251  115.2765   30.7251 H   0  0  0  0  0  0  0  0  0  0  0  0
   16.8630  117.6847   29.7560 H   0  0  0  0  0  0  0  0  0  0  0  0
   18.9745  117.1885   31.6271 H   0  0  0  0  0  0  0  0  0  0  0  0
   18.4860  118.0630   28.1444 H   0  0  0  0  0  0  0  0  0  0  0  0
   20.3031  118.3090   30.3529 H   0  0  0  0  0  0  0  0  0  0  0  0
   20.2893  116.0650   29.6690 H   0  0  0  0  0  0  0  0  0  0  0  0
   19.3697  117.5458   26.2160 H   0  0  0  0  0  0  0  0  0  0  0  0
   24.7824  115.2654   24.2760 H   0  0  0  0  0  0  0  0  0  0  0  0
   23.3445  116.2465   23.8850 H   0  0  0  0  0  0  0  0  0  0  0  0
   24.1803  113.8772   28.5812 H   0  0  0  0  0  0  0  0  0  0  0  0
   11.8821  113.6145   28.6903 H   0  0  0  0  0  0  0  0  0  0  0  0
   13.2061  113.6565   27.4771 H   0  0  0  0  0  0  0  0  0  0  0  0
   12.8441  116.2473   27.4431 H   0  0  0  0  0  0  0  0  0  0  0  0
   11.3004  115.9190   28.3008 H   0  0  0  0  0  0  0  0  0  0  0  0
   10.5308  114.5160   26.4309 H   0  0  0  0  0  0  0  0  0  0  0  0
   12.0947  114.7589   25.5812 H   0  0  0  0  0  0  0  0  0  0  0  0
   11.6142  117.0176   25.0689 H   0  0  0  0  0  0  0  0  0  0  0  0
   10.3741  117.1511   26.3616 H   0  0  0  0  0  0  0  0  0  0  0  0
    8.7924  115.8137   25.0951 H   0  0  0  0  0  0  0  0  0  0  0  0
   10.0473  115.3567   23.8939 H   0  0  0  0  0  0  0  0  0  0  0  0
    8.6430  117.1205   23.0987 H   0  0  0  0  0  0  0  0  0  0  0  0
   10.1872  117.6625   23.2750 H   0  0  0  0  0  0  0  0  0  0  0  0
    9.0372  118.0813   24.3757 H   0  0  0  0  0  0  0  0  0  0  0  0
  1  2  1  0  0  0  0
  1 30  1  0  0  0  0
  1 31  1  0  0  0  0
  1 32  1  0  0  0  0
  2  3  1  0  0  0  0
  2 33  1  0  0  0  0
  2 34  1  0  0  0  0
  3  4  2  0  0  0  0
  3 35  1  0  0  0  0
  4  5  1  0  0  0  0
  4 24  1  0  0  0  0
  5  6  1  0  0  0  0
  6  7  1  0  0  0  0
  6 36  1  0  0  0  0
  6 37  1  0  0  0  0
  7  8  1  0  0  0  0
  7  9  1  0  0  0  0
  7 38  1  1  0  0  0
  8 13  1  0  0  0  0
  9 10  1  0  0  0  0
  9 11  1  0  0  0  0
  9 39  1  6  0  0  0
 10 40  1  0  0  0  0
 11 12  1  0  0  0  0
 11 13  1  0  0  0  0
 11 41  1  6  0  0  0
 12 42  1  0  0  0  0
 13 14  1  0  0  0  0
 13 43  1  1  0  0  0
 14 15  1  0  0  0  0
 14 23  1  0  0  0  0
 15 16  2  0  0  0  0
 15 44  1  0  0  0  0
 16 17  1  0  0  0  0
 17 18  2  0  0  0  0
 17 23  1  0  0  0  0
 18 19  1  0  0  0  0
 18 20  1  0  0  0  0
 19 45  1  0  0  0  0
 19 46  1  0  0  0  0
 20 21  2  0  0  0  0
 21 22  1  0  0  0  0
 21 47  1  0  0  0  0
 22 23  2  0  0  0  0
 24 25  1  0  0  0  0
 24 48  1  0  0  0  0
 24 49  1  0  0  0  0
 25 26  1  0  0  0  0
 25 50  1  0  0  0  0
 25 51  1  0  0  0  0
 26 27  1  0  0  0  0
 26 52  1  0  0  0  0
 26 53  1  0  0  0  0
 27 28  1  0  0  0  0
 27 54  1  0  0  0  0
 27 55  1  0  0  0  0
 28 29  1  0  0  0  0
 28 56  1  0  0  0  0
 28 57  1  0  0  0  0
 29 58  1  0  0  0  0
 29 59  1  0  0  0  0
 29 60  1  0  0  0  0
M  CHG  2   1   1  29   1
M  END
