2idk_ligand
 OpenBabel08222323343D

 57 59  0  0  1  0  0  0  0  0999 V2000
    7.4540  -23.7380   20.3090 N   0  0  0  0  0  0  0  0  0  0  0  0
    6.9230  -23.2360   21.4200 C   0  0  2  0  0  3  0  0  0  0  0  0
    5.8930  -23.8970   22.0460 N   0  0  0  0  0  0  0  0  0  0  0  0
    7.3960  -22.0560   21.9510 N   0  0  0  0  0  0  0  0  0  0  0  0
    8.4280  -21.3590   21.3520 C   0  0  0  0  0  0  0  0  0  0  0  0
    8.8160  -20.3200   21.8520 O   0  0  0  0  0  0  0  0  0  0  0  0
    9.0170  -21.8790   20.1520 C   0  0  0  0  0  0  0  0  0  0  0  0
   10.1320  -21.2220   19.4180 N   0  0  0  0  0  0  0  0  0  0  0  0
   10.6950  -21.8850   18.1480 C   0  0  2  0  0  0  0  0  0  0  0  0
   10.4380  -23.4020   18.2870 C   0  0  0  0  0  0  0  0  0  0  0  0
    9.0180  -23.6340   18.5220 N   0  0  0  0  0  0  0  0  0  0  0  0
    8.4800  -23.1010   19.6630 C   0  0  0  0  0  0  0  0  0  0  0  0
   12.2310  -21.7180   18.0210 C   0  0  0  0  0  0  0  0  0  0  0  0
   12.6740  -20.3160   17.8170 N   0  0  0  0  0  0  0  0  0  0  0  0
   10.7030  -19.9330   19.8930 C   0  0  0  0  0  0  0  0  0  0  0  0
   16.8000  -19.3870   17.5890 C   0  0  0  0  0  0  0  0  0  0  0  0
   15.8330  -18.3540   17.4460 C   0  0  0  0  0  0  0  0  0  0  0  0
   14.4630  -18.6630   17.5220 C   0  0  0  0  0  0  0  0  0  0  0  0
   14.0440  -20.0060   17.7320 C   0  0  0  0  0  0  0  0  0  0  0  0
   15.0160  -21.0350   17.8650 C   0  0  0  0  0  0  0  0  0  0  0  0
   16.3630  -20.7310   17.7950 C   0  0  0  0  0  0  0  0  0  0  0  0
   18.2680  -19.1330   17.5330 C   0  0  0  0  0  0  0  0  0  0  0  0
   18.7180  -18.0150   17.3590 O   0  0  0  0  0  0  0  0  0  0  0  0
   19.0400  -20.2470   17.6960 N   0  0  0  0  0  0  0  0  0  0  0  0
   20.5190  -20.5440   17.7220 C   0  0  1  0  0  0  0  0  0  0  0  0
   21.5010  -19.5280   18.3930 C   0  0  0  0  0  0  0  0  0  0  0  0
   21.6340  -18.1520   17.7290 C   0  0  0  0  0  0  0  0  0  0  0  0
   22.6260  -17.2860   18.5120 C   0  0  0  0  0  0  0  0  0  0  0  0
   23.1770  -17.7050   19.5110 O   0  5  0  0  0  0  0  0  0  0  0  0
   22.8950  -16.0360   18.0920 O   0  0  0  0  0  0  0  0  0  0  0  0
   20.5780  -21.8520   18.4630 C   0  0  0  0  0  0  0  0  0  0  0  0
   21.6070  -22.5140   18.4790 O   0  5  0  0  0  0  0  0  0  0  0  0
   19.4680  -22.2930   19.1110 O   0  0  0  0  0  0  0  0  0  0  0  0
    7.0872  -24.6216   19.9275 H   0  0  0  0  0  0  0  0  0  0  0  0
    5.4803  -23.5099   22.9066 H   0  0  0  0  0  0  0  0  0  0  0  0
    5.5339  -24.7794   21.6544 H   0  0  0  0  0  0  0  0  0  0  0  0
    6.9836  -21.6961   22.7879 H   0  0  0  0  0  0  0  0  0  0  0  0
   10.1957  -21.4755   17.2575 H   0  0  0  0  0  0  0  0  0  0  0  0
   11.0191  -23.7965   19.1336 H   0  0  0  0  0  0  0  0  0  0  0  0
   10.7449  -23.9123   17.3621 H   0  0  0  0  0  0  0  0  0  0  0  0
    8.4446  -24.1750   17.8590 H   0  0  0  0  0  0  0  0  0  0  0  0
   12.5738  -22.3166   17.1641 H   0  0  0  0  0  0  0  0  0  0  0  0
   12.6969  -22.0967   18.9427 H   0  0  0  0  0  0  0  0  0  0  0  0
   11.9738  -19.5649   17.7371 H   0  0  0  0  0  0  0  0  0  0  0  0
   10.1793  -19.6144   20.8064 H   0  0  0  0  0  0  0  0  0  0  0  0
   10.5787  -19.1673   19.1131 H   0  0  0  0  0  0  0  0  0  0  0  0
   11.7732  -20.0641   20.1108 H   0  0  0  0  0  0  0  0  0  0  0  0
   16.1510  -17.3312   17.2789 H   0  0  0  0  0  0  0  0  0  0  0  0
   13.7247  -17.8758   17.4203 H   0  0  0  0  0  0  0  0  0  0  0  0
   14.7004  -22.0601   18.0216 H   0  0  0  0  0  0  0  0  0  0  0  0
   17.0964  -21.5226   17.8977 H   0  0  0  0  0  0  0  0  0  0  0  0
   18.4886  -21.0701   17.8318 H   0  0  0  0  0  0  0  0  0  0  0  0
   20.8586  -20.6781   16.6844 H   0  0  0  0  0  0  0  0  0  0  0  0
   22.4996  -19.9892   18.4053 H   0  0  0  0  0  0  0  0  0  0  0  0
   21.1586  -19.3671   19.4259 H   0  0  0  0  0  0  0  0  0  0  0  0
   20.6514  -17.6579   17.7148 H   0  0  0  0  0  0  0  0  0  0  0  0
   21.9958  -18.2785   16.6979 H   0  0  0  0  0  0  0  0  0  0  0  0
  1  2  1  0  0  0  0
  1 34  1  0  0  0  0
  2  3  1  6  0  0  0
  3 35  1  0  0  0  0
  3 36  1  0  0  0  0
  4  2  1  0  0  0  0
  4 37  1  0  0  0  0
  5  4  1  0  0  0  0
  5  6  2  0  0  0  0
  7  5  1  0  0  0  0
  7 12  2  0  0  0  0
  8  7  1  0  0  0  0
  8 15  1  0  0  0  0
  9  8  1  0  0  0  0
  9 10  1  0  0  0  0
  9 38  1  6  0  0  0
 10 11  1  0  0  0  0
 10 39  1  0  0  0  0
 10 40  1  0  0  0  0
 11 12  1  0  0  0  0
 11 41  1  0  0  0  0
 12  1  1  0  0  0  0
 13  9  1  0  0  0  0
 13 42  1  0  0  0  0
 13 43  1  0  0  0  0
 14 13  1  0  0  0  0
 14 44  1  0  0  0  0
 15 45  1  0  0  0  0
 15 46  1  0  0  0  0
 15 47  1  0  0  0  0
 16 21  1  0  0  0  0
 16 22  1  0  0  0  0
 17 16  2  0  0  0  0
 17 48  1  0  0  0  0
 18 17  1  0  0  0  0
 18 19  2  0  0  0  0
 18 49  1  0  0  0  0
 19 14  1  0  0  0  0
 19 20  1  0  0  0  0
 20 21  2  0  0  0  0
 20 50  1  0  0  0  0
 21 51  1  0  0  0  0
 22 23  2  0  0  0  0
 22 24  1  0  0  0  0
 24 25  1  0  0  0  0
 24 52  1  0  0  0  0
 25 26  1  0  0  0  0
 25 31  1  0  0  0  0
 25 53  1  6  0  0  0
 26 27  1  0  0  0  0
 26 54  1  0  0  0  0
 26 55  1  0  0  0  0
 27 28  1  0  0  0  0
 27 56  1  0  0  0  0
 27 57  1  0  0  0  0
 28 29  1  0  0  0  0
 28 30  2  0  0  0  0
 31 32  1  0  0  0  0
 31 33  2  0  0  0  0
M  CHG  2  29  -1  32  -1
M  END
