2ieh_ligand
 OpenBabel08222323343D

 42 44  0  0  1  0  0  0  0  0999 V2000
   14.6600   14.6660  109.5560 S   0  0  0  0  0  0  0  0  0  0  0  0
   21.2020   13.7110  109.2170 O   0  0  0  0  0  0  0  0  0  0  0  0
   16.6150   12.0640  114.3700 O   0  0  0  0  0  0  0  0  0  0  0  0
   17.0780   13.5100  109.5230 N   0  0  0  0  0  0  0  0  0  0  0  0
   17.0260   15.8300  109.9770 N   0  0  0  0  0  0  0  0  0  0  0  0
   16.3040   14.7030  109.6980 C   0  0  0  0  0  0  0  0  0  0  0  0
   18.3760   16.0070  109.4770 C   0  0  0  0  0  0  0  0  0  0  0  0
   19.1320   14.8240  109.3080 C   0  0  0  0  0  0  0  0  0  0  0  0
   18.5210   13.5690  110.0080 C   0  0  1  0  0  0  0  0  0  0  0  0
   16.3840   16.9090  110.7740 C   0  0  0  0  0  0  0  0  0  0  0  0
   18.7650   17.4390  109.1780 C   0  0  0  0  0  0  0  0  0  0  0  0
   20.5210   14.6170  108.7450 C   0  0  0  0  0  0  0  0  0  0  0  0
   21.0490   15.4470  107.5960 C   0  0  0  0  0  0  0  0  0  0  0  0
   22.4350   15.7570  107.5530 C   0  0  0  0  0  0  0  0  0  0  0  0
   22.9460   16.5510  106.4750 C   0  0  0  0  0  0  0  0  0  0  0  0
   22.0600   17.0210  105.4450 C   0  0  0  0  0  0  0  0  0  0  0  0
   20.7170   16.7080  105.5030 C   0  0  0  0  0  0  0  0  0  0  0  0
   20.1940   15.9260  106.5540 C   0  0  0  0  0  0  0  0  0  0  0  0
   18.5630   13.6270  111.5970 C   0  0  0  0  0  0  0  0  0  0  0  0
   17.5950   12.8310  112.2970 C   0  0  0  0  0  0  0  0  0  0  0  0
   17.5560   12.8310  113.7220 C   0  0  0  0  0  0  0  0  0  0  0  0
   18.4720   13.6180  114.4650 C   0  0  0  0  0  0  0  0  0  0  0  0
   19.4210   14.3940  113.7940 C   0  0  0  0  0  0  0  0  0  0  0  0
   19.4770   14.4090  112.3710 C   0  0  0  0  0  0  0  0  0  0  0  0
   15.7455   12.3448  114.1099 H   0  0  0  0  0  0  0  0  0  0  0  0
   16.6933   12.6862  109.1066 H   0  0  0  0  0  0  0  0  0  0  0  0
   19.0657   12.6708  109.6817 H   0  0  0  0  0  0  0  0  0  0  0  0
   15.3697   16.5969  111.0636 H   0  0  0  0  0  0  0  0  0  0  0  0
   16.3269   17.8266  110.1700 H   0  0  0  0  0  0  0  0  0  0  0  0
   16.9804   17.1016  111.6780 H   0  0  0  0  0  0  0  0  0  0  0  0
   19.8000   17.4679  108.8066 H   0  0  0  0  0  0  0  0  0  0  0  0
   18.6882   18.0393  110.0966 H   0  0  0  0  0  0  0  0  0  0  0  0
   18.0896   17.8505  108.4135 H   0  0  0  0  0  0  0  0  0  0  0  0
   23.1002   15.3960  108.3290 H   0  0  0  0  0  0  0  0  0  0  0  0
   24.0009   16.7973  106.4362 H   0  0  0  0  0  0  0  0  0  0  0  0
   22.4450   17.6185  104.6265 H   0  0  0  0  0  0  0  0  0  0  0  0
   20.0522   17.0696  104.7269 H   0  0  0  0  0  0  0  0  0  0  0  0
   19.1370   15.6864  106.5722 H   0  0  0  0  0  0  0  0  0  0  0  0
   16.8895   12.2263  111.7387 H   0  0  0  0  0  0  0  0  0  0  0  0
   18.4363   13.6177  115.5484 H   0  0  0  0  0  0  0  0  0  0  0  0
   20.1232   14.9919  114.3637 H   0  0  0  0  0  0  0  0  0  0  0  0
   20.2196   15.0190  111.8695 H   0  0  0  0  0  0  0  0  0  0  0  0
  3 25  1  0  0  0  0
  4  6  1  0  0  0  0
  4 26  1  0  0  0  0
  5 10  1  0  0  0  0
  6  1  2  0  0  0  0
  6  5  1  0  0  0  0
  7  5  1  0  0  0  0
  7 11  1  0  0  0  0
  8  7  2  0  0  0  0
  8 12  1  0  0  0  0
  9  4  1  0  0  0  0
  9  8  1  0  0  0  0
  9 27  1  6  0  0  0
 10 28  1  0  0  0  0
 10 29  1  0  0  0  0
 10 30  1  0  0  0  0
 11 31  1  0  0  0  0
 11 32  1  0  0  0  0
 11 33  1  0  0  0  0
 12  2  2  0  0  0  0
 12 13  1  0  0  0  0
 13 14  2  0  0  0  0
 13 18  1  0  0  0  0
 14 15  1  0  0  0  0
 14 34  1  0  0  0  0
 15 16  2  0  0  0  0
 15 35  1  0  0  0  0
 16 36  1  0  0  0  0
 17 16  1  0  0  0  0
 17 37  1  0  0  0  0
 18 17  2  0  0  0  0
 18 38  1  0  0  0  0
 19  9  1  0  0  0  0
 19 24  1  0  0  0  0
 20 19  2  0  0  0  0
 20 21  1  0  0  0  0
 20 39  1  0  0  0  0
 21  3  1  0  0  0  0
 21 22  2  0  0  0  0
 22 23  1  0  0  0  0
 22 40  1  0  0  0  0
 23 24  2  0  0  0  0
 23 41  1  0  0  0  0
 24 42  1  0  0  0  0
M  END
