2ien_ligand
 OpenBabel08222323343D

 75 78  0  0  1  0  0  0  0  0999 V2000
   21.0910   28.7350   14.0670 N   0  0  0  0  0  0  0  0  0  0  0  0
   20.5400   27.5660   14.5190 C   0  0  0  0  0  0  0  0  0  0  0  0
   19.1880   27.3330   14.2100 C   0  0  0  0  0  0  0  0  0  0  0  0
   18.6260   26.1600   14.6750 C   0  0  0  0  0  0  0  0  0  0  0  0
   19.3840   25.2160   15.3450 C   0  0  0  0  0  0  0  0  0  0  0  0
   20.7110   25.4230   15.7210 C   0  0  0  0  0  0  0  0  0  0  0  0
   21.2630   26.6460   15.2920 C   0  0  0  0  0  0  0  0  0  0  0  0
   18.4500   23.7990   15.9930 S   0  0  0  0  0  0  0  0  0  0  0  0
   17.2570   23.4660   15.0690 O   0  0  0  0  0  0  0  0  0  0  0  0
   19.4810   22.6380   16.2400 O   0  0  0  0  0  0  0  0  0  0  0  0
   17.7940   24.1570   17.5840 N   0  0  0  0  0  0  0  0  0  0  0  0
   18.7830   24.4260   18.6320 C   0  0  0  0  0  0  0  0  0  0  0  0
   18.4000   23.8560   20.0060 C   0  0  0  0  0  0  0  0  0  0  0  0
   18.3680   22.3520   19.8930 C   0  0  0  0  0  0  0  0  0  0  0  0
   19.5030   24.3350   20.9200 C   0  0  0  0  0  0  0  0  0  0  0  0
   16.5050   24.8940   17.5640 C   0  0  0  0  0  0  0  0  0  0  0  0
   15.3940   23.9640   18.1580 C   0  0  1  0  0  0  0  0  0  0  0  0
   14.2320   24.7640   18.4090 O   0  0  0  0  0  0  0  0  0  0  0  0
   15.0130   22.8280   17.1770 C   0  0  1  0  0  0  0  0  0  0  0  0
   14.1320   21.9410   17.8870 N   0  0  0  0  0  0  0  0  0  0  0  0
   14.4880   20.6750   18.2230 C   0  0  0  0  0  0  0  0  0  0  0  0
   15.5870   20.0860   17.9550 O   0  0  0  0  0  0  0  0  0  0  0  0
   13.4210   20.0660   18.9520 O   0  0  0  0  0  0  0  0  0  0  0  0
   13.5050   18.6020   19.1020 C   0  0  1  0  0  0  0  0  0  0  0  0
   12.8390   18.3510   20.4850 C   0  0  0  0  0  0  0  0  0  0  0  0
   11.4120   18.4700   20.2840 O   0  0  0  0  0  0  0  0  0  0  0  0
   11.2200   17.9780   18.9680 C   0  0  1  0  0  0  0  0  0  0  0  0
   10.2970   18.8060   18.2910 O   0  0  0  0  0  0  0  0  0  0  0  0
   11.0420   19.4440   17.2410 C   0  0  0  0  0  0  0  0  0  0  0  0
   12.1310   18.4320   16.8180 C   0  0  0  0  0  0  0  0  0  0  0  0
   12.4700   17.8870   18.2130 C   0  0  1  0  0  0  0  0  0  0  0  0
   14.2940   23.2850   15.8960 C   0  0  0  0  0  0  0  0  0  0  0  0
   12.5490   21.7500   14.8810 C   0  0  0  0  0  0  0  0  0  0  0  0
   12.1480   20.6610   14.0690 C   0  0  0  0  0  0  0  0  0  0  0  0
   13.1190   19.9330   13.3910 C   0  0  0  0  0  0  0  0  0  0  0  0
   14.4710   20.2400   13.5170 C   0  0  0  0  0  0  0  0  0  0  0  0
   14.8600   21.3260   14.3140 C   0  0  0  0  0  0  0  0  0  0  0  0
   13.9020   22.1140   14.9680 C   0  0  0  0  0  0  0  0  0  0  0  0
   20.5270   29.3853   13.5015 H   0  0  0  0  0  0  0  0  0  0  0  0
   22.0696   28.9641   14.2925 H   0  0  0  0  0  0  0  0  0  0  0  0
   18.6107   28.0446   13.6308 H   0  0  0  0  0  0  0  0  0  0  0  0
   17.5704   25.9754   14.5118 H   0  0  0  0  0  0  0  0  0  0  0  0
   21.2740   24.6989   16.2986 H   0  0  0  0  0  0  0  0  0  0  0  0
   22.2834   26.8846   15.5694 H   0  0  0  0  0  0  0  0  0  0  0  0
   18.8986   25.5156   18.7285 H   0  0  0  0  0  0  0  0  0  0  0  0
   19.7416   23.9811   18.3269 H   0  0  0  0  0  0  0  0  0  0  0  0
   17.4221   24.2299   20.3435 H   0  0  0  0  0  0  0  0  0  0  0  0
   18.0955   21.9170   20.8659 H   0  0  0  0  0  0  0  0  0  0  0  0
   19.3608   21.9856   19.5927 H   0  0  0  0  0  0  0  0  0  0  0  0
   17.6244   22.0567   19.1382 H   0  0  0  0  0  0  0  0  0  0  0  0
   19.4862   25.4337   20.9703 H   0  0  0  0  0  0  0  0  0  0  0  0
   20.4750   24.0007   20.5282 H   0  0  0  0  0  0  0  0  0  0  0  0
   19.3510   23.9195   21.9271 H   0  0  0  0  0  0  0  0  0  0  0  0
   16.2482   25.1652   16.5294 H   0  0  0  0  0  0  0  0  0  0  0  0
   16.5895   25.8067   18.1721 H   0  0  0  0  0  0  0  0  0  0  0  0
   15.7546   23.5225   19.0988 H   0  0  0  0  0  0  0  0  0  0  0  0
   13.9341   25.1520   17.5946 H   0  0  0  0  0  0  0  0  0  0  0  0
   15.9301   22.2944   16.8870 H   0  0  0  0  0  0  0  0  0  0  0  0
   13.2227   22.2691   18.1429 H   0  0  0  0  0  0  0  0  0  0  0  0
   14.5292   18.2168   18.9897 H   0  0  0  0  0  0  0  0  0  0  0  0
   13.1834   19.0997   21.2136 H   0  0  0  0  0  0  0  0  0  0  0  0
   13.0882   17.3434   20.8490 H   0  0  0  0  0  0  0  0  0  0  0  0
   10.7948   16.9661   19.0403 H   0  0  0  0  0  0  0  0  0  0  0  0
   11.5043   20.3717   17.6093 H   0  0  0  0  0  0  0  0  0  0  0  0
   10.3835   19.6749   16.3907 H   0  0  0  0  0  0  0  0  0  0  0  0
   12.9928   18.9222   16.3415 H   0  0  0  0  0  0  0  0  0  0  0  0
   11.7376   17.6515   16.1501 H   0  0  0  0  0  0  0  0  0  0  0  0
   12.7885   16.8406   18.0970 H   0  0  0  0  0  0  0  0  0  0  0  0
   14.9619   23.9613   15.3424 H   0  0  0  0  0  0  0  0  0  0  0  0
   13.3797   23.8256   16.1820 H   0  0  0  0  0  0  0  0  0  0  0  0
   11.8053   22.3067   15.4396 H   0  0  0  0  0  0  0  0  0  0  0  0
   11.1001   20.3992   13.9776 H   0  0  0  0  0  0  0  0  0  0  0  0
   12.8177   19.1107   12.7521 H   0  0  0  0  0  0  0  0  0  0  0  0
   15.2168   19.6444   13.0032 H   0  0  0  0  0  0  0  0  0  0  0  0
   15.9127   21.5590   14.4258 H   0  0  0  0  0  0  0  0  0  0  0  0
  1 39  1  0  0  0  0
  1 40  1  0  0  0  0
  2  1  1  0  0  0  0
  3  2  2  0  0  0  0
  3 41  1  0  0  0  0
  4  3  1  0  0  0  0
  4 42  1  0  0  0  0
  5  4  2  0  0  0  0
  5  6  1  0  0  0  0
  6  7  2  0  0  0  0
  6 43  1  0  0  0  0
  7  2  1  0  0  0  0
  7 44  1  0  0  0  0
  8  5  1  0  0  0  0
  8  9  2  0  0  0  0
  8 10  2  0  0  0  0
 11  8  1  0  0  0  0
 11 12  1  0  0  0  0
 12 13  1  0  0  0  0
 12 45  1  0  0  0  0
 12 46  1  0  0  0  0
 13 14  1  0  0  0  0
 13 15  1  0  0  0  0
 13 47  1  0  0  0  0
 14 48  1  0  0  0  0
 14 49  1  0  0  0  0
 14 50  1  0  0  0  0
 15 51  1  0  0  0  0
 15 52  1  0  0  0  0
 15 53  1  0  0  0  0
 16 11  1  0  0  0  0
 16 54  1  0  0  0  0
 16 55  1  0  0  0  0
 17 16  1  0  0  0  0
 17 18  1  0  0  0  0
 17 56  1  1  0  0  0
 18 57  1  0  0  0  0
 19 17  1  0  0  0  0
 19 20  1  0  0  0  0
 19 58  1  6  0  0  0
 20 21  1  0  0  0  0
 20 59  1  0  0  0  0
 21 22  2  0  0  0  0
 21 23  1  0  0  0  0
 23 24  1  0  0  0  0
 24 25  1  0  0  0  0
 24 31  1  0  0  0  0
 24 60  1  6  0  0  0
 25 26  1  0  0  0  0
 25 61  1  0  0  0  0
 25 62  1  0  0  0  0
 27 26  1  0  0  0  0
 27 28  1  0  0  0  0
 27 63  1  1  0  0  0
 29 28  1  0  0  0  0
 29 64  1  0  0  0  0
 29 65  1  0  0  0  0
 30 29  1  0  0  0  0
 30 66  1  0  0  0  0
 30 67  1  0  0  0  0
 31 27  1  0  0  0  0
 31 30  1  0  0  0  0
 31 68  1  6  0  0  0
 32 19  1  0  0  0  0
 32 69  1  0  0  0  0
 32 70  1  0  0  0  0
 33 34  2  0  0  0  0
 33 38  1  0  0  0  0
 33 71  1  0  0  0  0
 34 35  1  0  0  0  0
 34 72  1  0  0  0  0
 35 36  2  0  0  0  0
 35 73  1  0  0  0  0
 36 37  1  0  0  0  0
 36 74  1  0  0  0  0
 37 38  2  0  0  0  0
 37 75  1  0  0  0  0
 38 32  1  0  0  0  0
M  END
