2igw_ligand
 OpenBabel08222323343D

 24 24  0  0  1  0  0  0  0  0999 V2000
   45.9500   17.5750   12.1590 N   0  3  0  0  0  0  0  0  0  0  0  0
   47.0840   16.7730   12.7260 C   0  0  0  0  0  0  0  0  0  0  0  0
   48.2790   17.6670   13.0540 C   0  0  0  0  0  0  0  0  0  0  0  0
   48.5410   18.6430   12.3260 O   0  0  0  0  0  0  0  0  0  0  0  0
   48.9960   17.3660   14.1420 N   0  0  0  0  0  0  0  0  0  0  0  0
   48.7050   16.2280   15.0270 C   0  0  2  0  0  0  0  0  0  0  0  0
   47.6640   16.5480   16.1520 C   0  0  0  0  0  0  0  0  0  0  0  0
   47.0480   17.6380   16.3450 O   0  5  0  0  0  0  0  0  0  0  0  0
   50.0780   15.9420   15.6400 C   0  0  0  0  0  0  0  0  0  0  0  0
   50.7360   17.3310   15.7500 C   0  0  0  0  0  0  0  0  0  0  0  0
   50.1430   18.1590   14.6220 C   0  0  0  0  0  0  0  0  0  0  0  0
   47.4060   15.6710   16.9800 O   0  0  0  0  0  0  0  0  0  0  0  0
   45.1763   16.9630   11.9518 H   0  0  0  0  0  0  0  0  0  0  0  0
   46.2521   18.0328   11.3133 H   0  0  0  0  0  0  0  0  0  0  0  0
   45.6596   18.2680   12.8309 H   0  0  0  0  0  0  0  0  0  0  0  0
   47.3926   16.0164   11.9896 H   0  0  0  0  0  0  0  0  0  0  0  0
   46.7461   16.2731   13.6457 H   0  0  0  0  0  0  0  0  0  0  0  0
   48.3435   15.3692   14.4423 H   0  0  0  0  0  0  0  0  0  0  0  0
   50.6673   15.2812   14.9873 H   0  0  0  0  0  0  0  0  0  0  0  0
   49.9740   15.4793   16.6325 H   0  0  0  0  0  0  0  0  0  0  0  0
   51.8266   17.2489   15.6327 H   0  0  0  0  0  0  0  0  0  0  0  0
   50.5053   17.7884   16.7234 H   0  0  0  0  0  0  0  0  0  0  0  0
   49.8093   19.1390   14.9937 H   0  0  0  0  0  0  0  0  0  0  0  0
   50.8793   18.3032   13.8176 H   0  0  0  0  0  0  0  0  0  0  0  0
  1  2  1  0  0  0  0
  1 13  1  0  0  0  0
  1 14  1  0  0  0  0
  1 15  1  0  0  0  0
  2  3  1  0  0  0  0
  2 16  1  0  0  0  0
  2 17  1  0  0  0  0
  3  4  2  0  0  0  0
  3  5  1  0  0  0  0
  5  6  1  0  0  0  0
  5 11  1  0  0  0  0
  6  7  1  0  0  0  0
  6  9  1  0  0  0  0
  6 18  1  6  0  0  0
  7  8  1  0  0  0  0
  7 12  2  0  0  0  0
  9 10  1  0  0  0  0
  9 19  1  0  0  0  0
  9 20  1  0  0  0  0
 10 11  1  0  0  0  0
 10 21  1  0  0  0  0
 10 22  1  0  0  0  0
 11 23  1  0  0  0  0
 11 24  1  0  0  0  0
M  CHG  2   1   1   8  -1
M  END
