2igx_ligand
 OpenBabel08222323343D

 98103  0  0  1  0  0  0  0  0999 V2000
   56.8700   60.2970   13.1870 O   0  0  0  0  0  0  0  0  0  0  0  0
   56.9890   60.0360   11.9960 C   0  0  0  0  0  0  0  0  0  0  0  0
   55.7060   59.9230   11.2280 C   0  0  0  0  0  0  0  0  0  0  0  0
   55.0440   61.0990   10.8850 C   0  0  0  0  0  0  0  0  0  0  0  0
   53.8350   61.0220   10.1970 C   0  0  0  0  0  0  0  0  0  0  0  0
   53.3200   59.7580    9.8930 C   0  0  0  0  0  0  0  0  0  0  0  0
   52.0070   59.6580    9.1430 C   0  0  0  0  0  0  0  0  0  0  0  0
   52.2580   59.6210    7.6400 C   0  0  0  0  0  0  0  0  0  0  0  0
   50.9330   59.4290    6.9130 C   0  0  0  0  0  0  0  0  0  0  0  0
   51.1620   59.3880    5.4110 C   0  0  0  0  0  0  0  0  0  0  0  0
   49.8370   59.4690    4.6680 C   0  0  0  0  0  0  0  0  0  0  0  0
   54.0100   58.6050   10.2670 C   0  0  0  0  0  0  0  0  0  0  0  0
   55.1760   58.7060   10.9360 N   0  0  0  0  0  0  0  0  0  0  0  0
   58.1960   59.8610   11.4570 N   0  0  0  0  0  0  0  0  0  0  0  0
   59.3360   60.0230   12.3800 C   0  0  2  0  0  0  0  0  0  0  0  0
   60.4290   60.9290   11.8100 C   0  0  0  0  0  0  0  0  0  0  0  0
   61.5300   61.0750   12.8710 C   0  0  0  0  0  0  0  0  0  0  0  0
   62.0310   59.7210   13.1010 N   0  3  1  0  0  0  0  0  0  0  0  0
   63.3790   59.7170   13.6820 C   0  0  0  0  0  0  0  0  0  0  0  0
   63.4400   59.5760   15.1870 C   0  0  0  0  0  0  0  0  0  0  0  0
   64.1620   58.5240   15.7460 C   0  0  0  0  0  0  0  0  0  0  0  0
   64.2280   58.3980   17.1280 C   0  0  0  0  0  0  0  0  0  0  0  0
   63.5600   59.3310   17.9200 C   0  0  0  0  0  0  0  0  0  0  0  0
   62.8540   60.3780   17.3190 C   0  0  0  0  0  0  0  0  0  0  0  0
   62.8160   60.4830   15.9780 N   0  0  0  0  0  0  0  0  0  0  0  0
   61.0720   58.7950   13.7060 C   0  0  0  0  0  0  0  0  0  0  0  0
   59.9160   58.6410   12.7110 C   0  0  0  0  0  0  0  0  0  0  0  0
   58.5200   59.4620   10.0830 C   0  0  0  0  0  0  0  0  0  0  0  0
   58.8650   60.5590    9.1030 C   0  0  0  0  0  0  0  0  0  0  0  0
   58.4600   61.9010    9.2250 C   0  0  0  0  0  0  0  0  0  0  0  0
   58.8340   62.8420    8.2580 C   0  0  0  0  0  0  0  0  0  0  0  0
   59.6340   60.1690    8.0060 C   0  0  0  0  0  0  0  0  0  0  0  0
   59.9920   61.1010    7.0380 C   0  0  0  0  0  0  0  0  0  0  0  0
   59.6100   62.4400    7.1600 C   0  0  0  0  0  0  0  0  0  0  0  0
   60.0310   63.3330    6.0430 C   0  0  0  0  0  0  0  0  0  0  0  0
   59.0440   64.0300    5.3530 C   0  0  0  0  0  0  0  0  0  0  0  0
   59.3620   64.8420    4.2660 C   0  0  0  0  0  0  0  0  0  0  0  0
   61.3620   63.4100    5.6110 C   0  0  0  0  0  0  0  0  0  0  0  0
   61.6870   64.2310    4.5230 C   0  0  0  0  0  0  0  0  0  0  0  0
   60.6870   64.9520    3.8500 C   0  0  0  0  0  0  0  0  0  0  0  0
   61.0430   65.8210    2.6670 C   0  0  0  0  0  0  0  0  0  0  0  0
   61.5570   65.2670    1.7080 O   0  0  0  0  0  0  0  0  0  0  0  0
   60.8160   67.1420    2.6240 N   0  0  0  0  0  0  0  0  0  0  0  0
   60.1990   67.9130    3.7090 C   0  0  0  0  0  0  0  0  0  0  0  0
   58.8460   68.3520    3.1450 C   0  0  0  0  0  0  0  0  0  0  0  0
   59.0660   69.2430    1.9100 C   0  0  0  0  0  0  0  0  0  0  0  0
   59.8910   68.5040    0.8570 C   0  0  0  0  0  0  0  0  0  0  0  0
   61.1900   67.9310    1.4430 C   0  0  0  0  0  0  0  0  0  0  0  0
   55.4641   62.0625   11.1500 H   0  0  0  0  0  0  0  0  0  0  0  0
   53.3056   61.9214    9.9040 H   0  0  0  0  0  0  0  0  0  0  0  0
   51.3832   60.5310    9.3853 H   0  0  0  0  0  0  0  0  0  0  0  0
   51.4848   58.7386    9.4464 H   0  0  0  0  0  0  0  0  0  0  0  0
   52.9328   58.7860    7.4006 H   0  0  0  0  0  0  0  0  0  0  0  0
   52.7184   60.5677    7.3209 H   0  0  0  0  0  0  0  0  0  0  0  0
   50.2605   60.2649    7.1557 H   0  0  0  0  0  0  0  0  0  0  0  0
   50.4741   58.4832    7.2369 H   0  0  0  0  0  0  0  0  0  0  0  0
   51.6679   58.4475    5.1474 H   0  0  0  0  0  0  0  0  0  0  0  0
   51.7941   60.2391    5.1177 H   0  0  0  0  0  0  0  0  0  0  0  0
   50.0220   59.4380    3.5841 H   0  0  0  0  0  0  0  0  0  0  0  0
   49.3286   60.4096    4.9264 H   0  0  0  0  0  0  0  0  0  0  0  0
   49.2024   58.6180    4.9561 H   0  0  0  0  0  0  0  0  0  0  0  0
   53.6091   57.6286   10.0200 H   0  0  0  0  0  0  0  0  0  0  0  0
   58.9642   60.4810   13.3084 H   0  0  0  0  0  0  0  0  0  0  0  0
   60.0077   61.9168   11.5717 H   0  0  0  0  0  0  0  0  0  0  0  0
   60.8478   60.4792   10.8977 H   0  0  0  0  0  0  0  0  0  0  0  0
   61.1161   61.4949   13.7996 H   0  0  0  0  0  0  0  0  0  0  0  0
   62.3362   61.7259   12.5017 H   0  0  0  0  0  0  0  0  0  0  0  0
   62.1641   59.3475   12.1743 H   0  0  0  0  0  0  0  0  0  0  0  0
   63.8677   60.6643   13.4105 H   0  0  0  0  0  0  0  0  0  0  0  0
   63.9358   58.8774   13.2403 H   0  0  0  0  0  0  0  0  0  0  0  0
   64.6685   57.8092   15.1076 H   0  0  0  0  0  0  0  0  0  0  0  0
   64.7886   57.5891   17.5823 H   0  0  0  0  0  0  0  0  0  0  0  0
   63.5878   59.2450   19.0002 H   0  0  0  0  0  0  0  0  0  0  0  0
   62.3369   61.1056   17.9340 H   0  0  0  0  0  0  0  0  0  0  0  0
   60.7005   59.2029   14.6576 H   0  0  0  0  0  0  0  0  0  0  0  0
   61.5489   57.8202   13.8861 H   0  0  0  0  0  0  0  0  0  0  0  0
   60.2866   58.1688   11.7892 H   0  0  0  0  0  0  0  0  0  0  0  0
   59.1313   58.0113   13.1557 H   0  0  0  0  0  0  0  0  0  0  0  0
   57.6489   58.9233    9.6818 H   0  0  0  0  0  0  0  0  0  0  0  0
   59.3820   58.7804   10.1320 H   0  0  0  0  0  0  0  0  0  0  0  0
   57.8559   62.2076   10.0712 H   0  0  0  0  0  0  0  0  0  0  0  0
   58.5255   63.8764    8.3570 H   0  0  0  0  0  0  0  0  0  0  0  0
   59.9530   59.1376    7.9081 H   0  0  0  0  0  0  0  0  0  0  0  0
   60.5737   60.7856    6.1794 H   0  0  0  0  0  0  0  0  0  0  0  0
   58.0102   63.9399    5.6663 H   0  0  0  0  0  0  0  0  0  0  0  0
   58.5815   65.3858    3.7463 H   0  0  0  0  0  0  0  0  0  0  0  0
   62.1338   62.8391    6.1144 H   0  0  0  0  0  0  0  0  0  0  0  0
   62.7182   64.3103    4.1982 H   0  0  0  0  0  0  0  0  0  0  0  0
   60.8159   68.7872    3.9645 H   0  0  0  0  0  0  0  0  0  0  0  0
   60.0629   67.2864    4.6028 H   0  0  0  0  0  0  0  0  0  0  0  0
   58.2962   68.9180    3.9114 H   0  0  0  0  0  0  0  0  0  0  0  0
   58.2641   67.4642    2.8568 H   0  0  0  0  0  0  0  0  0  0  0  0
   59.5997   70.1560    2.2127 H   0  0  0  0  0  0  0  0  0  0  0  0
   58.0902   69.5140    1.4806 H   0  0  0  0  0  0  0  0  0  0  0  0
   60.1450   69.2051    0.0483 H   0  0  0  0  0  0  0  0  0  0  0  0
   59.2898   67.6774    0.4504 H   0  0  0  0  0  0  0  0  0  0  0  0
   61.6879   67.2888    0.7016 H   0  0  0  0  0  0  0  0  0  0  0  0
   61.8664   68.7484    1.7333 H   0  0  0  0  0  0  0  0  0  0  0  0
  1  2  2  0  0  0  0
  2  3  1  0  0  0  0
  2 14  1  0  0  0  0
  3  4  2  0  0  0  0
  3 13  1  0  0  0  0
  4  5  1  0  0  0  0
  4 49  1  0  0  0  0
  5  6  2  0  0  0  0
  5 50  1  0  0  0  0
  6  7  1  0  0  0  0
  6 12  1  0  0  0  0
  7  8  1  0  0  0  0
  7 51  1  0  0  0  0
  7 52  1  0  0  0  0
  8  9  1  0  0  0  0
  8 53  1  0  0  0  0
  8 54  1  0  0  0  0
  9 10  1  0  0  0  0
  9 55  1  0  0  0  0
  9 56  1  0  0  0  0
 10 11  1  0  0  0  0
 10 57  1  0  0  0  0
 10 58  1  0  0  0  0
 11 59  1  0  0  0  0
 11 60  1  0  0  0  0
 11 61  1  0  0  0  0
 12 13  2  0  0  0  0
 12 62  1  0  0  0  0
 14 15  1  0  0  0  0
 14 28  1  0  0  0  0
 15 16  1  0  0  0  0
 15 27  1  0  0  0  0
 15 63  1  1  0  0  0
 16 17  1  0  0  0  0
 16 64  1  0  0  0  0
 16 65  1  0  0  0  0
 17 18  1  0  0  0  0
 17 66  1  0  0  0  0
 17 67  1  0  0  0  0
 18 19  1  0  0  0  0
 18 26  1  0  0  0  0
 18 68  1  6  0  0  0
 19 20  1  0  0  0  0
 19 69  1  0  0  0  0
 19 70  1  0  0  0  0
 20 21  2  0  0  0  0
 20 25  1  0  0  0  0
 21 22  1  0  0  0  0
 21 71  1  0  0  0  0
 22 23  2  0  0  0  0
 22 72  1  0  0  0  0
 23 24  1  0  0  0  0
 23 73  1  0  0  0  0
 24 25  2  0  0  0  0
 24 74  1  0  0  0  0
 26 27  1  0  0  0  0
 26 75  1  0  0  0  0
 26 76  1  0  0  0  0
 27 77  1  0  0  0  0
 27 78  1  0  0  0  0
 28 29  1  0  0  0  0
 28 79  1  0  0  0  0
 28 80  1  0  0  0  0
 29 30  2  0  0  0  0
 29 32  1  0  0  0  0
 30 31  1  0  0  0  0
 30 81  1  0  0  0  0
 31 34  2  0  0  0  0
 31 82  1  0  0  0  0
 32 33  2  0  0  0  0
 32 83  1  0  0  0  0
 33 34  1  0  0  0  0
 33 84  1  0  0  0  0
 34 35  1  0  0  0  0
 35 36  2  0  0  0  0
 35 38  1  0  0  0  0
 36 37  1  0  0  0  0
 36 85  1  0  0  0  0
 37 40  2  0  0  0  0
 37 86  1  0  0  0  0
 38 39  2  0  0  0  0
 38 87  1  0  0  0  0
 39 40  1  0  0  0  0
 39 88  1  0  0  0  0
 40 41  1  0  0  0  0
 41 42  2  0  0  0  0
 41 43  1  0  0  0  0
 43 44  1  0  0  0  0
 43 48  1  0  0  0  0
 44 45  1  0  0  0  0
 44 89  1  0  0  0  0
 44 90  1  0  0  0  0
 45 46  1  0  0  0  0
 45 91  1  0  0  0  0
 45 92  1  0  0  0  0
 46 47  1  0  0  0  0
 46 93  1  0  0  0  0
 46 94  1  0  0  0  0
 47 48  1  0  0  0  0
 47 95  1  0  0  0  0
 47 96  1  0  0  0  0
 48 97  1  0  0  0  0
 48 98  1  0  0  0  0
M  CHG  1  18   1
M  END
