2iku_ligand
 OpenBabel08222323343D

 62 65  0  0  1  0  0  0  0  0999 V2000
   -9.6520   28.0120  -34.2670 N   0  0  0  0  0  0  0  0  0  0  0  0
  -10.7850   27.7760  -36.2880 N   0  0  0  0  0  0  0  0  0  0  0  0
  -11.6130   26.6000  -34.2870 C   0  0  0  0  0  0  0  0  0  0  0  0
  -12.2430   25.4260  -32.0240 C   0  0  0  0  0  0  0  0  0  0  0  0
  -14.0190   26.2270  -35.0350 C   0  0  0  0  0  0  0  0  0  0  0  0
  -14.8920   25.4520  -35.8030 C   0  0  0  0  0  0  0  0  0  0  0  0
  -13.0110   24.0520  -36.5590 C   0  0  0  0  0  0  0  0  0  0  0  0
  -15.3710   23.5660  -37.3940 C   0  0  0  0  0  0  0  0  0  0  0  0
  -13.3670   22.2390  -38.2960 C   0  0  2  0  0  0  0  0  0  0  0  0
  -10.7670   21.8740  -35.9850 C   0  0  0  0  0  0  0  0  0  0  0  0
  -11.8670   23.9880  -32.3150 C   0  0  0  0  0  0  0  0  0  0  0  0
  -13.3990   22.8230  -39.6630 C   0  0  0  0  0  0  0  0  0  0  0  0
  -13.8150   21.9950  -40.7150 C   0  0  0  0  0  0  0  0  0  0  0  0
  -13.5150   23.7930  -42.2840 C   0  0  0  0  0  0  0  0  0  0  0  0
  -13.0480   24.1490  -39.9340 C   0  0  0  0  0  0  0  0  0  0  0  0
  -10.6620   27.4800  -34.9800 C   0  0  0  0  0  0  0  0  0  0  0  0
  -11.3680   26.3380  -32.8500 C   0  0  0  0  0  0  0  0  0  0  0  0
  -10.3320   26.9490  -32.2640 N   0  0  0  0  0  0  0  0  0  0  0  0
   -9.4850   27.7440  -32.9570 C   0  0  0  0  0  0  0  0  0  0  0  0
   -8.4480   28.3300  -32.3210 N   0  0  0  0  0  0  0  0  0  0  0  0
  -12.6800   25.9250  -35.0460 C   0  0  0  0  0  0  0  0  0  0  0  0
  -12.1890   24.8560  -35.7890 C   0  0  0  0  0  0  0  0  0  0  0  0
  -14.4350   24.3790  -36.5550 C   0  0  0  0  0  0  0  0  0  0  0  0
  -14.7830   22.2060  -37.7370 C   0  0  0  0  0  0  0  0  0  0  0  0
  -13.8690   22.4750  -42.0160 C   0  0  0  0  0  0  0  0  0  0  0  0
  -13.1030   24.6250  -41.2500 C   0  0  0  0  0  0  0  0  0  0  0  0
  -12.5300   22.9780  -37.3430 N   0  0  0  0  0  0  0  0  0  0  0  0
  -11.1230   22.5140  -37.3320 C   0  0  0  0  0  0  0  0  0  0  0  0
   -9.2570   21.6930  -35.8620 C   0  0  0  0  0  0  0  0  0  0  0  0
   -8.8570   20.9230  -34.7170 O   0  0  0  0  0  0  0  0  0  0  0  0
   -7.4240   20.8230  -34.5950 C   0  0  0  0  0  0  0  0  0  0  0  0
  -11.5565   27.3710  -36.8373 H   0  0  0  0  0  0  0  0  0  0  0  0
  -10.1076   28.4073  -36.7391 H   0  0  0  0  0  0  0  0  0  0  0  0
  -12.0919   25.6380  -30.9553 H   0  0  0  0  0  0  0  0  0  0  0  0
  -13.2987   25.5915  -32.2850 H   0  0  0  0  0  0  0  0  0  0  0  0
  -14.3929   27.0528  -34.4406 H   0  0  0  0  0  0  0  0  0  0  0  0
  -15.9486   25.6941  -35.8115 H   0  0  0  0  0  0  0  0  0  0  0  0
  -15.5775   24.1105  -38.3272 H   0  0  0  0  0  0  0  0  0  0  0  0
  -16.3098   23.4188  -36.8399 H   0  0  0  0  0  0  0  0  0  0  0  0
  -12.9802   21.2121  -38.3726 H   0  0  0  0  0  0  0  0  0  0  0  0
  -11.2566   20.8918  -35.9102 H   0  0  0  0  0  0  0  0  0  0  0  0
  -11.1212   22.5233  -35.1708 H   0  0  0  0  0  0  0  0  0  0  0  0
  -12.4997   23.3154  -31.7172 H   0  0  0  0  0  0  0  0  0  0  0  0
  -10.8107   23.8253  -32.0547 H   0  0  0  0  0  0  0  0  0  0  0  0
  -12.0175   23.7788  -33.3844 H   0  0  0  0  0  0  0  0  0  0  0  0
  -14.0975   20.9687  -40.5100 H   0  0  0  0  0  0  0  0  0  0  0  0
  -13.5604   24.1711  -43.2989 H   0  0  0  0  0  0  0  0  0  0  0  0
  -12.7350   24.8051  -39.1299 H   0  0  0  0  0  0  0  0  0  0  0  0
   -7.7997   28.9364  -32.8434 H   0  0  0  0  0  0  0  0  0  0  0  0
   -8.3053   28.1706  -31.3135 H   0  0  0  0  0  0  0  0  0  0  0  0
  -11.1259   24.6457  -35.7638 H   0  0  0  0  0  0  0  0  0  0  0  0
  -15.4344   21.7317  -38.4859 H   0  0  0  0  0  0  0  0  0  0  0  0
  -14.7739   21.5974  -36.8208 H   0  0  0  0  0  0  0  0  0  0  0  0
  -14.1866   21.8236  -42.8221 H   0  0  0  0  0  0  0  0  0  0  0  0
  -12.8221   25.6500  -41.4636 H   0  0  0  0  0  0  0  0  0  0  0  0
  -10.9827   21.7716  -38.1315 H   0  0  0  0  0  0  0  0  0  0  0  0
  -10.4594   23.3732  -37.5088 H   0  0  0  0  0  0  0  0  0  0  0  0
   -8.7931   22.6878  -35.7902 H   0  0  0  0  0  0  0  0  0  0  0  0
   -8.8939   21.1834  -36.7667 H   0  0  0  0  0  0  0  0  0  0  0  0
   -7.1725   20.2259  -33.7060 H   0  0  0  0  0  0  0  0  0  0  0  0
   -6.9934   21.8302  -34.4940 H   0  0  0  0  0  0  0  0  0  0  0  0
   -7.0127   20.3365  -35.4917 H   0  0  0  0  0  0  0  0  0  0  0  0
  1 19  1  0  0  0  0
  2 32  1  0  0  0  0
  2 33  1  0  0  0  0
  3 16  1  0  0  0  0
  3 17  2  0  0  0  0
  4 11  1  0  0  0  0
  4 34  1  0  0  0  0
  4 35  1  0  0  0  0
  5 36  1  0  0  0  0
  6  5  2  0  0  0  0
  6 37  1  0  0  0  0
  7 22  1  0  0  0  0
  7 23  2  0  0  0  0
  8 38  1  0  0  0  0
  8 39  1  0  0  0  0
  9 12  1  0  0  0  0
  9 24  1  0  0  0  0
  9 40  1  6  0  0  0
 10 29  1  0  0  0  0
 10 41  1  0  0  0  0
 10 42  1  0  0  0  0
 11 43  1  0  0  0  0
 11 44  1  0  0  0  0
 11 45  1  0  0  0  0
 12 13  2  0  0  0  0
 12 15  1  0  0  0  0
 13 25  1  0  0  0  0
 13 46  1  0  0  0  0
 14 47  1  0  0  0  0
 15 26  2  0  0  0  0
 15 48  1  0  0  0  0
 16  1  2  0  0  0  0
 16  2  1  0  0  0  0
 17  4  1  0  0  0  0
 17 18  1  0  0  0  0
 18 19  2  0  0  0  0
 19 20  1  0  0  0  0
 20 49  1  0  0  0  0
 20 50  1  0  0  0  0
 21  3  1  0  0  0  0
 21  5  1  0  0  0  0
 22 21  2  0  0  0  0
 22 51  1  0  0  0  0
 23  6  1  0  0  0  0
 23  8  1  0  0  0  0
 24  8  1  0  0  0  0
 24 52  1  0  0  0  0
 24 53  1  0  0  0  0
 25 14  2  0  0  0  0
 25 54  1  0  0  0  0
 26 14  1  0  0  0  0
 26 55  1  0  0  0  0
 27  7  1  0  0  0  0
 27  9  1  0  0  0  0
 27 28  1  0  0  0  0
 28 10  1  0  0  0  0
 28 56  1  0  0  0  0
 28 57  1  0  0  0  0
 29 30  1  0  0  0  0
 29 58  1  0  0  0  0
 29 59  1  0  0  0  0
 30 31  1  0  0  0  0
 31 60  1  0  0  0  0
 31 61  1  0  0  0  0
 31 62  1  0  0  0  0
M  END
