2imd_ligand
 OpenBabel08222323343D

 32 31  0  0  1  0  0  0  0  0999 V2000
   33.4030   38.1000   36.9290 N   0  3  0  0  0  0  0  0  0  0  0  0
   32.1120   38.7410   36.7510 C   0  0  2  0  0  0  0  0  0  0  0  0
   31.1180   38.7640   37.8130 C   0  0  0  0  0  0  0  0  0  0  0  0
   30.0580   39.4960   37.7650 O   0  5  0  0  0  0  0  0  0  0  0  0
   31.3100   37.8490   38.6120 O   0  0  0  0  0  0  0  0  0  0  0  0
   31.6660   38.7140   35.2840 C   0  0  0  0  0  0  0  0  0  0  0  0
   30.5690   39.6370   34.7740 C   0  0  0  0  0  0  0  0  0  0  0  0
   30.2630   39.4020   33.3110 C   0  0  0  0  0  0  0  0  0  0  0  0
   30.8080   38.3950   32.6740 O   0  0  0  0  0  0  0  0  0  0  0  0
   29.4230   40.2410   32.6720 N   0  0  0  0  0  0  0  0  0  0  0  0
   29.0850   40.1590   31.2680 C   0  0  0  0  0  0  0  0  0  0  0  0
   29.7980   41.2540   30.5330 C   0  0  0  0  0  0  0  0  0  0  0  0
   29.7590   42.5490   31.0260 O   0  0  0  0  0  0  0  0  0  0  0  0
   30.4670   40.9510   29.4190 N   0  0  0  0  0  0  0  0  0  0  0  0
   31.2280   42.0350   28.8560 C   0  0  0  0  0  0  0  0  0  0  0  0
   32.7040   41.6720   28.8630 C   0  0  0  0  0  0  0  0  0  0  0  0
   33.5060   42.5800   28.5020 O   0  5  0  0  0  0  0  0  0  0  0  0
   33.1190   40.5140   29.1740 O   0  0  0  0  0  0  0  0  0  0  0  0
   33.9436   38.1927   36.0833 H   0  0  0  0  0  0  0  0  0  0  0  0
   33.2673   37.1228   37.1356 H   0  0  0  0  0  0  0  0  0  0  0  0
   33.8942   38.5396   37.6916 H   0  0  0  0  0  0  0  0  0  0  0  0
   32.4271   39.7923   36.8250 H   0  0  0  0  0  0  0  0  0  0  0  0
   31.3285   37.6871   35.0801 H   0  0  0  0  0  0  0  0  0  0  0  0
   32.5608   38.9321   34.6825 H   0  0  0  0  0  0  0  0  0  0  0  0
   30.8931   40.6799   34.9056 H   0  0  0  0  0  0  0  0  0  0  0  0
   29.6553   39.4601   35.3604 H   0  0  0  0  0  0  0  0  0  0  0  0
   29.0030   40.9734   33.2078 H   0  0  0  0  0  0  0  0  0  0  0  0
   27.9985   40.2762   31.1421 H   0  0  0  0  0  0  0  0  0  0  0  0
   29.3971   39.1825   30.8693 H   0  0  0  0  0  0  0  0  0  0  0  0
   30.4415   40.0403   29.0068 H   0  0  0  0  0  0  0  0  0  0  0  0
   31.0707   42.9440   29.4552 H   0  0  0  0  0  0  0  0  0  0  0  0
   30.8994   42.2160   27.8219 H   0  0  0  0  0  0  0  0  0  0  0  0
  1  2  1  0  0  0  0
  1 19  1  0  0  0  0
  1 20  1  0  0  0  0
  1 21  1  0  0  0  0
  2  3  1  0  0  0  0
  2  6  1  0  0  0  0
  2 22  1  1  0  0  0
  3  4  1  0  0  0  0
  3  5  2  0  0  0  0
  6  7  1  0  0  0  0
  6 23  1  0  0  0  0
  6 24  1  0  0  0  0
  7  8  1  0  0  0  0
  7 25  1  0  0  0  0
  7 26  1  0  0  0  0
  8  9  2  0  0  0  0
  8 10  1  0  0  0  0
 10 11  1  0  0  0  0
 10 27  1  0  0  0  0
 11 12  1  0  0  0  0
 11 28  1  0  0  0  0
 11 29  1  0  0  0  0
 12 13  2  0  0  0  0
 12 14  1  0  0  0  0
 14 15  1  0  0  0  0
 14 30  1  0  0  0  0
 15 16  1  0  0  0  0
 15 31  1  0  0  0  0
 15 32  1  0  0  0  0
 16 17  1  0  0  0  0
 16 18  2  0  0  0  0
M  CHG  3   1   1   4  -1  17  -1
M  END
