2in6_ligand
 OpenBabel08222323343D

 45 49  0  0  0  0  0  0  0  0999 V2000
    0.1660   51.5710   21.8920 O   0  5  0  0  0  0  0  0  0  0  0  0
    1.1450   50.9840   22.4020 C   0  0  0  0  0  0  0  0  0  0  0  0
    1.1950   49.7360   22.5440 O   0  0  0  0  0  0  0  0  0  0  0  0
    2.3180   51.8070   22.9010 C   0  0  0  0  0  0  0  0  0  0  0  0
    1.9810   53.2790   23.1300 C   0  0  0  0  0  0  0  0  0  0  0  0
    3.2100   53.7550   23.7970 N   0  0  0  0  0  0  0  0  0  0  0  0
    3.2910   53.8190   25.1500 C   0  0  0  0  0  0  0  0  0  0  0  0
    4.3750   54.1400   23.1870 C   0  0  0  0  0  0  0  0  0  0  0  0
    4.7340   54.2330   21.8210 C   0  0  0  0  0  0  0  0  0  0  0  0
    6.0130   54.6910   21.5180 C   0  0  0  0  0  0  0  0  0  0  0  0
    6.9390   55.0170   22.4930 C   0  0  0  0  0  0  0  0  0  0  0  0
    8.1720   55.4220   22.0740 O   0  0  0  0  0  0  0  0  0  0  0  0
    6.6400   54.8930   23.8900 C   0  0  0  0  0  0  0  0  0  0  0  0
    5.3200   54.4850   24.1570 C   0  0  0  0  0  0  0  0  0  0  0  0
    4.6620   54.2840   25.4270 C   0  0  0  0  0  0  0  0  0  0  0  0
    5.0580   54.4710   26.8320 C   0  0  0  0  0  0  0  0  0  0  0  0
    6.3030   54.8780   27.4710 C   0  0  0  0  0  0  0  0  0  0  0  0
    7.3190   55.2830   26.8830 O   0  0  0  0  0  0  0  0  0  0  0  0
    4.1210   54.1490   27.8810 C   0  0  0  0  0  0  0  0  0  0  0  0
    4.9330   54.4620   29.0830 C   0  0  0  0  0  0  0  0  0  0  0  0
    4.4460   54.2920   30.2410 O   0  0  0  0  0  0  0  0  0  0  0  0
    6.2140   54.9020   28.8470 N   0  0  0  0  0  0  0  0  0  0  0  0
    2.7720   53.7030   27.5170 C   0  0  0  0  0  0  0  0  0  0  0  0
    2.4100   53.5060   26.1710 C   0  0  0  0  0  0  0  0  0  0  0  0
    1.7750   53.4180   28.5400 C   0  0  0  0  0  0  0  0  0  0  0  0
    1.0060   52.1810   28.6110 C   0  0  0  0  0  0  0  0  0  0  0  0
   -0.0100   52.0710   29.7140 C   0  0  0  0  0  0  0  0  0  0  0  0
   -0.1980   53.0880   30.5890 C   0  0  0  0  0  0  0  0  0  0  0  0
    0.4830   54.2630   30.5160 C   0  0  0  0  0  0  0  0  0  0  0  0
    1.4420   54.4960   29.5270 C   0  0  0  0  0  0  0  0  0  0  0  0
    3.1259   51.7473   22.1569 H   0  0  0  0  0  0  0  0  0  0  0  0
    2.6637   51.3776   23.8529 H   0  0  0  0  0  0  0  0  0  0  0  0
    1.1000   53.3946   23.7784 H   0  0  0  0  0  0  0  0  0  0  0  0
    1.8085   53.8055   22.1797 H   0  0  0  0  0  0  0  0  0  0  0  0
    4.0370   53.9571   21.0380 H   0  0  0  0  0  0  0  0  0  0  0  0
    6.2948   54.7965   20.4766 H   0  0  0  0  0  0  0  0  0  0  0  0
    8.7141   55.6160   22.8297 H   0  0  0  0  0  0  0  0  0  0  0  0
    7.3653   55.0953   24.6698 H   0  0  0  0  0  0  0  0  0  0  0  0
    6.9109   55.1732   29.5109 H   0  0  0  0  0  0  0  0  0  0  0  0
    1.4317   53.1052   25.9316 H   0  0  0  0  0  0  0  0  0  0  0  0
    1.1599   51.3769   27.9005 H   0  0  0  0  0  0  0  0  0  0  0  0
   -0.5995   51.1664   29.8102 H   0  0  0  0  0  0  0  0  0  0  0  0
   -0.9242   52.9594   31.3834 H   0  0  0  0  0  0  0  0  0  0  0  0
    0.2763   55.0390   31.2441 H   0  0  0  0  0  0  0  0  0  0  0  0
    1.9445   55.4550   29.4735 H   0  0  0  0  0  0  0  0  0  0  0  0
  1  2  1  0  0  0  0
  2  3  2  0  0  0  0
  2  4  1  0  0  0  0
  4  5  1  0  0  0  0
  4 31  1  0  0  0  0
  4 32  1  0  0  0  0
  5  6  1  0  0  0  0
  5 33  1  0  0  0  0
  5 34  1  0  0  0  0
  6  7  1  0  0  0  0
  6  8  1  0  0  0  0
  7 15  2  0  0  0  0
  7 24  1  0  0  0  0
  8  9  2  0  0  0  0
  8 14  1  0  0  0  0
  9 10  1  0  0  0  0
  9 35  1  0  0  0  0
 10 11  2  0  0  0  0
 10 36  1  0  0  0  0
 11 12  1  0  0  0  0
 11 13  1  0  0  0  0
 12 37  1  0  0  0  0
 13 14  2  0  0  0  0
 13 38  1  0  0  0  0
 14 15  1  0  0  0  0
 15 16  1  0  0  0  0
 16 17  1  0  0  0  0
 16 19  2  0  0  0  0
 17 18  2  0  0  0  0
 17 22  1  0  0  0  0
 19 20  1  0  0  0  0
 19 23  1  0  0  0  0
 20 21  2  0  0  0  0
 20 22  1  0  0  0  0
 22 39  1  0  0  0  0
 23 24  2  0  0  0  0
 23 25  1  0  0  0  0
 24 40  1  0  0  0  0
 25 26  2  0  0  0  0
 25 30  1  0  0  0  0
 26 27  1  0  0  0  0
 26 41  1  0  0  0  0
 27 28  2  0  0  0  0
 27 42  1  0  0  0  0
 28 29  1  0  0  0  0
 28 43  1  0  0  0  0
 29 30  2  0  0  0  0
 29 44  1  0  0  0  0
 30 45  1  0  0  0  0
M  CHG  1   1  -1
M  END
