2iok_ligand
 OpenBabel08222323343D

 56 59  0  0  1  0  0  0  0  0999 V2000
   15.8130   35.8830   49.8880 C   0  0  0  0  0  0  0  0  0  0  0  0
   14.7030   36.0910   50.7260 C   0  0  0  0  0  0  0  0  0  0  0  0
   13.4320   36.2650   50.1780 C   0  0  0  0  0  0  0  0  0  0  0  0
   13.2600   36.2310   48.7960 C   0  0  0  0  0  0  0  0  0  0  0  0
   12.0210   36.3920   48.2900 O   0  0  0  0  0  0  0  0  0  0  0  0
   14.3680   36.0660   47.9580 C   0  0  0  0  0  0  0  0  0  0  0  0
   15.6420   35.8330   48.5130 C   0  0  0  0  0  0  0  0  0  0  0  0
   17.1660   35.7170   50.5440 C   0  0  0  0  0  0  0  0  0  0  0  0
   18.3040   35.7050   49.5170 C   0  0  0  0  0  0  0  0  0  0  0  0
   19.6700   35.7650   50.2260 C   0  0  1  0  0  0  0  0  0  0  0  0
   20.2190   37.1960   50.2740 C   0  0  0  0  0  0  0  0  0  0  0  0
   19.5080   35.2640   51.6000 N   0  0  0  0  0  0  0  0  0  0  0  0
   19.7070   33.9740   51.8590 C   0  0  0  0  0  0  0  0  0  0  0  0
   20.0400   33.1950   50.9300 O   0  0  0  0  0  0  0  0  0  0  0  0
   19.5540   33.4560   53.2550 C   0  0  0  0  0  0  0  0  0  0  0  0
   18.6170   34.2690   54.1110 C   0  0  0  0  0  0  0  0  0  0  0  0
   18.9210   35.1530   55.1780 C   0  0  0  0  0  0  0  0  0  0  0  0
   17.7520   35.6460   55.6650 N   0  0  0  0  0  0  0  0  0  0  0  0
   16.7130   35.1350   54.9380 C   0  0  0  0  0  0  0  0  0  0  0  0
   15.3360   35.3240   55.0830 C   0  0  0  0  0  0  0  0  0  0  0  0
   14.4810   34.6600   54.1970 C   0  0  0  0  0  0  0  0  0  0  0  0
   15.0160   33.8390   53.1800 C   0  0  0  0  0  0  0  0  0  0  0  0
   16.3820   33.6210   53.0720 C   0  0  0  0  0  0  0  0  0  0  0  0
   17.2400   34.3160   53.9610 C   0  0  0  0  0  0  0  0  0  0  0  0
   20.2230   35.5800   55.7620 C   0  0  0  0  0  0  0  0  0  0  0  0
   21.4750   35.2110   55.2730 C   0  0  0  0  0  0  0  0  0  0  0  0
   22.6520   35.6750   55.8940 C   0  0  0  0  0  0  0  0  0  0  0  0
   22.5730   36.4840   57.0220 C   0  0  0  0  0  0  0  0  0  0  0  0
   21.3200   36.8740   57.5120 C   0  0  0  0  0  0  0  0  0  0  0  0
   20.1570   36.4350   56.8730 C   0  0  0  0  0  0  0  0  0  0  0  0
   14.8355   36.1162   51.8016 H   0  0  0  0  0  0  0  0  0  0  0  0
   12.5789   36.4265   50.8270 H   0  0  0  0  0  0  0  0  0  0  0  0
   11.4539   35.7047   48.6193 H   0  0  0  0  0  0  0  0  0  0  0  0
   14.2465   36.1174   46.8821 H   0  0  0  0  0  0  0  0  0  0  0  0
   16.4852   35.6155   47.8674 H   0  0  0  0  0  0  0  0  0  0  0  0
   17.1779   34.7670   51.0984 H   0  0  0  0  0  0  0  0  0  0  0  0
   17.3268   36.5513   51.2426 H   0  0  0  0  0  0  0  0  0  0  0  0
   18.2020   36.5762   48.8532 H   0  0  0  0  0  0  0  0  0  0  0  0
   18.2451   34.7817   48.9220 H   0  0  0  0  0  0  0  0  0  0  0  0
   20.3837   35.1272   49.6840 H   0  0  0  0  0  0  0  0  0  0  0  0
   21.1925   37.1982   50.7861 H   0  0  0  0  0  0  0  0  0  0  0  0
   19.5154   37.8405   50.8213 H   0  0  0  0  0  0  0  0  0  0  0  0
   20.3430   37.5757   49.2491 H   0  0  0  0  0  0  0  0  0  0  0  0
   19.2496   35.8900   52.3357 H   0  0  0  0  0  0  0  0  0  0  0  0
   20.5445   33.4528   53.7333 H   0  0  0  0  0  0  0  0  0  0  0  0
   19.1690   32.4269   53.2019 H   0  0  0  0  0  0  0  0  0  0  0  0
   17.6630   36.3002   56.4556 H   0  0  0  0  0  0  0  0  0  0  0  0
   14.9412   35.9676   55.8608 H   0  0  0  0  0  0  0  0  0  0  0  0
   13.4073   34.7757   54.2911 H   0  0  0  0  0  0  0  0  0  0  0  0
   14.3457   33.3695   52.4692 H   0  0  0  0  0  0  0  0  0  0  0  0
   16.7813   32.9394   52.3297 H   0  0  0  0  0  0  0  0  0  0  0  0
   21.5440   34.5617   54.4077 H   0  0  0  0  0  0  0  0  0  0  0  0
   23.6204   35.4007   55.4915 H   0  0  0  0  0  0  0  0  0  0  0  0
   23.4780   36.8118   57.5206 H   0  0  0  0  0  0  0  0  0  0  0  0
   21.2525   37.5143   58.3841 H   0  0  0  0  0  0  0  0  0  0  0  0
   19.1903   36.7595   57.2408 H   0  0  0  0  0  0  0  0  0  0  0  0
  1  2  2  0  0  0  0
  1  7  1  0  0  0  0
  1  8  1  0  0  0  0
  2  3  1  0  0  0  0
  2 31  1  0  0  0  0
  3  4  2  0  0  0  0
  3 32  1  0  0  0  0
  4  5  1  0  0  0  0
  4  6  1  0  0  0  0
  5 33  1  0  0  0  0
  6  7  2  0  0  0  0
  6 34  1  0  0  0  0
  7 35  1  0  0  0  0
  8  9  1  0  0  0  0
  8 36  1  0  0  0  0
  8 37  1  0  0  0  0
  9 10  1  0  0  0  0
  9 38  1  0  0  0  0
  9 39  1  0  0  0  0
 10 11  1  0  0  0  0
 10 12  1  0  0  0  0
 10 40  1  6  0  0  0
 11 41  1  0  0  0  0
 11 42  1  0  0  0  0
 11 43  1  0  0  0  0
 12 13  1  0  0  0  0
 12 44  1  0  0  0  0
 13 14  2  0  0  0  0
 13 15  1  0  0  0  0
 15 16  1  0  0  0  0
 15 45  1  0  0  0  0
 15 46  1  0  0  0  0
 16 17  2  0  0  0  0
 16 24  1  0  0  0  0
 17 18  1  0  0  0  0
 17 25  1  0  0  0  0
 18 19  1  0  0  0  0
 18 47  1  0  0  0  0
 19 20  2  0  0  0  0
 19 24  1  0  0  0  0
 20 21  1  0  0  0  0
 20 48  1  0  0  0  0
 21 22  2  0  0  0  0
 21 49  1  0  0  0  0
 22 23  1  0  0  0  0
 22 50  1  0  0  0  0
 23 24  2  0  0  0  0
 23 51  1  0  0  0  0
 25 26  2  0  0  0  0
 25 30  1  0  0  0  0
 26 27  1  0  0  0  0
 26 52  1  0  0  0  0
 27 28  2  0  0  0  0
 27 53  1  0  0  0  0
 28 29  1  0  0  0  0
 28 54  1  0  0  0  0
 29 30  2  0  0  0  0
 29 55  1  0  0  0  0
 30 56  1  0  0  0  0
M  END
