2is0_ligand
 OpenBabel08222323343D

 72 74  0  0  1  0  0  0  0  0999 V2000
   32.2120   44.6970    6.2880 C   0  0  0  0  0  0  0  0  0  0  0  0
   32.5680   45.5980    5.1870 C   0  0  0  0  0  0  0  0  0  0  0  0
   32.5130   47.0440    5.2780 C   0  0  0  0  0  0  0  0  0  0  0  0
   32.1020   47.6220    6.5340 C   0  0  0  0  0  0  0  0  0  0  0  0
   31.8440   46.7160    7.6250 C   0  0  0  0  0  0  0  0  0  0  0  0
   31.8920   45.2720    7.5480 C   0  0  0  0  0  0  0  0  0  0  0  0
   33.0420   45.0360    3.8750 C   0  0  2  0  0  0  0  0  0  0  0  0
   32.0340   44.2360    3.1800 N   0  0  0  0  0  0  0  0  0  0  0  0
   31.2980   44.6760    2.1100 C   0  0  0  0  0  0  0  0  0  0  0  0
   30.2940   43.7250    1.5460 C   0  0  0  0  0  0  0  0  0  0  0  0
   30.4610   42.2830    1.4070 C   0  0  0  0  0  0  0  0  0  0  0  0
   29.3610   41.4750    0.9070 C   0  0  0  0  0  0  0  0  0  0  0  0
   28.1300   42.0850    0.5790 C   0  0  0  0  0  0  0  0  0  0  0  0
   27.9380   43.4900    0.6760 C   0  0  0  0  0  0  0  0  0  0  0  0
   29.0370   44.2950    1.1570 C   0  0  0  0  0  0  0  0  0  0  0  0
   26.7020   43.9860    0.2950 N   0  0  0  0  0  0  0  0  0  0  0  0
   25.9190   45.1560    1.1060 S   0  0  0  0  0  0  0  0  0  0  0  0
   26.2010   46.7160    0.2850 C   0  0  0  0  0  0  0  0  0  0  0  0
   26.0660   43.6160   -0.9820 C   0  0  0  0  0  0  0  0  0  0  0  0
   31.4640   45.8050    1.6560 O   0  0  0  0  0  0  0  0  0  0  0  0
   26.4930   45.2170    2.4100 O   0  0  0  0  0  0  0  0  0  0  0  0
   24.5350   44.8250    0.9440 O   0  0  0  0  0  0  0  0  0  0  0  0
   34.3150   44.1500    4.0690 C   0  0  0  0  0  0  0  0  0  0  0  0
   31.5540   47.2300    8.8200 F   0  0  0  0  0  0  0  0  0  0  0  0
   29.4230   40.0400    0.6400 C   0  0  0  0  0  0  0  0  0  0  0  0
   30.2830   39.4230    1.4720 O   0  0  0  0  0  0  0  0  0  0  0  0
   28.7810   39.4840   -0.1960 O   0  0  0  0  0  0  0  0  0  0  0  0
   30.4240   37.9460    1.5350 C   0  0  0  0  0  0  0  0  0  0  0  0
   31.5390   37.6370    2.4940 C   0  0  1  0  0  0  0  0  0  0  0  0
   31.3970   38.4940    3.6730 N   0  3  0  0  0  0  0  0  0  0  0  0
   31.2340   36.2150    2.8920 C   0  0  0  0  0  0  0  0  0  0  0  0
   32.9490   37.8260    1.9000 C   0  0  0  0  0  0  0  0  0  0  0  0
   34.5490   41.7140    0.7390 C   0  0  0  0  0  0  0  0  0  0  0  0
   33.6730   41.0130   -0.1910 C   0  0  0  0  0  0  0  0  0  0  0  0
   33.0920   39.7490    0.2100 C   0  0  0  0  0  0  0  0  0  0  0  0
   33.4200   39.2130    1.5340 C   0  0  0  0  0  0  0  0  0  0  0  0
   34.2500   39.9410    2.4860 C   0  0  0  0  0  0  0  0  0  0  0  0
   34.8360   41.2100    2.0780 C   0  0  0  0  0  0  0  0  0  0  0  0
   32.0390   35.8570    3.8430 O   0  0  0  0  0  0  0  0  0  0  0  0
   32.1934   43.6226    6.1450 H   0  0  0  0  0  0  0  0  0  0  0  0
   32.7719   47.6693    4.4312 H   0  0  0  0  0  0  0  0  0  0  0  0
   31.9917   48.6938    6.6526 H   0  0  0  0  0  0  0  0  0  0  0  0
   31.6921   44.6538    8.4157 H   0  0  0  0  0  0  0  0  0  0  0  0
   33.3045   45.8867    3.2289 H   0  0  0  0  0  0  0  0  0  0  0  0
   31.8705   43.3053    3.5072 H   0  0  0  0  0  0  0  0  0  0  0  0
   31.4015   41.8156    1.6754 H   0  0  0  0  0  0  0  0  0  0  0  0
   27.3077   41.4635    0.2435 H   0  0  0  0  0  0  0  0  0  0  0  0
   28.9067   45.3689    1.2264 H   0  0  0  0  0  0  0  0  0  0  0  0
   25.6747   47.5158    0.8266 H   0  0  0  0  0  0  0  0  0  0  0  0
   25.8226   46.6612   -0.7464 H   0  0  0  0  0  0  0  0  0  0  0  0
   27.2794   46.9323    0.2690 H   0  0  0  0  0  0  0  0  0  0  0  0
   26.6530   42.8224   -1.4675 H   0  0  0  0  0  0  0  0  0  0  0  0
   26.0251   44.4965   -1.6400 H   0  0  0  0  0  0  0  0  0  0  0  0
   25.0453   43.2528   -0.7916 H   0  0  0  0  0  0  0  0  0  0  0  0
   35.0898   44.7307    4.5909 H   0  0  0  0  0  0  0  0  0  0  0  0
   34.6942   43.8327    3.0864 H   0  0  0  0  0  0  0  0  0  0  0  0
   34.0569   43.2631    4.6663 H   0  0  0  0  0  0  0  0  0  0  0  0
   30.6660   37.5493    0.5380 H   0  0  0  0  0  0  0  0  0  0  0  0
   29.4865   37.4945    1.8917 H   0  0  0  0  0  0  0  0  0  0  0  0
   32.1404   38.2954    4.3242 H   0  0  0  0  0  0  0  0  0  0  0  0
   30.5080   38.3153    4.1132 H   0  0  0  0  0  0  0  0  0  0  0  0
   31.4450   39.4612    3.3931 H   0  0  0  0  0  0  0  0  0  0  0  0
   31.3714   35.5525    2.0247 H   0  0  0  0  0  0  0  0  0  0  0  0
   30.1943   36.1465    3.2447 H   0  0  0  0  0  0  0  0  0  0  0  0
   32.9941   37.2201    0.9830 H   0  0  0  0  0  0  0  0  0  0  0  0
   33.6628   37.4295    2.6370 H   0  0  0  0  0  0  0  0  0  0  0  0
   35.0049   42.6456    0.4240 H   0  0  0  0  0  0  0  0  0  0  0  0
   33.4597   41.4315   -1.1679 H   0  0  0  0  0  0  0  0  0  0  0  0
   32.4277   39.2099   -0.4557 H   0  0  0  0  0  0  0  0  0  0  0  0
   34.4276   39.5449    3.4793 H   0  0  0  0  0  0  0  0  0  0  0  0
   35.4722   41.7687    2.7549 H   0  0  0  0  0  0  0  0  0  0  0  0
   31.9192   36.4307    4.5905 H   0  0  0  0  0  0  0  0  0  0  0  0
  1  6  1  0  0  0  0
  1 40  1  0  0  0  0
  2  1  2  0  0  0  0
  2  3  1  0  0  0  0
  3  4  2  0  0  0  0
  3 41  1  0  0  0  0
  4  5  1  0  0  0  0
  4 42  1  0  0  0  0
  5 24  1  0  0  0  0
  6  5  2  0  0  0  0
  6 43  1  0  0  0  0
  7  2  1  0  0  0  0
  7 23  1  0  0  0  0
  7 44  1  6  0  0  0
  8  7  1  0  0  0  0
  8 45  1  0  0  0  0
  9  8  1  0  0  0  0
  9 20  2  0  0  0  0
 10  9  1  0  0  0  0
 10 15  1  0  0  0  0
 11 10  2  0  0  0  0
 11 46  1  0  0  0  0
 12 11  1  0  0  0  0
 12 13  2  0  0  0  0
 13 14  1  0  0  0  0
 13 47  1  0  0  0  0
 14 15  2  0  0  0  0
 14 16  1  0  0  0  0
 15 48  1  0  0  0  0
 16 17  1  0  0  0  0
 16 19  1  0  0  0  0
 17 18  1  0  0  0  0
 17 21  2  0  0  0  0
 17 22  2  0  0  0  0
 18 49  1  0  0  0  0
 18 50  1  0  0  0  0
 18 51  1  0  0  0  0
 19 52  1  0  0  0  0
 19 53  1  0  0  0  0
 19 54  1  0  0  0  0
 23 55  1  0  0  0  0
 23 56  1  0  0  0  0
 23 57  1  0  0  0  0
 25 12  1  0  0  0  0
 25 27  2  0  0  0  0
 26 25  1  0  0  0  0
 28 26  1  0  0  0  0
 28 58  1  0  0  0  0
 28 59  1  0  0  0  0
 29 28  1  6  0  0  0
 29 30  1  0  0  0  0
 29 31  1  0  0  0  0
 30 60  1  0  0  0  0
 30 61  1  0  0  0  0
 30 62  1  0  0  0  0
 31 39  1  0  0  0  0
 31 63  1  0  0  0  0
 31 64  1  0  0  0  0
 32 29  1  0  0  0  0
 32 65  1  0  0  0  0
 32 66  1  0  0  0  0
 33 38  1  0  0  0  0
 33 67  1  0  0  0  0
 34 33  2  0  0  0  0
 34 68  1  0  0  0  0
 35 34  1  0  0  0  0
 35 36  2  0  0  0  0
 35 69  1  0  0  0  0
 36 32  1  0  0  0  0
 36 37  1  0  0  0  0
 37 38  2  0  0  0  0
 37 70  1  0  0  0  0
 38 71  1  0  0  0  0
 39 72  1  0  0  0  0
M  CHG  1  30   1
M  END
