2isc_ligand
 OpenBabel08222323343D

 37 39  0  0  1  0  0  0  0  0999 V2000
   -1.8890   -5.9930  -15.9810 N   0  0  0  0  0  0  0  0  0  0  0  0
   -2.6440   -6.9540  -16.7860 C   0  0  0  0  0  0  0  0  0  0  0  0
   -1.5620   -8.6990  -15.4340 C   0  0  0  0  0  0  0  0  0  0  0  0
   -0.8480   -7.7820  -14.6840 C   0  0  0  0  0  0  0  0  0  0  0  0
   -1.0410   -6.3410  -14.9830 C   0  0  0  0  0  0  0  0  0  0  0  0
   -0.3290   -9.8080  -13.9510 C   0  0  0  0  0  0  0  0  0  0  0  0
   -0.4060   -5.4800  -14.3170 N   0  0  0  0  0  0  0  0  0  0  0  0
   -2.4170   -8.3610  -16.4290 N   0  0  0  0  0  0  0  0  0  0  0  0
   -1.2400   -9.9700  -14.9930 C   0  0  0  0  0  0  0  0  0  0  0  0
   -0.0950   -8.4760  -13.7860 N   0  0  0  0  0  0  0  0  0  0  0  0
   -1.7780  -11.2760  -15.4840 C   0  0  0  0  0  0  0  0  0  0  0  0
   -1.3050  -11.7780  -16.7800 N   0  3  2  0  0  0  0  0  0  0  0  0
    0.1370  -11.6410  -17.0770 C   0  0  0  0  0  0  0  0  0  0  0  0
    0.1860  -11.4920  -18.6000 C   0  0  2  0  0  0  0  0  0  0  0  0
    0.6900  -10.1150  -18.9800 C   0  0  0  0  0  0  0  0  0  0  0  0
    1.7960   -9.8300  -18.1320 O   0  0  0  0  0  0  0  0  0  0  0  0
   -1.2310  -11.6540  -19.0960 C   0  0  1  0  0  0  0  0  0  0  0  0
   -1.4850  -13.0350  -19.3900 O   0  0  0  0  0  0  0  0  0  0  0  0
   -2.0640  -11.2060  -17.9040 C   0  0  0  0  0  0  0  0  0  0  0  0
   -3.3162   -6.6523  -17.5811 H   0  0  0  0  0  0  0  0  0  0  0  0
    0.1199  -10.6103  -13.3673 H   0  0  0  0  0  0  0  0  0  0  0  0
    0.2311   -5.7781  -13.5646 H   0  0  0  0  0  0  0  0  0  0  0  0
   -0.5241   -4.4782  -14.5251 H   0  0  0  0  0  0  0  0  0  0  0  0
    0.5466   -8.0615  -13.0950 H   0  0  0  0  0  0  0  0  0  0  0  0
   -2.8710  -11.1731  -15.5534 H   0  0  0  0  0  0  0  0  0  0  0  0
   -1.5284  -12.0361  -14.7291 H   0  0  0  0  0  0  0  0  0  0  0  0
   -1.4941  -12.7680  -16.7675 H   0  0  0  0  0  0  0  0  0  0  0  0
    0.6901  -12.5350  -16.7532 H   0  0  0  0  0  0  0  0  0  0  0  0
    0.5557  -10.7518  -16.5830 H   0  0  0  0  0  0  0  0  0  0  0  0
    0.8387  -12.2616  -19.0378 H   0  0  0  0  0  0  0  0  0  0  0  0
   -0.1032   -9.3676  -18.8308 H   0  0  0  0  0  0  0  0  0  0  0  0
    1.0087  -10.1063  -20.0328 H   0  0  0  0  0  0  0  0  0  0  0  0
    2.1409   -8.9700  -18.3415 H   0  0  0  0  0  0  0  0  0  0  0  0
   -1.4259  -11.0331  -19.9828 H   0  0  0  0  0  0  0  0  0  0  0  0
   -2.3772  -13.1324  -19.7016 H   0  0  0  0  0  0  0  0  0  0  0  0
   -2.1129  -10.1091  -17.8383 H   0  0  0  0  0  0  0  0  0  0  0  0
   -3.0835  -11.6165  -17.9500 H   0  0  0  0  0  0  0  0  0  0  0  0
  1  5  1  0  0  0  0
  2  1  2  0  0  0  0
  2 20  1  0  0  0  0
  3  4  1  0  0  0  0
  3  8  2  0  0  0  0
  3  9  1  0  0  0  0
  4  5  2  0  0  0  0
  4 10  1  0  0  0  0
  5  7  1  0  0  0  0
  6 10  1  0  0  0  0
  6 21  1  0  0  0  0
  7 22  1  0  0  0  0
  7 23  1  0  0  0  0
  8  2  1  0  0  0  0
  9  6  2  0  0  0  0
  9 11  1  0  0  0  0
 10 24  1  0  0  0  0
 11 12  1  0  0  0  0
 11 25  1  0  0  0  0
 11 26  1  0  0  0  0
 12 13  1  0  0  0  0
 12 19  1  0  0  0  0
 12 27  1  6  0  0  0
 13 14  1  0  0  0  0
 13 28  1  0  0  0  0
 13 29  1  0  0  0  0
 14 15  1  0  0  0  0
 14 17  1  0  0  0  0
 14 30  1  6  0  0  0
 15 16  1  0  0  0  0
 15 31  1  0  0  0  0
 15 32  1  0  0  0  0
 16 33  1  0  0  0  0
 17 18  1  0  0  0  0
 17 19  1  0  0  0  0
 17 34  1  6  0  0  0
 18 35  1  0  0  0  0
 19 36  1  0  0  0  0
 19 37  1  0  0  0  0
M  CHG  1  12   1
M  END
