2isv_ligand
 OpenBabel08222323343D

 14 13  0  0  0  0  0  0  0  0999 V2000
  -40.5440  -10.1780  -22.1320 C   0  0  0  0  0  0  0  0  0  0  0  0
  -41.6040  -11.0830  -23.1130 C   0  0  0  0  0  0  0  0  0  0  0  0
  -40.0640  -11.0780  -21.2760 N   0  0  0  0  0  0  0  0  0  0  0  0
  -39.1200  -10.4910  -20.3370 O   0  0  0  0  0  0  0  0  0  0  0  0
  -40.3550   -8.9740  -22.2910 O   0  0  0  0  0  0  0  0  0  0  0  0
  -42.9370  -10.6160  -22.5740 O   0  0  0  0  0  0  0  0  0  0  0  0
  -45.2430  -10.9390  -22.1370 O   0  0  0  0  0  1  0  0  0  0  0  0
  -44.0530  -12.6960  -23.2750 O   0  0  0  0  0  1  0  0  0  0  0  0
  -44.4950  -10.6200  -24.5270 O   0  0  0  0  0  0  0  0  0  0  0  0
  -44.2480  -11.2270  -23.1600 P   0  0  0  0  0  0  0  0  0  0  0  0
  -41.4648  -12.1650  -22.9722 H   0  0  0  0  0  0  0  0  0  0  0  0
  -41.4858  -10.8336  -24.1778 H   0  0  0  0  0  0  0  0  0  0  0  0
  -40.3220  -12.0441  -21.2782 H   0  0  0  0  0  0  0  0  0  0  0  0
  -38.8026  -11.1640  -19.7464 H   0  0  0  0  0  0  0  0  0  0  0  0
  1  2  1  0  0  0  0
  1  3  1  0  0  0  0
  1  5  2  0  0  0  0
  2  6  1  0  0  0  0
  2 11  1  0  0  0  0
  2 12  1  0  0  0  0
  3  4  1  0  0  0  0
  3 13  1  0  0  0  0
  4 14  1  0  0  0  0
  6 10  1  0  0  0  0
 10  7  1  0  0  0  0
 10  8  1  0  0  0  0
 10  9  2  0  0  0  0
M  END
