2it4_ligand
 OpenBabel08222323343D

  9  8  0  0  0  0  0  0  0  0999 V2000
   13.4630   35.5810   19.4330 C   0  0  0  0  0  0  0  0  0  0  0  0
   13.7540   38.0550   19.8180 O   0  0  0  0  0  0  0  0  0  0  0  0
   13.9710   37.1930   17.4290 O   0  0  0  0  0  0  0  0  0  0  0  0
   15.7910   36.8460   19.1020 O   0  0  0  0  0  0  0  0  0  0  0  0
   13.8590   34.4090   19.2350 O   0  5  0  0  0  0  0  0  0  0  0  0
   12.3850   35.7390   20.0310 O   0  0  0  0  0  0  0  0  0  0  0  0
   14.3170   37.0000   18.8970 P   0  0  0  0  0  0  0  0  0  0  0  0
   12.8390   38.2559   19.7964 H   0  0  0  0  0  0  0  0  0  0  0  0
   13.0775   37.3014   17.1686 H   0  0  0  0  0  0  0  0  0  0  0  0
  1  5  1  0  0  0  0
  1  6  2  0  0  0  0
  1  7  1  0  0  0  0
  2  8  1  0  0  0  0
  3  9  1  0  0  0  0
  7  2  1  0  0  0  0
  7  3  1  0  0  0  0
  7  4  2  0  0  0  0
M  CHG  1   5  -1
M  END
