2ity_ligand
 OpenBabel08222323343D

 56 59  0  0  0  0  0  0  0  0999 V2000
  -45.3040   -2.9970  -16.8970 C   0  0  0  0  0  0  0  0  0  0  0  0
  -43.8270   -3.4930  -16.9960 C   0  0  0  0  0  0  0  0  0  0  0  0
  -43.2200   -3.2470  -18.3060 O   0  0  0  0  0  0  0  0  0  0  0  0
  -43.9940   -3.9060  -19.3500 C   0  0  0  0  0  0  0  0  0  0  0  0
  -45.4960   -3.4890  -19.3580 C   0  0  0  0  0  0  0  0  0  0  0  0
  -46.1610   -3.4980  -18.0110 N   0  3  0  0  0  0  0  0  0  0  0  0
  -47.4070   -2.6730  -18.0340 C   0  0  0  0  0  0  0  0  0  0  0  0
  -48.6050   -3.3750  -18.8720 C   0  0  0  0  0  0  0  0  0  0  0  0
  -49.3370   -2.1730  -19.9370 C   0  0  0  0  0  0  0  0  0  0  0  0
  -50.0110   -1.1150  -19.0520 O   0  0  0  0  0  0  0  0  0  0  0  0
  -51.0590   -0.4110  -19.6070 C   0  0  0  0  0  0  0  0  0  0  0  0
  -51.8510    0.3220  -18.7380 C   0  0  0  0  0  0  0  0  0  0  0  0
  -52.9420    1.0520  -19.2100 C   0  0  0  0  0  0  0  0  0  0  0  0
  -51.5280    0.2890  -17.4160 O   0  0  0  0  0  0  0  0  0  0  0  0
  -51.8800    1.5010  -16.6950 C   0  0  0  0  0  0  0  0  0  0  0  0
  -51.3720   -0.4090  -20.9680 C   0  0  0  0  0  0  0  0  0  0  0  0
  -52.4640    0.3240  -21.4520 C   0  0  0  0  0  0  0  0  0  0  0  0
  -53.2450    1.0570  -20.5630 C   0  0  0  0  0  0  0  0  0  0  0  0
  -54.2870    1.7660  -21.0240 N   0  0  0  0  0  0  0  0  0  0  0  0
  -54.5850    1.7670  -22.3190 C   0  0  0  0  0  0  0  0  0  0  0  0
  -53.8690    1.0820  -23.2060 N   0  0  0  0  0  0  0  0  0  0  0  0
  -52.8030    0.3520  -22.8180 C   0  0  0  0  0  0  0  0  0  0  0  0
  -52.0740   -0.3550  -23.7040 N   0  0  0  0  0  0  0  0  0  0  0  0
  -52.1840   -0.3870  -25.0470 C   0  0  0  0  0  0  0  0  0  0  0  0
  -52.1700    0.7900  -25.8000 C   0  0  0  0  0  0  0  0  0  0  0  0
  -52.2600    0.7300  -27.1910 C   0  0  0  0  0  0  0  0  0  0  0  0
  -52.2640    2.1910  -28.1230 Cl  0  0  0  0  0  0  0  0  0  0  0  0
  -52.3590   -0.4990  -27.8370 C   0  0  0  0  0  0  0  0  0  0  0  0
  -52.4480   -0.5200  -29.1770 F   0  0  0  0  0  0  0  0  0  0  0  0
  -52.3660   -1.6850  -27.0980 C   0  0  0  0  0  0  0  0  0  0  0  0
  -52.2700   -1.6270  -25.7050 C   0  0  0  0  0  0  0  0  0  0  0  0
  -45.3071   -1.8972  -16.9192 H   0  0  0  0  0  0  0  0  0  0  0  0
  -45.7282   -3.3457  -15.9439 H   0  0  0  0  0  0  0  0  0  0  0  0
  -43.8082   -4.5753  -16.8002 H   0  0  0  0  0  0  0  0  0  0  0  0
  -43.2316   -2.9717  -16.2319 H   0  0  0  0  0  0  0  0  0  0  0  0
  -43.9341   -4.9935  -19.1957 H   0  0  0  0  0  0  0  0  0  0  0  0
  -43.5549   -3.6493  -20.3253 H   0  0  0  0  0  0  0  0  0  0  0  0
  -46.0406   -4.1851  -20.0128 H   0  0  0  0  0  0  0  0  0  0  0  0
  -45.5659   -2.4702  -19.7669 H   0  0  0  0  0  0  0  0  0  0  0  0
  -46.4100   -4.4528  -17.8051 H   0  0  0  0  0  0  0  0  0  0  0  0
  -47.1774   -1.7010  -18.4949 H   0  0  0  0  0  0  0  0  0  0  0  0
  -47.7455   -2.5172  -16.9990 H   0  0  0  0  0  0  0  0  0  0  0  0
  -49.3638   -3.7634  -18.1768 H   0  0  0  0  0  0  0  0  0  0  0  0
  -48.1999   -4.2028  -19.4726 H   0  0  0  0  0  0  0  0  0  0  0  0
  -48.5618   -1.7023  -20.5595 H   0  0  0  0  0  0  0  0  0  0  0  0
  -50.0860   -2.6525  -20.5843 H   0  0  0  0  0  0  0  0  0  0  0  0
  -53.5547    1.6170  -18.5169 H   0  0  0  0  0  0  0  0  0  0  0  0
  -51.5888    1.3972  -15.6393 H   0  0  0  0  0  0  0  0  0  0  0  0
  -52.9657    1.6650  -16.7615 H   0  0  0  0  0  0  0  0  0  0  0  0
  -51.3519    2.3580  -17.1385 H   0  0  0  0  0  0  0  0  0  0  0  0
  -50.7630   -0.9813  -21.6584 H   0  0  0  0  0  0  0  0  0  0  0  0
  -55.4366    2.3430  -22.6625 H   0  0  0  0  0  0  0  0  0  0  0  0
  -51.3352   -0.9494  -23.3017 H   0  0  0  0  0  0  0  0  0  0  0  0
  -52.0892    1.7501  -25.3032 H   0  0  0  0  0  0  0  0  0  0  0  0
  -52.4452   -2.6420  -27.6010 H   0  0  0  0  0  0  0  0  0  0  0  0
  -52.2618   -2.5443  -25.1275 H   0  0  0  0  0  0  0  0  0  0  0  0
  1  2  1  0  0  0  0
  1 32  1  0  0  0  0
  1 33  1  0  0  0  0
  2  3  1  0  0  0  0
  2 34  1  0  0  0  0
  2 35  1  0  0  0  0
  4  3  1  0  0  0  0
  4 36  1  0  0  0  0
  4 37  1  0  0  0  0
  5  4  1  0  0  0  0
  5 38  1  0  0  0  0
  5 39  1  0  0  0  0
  6  1  1  0  0  0  0
  6  5  1  0  0  0  0
  6 40  1  0  0  0  0
  7  6  1  0  0  0  0
  7 41  1  0  0  0  0
  7 42  1  0  0  0  0
  8  7  1  0  0  0  0
  8 43  1  0  0  0  0
  8 44  1  0  0  0  0
  8  9  1  0  0  0  0
  9 10  1  0  0  0  0
  9 45  1  0  0  0  0
  9 46  1  0  0  0  0
 10 11  1  0  0  0  0
 11 12  2  0  0  0  0
 11 16  1  0  0  0  0
 12 13  1  0  0  0  0
 12 14  1  0  0  0  0
 13 18  2  0  0  0  0
 13 47  1  0  0  0  0
 14 15  1  0  0  0  0
 15 48  1  0  0  0  0
 15 49  1  0  0  0  0
 15 50  1  0  0  0  0
 16 17  2  0  0  0  0
 16 51  1  0  0  0  0
 17 18  1  0  0  0  0
 17 22  1  0  0  0  0
 18 19  1  0  0  0  0
 19 20  2  0  0  0  0
 20 52  1  0  0  0  0
 21 20  1  0  0  0  0
 22 21  2  0  0  0  0
 22 23  1  0  0  0  0
 23 24  1  0  0  0  0
 23 53  1  0  0  0  0
 24 25  2  0  0  0  0
 24 31  1  0  0  0  0
 25 26  1  0  0  0  0
 25 54  1  0  0  0  0
 26 27  1  0  0  0  0
 26 28  2  0  0  0  0
 28 29  1  0  0  0  0
 30 28  1  0  0  0  0
 30 55  1  0  0  0  0
 31 30  2  0  0  0  0
 31 56  1  0  0  0  0
M  CHG  1   6   1
M  END
