2ivu_ligand
 OpenBabel08222323343D

 55 58  0  0  1  0  0  0  0  0999 V2000
  -24.6920   15.9600  -13.5540 C   0  0  0  0  0  0  0  0  0  0  0  0
  -25.6660   17.1090  -13.8300 C   0  0  0  0  0  0  0  0  0  0  0  0
  -26.2060   17.7350  -12.5960 N   0  3  1  0  0  0  0  0  0  0  0  0
  -27.4810   18.3480  -13.0230 C   0  0  0  0  0  0  0  0  0  0  0  0
  -26.5500   16.8150  -11.4660 C   0  0  0  0  0  0  0  0  0  0  0  0
  -25.5480   15.6720  -11.2810 C   0  0  0  0  0  0  0  0  0  0  0  0
  -25.3120   14.9490  -12.6080 C   0  0  2  0  0  0  0  0  0  0  0  0
  -24.3880   13.7520  -12.4290 C   0  0  0  0  0  0  0  0  0  0  0  0
  -25.2470   12.7670  -11.8870 O   0  0  0  0  0  0  0  0  0  0  0  0
  -24.7220   11.5280  -11.6550 C   0  0  0  0  0  0  0  0  0  0  0  0
  -23.5000   11.1130  -12.1550 C   0  0  0  0  0  0  0  0  0  0  0  0
  -25.4840   10.6690  -10.8840 C   0  0  0  0  0  0  0  0  0  0  0  0
  -26.6940   11.1710  -10.4290 O   0  0  0  0  0  0  0  0  0  0  0  0
  -27.4580   10.4010   -9.4730 C   0  0  0  0  0  0  0  0  0  0  0  0
  -25.0120    9.3770  -10.6250 C   0  0  0  0  0  0  0  0  0  0  0  0
  -23.7800    8.9600  -11.1360 C   0  0  0  0  0  0  0  0  0  0  0  0
  -23.0230    9.8400  -11.8940 C   0  0  0  0  0  0  0  0  0  0  0  0
  -21.8330    9.4340  -12.4010 N   0  0  0  0  0  0  0  0  0  0  0  0
  -21.3730    8.2090  -12.1660 C   0  0  0  0  0  0  0  0  0  0  0  0
  -22.0550    7.3510  -11.4160 N   0  0  0  0  0  0  0  0  0  0  0  0
  -23.2520    7.6690  -10.8930 C   0  0  0  0  0  0  0  0  0  0  0  0
  -23.9680    6.7080  -10.1040 N   0  0  0  0  0  0  0  0  0  0  0  0
  -23.3730    5.4880   -9.7110 C   0  0  0  0  0  0  0  0  0  0  0  0
  -23.9320    4.2780  -10.0880 C   0  0  0  0  0  0  0  0  0  0  0  0
  -23.3430    3.0920   -9.6630 C   0  0  0  0  0  0  0  0  0  0  0  0
  -22.1950    3.1520   -8.8700 C   0  0  0  0  0  0  0  0  0  0  0  0
  -21.2330    1.6390   -8.2120 Br  0  0  0  0  0  0  0  0  0  0  0  0
  -21.6590    4.3550   -8.5000 C   0  0  0  0  0  0  0  0  0  0  0  0
  -22.2380    5.5040   -8.9150 C   0  0  0  0  0  0  0  0  0  0  0  0
  -21.6440    6.6220   -8.4900 F   0  0  0  0  0  0  0  0  0  0  0  0
  -23.7752   16.3645  -13.1003 H   0  0  0  0  0  0  0  0  0  0  0  0
  -24.4428   15.4618  -14.5025 H   0  0  0  0  0  0  0  0  0  0  0  0
  -26.5083   16.7179  -14.4196 H   0  0  0  0  0  0  0  0  0  0  0  0
  -25.1391   17.8807  -14.4104 H   0  0  0  0  0  0  0  0  0  0  0  0
  -25.5553   18.4299  -12.2648 H   0  0  0  0  0  0  0  0  0  0  0  0
  -27.9571   18.8410  -12.1626 H   0  0  0  0  0  0  0  0  0  0  0  0
  -28.1500   17.5676  -13.4148 H   0  0  0  0  0  0  0  0  0  0  0  0
  -27.2851   19.0917  -13.8094 H   0  0  0  0  0  0  0  0  0  0  0  0
  -27.5416   16.3804  -11.6606 H   0  0  0  0  0  0  0  0  0  0  0  0
  -26.5831   17.4025  -10.5366 H   0  0  0  0  0  0  0  0  0  0  0  0
  -25.9451   14.9576  -10.5448 H   0  0  0  0  0  0  0  0  0  0  0  0
  -24.5942   16.0816  -10.9170 H   0  0  0  0  0  0  0  0  0  0  0  0
  -26.2728   14.5996  -13.0140 H   0  0  0  0  0  0  0  0  0  0  0  0
  -23.5671   13.9861  -11.7352 H   0  0  0  0  0  0  0  0  0  0  0  0
  -23.9713   13.4261  -13.3934 H   0  0  0  0  0  0  0  0  0  0  0  0
  -22.9094   11.7930  -12.7582 H   0  0  0  0  0  0  0  0  0  0  0  0
  -28.3825   10.9416   -9.2219 H   0  0  0  0  0  0  0  0  0  0  0  0
  -26.8611   10.2523   -8.5611 H   0  0  0  0  0  0  0  0  0  0  0  0
  -27.7117    9.4233   -9.9086 H   0  0  0  0  0  0  0  0  0  0  0  0
  -25.6051    8.6964  -10.0250 H   0  0  0  0  0  0  0  0  0  0  0  0
  -20.4246    7.9051  -12.5941 H   0  0  0  0  0  0  0  0  0  0  0  0
  -24.9363    6.9117   -9.8180 H   0  0  0  0  0  0  0  0  0  0  0  0
  -24.8205    4.2557  -10.7086 H   0  0  0  0  0  0  0  0  0  0  0  0
  -23.7687    2.1352   -9.9431 H   0  0  0  0  0  0  0  0  0  0  0  0
  -20.7730    4.3869   -7.8762 H   0  0  0  0  0  0  0  0  0  0  0  0
  1  2  1  0  0  0  0
  1  7  1  0  0  0  0
  1 31  1  0  0  0  0
  1 32  1  0  0  0  0
  2  3  1  0  0  0  0
  2 33  1  0  0  0  0
  2 34  1  0  0  0  0
  3  4  1  0  0  0  0
  3  5  1  0  0  0  0
  3 35  1  1  0  0  0
  4 36  1  0  0  0  0
  4 37  1  0  0  0  0
  4 38  1  0  0  0  0
  5  6  1  0  0  0  0
  5 39  1  0  0  0  0
  5 40  1  0  0  0  0
  6  7  1  0  0  0  0
  6 41  1  0  0  0  0
  6 42  1  0  0  0  0
  7  8  1  0  0  0  0
  7 43  1  6  0  0  0
  8  9  1  0  0  0  0
  8 44  1  0  0  0  0
  8 45  1  0  0  0  0
  9 10  1  0  0  0  0
 10 11  2  0  0  0  0
 10 12  1  0  0  0  0
 11 17  1  0  0  0  0
 11 46  1  0  0  0  0
 12 13  1  0  0  0  0
 12 15  2  0  0  0  0
 13 14  1  0  0  0  0
 14 47  1  0  0  0  0
 14 48  1  0  0  0  0
 14 49  1  0  0  0  0
 15 16  1  0  0  0  0
 15 50  1  0  0  0  0
 16 17  2  0  0  0  0
 16 21  1  0  0  0  0
 17 18  1  0  0  0  0
 18 19  2  0  0  0  0
 19 20  1  0  0  0  0
 19 51  1  0  0  0  0
 20 21  2  0  0  0  0
 21 22  1  0  0  0  0
 22 23  1  0  0  0  0
 22 52  1  0  0  0  0
 23 24  2  0  0  0  0
 23 29  1  0  0  0  0
 24 25  1  0  0  0  0
 24 53  1  0  0  0  0
 25 26  2  0  0  0  0
 25 54  1  0  0  0  0
 26 27  1  0  0  0  0
 26 28  1  0  0  0  0
 28 29  2  0  0  0  0
 28 55  1  0  0  0  0
 29 30  1  0  0  0  0
M  CHG  1   3   1
M  END
