2iw6_ligand
 OpenBabel08222323343D

 61 63  0  0  1  0  0  0  0  0999 V2000
    3.8680   41.7760   50.5570 C   0  0  0  0  0  0  0  0  0  0  0  0
    9.7210   44.7760   50.4540 C   0  0  0  0  0  0  0  0  0  0  0  0
    7.7540   43.6700   49.8940 C   0  0  0  0  0  0  0  0  0  0  0  0
    7.0570   44.5980   50.6990 C   0  0  0  0  0  0  0  0  0  0  0  0
    7.7420   45.6250   51.3840 C   0  0  0  0  0  0  0  0  0  0  0  0
    3.1920   45.8110   53.5440 C   0  0  0  0  0  0  0  0  0  0  0  0
    3.4340   46.4780   52.3480 C   0  0  0  0  0  0  0  0  0  0  0  0
    4.7430   46.7270   51.9120 C   0  0  0  0  0  0  0  0  0  0  0  0
    5.8380   46.2910   52.6650 C   0  0  0  0  0  0  0  0  0  0  0  0
    4.2640   45.3640   54.3110 C   0  0  0  0  0  0  0  0  0  0  0  0
    8.6430   47.6550   53.8110 C   0  0  0  0  0  0  0  0  0  0  0  0
    7.7880   47.8100   52.5830 C   0  0  0  0  0  0  0  0  0  0  0  0
    5.5600   45.6020   53.8670 C   0  0  0  0  0  0  0  0  0  0  0  0
    5.8680   42.1470   49.2930 C   0  0  0  0  0  0  0  0  0  0  0  0
    9.0810   45.6700   51.2260 N   0  0  0  0  0  0  0  0  0  0  0  0
    9.0860   43.8040   49.7900 N   0  0  0  0  0  0  0  0  0  0  0  0
    7.1150   46.5450   52.1970 N   0  0  0  0  0  0  0  0  0  0  0  0
    9.3490   47.5520   54.7690 N   0  0  0  0  0  0  0  0  0  0  0  0
    7.1490   42.6070   49.1720 N   0  0  0  0  0  0  0  0  0  0  0  0
    5.1740   42.2530   50.4950 C   0  0  0  0  0  0  0  0  0  0  0  0
    3.2290   41.1960   49.4550 C   0  0  0  0  0  0  0  0  0  0  0  0
    3.9350   41.0890   48.2510 C   0  0  0  0  0  0  0  0  0  0  0  0
    5.2570   41.5680   48.1950 C   0  0  0  0  0  0  0  0  0  0  0  0
    1.9320   40.7440   49.6220 O   0  0  0  0  0  0  0  0  0  0  0  0
    1.1290   40.2120   48.5620 C   0  0  0  0  0  0  0  0  0  0  0  0
   -0.4020   40.1960   48.8010 C   0  0  1  0  0  0  0  0  0  0  0  0
   -0.9060   40.6490   50.1900 C   0  0  0  0  0  0  0  0  0  0  0  0
   -2.4040   40.5940   50.2230 N   0  3  0  0  0  0  0  0  0  0  0  0
   -3.1750   41.7460   50.6990 C   0  0  0  0  0  0  0  0  0  0  0  0
   -3.1620   39.3690   49.9530 C   0  0  0  0  0  0  0  0  0  0  0  0
   -1.0280   40.9790   47.7660 O   0  0  0  0  0  0  0  0  0  0  0  0
    6.8360   44.9780   54.9250 Cl  0  0  0  0  0  0  0  0  0  0  0  0
    2.2770   46.9500   51.5190 C   0  0  0  0  0  0  0  0  0  0  0  0
    3.3262   41.8566   51.4924 H   0  0  0  0  0  0  0  0  0  0  0  0
   10.7991   44.8455   50.3654 H   0  0  0  0  0  0  0  0  0  0  0  0
    5.9798   44.5205   50.7923 H   0  0  0  0  0  0  0  0  0  0  0  0
    2.1746   45.6402   53.8769 H   0  0  0  0  0  0  0  0  0  0  0  0
    4.9078   47.2618   50.9836 H   0  0  0  0  0  0  0  0  0  0  0  0
    4.0908   44.8372   55.2424 H   0  0  0  0  0  0  0  0  0  0  0  0
    8.4248   48.1398   51.7489 H   0  0  0  0  0  0  0  0  0  0  0  0
    7.0200   48.5720   52.7815 H   0  0  0  0  0  0  0  0  0  0  0  0
    7.7427   42.1290   48.4792 H   0  0  0  0  0  0  0  0  0  0  0  0
    5.6416   42.6983   51.3657 H   0  0  0  0  0  0  0  0  0  0  0  0
    3.4716   40.6451   47.3773 H   0  0  0  0  0  0  0  0  0  0  0  0
    5.8111   41.4811   47.2674 H   0  0  0  0  0  0  0  0  0  0  0  0
    1.4513   39.1752   48.3856 H   0  0  0  0  0  0  0  0  0  0  0  0
    1.3212   40.8140   47.6616 H   0  0  0  0  0  0  0  0  0  0  0  0
   -0.7275   39.1521   48.6815 H   0  0  0  0  0  0  0  0  0  0  0  0
   -0.5731   41.6796   50.3822 H   0  0  0  0  0  0  0  0  0  0  0  0
   -0.4979   39.9816   50.9633 H   0  0  0  0  0  0  0  0  0  0  0  0
   -2.4625   40.8897   49.2611 H   0  0  0  0  0  0  0  0  0  0  0  0
   -4.2492   41.5146   50.6480 H   0  0  0  0  0  0  0  0  0  0  0  0
   -2.9577   42.6193   50.0665 H   0  0  0  0  0  0  0  0  0  0  0  0
   -2.8969   41.9686   51.7397 H   0  0  0  0  0  0  0  0  0  0  0  0
   -2.4762   38.5828   49.6043 H   0  0  0  0  0  0  0  0  0  0  0  0
   -3.9163   39.5679   49.1775 H   0  0  0  0  0  0  0  0  0  0  0  0
   -3.6623   39.0367   50.8746 H   0  0  0  0  0  0  0  0  0  0  0  0
   -0.7109   40.6919   46.9177 H   0  0  0  0  0  0  0  0  0  0  0  0
    1.3344   46.6690   52.0114 H   0  0  0  0  0  0  0  0  0  0  0  0
    2.3242   46.4833   50.5241 H   0  0  0  0  0  0  0  0  0  0  0  0
    2.3236   48.0439   51.4135 H   0  0  0  0  0  0  0  0  0  0  0  0
  1 21  1  0  0  0  0
  1 34  1  0  0  0  0
  2 15  2  0  0  0  0
  2 35  1  0  0  0  0
  3  4  1  0  0  0  0
  3 16  2  0  0  0  0
  4  5  2  0  0  0  0
  4 36  1  0  0  0  0
  5 15  1  0  0  0  0
  5 17  1  0  0  0  0
  6 37  1  0  0  0  0
  7  6  2  0  0  0  0
  7 33  1  0  0  0  0
  8  7  1  0  0  0  0
  8 38  1  0  0  0  0
  9  8  2  0  0  0  0
  9 13  1  0  0  0  0
 10  6  1  0  0  0  0
 10 39  1  0  0  0  0
 11 18  3  0  0  0  0
 12 11  1  0  0  0  0
 12 40  1  0  0  0  0
 12 41  1  0  0  0  0
 13 10  2  0  0  0  0
 13 32  1  0  0  0  0
 14 19  1  0  0  0  0
 14 20  1  0  0  0  0
 14 23  2  0  0  0  0
 16  2  1  0  0  0  0
 17  9  1  0  0  0  0
 17 12  1  0  0  0  0
 19  3  1  0  0  0  0
 19 42  1  0  0  0  0
 20  1  2  0  0  0  0
 20 43  1  0  0  0  0
 21 22  2  0  0  0  0
 21 24  1  0  0  0  0
 22 23  1  0  0  0  0
 22 44  1  0  0  0  0
 23 45  1  0  0  0  0
 24 25  1  0  0  0  0
 25 26  1  0  0  0  0
 25 46  1  0  0  0  0
 25 47  1  0  0  0  0
 26 27  1  0  0  0  0
 26 31  1  0  0  0  0
 26 48  1  6  0  0  0
 27 28  1  0  0  0  0
 27 49  1  0  0  0  0
 27 50  1  0  0  0  0
 28 29  1  0  0  0  0
 28 30  1  0  0  0  0
 28 51  1  0  0  0  0
 29 52  1  0  0  0  0
 29 53  1  0  0  0  0
 29 54  1  0  0  0  0
 30 55  1  0  0  0  0
 30 56  1  0  0  0  0
 30 57  1  0  0  0  0
 31 58  1  0  0  0  0
 33 59  1  0  0  0  0
 33 60  1  0  0  0  0
 33 61  1  0  0  0  0
M  CHG  1  28   1
M  END
