2iws_ligand
 OpenBabel08222323343D

 39 40  0  0  0  0  0  0  0  0999 V2000
   18.4650  -34.9290  -60.3030 C   0  0  0  0  0  0  0  0  0  0  0  0
   18.4250  -33.9530  -59.1610 C   0  0  0  0  0  0  0  0  0  0  0  0
   19.7270  -35.1970  -60.9690 O   0  0  0  0  0  0  0  0  0  0  0  0
   17.4640  -32.9540  -59.1340 C   0  0  0  0  0  0  0  0  0  0  0  0
   17.4290  -32.0480  -58.0840 C   0  0  0  0  0  0  0  0  0  0  0  0
   18.3790  -32.1530  -57.0610 C   0  0  0  0  0  0  0  0  0  0  0  0
   19.3380  -33.1400  -57.0890 C   0  0  0  0  0  0  0  0  0  0  0  0
   19.3750  -34.0400  -58.1350 C   0  0  0  0  0  0  0  0  0  0  0  0
   20.4150  -35.1380  -58.1850 C   0  0  0  0  0  0  0  0  0  0  0  0
   21.7050  -34.7130  -58.8540 C   0  0  0  0  0  0  0  0  0  0  0  0
   21.9060  -33.2980  -59.3390 C   0  0  0  0  0  0  0  0  0  0  0  0
   23.0010  -33.2730  -60.4030 C   0  0  0  0  0  0  0  0  0  0  0  0
   22.4170  -33.2520  -61.8100 C   0  0  0  0  0  0  0  0  0  0  0  0
   22.7320  -34.5640  -62.4860 C   0  0  0  0  0  0  0  0  0  0  0  0
   21.7910  -35.2420  -63.1410 C   0  0  0  0  0  0  0  0  0  0  0  0
   20.3800  -34.7180  -63.2330 C   0  0  0  0  0  0  0  0  0  0  0  0
   19.4780  -35.5460  -62.3300 C   0  0  0  0  0  0  0  0  0  0  0  0
   17.4560  -35.5070  -60.6830 O   0  0  0  0  0  0  0  0  0  0  0  0
   16.5410  -32.8560  -60.1320 O   0  0  0  0  0  0  0  0  0  0  0  0
   18.3460  -31.2700  -56.0350 O   0  0  0  0  0  0  0  0  0  0  0  0
   20.4000  -33.2140  -55.8910 Cl  0  0  0  0  0  0  0  0  0  0  0  0
   22.6010  -35.5290  -59.0130 O   0  0  0  0  0  0  0  0  0  0  0  0
   16.6759  -31.2689  -58.0560 H   0  0  0  0  0  0  0  0  0  0  0  0
   19.9971  -35.9893  -58.7423 H   0  0  0  0  0  0  0  0  0  0  0  0
   20.6426  -35.4501  -57.1551 H   0  0  0  0  0  0  0  0  0  0  0  0
   22.2022  -32.6596  -58.4936 H   0  0  0  0  0  0  0  0  0  0  0  0
   20.9669  -32.9220  -59.7711 H   0  0  0  0  0  0  0  0  0  0  0  0
   23.6283  -34.1695  -60.2905 H   0  0  0  0  0  0  0  0  0  0  0  0
   23.6177  -32.3735  -60.2593 H   0  0  0  0  0  0  0  0  0  0  0  0
   22.8616  -32.4248  -62.3827 H   0  0  0  0  0  0  0  0  0  0  0  0
   21.3268  -33.1162  -61.7560 H   0  0  0  0  0  0  0  0  0  0  0  0
   23.7443  -34.9626  -62.4375 H   0  0  0  0  0  0  0  0  0  0  0  0
   22.0442  -36.1882  -63.6169 H   0  0  0  0  0  0  0  0  0  0  0  0
   20.0274  -34.7917  -64.2723 H   0  0  0  0  0  0  0  0  0  0  0  0
   20.3566  -33.6663  -62.9115 H   0  0  0  0  0  0  0  0  0  0  0  0
   18.4253  -35.3421  -62.5752 H   0  0  0  0  0  0  0  0  0  0  0  0
   19.6891  -36.6151  -62.4800 H   0  0  0  0  0  0  0  0  0  0  0  0
   16.6945  -33.5410  -60.7722 H   0  0  0  0  0  0  0  0  0  0  0  0
   17.6300  -30.6596  -56.1669 H   0  0  0  0  0  0  0  0  0  0  0  0
  1  2  1  0  0  0  0
  1  3  1  0  0  0  0
  1 18  2  0  0  0  0
  2  4  2  0  0  0  0
  2  8  1  0  0  0  0
  3 17  1  0  0  0  0
  4  5  1  0  0  0  0
  4 19  1  0  0  0  0
  5  6  2  0  0  0  0
  5 23  1  0  0  0  0
  6  7  1  0  0  0  0
  6 20  1  0  0  0  0
  7  8  2  0  0  0  0
  7 21  1  0  0  0  0
  8  9  1  0  0  0  0
  9 10  1  0  0  0  0
  9 24  1  0  0  0  0
  9 25  1  0  0  0  0
 10 11  1  0  0  0  0
 10 22  2  0  0  0  0
 11 12  1  0  0  0  0
 11 26  1  0  0  0  0
 11 27  1  0  0  0  0
 12 13  1  0  0  0  0
 12 28  1  0  0  0  0
 12 29  1  0  0  0  0
 13 14  1  0  0  0  0
 13 30  1  0  0  0  0
 13 31  1  0  0  0  0
 14 15  2  0  0  0  0
 14 32  1  0  0  0  0
 15 16  1  0  0  0  0
 15 33  1  0  0  0  0
 16 17  1  0  0  0  0
 16 34  1  0  0  0  0
 16 35  1  0  0  0  0
 17 36  1  0  0  0  0
 17 37  1  0  0  0  0
 19 38  1  0  0  0  0
 20 39  1  0  0  0  0
M  END
