2iyf_ligand
 OpenBabel08222323343D

119121  0  0  1  0  0  0  0  0999 V2000
  -15.3870  -11.7730  -20.6710 C   0  0  2  0  0  0  0  0  0  0  0  0
  -13.9060  -12.1220  -20.4830 C   0  0  2  0  0  0  0  0  0  0  0  0
  -13.2580  -13.1130  -21.4950 C   0  0  2  0  0  0  0  0  0  0  0  0
  -11.7240  -13.0220  -21.4010 C   0  0  2  0  0  0  0  0  0  0  0  0
  -11.3490  -11.8120  -22.0760 O   0  0  0  0  0  0  0  0  0  0  0  0
  -10.4280   -9.5930  -22.1720 C   0  0  2  0  0  0  0  0  0  0  0  0
  -11.1360   -8.4020  -21.5100 C   0  0  2  0  0  0  0  0  0  0  0  0
  -12.5240   -8.1410  -22.1190 C   0  0  1  0  0  0  0  0  0  0  0  0
  -13.3580   -7.2070  -21.1770 C   0  0  2  0  0  0  0  0  0  0  0  0
  -14.3460   -7.9820  -20.2860 C   0  0  2  0  0  0  0  0  0  0  0  0
  -15.4500   -8.6090  -21.1600 C   0  0  0  0  0  0  0  0  0  0  0  0
  -16.4620   -9.4210  -20.3300 C   0  0  2  0  0  0  0  0  0  0  0  0
  -15.8760  -10.6790  -19.7350 C   0  0  0  0  0  0  0  0  0  0  0  0
  -15.8430  -10.8620  -18.5140 O   0  0  0  0  0  0  0  0  0  0  0  0
  -10.6580  -10.8080  -21.3500 C   0  0  0  0  0  0  0  0  0  0  0  0
  -10.3260  -10.9580  -20.1830 O   0  0  0  0  0  0  0  0  0  0  0  0
  -10.3290   -7.2180  -21.5970 O   0  0  0  0  0  0  0  0  0  0  0  0
  -14.0770   -6.3260  -21.9990 O   0  0  0  0  0  0  0  0  0  0  0  0
  -16.3400  -12.9470  -20.4440 C   0  0  0  0  0  0  0  0  0  0  0  0
  -17.6880   -9.7660  -21.1750 C   0  0  0  0  0  0  0  0  0  0  0  0
  -13.7420  -12.8480  -22.9160 C   0  0  0  0  0  0  0  0  0  0  0  0
  -13.7320  -12.5860  -19.1300 O   0  0  0  0  0  0  0  0  0  0  0  0
  -13.7300  -14.4310  -21.2120 O   0  0  0  0  0  0  0  0  0  0  0  0
  -10.9850  -14.1510  -22.1240 C   0  0  0  0  0  0  0  0  0  0  0  0
   -8.8970   -9.5300  -22.3720 C   0  0  0  0  0  0  0  0  0  0  0  0
  -14.8810   -7.1310  -19.1210 C   0  0  0  0  0  0  0  0  0  0  0  0
  -13.6330   -9.0610  -19.7130 O   0  0  0  0  0  0  0  0  0  0  0  0
  -13.7310   -4.9390  -21.8830 C   0  0  1  0  0  0  0  0  0  0  0  0
  -14.3830   -4.1530  -23.0290 C   0  0  1  0  0  0  0  0  0  0  0  0
  -14.1840   -2.6530  -22.8040 C   0  0  2  0  0  0  0  0  0  0  0  0
  -14.6280   -2.2510  -21.3780 C   0  0  0  0  0  0  0  0  0  0  0  0
  -13.9390   -3.1190  -20.3130 C   0  0  2  0  0  0  0  0  0  0  0  0
  -14.1960   -4.4990  -20.6140 O   0  0  0  0  0  0  0  0  0  0  0  0
  -15.0240   -1.8380  -23.7160 N   0  3  0  0  0  0  0  0  0  0  0  0
  -14.5450   -2.8660  -18.9430 C   0  0  0  0  0  0  0  0  0  0  0  0
  -13.7450   -4.4850  -24.2670 O   0  0  0  0  0  0  0  0  0  0  0  0
  -14.5630   -0.4810  -23.9950 C   0  0  0  0  0  0  0  0  0  0  0  0
   -9.4530   -7.0170  -20.4650 C   0  0  1  0  0  0  0  0  0  0  0  0
   -8.2750   -6.1280  -20.8890 C   0  0  0  0  0  0  0  0  0  0  0  0
   -8.6430   -4.6390  -21.0200 C   0  0  2  0  0  0  0  0  0  0  0  0
   -9.2900   -4.1600  -19.7090 C   0  0  2  0  0  0  0  0  0  0  0  0
  -10.4810   -5.0690  -19.3970 C   0  0  1  0  0  0  0  0  0  0  0  0
  -10.1340   -6.4680  -19.3320 O   0  0  0  0  0  0  0  0  0  0  0  0
   -9.5980   -4.4240  -22.0710 O   0  0  0  0  0  0  0  0  0  0  0  0
   -9.7920   -2.8280  -19.9150 O   0  0  0  0  0  0  0  0  0  0  0  0
   -9.3780   -4.6560  -23.4840 C   0  0  0  0  0  0  0  0  0  0  0  0
  -16.3490   -2.2570  -24.1580 C   0  0  0  0  0  0  0  0  0  0  0  0
  -11.0930   -4.7510  -18.0260 C   0  0  0  0  0  0  0  0  0  0  0  0
   -9.5070  -14.1270  -21.7920 C   0  0  0  0  0  0  0  0  0  0  0  0
  -12.3480   -7.5820  -23.5390 C   0  0  0  0  0  0  0  0  0  0  0  0
   -7.3980   -3.7730  -21.2890 C   0  0  0  0  0  0  0  0  0  0  0  0
  -15.5034  -11.4253  -21.7081 H   0  0  0  0  0  0  0  0  0  0  0  0
  -13.3495  -11.1791  -20.5891 H   0  0  0  0  0  0  0  0  0  0  0  0
  -11.4206  -12.9991  -20.3439 H   0  0  0  0  0  0  0  0  0  0  0  0
  -10.8870   -9.7257  -23.1628 H   0  0  0  0  0  0  0  0  0  0  0  0
  -11.2747   -8.6442  -20.4460 H   0  0  0  0  0  0  0  0  0  0  0  0
  -13.0584   -9.0993  -22.1971 H   0  0  0  0  0  0  0  0  0  0  0  0
  -12.6707   -6.6400  -20.5320 H   0  0  0  0  0  0  0  0  0  0  0  0
  -14.9808   -9.2767  -21.8975 H   0  0  0  0  0  0  0  0  0  0  0  0
  -15.9868   -7.8040  -21.6833 H   0  0  0  0  0  0  0  0  0  0  0  0
  -16.7907   -8.7831  -19.4963 H   0  0  0  0  0  0  0  0  0  0  0  0
  -17.3766  -12.6128  -20.5980 H   0  0  0  0  0  0  0  0  0  0  0  0
  -16.2239  -13.3200  -19.4157 H   0  0  0  0  0  0  0  0  0  0  0  0
  -16.1051  -13.7527  -21.1550 H   0  0  0  0  0  0  0  0  0  0  0  0
  -18.4001  -10.3451  -20.5686 H   0  0  0  0  0  0  0  0  0  0  0  0
  -17.3774  -10.3628  -22.0453 H   0  0  0  0  0  0  0  0  0  0  0  0
  -18.1689   -8.8385  -21.5192 H   0  0  0  0  0  0  0  0  0  0  0  0
  -14.8391  -12.9203  -22.9491 H   0  0  0  0  0  0  0  0  0  0  0  0
  -13.3048  -13.5928  -23.5972 H   0  0  0  0  0  0  0  0  0  0  0  0
  -13.4315  -11.8397  -23.2271 H   0  0  0  0  0  0  0  0  0  0  0  0
  -14.1337  -11.9682  -18.5304 H   0  0  0  0  0  0  0  0  0  0  0  0
  -13.4696  -14.6773  -20.3322 H   0  0  0  0  0  0  0  0  0  0  0  0
  -11.1126  -14.0280  -23.2096 H   0  0  0  0  0  0  0  0  0  0  0  0
  -11.4088  -15.1169  -21.8121 H   0  0  0  0  0  0  0  0  0  0  0  0
   -8.5520  -10.4557  -22.8558 H   0  0  0  0  0  0  0  0  0  0  0  0
   -8.4037   -9.4212  -21.3949 H   0  0  0  0  0  0  0  0  0  0  0  0
   -8.6454   -8.6683  -23.0078 H   0  0  0  0  0  0  0  0  0  0  0  0
  -14.0361   -6.7210  -18.5482 H   0  0  0  0  0  0  0  0  0  0  0  0
  -15.5001   -7.7582  -18.4628 H   0  0  0  0  0  0  0  0  0  0  0  0
  -15.4891   -6.3053  -19.5191 H   0  0  0  0  0  0  0  0  0  0  0  0
  -12.9373   -8.7223  -19.1619 H   0  0  0  0  0  0  0  0  0  0  0  0
  -12.6392   -4.8170  -21.9381 H   0  0  0  0  0  0  0  0  0  0  0  0
  -15.4558   -4.3908  -23.0788 H   0  0  0  0  0  0  0  0  0  0  0  0
  -13.1220   -2.4090  -22.9542 H   0  0  0  0  0  0  0  0  0  0  0  0
  -15.7174   -2.3771  -21.2930 H   0  0  0  0  0  0  0  0  0  0  0  0
  -14.3663   -1.1967  -21.2051 H   0  0  0  0  0  0  0  0  0  0  0  0
  -12.8584   -2.9137  -20.3005 H   0  0  0  0  0  0  0  0  0  0  0  0
  -14.5864   -2.2202  -24.5397 H   0  0  0  0  0  0  0  0  0  0  0  0
  -14.0390   -3.4956  -18.1963 H   0  0  0  0  0  0  0  0  0  0  0  0
  -15.6167   -3.1127  -18.9649 H   0  0  0  0  0  0  0  0  0  0  0  0
  -14.4180   -1.8065  -18.6758 H   0  0  0  0  0  0  0  0  0  0  0  0
  -14.1425   -3.9858  -24.9707 H   0  0  0  0  0  0  0  0  0  0  0  0
  -15.2690    0.0127  -24.6789 H   0  0  0  0  0  0  0  0  0  0  0  0
  -13.5676   -0.5205  -24.4615 H   0  0  0  0  0  0  0  0  0  0  0  0
  -14.5051    0.0872  -23.0549 H   0  0  0  0  0  0  0  0  0  0  0  0
   -9.0536   -7.9979  -20.1680 H   0  0  0  0  0  0  0  0  0  0  0  0
   -7.9051   -6.4818  -21.8626 H   0  0  0  0  0  0  0  0  0  0  0  0
   -7.4781   -6.2244  -20.1369 H   0  0  0  0  0  0  0  0  0  0  0  0
   -8.5600   -4.1787  -18.8864 H   0  0  0  0  0  0  0  0  0  0  0  0
  -11.2364   -4.9188  -20.1823 H   0  0  0  0  0  0  0  0  0  0  0  0
  -10.4037   -2.8302  -20.6418 H   0  0  0  0  0  0  0  0  0  0  0  0
  -10.2902   -4.4017  -24.0437 H   0  0  0  0  0  0  0  0  0  0  0  0
   -9.1309   -5.7153  -23.6476 H   0  0  0  0  0  0  0  0  0  0  0  0
   -8.5460   -4.0271  -23.8337 H   0  0  0  0  0  0  0  0  0  0  0  0
  -16.5210   -3.3022  -23.8613 H   0  0  0  0  0  0  0  0  0  0  0  0
  -16.4146   -2.1711  -25.2527 H   0  0  0  0  0  0  0  0  0  0  0  0
  -17.1109   -1.6139  -23.6934 H   0  0  0  0  0  0  0  0  0  0  0  0
  -11.9433   -5.4233  -17.8392 H   0  0  0  0  0  0  0  0  0  0  0  0
  -11.4409   -3.7075  -18.0128 H   0  0  0  0  0  0  0  0  0  0  0  0
  -10.3335   -4.8943  -17.2433 H   0  0  0  0  0  0  0  0  0  0  0  0
   -8.9988  -14.9459  -22.3223 H   0  0  0  0  0  0  0  0  0  0  0  0
   -9.3727  -14.2534  -20.7076 H   0  0  0  0  0  0  0  0  0  0  0  0
   -9.0764  -13.1645  -22.1052 H   0  0  0  0  0  0  0  0  0  0  0  0
  -11.7556   -8.2876  -24.1400 H   0  0  0  0  0  0  0  0  0  0  0  0
  -11.8269   -6.6145  -23.4902 H   0  0  0  0  0  0  0  0  0  0  0  0
  -13.3354   -7.4437  -24.0036 H   0  0  0  0  0  0  0  0  0  0  0  0
   -6.9193   -4.0996  -22.2240 H   0  0  0  0  0  0  0  0  0  0  0  0
   -6.6881   -3.8826  -20.4559 H   0  0  0  0  0  0  0  0  0  0  0  0
   -7.6974   -2.7184  -21.3794 H   0  0  0  0  0  0  0  0  0  0  0  0
  1 13  1  0  0  0  0
  1 19  1  0  0  0  0
  1 52  1  6  0  0  0
  2  1  1  0  0  0  0
  2 22  1  0  0  0  0
  2 53  1  6  0  0  0
  3  2  1  0  0  0  0
  3 21  1  0  0  0  0
  3 23  1  1  0  0  0
  4  3  1  0  0  0  0
  4 24  1  0  0  0  0
  4 54  1  1  0  0  0
  5  4  1  0  0  0  0
  6  7  1  0  0  0  0
  6 15  1  0  0  0  0
  6 25  1  0  0  0  0
  6 55  1  6  0  0  0
  7  8  1  0  0  0  0
  7 17  1  0  0  0  0
  7 56  1  1  0  0  0
  8  9  1  0  0  0  0
  8 50  1  0  0  0  0
  8 57  1  6  0  0  0
  9 10  1  0  0  0  0
  9 18  1  0  0  0  0
  9 58  1  1  0  0  0
 10 11  1  0  0  0  0
 10 26  1  0  0  0  0
 10 27  1  1  0  0  0
 11 12  1  0  0  0  0
 11 59  1  0  0  0  0
 11 60  1  0  0  0  0
 12 13  1  0  0  0  0
 12 20  1  0  0  0  0
 12 61  1  1  0  0  0
 13 14  2  0  0  0  0
 15  5  1  0  0  0  0
 15 16  2  0  0  0  0
 17 38  1  0  0  0  0
 18 28  1  0  0  0  0
 19 62  1  0  0  0  0
 19 63  1  0  0  0  0
 19 64  1  0  0  0  0
 20 65  1  0  0  0  0
 20 66  1  0  0  0  0
 20 67  1  0  0  0  0
 21 68  1  0  0  0  0
 21 69  1  0  0  0  0
 21 70  1  0  0  0  0
 22 71  1  0  0  0  0
 23 72  1  0  0  0  0
 24 49  1  0  0  0  0
 24 73  1  0  0  0  0
 24 74  1  0  0  0  0
 25 75  1  0  0  0  0
 25 76  1  0  0  0  0
 25 77  1  0  0  0  0
 26 78  1  0  0  0  0
 26 79  1  0  0  0  0
 26 80  1  0  0  0  0
 27 81  1  0  0  0  0
 28 29  1  0  0  0  0
 28 33  1  0  0  0  0
 28 82  1  6  0  0  0
 29 30  1  0  0  0  0
 29 36  1  0  0  0  0
 29 83  1  6  0  0  0
 30 31  1  0  0  0  0
 30 34  1  0  0  0  0
 30 84  1  6  0  0  0
 31 32  1  0  0  0  0
 31 85  1  0  0  0  0
 31 86  1  0  0  0  0
 32 33  1  0  0  0  0
 32 35  1  0  0  0  0
 32 87  1  1  0  0  0
 34 37  1  0  0  0  0
 34 47  1  0  0  0  0
 34 88  1  0  0  0  0
 35 89  1  0  0  0  0
 35 90  1  0  0  0  0
 35 91  1  0  0  0  0
 36 92  1  0  0  0  0
 37 93  1  0  0  0  0
 37 94  1  0  0  0  0
 37 95  1  0  0  0  0
 38 39  1  0  0  0  0
 38 43  1  0  0  0  0
 38 96  1  1  0  0  0
 39 40  1  0  0  0  0
 39 97  1  0  0  0  0
 39 98  1  0  0  0  0
 40 41  1  0  0  0  0
 40 44  1  6  0  0  0
 40 51  1  0  0  0  0
 41 42  1  0  0  0  0
 41 45  1  0  0  0  0
 41 99  1  1  0  0  0
 42 43  1  0  0  0  0
 42 48  1  0  0  0  0
 42100  1  6  0  0  0
 44 46  1  0  0  0  0
 45101  1  0  0  0  0
 46102  1  0  0  0  0
 46103  1  0  0  0  0
 46104  1  0  0  0  0
 47105  1  0  0  0  0
 47106  1  0  0  0  0
 47107  1  0  0  0  0
 48108  1  0  0  0  0
 48109  1  0  0  0  0
 48110  1  0  0  0  0
 49111  1  0  0  0  0
 49112  1  0  0  0  0
 49113  1  0  0  0  0
 50114  1  0  0  0  0
 50115  1  0  0  0  0
 50116  1  0  0  0  0
 51117  1  0  0  0  0
 51118  1  0  0  0  0
 51119  1  0  0  0  0
M  CHG  1  34   1
M  END
