2izx_ligand
 OpenBabel08222323343D

 16 16  0  0  1  0  0  0  0  0999 V2000
   -6.7210   -6.6790  -17.3060 S   0  0  0  0  0  0  0  0  0  0  0  0
   -6.7160   -7.9020  -18.6420 C   0  0  0  0  0  0  0  0  0  0  0  0
   -8.0810   -7.9170  -19.3400 C   0  0  2  0  0  0  0  0  0  0  0  0
   -8.1250   -8.9890  -20.2500 O   0  0  0  0  0  0  0  0  0  0  0  0
   -8.2650   -6.6830  -20.2160 C   0  0  1  0  0  0  0  0  0  0  0  0
   -9.4150   -6.8090  -21.0280 O   0  0  0  0  0  0  0  0  0  0  0  0
   -8.3980   -5.3790  -19.4420 C   0  0  0  0  0  0  0  0  0  0  0  0
   -6.7940   -4.9860  -18.6360 S   0  0  0  0  0  0  0  0  0  0  0  0
   -6.5091   -8.8982  -18.2240 H   0  0  0  0  0  0  0  0  0  0  0  0
   -5.9357   -7.6415  -19.3722 H   0  0  0  0  0  0  0  0  0  0  0  0
   -8.8841   -7.9925  -18.5921 H   0  0  0  0  0  0  0  0  0  0  0  0
   -8.9701   -9.0002  -20.6838 H   0  0  0  0  0  0  0  0  0  0  0  0
   -7.3802   -6.6058  -20.8650 H   0  0  0  0  0  0  0  0  0  0  0  0
   -9.3241   -7.5712  -21.5878 H   0  0  0  0  0  0  0  0  0  0  0  0
   -9.1788   -5.4851  -18.6745 H   0  0  0  0  0  0  0  0  0  0  0  0
   -8.6707   -4.5676  -20.1328 H   0  0  0  0  0  0  0  0  0  0  0  0
  1  2  1  0  0  0  0
  1  8  1  0  0  0  0
  2  3  1  0  0  0  0
  2  9  1  0  0  0  0
  2 10  1  0  0  0  0
  3  4  1  0  0  0  0
  3  5  1  0  0  0  0
  3 11  1  1  0  0  0
  4 12  1  0  0  0  0
  5  6  1  0  0  0  0
  5  7  1  0  0  0  0
  5 13  1  6  0  0  0
  6 14  1  0  0  0  0
  7  8  1  0  0  0  0
  7 15  1  0  0  0  0
  7 16  1  0  0  0  0
M  END
