2j6m_ligand
 OpenBabel08222323343D

 67 71  0  0  1  0  0  0  0  0999 V2000
  -50.7820   -0.6920  -12.4130 C   0  0  0  0  0  0  0  0  0  0  0  0
  -49.4830   -1.0040  -11.6760 C   0  0  0  0  0  0  0  0  0  0  0  0
  -49.1860   -2.4340  -11.7620 N   0  3  1  0  0  0  0  0  0  0  0  0
  -50.2950   -3.2120  -11.2020 C   0  0  0  0  0  0  0  0  0  0  0  0
  -50.3250   -3.0340   -9.6850 C   0  0  0  0  0  0  0  0  0  0  0  0
  -48.9970   -2.7720  -13.1700 C   0  0  0  0  0  0  0  0  0  0  0  0
  -50.3000   -2.5340  -13.9180 C   0  0  0  0  0  0  0  0  0  0  0  0
  -50.6950   -1.1260  -13.8110 N   0  3  2  0  0  0  0  0  0  0  0  0
  -49.8460   -0.2520  -14.6260 C   0  0  0  0  0  0  0  0  0  0  0  0
  -50.5050   -0.0850  -15.9900 C   0  0  0  0  0  0  0  0  0  0  0  0
  -51.5450    0.8070  -16.1470 C   0  0  0  0  0  0  0  0  0  0  0  0
  -52.1510    0.9550  -17.3830 C   0  0  0  0  0  0  0  0  0  0  0  0
  -50.0770   -0.8310  -17.0690 C   0  0  0  0  0  0  0  0  0  0  0  0
  -50.6790   -0.6800  -18.3070 C   0  0  0  0  0  0  0  0  0  0  0  0
  -51.7220    0.2090  -18.4630 C   0  0  0  0  0  0  0  0  0  0  0  0
  -52.3280    0.3730  -19.6960 C   0  0  0  0  0  0  0  0  0  0  0  0
  -53.3660    1.1590  -19.9400 N   0  0  0  0  0  0  0  0  0  0  0  0
  -51.9570   -0.2180  -20.8220 C   0  0  0  0  0  0  0  0  0  0  0  0
  -52.7630    0.1890  -21.7830 C   0  0  0  0  0  0  0  0  0  0  0  0
  -53.6530    1.0650  -21.2250 C   0  0  0  0  0  0  0  0  0  0  0  0
  -54.5870    1.6230  -21.9920 N   0  0  0  0  0  0  0  0  0  0  0  0
  -54.6590    1.3430  -23.2760 C   0  0  0  0  0  0  0  0  0  0  0  0
  -53.8170    0.5090  -23.8430 N   0  0  0  0  0  0  0  0  0  0  0  0
  -52.8630   -0.0780  -23.1290 C   0  0  0  0  0  0  0  0  0  0  0  0
  -52.0340   -0.9090  -23.7250 N   0  0  0  0  0  0  0  0  0  0  0  0
  -52.3410   -1.3270  -25.0890 C   0  0  2  0  0  0  0  0  0  0  0  0
  -51.2870   -2.3080  -25.5730 C   0  0  0  0  0  0  0  0  0  0  0  0
  -52.3440   -0.1220  -26.0010 C   0  0  0  0  0  0  0  0  0  0  0  0
  -52.2240    1.1440  -25.4670 C   0  0  0  0  0  0  0  0  0  0  0  0
  -52.2300    2.2450  -26.3050 C   0  0  0  0  0  0  0  0  0  0  0  0
  -52.3550    2.0790  -27.6710 C   0  0  0  0  0  0  0  0  0  0  0  0
  -52.4720    0.8110  -28.2030 C   0  0  0  0  0  0  0  0  0  0  0  0
  -52.4670   -0.2920  -27.3680 C   0  0  0  0  0  0  0  0  0  0  0  0
  -50.9651    0.3922  -12.3811 H   0  0  0  0  0  0  0  0  0  0  0  0
  -51.6130   -1.2189  -11.9213 H   0  0  0  0  0  0  0  0  0  0  0  0
  -49.5866   -0.7171  -10.6192 H   0  0  0  0  0  0  0  0  0  0  0  0
  -48.6602   -0.4337  -12.1319 H   0  0  0  0  0  0  0  0  0  0  0  0
  -48.3433   -2.6376  -11.2477 H   0  0  0  0  0  0  0  0  0  0  0  0
  -50.1557   -4.2760  -11.4439 H   0  0  0  0  0  0  0  0  0  0  0  0
  -51.2443   -2.8595  -11.6316 H   0  0  0  0  0  0  0  0  0  0  0  0
  -51.1569   -3.6175   -9.2638 H   0  0  0  0  0  0  0  0  0  0  0  0
  -50.4641   -1.9699   -9.4433 H   0  0  0  0  0  0  0  0  0  0  0  0
  -49.3756   -3.3865   -9.2556 H   0  0  0  0  0  0  0  0  0  0  0  0
  -48.7088   -3.8298  -13.2595 H   0  0  0  0  0  0  0  0  0  0  0  0
  -48.2057   -2.1389  -13.5979 H   0  0  0  0  0  0  0  0  0  0  0  0
  -51.0886   -3.1666  -13.4846 H   0  0  0  0  0  0  0  0  0  0  0  0
  -50.1631   -2.7934  -14.9782 H   0  0  0  0  0  0  0  0  0  0  0  0
  -51.6257   -1.0565  -14.1918 H   0  0  0  0  0  0  0  0  0  0  0  0
  -48.8512   -0.7058  -14.7462 H   0  0  0  0  0  0  0  0  0  0  0  0
  -49.7451    0.7290  -14.1387 H   0  0  0  0  0  0  0  0  0  0  0  0
  -51.8883    1.3928  -15.3019 H   0  0  0  0  0  0  0  0  0  0  0  0
  -52.9659    1.6596  -17.5035 H   0  0  0  0  0  0  0  0  0  0  0  0
  -49.2653   -1.5390  -16.9470 H   0  0  0  0  0  0  0  0  0  0  0  0
  -50.3305   -1.2605  -19.1535 H   0  0  0  0  0  0  0  0  0  0  0  0
  -53.8615    1.7406  -19.2492 H   0  0  0  0  0  0  0  0  0  0  0  0
  -51.1304   -0.9180  -20.9344 H   0  0  0  0  0  0  0  0  0  0  0  0
  -55.4294    1.8105  -23.8785 H   0  0  0  0  0  0  0  0  0  0  0  0
  -51.1923   -1.2544  -23.2421 H   0  0  0  0  0  0  0  0  0  0  0  0
  -53.3299   -1.8081  -25.1105 H   0  0  0  0  0  0  0  0  0  0  0  0
  -51.5218   -2.6207  -26.6012 H   0  0  0  0  0  0  0  0  0  0  0  0
  -51.2768   -3.1894  -24.9150 H   0  0  0  0  0  0  0  0  0  0  0  0
  -50.2993   -1.8243  -25.5534 H   0  0  0  0  0  0  0  0  0  0  0  0
  -52.1254    1.2758  -24.3956 H   0  0  0  0  0  0  0  0  0  0  0  0
  -52.1363    3.2413  -25.8884 H   0  0  0  0  0  0  0  0  0  0  0  0
  -52.3612    2.9440  -28.3243 H   0  0  0  0  0  0  0  0  0  0  0  0
  -52.5678    0.6793  -29.2747 H   0  0  0  0  0  0  0  0  0  0  0  0
  -52.5594   -1.2884  -27.7847 H   0  0  0  0  0  0  0  0  0  0  0  0
  1  2  1  0  0  0  0
  1  8  1  0  0  0  0
  1 34  1  0  0  0  0
  1 35  1  0  0  0  0
  2  3  1  0  0  0  0
  2 36  1  0  0  0  0
  2 37  1  0  0  0  0
  3  4  1  0  0  0  0
  3  6  1  0  0  0  0
  3 38  1  1  0  0  0
  4  5  1  0  0  0  0
  4 39  1  0  0  0  0
  4 40  1  0  0  0  0
  5 41  1  0  0  0  0
  5 42  1  0  0  0  0
  5 43  1  0  0  0  0
  6  7  1  0  0  0  0
  6 44  1  0  0  0  0
  6 45  1  0  0  0  0
  7  8  1  0  0  0  0
  7 46  1  0  0  0  0
  7 47  1  0  0  0  0
  8  9  1  0  0  0  0
  8 48  1  6  0  0  0
  9 10  1  0  0  0  0
  9 49  1  0  0  0  0
  9 50  1  0  0  0  0
 10 11  2  0  0  0  0
 10 13  1  0  0  0  0
 11 12  1  0  0  0  0
 11 51  1  0  0  0  0
 12 15  2  0  0  0  0
 12 52  1  0  0  0  0
 13 14  2  0  0  0  0
 13 53  1  0  0  0  0
 14 15  1  0  0  0  0
 14 54  1  0  0  0  0
 15 16  1  0  0  0  0
 16 17  1  0  0  0  0
 16 18  2  0  0  0  0
 17 20  1  0  0  0  0
 17 55  1  0  0  0  0
 18 19  1  0  0  0  0
 18 56  1  0  0  0  0
 19 20  2  0  0  0  0
 19 24  1  0  0  0  0
 20 21  1  0  0  0  0
 21 22  2  0  0  0  0
 22 23  1  0  0  0  0
 22 57  1  0  0  0  0
 23 24  2  0  0  0  0
 24 25  1  0  0  0  0
 25 26  1  0  0  0  0
 25 58  1  0  0  0  0
 26 27  1  0  0  0  0
 26 28  1  0  0  0  0
 26 59  1  6  0  0  0
 27 60  1  0  0  0  0
 27 61  1  0  0  0  0
 27 62  1  0  0  0  0
 28 29  2  0  0  0  0
 28 33  1  0  0  0  0
 29 30  1  0  0  0  0
 29 63  1  0  0  0  0
 30 31  2  0  0  0  0
 30 64  1  0  0  0  0
 31 32  1  0  0  0  0
 31 65  1  0  0  0  0
 32 33  2  0  0  0  0
 32 66  1  0  0  0  0
 33 67  1  0  0  0  0
M  CHG  2   3   1   8   1
M  END
