2j83_ligand
 OpenBabel08222323343D

 63 64  0  0  1  0  0  0  0  0999 V2000
   25.7170   48.9420   99.0180 C   0  0  1  0  0  0  0  0  0  0  0  0
   24.9690   47.6350   99.2020 C   0  0  0  0  0  0  0  0  0  0  0  0
   27.1960   48.6780   98.6970 C   0  0  0  0  0  0  0  0  0  0  0  0
   29.4320   47.2100   99.3910 C   0  0  0  0  0  0  0  0  0  0  0  0
   30.6700   47.7160   99.7270 C   0  0  0  0  0  0  0  0  0  0  0  0
   31.6250   46.9970   99.0330 C   0  0  0  0  0  0  0  0  0  0  0  0
   31.0940   46.0040   98.2180 C   0  0  0  0  0  0  0  0  0  0  0  0
   25.0010   49.8430   97.9940 C   0  0  1  0  0  0  0  0  0  0  0  0
   23.5370   50.0930   98.3930 C   0  0  0  0  0  0  0  0  0  0  0  0
   22.6700   50.6100   97.2500 C   0  0  0  0  0  0  0  0  0  0  0  0
   22.6350   52.1330   97.2330 C   0  0  0  0  0  0  0  0  0  0  0  0
   21.2470   50.0750   97.3190 C   0  0  0  0  0  0  0  0  0  0  0  0
   25.7030   51.1740   97.8650 C   0  0  0  0  0  0  0  0  0  0  0  0
   27.0760   52.6360   96.4240 C   0  0  2  0  0  0  0  0  0  0  0  0
   26.3740   53.9710   96.3550 C   0  0  0  0  0  0  0  0  0  0  0  0
   26.8040   56.3670   96.7760 C   0  0  0  0  0  0  0  0  0  0  0  0
   27.9710   52.4180   95.1970 C   0  0  0  0  0  0  0  0  0  0  0  0
   28.9160   51.2690   95.4920 C   0  0  0  0  0  0  0  0  0  0  0  0
   30.0460   51.4740   96.2880 C   0  0  0  0  0  0  0  0  0  0  0  0
   30.9100   50.4170   96.5760 C   0  0  0  0  0  0  0  0  0  0  0  0
   30.6390   49.1460   96.0680 C   0  0  0  0  0  0  0  0  0  0  0  0
   29.5120   48.9330   95.2690 C   0  0  0  0  0  0  0  0  0  0  0  0
   28.6530   50.0000   94.9850 C   0  0  0  0  0  0  0  0  0  0  0  0
   24.3680   47.4860  100.3700 N   0  0  0  0  0  0  0  0  0  0  0  0
   26.1770   51.4980   96.6530 N   0  0  0  0  0  0  0  0  0  0  0  0
   26.9600   54.9510   97.0540 N   0  0  0  0  0  0  0  0  0  0  0  0
   24.9120   46.7780   98.3290 O   0  0  0  0  0  0  0  0  0  0  0  0
   23.7010   46.2970  100.6560 O   0  0  0  0  0  0  0  0  0  0  0  0
   25.7880   51.9040   98.8450 O   0  0  0  0  0  0  0  0  0  0  0  0
   25.3450   54.1150   95.7130 O   0  0  0  0  0  0  0  0  0  0  0  0
   27.9600   47.8540  100.0630 S   0  0  0  0  0  0  0  0  0  0  0  0
   29.3420   45.8920   98.2710 S   0  0  0  0  0  0  0  0  0  0  0  0
   25.6914   49.4744   99.9802 H   0  0  0  0  0  0  0  0  0  0  0  0
   27.7075   49.6344   98.5136 H   0  0  0  0  0  0  0  0  0  0  0  0
   27.2690   48.0452   97.8002 H   0  0  0  0  0  0  0  0  0  0  0  0
   30.8614   48.5366  100.4168 H   0  0  0  0  0  0  0  0  0  0  0  0
   32.6934   47.1904   99.1169 H   0  0  0  0  0  0  0  0  0  0  0  0
   31.7105   45.3524   97.6005 H   0  0  0  0  0  0  0  0  0  0  0  0
   25.0187   49.3369   97.0175 H   0  0  0  0  0  0  0  0  0  0  0  0
   23.5201   50.8351   99.2048 H   0  0  0  0  0  0  0  0  0  0  0  0
   23.1085   49.1460   98.7529 H   0  0  0  0  0  0  0  0  0  0  0  0
   23.1188   50.2646   96.3070 H   0  0  0  0  0  0  0  0  0  0  0  0
   22.0037   52.4759   96.4000 H   0  0  0  0  0  0  0  0  0  0  0  0
   23.6558   52.5218   97.1036 H   0  0  0  0  0  0  0  0  0  0  0  0
   22.2202   52.5009   98.1830 H   0  0  0  0  0  0  0  0  0  0  0  0
   21.2690   48.9753   97.3314 H   0  0  0  0  0  0  0  0  0  0  0  0
   20.6823   50.4205   96.4405 H   0  0  0  0  0  0  0  0  0  0  0  0
   20.7611   50.4424   98.2349 H   0  0  0  0  0  0  0  0  0  0  0  0
   27.7418   52.6816   97.2984 H   0  0  0  0  0  0  0  0  0  0  0  0
   27.3925   56.9498   97.4999 H   0  0  0  0  0  0  0  0  0  0  0  0
   25.7424   56.6424   96.8602 H   0  0  0  0  0  0  0  0  0  0  0  0
   27.1590   56.5820   95.7573 H   0  0  0  0  0  0  0  0  0  0  0  0
   28.5491   53.3311   94.9918 H   0  0  0  0  0  0  0  0  0  0  0  0
   27.3499   52.1730   94.3228 H   0  0  0  0  0  0  0  0  0  0  0  0
   30.2528   52.4614   96.6846 H   0  0  0  0  0  0  0  0  0  0  0  0
   31.7871   50.5823   97.1911 H   0  0  0  0  0  0  0  0  0  0  0  0
   31.3048   48.3209   96.2938 H   0  0  0  0  0  0  0  0  0  0  0  0
   29.3047   47.9461   94.8715 H   0  0  0  0  0  0  0  0  0  0  0  0
   27.7777   49.8374   94.3666 H   0  0  0  0  0  0  0  0  0  0  0  0
   24.3921   48.2234  101.0450 H   0  0  0  0  0  0  0  0  0  0  0  0
   25.9057   50.9390   95.8695 H   0  0  0  0  0  0  0  0  0  0  0  0
   27.5459   54.6892   97.8209 H   0  0  0  0  0  0  0  0  0  0  0  0
   23.3256   46.3475  101.5272 H   0  0  0  0  0  0  0  0  0  0  0  0
  1  2  1  0  0  0  0
  1  3  1  0  0  0  0
  1 33  1  1  0  0  0
  2 24  1  0  0  0  0
  2 27  2  0  0  0  0
  3 31  1  0  0  0  0
  3 34  1  0  0  0  0
  3 35  1  0  0  0  0
  4  5  2  0  0  0  0
  4 32  1  0  0  0  0
  5  6  1  0  0  0  0
  5 36  1  0  0  0  0
  6 37  1  0  0  0  0
  7  6  2  0  0  0  0
  7 38  1  0  0  0  0
  8  1  1  0  0  0  0
  8  9  1  0  0  0  0
  8 39  1  6  0  0  0
  9 10  1  0  0  0  0
  9 40  1  0  0  0  0
  9 41  1  0  0  0  0
 10 11  1  0  0  0  0
 10 12  1  0  0  0  0
 10 42  1  0  0  0  0
 11 43  1  0  0  0  0
 11 44  1  0  0  0  0
 11 45  1  0  0  0  0
 12 46  1  0  0  0  0
 12 47  1  0  0  0  0
 12 48  1  0  0  0  0
 13  8  1  0  0  0  0
 13 29  2  0  0  0  0
 14 15  1  0  0  0  0
 14 17  1  0  0  0  0
 14 25  1  0  0  0  0
 14 49  1  1  0  0  0
 15 26  1  0  0  0  0
 15 30  2  0  0  0  0
 16 50  1  0  0  0  0
 16 51  1  0  0  0  0
 16 52  1  0  0  0  0
 17 18  1  0  0  0  0
 17 53  1  0  0  0  0
 17 54  1  0  0  0  0
 18 19  2  0  0  0  0
 18 23  1  0  0  0  0
 19 20  1  0  0  0  0
 19 55  1  0  0  0  0
 20 21  2  0  0  0  0
 20 56  1  0  0  0  0
 21 22  1  0  0  0  0
 21 57  1  0  0  0  0
 22 23  2  0  0  0  0
 22 58  1  0  0  0  0
 23 59  1  0  0  0  0
 24 28  1  0  0  0  0
 24 60  1  0  0  0  0
 25 13  1  0  0  0  0
 25 61  1  0  0  0  0
 26 16  1  0  0  0  0
 26 62  1  0  0  0  0
 28 63  1  0  0  0  0
 31  4  1  0  0  0  0
 32  7  1  0  0  0  0
M  END
