2j87_ligand
 OpenBabel08222323343D

 42 43  0  0  1  0  0  0  0  0999 V2000
   -8.6000  -10.6670  -15.0020 P   0  0  2  0  0  0  0  0  0  0  0  0
   -9.7920  -10.8910  -14.1020 O   0  0  0  0  0  1  0  0  0  0  0  0
   -7.3770  -10.0670  -14.3230 O   0  0  0  0  0  0  0  0  0  0  0  0
   -9.0520   -9.7060  -16.2010 O   0  0  0  0  0  0  0  0  0  0  0  0
   -9.7550   -8.3250  -15.7660 P   0  0  1  0  0  0  0  0  0  0  0  0
   -8.7270   -7.3160  -15.2890 O   0  0  0  0  0  1  0  0  0  0  0  0
  -10.6430   -7.7640  -16.8540 O   0  0  0  0  0  0  0  0  0  0  0  0
  -10.6840   -8.7800  -14.5530 O   0  0  0  0  0  0  0  0  0  0  0  0
  -11.6690   -7.6590  -14.0300 P   0  0  0  0  0  0  0  0  0  0  0  0
  -11.0700   -6.2960  -14.2960 O   0  0  0  0  0  1  0  0  0  0  0  0
  -11.8430   -7.9270  -12.5500 O   0  0  0  0  0  1  0  0  0  0  0  0
  -12.9470   -7.7870  -14.8300 O   0  0  0  0  0  0  0  0  0  0  0  0
   -8.2510  -12.0550  -15.7030 O   0  0  0  0  0  0  0  0  0  0  0  0
   -7.1870  -12.8540  -15.2150 C   0  0  0  0  0  0  0  0  0  0  0  0
   -7.0490  -14.0650  -16.1160 C   0  0  1  0  0  0  0  0  0  0  0  0
   -6.4370  -15.1080  -15.3610 O   0  0  0  0  0  0  0  0  0  0  0  0
   -8.3950  -14.5820  -16.6350 C   0  0  1  0  0  0  0  0  0  0  0  0
   -8.5200  -14.4770  -18.0710 O   0  0  0  0  0  0  0  0  0  0  0  0
   -8.4630  -16.0380  -16.2120 C   0  0  0  0  0  0  0  0  0  0  0  0
   -7.0850  -16.3540  -15.6370 C   0  0  2  0  0  0  0  0  0  0  0  0
   -7.1990  -17.1420  -14.4130 N   0  0  0  0  0  0  0  0  0  0  0  0
   -6.3650  -18.2720  -14.1880 C   0  0  0  0  0  0  0  0  0  0  0  0
   -5.5280  -18.6110  -15.0390 O   0  0  0  0  0  0  0  0  0  0  0  0
   -6.4440  -19.0030  -13.0710 N   0  0  0  0  0  0  0  0  0  0  0  0
   -7.3380  -18.6770  -12.1310 C   0  0  0  0  0  0  0  0  0  0  0  0
   -7.4200  -19.3600  -11.0910 O   0  0  0  0  0  0  0  0  0  0  0  0
   -8.2300  -17.4950  -12.3360 C   0  0  0  0  0  0  0  0  0  0  0  0
   -9.2540  -17.0700  -11.3130 C   0  0  0  0  0  0  0  0  0  0  0  0
   -8.1030  -16.7650  -13.5060 C   0  0  0  0  0  0  0  0  0  0  0  0
   -7.4066  -13.1784  -14.1871 H   0  0  0  0  0  0  0  0  0  0  0  0
   -6.2520  -12.2747  -15.2249 H   0  0  0  0  0  0  0  0  0  0  0  0
   -6.4136  -13.8007  -16.9742 H   0  0  0  0  0  0  0  0  0  0  0  0
   -9.2126  -14.0136  -16.1677 H   0  0  0  0  0  0  0  0  0  0  0  0
   -9.3685  -14.8095  -18.3390 H   0  0  0  0  0  0  0  0  0  0  0  0
   -8.6760  -16.6816  -17.0783 H   0  0  0  0  0  0  0  0  0  0  0  0
   -9.2415  -16.1816  -15.4483 H   0  0  0  0  0  0  0  0  0  0  0  0
   -6.4994  -16.9212  -16.3755 H   0  0  0  0  0  0  0  0  0  0  0  0
   -5.8388  -19.7881  -12.9394 H   0  0  0  0  0  0  0  0  0  0  0  0
   -9.7897  -16.1812  -11.6778 H   0  0  0  0  0  0  0  0  0  0  0  0
   -8.7485  -16.8304  -10.3659 H   0  0  0  0  0  0  0  0  0  0  0  0
   -9.9705  -17.8884  -11.1495 H   0  0  0  0  0  0  0  0  0  0  0  0
   -8.7326  -15.8944  -13.6839 H   0  0  0  0  0  0  0  0  0  0  0  0
  1  2  1  1  0  0  0
  1  3  2  0  0  0  0
  1  4  1  0  0  0  0
  1 13  1  0  0  0  0
  4  5  1  0  0  0  0
  5  6  1  1  0  0  0
  5  7  2  0  0  0  0
  5  8  1  0  0  0  0
  8  9  1  0  0  0  0
  9 10  1  0  0  0  0
  9 11  1  0  0  0  0
  9 12  2  0  0  0  0
 13 14  1  0  0  0  0
 14 15  1  0  0  0  0
 14 30  1  0  0  0  0
 14 31  1  0  0  0  0
 15 16  1  0  0  0  0
 15 17  1  0  0  0  0
 15 32  1  6  0  0  0
 16 20  1  0  0  0  0
 17 18  1  0  0  0  0
 17 19  1  0  0  0  0
 17 33  1  1  0  0  0
 18 34  1  0  0  0  0
 19 20  1  0  0  0  0
 19 35  1  0  0  0  0
 19 36  1  0  0  0  0
 20 21  1  0  0  0  0
 20 37  1  6  0  0  0
 21 22  1  0  0  0  0
 21 29  1  0  0  0  0
 22 23  2  0  0  0  0
 22 24  1  0  0  0  0
 24 25  1  0  0  0  0
 24 38  1  0  0  0  0
 25 26  2  0  0  0  0
 25 27  1  0  0  0  0
 27 28  1  0  0  0  0
 27 29  2  0  0  0  0
 28 39  1  0  0  0  0
 28 40  1  0  0  0  0
 28 41  1  0  0  0  0
 29 42  1  0  0  0  0
M  END
