2jaj_ligand
 OpenBabel08222323343D

 37 36  0  0  1  0  0  0  0  0999 V2000
   15.9620    4.3160   67.6130 N   0  3  0  0  0  0  0  0  0  0  0  0
   16.2440    5.2580   66.5180 C   0  0  2  0  0  0  0  0  0  0  0  0
   15.0880    6.2120   66.1790 C   0  0  0  0  0  0  0  0  0  0  0  0
   14.0110    6.0720   66.8110 O   0  5  0  0  0  0  0  0  0  0  0  0
   16.6850    4.4490   65.2760 C   0  0  0  0  0  0  0  0  0  0  0  0
   15.6210    3.4160   64.9240 C   0  0  0  0  0  0  0  0  0  0  0  0
   16.0340    2.6290   63.6390 C   0  0  0  0  0  0  0  0  0  0  0  0
   16.2270    3.4680   62.4150 N   0  0  0  0  0  0  0  0  0  0  0  0
   15.2280    3.8010   61.5820 C   0  0  2  0  0  3  0  0  0  0  0  0
   13.9570    3.3550   61.8710 N   0  0  0  0  0  0  0  0  0  0  0  0
   15.5390    4.5330   60.4840 N   0  0  0  0  0  0  0  0  0  0  0  0
   12.7840    3.6540   61.0540 C   0  0  0  0  0  0  0  0  0  0  0  0
   13.5330    1.7500   58.0590 C   0  0  0  0  0  0  0  0  0  0  0  0
   15.3170    7.0690   65.2790 O   0  0  0  0  0  0  0  0  0  0  0  0
   13.5380    2.9150   58.9320 O   0  0  0  0  0  0  0  0  0  0  0  0
   12.5600    2.6340   59.9500 C   0  0  0  0  0  0  0  0  0  0  0  0
   16.7680    3.7311   67.7689 H   0  0  0  0  0  0  0  0  0  0  0  0
   15.1720    3.7406   67.3662 H   0  0  0  0  0  0  0  0  0  0  0  0
   15.7529    4.8310   68.4539 H   0  0  0  0  0  0  0  0  0  0  0  0
   17.0910    5.8844   66.8345 H   0  0  0  0  0  0  0  0  0  0  0  0
   17.6335    3.9359   65.4930 H   0  0  0  0  0  0  0  0  0  0  0  0
   16.8243    5.1331   64.4259 H   0  0  0  0  0  0  0  0  0  0  0  0
   14.6639    3.9275   64.7444 H   0  0  0  0  0  0  0  0  0  0  0  0
   15.5086    2.7110   65.7609 H   0  0  0  0  0  0  0  0  0  0  0  0
   15.2481    1.8898   63.4249 H   0  0  0  0  0  0  0  0  0  0  0  0
   16.9802    2.1083   63.8477 H   0  0  0  0  0  0  0  0  0  0  0  0
   17.1754    3.8077   62.2004 H   0  0  0  0  0  0  0  0  0  0  0  0
   13.8263    2.7765   62.7131 H   0  0  0  0  0  0  0  0  0  0  0  0
   16.5105    4.8362   60.3254 H   0  0  0  0  0  0  0  0  0  0  0  0
   14.8038    4.7860   59.8085 H   0  0  0  0  0  0  0  0  0  0  0  0
   12.9184    4.6447   60.5952 H   0  0  0  0  0  0  0  0  0  0  0  0
   11.8970    3.6684   61.7044 H   0  0  0  0  0  0  0  0  0  0  0  0
   14.2636    1.8952   57.2496 H   0  0  0  0  0  0  0  0  0  0  0  0
   12.5295    1.6191   57.6279 H   0  0  0  0  0  0  0  0  0  0  0  0
   13.8022    0.8554   58.6397 H   0  0  0  0  0  0  0  0  0  0  0  0
   11.5444    2.7344   59.5397 H   0  0  0  0  0  0  0  0  0  0  0  0
   12.6989    1.6148   60.3398 H   0  0  0  0  0  0  0  0  0  0  0  0
  1 17  1  0  0  0  0
  1 18  1  0  0  0  0
  1 19  1  0  0  0  0
  2  1  1  0  0  0  0
  2  3  1  0  0  0  0
  2 20  1  1  0  0  0
  3  4  1  0  0  0  0
  3 14  2  0  0  0  0
  5  2  1  0  0  0  0
  5 21  1  0  0  0  0
  5 22  1  0  0  0  0
  6  5  1  0  0  0  0
  6 23  1  0  0  0  0
  6 24  1  0  0  0  0
  7  6  1  0  0  0  0
  7 25  1  0  0  0  0
  7 26  1  0  0  0  0
  8  7  1  0  0  0  0
  8 27  1  0  0  0  0
  9  8  1  6  0  0  0
  9 11  1  0  0  0  0
 10  9  1  0  0  0  0
 10 28  1  0  0  0  0
 11 29  1  0  0  0  0
 11 30  1  0  0  0  0
 12 10  1  0  0  0  0
 12 31  1  0  0  0  0
 12 32  1  0  0  0  0
 13 33  1  0  0  0  0
 13 34  1  0  0  0  0
 13 35  1  0  0  0  0
 15 13  1  0  0  0  0
 15 16  1  0  0  0  0
 16 12  1  0  0  0  0
 16 36  1  0  0  0  0
 16 37  1  0  0  0  0
M  CHG  2   1   1   4  -1
M  END
