2jal_ligand
 OpenBabel08222323343D

 26 26  0  0  1  0  0  0  0  0999 V2000
   -1.3520    9.2260   10.5300 O   0  0  0  0  0  0  0  0  0  0  0  0
   -2.0250   10.4670   10.2590 C   0  0  2  0  0  0  0  0  0  0  0  0
   -2.4890   10.5100    8.7790 C   0  0  2  0  0  0  0  0  0  0  0  0
   -3.4260    9.3820    8.3660 C   0  0  0  0  0  0  0  0  0  0  0  0
   -2.8050    8.1110    8.5620 O   0  0  0  0  0  0  0  0  0  0  0  0
   -1.2460   10.6240    7.8600 C   0  0  1  0  0  0  0  0  0  0  0  0
   -1.6070   10.7580    6.4860 O   0  0  0  0  0  0  0  0  0  0  0  0
   -0.4860   11.8970    8.2990 C   0  0  2  0  0  0  0  0  0  0  0  0
    0.6820   12.1540    7.5180 O   0  0  0  0  0  0  0  0  0  0  0  0
    0.0140   11.8530    9.7370 C   0  0  1  0  0  0  0  0  0  0  0  0
    0.6110   13.1090   10.0230 O   0  0  0  0  0  0  0  0  0  0  0  0
   -1.1110   11.6290   10.6990 C   0  0  0  0  0  0  0  0  0  0  0  0
   -1.0725    9.2103   11.4379 H   0  0  0  0  0  0  0  0  0  0  0  0
   -2.9313   10.5115   10.8808 H   0  0  0  0  0  0  0  0  0  0  0  0
   -3.0651   11.4392    8.6577 H   0  0  0  0  0  0  0  0  0  0  0  0
   -3.6834    9.4977    7.3028 H   0  0  0  0  0  0  0  0  0  0  0  0
   -4.3421    9.4334    8.9728 H   0  0  0  0  0  0  0  0  0  0  0  0
   -2.0147    8.0616    8.0370 H   0  0  0  0  0  0  0  0  0  0  0  0
   -0.6096    9.7354    7.9842 H   0  0  0  0  0  0  0  0  0  0  0  0
   -2.1075    9.9972    6.2156 H   0  0  0  0  0  0  0  0  0  0  0  0
   -1.1809   12.7428    8.1911 H   0  0  0  0  0  0  0  0  0  0  0  0
    0.4344   12.2670    6.6079 H   0  0  0  0  0  0  0  0  0  0  0  0
    0.7546   11.0471    9.8461 H   0  0  0  0  0  0  0  0  0  0  0  0
    1.3339   13.2582    9.4251 H   0  0  0  0  0  0  0  0  0  0  0  0
   -0.6909   11.3953   11.6884 H   0  0  0  0  0  0  0  0  0  0  0  0
   -1.7115   12.5484   10.7634 H   0  0  0  0  0  0  0  0  0  0  0  0
  1  2  1  0  0  0  0
  1 13  1  0  0  0  0
  2  3  1  0  0  0  0
  2 12  1  0  0  0  0
  2 14  1  1  0  0  0
  3  4  1  0  0  0  0
  3  6  1  0  0  0  0
  3 15  1  6  0  0  0
  4  5  1  0  0  0  0
  4 16  1  0  0  0  0
  4 17  1  0  0  0  0
  5 18  1  0  0  0  0
  6  7  1  0  0  0  0
  6  8  1  0  0  0  0
  6 19  1  1  0  0  0
  7 20  1  0  0  0  0
  8  9  1  0  0  0  0
  8 10  1  0  0  0  0
  8 21  1  6  0  0  0
  9 22  1  0  0  0  0
 10 11  1  0  0  0  0
 10 12  1  0  0  0  0
 10 23  1  1  0  0  0
 11 24  1  0  0  0  0
 12 25  1  0  0  0  0
 12 26  1  0  0  0  0
M  END
