2jb5_ligand
 OpenBabel08222323343D

 55 56  0  0  0  0  0  0  0  0999 V2000
   20.3810   10.1310   35.3680 O   0  0  0  0  0  1  0  0  0  0  0  0
   20.6020    8.5300   35.7960 S   0  0  0  0  0  0  0  0  0  0  0  0
   19.7350    8.1740   37.2010 O   0  0  0  0  0  1  0  0  0  0  0  0
   20.0870    7.5200   34.5470 O   0  0  0  0  0  1  0  0  0  0  0  0
   22.3410    8.2720   36.1250 C   0  0  0  0  0  0  0  0  0  0  0  0
   23.0560    7.5130   35.0270 C   0  0  0  0  0  0  0  0  0  0  0  0
   24.2270    6.8060   35.5840 N   0  0  0  0  0  0  0  0  0  0  0  0
   25.4410    7.4420   35.9490 C   0  0  0  0  0  0  0  0  0  0  0  0
   25.7770    8.8320   35.8470 C   0  0  0  0  0  0  0  0  0  0  0  0
   27.0480    9.2750   36.2890 C   0  0  0  0  0  0  0  0  0  0  0  0
   27.9710    8.3270   36.8230 C   0  0  0  0  0  0  0  0  0  0  0  0
   29.5050    8.8560   37.3890 S   0  0  0  0  0  0  0  0  0  0  0  0
   29.6640   10.5310   37.3280 O   0  0  0  0  0  1  0  0  0  0  0  0
   30.7370    8.1360   36.4930 O   0  0  0  0  0  1  0  0  0  0  0  0
   29.7040    8.3130   38.9740 O   0  0  0  0  0  1  0  0  0  0  0  0
   27.6380    6.9460   36.9130 C   0  0  0  0  0  0  0  0  0  0  0  0
   26.3650    6.4930   36.4710 C   0  0  0  0  0  0  0  0  0  0  0  0
   25.7730    5.0910   36.4690 C   0  0  0  0  0  0  0  0  0  0  0  0
   25.7480    4.5900   37.9370 C   0  0  0  0  0  0  0  0  0  0  0  0
   26.6570    4.2500   35.5070 C   0  0  0  0  0  0  0  0  0  0  0  0
   24.3730    5.3930   35.8790 C   0  0  0  0  0  0  0  0  0  0  0  0
   23.3190    4.4740   35.6430 C   0  0  0  0  0  0  0  0  0  0  0  0
   23.3520    2.9810   35.9340 C   0  0  0  0  0  0  0  0  0  0  0  0
   22.2110    2.1300   35.6630 C   0  0  0  0  0  0  0  0  0  0  0  0
   22.2470    0.7020   35.9540 C   0  0  0  0  0  0  0  0  0  0  0  0
   23.4760    0.0110   36.5590 C   0  0  0  0  0  0  0  0  0  0  0  0
   21.0350   -0.0210   35.6300 C   0  0  0  0  0  0  0  0  0  0  0  0
   20.8990   -1.4480   35.8560 C   0  0  0  0  0  0  0  0  0  0  0  0
   19.6690   -2.1030   35.5100 C   0  0  0  0  0  0  0  0  0  0  0  0
   19.4410   -3.5110   35.6950 C   0  0  0  0  0  0  0  0  0  0  0  0
   22.4378    7.7033   37.0616 H   0  0  0  0  0  0  0  0  0  0  0  0
   22.8232    9.2539   36.2407 H   0  0  0  0  0  0  0  0  0  0  0  0
   23.3909    8.2199   34.2536 H   0  0  0  0  0  0  0  0  0  0  0  0
   22.3665    6.7811   34.5811 H   0  0  0  0  0  0  0  0  0  0  0  0
   25.0647    9.5379   35.4353 H   0  0  0  0  0  0  0  0  0  0  0  0
   27.3164   10.3231   36.2222 H   0  0  0  0  0  0  0  0  0  0  0  0
   28.3543    6.2404   37.3181 H   0  0  0  0  0  0  0  0  0  0  0  0
   26.7767    4.4001   38.2771 H   0  0  0  0  0  0  0  0  0  0  0  0
   25.1643    3.6596   37.9970 H   0  0  0  0  0  0  0  0  0  0  0  0
   25.2854    5.3551   38.5777 H   0  0  0  0  0  0  0  0  0  0  0  0
   26.6107    4.6806   34.4959 H   0  0  0  0  0  0  0  0  0  0  0  0
   26.2882    3.2140   35.4815 H   0  0  0  0  0  0  0  0  0  0  0  0
   27.6979    4.2600   35.8625 H   0  0  0  0  0  0  0  0  0  0  0  0
   22.4014    4.8738   35.2139 H   0  0  0  0  0  0  0  0  0  0  0  0
   24.2546    2.5415   36.3560 H   0  0  0  0  0  0  0  0  0  0  0  0
   21.3097    2.5653   35.2339 H   0  0  0  0  0  0  0  0  0  0  0  0
   23.2676   -1.0614   36.6873 H   0  0  0  0  0  0  0  0  0  0  0  0
   23.7046    0.4596   37.5370 H   0  0  0  0  0  0  0  0  0  0  0  0
   24.3369    0.1392   35.8865 H   0  0  0  0  0  0  0  0  0  0  0  0
   20.1960    0.5253   35.2016 H   0  0  0  0  0  0  0  0  0  0  0  0
   21.7227   -2.0172   36.2843 H   0  0  0  0  0  0  0  0  0  0  0  0
   18.8664   -1.5020   35.0851 H   0  0  0  0  0  0  0  0  0  0  0  0
   18.4266   -3.7660   35.3544 H   0  0  0  0  0  0  0  0  0  0  0  0
   19.5438   -3.7622   36.7610 H   0  0  0  0  0  0  0  0  0  0  0  0
   20.1781   -4.0817   35.1110 H   0  0  0  0  0  0  0  0  0  0  0  0
  1  2  1  0  0  0  0
  2  3  1  0  0  0  0
  2  4  1  0  0  0  0
  2  5  1  0  0  0  0
  5  6  1  0  0  0  0
  5 31  1  0  0  0  0
  5 32  1  0  0  0  0
  6  7  1  0  0  0  0
  6 33  1  0  0  0  0
  6 34  1  0  0  0  0
  7  8  1  0  0  0  0
  7 21  1  0  0  0  0
  8  9  2  0  0  0  0
  8 17  1  0  0  0  0
  9 10  1  0  0  0  0
  9 35  1  0  0  0  0
 10 11  2  0  0  0  0
 10 36  1  0  0  0  0
 11 12  1  0  0  0  0
 11 16  1  0  0  0  0
 12 13  1  0  0  0  0
 12 14  1  0  0  0  0
 12 15  1  0  0  0  0
 16 17  2  0  0  0  0
 16 37  1  0  0  0  0
 17 18  1  0  0  0  0
 18 19  1  0  0  0  0
 18 20  1  0  0  0  0
 18 21  1  0  0  0  0
 19 38  1  0  0  0  0
 19 39  1  0  0  0  0
 19 40  1  0  0  0  0
 20 41  1  0  0  0  0
 20 42  1  0  0  0  0
 20 43  1  0  0  0  0
 21 22  2  0  0  0  0
 22 23  1  0  0  0  0
 22 44  1  0  0  0  0
 23 24  2  0  0  0  0
 23 45  1  0  0  0  0
 24 25  1  0  0  0  0
 24 46  1  0  0  0  0
 25 26  1  0  0  0  0
 25 27  2  0  0  0  0
 26 47  1  0  0  0  0
 26 48  1  0  0  0  0
 26 49  1  0  0  0  0
 27 28  1  0  0  0  0
 27 50  1  0  0  0  0
 28 29  2  0  0  0  0
 28 51  1  0  0  0  0
 29 30  1  0  0  0  0
 29 52  1  0  0  0  0
 30 53  1  0  0  0  0
 30 54  1  0  0  0  0
 30 55  1  0  0  0  0
M  END
