2jbk_ligand
 OpenBabel08222323343D

 20 20  0  0  1  0  0  0  0  0999 V2000
   17.0760   44.6590   41.0060 C   0  0  0  0  0  0  0  0  0  0  0  0
   16.0110   44.6090   42.0580 C   0  0  2  0  0  0  0  0  0  0  0  0
   14.6370   45.1680   41.6950 C   0  0  0  0  0  0  0  0  0  0  0  0
   13.7490   46.8120   40.0210 C   0  0  0  0  0  0  0  0  0  0  0  0
   14.3880   48.6370   41.0480 C   0  0  0  0  0  0  0  0  0  0  0  0
   16.4780   45.3590   43.2350 N   0  3  0  0  0  0  0  0  0  0  0  0
   14.6770   46.4200   40.9440 N   0  0  0  0  0  0  0  0  0  0  0  0
   13.6170   48.1190   40.0910 N   0  0  0  0  0  0  0  0  0  0  0  0
   17.0400   43.8150   40.0890 O   0  5  0  0  0  0  0  0  0  0  0  0
   17.9560   45.5410   41.1380 O   0  0  0  0  0  0  0  0  0  0  0  0
   13.2360   46.0400   39.2840 O   0  0  0  0  0  0  0  0  0  0  0  0
   14.5360   49.8000   41.3920 O   0  0  0  0  0  0  0  0  0  0  0  0
   15.0550   47.6160   41.6480 O   0  0  0  0  0  0  0  0  0  0  0  0
   15.8756   43.5522   42.3316 H   0  0  0  0  0  0  0  0  0  0  0  0
   14.0790   45.3428   42.6267 H   0  0  0  0  0  0  0  0  0  0  0  0
   14.1097   44.4182   41.0869 H   0  0  0  0  0  0  0  0  0  0  0  0
   17.3867   45.0206   43.5102 H   0  0  0  0  0  0  0  0  0  0  0  0
   15.8278   45.2312   43.9946 H   0  0  0  0  0  0  0  0  0  0  0  0
   16.5394   46.3388   43.0064 H   0  0  0  0  0  0  0  0  0  0  0  0
   13.0145   48.6564   39.5010 H   0  0  0  0  0  0  0  0  0  0  0  0
  1  2  1  0  0  0  0
  1  9  1  0  0  0  0
  1 10  2  0  0  0  0
  2  3  1  0  0  0  0
  2  6  1  0  0  0  0
  2 14  1  1  0  0  0
  3  7  1  0  0  0  0
  3 15  1  0  0  0  0
  3 16  1  0  0  0  0
  4  8  1  0  0  0  0
  4 11  2  0  0  0  0
  5 12  2  0  0  0  0
  5 13  1  0  0  0  0
  6 17  1  0  0  0  0
  6 18  1  0  0  0  0
  6 19  1  0  0  0  0
  7  4  1  0  0  0  0
  7 13  1  0  0  0  0
  8  5  1  0  0  0  0
  8 20  1  0  0  0  0
M  CHG  2   6   1   9  -1
M  END
