2jbl_ligand
 OpenBabel08222323343D

 79 80  0  0  1  0  0  0  0  0999 V2000
  131.6690   69.7090   -2.3760 C   0  0  0  0  0  0  0  0  0  0  0  0
  131.4370   70.4200   -1.2070 C   0  0  0  0  0  0  0  0  0  0  0  0
  130.8740   69.7730    0.0140 C   0  0  0  0  0  0  0  0  0  0  0  0
  131.7600   71.8900   -1.1340 C   0  0  0  0  0  0  0  0  0  0  0  0
  132.3290   72.4980   -2.3900 C   0  0  0  0  0  0  0  0  0  0  0  0
  132.7070   73.8980   -2.5180 C   0  0  0  0  0  0  0  0  0  0  0  0
  132.8730   76.0750   -1.4470 C   0  0  0  0  0  0  0  0  0  0  0  0
  133.2420   74.4020   -3.7440 C   0  0  0  0  0  0  0  0  0  0  0  0
  133.4160   73.5410   -4.8610 C   0  0  0  0  0  0  0  0  0  0  0  0
  134.3260   75.2930   -6.3270 C   0  0  0  0  0  0  0  0  0  0  0  0
  133.0600   72.1600   -4.7790 C   0  0  0  0  0  0  0  0  0  0  0  0
  132.5190   71.6540   -3.5400 C   0  0  0  0  0  0  0  0  0  0  0  0
  131.4250   68.2370   -2.6190 C   0  0  0  0  0  0  0  0  0  0  0  0
  131.0770   67.9410   -4.0740 C   0  0  0  0  0  0  0  0  0  0  0  0
  130.8830   66.4500   -4.3470 C   0  0  1  0  0  0  0  0  0  0  0  0
  129.7320   65.7570   -3.5470 C   0  0  1  0  0  0  0  0  0  0  0  0
  128.3080   65.6660   -4.1860 C   0  0  1  0  0  0  0  0  0  0  0  0
  127.3840   64.8820   -3.2000 C   0  0  2  0  0  0  0  0  0  0  0  0
  126.0940   64.4880   -3.9060 C   0  0  0  0  0  0  0  0  0  0  0  0
  124.8210   64.7650   -3.5510 C   0  0  0  0  0  0  0  0  0  0  0  0
  123.7140   64.2990   -4.3760 C   0  0  0  0  0  0  0  0  0  0  0  0
  122.3990   64.5340   -4.1010 C   0  0  0  0  0  0  0  0  0  0  0  0
  121.2500   64.0940   -4.9210 C   0  0  0  0  0  0  0  0  0  0  0  0
  119.9890   64.4150   -4.5090 C   0  0  0  0  0  0  0  0  0  0  0  0
  118.7090   64.0600   -5.2110 C   0  0  0  0  0  0  0  0  0  0  0  0
  130.7590   66.2170   -5.8610 C   0  0  0  0  0  0  0  0  0  0  0  0
  130.7810   64.1210   -2.1310 C   0  0  0  0  0  0  0  0  0  0  0  0
  127.7070   67.0470   -4.4520 C   0  0  0  0  0  0  0  0  0  0  0  0
  127.3010   64.8830   -0.8080 C   0  0  0  0  0  0  0  0  0  0  0  0
  121.5260   63.3150   -6.1800 C   0  0  0  0  0  0  0  0  0  0  0  0
  132.2010   70.2930   -3.5420 O   0  0  0  0  0  0  0  0  0  0  0  0
  131.5680   72.5460   -0.0970 O   0  0  0  0  0  0  0  0  0  0  0  0
  132.5150   74.6850   -1.3900 O   0  0  0  0  0  0  0  0  0  0  0  0
  133.9300   73.9190   -6.1120 O   0  0  0  0  0  0  0  0  0  0  0  0
  133.2070   71.2720   -5.8310 O   0  0  0  0  0  0  0  0  0  0  0  0
  130.1340   64.3790   -3.3750 O   0  0  0  0  0  0  0  0  0  0  0  0
  127.1810   65.6640   -2.0010 O   0  0  0  0  0  0  0  0  0  0  0  0
  130.6898   68.7074   -0.1875 H   0  0  0  0  0  0  0  0  0  0  0  0
  129.9278   70.2637    0.2858 H   0  0  0  0  0  0  0  0  0  0  0  0
  131.5894   69.8708    0.8438 H   0  0  0  0  0  0  0  0  0  0  0  0
  132.6587   76.5488   -0.4777 H   0  0  0  0  0  0  0  0  0  0  0  0
  132.2887   76.5721   -2.2353 H   0  0  0  0  0  0  0  0  0  0  0  0
  133.9458   76.1685   -1.6716 H   0  0  0  0  0  0  0  0  0  0  0  0
  133.5167   75.4477   -3.8221 H   0  0  0  0  0  0  0  0  0  0  0  0
  134.7024   75.4097   -7.3540 H   0  0  0  0  0  0  0  0  0  0  0  0
  135.1185   75.5622   -5.6132 H   0  0  0  0  0  0  0  0  0  0  0  0
  133.4583   75.9524   -6.1775 H   0  0  0  0  0  0  0  0  0  0  0  0
  130.5916   67.9065   -1.9816 H   0  0  0  0  0  0  0  0  0  0  0  0
  132.3345   67.6788   -2.3522 H   0  0  0  0  0  0  0  0  0  0  0  0
  131.8925   68.3116   -4.7124 H   0  0  0  0  0  0  0  0  0  0  0  0
  130.1452   68.4682   -4.3264 H   0  0  0  0  0  0  0  0  0  0  0  0
  131.8104   65.9555   -4.0222 H   0  0  0  0  0  0  0  0  0  0  0  0
  129.6421   66.2648   -2.5754 H   0  0  0  0  0  0  0  0  0  0  0  0
  128.3770   65.1207   -5.1388 H   0  0  0  0  0  0  0  0  0  0  0  0
  127.8975   63.9542   -2.9075 H   0  0  0  0  0  0  0  0  0  0  0  0
  126.2138   63.9055   -4.8183 H   0  0  0  0  0  0  0  0  0  0  0  0
  124.6213   65.3377   -2.6465 H   0  0  0  0  0  0  0  0  0  0  0  0
  123.9522   63.7256   -5.2706 H   0  0  0  0  0  0  0  0  0  0  0  0
  122.1751   65.0965   -3.1958 H   0  0  0  0  0  0  0  0  0  0  0  0
  119.9025   64.9823   -3.5835 H   0  0  0  0  0  0  0  0  0  0  0  0
  117.8559   64.4549   -4.6398 H   0  0  0  0  0  0  0  0  0  0  0  0
  118.6240   62.9660   -5.2876 H   0  0  0  0  0  0  0  0  0  0  0  0
  118.7099   64.4992   -6.2195 H   0  0  0  0  0  0  0  0  0  0  0  0
  131.5879   66.7218   -6.3787 H   0  0  0  0  0  0  0  0  0  0  0  0
  129.8015   66.6246   -6.2175 H   0  0  0  0  0  0  0  0  0  0  0  0
  130.7989   65.1379   -6.0704 H   0  0  0  0  0  0  0  0  0  0  0  0
  131.0555   63.0573   -2.0742 H   0  0  0  0  0  0  0  0  0  0  0  0
  130.0985   64.3682   -1.3045 H   0  0  0  0  0  0  0  0  0  0  0  0
  131.6882   64.7383   -2.0545 H   0  0  0  0  0  0  0  0  0  0  0  0
  128.3556   67.6016   -5.1461 H   0  0  0  0  0  0  0  0  0  0  0  0
  127.6259   67.6003   -3.5047 H   0  0  0  0  0  0  0  0  0  0  0  0
  126.7074   66.9325   -4.8965 H   0  0  0  0  0  0  0  0  0  0  0  0
  127.1378   65.5262    0.0693 H   0  0  0  0  0  0  0  0  0  0  0  0
  128.3078   64.4428   -0.7576 H   0  0  0  0  0  0  0  0  0  0  0  0
  126.5496   64.0797   -0.8185 H   0  0  0  0  0  0  0  0  0  0  0  0
  122.6115   63.1820   -6.2983 H   0  0  0  0  0  0  0  0  0  0  0  0
  121.1274   63.8641   -7.0458 H   0  0  0  0  0  0  0  0  0  0  0  0
  121.0408   62.3299   -6.1155 H   0  0  0  0  0  0  0  0  0  0  0  0
  133.5701   71.7285   -6.5809 H   0  0  0  0  0  0  0  0  0  0  0  0
  1  2  2  0  0  0  0
  1 13  1  0  0  0  0
  1 31  1  0  0  0  0
  2  3  1  0  0  0  0
  2  4  1  0  0  0  0
  3 38  1  0  0  0  0
  3 39  1  0  0  0  0
  3 40  1  0  0  0  0
  4  5  1  0  0  0  0
  4 32  2  0  0  0  0
  5  6  2  0  0  0  0
  5 12  1  0  0  0  0
  6  8  1  0  0  0  0
  6 33  1  0  0  0  0
  7 41  1  0  0  0  0
  7 42  1  0  0  0  0
  7 43  1  0  0  0  0
  8  9  2  0  0  0  0
  8 44  1  0  0  0  0
  9 11  1  0  0  0  0
  9 34  1  0  0  0  0
 10 45  1  0  0  0  0
 10 46  1  0  0  0  0
 10 47  1  0  0  0  0
 11 12  2  0  0  0  0
 11 35  1  0  0  0  0
 12 31  1  0  0  0  0
 13 14  1  0  0  0  0
 13 48  1  0  0  0  0
 13 49  1  0  0  0  0
 14 15  1  0  0  0  0
 14 50  1  0  0  0  0
 14 51  1  0  0  0  0
 15 16  1  0  0  0  0
 15 26  1  0  0  0  0
 15 52  1  1  0  0  0
 16 17  1  0  0  0  0
 16 36  1  0  0  0  0
 16 53  1  1  0  0  0
 17 18  1  0  0  0  0
 17 28  1  0  0  0  0
 17 54  1  6  0  0  0
 18 19  1  0  0  0  0
 18 37  1  0  0  0  0
 18 55  1  1  0  0  0
 19 20  2  0  0  0  0
 19 56  1  0  0  0  0
 20 21  1  0  0  0  0
 20 57  1  0  0  0  0
 21 22  2  0  0  0  0
 21 58  1  0  0  0  0
 22 23  1  0  0  0  0
 22 59  1  0  0  0  0
 23 24  2  0  0  0  0
 23 30  1  0  0  0  0
 24 25  1  0  0  0  0
 24 60  1  0  0  0  0
 25 61  1  0  0  0  0
 25 62  1  0  0  0  0
 25 63  1  0  0  0  0
 26 64  1  0  0  0  0
 26 65  1  0  0  0  0
 26 66  1  0  0  0  0
 27 67  1  0  0  0  0
 27 68  1  0  0  0  0
 27 69  1  0  0  0  0
 28 70  1  0  0  0  0
 28 71  1  0  0  0  0
 28 72  1  0  0  0  0
 29 73  1  0  0  0  0
 29 74  1  0  0  0  0
 29 75  1  0  0  0  0
 30 76  1  0  0  0  0
 30 77  1  0  0  0  0
 30 78  1  0  0  0  0
 33  7  1  0  0  0  0
 34 10  1  0  0  0  0
 35 79  1  0  0  0  0
 36 27  1  0  0  0  0
 37 29  1  0  0  0  0
M  END
