2jbo_ligand
 OpenBabel08222323343D

 42 46  0  0  0  0  0  0  0  0999 V2000
  238.7100   82.5570  184.3310 C   0  0  0  0  0  0  0  0  0  0  0  0
  240.0870   82.5030  184.4560 C   0  0  0  0  0  0  0  0  0  0  0  0
  240.6770   81.6990  185.4610 C   0  0  0  0  0  0  0  0  0  0  0  0
  242.0680   81.6300  185.5780 C   0  0  0  0  0  0  0  0  0  0  0  0
  242.8590   82.3760  184.6830 C   0  0  0  0  0  0  0  0  0  0  0  0
  242.2770   83.1840  183.6910 C   0  0  0  0  0  0  0  0  0  0  0  0
  240.8790   83.2520  183.5760 C   0  0  0  0  0  0  0  0  0  0  0  0
  240.3050   84.0120  182.6250 N   0  0  0  0  0  0  0  0  0  0  0  0
  238.9860   84.0740  182.5080 C   0  0  0  0  0  0  0  0  0  0  0  0
  238.1380   83.3530  183.3540 C   0  0  0  0  0  0  0  0  0  0  0  0
  236.7370   83.4480  183.2370 C   0  0  0  0  0  0  0  0  0  0  0  0
  235.9010   82.4200  183.6750 C   0  0  0  0  0  0  0  0  0  0  0  0
  236.2050   84.5760  182.7390 N   0  0  0  0  0  0  0  0  0  0  0  0
  234.9080   84.7320  182.6130 C   0  0  0  0  0  0  0  0  0  0  0  0
  234.0300   83.7360  183.0090 C   0  0  0  0  0  0  0  0  0  0  0  0
  234.5300   82.5580  183.5370 C   0  0  0  0  0  0  0  0  0  0  0  0
  233.6580   81.5490  183.9320 C   0  0  0  0  0  0  0  0  0  0  0  0
  232.3460   81.5060  183.6830 C   0  0  0  0  0  0  0  0  0  0  0  0
  231.8450   80.4050  184.2380 C   0  0  0  0  0  0  0  0  0  0  0  0
  230.5730   79.8520  184.3170 C   0  0  0  0  0  0  0  0  0  0  0  0
  229.5960   80.5450  184.0770 O   0  0  0  0  0  0  0  0  0  0  0  0
  230.4150   78.5170  184.7020 N   0  0  0  0  0  0  0  0  0  0  0  0
  231.6120   77.6180  185.0130 C   0  0  0  0  0  0  0  0  0  0  0  0
  232.7830   78.4170  185.5990 C   0  0  0  0  0  0  0  0  0  0  0  0
  232.8980   79.7480  184.8610 C   0  0  0  0  0  0  0  0  0  0  0  0
  233.9970   80.4660  184.6400 N   0  0  0  0  0  0  0  0  0  0  0  0
  238.0808   81.9773  184.9967 H   0  0  0  0  0  0  0  0  0  0  0  0
  240.0485   81.1357  186.1412 H   0  0  0  0  0  0  0  0  0  0  0  0
  242.5287   81.0146  186.3423 H   0  0  0  0  0  0  0  0  0  0  0  0
  243.9391   82.3261  184.7607 H   0  0  0  0  0  0  0  0  0  0  0  0
  242.9059   83.7534  183.0162 H   0  0  0  0  0  0  0  0  0  0  0  0
  238.5535   84.7002  181.7361 H   0  0  0  0  0  0  0  0  0  0  0  0
  236.3200   81.5238  184.1181 H   0  0  0  0  0  0  0  0  0  0  0  0
  234.5184   85.6525  182.1935 H   0  0  0  0  0  0  0  0  0  0  0  0
  232.9603   83.8780  182.9062 H   0  0  0  0  0  0  0  0  0  0  0  0
  231.7812   82.2477  183.1202 H   0  0  0  0  0  0  0  0  0  0  0  0
  229.4921   78.1392  184.7761 H   0  0  0  0  0  0  0  0  0  0  0  0
  231.9425   77.1301  184.0842 H   0  0  0  0  0  0  0  0  0  0  0  0
  231.3036   76.8522  185.7399 H   0  0  0  0  0  0  0  0  0  0  0  0
  233.7157   77.8466  185.4774 H   0  0  0  0  0  0  0  0  0  0  0  0
  232.6037   78.6030  186.6682 H   0  0  0  0  0  0  0  0  0  0  0  0
  234.9467   80.2281  184.9598 H   0  0  0  0  0  0  0  0  0  0  0  0
  1  2  2  0  0  0  0
  1 10  1  0  0  0  0
  1 27  1  0  0  0  0
  2  3  1  0  0  0  0
  2  7  1  0  0  0  0
  3  4  2  0  0  0  0
  3 28  1  0  0  0  0
  4  5  1  0  0  0  0
  4 29  1  0  0  0  0
  5  6  2  0  0  0  0
  5 30  1  0  0  0  0
  6  7  1  0  0  0  0
  6 31  1  0  0  0  0
  7  8  2  0  0  0  0
  8  9  1  0  0  0  0
  9 10  2  0  0  0  0
  9 32  1  0  0  0  0
 10 11  1  0  0  0  0
 11 12  2  0  0  0  0
 11 13  1  0  0  0  0
 12 16  1  0  0  0  0
 12 33  1  0  0  0  0
 13 14  2  0  0  0  0
 14 15  1  0  0  0  0
 14 34  1  0  0  0  0
 15 16  2  0  0  0  0
 15 35  1  0  0  0  0
 16 17  1  0  0  0  0
 17 18  2  0  0  0  0
 17 26  1  0  0  0  0
 18 19  1  0  0  0  0
 18 36  1  0  0  0  0
 19 20  1  0  0  0  0
 19 25  2  0  0  0  0
 20 21  2  0  0  0  0
 20 22  1  0  0  0  0
 22 23  1  0  0  0  0
 22 37  1  0  0  0  0
 23 24  1  0  0  0  0
 23 38  1  0  0  0  0
 23 39  1  0  0  0  0
 24 25  1  0  0  0  0
 24 40  1  0  0  0  0
 24 41  1  0  0  0  0
 25 26  1  0  0  0  0
 26 42  1  0  0  0  0
M  END
