2jbu_ligand
 OpenBabel08222323343D

 74 73  0  0  1  0  0  0  0  0999 V2000
 -108.0050   43.9870    5.7020 N   0  3  0  0  0  0  0  0  0  0  0  0
 -106.7880   43.4470    5.0830 C   0  0  2  0  0  0  0  0  0  0  0  0
 -107.0530   41.9860    4.6640 C   0  0  0  0  0  0  0  0  0  0  0  0
 -106.9760   41.0580    5.4790 O   0  0  0  0  0  0  0  0  0  0  0  0
 -105.5720   43.5520    6.0820 C   0  0  0  0  0  0  0  0  0  0  0  0
 -107.3740   41.7960    3.3830 N   0  0  0  0  0  0  0  0  0  0  0  0
 -107.6980   40.4720    2.8400 C   0  0  2  0  0  0  0  0  0  0  0  0
 -106.5910   39.8360    2.0010 C   0  0  0  0  0  0  0  0  0  0  0  0
 -106.0390   40.4710    1.1030 O   0  0  0  0  0  0  0  0  0  0  0  0
 -108.9830   40.5620    2.0100 C   0  0  0  0  0  0  0  0  0  0  0  0
 -106.2860   38.5740    2.2950 N   0  0  0  0  0  0  0  0  0  0  0  0
 -105.2550   37.8240    1.5800 C   0  0  2  0  0  0  0  0  0  0  0  0
 -105.7770   37.4170    0.1690 C   0  0  0  0  0  0  0  0  0  0  0  0
 -106.8180   36.7610    0.0580 O   0  0  0  0  0  0  0  0  0  0  0  0
 -104.8410   36.5810    2.4360 C   0  0  0  0  0  0  0  0  0  0  0  0
 -105.0630   37.8240   -0.8950 N   0  0  0  0  0  0  0  0  0  0  0  0
 -105.4590   37.5350   -2.2940 C   0  0  2  0  0  0  0  0  0  0  0  0
 -104.7300   36.3490   -2.9670 C   0  0  0  0  0  0  0  0  0  0  0  0
 -103.8670   35.7060   -2.3540 O   0  0  0  0  0  0  0  0  0  0  0  0
 -105.3090   38.8220   -3.1730 C   0  0  0  0  0  0  0  0  0  0  0  0
 -105.0880   36.0650   -4.2270 N   0  0  0  0  0  0  0  0  0  0  0  0
 -104.4990   34.9500   -4.9960 C   0  0  2  0  0  0  0  0  0  0  0  0
 -103.2200   35.3170   -5.7470 C   0  0  0  0  0  0  0  0  0  0  0  0
 -102.1570   34.7530   -5.4900 O   0  0  0  0  0  0  0  0  0  0  0  0
 -105.5290   34.3710   -5.9960 C   0  0  0  0  0  0  0  0  0  0  0  0
 -103.3340   36.2430   -6.6940 N   0  0  0  0  0  0  0  0  0  0  0  0
 -102.1870   36.6850   -7.4820 C   0  0  2  0  0  0  0  0  0  0  0  0
 -101.7750   38.0880   -7.0340 C   0  0  0  0  0  0  0  0  0  0  0  0
 -102.6250   38.9480   -6.7690 O   0  0  0  0  0  0  0  0  0  0  0  0
 -102.5340   36.6820   -8.9940 C   0  0  0  0  0  0  0  0  0  0  0  0
 -100.4640   38.2980   -6.9370 N   0  0  0  0  0  0  0  0  0  0  0  0
  -99.8940   39.5850   -6.5460 C   0  0  2  0  0  0  0  0  0  0  0  0
 -100.6400   40.7220   -7.2410 C   0  0  0  0  0  0  0  0  0  0  0  0
 -100.2530   41.0530   -8.3810 O   0  0  0  0  0  0  0  0  0  0  0  0
  -98.4130   39.6250   -6.9160 C   0  0  0  0  0  0  0  0  0  0  0  0
 -101.6120   41.2450   -6.6550 O   0  0  0  0  0  0  0  0  0  0  0  0
 -107.8447   44.9424    5.9806 H   0  0  0  0  0  0  0  0  0  0  0  0
 -108.2428   43.4362    6.5120 H   0  0  0  0  0  0  0  0  0  0  0  0
 -108.7629   43.9532    5.0384 H   0  0  0  0  0  0  0  0  0  0  0  0
 -106.5517   44.0355    4.1842 H   0  0  0  0  0  0  0  0  0  0  0  0
 -104.6689   43.1440    5.6045 H   0  0  0  0  0  0  0  0  0  0  0  0
 -105.7957   42.9784    6.9935 H   0  0  0  0  0  0  0  0  0  0  0  0
 -105.4032   44.6068    6.3446 H   0  0  0  0  0  0  0  0  0  0  0  0
 -107.3945   42.5857    2.7699 H   0  0  0  0  0  0  0  0  0  0  0  0
 -107.8841   39.8048    3.6945 H   0  0  0  0  0  0  0  0  0  0  0  0
 -109.2265   39.5697    1.6026 H   0  0  0  0  0  0  0  0  0  0  0  0
 -108.8363   41.2720    1.1828 H   0  0  0  0  0  0  0  0  0  0  0  0
 -109.8086   40.9088    2.6488 H   0  0  0  0  0  0  0  0  0  0  0  0
 -106.7825   38.1206    3.0352 H   0  0  0  0  0  0  0  0  0  0  0  0
 -104.3721   38.4670    1.4495 H   0  0  0  0  0  0  0  0  0  0  0  0
 -104.0649   36.0114    1.9038 H   0  0  0  0  0  0  0  0  0  0  0  0
 -105.7194   35.9394    2.5995 H   0  0  0  0  0  0  0  0  0  0  0  0
 -104.4477   36.9185    3.4062 H   0  0  0  0  0  0  0  0  0  0  0  0
 -104.2253   38.3463   -0.7351 H   0  0  0  0  0  0  0  0  0  0  0  0
 -106.5267   37.2717   -2.2681 H   0  0  0  0  0  0  0  0  0  0  0  0
 -105.6053   38.5958   -4.2079 H   0  0  0  0  0  0  0  0  0  0  0  0
 -104.2615   39.1573   -3.1565 H   0  0  0  0  0  0  0  0  0  0  0  0
 -105.9549   39.6171   -2.7722 H   0  0  0  0  0  0  0  0  0  0  0  0
 -105.7844   36.6329   -4.6657 H   0  0  0  0  0  0  0  0  0  0  0  0
 -104.2418   34.1600   -4.2751 H   0  0  0  0  0  0  0  0  0  0  0  0
 -105.0702   33.5435   -6.5570 H   0  0  0  0  0  0  0  0  0  0  0  0
 -105.8431   35.1589   -6.6963 H   0  0  0  0  0  0  0  0  0  0  0  0
 -106.4056   33.9990   -5.4454 H   0  0  0  0  0  0  0  0  0  0  0  0
 -104.2307   36.6483   -6.8717 H   0  0  0  0  0  0  0  0  0  0  0  0
 -101.3483   35.9942   -7.3104 H   0  0  0  0  0  0  0  0  0  0  0  0
 -101.6598   37.0171   -9.5715 H   0  0  0  0  0  0  0  0  0  0  0  0
 -103.3779   37.3631   -9.1779 H   0  0  0  0  0  0  0  0  0  0  0  0
 -102.8102   35.6636   -9.3048 H   0  0  0  0  0  0  0  0  0  0  0  0
  -99.8422   37.5417   -7.1407 H   0  0  0  0  0  0  0  0  0  0  0  0
  -99.9946   39.7055   -5.4573 H   0  0  0  0  0  0  0  0  0  0  0  0
  -97.9873   40.5952   -6.6202 H   0  0  0  0  0  0  0  0  0  0  0  0
  -98.3027   39.4921   -8.0024 H   0  0  0  0  0  0  0  0  0  0  0  0
  -97.8821   38.8166   -6.3919 H   0  0  0  0  0  0  0  0  0  0  0  0
 -102.3982   41.1181   -7.1729 H   0  0  0  0  0  0  0  0  0  0  0  0
  1 37  1  0  0  0  0
  1 38  1  0  0  0  0
  1 39  1  0  0  0  0
  2  1  1  0  0  0  0
  2  5  1  0  0  0  0
  2 40  1  6  0  0  0
  3  2  1  0  0  0  0
  3  4  2  0  0  0  0
  5 41  1  0  0  0  0
  5 42  1  0  0  0  0
  5 43  1  0  0  0  0
  6  3  1  0  0  0  0
  6 44  1  0  0  0  0
  7  6  1  0  0  0  0
  7 10  1  0  0  0  0
  7 45  1  1  0  0  0
  8  7  1  0  0  0  0
  8  9  2  0  0  0  0
 10 46  1  0  0  0  0
 10 47  1  0  0  0  0
 10 48  1  0  0  0  0
 11  8  1  0  0  0  0
 11 49  1  0  0  0  0
 12 11  1  0  0  0  0
 12 15  1  0  0  0  0
 12 50  1  6  0  0  0
 13 12  1  0  0  0  0
 13 14  2  0  0  0  0
 15 51  1  0  0  0  0
 15 52  1  0  0  0  0
 15 53  1  0  0  0  0
 16 13  1  0  0  0  0
 16 54  1  0  0  0  0
 17 16  1  0  0  0  0
 17 20  1  0  0  0  0
 17 55  1  1  0  0  0
 18 17  1  0  0  0  0
 18 19  2  0  0  0  0
 20 56  1  0  0  0  0
 20 57  1  0  0  0  0
 20 58  1  0  0  0  0
 21 18  1  0  0  0  0
 21 59  1  0  0  0  0
 22 21  1  0  0  0  0
 22 25  1  0  0  0  0
 22 60  1  1  0  0  0
 23 22  1  0  0  0  0
 23 24  2  0  0  0  0
 25 61  1  0  0  0  0
 25 62  1  0  0  0  0
 25 63  1  0  0  0  0
 26 23  1  0  0  0  0
 26 64  1  0  0  0  0
 27 26  1  0  0  0  0
 27 30  1  0  0  0  0
 27 65  1  1  0  0  0
 28 27  1  0  0  0  0
 28 29  2  0  0  0  0
 28 31  1  0  0  0  0
 30 66  1  0  0  0  0
 30 67  1  0  0  0  0
 30 68  1  0  0  0  0
 31 32  1  0  0  0  0
 31 69  1  0  0  0  0
 32 35  1  0  0  0  0
 32 33  1  0  0  0  0
 32 70  1  1  0  0  0
 33 34  2  0  0  0  0
 33 36  1  0  0  0  0
 35 71  1  0  0  0  0
 35 72  1  0  0  0  0
 35 73  1  0  0  0  0
 36 74  1  0  0  0  0
M  CHG  1   1   1
M  END
