2jbv_ligand
 OpenBabel08222323343D

 88 93  0  0  1  0  0  0  0  0999 V2000
   88.2160   33.5680   70.9570 P   0  0  2  0  0  0  0  0  0  0  0  0
   87.1810   33.5340   69.9020 O   0  0  0  0  0  1  0  0  0  0  0  0
   88.4920   34.8690   71.6330 O   0  0  0  0  0  0  0  0  0  0  0  0
   89.6270   33.1430   70.3120 O   0  0  0  0  0  0  0  0  0  0  0  0
   89.6870   32.1330   69.2500 C   0  0  0  0  0  0  0  0  0  0  0  0
   90.6740   32.6520   68.1900 C   0  0  1  0  0  0  0  0  0  0  0  0
   90.9280   31.5750   67.3060 O   0  0  0  0  0  0  0  0  0  0  0  0
   90.0860   33.7850   67.3450 C   0  0  1  0  0  0  0  0  0  0  0  0
   91.0820   34.8000   67.3460 O   0  0  0  0  0  0  0  0  0  0  0  0
   89.8740   33.1030   65.9760 C   0  0  1  0  0  0  0  0  0  0  0  0
   90.0430   33.9880   64.8900 O   0  0  0  0  0  0  0  0  0  0  0  0
   90.9820   32.0820   65.9920 C   0  0  2  0  0  0  0  0  0  0  0  0
   90.7120   30.9100   65.1160 N   0  0  0  0  0  0  0  0  0  0  0  0
   89.5330   30.2590   64.9740 C   0  0  0  0  0  0  0  0  0  0  0  0
   89.6950   29.2890   64.0860 N   0  0  0  0  0  0  0  0  0  0  0  0
   90.9720   29.2950   63.6720 C   0  0  0  0  0  0  0  0  0  0  0  0
   91.7030   28.5130   62.7600 C   0  0  0  0  0  0  0  0  0  0  0  0
   91.1320   27.4930   62.1200 N   0  0  0  0  0  0  0  0  0  0  0  0
   93.0130   28.7740   62.5590 N   0  0  0  0  0  0  0  0  0  0  0  0
   93.6070   29.8080   63.2090 C   0  0  0  0  0  0  0  0  0  0  0  0
   92.9430   30.5800   64.0980 N   0  0  0  0  0  0  0  0  0  0  0  0
   91.6200   30.3540   64.3140 C   0  0  0  0  0  0  0  0  0  0  0  0
   81.7280   38.1820   77.5380 N   0  0  0  0  0  0  0  0  0  0  0  0
   82.4690   38.9940   78.3530 C   0  0  0  0  0  0  0  0  0  0  0  0
   82.8390   38.5760   79.4590 O   0  0  0  0  0  0  0  0  0  0  0  0
   82.7170   40.2720   77.8530 N   0  0  0  0  0  0  0  0  0  0  0  0
   82.1300   40.5600   76.5660 C   0  0  0  0  0  0  0  0  0  0  0  0
   82.3960   41.6410   76.0750 O   0  0  0  0  0  0  0  0  0  0  0  0
   80.6790   39.9730   76.2900 C   0  0  1  0  0  0  0  0  0  0  0  0
   79.9490   40.1960   75.0220 N   0  0  0  0  0  0  0  0  0  0  0  0
   80.4570   39.7070   73.8290 C   0  0  0  0  0  0  0  0  0  0  0  0
   79.9750   40.2100   72.6080 C   0  0  0  0  0  0  0  0  0  0  0  0
   80.4550   39.6930   71.3970 C   0  0  0  0  0  0  0  0  0  0  0  0
   79.8960   40.2810   70.0990 C   0  0  0  0  0  0  0  0  0  0  0  0
   81.4320   38.6560   71.4170 C   0  0  0  0  0  0  0  0  0  0  0  0
   82.0250   38.0320   70.1190 C   0  0  0  0  0  0  0  0  0  0  0  0
   81.9000   38.1580   72.6500 C   0  0  0  0  0  0  0  0  0  0  0  0
   81.4080   38.6580   73.8690 C   0  0  0  0  0  0  0  0  0  0  0  0
   81.9260   38.1900   75.0430 N   0  0  0  0  0  0  0  0  0  0  0  0
   81.3310   38.6630   76.3050 C   0  0  1  0  0  0  0  0  0  0  0  0
   82.2550   36.7720   75.1210 C   0  0  0  0  0  0  0  0  0  0  0  0
   83.8190   36.6580   75.2640 C   0  0  2  0  0  0  0  0  0  0  0  0
   84.4770   37.6590   74.4560 O   0  0  0  0  0  0  0  0  0  0  0  0
   84.2530   35.2660   74.8010 C   0  0  2  0  0  0  0  0  0  0  0  0
   83.5890   34.3250   75.6060 O   0  0  0  0  0  0  0  0  0  0  0  0
   85.7920   35.0270   74.8410 C   0  0  2  0  0  0  0  0  0  0  0  0
   86.4300   36.0140   73.9970 O   0  0  0  0  0  0  0  0  0  0  0  0
   86.0940   33.6430   74.2790 C   0  0  0  0  0  0  0  0  0  0  0  0
   87.5530   33.4780   74.2340 O   0  0  0  0  0  0  0  0  0  0  0  0
   88.2430   32.1800   73.5590 P   0  0  1  0  0  0  0  0  0  0  0  0
   89.7200   32.3000   73.7820 O   0  0  0  0  0  1  0  0  0  0  0  0
   87.5420   30.9710   73.9650 O   0  0  0  0  0  0  0  0  0  0  0  0
   87.8740   32.3420   71.9650 O   0  0  0  0  0  0  0  0  0  0  0  0
   88.6913   31.9950   68.8034 H   0  0  0  0  0  0  0  0  0  0  0  0
   90.0413   31.1754   69.6591 H   0  0  0  0  0  0  0  0  0  0  0  0
   91.6006   32.9907   68.6765 H   0  0  0  0  0  0  0  0  0  0  0  0
   89.1376   34.1732   67.7448 H   0  0  0  0  0  0  0  0  0  0  0  0
   91.8822   34.4573   66.9656 H   0  0  0  0  0  0  0  0  0  0  0  0
   88.8824   32.6309   65.9140 H   0  0  0  0  0  0  0  0  0  0  0  0
   90.9249   34.3409   64.9048 H   0  0  0  0  0  0  0  0  0  0  0  0
   91.9514   32.5404   65.7470 H   0  0  0  0  0  0  0  0  0  0  0  0
   88.6088   30.4930   65.5003 H   0  0  0  0  0  0  0  0  0  0  0  0
   91.6812   26.9299   61.4550 H   0  0  0  0  0  0  0  0  0  0  0  0
   90.1415   27.2678   62.2903 H   0  0  0  0  0  0  0  0  0  0  0  0
   94.6505   30.0218   63.0078 H   0  0  0  0  0  0  0  0  0  0  0  0
   81.4786   37.2584   77.8291 H   0  0  0  0  0  0  0  0  0  0  0  0
   83.2645   40.9436   78.3523 H   0  0  0  0  0  0  0  0  0  0  0  0
   79.9826   40.1619   77.1203 H   0  0  0  0  0  0  0  0  0  0  0  0
   79.0602   40.7165   75.0263 H   0  0  0  0  0  0  0  0  0  0  0  0
   79.2313   40.9986   72.6031 H   0  0  0  0  0  0  0  0  0  0  0  0
   79.1602   41.0630   70.3378 H   0  0  0  0  0  0  0  0  0  0  0  0
   79.4093   39.4854   69.5158 H   0  0  0  0  0  0  0  0  0  0  0  0
   80.7167   40.7172   69.5107 H   0  0  0  0  0  0  0  0  0  0  0  0
   82.7561   37.2549   70.3866 H   0  0  0  0  0  0  0  0  0  0  0  0
   82.5226   38.8161   69.5294 H   0  0  0  0  0  0  0  0  0  0  0  0
   81.2152   37.5842   69.5243 H   0  0  0  0  0  0  0  0  0  0  0  0
   82.6515   37.3768   72.6587 H   0  0  0  0  0  0  0  0  0  0  0  0
   80.4163   38.0563   76.2333 H   0  0  0  0  0  0  0  0  0  0  0  0
   81.9227   36.2582   74.2069 H   0  0  0  0  0  0  0  0  0  0  0  0
   81.7637   36.3197   75.9951 H   0  0  0  0  0  0  0  0  0  0  0  0
   84.1003   36.8008   76.3178 H   0  0  0  0  0  0  0  0  0  0  0  0
   85.4182   37.5753   74.5545 H   0  0  0  0  0  0  0  0  0  0  0  0
   83.9253   35.1360   73.7590 H   0  0  0  0  0  0  0  0  0  0  0  0
   83.8406   33.4485   75.3398 H   0  0  0  0  0  0  0  0  0  0  0  0
   86.1635   35.1082   75.8732 H   0  0  0  0  0  0  0  0  0  0  0  0
   87.3705   35.8808   74.0112 H   0  0  0  0  0  0  0  0  0  0  0  0
   85.6771   33.5530   73.2651 H   0  0  0  0  0  0  0  0  0  0  0  0
   85.6514   32.8724   74.9273 H   0  0  0  0  0  0  0  0  0  0  0  0
  1  2  1  6  0  0  0
  1  3  2  0  0  0  0
  1  4  1  0  0  0  0
  4  5  1  0  0  0  0
  5  6  1  0  0  0  0
  5 54  1  0  0  0  0
  5 55  1  0  0  0  0
  6  7  1  0  0  0  0
  6  8  1  0  0  0  0
  6 56  1  1  0  0  0
  7 12  1  0  0  0  0
  8  9  1  0  0  0  0
  8 10  1  0  0  0  0
  8 57  1  1  0  0  0
  9 58  1  0  0  0  0
 10 11  1  0  0  0  0
 10 12  1  0  0  0  0
 10 59  1  6  0  0  0
 11 60  1  0  0  0  0
 12 13  1  0  0  0  0
 12 61  1  6  0  0  0
 13 14  1  0  0  0  0
 13 22  1  0  0  0  0
 14 15  2  0  0  0  0
 14 62  1  0  0  0  0
 16 15  1  0  0  0  0
 16 17  2  0  0  0  0
 17 18  1  0  0  0  0
 17 19  1  0  0  0  0
 18 63  1  0  0  0  0
 18 64  1  0  0  0  0
 20 19  2  0  0  0  0
 20 65  1  0  0  0  0
 21 20  1  0  0  0  0
 22 16  1  0  0  0  0
 22 21  2  0  0  0  0
 23 24  1  0  0  0  0
 23 66  1  0  0  0  0
 24 25  2  0  0  0  0
 24 26  1  0  0  0  0
 26 67  1  0  0  0  0
 27 26  1  0  0  0  0
 27 28  2  0  0  0  0
 29 27  1  0  0  0  0
 29 30  1  0  0  0  0
 29 68  1  1  0  0  0
 30 69  1  0  0  0  0
 31 30  1  0  0  0  0
 31 32  2  0  0  0  0
 32 33  1  0  0  0  0
 32 70  1  0  0  0  0
 33 34  1  0  0  0  0
 34 71  1  0  0  0  0
 34 72  1  0  0  0  0
 34 73  1  0  0  0  0
 35 33  2  0  0  0  0
 35 36  1  0  0  0  0
 36 74  1  0  0  0  0
 36 75  1  0  0  0  0
 36 76  1  0  0  0  0
 37 35  1  0  0  0  0
 37 77  1  0  0  0  0
 38 31  1  0  0  0  0
 38 37  2  0  0  0  0
 39 38  1  0  0  0  0
 39 40  1  0  0  0  0
 40 23  1  0  0  0  0
 40 29  1  0  0  0  0
 40 78  1  6  0  0  0
 41 39  1  0  0  0  0
 41 79  1  0  0  0  0
 41 80  1  0  0  0  0
 42 41  1  0  0  0  0
 42 43  1  0  0  0  0
 42 81  1  1  0  0  0
 43 82  1  0  0  0  0
 44 42  1  0  0  0  0
 44 45  1  0  0  0  0
 44 83  1  6  0  0  0
 45 84  1  0  0  0  0
 46 44  1  0  0  0  0
 46 47  1  0  0  0  0
 46 85  1  1  0  0  0
 47 86  1  0  0  0  0
 48 46  1  0  0  0  0
 48 87  1  0  0  0  0
 48 88  1  0  0  0  0
 49 48  1  0  0  0  0
 50 49  1  0  0  0  0
 50 51  1  1  0  0  0
 50 52  2  0  0  0  0
 50 53  1  0  0  0  0
 53  1  1  0  0  0  0
M  END
