2jdv_ligand
 OpenBabel08222323343D

 54 58  0  0  1  0  0  0  0  0999 V2000
    4.6300    9.6460    5.4830 C   0  0  0  0  0  0  0  0  0  0  0  0
    3.9820    9.6170    4.1620 C   0  0  0  0  0  0  0  0  0  0  0  0
    2.6600    9.5430    3.9270 N   0  0  0  0  0  0  0  0  0  0  0  0
    2.4940    9.5320    2.5900 N   0  0  0  0  0  0  0  0  0  0  0  0
    3.6740    9.6100    1.9010 C   0  0  0  0  0  0  0  0  0  0  0  0
    3.9820    9.6390    0.5150 C   0  0  0  0  0  0  0  0  0  0  0  0
    5.3300    9.7180    0.2000 C   0  0  0  0  0  0  0  0  0  0  0  0
    6.3620    9.7830    1.1680 C   0  0  0  0  0  0  0  0  0  0  0  0
    6.0380    9.7610    2.5410 C   0  0  0  0  0  0  0  0  0  0  0  0
    4.6930    9.6820    2.9080 C   0  0  0  0  0  0  0  0  0  0  0  0
    7.7610    9.8900    0.7360 C   0  0  0  0  0  0  0  0  0  0  0  0
    8.1180   10.6090   -0.4380 C   0  0  0  0  0  0  0  0  0  0  0  0
    9.3890   10.7540   -0.8510 N   0  0  0  0  0  0  0  0  0  0  0  0
   10.3620   10.1750   -0.1680 C   0  0  0  0  0  0  0  0  0  0  0  0
   10.1120    9.4190    0.9860 C   0  0  0  0  0  0  0  0  0  0  0  0
   11.1580    8.8460    1.6870 O   0  0  0  0  0  0  0  0  0  0  0  0
   11.0350    7.5980    2.3610 C   0  0  0  0  0  0  0  0  0  0  0  0
   12.4580    7.3990    2.9270 C   0  0  1  0  0  0  0  0  0  0  0  0
   13.3660    7.2540    1.7530 N   0  3  0  0  0  0  0  0  0  0  0  0
   12.9710    8.5600    3.8470 C   0  0  0  0  0  0  0  0  0  0  0  0
   12.1550    8.6550    5.0680 C   0  0  0  0  0  0  0  0  0  0  0  0
   12.4130    7.9870    6.2650 C   0  0  0  0  0  0  0  0  0  0  0  0
   11.4120    8.2470    7.1860 N   0  0  0  0  0  0  0  0  0  0  0  0
   10.4700    9.0920    6.6090 C   0  0  0  0  0  0  0  0  0  0  0  0
    9.2970    9.6280    7.1460 C   0  0  0  0  0  0  0  0  0  0  0  0
    8.5450   10.4530    6.3380 C   0  0  0  0  0  0  0  0  0  0  0  0
    8.9440   10.7100    5.0060 C   0  0  0  0  0  0  0  0  0  0  0  0
   10.1130   10.2060    4.4590 C   0  0  0  0  0  0  0  0  0  0  0  0
   10.9140    9.3830    5.2540 C   0  0  0  0  0  0  0  0  0  0  0  0
    8.7980    9.2870    1.4520 C   0  0  0  0  0  0  0  0  0  0  0  0
    5.7207    9.7090    5.3550 H   0  0  0  0  0  0  0  0  0  0  0  0
    4.3780    8.7287    6.0353 H   0  0  0  0  0  0  0  0  0  0  0  0
    4.2757   10.5220    6.0461 H   0  0  0  0  0  0  0  0  0  0  0  0
    1.9141    9.5023    4.6362 H   0  0  0  0  0  0  0  0  0  0  0  0
    3.2126    9.6018   -0.2477 H   0  0  0  0  0  0  0  0  0  0  0  0
    5.6101    9.7307   -0.8471 H   0  0  0  0  0  0  0  0  0  0  0  0
    6.8161    9.8045    3.2945 H   0  0  0  0  0  0  0  0  0  0  0  0
    7.3284   11.0611   -1.0272 H   0  0  0  0  0  0  0  0  0  0  0  0
   11.3841   10.2883   -0.5108 H   0  0  0  0  0  0  0  0  0  0  0  0
   10.7658    6.7914    1.6632 H   0  0  0  0  0  0  0  0  0  0  0  0
   10.2879    7.6505    3.1667 H   0  0  0  0  0  0  0  0  0  0  0  0
   12.4703    6.4710    3.5175 H   0  0  0  0  0  0  0  0  0  0  0  0
   14.3121    7.1210    2.0744 H   0  0  0  0  0  0  0  0  0  0  0  0
   13.3176    8.0860    1.1860 H   0  0  0  0  0  0  0  0  0  0  0  0
   13.0822    6.4569    1.2051 H   0  0  0  0  0  0  0  0  0  0  0  0
   12.9098    9.5106    3.2969 H   0  0  0  0  0  0  0  0  0  0  0  0
   14.0169    8.3644    4.1260 H   0  0  0  0  0  0  0  0  0  0  0  0
   13.2781    7.3517    6.4490 H   0  0  0  0  0  0  0  0  0  0  0  0
   11.3716    7.8741    8.1453 H   0  0  0  0  0  0  0  0  0  0  0  0
    8.9897    9.4032    8.1609 H   0  0  0  0  0  0  0  0  0  0  0  0
    7.6411   10.9082    6.7263 H   0  0  0  0  0  0  0  0  0  0  0  0
    8.3067   11.3291    4.3850 H   0  0  0  0  0  0  0  0  0  0  0  0
   10.3985   10.4442    3.4407 H   0  0  0  0  0  0  0  0  0  0  0  0
    8.5886    8.7251    2.3551 H   0  0  0  0  0  0  0  0  0  0  0  0
  1  2  1  0  0  0  0
  1 31  1  0  0  0  0
  1 32  1  0  0  0  0
  1 33  1  0  0  0  0
  2  3  1  0  0  0  0
  2 10  2  0  0  0  0
  3  4  1  0  0  0  0
  3 34  1  0  0  0  0
  4  5  2  0  0  0  0
  5  6  1  0  0  0  0
  5 10  1  0  0  0  0
  6  7  2  0  0  0  0
  6 35  1  0  0  0  0
  7  8  1  0  0  0  0
  7 36  1  0  0  0  0
  8  9  2  0  0  0  0
  8 11  1  0  0  0  0
  9 10  1  0  0  0  0
  9 37  1  0  0  0  0
 11 12  2  0  0  0  0
 11 30  1  0  0  0  0
 12 13  1  0  0  0  0
 12 38  1  0  0  0  0
 13 14  2  0  0  0  0
 14 15  1  0  0  0  0
 14 39  1  0  0  0  0
 15 16  1  0  0  0  0
 15 30  2  0  0  0  0
 16 17  1  0  0  0  0
 17 18  1  0  0  0  0
 17 40  1  0  0  0  0
 17 41  1  0  0  0  0
 18 19  1  0  0  0  0
 18 20  1  0  0  0  0
 18 42  1  1  0  0  0
 19 43  1  0  0  0  0
 19 44  1  0  0  0  0
 19 45  1  0  0  0  0
 20 21  1  0  0  0  0
 20 46  1  0  0  0  0
 20 47  1  0  0  0  0
 21 22  2  0  0  0  0
 21 29  1  0  0  0  0
 22 23  1  0  0  0  0
 22 48  1  0  0  0  0
 23 24  1  0  0  0  0
 23 49  1  0  0  0  0
 24 25  2  0  0  0  0
 24 29  1  0  0  0  0
 25 26  1  0  0  0  0
 25 50  1  0  0  0  0
 26 27  2  0  0  0  0
 26 51  1  0  0  0  0
 27 28  1  0  0  0  0
 27 52  1  0  0  0  0
 28 29  2  0  0  0  0
 28 53  1  0  0  0  0
 30 54  1  0  0  0  0
M  CHG  1  19   1
M  END
