2jjk_ligand
 OpenBabel08222323343D

 61 62  0  0  0  0  0  0  0  0999 V2000
    8.7430   59.9740   30.4230 S   0  0  0  0  0  0  0  0  0  0  0  0
   16.9850   59.0470   19.4940 S   0  0  0  0  0  0  0  0  0  0  0  0
   16.4590   60.0070   20.8020 N   0  0  0  0  0  0  0  0  0  0  0  0
    8.8540   60.3120   28.7850 N   0  0  0  0  0  0  0  0  0  0  0  0
    9.1950   59.3040   27.8890 C   0  0  0  0  0  0  0  0  0  0  0  0
   16.5520   59.5330   22.1110 C   0  0  0  0  0  0  0  0  0  0  0  0
    7.2490   59.0710   30.7210 C   0  0  0  0  0  0  0  0  0  0  0  0
   18.7430   58.8530   19.4830 C   0  0  0  0  0  0  0  0  0  0  0  0
    9.8900   59.1430   30.7690 O   0  0  0  0  0  0  0  0  0  0  0  0
   16.4010   57.7280   19.6380 O   0  0  0  0  0  0  0  0  0  0  0  0
   16.6690   59.7810   18.2630 O   0  0  0  0  0  0  0  0  0  0  0  0
    8.6750   61.2430   31.1850 O   0  0  0  0  0  0  0  0  0  0  0  0
    7.2990   57.6950   30.9180 C   0  0  0  0  0  0  0  0  0  0  0  0
   19.3270   57.6440   19.8710 C   0  0  0  0  0  0  0  0  0  0  0  0
    9.4020   58.1260   28.2250 O   0  0  0  0  0  0  0  0  0  0  0  0
   17.0140   58.3940   22.3910 O   0  0  0  0  0  0  0  0  0  0  0  0
    9.2500   59.7650   26.5930 N   0  0  0  0  0  0  0  0  0  0  0  0
   16.0900   60.4420   23.0590 N   0  0  0  0  0  0  0  0  0  0  0  0
    6.1300   56.9900   31.1510 C   0  0  0  0  0  0  0  0  0  0  0  0
   20.7060   57.5200   19.8410 C   0  0  0  0  0  0  0  0  0  0  0  0
    6.2160   55.2750   31.3940 Cl  0  0  0  0  0  0  0  0  0  0  0  0
   21.4520   56.0180   20.3100 Cl  0  0  0  0  0  0  0  0  0  0  0  0
    6.0290   59.7230   30.7660 C   0  0  0  0  0  0  0  0  0  0  0  0
   19.5310   59.9140   19.0500 C   0  0  0  0  0  0  0  0  0  0  0  0
    4.8540   59.0220   31.0140 C   0  0  0  0  0  0  0  0  0  0  0  0
   20.9060   59.7840   19.0370 C   0  0  0  0  0  0  0  0  0  0  0  0
    4.9110   57.6440   31.2030 C   0  0  0  0  0  0  0  0  0  0  0  0
   21.4920   58.5850   19.4290 C   0  0  0  0  0  0  0  0  0  0  0  0
   16.0940   60.1340   24.4840 C   0  0  0  0  0  0  0  0  0  0  0  0
    9.9580   59.0160   25.5600 C   0  0  0  0  0  0  0  0  0  0  0  0
   15.0640   59.0380   24.7820 C   0  0  0  0  0  0  0  0  0  0  0  0
   11.4650   58.9770   25.8370 C   0  0  0  0  0  0  0  0  0  0  0  0
   14.4100   59.2030   26.1560 C   0  0  0  0  0  0  0  0  0  0  0  0
   12.1700   60.2960   25.5030 C   0  0  0  0  0  0  0  0  0  0  0  0
   13.4990   60.4290   26.2540 C   0  0  0  0  0  0  0  0  0  0  0  0
   16.0810   60.9166   20.6294 H   0  0  0  0  0  0  0  0  0  0  0  0
    8.6752   61.2378   28.4520 H   0  0  0  0  0  0  0  0  0  0  0  0
    8.2502   57.1760   30.8892 H   0  0  0  0  0  0  0  0  0  0  0  0
   18.7082   56.8136   20.1914 H   0  0  0  0  0  0  0  0  0  0  0  0
    8.7984   60.6252   26.3562 H   0  0  0  0  0  0  0  0  0  0  0  0
   15.7461   61.3302   22.7542 H   0  0  0  0  0  0  0  0  0  0  0  0
    5.9889   60.7944   30.6058 H   0  0  0  0  0  0  0  0  0  0  0  0
   19.0683   60.8386   18.7243 H   0  0  0  0  0  0  0  0  0  0  0  0
    3.9043   59.5427   31.0596 H   0  0  0  0  0  0  0  0  0  0  0  0
   21.5271   60.6147   18.7220 H   0  0  0  0  0  0  0  0  0  0  0  0
    4.0021   57.0838   31.3906 H   0  0  0  0  0  0  0  0  0  0  0  0
   22.5710   58.4826   19.4122 H   0  0  0  0  0  0  0  0  0  0  0  0
   15.8387   61.0395   25.0540 H   0  0  0  0  0  0  0  0  0  0  0  0
   17.0944   59.7847   24.7792 H   0  0  0  0  0  0  0  0  0  0  0  0
    9.7848   59.4968   24.5860 H   0  0  0  0  0  0  0  0  0  0  0  0
    9.5713   57.9865   25.5347 H   0  0  0  0  0  0  0  0  0  0  0  0
   15.5687   58.0613   24.7471 H   0  0  0  0  0  0  0  0  0  0  0  0
   14.2794   59.0731   24.0119 H   0  0  0  0  0  0  0  0  0  0  0  0
   11.9125   58.1768   25.2292 H   0  0  0  0  0  0  0  0  0  0  0  0
   11.6197   58.7573   26.9037 H   0  0  0  0  0  0  0  0  0  0  0  0
   15.2044   59.2981   26.9108 H   0  0  0  0  0  0  0  0  0  0  0  0
   13.8099   58.3054   26.3663 H   0  0  0  0  0  0  0  0  0  0  0  0
   11.5146   61.1330   25.7856 H   0  0  0  0  0  0  0  0  0  0  0  0
   12.3657   60.3326   24.4212 H   0  0  0  0  0  0  0  0  0  0  0  0
   14.0409   61.2933   25.8425 H   0  0  0  0  0  0  0  0  0  0  0  0
   13.2766   60.6076   27.3164 H   0  0  0  0  0  0  0  0  0  0  0  0
  1  7  1  0  0  0  0
  1  9  2  0  0  0  0
  1 12  2  0  0  0  0
  2  8  1  0  0  0  0
  2 10  2  0  0  0  0
  2 11  2  0  0  0  0
  3  2  1  0  0  0  0
  3 36  1  0  0  0  0
  4  1  1  0  0  0  0
  4 37  1  0  0  0  0
  5  4  1  0  0  0  0
  5 15  2  0  0  0  0
  6  3  1  0  0  0  0
  6 16  2  0  0  0  0
  7 13  2  0  0  0  0
  7 23  1  0  0  0  0
  8 14  2  0  0  0  0
  8 24  1  0  0  0  0
 13 19  1  0  0  0  0
 13 38  1  0  0  0  0
 14 20  1  0  0  0  0
 14 39  1  0  0  0  0
 17  5  1  0  0  0  0
 17 40  1  0  0  0  0
 18  6  1  0  0  0  0
 18 41  1  0  0  0  0
 19 21  1  0  0  0  0
 19 27  2  0  0  0  0
 20 22  1  0  0  0  0
 20 28  2  0  0  0  0
 23 25  2  0  0  0  0
 23 42  1  0  0  0  0
 24 26  2  0  0  0  0
 24 43  1  0  0  0  0
 25 27  1  0  0  0  0
 25 44  1  0  0  0  0
 26 28  1  0  0  0  0
 26 45  1  0  0  0  0
 27 46  1  0  0  0  0
 28 47  1  0  0  0  0
 29 18  1  0  0  0  0
 29 48  1  0  0  0  0
 29 49  1  0  0  0  0
 30 17  1  0  0  0  0
 30 50  1  0  0  0  0
 30 51  1  0  0  0  0
 31 29  1  0  0  0  0
 31 52  1  0  0  0  0
 31 53  1  0  0  0  0
 32 30  1  0  0  0  0
 32 54  1  0  0  0  0
 32 55  1  0  0  0  0
 33 31  1  0  0  0  0
 33 56  1  0  0  0  0
 33 57  1  0  0  0  0
 34 32  1  0  0  0  0
 34 35  1  0  0  0  0
 34 58  1  0  0  0  0
 34 59  1  0  0  0  0
 35 33  1  0  0  0  0
 35 60  1  0  0  0  0
 35 61  1  0  0  0  0
M  END
