2jk7_ligand
 OpenBabel08222323343D

 78 81  0  0  1  0  0  0  0  0999 V2000
  110.8170   98.7840   61.8030 C   0  0  0  0  0  0  0  0  0  0  0  0
  109.7170   98.1930   62.8130 C   0  0  0  0  0  0  0  0  0  0  0  0
  108.4090   97.3610   62.3070 C   0  0  2  0  0  0  0  0  0  0  0  0
  108.1430   97.0740   60.7930 N   0  0  0  0  0  0  0  0  0  0  0  0
  109.0010   96.3840   59.8790 C   0  0  0  0  0  0  0  0  0  0  0  0
  110.4180   95.7540   60.1720 C   0  0  1  0  0  0  0  0  0  0  0  0
  111.0130   94.8310   59.2550 N   0  0  0  0  0  0  0  0  0  0  0  0
  111.6480   93.7600   59.8560 C   0  0  0  0  0  0  0  0  0  0  0  0
  112.2870   92.7240   58.9860 C   0  0  2  0  0  0  0  0  0  0  0  0
  111.4380   91.4060   59.0430 C   0  0  0  0  0  0  0  0  0  0  0  0
  109.9960   91.5730   58.4900 C   0  0  0  0  0  0  0  0  0  0  0  0
  113.6600   92.5470   59.4900 N   0  3  0  0  0  0  0  0  0  0  0  0
  111.7190   93.5930   61.1060 O   0  0  0  0  0  0  0  0  0  0  0  0
  111.4010   96.7410   60.5290 C   0  0  0  0  0  0  0  0  0  0  0  0
  111.3140   97.9740   60.6810 C   0  0  0  0  0  0  0  0  0  0  0  0
  108.6390   96.2320   58.6680 O   0  0  0  0  0  0  0  0  0  0  0  0
  106.8590   97.5860   60.2320 C   0  0  2  0  0  0  0  0  0  0  0  0
  107.0080   98.9570   59.5450 C   0  0  1  0  0  0  0  0  0  0  0  0
  108.1290   99.4610   59.5120 O   0  0  0  0  0  0  0  0  0  0  0  0
  106.2580   98.5770   58.4020 N   0  3  0  0  0  0  0  0  0  0  0  0
  106.0630   99.6790   57.3870 C   0  0  0  0  0  0  0  0  0  0  0  0
  105.2960  100.9950   57.9330 C   0  0  0  0  0  0  0  0  0  0  0  0
  105.5460  102.3180   57.2890 C   0  0  0  0  0  0  0  0  0  0  0  0
  114.8390   93.2990   59.3980 C   0  0  0  0  0  0  0  0  0  0  0  0
  104.8570  103.5010   57.7740 C   0  0  0  0  0  0  0  0  0  0  0  0
  103.9270  103.4230   58.8760 C   0  0  0  0  0  0  0  0  0  0  0  0
  103.6660  102.1420   59.5190 C   0  0  0  0  0  0  0  0  0  0  0  0
  104.3420  100.9350   59.0530 C   0  0  0  0  0  0  0  0  0  0  0  0
  105.2570   99.1020   56.1840 C   0  0  0  0  0  0  0  0  0  0  0  0
  103.9930   99.6270   55.6330 C   0  0  0  0  0  0  0  0  0  0  0  0
  103.3640   99.0050   54.5210 C   0  0  0  0  0  0  0  0  0  0  0  0
  103.9700   97.8520   53.9240 C   0  0  0  0  0  0  0  0  0  0  0  0
  105.8330   97.9450   55.5640 C   0  0  0  0  0  0  0  0  0  0  0  0
  105.2100   97.3160   54.4450 C   0  0  0  0  0  0  0  0  0  0  0  0
  106.0870   97.2360   61.4330 C   0  0  0  0  0  0  0  0  0  0  0  0
  107.0650   97.9030   62.5650 C   0  0  0  0  0  0  0  0  0  0  0  0
  111.6936   99.0492   62.4123 H   0  0  0  0  0  0  0  0  0  0  0  0
  110.3849   99.6961   61.3656 H   0  0  0  0  0  0  0  0  0  0  0  0
  109.3298   99.0536   63.3782 H   0  0  0  0  0  0  0  0  0  0  0  0
  110.2597   97.5211   63.4942 H   0  0  0  0  0  0  0  0  0  0  0  0
  108.5031   96.3951   62.8248 H   0  0  0  0  0  0  0  0  0  0  0  0
  110.2485   95.1584   61.0811 H   0  0  0  0  0  0  0  0  0  0  0  0
  110.9730   94.9504   58.2630 H   0  0  0  0  0  0  0  0  0  0  0  0
  112.3244   93.0760   57.9445 H   0  0  0  0  0  0  0  0  0  0  0  0
  111.3731   91.0788   60.0912 H   0  0  0  0  0  0  0  0  0  0  0  0
  111.9513   90.6353   58.4494 H   0  0  0  0  0  0  0  0  0  0  0  0
  109.4626   90.6136   58.5613 H   0  0  0  0  0  0  0  0  0  0  0  0
  110.0413   91.8900   57.4377 H   0  0  0  0  0  0  0  0  0  0  0  0
  109.4630   92.3335   59.0795 H   0  0  0  0  0  0  0  0  0  0  0  0
  113.9295   91.6554   59.1048 H   0  0  0  0  0  0  0  0  0  0  0  0
  113.5262   92.4566   60.4850 H   0  0  0  0  0  0  0  0  0  0  0  0
  112.1772   96.6272   59.7579 H   0  0  0  0  0  0  0  0  0  0  0  0
  111.7889   96.3857   61.4951 H   0  0  0  0  0  0  0  0  0  0  0  0
  112.3461   98.3277   60.5407 H   0  0  0  0  0  0  0  0  0  0  0  0
  110.6963   98.2988   59.8308 H   0  0  0  0  0  0  0  0  0  0  0  0
  106.5056   96.9300   59.4228 H   0  0  0  0  0  0  0  0  0  0  0  0
  106.4144   99.7007   60.0968 H   0  0  0  0  0  0  0  0  0  0  0  0
  108.4263   99.6276   60.3988 H   0  0  0  0  0  0  0  0  0  0  0  0
  105.3493   98.2680   58.7099 H   0  0  0  0  0  0  0  0  0  0  0  0
  106.7372   97.8139   57.9502 H   0  0  0  0  0  0  0  0  0  0  0  0
  107.0577   99.9922   57.0371 H   0  0  0  0  0  0  0  0  0  0  0  0
  106.2408  102.3958   56.4605 H   0  0  0  0  0  0  0  0  0  0  0  0
  115.6472   92.7809   59.9350 H   0  0  0  0  0  0  0  0  0  0  0  0
  114.6776   94.2903   59.8465 H   0  0  0  0  0  0  0  0  0  0  0  0
  115.1177   93.4160   58.3404 H   0  0  0  0  0  0  0  0  0  0  0  0
  105.0439  104.4583   57.3010 H   0  0  0  0  0  0  0  0  0  0  0  0
  103.4233  104.3173   59.2247 H   0  0  0  0  0  0  0  0  0  0  0  0
  102.9676  102.0850   60.3461 H   0  0  0  0  0  0  0  0  0  0  0  0
  104.1398   99.9858   59.5359 H   0  0  0  0  0  0  0  0  0  0  0  0
  103.5370  100.5011   56.0836 H   0  0  0  0  0  0  0  0  0  0  0  0
  102.4339   99.3993   54.1278 H   0  0  0  0  0  0  0  0  0  0  0  0
  103.4952   97.3761   53.0736 H   0  0  0  0  0  0  0  0  0  0  0  0
  106.7602   97.5399   55.9530 H   0  0  0  0  0  0  0  0  0  0  0  0
  105.6619   96.4430   53.9882 H   0  0  0  0  0  0  0  0  0  0  0  0
  105.9911   96.1476   61.5597 H   0  0  0  0  0  0  0  0  0  0  0  0
  105.0870   97.6943   61.4293 H   0  0  0  0  0  0  0  0  0  0  0  0
  107.0694   98.9988   62.4690 H   0  0  0  0  0  0  0  0  0  0  0  0
  106.7274   97.6246   63.5742 H   0  0  0  0  0  0  0  0  0  0  0  0
  1  2  1  0  0  0  0
  1 15  1  0  0  0  0
  1 37  1  0  0  0  0
  1 38  1  0  0  0  0
  2  3  1  0  0  0  0
  2 39  1  0  0  0  0
  2 40  1  0  0  0  0
  3  4  1  0  0  0  0
  3 36  1  0  0  0  0
  3 41  1  1  0  0  0
  4  5  1  0  0  0  0
  4 17  1  0  0  0  0
  5  6  1  0  0  0  0
  5 16  2  0  0  0  0
  6  7  1  0  0  0  0
  6 14  1  0  0  0  0
  6 42  1  1  0  0  0
  7  8  1  0  0  0  0
  7 43  1  0  0  0  0
  8  9  1  0  0  0  0
  8 13  2  0  0  0  0
  9 10  1  0  0  0  0
  9 12  1  0  0  0  0
  9 44  1  6  0  0  0
 10 11  1  0  0  0  0
 10 45  1  0  0  0  0
 10 46  1  0  0  0  0
 11 47  1  0  0  0  0
 11 48  1  0  0  0  0
 11 49  1  0  0  0  0
 12 24  1  0  0  0  0
 12 50  1  0  0  0  0
 12 51  1  0  0  0  0
 14 15  1  0  0  0  0
 14 52  1  0  0  0  0
 14 53  1  0  0  0  0
 15 54  1  0  0  0  0
 15 55  1  0  0  0  0
 17 18  1  0  0  0  0
 17 35  1  0  0  0  0
 17 56  1  6  0  0  0
 18 19  1  0  0  0  0
 18 20  1  0  0  0  0
 18 57  1  1  0  0  0
 19 58  1  0  0  0  0
 20 21  1  0  0  0  0
 20 59  1  0  0  0  0
 20 60  1  0  0  0  0
 21 22  1  0  0  0  0
 21 29  1  0  0  0  0
 21 61  1  0  0  0  0
 22 23  2  0  0  0  0
 22 28  1  0  0  0  0
 23 25  1  0  0  0  0
 23 62  1  0  0  0  0
 24 63  1  0  0  0  0
 24 64  1  0  0  0  0
 24 65  1  0  0  0  0
 25 26  2  0  0  0  0
 25 66  1  0  0  0  0
 26 27  1  0  0  0  0
 26 67  1  0  0  0  0
 27 28  2  0  0  0  0
 27 68  1  0  0  0  0
 28 69  1  0  0  0  0
 29 30  2  0  0  0  0
 29 33  1  0  0  0  0
 30 31  1  0  0  0  0
 30 70  1  0  0  0  0
 31 32  2  0  0  0  0
 31 71  1  0  0  0  0
 32 34  1  0  0  0  0
 32 72  1  0  0  0  0
 33 34  2  0  0  0  0
 33 73  1  0  0  0  0
 34 74  1  0  0  0  0
 35 36  1  0  0  0  0
 35 75  1  0  0  0  0
 35 76  1  0  0  0  0
 36 77  1  0  0  0  0
 36 78  1  0  0  0  0
M  CHG  2  12   1  20   1
M  END
