2jkq_ligand
 OpenBabel08222323343D

 77 82  0  0  0  0  0  0  0  0999 V2000
   15.2250   -3.5540   26.7410 C   0  0  0  0  0  0  0  0  0  0  0  0
   16.0350   -4.8540   27.1440 C   0  0  0  0  0  0  0  0  0  0  0  0
   16.9640   -4.5870   28.3480 C   0  0  0  0  0  0  0  0  0  0  0  0
   17.9690   -3.4470   28.0440 C   0  0  0  0  0  0  0  0  0  0  0  0
   17.3060   -2.3690   27.1230 C   0  0  0  0  0  0  0  0  0  0  0  0
   15.8500   -2.3730   27.4100 N   0  3  0  0  0  0  0  0  0  0  0  0
   15.2620   -1.0410   27.0540 C   0  0  0  0  0  0  0  0  0  0  0  0
   14.5800   -1.0050   25.6590 C   0  0  0  0  0  0  0  0  0  0  0  0
   13.9790    0.3890   25.4110 C   0  0  0  0  0  0  0  0  0  0  0  0
   14.3000   -0.5350   28.1710 C   0  0  0  0  0  0  0  0  0  0  0  0
   12.8770   -0.2280   27.6590 C   0  0  0  0  0  0  0  0  0  0  0  0
   12.9030    0.6190   26.4170 N   0  0  0  0  0  0  0  0  0  0  0  0
   11.8850    1.5970   26.2480 C   0  0  0  0  0  0  0  0  0  0  0  0
   11.0940    1.9120   27.3500 C   0  0  0  0  0  0  0  0  0  0  0  0
   10.0730    2.8440   27.2590 C   0  0  0  0  0  0  0  0  0  0  0  0
   11.6200    2.2470   25.0400 C   0  0  0  0  0  0  0  0  0  0  0  0
   12.3090    2.1150   23.6760 C   0  0  0  0  0  0  0  0  0  0  0  0
   11.5450    3.0710   22.8750 N   0  0  0  0  0  0  0  0  0  0  0  0
   11.7750    3.3480   21.4510 C   0  0  0  0  0  0  0  0  0  0  0  0
   10.6050    3.6520   23.6130 C   0  0  0  0  0  0  0  0  0  0  0  0
    9.8360    4.5000   23.1600 O   0  0  0  0  0  0  0  0  0  0  0  0
   10.6000    3.1930   24.9350 C   0  0  0  0  0  0  0  0  0  0  0  0
    9.8100    3.4890   26.0560 C   0  0  0  0  0  0  0  0  0  0  0  0
    8.8040    4.3870   26.0220 N   0  0  0  0  0  0  0  0  0  0  0  0
    7.5110    3.9950   26.0630 C   0  0  0  0  0  0  0  0  0  0  0  0
    7.1600    2.8460   26.6750 N   0  0  0  0  0  0  0  0  0  0  0  0
    6.4950    4.7500   25.4790 C   0  0  0  0  0  0  0  0  0  0  0  0
    6.8220    6.2570   24.6740 Cl  0  0  0  0  0  0  0  0  0  0  0  0
    5.1860    4.2720   25.5570 C   0  0  0  0  0  0  0  0  0  0  0  0
    4.9090    3.1280   26.1670 N   0  0  0  0  0  0  0  0  0  0  0  0
    5.8860    2.4140   26.7300 C   0  0  0  0  0  0  0  0  0  0  0  0
    5.5760    1.2660   27.3240 N   0  0  0  0  0  0  0  0  0  0  0  0
    6.4320    0.5420   28.0550 C   0  0  0  0  0  0  0  0  0  0  0  0
    7.7160    0.2490   27.6040 C   0  0  0  0  0  0  0  0  0  0  0  0
    8.5860   -0.5070   28.3860 C   0  0  0  0  0  0  0  0  0  0  0  0
    8.1770   -0.9960   29.6200 C   0  0  0  0  0  0  0  0  0  0  0  0
    6.8920   -0.7120   30.0690 C   0  0  0  0  0  0  0  0  0  0  0  0
    6.0200    0.0500   29.2890 C   0  0  0  0  0  0  0  0  0  0  0  0
    4.7630    0.3210   29.7180 O   0  0  0  0  0  0  0  0  0  0  0  0
    4.3780   -0.6870   30.6870 C   0  0  0  0  0  0  0  0  0  0  0  0
   14.1792   -3.6536   27.0672 H   0  0  0  0  0  0  0  0  0  0  0  0
   15.2576   -3.4212   25.6495 H   0  0  0  0  0  0  0  0  0  0  0  0
   16.6439   -5.1767   26.2866 H   0  0  0  0  0  0  0  0  0  0  0  0
   15.3245   -5.6506   27.4097 H   0  0  0  0  0  0  0  0  0  0  0  0
   17.5236   -5.5054   28.5790 H   0  0  0  0  0  0  0  0  0  0  0  0
   16.3518   -4.3024   29.2164 H   0  0  0  0  0  0  0  0  0  0  0  0
   18.8500   -3.8660   27.5359 H   0  0  0  0  0  0  0  0  0  0  0  0
   18.2797   -2.9759   28.9882 H   0  0  0  0  0  0  0  0  0  0  0  0
   17.4813   -2.6186   26.0661 H   0  0  0  0  0  0  0  0  0  0  0  0
   17.7291   -1.3772   27.3407 H   0  0  0  0  0  0  0  0  0  0  0  0
   15.7240   -2.4940   28.4027 H   0  0  0  0  0  0  0  0  0  0  0  0
   16.1016   -0.3318   27.0079 H   0  0  0  0  0  0  0  0  0  0  0  0
   13.7803   -1.7594   25.6235 H   0  0  0  0  0  0  0  0  0  0  0  0
   15.3263   -1.2249   24.8814 H   0  0  0  0  0  0  0  0  0  0  0  0
   13.5565    0.4371   24.3965 H   0  0  0  0  0  0  0  0  0  0  0  0
   14.7601    1.1558   25.5196 H   0  0  0  0  0  0  0  0  0  0  0  0
   14.7209    0.3844   28.6041 H   0  0  0  0  0  0  0  0  0  0  0  0
   14.2313   -1.3091   28.9495 H   0  0  0  0  0  0  0  0  0  0  0  0
   12.3236    0.3079   28.4442 H   0  0  0  0  0  0  0  0  0  0  0  0
   12.3672   -1.1762   27.4331 H   0  0  0  0  0  0  0  0  0  0  0  0
   11.2807    1.4186   28.2970 H   0  0  0  0  0  0  0  0  0  0  0  0
    9.4741    3.0722   28.1333 H   0  0  0  0  0  0  0  0  0  0  0  0
   12.2200    1.0938   23.2771 H   0  0  0  0  0  0  0  0  0  0  0  0
   13.3712    2.3953   23.7326 H   0  0  0  0  0  0  0  0  0  0  0  0
   11.0584    4.1073   21.1048 H   0  0  0  0  0  0  0  0  0  0  0  0
   11.6384    2.4235   20.8709 H   0  0  0  0  0  0  0  0  0  0  0  0
   12.8004    3.7207   21.3109 H   0  0  0  0  0  0  0  0  0  0  0  0
    9.0255    5.3912   25.9636 H   0  0  0  0  0  0  0  0  0  0  0  0
    4.3819    4.8461   25.1111 H   0  0  0  0  0  0  0  0  0  0  0  0
    4.6154    0.9108   27.2147 H   0  0  0  0  0  0  0  0  0  0  0  0
    8.0415    0.6123   26.6360 H   0  0  0  0  0  0  0  0  0  0  0  0
    9.5883   -0.7150   28.0294 H   0  0  0  0  0  0  0  0  0  0  0  0
    8.8509   -1.5914   30.2253 H   0  0  0  0  0  0  0  0  0  0  0  0
    6.5645   -1.0853   31.0326 H   0  0  0  0  0  0  0  0  0  0  0  0
    3.3586   -0.4807   31.0453 H   0  0  0  0  0  0  0  0  0  0  0  0
    5.0766   -0.6649   31.5364 H   0  0  0  0  0  0  0  0  0  0  0  0
    4.4066   -1.6799   30.2144 H   0  0  0  0  0  0  0  0  0  0  0  0
  1  2  1  0  0  0  0
  1  6  1  0  0  0  0
  1 41  1  0  0  0  0
  1 42  1  0  0  0  0
  2  3  1  0  0  0  0
  2 43  1  0  0  0  0
  2 44  1  0  0  0  0
  3  4  1  0  0  0  0
  3 45  1  0  0  0  0
  3 46  1  0  0  0  0
  4  5  1  0  0  0  0
  4 47  1  0  0  0  0
  4 48  1  0  0  0  0
  5  6  1  0  0  0  0
  5 49  1  0  0  0  0
  5 50  1  0  0  0  0
  6  7  1  0  0  0  0
  6 51  1  0  0  0  0
  7  8  1  0  0  0  0
  7 10  1  0  0  0  0
  7 52  1  0  0  0  0
  8  9  1  0  0  0  0
  8 53  1  0  0  0  0
  8 54  1  0  0  0  0
  9 12  1  0  0  0  0
  9 55  1  0  0  0  0
  9 56  1  0  0  0  0
 10 11  1  0  0  0  0
 10 57  1  0  0  0  0
 10 58  1  0  0  0  0
 11 12  1  0  0  0  0
 11 59  1  0  0  0  0
 11 60  1  0  0  0  0
 12 13  1  0  0  0  0
 13 14  2  0  0  0  0
 13 16  1  0  0  0  0
 14 15  1  0  0  0  0
 14 61  1  0  0  0  0
 15 23  2  0  0  0  0
 15 62  1  0  0  0  0
 16 17  1  0  0  0  0
 16 22  2  0  0  0  0
 17 18  1  0  0  0  0
 17 63  1  0  0  0  0
 17 64  1  0  0  0  0
 18 19  1  0  0  0  0
 18 20  1  0  0  0  0
 19 65  1  0  0  0  0
 19 66  1  0  0  0  0
 19 67  1  0  0  0  0
 20 21  2  0  0  0  0
 20 22  1  0  0  0  0
 22 23  1  0  0  0  0
 23 24  1  0  0  0  0
 24 25  1  0  0  0  0
 24 68  1  0  0  0  0
 25 26  2  0  0  0  0
 25 27  1  0  0  0  0
 26 31  1  0  0  0  0
 27 28  1  0  0  0  0
 27 29  2  0  0  0  0
 29 30  1  0  0  0  0
 29 69  1  0  0  0  0
 30 31  2  0  0  0  0
 31 32  1  0  0  0  0
 32 33  1  0  0  0  0
 32 70  1  0  0  0  0
 33 34  2  0  0  0  0
 33 38  1  0  0  0  0
 34 35  1  0  0  0  0
 34 71  1  0  0  0  0
 35 36  2  0  0  0  0
 35 72  1  0  0  0  0
 36 37  1  0  0  0  0
 36 73  1  0  0  0  0
 37 38  2  0  0  0  0
 37 74  1  0  0  0  0
 38 39  1  0  0  0  0
 39 40  1  0  0  0  0
 40 75  1  0  0  0  0
 40 76  1  0  0  0  0
 40 77  1  0  0  0  0
M  CHG  1   6   1
M  END
