2jkt_ligand
 OpenBabel08222323343D

161160  0  0  1  0  0  0  0  0999 V2000
   60.7110  -33.0920  -92.6350 N   0  3  0  0  0  0  0  0  0  0  0  0
   59.5960  -33.9290  -93.0720 C   0  0  2  0  0  0  0  0  0  0  0  0
   59.6410  -34.1860  -94.5870 C   0  0  0  0  0  0  0  0  0  0  0  0
   59.1180  -33.3990  -95.3830 O   0  0  0  0  0  0  0  0  0  0  0  0
   58.2550  -33.3200  -92.6400 C   0  0  0  0  0  0  0  0  0  0  0  0
   57.9170  -31.9680  -93.2650 C   0  0  0  0  0  0  0  0  0  0  0  0
   59.1160  -30.6640  -92.9230 S   0  0  0  0  0  0  0  0  0  0  0  0
   58.2740  -29.2440  -93.6130 C   0  0  0  0  0  0  0  0  0  0  0  0
   60.2700  -35.3060  -94.9570 N   0  0  0  0  0  0  0  0  0  0  0  0
   60.5750  -35.6810  -96.3530 C   0  0  1  0  0  0  0  0  0  0  0  0
   59.7710  -36.9070  -96.8040 C   0  0  0  0  0  0  0  0  0  0  0  0
   60.5160  -37.6710  -97.7450 O   0  0  0  0  0  0  0  0  0  0  0  0
   60.4660  -34.5440  -97.3750 C   0  0  0  0  0  0  0  0  0  0  0  0
   59.4750  -34.4060  -98.0950 O   0  0  0  0  0  0  0  0  0  0  0  0
   61.5280  -33.7580  -97.4510 N   0  0  0  0  0  0  0  0  0  0  0  0
   61.5220  -32.5430  -98.2380 C   0  0  2  0  0  0  0  0  0  0  0  0
   61.6300  -32.8110  -99.7410 C   0  0  0  0  0  0  0  0  0  0  0  0
   61.8930  -31.9070 -100.5330 O   0  0  0  0  0  0  0  0  0  0  0  0
   62.6360  -31.6200  -97.7370 C   0  0  0  0  0  0  0  0  0  0  0  0
   62.4740  -31.2550  -96.2590 C   0  0  0  0  0  0  0  0  0  0  0  0
   63.4890  -30.2320  -95.7720 C   0  0  0  0  0  0  0  0  0  0  0  0
   64.3630  -29.8270  -96.5650 O   0  5  0  0  0  0  0  0  0  0  0  0
   63.4170  -29.8370  -94.5880 O   0  0  0  0  0  0  0  0  0  0  0  0
   61.4190  -34.0550 -100.1420 N   0  0  0  0  0  0  0  0  0  0  0  0
   61.5600  -34.4000 -101.5510 C   0  0  2  0  0  0  0  0  0  0  0  0
   60.2040  -34.6230 -102.2430 C   0  0  0  0  0  0  0  0  0  0  0  0
   60.1330  -34.8540 -103.4530 O   0  0  0  0  0  0  0  0  0  0  0  0
   62.5420  -35.5820 -101.7340 C   0  0  2  0  0  0  0  0  0  0  0  0
   62.4060  -36.2170 -103.1180 C   0  0  0  0  0  0  0  0  0  0  0  0
   62.3390  -36.6140 -100.6380 C   0  0  0  0  0  0  0  0  0  0  0  0
   62.7570  -35.2880 -104.2730 C   0  0  0  0  0  0  0  0  0  0  0  0
   59.1230  -34.5170 -101.4780 N   0  0  0  0  0  0  0  0  0  0  0  0
   57.7900  -34.6500 -102.0590 C   0  0  2  0  0  0  0  0  0  0  0  0
   57.5570  -33.4970 -103.0230 C   0  0  0  0  0  0  0  0  0  0  0  0
   57.8920  -32.3460 -102.7200 O   0  0  0  0  0  0  0  0  0  0  0  0
   56.7130  -34.6750 -100.9680 C   0  0  0  0  0  0  0  0  0  0  0  0
   55.3410  -35.1540 -101.4360 C   0  0  0  0  0  0  0  0  0  0  0  0
   54.4440  -35.4750 -100.2500 C   0  0  0  0  0  0  0  0  0  0  0  0
   55.1600  -36.3970  -99.2680 C   0  0  0  0  0  0  0  0  0  0  0  0
   54.2680  -36.9160  -98.1930 N   0  3  0  0  0  0  0  0  0  0  0  0
   57.0010  -33.8110 -104.1890 N   0  0  0  0  0  0  0  0  0  0  0  0
   56.7040  -32.7910 -105.1810 C   0  0  2  0  0  0  0  0  0  0  0  0
   55.8690  -31.6700 -104.5810 C   0  0  0  0  0  0  0  0  0  0  0  0
   55.0680  -31.9010 -103.6710 O   0  0  0  0  0  0  0  0  0  0  0  0
   55.9300  -33.3920 -106.3420 C   0  0  0  0  0  0  0  0  0  0  0  0
   56.7390  -34.2480 -107.2480 C   0  0  0  0  0  0  0  0  0  0  0  0
   55.8070  -34.9610 -108.1660 C   0  0  0  0  0  0  0  0  0  0  0  0
   56.5070  -35.8230 -109.1030 N   0  0  0  0  0  0  0  0  0  0  0  0
   55.8940  -36.7260 -109.8590 C   0  0  0  0  0  3  0  0  0  0  0  0
   54.5760  -36.8770 -109.7720 N   0  0  0  0  0  0  0  0  0  0  0  0
   56.5880  -37.4790 -110.6960 N   0  0  0  0  0  0  0  0  0  0  0  0
   56.0470  -30.4590 -105.1050 N   0  0  0  0  0  0  0  0  0  0  0  0
   55.2090  -29.3360 -104.7130 C   0  0  2  0  0  0  0  0  0  0  0  0
   53.8670  -29.3420 -105.4490 C   0  0  0  0  0  0  0  0  0  0  0  0
   52.9070  -28.7040 -105.0030 O   0  0  0  0  0  0  0  0  0  0  0  0
   55.9400  -28.0190 -104.9540 C   0  0  0  0  0  0  0  0  0  0  0  0
   57.2290  -27.8180 -104.1570 C   0  0  0  0  0  0  0  0  0  0  0  0
   57.4470  -26.3390 -103.8590 C   0  0  0  0  0  0  0  0  0  0  0  0
   57.1620  -28.5900 -102.8670 C   0  0  0  0  0  0  0  0  0  0  0  0
   53.7960  -30.0870 -106.5540 N   0  0  0  0  0  0  0  0  0  0  0  0
   52.6120  -30.0780 -107.4100 C   0  0  2  0  0  0  0  0  0  0  0  0
   52.0690  -31.4590 -107.7750 C   0  0  0  0  0  0  0  0  0  0  0  0
   52.0850  -32.3930 -106.9670 O   0  0  0  0  0  0  0  0  0  0  0  0
   52.8910  -29.2990 -108.6940 C   0  0  0  0  0  0  0  0  0  0  0  0
   53.0020  -27.7750 -108.6370 C   0  0  0  0  0  0  0  0  0  0  0  0
   53.1090  -27.1940 -110.0610 C   0  0  0  0  0  0  0  0  0  0  0  0
   51.8350  -27.1370 -107.8670 C   0  0  0  0  0  0  0  0  0  0  0  0
   51.5580  -31.5510 -109.0010 N   0  0  0  0  0  0  0  0  0  0  0  0
   50.9770  -32.7770 -109.5280 C   0  0  2  0  0  0  0  0  0  0  0  0
   50.0890  -33.4670 -108.4900 C   0  0  0  0  0  0  0  0  0  0  0  0
   48.9980  -32.9860 -108.1690 O   0  0  0  0  0  0  0  0  0  0  0  0
   52.0750  -33.7250 -110.0320 C   0  0  0  0  0  0  0  0  0  0  0  0
   52.7840  -33.1750 -111.1380 O   0  0  0  0  0  0  0  0  0  0  0  0
   60.6503  -32.9442  -91.6397 H   0  0  0  0  0  0  0  0  0  0  0  0
   60.6705  -32.2037  -93.1096 H   0  0  0  0  0  0  0  0  0  0  0  0
   61.5815  -33.5506  -92.8541 H   0  0  0  0  0  0  0  0  0  0  0  0
   59.6951  -34.9028  -92.5701 H   0  0  0  0  0  0  0  0  0  0  0  0
   58.2764  -33.1928  -91.5476 H   0  0  0  0  0  0  0  0  0  0  0  0
   57.4579  -34.0278  -92.9112 H   0  0  0  0  0  0  0  0  0  0  0  0
   56.9392  -31.6455  -92.8779 H   0  0  0  0  0  0  0  0  0  0  0  0
   57.8545  -32.0997  -94.3553 H   0  0  0  0  0  0  0  0  0  0  0  0
   58.8965  -28.3472  -93.4778 H   0  0  0  0  0  0  0  0  0  0  0  0
   57.3115  -29.1031  -93.0994 H   0  0  0  0  0  0  0  0  0  0  0  0
   58.0964  -29.4086  -94.6860 H   0  0  0  0  0  0  0  0  0  0  0  0
   60.5552  -35.9368  -94.2353 H   0  0  0  0  0  0  0  0  0  0  0  0
   61.6324  -35.9840  -96.3543 H   0  0  0  0  0  0  0  0  0  0  0  0
   58.8324  -36.5732  -97.2705 H   0  0  0  0  0  0  0  0  0  0  0  0
   59.5431  -37.5329  -95.9286 H   0  0  0  0  0  0  0  0  0  0  0  0
   60.0051  -38.4255  -98.0140 H   0  0  0  0  0  0  0  0  0  0  0  0
   62.3568  -34.0101  -96.9514 H   0  0  0  0  0  0  0  0  0  0  0  0
   60.5606  -32.0367  -98.0667 H   0  0  0  0  0  0  0  0  0  0  0  0
   62.6224  -30.6951  -98.3323 H   0  0  0  0  0  0  0  0  0  0  0  0
   63.6023  -32.1282  -97.8710 H   0  0  0  0  0  0  0  0  0  0  0  0
   62.5874  -32.1705  -95.6598 H   0  0  0  0  0  0  0  0  0  0  0  0
   61.4652  -30.8423  -96.1108 H   0  0  0  0  0  0  0  0  0  0  0  0
   61.1629  -34.7578  -99.4783 H   0  0  0  0  0  0  0  0  0  0  0  0
   62.0189  -33.5311 -102.0454 H   0  0  0  0  0  0  0  0  0  0  0  0
   63.5652  -35.1882 -101.6445 H   0  0  0  0  0  0  0  0  0  0  0  0
   61.3639  -36.5455 -103.2451 H   0  0  0  0  0  0  0  0  0  0  0  0
   63.0738  -37.0899 -103.1633 H   0  0  0  0  0  0  0  0  0  0  0  0
   62.4422  -36.1304  -99.6554 H   0  0  0  0  0  0  0  0  0  0  0  0
   63.0942  -37.4076 -100.7372 H   0  0  0  0  0  0  0  0  0  0  0  0
   61.3336  -37.0512 -100.7277 H   0  0  0  0  0  0  0  0  0  0  0  0
   62.6319  -35.8238 -105.2255 H   0  0  0  0  0  0  0  0  0  0  0  0
   63.8012  -34.9569 -104.1730 H   0  0  0  0  0  0  0  0  0  0  0  0
   62.0913  -34.4125 -104.2547 H   0  0  0  0  0  0  0  0  0  0  0  0
   59.2229  -34.3450 -100.4980 H   0  0  0  0  0  0  0  0  0  0  0  0
   57.7398  -35.5960 -102.6180 H   0  0  0  0  0  0  0  0  0  0  0  0
   56.6028  -33.6547 -100.5720 H   0  0  0  0  0  0  0  0  0  0  0  0
   57.0542  -35.3451 -100.1652 H   0  0  0  0  0  0  0  0  0  0  0  0
   55.4653  -36.0590 -102.0487 H   0  0  0  0  0  0  0  0  0  0  0  0
   54.8705  -34.3641 -102.0398 H   0  0  0  0  0  0  0  0  0  0  0  0
   53.5311  -35.9710 -100.6112 H   0  0  0  0  0  0  0  0  0  0  0  0
   54.1748  -34.5399  -99.7370 H   0  0  0  0  0  0  0  0  0  0  0  0
   55.9830  -35.8374  -98.7995 H   0  0  0  0  0  0  0  0  0  0  0  0
   55.5690  -37.2522  -99.8260 H   0  0  0  0  0  0  0  0  0  0  0  0
   54.7960  -37.5161  -97.5789 H   0  0  0  0  0  0  0  0  0  0  0  0
   53.5127  -37.4397  -98.6068 H   0  0  0  0  0  0  0  0  0  0  0  0
   53.8920  -36.1433  -97.6661 H   0  0  0  0  0  0  0  0  0  0  0  0
   56.7831  -34.7666 -104.3873 H   0  0  0  0  0  0  0  0  0  0  0  0
   57.6516  -32.3747 -105.5534 H   0  0  0  0  0  0  0  0  0  0  0  0
   55.5071  -32.5681 -106.9355 H   0  0  0  0  0  0  0  0  0  0  0  0
   55.1139  -34.0038 -105.9302 H   0  0  0  0  0  0  0  0  0  0  0  0
   57.3122  -34.9782 -106.6578 H   0  0  0  0  0  0  0  0  0  0  0  0
   57.4315  -33.6234 -107.8313 H   0  0  0  0  0  0  0  0  0  0  0  0
   55.2308  -34.2157 -108.7339 H   0  0  0  0  0  0  0  0  0  0  0  0
   55.1203  -35.5755 -107.5654 H   0  0  0  0  0  0  0  0  0  0  0  0
   57.5294  -35.7289 -109.1848 H   0  0  0  0  0  0  0  0  0  0  0  0
   54.0981  -37.5768 -110.3574 H   0  0  0  0  0  0  0  0  0  0  0  0
   54.0328  -36.2941 -109.1192 H   0  0  0  0  0  0  0  0  0  0  0  0
   57.6092  -37.3646 -110.7659 H   0  0  0  0  0  0  0  0  0  0  0  0
   56.1072  -38.1798 -111.2779 H   0  0  0  0  0  0  0  0  0  0  0  0
   56.7705  -30.3186 -105.7809 H   0  0  0  0  0  0  0  0  0  0  0  0
   55.0053  -29.4248 -103.6357 H   0  0  0  0  0  0  0  0  0  0  0  0
   55.2528  -27.1995 -104.6966 H   0  0  0  0  0  0  0  0  0  0  0  0
   56.1923  -27.9638 -106.0232 H   0  0  0  0  0  0  0  0  0  0  0  0
   58.0759  -28.1896 -104.7526 H   0  0  0  0  0  0  0  0  0  0  0  0
   58.3775  -26.2137 -103.2859 H   0  0  0  0  0  0  0  0  0  0  0  0
   56.6001  -25.9546 -103.2717 H   0  0  0  0  0  0  0  0  0  0  0  0
   57.5208  -25.7815 -104.8043 H   0  0  0  0  0  0  0  0  0  0  0  0
   57.0047  -29.6565 -103.0857 H   0  0  0  0  0  0  0  0  0  0  0  0
   56.3273  -28.2137 -102.2574 H   0  0  0  0  0  0  0  0  0  0  0  0
   58.1051  -28.4642 -102.3150 H   0  0  0  0  0  0  0  0  0  0  0  0
   54.5727  -30.6659 -106.8023 H   0  0  0  0  0  0  0  0  0  0  0  0
   51.8199  -29.5528 -106.8561 H   0  0  0  0  0  0  0  0  0  0  0  0
   52.0774  -29.5352 -109.3956 H   0  0  0  0  0  0  0  0  0  0  0  0
   53.8431  -29.6749 -109.0967 H   0  0  0  0  0  0  0  0  0  0  0  0
   53.9291  -27.5269 -108.0995 H   0  0  0  0  0  0  0  0  0  0  0  0
   53.1881  -26.0983 -110.0049 H   0  0  0  0  0  0  0  0  0  0  0  0
   52.2128  -27.4679 -110.6371 H   0  0  0  0  0  0  0  0  0  0  0  0
   54.0024  -27.6012 -110.5570 H   0  0  0  0  0  0  0  0  0  0  0  0
   51.7824  -27.5692 -106.8568 H   0  0  0  0  0  0  0  0  0  0  0  0
   50.8929  -27.3341 -108.3996 H   0  0  0  0  0  0  0  0  0  0  0  0
   51.9943  -26.0511 -107.7934 H   0  0  0  0  0  0  0  0  0  0  0  0
   51.5741  -30.7406 -109.5866 H   0  0  0  0  0  0  0  0  0  0  0  0
   50.3431  -32.5076 -110.3857 H   0  0  0  0  0  0  0  0  0  0  0  0
   50.4979  -34.6000 -107.9260 O   0  0  0  0  0  0  0  0  0  0  0  0
   51.6116  -34.6730 -110.3425 H   0  0  0  0  0  0  0  0  0  0  0  0
   52.7847  -33.9146 -109.2133 H   0  0  0  0  0  0  0  0  0  0  0  0
   53.4524  -33.7880 -111.4207 H   0  0  0  0  0  0  0  0  0  0  0  0
   50.5629  -34.4790 -106.9859 H   0  0  0  0  0  0  0  0  0  0  0  0
  1  2  1  0  0  0  0
  1 74  1  0  0  0  0
  1 75  1  0  0  0  0
  1 76  1  0  0  0  0
  2  3  1  0  0  0  0
  2  5  1  0  0  0  0
  2 77  1  1  0  0  0
  3  4  2  0  0  0  0
  3  9  1  0  0  0  0
  5  6  1  0  0  0  0
  5 78  1  0  0  0  0
  5 79  1  0  0  0  0
  6  7  1  0  0  0  0
  6 80  1  0  0  0  0
  6 81  1  0  0  0  0
  7  8  1  0  0  0  0
  8 82  1  0  0  0  0
  8 83  1  0  0  0  0
  8 84  1  0  0  0  0
  9 10  1  0  0  0  0
  9 85  1  0  0  0  0
 10 11  1  0  0  0  0
 10 13  1  0  0  0  0
 10 86  1  6  0  0  0
 11 12  1  0  0  0  0
 11 87  1  0  0  0  0
 11 88  1  0  0  0  0
 12 89  1  0  0  0  0
 13 14  2  0  0  0  0
 13 15  1  0  0  0  0
 15 16  1  0  0  0  0
 15 90  1  0  0  0  0
 16 17  1  0  0  0  0
 16 19  1  0  0  0  0
 16 91  1  1  0  0  0
 17 18  2  0  0  0  0
 17 24  1  0  0  0  0
 19 20  1  0  0  0  0
 19 92  1  0  0  0  0
 19 93  1  0  0  0  0
 20 21  1  0  0  0  0
 20 94  1  0  0  0  0
 20 95  1  0  0  0  0
 21 22  1  0  0  0  0
 21 23  2  0  0  0  0
 24 25  1  0  0  0  0
 24 96  1  0  0  0  0
 25 26  1  0  0  0  0
 25 28  1  0  0  0  0
 25 97  1  6  0  0  0
 26 27  2  0  0  0  0
 26 32  1  0  0  0  0
 28 29  1  0  0  0  0
 28 30  1  0  0  0  0
 28 98  1  1  0  0  0
 29 31  1  0  0  0  0
 29 99  1  0  0  0  0
 29100  1  0  0  0  0
 30101  1  0  0  0  0
 30102  1  0  0  0  0
 30103  1  0  0  0  0
 31104  1  0  0  0  0
 31105  1  0  0  0  0
 31106  1  0  0  0  0
 32 33  1  0  0  0  0
 32107  1  0  0  0  0
 33 34  1  0  0  0  0
 33 36  1  0  0  0  0
 33108  1  6  0  0  0
 34 35  2  0  0  0  0
 34 41  1  0  0  0  0
 36 37  1  0  0  0  0
 36109  1  0  0  0  0
 36110  1  0  0  0  0
 37 38  1  0  0  0  0
 37111  1  0  0  0  0
 37112  1  0  0  0  0
 38 39  1  0  0  0  0
 38113  1  0  0  0  0
 38114  1  0  0  0  0
 39 40  1  0  0  0  0
 39115  1  0  0  0  0
 39116  1  0  0  0  0
 40117  1  0  0  0  0
 40118  1  0  0  0  0
 40119  1  0  0  0  0
 41 42  1  0  0  0  0
 41120  1  0  0  0  0
 42 43  1  0  0  0  0
 42 45  1  0  0  0  0
 42121  1  6  0  0  0
 43 44  2  0  0  0  0
 43 52  1  0  0  0  0
 45 46  1  0  0  0  0
 45122  1  0  0  0  0
 45123  1  0  0  0  0
 46 47  1  0  0  0  0
 46124  1  0  0  0  0
 46125  1  0  0  0  0
 47 48  1  0  0  0  0
 47126  1  0  0  0  0
 47127  1  0  0  0  0
 48 49  1  0  0  0  0
 48128  1  0  0  0  0
 49 50  1  0  0  0  0
 49 51  1  0  0  0  0
 50129  1  0  0  0  0
 50130  1  0  0  0  0
 51131  1  0  0  0  0
 51132  1  0  0  0  0
 52 53  1  0  0  0  0
 52133  1  0  0  0  0
 53 54  1  0  0  0  0
 53 56  1  0  0  0  0
 53134  1  1  0  0  0
 54 55  2  0  0  0  0
 54 60  1  0  0  0  0
 56 57  1  0  0  0  0
 56135  1  0  0  0  0
 56136  1  0  0  0  0
 57 58  1  0  0  0  0
 57 59  1  0  0  0  0
 57137  1  0  0  0  0
 58138  1  0  0  0  0
 58139  1  0  0  0  0
 58140  1  0  0  0  0
 59141  1  0  0  0  0
 59142  1  0  0  0  0
 59143  1  0  0  0  0
 60 61  1  0  0  0  0
 60144  1  0  0  0  0
 61 62  1  0  0  0  0
 61 64  1  0  0  0  0
 61145  1  1  0  0  0
 62 63  2  0  0  0  0
 62 68  1  0  0  0  0
 64 65  1  0  0  0  0
 64146  1  0  0  0  0
 64147  1  0  0  0  0
 65 66  1  0  0  0  0
 65 67  1  0  0  0  0
 65148  1  0  0  0  0
 66149  1  0  0  0  0
 66150  1  0  0  0  0
 66151  1  0  0  0  0
 67152  1  0  0  0  0
 67153  1  0  0  0  0
 67154  1  0  0  0  0
 68 69  1  0  0  0  0
 68155  1  0  0  0  0
 69 70  1  0  0  0  0
 69 72  1  0  0  0  0
 69156  1  6  0  0  0
 70 71  2  0  0  0  0
 70157  1  0  0  0  0
 72 73  1  0  0  0  0
 72158  1  0  0  0  0
 72159  1  0  0  0  0
 73160  1  0  0  0  0
157161  1  0  0  0  0
M  CHG  3   1   1  22  -1  40   1
M  END
