2jnp_ligand
 OpenBabel08222323343D

 39 39  0  0  0  0  0  0  0  0999 V2000
    6.3150    1.5170    3.3910 C   0  0  0  0  0  0  0  0  0  0  0  0
    6.6380    1.5560    2.0360 C   0  0  0  0  0  0  0  0  0  0  0  0
    5.6600    1.8600    1.0930 C   0  0  0  0  0  0  0  0  0  0  0  0
    4.3500    2.0650    1.5100 C   0  0  0  0  0  0  0  0  0  0  0  0
    4.0130    1.9840    2.8620 C   0  0  0  0  0  0  0  0  0  0  0  0
    5.0000    1.7170    3.8110 C   0  0  0  0  0  0  0  0  0  0  0  0
    5.9480    1.9420   -0.2510 O   0  0  0  0  0  0  0  0  0  0  0  0
    7.1380    1.3270   -0.8150 C   0  0  0  0  0  0  0  0  0  0  0  0
    4.6030    1.7130    5.5610 S   0  0  0  0  0  0  0  0  0  0  0  0
    3.2770    2.2920    5.7390 O   0  0  0  0  0  0  0  0  0  0  0  0
    5.6470    2.3390    6.3570 O   0  0  0  0  0  0  0  0  0  0  0  0
    4.5010    0.1580    6.0890 N   0  0  0  0  0  0  0  0  0  0  0  0
    5.7190   -0.6690    6.3130 C   0  0  0  0  0  0  0  0  0  0  0  0
    3.2130   -0.4450    6.5250 C   0  0  0  0  0  0  0  0  0  0  0  0
    2.6170   -1.4380    5.5520 C   0  0  0  0  0  0  0  0  0  0  0  0
    1.8000   -0.9330    4.6050 N   0  0  0  0  0  0  0  0  0  0  0  0
    1.1360   -1.6650    3.8020 O   0  0  0  0  0  0  0  0  0  0  0  0
    2.8760   -2.6280    5.6000 O   0  0  0  0  0  0  0  0  0  0  0  0
    6.5150   -0.3390    7.6070 C   0  0  0  0  0  0  0  0  0  0  0  0
    7.6800   -1.3390    7.7520 C   0  0  0  0  0  0  0  0  0  0  0  0
    5.6380   -0.3710    8.8790 C   0  0  0  0  0  0  0  0  0  0  0  0
    7.0914    1.3299    4.1240 H   0  0  0  0  0  0  0  0  0  0  0  0
    7.6527    1.3492    1.7156 H   0  0  0  0  0  0  0  0  0  0  0  0
    3.5827    2.2900    0.7781 H   0  0  0  0  0  0  0  0  0  0  0  0
    2.9851    2.1285    3.1744 H   0  0  0  0  0  0  0  0  0  0  0  0
    7.1695    1.5150   -1.8984 H   0  0  0  0  0  0  0  0  0  0  0  0
    7.1124    0.2427   -0.6316 H   0  0  0  0  0  0  0  0  0  0  0  0
    8.0327    1.7579   -0.3420 H   0  0  0  0  0  0  0  0  0  0  0  0
    6.3910   -0.5246    5.4542 H   0  0  0  0  0  0  0  0  0  0  0  0
    5.4098   -1.7234    6.3635 H   0  0  0  0  0  0  0  0  0  0  0  0
    2.4868    0.3680    6.6723 H   0  0  0  0  0  0  0  0  0  0  0  0
    3.3833   -0.9622    7.4807 H   0  0  0  0  0  0  0  0  0  0  0  0
    6.9292    0.6749    7.5050 H   0  0  0  0  0  0  0  0  0  0  0  0
    8.2475   -1.1107    8.6663 H   0  0  0  0  0  0  0  0  0  0  0  0
    8.3438   -1.2578    6.8786 H   0  0  0  0  0  0  0  0  0  0  0  0
    7.2798   -2.3617    7.8146 H   0  0  0  0  0  0  0  0  0  0  0  0
    4.8088    0.3436    8.7707 H   0  0  0  0  0  0  0  0  0  0  0  0
    6.2479   -0.0954    9.7519 H   0  0  0  0  0  0  0  0  0  0  0  0
    5.2329   -1.3840    9.0197 H   0  0  0  0  0  0  0  0  0  0  0  0
  1  2  2  0  0  0  0
  1  6  1  0  0  0  0
  1 22  1  0  0  0  0
  2  3  1  0  0  0  0
  2 23  1  0  0  0  0
  3  4  2  0  0  0  0
  3  7  1  0  0  0  0
  4  5  1  0  0  0  0
  4 24  1  0  0  0  0
  5  6  2  0  0  0  0
  5 25  1  0  0  0  0
  6  9  1  0  0  0  0
  7  8  1  0  0  0  0
  8 26  1  0  0  0  0
  8 27  1  0  0  0  0
  8 28  1  0  0  0  0
  9 10  2  0  0  0  0
  9 11  2  0  0  0  0
  9 12  1  0  0  0  0
 12 13  1  0  0  0  0
 12 14  1  0  0  0  0
 13 19  1  0  0  0  0
 13 29  1  0  0  0  0
 13 30  1  0  0  0  0
 14 15  1  0  0  0  0
 14 31  1  0  0  0  0
 14 32  1  0  0  0  0
 15 16  1  0  0  0  0
 15 18  2  0  0  0  0
 16 17  2  0  0  0  0
 19 20  1  0  0  0  0
 19 21  1  0  0  0  0
 19 33  1  0  0  0  0
 20 34  1  0  0  0  0
 20 35  1  0  0  0  0
 20 36  1  0  0  0  0
 21 37  1  0  0  0  0
 21 38  1  0  0  0  0
 21 39  1  0  0  0  0
M  END
