2jt5_ligand
 OpenBabel08222323343D

 40 41  0  0  0  0  0  0  0  0999 V2000
    4.8520   -2.1340    7.1630 C   0  0  0  0  0  0  0  0  0  0  0  0
    5.0980   -0.9580    8.1440 C   0  0  0  0  0  0  0  0  0  0  0  0
    6.9120   -1.8460    9.5530 C   0  0  0  0  0  0  0  0  0  0  0  0
    3.5400   -2.6610    7.1380 N   0  0  0  0  0  0  0  0  0  0  0  0
    3.1530   -3.6060    6.4240 O   0  0  0  0  0  0  0  0  0  0  0  0
    5.8200   -2.5440    6.4710 O   0  0  0  0  0  0  0  0  0  0  0  0
    6.4230   -0.8040    8.6900 N   0  0  0  0  0  0  0  0  0  0  0  0
    7.3380    0.4800    8.3570 S   0  0  0  0  0  0  0  0  0  0  0  0
    7.7510   -2.9330    8.8600 C   0  0  0  0  0  0  0  0  0  0  0  0
    8.7340   -3.4200    9.7420 O   0  0  0  0  0  0  0  0  0  0  0  0
    8.5590    0.4380    9.0860 O   0  0  0  0  0  0  0  0  0  0  0  0
    7.6700    0.3980    6.6820 C   0  0  0  0  0  0  0  0  0  0  0  0
    6.6120    1.6870    8.5240 O   0  0  0  0  0  0  0  0  0  0  0  0
    8.4260   -0.6550    6.1610 C   0  0  0  0  0  0  0  0  0  0  0  0
    8.7090   -0.7280    4.8010 C   0  0  0  0  0  0  0  0  0  0  0  0
    8.2400    0.2630    3.9280 C   0  0  0  0  0  0  0  0  0  0  0  0
    7.4810    1.3220    4.4470 C   0  0  0  0  0  0  0  0  0  0  0  0
    7.2050    1.3820    5.8090 C   0  0  0  0  0  0  0  0  0  0  0  0
    8.5380    0.1920    2.5010 C   0  0  0  0  0  0  0  0  0  0  0  0
    7.8200    0.9710    1.5820 C   0  0  0  0  0  0  0  0  0  0  0  0
    8.1070    0.8970    0.2210 C   0  0  0  0  0  0  0  0  0  0  0  0
    9.1100    0.0440   -0.2390 C   0  0  0  0  0  0  0  0  0  0  0  0
    9.8270   -0.7360    0.6680 C   0  0  0  0  0  0  0  0  0  0  0  0
    9.5430   -0.6650    2.0300 C   0  0  0  0  0  0  0  0  0  0  0  0
    4.4074   -1.0869    8.9904 H   0  0  0  0  0  0  0  0  0  0  0  0
    4.8534   -0.0282    7.6095 H   0  0  0  0  0  0  0  0  0  0  0  0
    6.0448   -2.3336   10.0223 H   0  0  0  0  0  0  0  0  0  0  0  0
    7.5353   -1.3793   10.3300 H   0  0  0  0  0  0  0  0  0  0  0  0
    8.2388   -2.5052    7.9717 H   0  0  0  0  0  0  0  0  0  0  0  0
    7.0939   -3.7606    8.5547 H   0  0  0  0  0  0  0  0  0  0  0  0
    9.2462   -4.0902    9.3048 H   0  0  0  0  0  0  0  0  0  0  0  0
    8.7974   -1.4262    6.8261 H   0  0  0  0  0  0  0  0  0  0  0  0
    9.2945   -1.5546    4.4150 H   0  0  0  0  0  0  0  0  0  0  0  0
    7.1086    2.0956    3.7852 H   0  0  0  0  0  0  0  0  0  0  0  0
    6.6191    2.2067    6.1985 H   0  0  0  0  0  0  0  0  0  0  0  0
    7.0376    1.6342    1.9327 H   0  0  0  0  0  0  0  0  0  0  0  0
    7.5492    1.5042   -0.4827 H   0  0  0  0  0  0  0  0  0  0  0  0
    9.3317   -0.0126   -1.2986 H   0  0  0  0  0  0  0  0  0  0  0  0
   10.6072   -1.3992    0.3123 H   0  0  0  0  0  0  0  0  0  0  0  0
   10.1021   -1.2757    2.7297 H   0  0  0  0  0  0  0  0  0  0  0  0
  1  2  1  0  0  0  0
  1  4  1  0  0  0  0
  1  6  2  0  0  0  0
  2  7  1  0  0  0  0
  2 25  1  0  0  0  0
  2 26  1  0  0  0  0
  3  9  1  0  0  0  0
  3 27  1  0  0  0  0
  3 28  1  0  0  0  0
  4  5  2  0  0  0  0
  7  3  1  0  0  0  0
  7  8  1  0  0  0  0
  8 11  2  0  0  0  0
  8 12  1  0  0  0  0
  8 13  2  0  0  0  0
  9 10  1  0  0  0  0
  9 29  1  0  0  0  0
  9 30  1  0  0  0  0
 10 31  1  0  0  0  0
 12 14  2  0  0  0  0
 12 18  1  0  0  0  0
 14 15  1  0  0  0  0
 14 32  1  0  0  0  0
 15 16  2  0  0  0  0
 15 33  1  0  0  0  0
 16 17  1  0  0  0  0
 16 19  1  0  0  0  0
 17 18  2  0  0  0  0
 17 34  1  0  0  0  0
 18 35  1  0  0  0  0
 19 20  2  0  0  0  0
 19 24  1  0  0  0  0
 20 21  1  0  0  0  0
 20 36  1  0  0  0  0
 21 22  2  0  0  0  0
 21 37  1  0  0  0  0
 22 23  1  0  0  0  0
 22 38  1  0  0  0  0
 23 24  2  0  0  0  0
 23 39  1  0  0  0  0
 24 40  1  0  0  0  0
M  END
