2jup_ligand
 OpenBabel08222323343D

132137  0  0  1  0  0  0  0  0999 V2000
   -1.2300   18.4890   -8.4750 N   0  3  0  0  0  0  0  0  0  0  0  0
   -0.1990   18.1660   -7.4590 C   0  0  0  0  0  0  0  0  0  0  0  0
   -0.1870   16.6930   -7.1160 C   0  0  0  0  0  0  0  0  0  0  0  0
   -1.0950   15.9600   -7.5080 O   0  0  0  0  0  0  0  0  0  0  0  0
    0.8370   16.2230   -6.3870 N   0  0  0  0  0  0  0  0  0  0  0  0
    0.9310   14.8280   -5.9720 C   0  0  2  0  0  0  0  0  0  0  0  0
    0.0160   14.5380   -4.7840 C   0  0  0  0  0  0  0  0  0  0  0  0
   -0.2240   15.4140   -3.9520 O   0  0  0  0  0  0  0  0  0  0  0  0
    2.4030   14.6630   -5.5550 C   0  0  0  0  0  0  0  0  0  0  0  0
    3.0660   15.9820   -5.8210 C   0  0  0  0  0  0  0  0  0  0  0  0
    1.9730   17.0070   -5.8970 C   0  0  0  0  0  0  0  0  0  0  0  0
   -0.5110   13.3120   -4.6890 N   0  0  0  0  0  0  0  0  0  0  0  0
   -1.3740   12.9220   -3.5750 C   0  0  2  0  0  0  0  0  0  0  0  0
   -0.5800   12.6110   -2.3060 C   0  0  0  0  0  0  0  0  0  0  0  0
    0.5520   12.1270   -2.3730 O   0  0  0  0  0  0  0  0  0  0  0  0
   -2.0490   11.6530   -4.0950 C   0  0  0  0  0  0  0  0  0  0  0  0
   -1.0790   11.0690   -5.0670 C   0  0  0  0  0  0  0  0  0  0  0  0
   -0.3220   12.2230   -5.6640 C   0  0  0  0  0  0  0  0  0  0  0  0
   -1.1640   12.9020   -1.1530 N   0  0  0  0  0  0  0  0  0  0  0  0
   -0.5600   12.5200    0.1140 C   0  0  2  0  0  0  0  0  0  0  0  0
   -0.8550   11.0530    0.3730 C   0  0  0  0  0  0  0  0  0  0  0  0
   -1.9140   10.5590   -0.0230 O   0  0  0  0  0  0  0  0  0  0  0  0
   -1.0990   13.3730    1.2730 C   0  0  0  0  0  0  0  0  0  0  0  0
   -0.7930   14.8810    1.2170 C   0  0  0  0  0  0  0  0  0  0  0  0
    0.6860   15.1300    0.9670 C   0  0  0  0  0  0  0  0  0  0  0  0
   -1.6410   15.5880    0.1670 C   0  0  0  0  0  0  0  0  0  0  0  0
    0.0560   10.3530    1.0250 N   0  0  0  0  0  0  0  0  0  0  0  0
   -0.1940    8.9620    1.3600 C   0  0  2  0  0  0  0  0  0  0  0  0
   -1.0800    8.9020    2.5970 C   0  0  0  0  0  0  0  0  0  0  0  0
   -1.0030    9.7740    3.4670 O   0  0  0  0  0  0  0  0  0  0  0  0
    1.1190    8.1190    1.5810 C   0  0  2  0  0  0  0  0  0  0  0  0
    2.2010    8.5180    0.5610 C   0  0  0  0  0  0  0  0  0  0  0  0
    0.8280    6.6370    1.4510 C   0  0  0  0  0  0  0  0  0  0  0  0
    2.9470    9.7870    0.8920 C   0  0  0  0  0  0  0  0  0  0  0  0
   -1.9400    7.8880    2.6810 N   0  0  0  0  0  0  0  0  0  0  0  0
   -2.6170    7.5350    3.9250 C   0  0  2  0  0  0  0  0  0  0  0  0
   -1.6060    6.8450    4.8100 C   0  0  0  0  0  0  0  0  0  0  0  0
   -0.6660    6.2770    4.2900 O   0  0  0  0  0  0  0  0  0  0  0  0
   -3.6840    6.5220    3.4730 C   0  0  0  0  0  0  0  0  0  0  0  0
   -3.1340    5.9420    2.2210 C   0  0  0  0  0  0  0  0  0  0  0  0
   -2.3760    7.0480    1.5540 C   0  0  0  0  0  0  0  0  0  0  0  0
   -1.6890    6.9180    6.1320 N   0  0  0  0  0  0  0  0  0  0  0  0
   -0.7840    6.1190    6.9300 C   0  0  2  0  0  0  0  0  0  0  0  0
   -1.2740    4.6810    6.9290 C   0  0  0  0  0  0  0  0  0  0  0  0
   -2.4840    4.4410    6.9520 O   0  0  0  0  0  0  0  0  0  0  0  0
   -0.8980    6.7350    8.3360 C   0  0  0  0  0  0  0  0  0  0  0  0
   -1.7930    7.9350    8.1970 C   0  0  0  0  0  0  0  0  0  0  0  0
   -2.5870    7.7420    6.9340 C   0  0  0  0  0  0  0  0  0  0  0  0
   -0.3690    3.6970    6.9040 N   0  0  0  0  0  0  0  0  0  0  0  0
   -0.7710    2.3030    6.9230 C   0  0  2  0  0  0  0  0  0  0  0  0
   -1.1140    1.8090    8.3260 C   0  0  0  0  0  0  0  0  0  0  0  0
   -0.5450    2.2690    9.3230 O   0  0  0  0  0  0  0  0  0  0  0  0
    0.4310    1.5510    6.3400 C   0  0  0  0  0  0  0  0  0  0  0  0
    1.4910    2.5740    6.0990 C   0  0  0  0  0  0  0  0  0  0  0  0
    1.0920    3.8320    6.8030 C   0  0  0  0  0  0  0  0  0  0  0  0
   -2.0580    0.8670    8.3960 N   0  0  0  0  0  0  0  0  0  0  0  0
   -2.4340    0.1880    9.6360 C   0  0  2  0  0  0  0  0  0  0  0  0
   -1.4110   -0.8740   10.0360 C   0  0  0  0  0  0  0  0  0  0  0  0
   -0.4560   -0.5340   10.7590 O   0  5  0  0  0  0  0  0  0  0  0  0
   -3.7740   -0.4670    9.2820 C   0  0  0  0  0  0  0  0  0  0  0  0
   -3.7210   -0.6700    7.8020 C   0  0  0  0  0  0  0  0  0  0  0  0
   -2.8750    0.4340    7.2550 C   0  0  0  0  0  0  0  0  0  0  0  0
   -1.5580   -2.0410    9.6150 O   0  0  0  0  0  0  0  0  0  0  0  0
   -1.2061   19.4765   -8.6757 H   0  0  0  0  0  0  0  0  0  0  0  0
   -2.1403   18.2401   -8.1209 H   0  0  0  0  0  0  0  0  0  0  0  0
   -1.0443   17.9700   -9.3189 H   0  0  0  0  0  0  0  0  0  0  0  0
   -0.4073   18.7421   -6.5454 H   0  0  0  0  0  0  0  0  0  0  0  0
    0.7888   18.4474   -7.8528 H   0  0  0  0  0  0  0  0  0  0  0  0
    0.6784   14.1553   -6.8048 H   0  0  0  0  0  0  0  0  0  0  0  0
    2.8806   13.8700   -6.1491 H   0  0  0  0  0  0  0  0  0  0  0  0
    2.4703   14.4116   -4.4863 H   0  0  0  0  0  0  0  0  0  0  0  0
    3.6169   15.9443   -6.7723 H   0  0  0  0  0  0  0  0  0  0  0  0
    3.7606   16.2286   -5.0045 H   0  0  0  0  0  0  0  0  0  0  0  0
    1.7617   17.4370   -4.9068 H   0  0  0  0  0  0  0  0  0  0  0  0
    2.2321   17.8131   -6.5991 H   0  0  0  0  0  0  0  0  0  0  0  0
   -2.1132   13.7077   -3.3600 H   0  0  0  0  0  0  0  0  0  0  0  0
   -2.9977   11.8971   -4.5953 H   0  0  0  0  0  0  0  0  0  0  0  0
   -2.2395   10.9508   -3.2700 H   0  0  0  0  0  0  0  0  0  0  0  0
   -1.6152   10.5189   -5.8543 H   0  0  0  0  0  0  0  0  0  0  0  0
   -0.3870   10.3880   -4.5500 H   0  0  0  0  0  0  0  0  0  0  0  0
    0.7444   11.9767   -5.7740 H   0  0  0  0  0  0  0  0  0  0  0  0
   -0.7377   12.4987   -6.6444 H   0  0  0  0  0  0  0  0  0  0  0  0
   -2.0353   13.3928   -1.1537 H   0  0  0  0  0  0  0  0  0  0  0  0
    0.5285   12.6640    0.0474 H   0  0  0  0  0  0  0  0  0  0  0  0
   -0.6690   12.9793    2.2058 H   0  0  0  0  0  0  0  0  0  0  0  0
   -2.1924   13.2546    1.2947 H   0  0  0  0  0  0  0  0  0  0  0  0
   -1.0467   15.3099    2.1976 H   0  0  0  0  0  0  0  0  0  0  0  0
    0.8747   16.2131    0.9320 H   0  0  0  0  0  0  0  0  0  0  0  0
    0.9774   14.6760    0.0084 H   0  0  0  0  0  0  0  0  0  0  0  0
    1.2759   14.6812    1.7797 H   0  0  0  0  0  0  0  0  0  0  0  0
   -2.7057   15.3956    0.3654 H   0  0  0  0  0  0  0  0  0  0  0  0
   -1.3797   15.2083   -0.8318 H   0  0  0  0  0  0  0  0  0  0  0  0
   -1.4499   16.6704    0.2094 H   0  0  0  0  0  0  0  0  0  0  0  0
    0.9200   10.7819    1.2886 H   0  0  0  0  0  0  0  0  0  0  0  0
   -0.7400    8.5079    0.5200 H   0  0  0  0  0  0  0  0  0  0  0  0
    1.4967    8.3189    2.5946 H   0  0  0  0  0  0  0  0  0  0  0  0
    1.7161    8.6517   -0.4173 H   0  0  0  0  0  0  0  0  0  0  0  0
    2.9317    7.6981    0.4991 H   0  0  0  0  0  0  0  0  0  0  0  0
    0.0550    6.3499    2.1791 H   0  0  0  0  0  0  0  0  0  0  0  0
    1.7466    6.0644    1.6466 H   0  0  0  0  0  0  0  0  0  0  0  0
    0.4711    6.4213    0.4331 H   0  0  0  0  0  0  0  0  0  0  0  0
    3.6941    9.9877    0.1099 H   0  0  0  0  0  0  0  0  0  0  0  0
    3.4532    9.6724    1.8618 H   0  0  0  0  0  0  0  0  0  0  0  0
    2.2377   10.6260    0.9454 H   0  0  0  0  0  0  0  0  0  0  0  0
   -3.0599    8.4073    4.4279 H   0  0  0  0  0  0  0  0  0  0  0  0
   -4.6427    7.0259    3.2805 H   0  0  0  0  0  0  0  0  0  0  0  0
   -3.8267    5.7409    4.2342 H   0  0  0  0  0  0  0  0  0  0  0  0
   -3.9495    5.5913    1.5714 H   0  0  0  0  0  0  0  0  0  0  0  0
   -2.4618    5.1024    2.4514 H   0  0  0  0  0  0  0  0  0  0  0  0
   -1.5119    6.6543    0.9987 H   0  0  0  0  0  0  0  0  0  0  0  0
   -3.0252    7.6134    0.8693 H   0  0  0  0  0  0  0  0  0  0  0  0
    0.2479    6.1716    6.5526 H   0  0  0  0  0  0  0  0  0  0  0  0
    0.0942    7.0395    8.7005 H   0  0  0  0  0  0  0  0  0  0  0  0
   -1.3389    6.0096    9.0355 H   0  0  0  0  0  0  0  0  0  0  0  0
   -1.1890    8.8518    8.1280 H   0  0  0  0  0  0  0  0  0  0  0  0
   -2.4689    8.0054    9.0620 H   0  0  0  0  0  0  0  0  0  0  0  0
   -3.5351    7.2213    7.1340 H   0  0  0  0  0  0  0  0  0  0  0  0
   -2.7936    8.7035    6.4413 H   0  0  0  0  0  0  0  0  0  0  0  0
   -1.6520    2.1608    6.2799 H   0  0  0  0  0  0  0  0  0  0  0  0
    0.1521    1.0622    5.3949 H   0  0  0  0  0  0  0  0  0  0  0  0
    0.7884    0.7936    7.0531 H   0  0  0  0  0  0  0  0  0  0  0  0
    1.5863    2.7650    5.0199 H   0  0  0  0  0  0  0  0  0  0  0  0
    2.4526    2.2147    6.4942 H   0  0  0  0  0  0  0  0  0  0  0  0
    1.5545    3.8927    7.7992 H   0  0  0  0  0  0  0  0  0  0  0  0
    1.3686    4.7199    6.2156 H   0  0  0  0  0  0  0  0  0  0  0  0
   -2.5507    0.9103   10.4573 H   0  0  0  0  0  0  0  0  0  0  0  0
   -4.6114    0.1929    9.5528 H   0  0  0  0  0  0  0  0  0  0  0  0
   -3.8836   -1.4304    9.8015 H   0  0  0  0  0  0  0  0  0  0  0  0
   -4.7334   -0.6209    7.3747 H   0  0  0  0  0  0  0  0  0  0  0  0
   -3.2710   -1.6460    7.5677 H   0  0  0  0  0  0  0  0  0  0  0  0
   -2.2378    0.0673    6.4367 H   0  0  0  0  0  0  0  0  0  0  0  0
   -3.5021    1.2604    6.8893 H   0  0  0  0  0  0  0  0  0  0  0  0
  1  2  1  0  0  0  0
  1 64  1  0  0  0  0
  1 65  1  0  0  0  0
  1 66  1  0  0  0  0
  2  3  1  0  0  0  0
  2 67  1  0  0  0  0
  2 68  1  0  0  0  0
  3  4  2  0  0  0  0
  3  5  1  0  0  0  0
  5  6  1  0  0  0  0
  5 11  1  0  0  0  0
  6  7  1  0  0  0  0
  6  9  1  0  0  0  0
  6 69  1  6  0  0  0
  7  8  2  0  0  0  0
  7 12  1  0  0  0  0
  9 10  1  0  0  0  0
  9 70  1  0  0  0  0
  9 71  1  0  0  0  0
 10 11  1  0  0  0  0
 10 72  1  0  0  0  0
 10 73  1  0  0  0  0
 11 74  1  0  0  0  0
 11 75  1  0  0  0  0
 12 13  1  0  0  0  0
 12 18  1  0  0  0  0
 13 14  1  0  0  0  0
 13 16  1  0  0  0  0
 13 76  1  1  0  0  0
 14 15  2  0  0  0  0
 14 19  1  0  0  0  0
 16 17  1  0  0  0  0
 16 77  1  0  0  0  0
 16 78  1  0  0  0  0
 17 18  1  0  0  0  0
 17 79  1  0  0  0  0
 17 80  1  0  0  0  0
 18 81  1  0  0  0  0
 18 82  1  0  0  0  0
 19 20  1  0  0  0  0
 19 83  1  0  0  0  0
 20 21  1  0  0  0  0
 20 23  1  0  0  0  0
 20 84  1  6  0  0  0
 21 22  2  0  0  0  0
 21 27  1  0  0  0  0
 23 24  1  0  0  0  0
 23 85  1  0  0  0  0
 23 86  1  0  0  0  0
 24 25  1  0  0  0  0
 24 26  1  0  0  0  0
 24 87  1  0  0  0  0
 25 88  1  0  0  0  0
 25 89  1  0  0  0  0
 25 90  1  0  0  0  0
 26 91  1  0  0  0  0
 26 92  1  0  0  0  0
 26 93  1  0  0  0  0
 27 28  1  0  0  0  0
 27 94  1  0  0  0  0
 28 29  1  0  0  0  0
 28 31  1  0  0  0  0
 28 95  1  6  0  0  0
 29 30  2  0  0  0  0
 29 35  1  0  0  0  0
 31 32  1  0  0  0  0
 31 33  1  0  0  0  0
 31 96  1  1  0  0  0
 32 34  1  0  0  0  0
 32 97  1  0  0  0  0
 32 98  1  0  0  0  0
 33 99  1  0  0  0  0
 33100  1  0  0  0  0
 33101  1  0  0  0  0
 34102  1  0  0  0  0
 34103  1  0  0  0  0
 34104  1  0  0  0  0
 35 36  1  0  0  0  0
 35 41  1  0  0  0  0
 36 37  1  0  0  0  0
 36 39  1  0  0  0  0
 36105  1  1  0  0  0
 37 38  2  0  0  0  0
 37 42  1  0  0  0  0
 39 40  1  0  0  0  0
 39106  1  0  0  0  0
 39107  1  0  0  0  0
 40 41  1  0  0  0  0
 40108  1  0  0  0  0
 40109  1  0  0  0  0
 41110  1  0  0  0  0
 41111  1  0  0  0  0
 42 43  1  0  0  0  0
 42 48  1  0  0  0  0
 43 44  1  0  0  0  0
 43 46  1  0  0  0  0
 43112  1  6  0  0  0
 44 45  2  0  0  0  0
 44 49  1  0  0  0  0
 46 47  1  0  0  0  0
 46113  1  0  0  0  0
 46114  1  0  0  0  0
 47 48  1  0  0  0  0
 47115  1  0  0  0  0
 47116  1  0  0  0  0
 48117  1  0  0  0  0
 48118  1  0  0  0  0
 49 50  1  0  0  0  0
 49 55  1  0  0  0  0
 50 51  1  0  0  0  0
 50 53  1  0  0  0  0
 50119  1  6  0  0  0
 51 52  2  0  0  0  0
 51 56  1  0  0  0  0
 53 54  1  0  0  0  0
 53120  1  0  0  0  0
 53121  1  0  0  0  0
 54 55  1  0  0  0  0
 54122  1  0  0  0  0
 54123  1  0  0  0  0
 55124  1  0  0  0  0
 55125  1  0  0  0  0
 56 57  1  0  0  0  0
 56 62  1  0  0  0  0
 57 58  1  0  0  0  0
 57 60  1  0  0  0  0
 57126  1  1  0  0  0
 58 59  1  0  0  0  0
 58 63  2  0  0  0  0
 60 61  1  0  0  0  0
 60127  1  0  0  0  0
 60128  1  0  0  0  0
 61 62  1  0  0  0  0
 61129  1  0  0  0  0
 61130  1  0  0  0  0
 62131  1  0  0  0  0
 62132  1  0  0  0  0
M  CHG  2   1   1  59  -1
M  END
