2k2r_ligand
 OpenBabel08222323343D

150149  0  0  1  0  0  0  0  0999 V2000
   17.8740   -2.6230   -3.7930 N   0  3  0  0  0  0  0  0  0  0  0  0
   17.5650   -1.2280   -4.2170 C   0  0  2  0  0  0  0  0  0  0  0  0
   17.6790   -0.2920   -3.0120 C   0  0  0  0  0  0  0  0  0  0  0  0
   16.9440    0.6670   -2.8860 O   0  0  0  0  0  0  0  0  0  0  0  0
   16.1420   -1.1690   -4.7750 C   0  0  0  0  0  0  0  0  0  0  0  0
   15.1530   -1.6160   -3.6970 C   0  0  0  0  0  0  0  0  0  0  0  0
   15.1440   -2.7940   -3.3800 O   0  5  0  0  0  0  0  0  0  0  0  0
   14.4210   -0.7720   -3.2070 O   0  0  0  0  0  0  0  0  0  0  0  0
   18.5940   -0.5650   -2.1230 N   0  0  0  0  0  0  0  0  0  0  0  0
   18.7550    0.3060   -0.9240 C   0  0  2  0  0  0  0  0  0  0  0  0
   19.2680    1.6810   -1.3570 C   0  0  0  0  0  0  0  0  0  0  0  0
   18.6010    2.6860   -1.2080 O   0  0  0  0  0  0  0  0  0  0  0  0
   19.7620   -0.3460    0.0430 C   0  0  0  0  0  0  0  0  0  0  0  0
   19.5100    0.1200    1.4900 C   0  0  0  0  0  0  0  0  0  0  0  0
   19.4620    1.6500    1.5470 C   0  0  0  0  0  0  0  0  0  0  0  0
   18.1860   -0.4630    2.0260 C   0  0  0  0  0  0  0  0  0  0  0  0
   20.4570    1.7230   -1.8800 N   0  0  0  0  0  0  0  0  0  0  0  0
   21.0490    3.0190   -2.3190 C   0  0  2  0  0  0  0  0  0  0  0  0
   20.0130    3.8490   -3.0830 C   0  0  0  0  0  0  0  0  0  0  0  0
   19.9730    5.0540   -2.9670 O   0  0  0  0  0  0  0  0  0  0  0  0
   22.2470    2.7440   -3.2290 C   0  0  0  0  0  0  0  0  0  0  0  0
   22.8070    4.0690   -3.7520 C   0  0  0  0  0  0  0  0  0  0  0  0
   23.5450    4.7070   -3.0210 O   0  5  0  0  0  0  0  0  0  0  0  0
   22.4880    4.4210   -4.8760 O   0  0  0  0  0  0  0  0  0  0  0  0
   19.1860    3.2230   -3.8730 N   0  0  0  0  0  0  0  0  0  0  0  0
   18.1710    3.9950   -4.6510 C   0  0  2  0  0  0  0  0  0  0  0  0
   17.0520    4.4930   -3.7280 C   0  0  0  0  0  0  0  0  0  0  0  0
   16.6670    5.6460   -3.7700 O   0  0  0  0  0  0  0  0  0  0  0  0
   17.5750    3.0930   -5.7330 C   0  0  0  0  0  0  0  0  0  0  0  0
   16.5200    3.6330   -2.9050 N   0  0  0  0  0  0  0  0  0  0  0  0
   15.4210    4.0470   -1.9910 C   0  0  2  0  0  0  0  0  0  0  0  0
   15.7950    5.3510   -1.2710 C   0  0  0  0  0  0  0  0  0  0  0  0
   14.9690    6.2240   -1.0840 O   0  0  0  0  0  0  0  0  0  0  0  0
   15.1960    2.9260   -0.9600 C   0  0  0  0  0  0  0  0  0  0  0  0
   14.2340    1.8570   -1.5240 C   0  0  0  0  0  0  0  0  0  0  0  0
   14.4880    0.5150   -0.8300 C   0  0  0  0  0  0  0  0  0  0  0  0
   12.7790    2.2760   -1.2740 C   0  0  0  0  0  0  0  0  0  0  0  0
   17.0240    5.4880   -0.8530 N   0  0  0  0  0  0  0  0  0  0  0  0
   17.4300    6.7310   -0.1300 C   0  0  2  0  0  0  0  0  0  0  0  0
   17.8120    7.8170   -1.1400 C   0  0  0  0  0  0  0  0  0  0  0  0
   17.5600    8.9870   -0.9300 O   0  0  0  0  0  0  0  0  0  0  0  0
   18.6230    6.4110    0.7790 C   0  0  0  0  0  0  0  0  0  0  0  0
   18.9430    7.6130    1.6930 C   0  0  0  0  0  0  0  0  0  0  0  0
   18.0060    7.6290    2.9090 C   0  0  0  0  0  0  0  0  0  0  0  0
   20.3900    7.5090    2.1870 C   0  0  0  0  0  0  0  0  0  0  0  0
   18.4110    7.4420   -2.2340 N   0  0  0  0  0  0  0  0  0  0  0  0
   18.8000    8.4550   -3.2540 C   0  0  2  0  0  0  0  0  0  0  0  0
   17.5500    9.1990   -3.7220 C   0  0  0  0  0  0  0  0  0  0  0  0
   17.6310   10.2560   -4.3160 O   0  0  0  0  0  0  0  0  0  0  0  0
   19.4550    7.7580   -4.4480 C   0  0  0  0  0  0  0  0  0  0  0  0
   16.3910    8.6510   -3.4520 N   0  0  0  0  0  0  0  0  0  0  0  0
   15.1140    9.3110   -3.8700 C   0  0  2  0  0  0  0  0  0  0  0  0
   14.4050    9.8790   -2.6370 C   0  0  0  0  0  0  0  0  0  0  0  0
   13.6700   10.8430   -2.7210 O   0  0  0  0  0  0  0  0  0  0  0  0
   14.2100    8.2740   -4.5400 C   0  0  0  0  0  0  0  0  0  0  0  0
   13.0460    8.9800   -5.2370 C   0  0  0  0  0  0  0  0  0  0  0  0
   12.5340    9.9340   -4.6730 O   0  5  0  0  0  0  0  0  0  0  0  0
   12.6850    8.5550   -6.3220 O   0  0  0  0  0  0  0  0  0  0  0  0
   14.6120    9.2840   -1.4920 N   0  0  0  0  0  0  0  0  0  0  0  0
   13.9410    9.7860   -0.2560 C   0  0  2  0  0  0  0  0  0  0  0  0
   14.6880   11.0110    0.2880 C   0  0  0  0  0  0  0  0  0  0  0  0
   14.2470   11.6540    1.2190 O   0  0  0  0  0  0  0  0  0  0  0  0
   13.9350    8.6700    0.8010 C   0  0  0  0  0  0  0  0  0  0  0  0
   12.8640    8.9550    1.8770 C   0  0  0  0  0  0  0  0  0  0  0  0
   11.4950    8.4380    1.4150 C   0  0  0  0  0  0  0  0  0  0  0  0
   13.2440    8.2460    3.1820 C   0  0  0  0  0  0  0  0  0  0  0  0
   15.8170   11.3400   -0.2810 N   0  0  0  0  0  0  0  0  0  0  0  0
   16.5890   12.5160    0.2050 C   0  0  2  0  0  0  0  0  0  0  0  0
   15.6470   13.7090    0.4200 C   0  0  0  0  0  0  0  0  0  0  0  0
   15.9410   14.5230    1.2800 O   0  5  0  0  0  0  0  0  0  0  0  0
   17.6860   12.8750   -0.8090 C   0  0  0  0  0  0  0  0  0  0  0  0
   17.2880   12.3300   -2.1610 C   0  0  0  0  0  0  0  0  0  0  0  0
   18.1080   12.9960   -3.2680 C   0  0  0  0  0  0  0  0  0  0  0  0
   19.0530   13.6940   -2.9410 O   0  5  0  0  0  0  0  0  0  0  0  0
   17.7770   12.7940   -4.4250 O   0  0  0  0  0  0  0  0  0  0  0  0
   14.6510   13.7860   -0.2800 O   0  0  0  0  0  0  0  0  0  0  0  0
   17.7990   -3.2398   -4.5867 H   0  0  0  0  0  0  0  0  0  0  0  0
   17.2207   -2.9104   -3.0812 H   0  0  0  0  0  0  0  0  0  0  0  0
   18.8113   -2.6623   -3.4244 H   0  0  0  0  0  0  0  0  0  0  0  0
   18.2773   -0.9142   -4.9942 H   0  0  0  0  0  0  0  0  0  0  0  0
   16.0616   -1.8362   -5.6458 H   0  0  0  0  0  0  0  0  0  0  0  0
   15.9103   -0.1380   -5.0804 H   0  0  0  0  0  0  0  0  0  0  0  0
   19.1883   -1.3598   -2.2461 H   0  0  0  0  0  0  0  0  0  0  0  0
   17.7841    0.4205   -0.4197 H   0  0  0  0  0  0  0  0  0  0  0  0
   20.7826   -0.0635   -0.2544 H   0  0  0  0  0  0  0  0  0  0  0  0
   19.6547   -1.4396   -0.0077 H   0  0  0  0  0  0  0  0  0  0  0  0
   20.3357   -0.2347    2.1243 H   0  0  0  0  0  0  0  0  0  0  0  0
   19.2818    1.9728    2.5830 H   0  0  0  0  0  0  0  0  0  0  0  0
   18.6491    2.0156    0.9024 H   0  0  0  0  0  0  0  0  0  0  0  0
   20.4206    2.0603    1.1966 H   0  0  0  0  0  0  0  0  0  0  0  0
   18.2251   -1.5615    1.9831 H   0  0  0  0  0  0  0  0  0  0  0  0
   17.3499   -0.1016    1.4093 H   0  0  0  0  0  0  0  0  0  0  0  0
   18.0390   -0.1417    3.0677 H   0  0  0  0  0  0  0  0  0  0  0  0
   20.9800    0.8777   -1.9891 H   0  0  0  0  0  0  0  0  0  0  0  0
   21.3828    3.5821   -1.4350 H   0  0  0  0  0  0  0  0  0  0  0  0
   21.9274    2.1210   -4.0774 H   0  0  0  0  0  0  0  0  0  0  0  0
   23.0262    2.2162   -2.6595 H   0  0  0  0  0  0  0  0  0  0  0  0
   19.2311    2.2276   -3.9580 H   0  0  0  0  0  0  0  0  0  0  0  0
   18.6594    4.8595   -5.1244 H   0  0  0  0  0  0  0  0  0  0  0  0
   16.8266    3.6569   -6.3091 H   0  0  0  0  0  0  0  0  0  0  0  0
   17.0952    2.2227   -5.2615 H   0  0  0  0  0  0  0  0  0  0  0  0
   18.3745    2.7508   -6.4065 H   0  0  0  0  0  0  0  0  0  0  0  0
   16.8523    2.6900   -2.8879 H   0  0  0  0  0  0  0  0  0  0  0  0
   14.4999    4.2045   -2.5712 H   0  0  0  0  0  0  0  0  0  0  0  0
   14.7622    3.3569   -0.0456 H   0  0  0  0  0  0  0  0  0  0  0  0
   16.1608    2.4548   -0.7213 H   0  0  0  0  0  0  0  0  0  0  0  0
   14.4039    1.7496   -2.6055 H   0  0  0  0  0  0  0  0  0  0  0  0
   13.8010   -0.2428   -1.2346 H   0  0  0  0  0  0  0  0  0  0  0  0
   14.3184    0.6235    0.2514 H   0  0  0  0  0  0  0  0  0  0  0  0
   15.5269    0.2007   -1.0085 H   0  0  0  0  0  0  0  0  0  0  0  0
   12.5848    3.2394   -1.7682 H   0  0  0  0  0  0  0  0  0  0  0  0
   12.6074    2.3777   -0.1923 H   0  0  0  0  0  0  0  0  0  0  0  0
   12.1019    1.5114   -1.6824 H   0  0  0  0  0  0  0  0  0  0  0  0
   17.6925    4.7625   -1.0163 H   0  0  0  0  0  0  0  0  0  0  0  0
   16.5899    7.0880    0.4838 H   0  0  0  0  0  0  0  0  0  0  0  0
   19.5017    6.1850    0.1571 H   0  0  0  0  0  0  0  0  0  0  0  0
   18.3798    5.5374    1.4016 H   0  0  0  0  0  0  0  0  0  0  0  0
   18.8152    8.5449    1.1227 H   0  0  0  0  0  0  0  0  0  0  0  0
   18.2488    8.4911    3.5476 H   0  0  0  0  0  0  0  0  0  0  0  0
   18.1346    6.6997    3.4832 H   0  0  0  0  0  0  0  0  0  0  0  0
   16.9633    7.7078    2.5675 H   0  0  0  0  0  0  0  0  0  0  0  0
   21.0720    7.4966    1.3240 H   0  0  0  0  0  0  0  0  0  0  0  0
   20.5141    6.5819    2.7658 H   0  0  0  0  0  0  0  0  0  0  0  0
   20.6225    8.3739    2.8257 H   0  0  0  0  0  0  0  0  0  0  0  0
   18.6096    6.4743   -2.3890 H   0  0  0  0  0  0  0  0  0  0  0  0
   19.5101    9.1690   -2.8114 H   0  0  0  0  0  0  0  0  0  0  0  0
   19.7410    8.5089   -5.1992 H   0  0  0  0  0  0  0  0  0  0  0  0
   18.7436    7.0468   -4.8929 H   0  0  0  0  0  0  0  0  0  0  0  0
   20.3514    7.2173   -4.1104 H   0  0  0  0  0  0  0  0  0  0  0  0
   16.3590    7.7807   -2.9604 H   0  0  0  0  0  0  0  0  0  0  0  0
   15.3325   10.1244   -4.5776 H   0  0  0  0  0  0  0  0  0  0  0  0
   13.8165    7.5849   -3.7782 H   0  0  0  0  0  0  0  0  0  0  0  0
   14.7911    7.7070   -5.2822 H   0  0  0  0  0  0  0  0  0  0  0  0
   15.2203    8.4918   -1.4435 H   0  0  0  0  0  0  0  0  0  0  0  0
   12.9051   10.0698   -0.4935 H   0  0  0  0  0  0  0  0  0  0  0  0
   14.9243    8.6178    1.2790 H   0  0  0  0  0  0  0  0  0  0  0  0
   13.7123    7.7096    0.3132 H   0  0  0  0  0  0  0  0  0  0  0  0
   12.8052   10.0395    2.0513 H   0  0  0  0  0  0  0  0  0  0  0  0
   10.7433    8.6476    2.1902 H   0  0  0  0  0  0  0  0  0  0  0  0
   11.5517    7.3530    1.2431 H   0  0  0  0  0  0  0  0  0  0  0  0
   11.2087    8.9428    0.4806 H   0  0  0  0  0  0  0  0  0  0  0  0
   14.2247    8.6084    3.5240 H   0  0  0  0  0  0  0  0  0  0  0  0
   13.2942    7.1609    3.0086 H   0  0  0  0  0  0  0  0  0  0  0  0
   12.4859    8.4600    3.9498 H   0  0  0  0  0  0  0  0  0  0  0  0
   16.1643   10.7990   -1.0470 H   0  0  0  0  0  0  0  0  0  0  0  0
   17.0623   12.2604    1.1645 H   0  0  0  0  0  0  0  0  0  0  0  0
   18.6411   12.4283   -0.4957 H   0  0  0  0  0  0  0  0  0  0  0  0
   17.7940   13.9681   -0.8671 H   0  0  0  0  0  0  0  0  0  0  0  0
   16.2198   12.5292   -2.3318 H   0  0  0  0  0  0  0  0  0  0  0  0
   17.4665   11.2448   -2.1810 H   0  0  0  0  0  0  0  0  0  0  0  0
  1  2  1  0  0  0  0
  1 77  1  0  0  0  0
  1 78  1  0  0  0  0
  1 79  1  0  0  0  0
  2  3  1  0  0  0  0
  2  5  1  0  0  0  0
  2 80  1  6  0  0  0
  3  4  2  0  0  0  0
  3  9  1  0  0  0  0
  5  6  1  0  0  0  0
  5 81  1  0  0  0  0
  5 82  1  0  0  0  0
  6  7  1  0  0  0  0
  6  8  2  0  0  0  0
  9 10  1  0  0  0  0
  9 83  1  0  0  0  0
 10 11  1  0  0  0  0
 10 13  1  0  0  0  0
 10 84  1  1  0  0  0
 11 12  2  0  0  0  0
 11 17  1  0  0  0  0
 13 14  1  0  0  0  0
 13 85  1  0  0  0  0
 13 86  1  0  0  0  0
 14 15  1  0  0  0  0
 14 16  1  0  0  0  0
 14 87  1  0  0  0  0
 15 88  1  0  0  0  0
 15 89  1  0  0  0  0
 15 90  1  0  0  0  0
 16 91  1  0  0  0  0
 16 92  1  0  0  0  0
 16 93  1  0  0  0  0
 17 18  1  0  0  0  0
 17 94  1  0  0  0  0
 18 19  1  0  0  0  0
 18 21  1  0  0  0  0
 18 95  1  1  0  0  0
 19 20  2  0  0  0  0
 19 25  1  0  0  0  0
 21 22  1  0  0  0  0
 21 96  1  0  0  0  0
 21 97  1  0  0  0  0
 22 23  1  0  0  0  0
 22 24  2  0  0  0  0
 25 26  1  0  0  0  0
 25 98  1  0  0  0  0
 26 27  1  0  0  0  0
 26 29  1  0  0  0  0
 26 99  1  6  0  0  0
 27 28  2  0  0  0  0
 27 30  1  0  0  0  0
 29100  1  0  0  0  0
 29101  1  0  0  0  0
 29102  1  0  0  0  0
 30 31  1  0  0  0  0
 30103  1  0  0  0  0
 31 32  1  0  0  0  0
 31 34  1  0  0  0  0
 31104  1  6  0  0  0
 32 33  2  0  0  0  0
 32 38  1  0  0  0  0
 34 35  1  0  0  0  0
 34105  1  0  0  0  0
 34106  1  0  0  0  0
 35 36  1  0  0  0  0
 35 37  1  0  0  0  0
 35107  1  0  0  0  0
 36108  1  0  0  0  0
 36109  1  0  0  0  0
 36110  1  0  0  0  0
 37111  1  0  0  0  0
 37112  1  0  0  0  0
 37113  1  0  0  0  0
 38 39  1  0  0  0  0
 38114  1  0  0  0  0
 39 40  1  0  0  0  0
 39 42  1  0  0  0  0
 39115  1  1  0  0  0
 40 41  2  0  0  0  0
 40 46  1  0  0  0  0
 42 43  1  0  0  0  0
 42116  1  0  0  0  0
 42117  1  0  0  0  0
 43 44  1  0  0  0  0
 43 45  1  0  0  0  0
 43118  1  0  0  0  0
 44119  1  0  0  0  0
 44120  1  0  0  0  0
 44121  1  0  0  0  0
 45122  1  0  0  0  0
 45123  1  0  0  0  0
 45124  1  0  0  0  0
 46 47  1  0  0  0  0
 46125  1  0  0  0  0
 47 48  1  0  0  0  0
 47 50  1  0  0  0  0
 47126  1  1  0  0  0
 48 49  2  0  0  0  0
 48 51  1  0  0  0  0
 50127  1  0  0  0  0
 50128  1  0  0  0  0
 50129  1  0  0  0  0
 51 52  1  0  0  0  0
 51130  1  0  0  0  0
 52 53  1  0  0  0  0
 52 55  1  0  0  0  0
 52131  1  6  0  0  0
 53 54  2  0  0  0  0
 53 59  1  0  0  0  0
 55 56  1  0  0  0  0
 55132  1  0  0  0  0
 55133  1  0  0  0  0
 56 57  1  0  0  0  0
 56 58  2  0  0  0  0
 59 60  1  0  0  0  0
 59134  1  0  0  0  0
 60 61  1  0  0  0  0
 60 63  1  0  0  0  0
 60135  1  6  0  0  0
 61 62  2  0  0  0  0
 61 67  1  0  0  0  0
 63 64  1  0  0  0  0
 63136  1  0  0  0  0
 63137  1  0  0  0  0
 64 65  1  0  0  0  0
 64 66  1  0  0  0  0
 64138  1  0  0  0  0
 65139  1  0  0  0  0
 65140  1  0  0  0  0
 65141  1  0  0  0  0
 66142  1  0  0  0  0
 66143  1  0  0  0  0
 66144  1  0  0  0  0
 67 68  1  0  0  0  0
 67145  1  0  0  0  0
 68 69  1  0  0  0  0
 68 71  1  0  0  0  0
 68146  1  1  0  0  0
 69 70  1  0  0  0  0
 69 76  2  0  0  0  0
 71 72  1  0  0  0  0
 71147  1  0  0  0  0
 71148  1  0  0  0  0
 72 73  1  0  0  0  0
 72149  1  0  0  0  0
 72150  1  0  0  0  0
 73 74  1  0  0  0  0
 73 75  2  0  0  0  0
M  CHG  6   1   1   7  -1  23  -1  57  -1  70  -1  74  -1
M  END
