2k46_ligand
 OpenBabel08222323343D

 45 46  0  0  1  0  0  0  0  0999 V2000
  -16.1360   -6.4720   -3.2400 O   0  0  0  0  0  0  0  0  0  0  0  0
  -18.0500   -6.2190   -4.7560 C   0  0  2  0  0  0  0  0  0  0  0  0
  -18.7610   -5.5860   -3.6750 O   0  0  0  0  0  0  0  0  0  0  0  0
  -16.4940   -6.0750   -4.5570 C   0  0  1  0  0  0  0  0  0  0  0  0
  -16.0250   -4.5850   -4.8330 C   0  0  1  0  0  0  0  0  0  0  0  0
  -14.6040   -4.5310   -4.7880 O   0  0  0  0  0  0  0  0  0  0  0  0
  -16.5120   -4.0560   -6.2360 C   0  0  2  0  0  0  0  0  0  0  0  0
  -16.1710   -2.6790   -6.3640 O   0  0  0  0  0  0  0  0  0  0  0  0
  -18.0750   -4.2390   -6.3830 C   0  0  2  0  0  0  0  0  0  0  0  0
  -18.4470   -5.6600   -6.0810 O   0  0  0  0  0  0  0  0  0  0  0  0
  -18.6000   -3.9220   -7.7920 C   0  0  0  0  0  0  0  0  0  0  0  0
  -18.5180   -4.9100   -8.8080 O   0  0  0  0  0  0  0  0  0  0  0  0
  -22.4510   -5.4180   -2.5600 C   0  0  2  0  0  0  0  0  0  0  0  0
  -23.2030   -5.9040   -3.6620 O   0  0  0  0  0  0  0  0  0  0  0  0
  -21.0760   -4.9020   -3.1260 C   0  0  2  0  0  0  0  0  0  0  0  0
  -21.2240   -4.1290   -4.3120 O   0  0  0  0  0  0  0  0  0  0  0  0
  -20.0680   -6.1210   -3.3000 C   0  0  2  0  0  0  0  0  0  0  0  0
  -19.9310   -6.9870   -1.9810 C   0  0  2  0  0  0  0  0  0  0  0  0
  -19.0680   -8.0980   -2.2070 O   0  0  0  0  0  0  0  0  0  0  0  0
  -21.3690   -7.4490   -1.5280 C   0  0  2  0  0  0  0  0  0  0  0  0
  -22.2940   -6.2930   -1.3670 O   0  0  0  0  0  0  0  0  0  0  0  0
  -21.2640   -8.3230   -0.2720 C   0  0  0  0  0  0  0  0  0  0  0  0
  -20.3580   -7.8160    0.7060 O   0  0  0  0  0  0  0  0  0  0  0  0
  -16.5854   -5.9199   -2.6108 H   0  0  0  0  0  0  0  0  0  0  0  0
  -18.3023   -7.2896   -4.7472 H   0  0  0  0  0  0  0  0  0  0  0  0
  -15.9869   -6.7376   -5.2738 H   0  0  0  0  0  0  0  0  0  0  0  0
  -16.4391   -3.9347   -4.0484 H   0  0  0  0  0  0  0  0  0  0  0  0
  -14.3167   -3.6406   -4.9527 H   0  0  0  0  0  0  0  0  0  0  0  0
  -16.0094   -4.6280   -7.0298 H   0  0  0  0  0  0  0  0  0  0  0  0
  -15.2287   -2.5796   -6.2956 H   0  0  0  0  0  0  0  0  0  0  0  0
  -18.5690   -3.5694   -5.6636 H   0  0  0  0  0  0  0  0  0  0  0  0
  -18.0407   -3.0459   -8.1521 H   0  0  0  0  0  0  0  0  0  0  0  0
  -19.6631   -3.6601   -7.6858 H   0  0  0  0  0  0  0  0  0  0  0  0
  -19.0100   -5.6778   -8.5419 H   0  0  0  0  0  0  0  0  0  0  0  0
  -22.9962   -4.5369   -2.1906 H   0  0  0  0  0  0  0  0  0  0  0  0
  -23.2202   -5.2461   -4.3470 H   0  0  0  0  0  0  0  0  0  0  0  0
  -20.6446   -4.2321   -2.3677 H   0  0  0  0  0  0  0  0  0  0  0  0
  -21.6353   -4.6589   -4.9847 H   0  0  0  0  0  0  0  0  0  0  0  0
  -20.4381   -6.7718   -4.1059 H   0  0  0  0  0  0  0  0  0  0  0  0
  -19.4941   -6.3636   -1.1870 H   0  0  0  0  0  0  0  0  0  0  0  0
  -18.2089   -7.7833   -2.4629 H   0  0  0  0  0  0  0  0  0  0  0  0
  -21.7825   -8.0791   -2.3293 H   0  0  0  0  0  0  0  0  0  0  0  0
  -20.9243   -9.3248   -0.5736 H   0  0  0  0  0  0  0  0  0  0  0  0
  -22.2621   -8.3962    0.1844 H   0  0  0  0  0  0  0  0  0  0  0  0
  -19.4880   -7.7561    0.3292 H   0  0  0  0  0  0  0  0  0  0  0  0
  1 24  1  0  0  0  0
  2  4  1  0  0  0  0
  2 10  1  0  0  0  0
  2 25  1  1  0  0  0
  3  2  1  0  0  0  0
  4  1  1  0  0  0  0
  4  5  1  0  0  0  0
  4 26  1  6  0  0  0
  5  6  1  0  0  0  0
  5  7  1  0  0  0  0
  5 27  1  1  0  0  0
  6 28  1  0  0  0  0
  7  8  1  0  0  0  0
  7 29  1  6  0  0  0
  8 30  1  0  0  0  0
  9  7  1  0  0  0  0
  9 11  1  0  0  0  0
  9 31  1  1  0  0  0
 10  9  1  0  0  0  0
 11 12  1  0  0  0  0
 11 32  1  0  0  0  0
 11 33  1  0  0  0  0
 12 34  1  0  0  0  0
 13 14  1  0  0  0  0
 13 21  1  0  0  0  0
 13 35  1  1  0  0  0
 14 36  1  0  0  0  0
 15 13  1  0  0  0  0
 15 16  1  0  0  0  0
 15 17  1  0  0  0  0
 15 37  1  1  0  0  0
 16 38  1  0  0  0  0
 17  3  1  0  0  0  0
 17 18  1  0  0  0  0
 17 39  1  6  0  0  0
 18 19  1  0  0  0  0
 18 20  1  0  0  0  0
 18 40  1  1  0  0  0
 19 41  1  0  0  0  0
 20 21  1  0  0  0  0
 20 22  1  0  0  0  0
 20 42  1  6  0  0  0
 22 23  1  0  0  0  0
 22 43  1  0  0  0  0
 22 44  1  0  0  0  0
 23 45  1  0  0  0  0
M  END
