2kff_ligand
 OpenBabel08222323343D

192195  0  0  1  0  0  0  0  0999 V2000
   13.2890   17.7240  -15.8450 N   0  3  0  0  0  0  0  0  0  0  0  0
   12.3710   16.7100  -15.2870 C   0  0  2  0  0  0  0  0  0  0  0  0
   13.1240   15.7750  -14.3490 C   0  0  0  0  0  0  0  0  0  0  0  0
   13.9360   14.9610  -14.7890 O   0  0  0  0  0  0  0  0  0  0  0  0
   11.7120   15.8920  -16.4050 C   0  0  0  0  0  0  0  0  0  0  0  0
   10.8120   16.6950  -17.3080 C   0  0  0  0  0  0  0  0  0  0  0  0
    9.5020   16.9610  -16.9420 C   0  0  0  0  0  0  0  0  0  0  0  0
   11.2760   17.1790  -18.5220 C   0  0  0  0  0  0  0  0  0  0  0  0
    8.6740   17.6990  -17.7660 C   0  0  0  0  0  0  0  0  0  0  0  0
   10.4520   17.9180  -19.3490 C   0  0  0  0  0  0  0  0  0  0  0  0
    9.1490   18.1760  -18.9720 C   0  0  0  0  0  0  0  0  0  0  0  0
   12.8760   15.9240  -13.0590 N   0  0  0  0  0  0  0  0  0  0  0  0
   13.4720   15.0610  -12.0480 C   0  0  2  0  0  0  0  0  0  0  0  0
   12.4380   14.7290  -10.9810 C   0  0  0  0  0  0  0  0  0  0  0  0
   12.1700   13.5560  -10.7140 O   0  0  0  0  0  0  0  0  0  0  0  0
   14.6950   15.7400  -11.4220 C   0  0  0  0  0  0  0  0  0  0  0  0
   15.2790   14.9620  -10.2540 C   0  0  0  0  0  0  0  0  0  0  0  0
   15.2020   13.7340  -10.1970 O   0  0  0  0  0  0  0  0  0  0  0  0
   15.8760   15.6780   -9.3160 N   0  0  0  0  0  0  0  0  0  0  0  0
   11.8530   15.7790  -10.4020 N   0  0  0  0  0  0  0  0  0  0  0  0
   10.8110   15.6560   -9.3810 C   0  0  2  0  0  0  0  0  0  0  0  0
   11.3560   15.1420   -8.0510 C   0  0  0  0  0  0  0  0  0  0  0  0
   12.4190   14.5210   -7.9830 O   0  0  0  0  0  0  0  0  0  0  0  0
    9.6580   14.7630   -9.8570 C   0  0  0  0  0  0  0  0  0  0  0  0
    8.7310   15.4290  -10.8540 C   0  0  0  0  0  0  0  0  0  0  0  0
    7.8330   16.4080  -10.4530 C   0  0  0  0  0  0  0  0  0  0  0  0
    8.7660   15.0840  -12.2010 C   0  0  0  0  0  0  0  0  0  0  0  0
    6.9980   17.0280  -11.3640 C   0  0  0  0  0  0  0  0  0  0  0  0
    7.9330   15.6960  -13.1170 C   0  0  0  0  0  0  0  0  0  0  0  0
    7.0040   16.6360  -12.6730 C   0  0  0  0  0  0  0  0  0  0  0  0
    6.2280   17.2890  -13.6060 O   0  0  0  0  0  0  0  0  0  0  0  0
   10.6150   15.4310   -6.9900 N   0  0  0  0  0  0  0  0  0  0  0  0
   10.9860   15.0150   -5.6470 C   0  0  2  0  0  0  0  0  0  0  0  0
   10.5600   13.5780   -5.4020 C   0  0  0  0  0  0  0  0  0  0  0  0
    9.4100   13.3110   -5.0450 O   0  0  0  0  0  0  0  0  0  0  0  0
   10.3470   15.9230   -4.5870 C   0  0  0  0  0  0  0  0  0  0  0  0
   10.7930   17.3770   -4.6490 C   0  0  0  0  0  0  0  0  0  0  0  0
   10.3450   18.0940   -5.9080 C   0  0  0  0  0  0  0  0  0  0  0  0
    9.2500   17.7730   -6.4120 O   0  5  0  0  0  0  0  0  0  0  0  0
   11.0870   18.9660   -6.4100 O   0  0  0  0  0  0  0  0  0  0  0  0
   11.4780   12.6530   -5.6220 N   0  0  0  0  0  0  0  0  0  0  0  0
   11.1930   11.2460   -5.4110 C   0  0  2  0  0  0  0  0  0  0  0  0
   11.0530   10.9450   -3.9200 C   0  0  0  0  0  0  0  0  0  0  0  0
   11.9910   11.1340   -3.1430 O   0  0  0  0  0  0  0  0  0  0  0  0
   12.2890   10.3760   -6.0380 C   0  0  0  0  0  0  0  0  0  0  0  0
   11.9360    8.9990   -6.0130 O   0  0  0  0  0  0  0  0  0  0  0  0
    9.8720   10.4930   -3.5250 N   0  0  0  0  0  0  0  0  0  0  0  0
    9.6120   10.1470   -2.1390 C   0  0  2  0  0  0  0  0  0  0  0  0
    9.5490    8.6260   -1.9910 C   0  0  0  0  0  0  0  0  0  0  0  0
    9.0010    8.0910   -1.0270 O   0  0  0  0  0  0  0  0  0  0  0  0
    8.2910   10.7810   -1.6580 C   0  0  2  0  0  0  0  0  0  0  0  0
    8.1780   12.1100   -2.1870 O   0  0  0  0  0  0  0  0  0  0  0  0
    8.2280   10.8410   -0.1350 C   0  0  0  0  0  0  0  0  0  0  0  0
   10.1260    7.9330   -2.9640 N   0  0  0  0  0  0  0  0  0  0  0  0
   10.1550    6.4800   -2.9610 C   0  0  2  0  0  0  0  0  0  0  0  0
   11.5060    5.9780   -2.4510 C   0  0  0  0  0  0  0  0  0  0  0  0
   12.5260    6.1230   -3.1270 O   0  0  0  0  0  0  0  0  0  0  0  0
    9.8900    5.9410   -4.3680 C   0  0  0  0  0  0  0  0  0  0  0  0
    9.8660    4.4270   -4.4110 C   0  0  0  0  0  0  0  0  0  0  0  0
   10.8950    3.7810   -4.5920 O   0  0  0  0  0  0  0  0  0  0  0  0
    8.6910    3.8490   -4.2430 N   0  0  0  0  0  0  0  0  0  0  0  0
   11.5230    5.3730   -1.2510 N   0  0  0  0  0  0  0  0  0  0  0  0
   12.7550    4.9030   -0.5940 C   0  0  2  0  0  0  0  0  0  0  0  0
   13.3380    3.6520   -1.2440 C   0  0  0  0  0  0  0  0  0  0  0  0
   14.3950    3.1650   -0.8430 O   0  0  0  0  0  0  0  0  0  0  0  0
   12.3040    4.5890    0.8430 C   0  0  0  0  0  0  0  0  0  0  0  0
   10.9090    5.1170    0.9610 C   0  0  0  0  0  0  0  0  0  0  0  0
   10.3440    5.1030   -0.4250 C   0  0  0  0  0  0  0  0  0  0  0  0
   12.6490    3.1330   -2.2450 N   0  0  0  0  0  0  0  0  0  0  0  0
   13.1090    1.9390   -2.9350 C   0  0  2  0  0  0  0  0  0  0  0  0
   13.9690    2.3040   -4.1340 C   0  0  0  0  0  0  0  0  0  0  0  0
   14.7310    1.4800   -4.6280 O   0  0  0  0  0  0  0  0  0  0  0  0
   11.9220    1.0800   -3.3790 C   0  0  0  0  0  0  0  0  0  0  0  0
   11.1620    0.4830   -2.2340 C   0  0  0  0  0  0  0  0  0  0  0  0
   11.6020   -0.6830   -1.6420 C   0  0  0  0  0  0  0  0  0  0  0  0
   10.0070    1.0830   -1.7590 C   0  0  0  0  0  0  0  0  0  0  0  0
   10.9050   -1.2490   -0.5940 C   0  0  0  0  0  0  0  0  0  0  0  0
    9.3040    0.5260   -0.7110 C   0  0  0  0  0  0  0  0  0  0  0  0
    9.7550   -0.6040   -0.1060 C   0  0  0  0  0  0  0  0  0  0  0  0
   13.8430    3.5370   -4.6040 N   0  0  0  0  0  0  0  0  0  0  0  0
   14.6310    3.9830   -5.7390 C   0  0  2  0  0  0  0  0  0  0  0  0
   15.6100    5.0860   -5.3320 C   0  0  0  0  0  0  0  0  0  0  0  0
   16.7690    5.0520   -5.7410 O   0  0  0  0  0  0  0  0  0  0  0  0
   13.7360    4.4480   -6.9210 C   0  0  2  0  0  0  0  0  0  0  0  0
   14.5460    4.7900   -8.0560 O   0  0  0  0  0  0  0  0  0  0  0  0
   12.8710    5.6420   -6.5410 C   0  0  0  0  0  0  0  0  0  0  0  0
   15.1340    6.0400   -4.5100 N   0  0  0  0  0  0  0  0  0  0  0  0
   15.9450    7.1670   -4.0180 C   0  0  2  0  0  0  0  0  0  0  0  0
   16.4000    8.0980   -5.1500 C   0  0  0  0  0  0  0  0  0  0  0  0
   15.9630    9.2490   -5.2280 O   0  0  0  0  0  0  0  0  0  0  0  0
   17.1450    6.6660   -3.2220 C   0  0  0  0  0  0  0  0  0  0  0  0
   17.2690    7.5760   -6.0140 N   0  0  0  0  0  0  0  0  0  0  0  0
   17.8340    8.3070   -7.1450 C   0  0  2  0  0  0  0  0  0  0  0  0
   18.6930    9.4760   -6.6610 C   0  0  0  0  0  0  0  0  0  0  0  0
   19.7540    9.2200   -6.0620 O   0  5  0  0  0  0  0  0  0  0  0  0
   16.7340    8.8140   -8.0810 C   0  0  0  0  0  0  0  0  0  0  0  0
   17.1820    8.9040   -9.5310 C   0  0  0  0  0  0  0  0  0  0  0  0
   16.3640    9.9200  -10.3170 C   0  0  0  0  0  0  0  0  0  0  0  0
   17.0350   11.2880  -10.3310 C   0  0  0  0  0  0  0  0  0  0  0  0
   17.1160   11.9050   -8.9750 N   0  3  0  0  0  0  0  0  0  0  0  0
   18.3160   10.6450   -6.9050 O   0  0  0  0  0  0  0  0  0  0  0  0
   12.7787   18.3353  -16.4630 H   0  0  0  0  0  0  0  0  0  0  0  0
   14.0247   17.2648  -16.3587 H   0  0  0  0  0  0  0  0  0  0  0  0
   13.6899   18.2638  -15.0941 H   0  0  0  0  0  0  0  0  0  0  0  0
   11.5843   17.2263  -14.7174 H   0  0  0  0  0  0  0  0  0  0  0  0
   11.1131   15.0940  -15.9418 H   0  0  0  0  0  0  0  0  0  0  0  0
   12.5068   15.4442  -17.0195 H   0  0  0  0  0  0  0  0  0  0  0  0
    9.1226   16.5858  -15.9984 H   0  0  0  0  0  0  0  0  0  0  0  0
   12.2965   16.9753  -18.8255 H   0  0  0  0  0  0  0  0  0  0  0  0
    7.6525   17.9034  -17.4662 H   0  0  0  0  0  0  0  0  0  0  0  0
   10.8282   18.2950  -20.2931 H   0  0  0  0  0  0  0  0  0  0  0  0
    8.4999   18.7520  -19.6215 H   0  0  0  0  0  0  0  0  0  0  0  0
   12.2581   16.6541  -12.7673 H   0  0  0  0  0  0  0  0  0  0  0  0
   13.7971   14.1260  -12.5276 H   0  0  0  0  0  0  0  0  0  0  0  0
   14.3968   16.7365  -11.0641 H   0  0  0  0  0  0  0  0  0  0  0  0
   15.4706   15.8449  -12.1949 H   0  0  0  0  0  0  0  0  0  0  0  0
   16.2802   15.2241   -8.5219 H   0  0  0  0  0  0  0  0  0  0  0  0
   15.9232   16.6733   -9.4008 H   0  0  0  0  0  0  0  0  0  0  0  0
   12.1406   16.6957  -10.6792 H   0  0  0  0  0  0  0  0  0  0  0  0
   10.4047   16.6631   -9.2062 H   0  0  0  0  0  0  0  0  0  0  0  0
    9.0654   14.4665   -8.9790 H   0  0  0  0  0  0  0  0  0  0  0  0
   10.0872   13.8671  -10.3294 H   0  0  0  0  0  0  0  0  0  0  0  0
    7.7854   16.6915   -9.4078 H   0  0  0  0  0  0  0  0  0  0  0  0
    9.4591   14.3216  -12.5377 H   0  0  0  0  0  0  0  0  0  0  0  0
    6.3386   17.8250  -11.0399 H   0  0  0  0  0  0  0  0  0  0  0  0
    8.0008   15.4481  -14.1701 H   0  0  0  0  0  0  0  0  0  0  0  0
    5.6454   17.8951  -13.1634 H   0  0  0  0  0  0  0  0  0  0  0  0
    9.7718   15.9532   -7.1179 H   0  0  0  0  0  0  0  0  0  0  0  0
   12.0799   15.0812   -5.5525 H   0  0  0  0  0  0  0  0  0  0  0  0
   10.6055   15.5265   -3.5941 H   0  0  0  0  0  0  0  0  0  0  0  0
    9.2557   15.8925   -4.7213 H   0  0  0  0  0  0  0  0  0  0  0  0
   11.8917   17.4064   -4.6039 H   0  0  0  0  0  0  0  0  0  0  0  0
   10.3759   17.9065   -3.7797 H   0  0  0  0  0  0  0  0  0  0  0  0
   12.3855   12.9278   -5.9397 H   0  0  0  0  0  0  0  0  0  0  0  0
   10.2384   11.0081   -5.9031 H   0  0  0  0  0  0  0  0  0  0  0  0
   13.2233   10.5162   -5.4746 H   0  0  0  0  0  0  0  0  0  0  0  0
   12.4400   10.6878   -7.0820 H   0  0  0  0  0  0  0  0  0  0  0  0
   12.6327    8.4874   -6.4071 H   0  0  0  0  0  0  0  0  0  0  0  0
    9.1407   10.3874   -4.1988 H   0  0  0  0  0  0  0  0  0  0  0  0
   10.4343   10.5316   -1.5178 H   0  0  0  0  0  0  0  0  0  0  0  0
    7.4513   10.1725   -2.0249 H   0  0  0  0  0  0  0  0  0  0  0  0
    8.1852   12.0735   -3.1363 H   0  0  0  0  0  0  0  0  0  0  0  0
    7.2762   11.2971    0.1749 H   0  0  0  0  0  0  0  0  0  0  0  0
    9.0649   11.4465    0.2431 H   0  0  0  0  0  0  0  0  0  0  0  0
    8.2974    9.8227    0.2753 H   0  0  0  0  0  0  0  0  0  0  0  0
   10.5538    8.4251   -3.7222 H   0  0  0  0  0  0  0  0  0  0  0  0
    9.3656    6.1133   -2.2884 H   0  0  0  0  0  0  0  0  0  0  0  0
   10.6834    6.3009   -5.0395 H   0  0  0  0  0  0  0  0  0  0  0  0
    8.9169    6.3197   -4.7140 H   0  0  0  0  0  0  0  0  0  0  0  0
    8.6170    2.8519   -4.2621 H   0  0  0  0  0  0  0  0  0  0  0  0
    7.8750    4.4083   -4.0966 H   0  0  0  0  0  0  0  0  0  0  0  0
   13.5160    5.6972   -0.6005 H   0  0  0  0  0  0  0  0  0  0  0  0
   12.9640    5.0872    1.5684 H   0  0  0  0  0  0  0  0  0  0  0  0
   12.3181    3.5034    1.0196 H   0  0  0  0  0  0  0  0  0  0  0  0
   10.9208    6.1426    1.3585 H   0  0  0  0  0  0  0  0  0  0  0  0
   10.3116    4.4737    1.6237 H   0  0  0  0  0  0  0  0  0  0  0  0
    9.9060    4.1231   -0.6657 H   0  0  0  0  0  0  0  0  0  0  0  0
    9.5822    5.8863   -0.5515 H   0  0  0  0  0  0  0  0  0  0  0  0
   11.7964    3.5691   -2.5329 H   0  0  0  0  0  0  0  0  0  0  0  0
   13.7211    1.3507   -2.2355 H   0  0  0  0  0  0  0  0  0  0  0  0
   12.2994    0.2630   -4.0115 H   0  0  0  0  0  0  0  0  0  0  0  0
   11.2350    1.7092   -3.9639 H   0  0  0  0  0  0  0  0  0  0  0  0
   12.5055   -1.1600   -2.0042 H   0  0  0  0  0  0  0  0  0  0  0  0
    9.6521    1.9998   -2.2157 H   0  0  0  0  0  0  0  0  0  0  0  0
   11.2404   -2.1803   -0.1521 H   0  0  0  0  0  0  0  0  0  0  0  0
    8.3872    0.9921   -0.3684 H   0  0  0  0  0  0  0  0  0  0  0  0
    9.2289   -1.0076    0.7516 H   0  0  0  0  0  0  0  0  0  0  0  0
   13.1979    4.1672   -4.1719 H   0  0  0  0  0  0  0  0  0  0  0  0
   15.2219    3.1237   -6.0888 H   0  0  0  0  0  0  0  0  0  0  0  0
   13.0740    3.6146   -7.1989 H   0  0  0  0  0  0  0  0  0  0  0  0
   13.9861    5.0720   -8.7698 H   0  0  0  0  0  0  0  0  0  0  0  0
   12.2553    5.9379   -7.4032 H   0  0  0  0  0  0  0  0  0  0  0  0
   13.5158    6.4826   -6.2452 H   0  0  0  0  0  0  0  0  0  0  0  0
   12.2169    5.3681   -5.7001 H   0  0  0  0  0  0  0  0  0  0  0  0
   14.1794    5.9804   -4.2180 H   0  0  0  0  0  0  0  0  0  0  0  0
   15.3125    7.7568   -3.3382 H   0  0  0  0  0  0  0  0  0  0  0  0
   17.7334    7.5247   -2.8663 H   0  0  0  0  0  0  0  0  0  0  0  0
   17.7732    6.0324   -3.8654 H   0  0  0  0  0  0  0  0  0  0  0  0
   16.7943    6.0796   -2.3600 H   0  0  0  0  0  0  0  0  0  0  0  0
   17.5516    6.6262   -5.8801 H   0  0  0  0  0  0  0  0  0  0  0  0
   18.4767    7.6170   -7.7113 H   0  0  0  0  0  0  0  0  0  0  0  0
   16.4238    9.8152   -7.7473 H   0  0  0  0  0  0  0  0  0  0  0  0
   15.8779    8.1259   -8.0208 H   0  0  0  0  0  0  0  0  0  0  0  0
   17.0674    7.9158  -10.0005 H   0  0  0  0  0  0  0  0  0  0  0  0
   18.2404    9.2024   -9.5582 H   0  0  0  0  0  0  0  0  0  0  0  0
   15.3707   10.0141   -9.8539 H   0  0  0  0  0  0  0  0  0  0  0  0
   16.2537    9.5656  -11.3525 H   0  0  0  0  0  0  0  0  0  0  0  0
   16.4580   11.9560  -10.9873 H   0  0  0  0  0  0  0  0  0  0  0  0
   18.0548   11.1754  -10.7276 H   0  0  0  0  0  0  0  0  0  0  0  0
   17.5664   12.8043   -9.0414 H   0  0  0  0  0  0  0  0  0  0  0  0
   17.6498   11.3062   -8.3647 H   0  0  0  0  0  0  0  0  0  0  0  0
   16.1865   12.0215   -8.6028 H   0  0  0  0  0  0  0  0  0  0  0  0
  1  2  1  0  0  0  0
  1102  1  0  0  0  0
  1103  1  0  0  0  0
  1104  1  0  0  0  0
  2  3  1  0  0  0  0
  2  5  1  0  0  0  0
  2105  1  1  0  0  0
  3  4  2  0  0  0  0
  3 12  1  0  0  0  0
  5  6  1  0  0  0  0
  5106  1  0  0  0  0
  5107  1  0  0  0  0
  6  7  2  0  0  0  0
  6  8  1  0  0  0  0
  7  9  1  0  0  0  0
  7108  1  0  0  0  0
  8 10  2  0  0  0  0
  8109  1  0  0  0  0
  9 11  2  0  0  0  0
  9110  1  0  0  0  0
 10 11  1  0  0  0  0
 10111  1  0  0  0  0
 11112  1  0  0  0  0
 12 13  1  0  0  0  0
 12113  1  0  0  0  0
 13 14  1  0  0  0  0
 13 16  1  0  0  0  0
 13114  1  6  0  0  0
 14 15  2  0  0  0  0
 14 20  1  0  0  0  0
 16 17  1  0  0  0  0
 16115  1  0  0  0  0
 16116  1  0  0  0  0
 17 18  2  0  0  0  0
 17 19  1  0  0  0  0
 19117  1  0  0  0  0
 19118  1  0  0  0  0
 20 21  1  0  0  0  0
 20119  1  0  0  0  0
 21 22  1  0  0  0  0
 21 24  1  0  0  0  0
 21120  1  1  0  0  0
 22 23  2  0  0  0  0
 22 32  1  0  0  0  0
 24 25  1  0  0  0  0
 24121  1  0  0  0  0
 24122  1  0  0  0  0
 25 26  2  0  0  0  0
 25 27  1  0  0  0  0
 26 28  1  0  0  0  0
 26123  1  0  0  0  0
 27 29  2  0  0  0  0
 27124  1  0  0  0  0
 28 30  2  0  0  0  0
 28125  1  0  0  0  0
 29 30  1  0  0  0  0
 29126  1  0  0  0  0
 30 31  1  0  0  0  0
 31127  1  0  0  0  0
 32 33  1  0  0  0  0
 32128  1  0  0  0  0
 33 34  1  0  0  0  0
 33 36  1  0  0  0  0
 33129  1  1  0  0  0
 34 35  2  0  0  0  0
 34 41  1  0  0  0  0
 36 37  1  0  0  0  0
 36130  1  0  0  0  0
 36131  1  0  0  0  0
 37 38  1  0  0  0  0
 37132  1  0  0  0  0
 37133  1  0  0  0  0
 38 39  1  0  0  0  0
 38 40  2  0  0  0  0
 41 42  1  0  0  0  0
 41134  1  0  0  0  0
 42 43  1  0  0  0  0
 42 45  1  0  0  0  0
 42135  1  6  0  0  0
 43 44  2  0  0  0  0
 43 47  1  0  0  0  0
 45 46  1  0  0  0  0
 45136  1  0  0  0  0
 45137  1  0  0  0  0
 46138  1  0  0  0  0
 47 48  1  0  0  0  0
 47139  1  0  0  0  0
 48 49  1  0  0  0  0
 48 51  1  0  0  0  0
 48140  1  1  0  0  0
 49 50  2  0  0  0  0
 49 54  1  0  0  0  0
 51 52  1  0  0  0  0
 51 53  1  0  0  0  0
 51141  1  6  0  0  0
 52142  1  0  0  0  0
 53143  1  0  0  0  0
 53144  1  0  0  0  0
 53145  1  0  0  0  0
 54 55  1  0  0  0  0
 54146  1  0  0  0  0
 55 56  1  0  0  0  0
 55 58  1  0  0  0  0
 55147  1  1  0  0  0
 56 57  2  0  0  0  0
 56 62  1  0  0  0  0
 58 59  1  0  0  0  0
 58148  1  0  0  0  0
 58149  1  0  0  0  0
 59 60  2  0  0  0  0
 59 61  1  0  0  0  0
 61150  1  0  0  0  0
 61151  1  0  0  0  0
 62 63  1  0  0  0  0
 62 68  1  0  0  0  0
 63 64  1  0  0  0  0
 63 66  1  0  0  0  0
 63152  1  1  0  0  0
 64 65  2  0  0  0  0
 64 69  1  0  0  0  0
 66 67  1  0  0  0  0
 66153  1  0  0  0  0
 66154  1  0  0  0  0
 67 68  1  0  0  0  0
 67155  1  0  0  0  0
 67156  1  0  0  0  0
 68157  1  0  0  0  0
 68158  1  0  0  0  0
 69 70  1  0  0  0  0
 69159  1  0  0  0  0
 70 71  1  0  0  0  0
 70 73  1  0  0  0  0
 70160  1  1  0  0  0
 71 72  2  0  0  0  0
 71 80  1  0  0  0  0
 73 74  1  0  0  0  0
 73161  1  0  0  0  0
 73162  1  0  0  0  0
 74 75  2  0  0  0  0
 74 76  1  0  0  0  0
 75 77  1  0  0  0  0
 75163  1  0  0  0  0
 76 78  2  0  0  0  0
 76164  1  0  0  0  0
 77 79  2  0  0  0  0
 77165  1  0  0  0  0
 78 79  1  0  0  0  0
 78166  1  0  0  0  0
 79167  1  0  0  0  0
 80 81  1  0  0  0  0
 80168  1  0  0  0  0
 81 82  1  0  0  0  0
 81 84  1  0  0  0  0
 81169  1  6  0  0  0
 82 83  2  0  0  0  0
 82 87  1  0  0  0  0
 84 85  1  0  0  0  0
 84 86  1  0  0  0  0
 84170  1  6  0  0  0
 85171  1  0  0  0  0
 86172  1  0  0  0  0
 86173  1  0  0  0  0
 86174  1  0  0  0  0
 87 88  1  0  0  0  0
 87175  1  0  0  0  0
 88 89  1  0  0  0  0
 88 91  1  0  0  0  0
 88176  1  1  0  0  0
 89 90  2  0  0  0  0
 89 92  1  0  0  0  0
 91177  1  0  0  0  0
 91178  1  0  0  0  0
 91179  1  0  0  0  0
 92 93  1  0  0  0  0
 92180  1  0  0  0  0
 93 94  1  0  0  0  0
 93 96  1  0  0  0  0
 93181  1  6  0  0  0
 94 95  1  0  0  0  0
 94101  2  0  0  0  0
 96 97  1  0  0  0  0
 96182  1  0  0  0  0
 96183  1  0  0  0  0
 97 98  1  0  0  0  0
 97184  1  0  0  0  0
 97185  1  0  0  0  0
 98 99  1  0  0  0  0
 98186  1  0  0  0  0
 98187  1  0  0  0  0
 99100  1  0  0  0  0
 99188  1  0  0  0  0
 99189  1  0  0  0  0
100190  1  0  0  0  0
100191  1  0  0  0  0
100192  1  0  0  0  0
M  CHG  4   1   1  39  -1  95  -1 100   1
M  END
