2kfg_ligand
 OpenBabel08222323343D

190193  0  0  1  0  0  0  0  0999 V2000
   -0.3970   23.1650    2.5180 N   0  3  0  0  0  0  0  0  0  0  0  0
    0.3530   23.1250    3.7900 C   0  0  2  0  0  0  0  0  0  0  0  0
    1.8100   22.7710    3.5240 C   0  0  0  0  0  0  0  0  0  0  0  0
    2.2070   22.6110    2.3710 O   0  0  0  0  0  0  0  0  0  0  0  0
   -0.2720   22.1000    4.7400 C   0  0  0  0  0  0  0  0  0  0  0  0
   -1.6830   22.4300    5.1390 C   0  0  0  0  0  0  0  0  0  0  0  0
   -1.9340   23.2760    6.2070 C   0  0  0  0  0  0  0  0  0  0  0  0
   -2.7560   21.8860    4.4530 C   0  0  0  0  0  0  0  0  0  0  0  0
   -3.2270   23.5760    6.5830 C   0  0  0  0  0  0  0  0  0  0  0  0
   -4.0530   22.1840    4.8240 C   0  0  0  0  0  0  0  0  0  0  0  0
   -4.2940   23.0470    5.8600 C   0  0  0  0  0  0  0  0  0  0  0  0
    2.6020   22.6570    4.5850 N   0  0  0  0  0  0  0  0  0  0  0  0
    4.0280   22.3660    4.4440 C   0  0  2  0  0  0  0  0  0  0  0  0
    4.2570   20.8860    4.1740 C   0  0  0  0  0  0  0  0  0  0  0  0
    4.3810   20.0890    5.1080 O   0  0  0  0  0  0  0  0  0  0  0  0
    4.8150   22.7930    5.6890 C   0  0  0  0  0  0  0  0  0  0  0  0
    4.7110   24.2790    5.9760 C   0  0  0  0  0  0  0  0  0  0  0  0
    4.4870   25.0890    5.0760 O   0  0  0  0  0  0  0  0  0  0  0  0
    4.8880   24.6500    7.2320 N   0  0  0  0  0  0  0  0  0  0  0  0
    4.3130   20.5480    2.8830 N   0  0  0  0  0  0  0  0  0  0  0  0
    4.4840   19.1720    2.3900 C   0  0  2  0  0  0  0  0  0  0  0  0
    3.6210   18.1460    3.1410 C   0  0  0  0  0  0  0  0  0  0  0  0
    2.6530   18.4950    3.8200 O   0  0  0  0  0  0  0  0  0  0  0  0
    5.9720   18.7460    2.3660 C   0  0  0  0  0  0  0  0  0  0  0  0
    6.7270   18.8690    3.6780 C   0  0  0  0  0  0  0  0  0  0  0  0
    6.6440   17.8820    4.6540 C   0  0  0  0  0  0  0  0  0  0  0  0
    7.5460   19.9660    3.9280 C   0  0  0  0  0  0  0  0  0  0  0  0
    7.3500   17.9890    5.8400 C   0  0  0  0  0  0  0  0  0  0  0  0
    8.2510   20.0780    5.1100 C   0  0  0  0  0  0  0  0  0  0  0  0
    8.1520   19.0880    6.0610 C   0  0  0  0  0  0  0  0  0  0  0  0
    8.8670   19.1940    7.2330 O   0  0  0  0  0  0  0  0  0  0  0  0
    3.9530   16.8740    2.9670 N   0  0  0  0  0  0  0  0  0  0  0  0
    3.1840   15.7780    3.5460 C   0  0  2  0  0  0  0  0  0  0  0  0
    4.0710   14.5480    3.6990 C   0  0  0  0  0  0  0  0  0  0  0  0
    3.5880   13.4200    3.8190 O   0  0  0  0  0  0  0  0  0  0  0  0
    1.9980   15.4620    2.6320 C   0  0  0  0  0  0  0  0  0  0  0  0
    2.4160   15.1520    1.2010 C   0  0  0  0  0  0  0  0  0  0  0  0
    1.2430   15.0450    0.2610 C   0  0  0  0  0  0  0  0  0  0  0  0
    0.6480   13.9520    0.1680 O   0  5  0  0  0  0  0  0  0  0  0  0
    0.9220   16.0520   -0.4030 O   0  0  0  0  0  0  0  0  0  0  0  0
    5.3720   14.7820    3.7130 N   0  0  0  0  0  0  0  0  0  0  0  0
    6.3450   13.7080    3.6500 C   0  0  2  0  0  0  0  0  0  0  0  0
    6.7750   13.2460    5.0390 C   0  0  0  0  0  0  0  0  0  0  0  0
    7.2640   14.0350    5.8480 O   0  0  0  0  0  0  0  0  0  0  0  0
    7.5560   14.1780    2.8550 C   0  0  0  0  0  0  0  0  0  0  0  0
    7.1460   14.8780    1.6900 O   0  0  0  0  0  0  0  0  0  0  0  0
    6.5590   11.9700    5.3060 N   0  0  0  0  0  0  0  0  0  0  0  0
    7.0460   11.3390    6.5210 C   0  0  2  0  0  0  0  0  0  0  0  0
    7.5440    9.9370    6.1790 C   0  0  0  0  0  0  0  0  0  0  0  0
    7.8180    9.1150    7.0560 O   0  0  0  0  0  0  0  0  0  0  0  0
    5.9420   11.2740    7.6090 C   0  0  2  0  0  0  0  0  0  0  0  0
    6.4690   10.7340    8.8290 O   0  0  0  0  0  0  0  0  0  0  0  0
    4.7550   10.4330    7.1510 C   0  0  0  0  0  0  0  0  0  0  0  0
    7.6890    9.6940    4.8810 N   0  0  0  0  0  0  0  0  0  0  0  0
    8.0070    8.3720    4.3680 C   0  0  2  0  0  0  0  0  0  0  0  0
    9.5190    8.1390    4.3290 C   0  0  0  0  0  0  0  0  0  0  0  0
   10.3070    9.0740    4.1640 O   0  0  0  0  0  0  0  0  0  0  0  0
    7.4190    8.2070    2.9650 C   0  0  0  0  0  0  0  0  0  0  0  0
    8.0290    9.1790    1.9800 C   0  0  0  0  0  0  0  0  0  0  0  0
    9.0600    8.8390    1.3690 O   0  5  0  0  0  0  0  0  0  0  0  0
    7.4950   10.3000    1.8440 O   0  0  0  0  0  0  0  0  0  0  0  0
    9.9350    6.8720    4.4670 N   0  0  0  0  0  0  0  0  0  0  0  0
   11.3510    6.4820    4.5010 C   0  0  2  0  0  0  0  0  0  0  0  0
   12.0750    6.6600    3.1650 C   0  0  0  0  0  0  0  0  0  0  0  0
   13.2550    6.3280    3.0480 O   0  0  0  0  0  0  0  0  0  0  0  0
   11.3080    5.0010    4.8810 C   0  0  0  0  0  0  0  0  0  0  0  0
    9.9630    4.5330    4.4490 C   0  0  0  0  0  0  0  0  0  0  0  0
    9.0420    5.7070    4.6150 C   0  0  0  0  0  0  0  0  0  0  0  0
   11.3690    7.1350    2.1540 N   0  0  0  0  0  0  0  0  0  0  0  0
   11.9420    7.2610    0.8220 C   0  0  2  0  0  0  0  0  0  0  0  0
   12.4120    8.6880    0.5610 C   0  0  0  0  0  0  0  0  0  0  0  0
   13.5240    8.9050    0.0810 O   0  0  0  0  0  0  0  0  0  0  0  0
   10.9150    6.8360   -0.2310 C   0  0  0  0  0  0  0  0  0  0  0  0
   10.2930    5.5050    0.0780 C   0  0  0  0  0  0  0  0  0  0  0  0
   11.0340    4.3400   -0.0200 C   0  0  0  0  0  0  0  0  0  0  0  0
    8.9770    5.4240    0.5010 C   0  0  0  0  0  0  0  0  0  0  0  0
   10.4710    3.1190    0.2930 C   0  0  0  0  0  0  0  0  0  0  0  0
    8.4140    4.2080    0.8210 C   0  0  0  0  0  0  0  0  0  0  0  0
    9.1610    3.0530    0.7150 C   0  0  0  0  0  0  0  0  0  0  0  0
   11.5840    9.6610    0.9080 N   0  0  0  0  0  0  0  0  0  0  0  0
   11.8850   11.0530    0.5920 C   0  0  2  0  0  0  0  0  0  0  0  0
   12.6880   11.7360    1.7000 C   0  0  0  0  0  0  0  0  0  0  0  0
   12.6750   12.9610    1.8270 O   0  0  0  0  0  0  0  0  0  0  0  0
   10.5980   11.8560    0.3230 C   0  0  2  0  0  0  0  0  0  0  0  0
    9.7360   11.8210    1.4690 O   0  0  0  0  0  0  0  0  0  0  0  0
    9.8600   11.3070   -0.8850 C   0  0  0  0  0  0  0  0  0  0  0  0
   13.4190   10.9460    2.4710 N   0  0  0  0  0  0  0  0  0  0  0  0
   14.1810   11.4680    3.5980 C   0  0  2  0  0  0  0  0  0  0  0  0
   15.6470   11.6820    3.2320 C   0  0  0  0  0  0  0  0  0  0  0  0
   16.4520   12.0940    4.0710 O   0  0  0  0  0  0  0  0  0  0  0  0
   14.0620   10.5290    4.7880 C   0  0  0  0  0  0  0  0  0  0  0  0
   15.9960   11.4040    1.9840 N   0  0  0  0  0  0  0  0  0  0  0  0
   17.3690   11.5560    1.5230 C   0  0  2  0  0  0  0  0  0  0  0  0
   17.4170   12.1840    0.1360 C   0  0  0  0  0  0  0  0  0  0  0  0
   17.8720   13.3410    0.0280 O   0  5  0  0  0  0  0  0  0  0  0  0
   18.0960   10.2070    1.5290 C   0  0  0  0  0  0  0  0  0  0  0  0
   18.8090    9.9100    2.8400 C   0  0  0  0  0  0  0  0  0  0  0  0
   19.4180    8.5170    2.8530 C   0  0  0  0  0  0  0  0  0  0  0  0
   20.4250    8.3570    3.9800 C   0  0  0  0  0  0  0  0  0  0  0  0
   19.8480    8.7160    5.3020 N   0  3  0  0  0  0  0  0  0  0  0  0
   16.9820   11.5330   -0.8330 O   0  0  0  0  0  0  0  0  0  0  0  0
   -1.3597   23.3998    2.7028 H   0  0  0  0  0  0  0  0  0  0  0  0
   -0.3510   22.2621    2.0723 H   0  0  0  0  0  0  0  0  0  0  0  0
    0.0078   23.8604    1.9109 H   0  0  0  0  0  0  0  0  0  0  0  0
    0.3083   24.1184    4.2603 H   0  0  0  0  0  0  0  0  0  0  0  0
    0.3436   22.0490    5.6502 H   0  0  0  0  0  0  0  0  0  0  0  0
   -0.2721   21.1192    4.2419 H   0  0  0  0  0  0  0  0  0  0  0  0
   -1.1038   23.7077    6.7542 H   0  0  0  0  0  0  0  0  0  0  0  0
   -2.5765   21.2199    3.6168 H   0  0  0  0  0  0  0  0  0  0  0  0
   -3.4116   24.2193    7.4357 H   0  0  0  0  0  0  0  0  0  0  0  0
   -4.8834   21.7329    4.2930 H   0  0  0  0  0  0  0  0  0  0  0  0
   -5.3119   23.3176    6.1166 H   0  0  0  0  0  0  0  0  0  0  0  0
    2.2144   22.7727    5.4995 H   0  0  0  0  0  0  0  0  0  0  0  0
    4.4079   22.9374    3.5843 H   0  0  0  0  0  0  0  0  0  0  0  0
    5.8745   22.5386    5.5382 H   0  0  0  0  0  0  0  0  0  0  0  0
    4.4251   22.2405    6.5566 H   0  0  0  0  0  0  0  0  0  0  0  0
    4.8309   25.6169    7.4805 H   0  0  0  0  0  0  0  0  0  0  0  0
    5.0790   23.9638    7.9339 H   0  0  0  0  0  0  0  0  0  0  0  0
    4.2333   21.2794    2.2057 H   0  0  0  0  0  0  0  0  0  0  0  0
    4.1359   19.1701    1.3465 H   0  0  0  0  0  0  0  0  0  0  0  0
    6.4879   19.3711    1.6223 H   0  0  0  0  0  0  0  0  0  0  0  0
    6.0143   17.6926    2.0522 H   0  0  0  0  0  0  0  0  0  0  0  0
    6.0164   17.0148    4.4834 H   0  0  0  0  0  0  0  0  0  0  0  0
    7.6321   20.7469    3.1811 H   0  0  0  0  0  0  0  0  0  0  0  0
    7.2724   17.2118    6.5917 H   0  0  0  0  0  0  0  0  0  0  0  0
    8.8802   20.9425    5.2883 H   0  0  0  0  0  0  0  0  0  0  0  0
    8.6913   18.4370    7.7794 H   0  0  0  0  0  0  0  0  0  0  0  0
    4.7607   16.6581    2.4184 H   0  0  0  0  0  0  0  0  0  0  0  0
    2.8099   16.0782    4.5359 H   0  0  0  0  0  0  0  0  0  0  0  0
    1.3236   16.3309    2.6197 H   0  0  0  0  0  0  0  0  0  0  0  0
    1.4650   14.5897    3.0382 H   0  0  0  0  0  0  0  0  0  0  0  0
    2.9612   14.1966    1.1930 H   0  0  0  0  0  0  0  0  0  0  0  0
    3.0786   15.9553    0.8464 H   0  0  0  0  0  0  0  0  0  0  0  0
    5.6948   15.7268    3.7686 H   0  0  0  0  0  0  0  0  0  0  0  0
    5.8880   12.8539    3.1288 H   0  0  0  0  0  0  0  0  0  0  0  0
    8.1562   13.3047    2.5599 H   0  0  0  0  0  0  0  0  0  0  0  0
    8.1642   14.8457    3.4830 H   0  0  0  0  0  0  0  0  0  0  0  0
    7.9128   15.1633    1.2071 H   0  0  0  0  0  0  0  0  0  0  0  0
    6.0428   11.4199    4.6496 H   0  0  0  0  0  0  0  0  0  0  0  0
    7.8862   11.9302    6.9141 H   0  0  0  0  0  0  0  0  0  0  0  0
    5.5887   12.2977    7.8020 H   0  0  0  0  0  0  0  0  0  0  0  0
    6.7978    9.8570    8.6698 H   0  0  0  0  0  0  0  0  0  0  0  0
    3.9943   10.4093    7.9452 H   0  0  0  0  0  0  0  0  0  0  0  0
    5.0927    9.4084    6.9361 H   0  0  0  0  0  0  0  0  0  0  0  0
    4.3218   10.8747    6.2415 H   0  0  0  0  0  0  0  0  0  0  0  0
    7.5753   10.4478    4.2338 H   0  0  0  0  0  0  0  0  0  0  0  0
    7.5551    7.6210    5.0327 H   0  0  0  0  0  0  0  0  0  0  0  0
    6.3340    8.3817    3.0113 H   0  0  0  0  0  0  0  0  0  0  0  0
    7.6108    7.1812    2.6174 H   0  0  0  0  0  0  0  0  0  0  0  0
   11.8812    7.0648    5.2686 H   0  0  0  0  0  0  0  0  0  0  0  0
   11.4305    4.8765    5.9670 H   0  0  0  0  0  0  0  0  0  0  0  0
   12.0983    4.4439    4.3566 H   0  0  0  0  0  0  0  0  0  0  0  0
    9.6300    3.6944    5.0782 H   0  0  0  0  0  0  0  0  0  0  0  0
    9.9893    4.2140    3.3966 H   0  0  0  0  0  0  0  0  0  0  0  0
    8.2631    5.7080    3.8383 H   0  0  0  0  0  0  0  0  0  0  0  0
    8.5694    5.6980    5.6083 H   0  0  0  0  0  0  0  0  0  0  0  0
   10.4210    7.4138    2.3073 H   0  0  0  0  0  0  0  0  0  0  0  0
   12.8121    6.5916    0.7527 H   0  0  0  0  0  0  0  0  0  0  0  0
   11.4166    6.7728   -1.2079 H   0  0  0  0  0  0  0  0  0  0  0  0
   10.1202    7.5951   -0.2754 H   0  0  0  0  0  0  0  0  0  0  0  0
   12.0668    4.3869   -0.3458 H   0  0  0  0  0  0  0  0  0  0  0  0
    8.3832    6.3273    0.5812 H   0  0  0  0  0  0  0  0  0  0  0  0
   11.0593    2.2126    0.2068 H   0  0  0  0  0  0  0  0  0  0  0  0
    7.3842    4.1588    1.1560 H   0  0  0  0  0  0  0  0  0  0  0  0
    8.7181    2.0952    0.9633 H   0  0  0  0  0  0  0  0  0  0  0  0
   10.7391    9.4383    1.3943 H   0  0  0  0  0  0  0  0  0  0  0  0
   12.4935   11.0628   -0.3243 H   0  0  0  0  0  0  0  0  0  0  0  0
   10.8750   12.9012    0.1210 H   0  0  0  0  0  0  0  0  0  0  0  0
    9.5040   10.9202    1.6619 H   0  0  0  0  0  0  0  0  0  0  0  0
    8.9468   11.8961   -1.0557 H   0  0  0  0  0  0  0  0  0  0  0  0
    9.5899   10.2563   -0.7033 H   0  0  0  0  0  0  0  0  0  0  0  0
   10.5085   11.3710   -1.7712 H   0  0  0  0  0  0  0  0  0  0  0  0
   13.4490    9.9659    2.2749 H   0  0  0  0  0  0  0  0  0  0  0  0
   13.7535   12.4415    3.8799 H   0  0  0  0  0  0  0  0  0  0  0  0
   14.6404   10.9321    5.6324 H   0  0  0  0  0  0  0  0  0  0  0  0
   14.4546    9.5386    4.5143 H   0  0  0  0  0  0  0  0  0  0  0  0
   13.0050   10.4370    5.0783 H   0  0  0  0  0  0  0  0  0  0  0  0
   15.2993   11.0819    1.3431 H   0  0  0  0  0  0  0  0  0  0  0  0
   17.8898   12.2288    2.2202 H   0  0  0  0  0  0  0  0  0  0  0  0
   18.8410   10.2089    0.7197 H   0  0  0  0  0  0  0  0  0  0  0  0
   17.3578    9.4123    1.3460 H   0  0  0  0  0  0  0  0  0  0  0  0
   18.0848    9.9888    3.6642 H   0  0  0  0  0  0  0  0  0  0  0  0
   19.6105   10.6495    2.9841 H   0  0  0  0  0  0  0  0  0  0  0  0
   19.9255    8.3403    1.8932 H   0  0  0  0  0  0  0  0  0  0  0  0
   18.6145    7.7774    2.9846 H   0  0  0  0  0  0  0  0  0  0  0  0
   21.2872    9.0102    3.7804 H   0  0  0  0  0  0  0  0  0  0  0  0
   20.7583    7.3092    4.0115 H   0  0  0  0  0  0  0  0  0  0  0  0
   20.5475    8.5957    6.0177 H   0  0  0  0  0  0  0  0  0  0  0  0
   19.0603    8.1185    5.4983 H   0  0  0  0  0  0  0  0  0  0  0  0
   19.5450    9.6772    5.2865 H   0  0  0  0  0  0  0  0  0  0  0  0
  1  2  1  0  0  0  0
  1102  1  0  0  0  0
  1103  1  0  0  0  0
  1104  1  0  0  0  0
  2  3  1  0  0  0  0
  2  5  1  0  0  0  0
  2105  1  1  0  0  0
  3  4  2  0  0  0  0
  3 12  1  0  0  0  0
  5  6  1  0  0  0  0
  5106  1  0  0  0  0
  5107  1  0  0  0  0
  6  7  2  0  0  0  0
  6  8  1  0  0  0  0
  7  9  1  0  0  0  0
  7108  1  0  0  0  0
  8 10  2  0  0  0  0
  8109  1  0  0  0  0
  9 11  2  0  0  0  0
  9110  1  0  0  0  0
 10 11  1  0  0  0  0
 10111  1  0  0  0  0
 11112  1  0  0  0  0
 12 13  1  0  0  0  0
 12113  1  0  0  0  0
 13 14  1  0  0  0  0
 13 16  1  0  0  0  0
 13114  1  6  0  0  0
 14 15  2  0  0  0  0
 14 20  1  0  0  0  0
 16 17  1  0  0  0  0
 16115  1  0  0  0  0
 16116  1  0  0  0  0
 17 18  2  0  0  0  0
 17 19  1  0  0  0  0
 19117  1  0  0  0  0
 19118  1  0  0  0  0
 20 21  1  0  0  0  0
 20119  1  0  0  0  0
 21 22  1  0  0  0  0
 21 24  1  0  0  0  0
 21120  1  6  0  0  0
 22 23  2  0  0  0  0
 22 32  1  0  0  0  0
 24 25  1  0  0  0  0
 24121  1  0  0  0  0
 24122  1  0  0  0  0
 25 26  2  0  0  0  0
 25 27  1  0  0  0  0
 26 28  1  0  0  0  0
 26123  1  0  0  0  0
 27 29  2  0  0  0  0
 27124  1  0  0  0  0
 28 30  2  0  0  0  0
 28125  1  0  0  0  0
 29 30  1  0  0  0  0
 29126  1  0  0  0  0
 30 31  1  0  0  0  0
 31127  1  0  0  0  0
 32 33  1  0  0  0  0
 32128  1  0  0  0  0
 33 34  1  0  0  0  0
 33 36  1  0  0  0  0
 33129  1  1  0  0  0
 34 35  2  0  0  0  0
 34 41  1  0  0  0  0
 36 37  1  0  0  0  0
 36130  1  0  0  0  0
 36131  1  0  0  0  0
 37 38  1  0  0  0  0
 37132  1  0  0  0  0
 37133  1  0  0  0  0
 38 39  1  0  0  0  0
 38 40  2  0  0  0  0
 41 42  1  0  0  0  0
 41134  1  0  0  0  0
 42 43  1  0  0  0  0
 42 45  1  0  0  0  0
 42135  1  6  0  0  0
 43 44  2  0  0  0  0
 43 47  1  0  0  0  0
 45 46  1  0  0  0  0
 45136  1  0  0  0  0
 45137  1  0  0  0  0
 46138  1  0  0  0  0
 47 48  1  0  0  0  0
 47139  1  0  0  0  0
 48 49  1  0  0  0  0
 48 51  1  0  0  0  0
 48140  1  1  0  0  0
 49 50  2  0  0  0  0
 49 54  1  0  0  0  0
 51 52  1  0  0  0  0
 51 53  1  0  0  0  0
 51141  1  1  0  0  0
 52142  1  0  0  0  0
 53143  1  0  0  0  0
 53144  1  0  0  0  0
 53145  1  0  0  0  0
 54 55  1  0  0  0  0
 54146  1  0  0  0  0
 55 56  1  0  0  0  0
 55 58  1  0  0  0  0
 55147  1  1  0  0  0
 56 57  2  0  0  0  0
 56 62  1  0  0  0  0
 58 59  1  0  0  0  0
 58148  1  0  0  0  0
 58149  1  0  0  0  0
 59 60  1  0  0  0  0
 59 61  2  0  0  0  0
 62 63  1  0  0  0  0
 62 68  1  0  0  0  0
 63 64  1  0  0  0  0
 63 66  1  0  0  0  0
 63150  1  1  0  0  0
 64 65  2  0  0  0  0
 64 69  1  0  0  0  0
 66 67  1  0  0  0  0
 66151  1  0  0  0  0
 66152  1  0  0  0  0
 67 68  1  0  0  0  0
 67153  1  0  0  0  0
 67154  1  0  0  0  0
 68155  1  0  0  0  0
 68156  1  0  0  0  0
 69 70  1  0  0  0  0
 69157  1  0  0  0  0
 70 71  1  0  0  0  0
 70 73  1  0  0  0  0
 70158  1  6  0  0  0
 71 72  2  0  0  0  0
 71 80  1  0  0  0  0
 73 74  1  0  0  0  0
 73159  1  0  0  0  0
 73160  1  0  0  0  0
 74 75  2  0  0  0  0
 74 76  1  0  0  0  0
 75 77  1  0  0  0  0
 75161  1  0  0  0  0
 76 78  2  0  0  0  0
 76162  1  0  0  0  0
 77 79  2  0  0  0  0
 77163  1  0  0  0  0
 78 79  1  0  0  0  0
 78164  1  0  0  0  0
 79165  1  0  0  0  0
 80 81  1  0  0  0  0
 80166  1  0  0  0  0
 81 82  1  0  0  0  0
 81 84  1  0  0  0  0
 81167  1  6  0  0  0
 82 83  2  0  0  0  0
 82 87  1  0  0  0  0
 84 85  1  0  0  0  0
 84 86  1  0  0  0  0
 84168  1  6  0  0  0
 85169  1  0  0  0  0
 86170  1  0  0  0  0
 86171  1  0  0  0  0
 86172  1  0  0  0  0
 87 88  1  0  0  0  0
 87173  1  0  0  0  0
 88 89  1  0  0  0  0
 88 91  1  0  0  0  0
 88174  1  1  0  0  0
 89 90  2  0  0  0  0
 89 92  1  0  0  0  0
 91175  1  0  0  0  0
 91176  1  0  0  0  0
 91177  1  0  0  0  0
 92 93  1  0  0  0  0
 92178  1  0  0  0  0
 93 94  1  0  0  0  0
 93 96  1  0  0  0  0
 93179  1  1  0  0  0
 94 95  1  0  0  0  0
 94101  2  0  0  0  0
 96 97  1  0  0  0  0
 96180  1  0  0  0  0
 96181  1  0  0  0  0
 97 98  1  0  0  0  0
 97182  1  0  0  0  0
 97183  1  0  0  0  0
 98 99  1  0  0  0  0
 98184  1  0  0  0  0
 98185  1  0  0  0  0
 99100  1  0  0  0  0
 99186  1  0  0  0  0
 99187  1  0  0  0  0
100188  1  0  0  0  0
100189  1  0  0  0  0
100190  1  0  0  0  0
M  CHG  5   1   1  39  -1  60  -1  95  -1 100   1
M  END
