2kfx_ligand
 OpenBabel08222323343D

 44 45  0  0  0  0  0  0  0  0999 V2000
   80.5120    3.5460   -4.6840 S   0  0  0  0  0  0  0  0  0  0  0  0
   81.1220    3.1440   -5.9080 O   0  0  0  0  0  0  0  0  0  0  0  0
   80.0010    4.8940   -4.6240 O   0  0  0  0  0  0  0  0  0  0  0  0
   79.1720    2.4680   -4.4240 N   0  0  0  0  0  0  0  0  0  0  0  0
   83.5310    3.0740   -1.0900 C   0  0  0  0  0  0  0  0  0  0  0  0
   82.7070    4.2620   -1.2390 C   0  0  0  0  0  0  0  0  0  0  0  0
   81.7800    4.3970   -2.3630 C   0  0  0  0  0  0  0  0  0  0  0  0
   81.6580    3.3380   -3.3570 C   0  0  0  0  0  0  0  0  0  0  0  0
   82.4730    2.1370   -3.2400 C   0  0  0  0  0  0  0  0  0  0  0  0
   83.4330    2.0030   -2.0750 C   0  0  0  0  0  0  0  0  0  0  0  0
   85.3400    0.5440   -0.6480 Cl  0  0  0  0  0  0  0  0  0  0  0  0
   84.2360    0.7930   -1.9530 C   0  0  0  0  0  0  0  0  0  0  0  0
   84.1160   -0.2700   -2.9400 C   0  0  0  0  0  0  0  0  0  0  0  0
   83.1880   -0.1340   -4.0650 C   0  0  0  0  0  0  0  0  0  0  0  0
   82.3690    1.0600   -4.2180 C   0  0  0  0  0  0  0  0  0  0  0  0
   77.8860    3.0730   -4.0850 C   0  0  0  0  0  0  0  0  0  0  0  0
   77.4570    2.8470   -2.6360 C   0  0  0  0  0  0  0  0  0  0  0  0
   79.2170    2.8360   -0.8560 C   0  0  0  0  0  0  0  0  0  0  0  0
   78.2960    3.7170   -1.7000 C   0  0  0  0  0  0  0  0  0  0  0  0
   79.2490    3.3530    0.5860 C   0  0  0  0  0  0  0  0  0  0  0  0
   80.6500    3.1660    1.1770 C   0  0  0  0  0  0  0  0  0  0  0  0
   81.2660    4.4210    1.5760 N   0  3  0  0  0  0  0  0  0  0  0  0
   79.2772    1.4767   -4.5031 H   0  0  0  0  0  0  0  0  0  0  0  0
   84.2136    2.9847   -0.2526 H   0  0  0  0  0  0  0  0  0  0  0  0
   82.7802    5.0587   -0.5076 H   0  0  0  0  0  0  0  0  0  0  0  0
   81.1780    5.2935   -2.4574 H   0  0  0  0  0  0  0  0  0  0  0  0
   84.7166   -1.1671   -2.8419 H   0  0  0  0  0  0  0  0  0  0  0  0
   83.1099   -0.9330   -4.7934 H   0  0  0  0  0  0  0  0  0  0  0  0
   81.6853    1.1481   -5.0546 H   0  0  0  0  0  0  0  0  0  0  0  0
   77.1171    2.6442   -4.7445 H   0  0  0  0  0  0  0  0  0  0  0  0
   77.9564    4.1567   -4.2601 H   0  0  0  0  0  0  0  0  0  0  0  0
   77.6001    1.7881   -2.3747 H   0  0  0  0  0  0  0  0  0  0  0  0
   76.3951    3.1118   -2.5250 H   0  0  0  0  0  0  0  0  0  0  0  0
   80.2333    2.8618   -1.2761 H   0  0  0  0  0  0  0  0  0  0  0  0
   78.8426    1.8017   -0.8651 H   0  0  0  0  0  0  0  0  0  0  0  0
   77.6291    4.2876   -1.0370 H   0  0  0  0  0  0  0  0  0  0  0  0
   78.9036    4.4134   -2.2964 H   0  0  0  0  0  0  0  0  0  0  0  0
   78.5206    2.7926    1.1905 H   0  0  0  0  0  0  0  0  0  0  0  0
   78.9888    4.4217    0.5960 H   0  0  0  0  0  0  0  0  0  0  0  0
   81.2889    2.6858    0.4213 H   0  0  0  0  0  0  0  0  0  0  0  0
   80.5746    2.5152    2.0606 H   0  0  0  0  0  0  0  0  0  0  0  0
   82.1818    4.2398    1.9562 H   0  0  0  0  0  0  0  0  0  0  0  0
   80.6944    4.8685    2.2754 H   0  0  0  0  0  0  0  0  0  0  0  0
   81.3490    5.0248    0.7731 H   0  0  0  0  0  0  0  0  0  0  0  0
  1  2  2  0  0  0  0
  1  3  2  0  0  0  0
  1  4  1  0  0  0  0
  4 16  1  0  0  0  0
  4 23  1  0  0  0  0
  5 10  1  0  0  0  0
  5 24  1  0  0  0  0
  6  5  2  0  0  0  0
  6 25  1  0  0  0  0
  7  6  1  0  0  0  0
  7  8  2  0  0  0  0
  7 26  1  0  0  0  0
  8  1  1  0  0  0  0
  8  9  1  0  0  0  0
  9 10  2  0  0  0  0
  9 15  1  0  0  0  0
 10 12  1  0  0  0  0
 12 11  1  0  0  0  0
 12 13  2  0  0  0  0
 13 14  1  0  0  0  0
 13 27  1  0  0  0  0
 14 15  2  0  0  0  0
 14 28  1  0  0  0  0
 15 29  1  0  0  0  0
 16 17  1  0  0  0  0
 16 30  1  0  0  0  0
 16 31  1  0  0  0  0
 17 19  1  0  0  0  0
 17 32  1  0  0  0  0
 17 33  1  0  0  0  0
 18 20  1  0  0  0  0
 18 34  1  0  0  0  0
 18 35  1  0  0  0  0
 19 18  1  0  0  0  0
 19 36  1  0  0  0  0
 19 37  1  0  0  0  0
 20 21  1  0  0  0  0
 20 38  1  0  0  0  0
 20 39  1  0  0  0  0
 21 22  1  0  0  0  0
 21 40  1  0  0  0  0
 21 41  1  0  0  0  0
 22 42  1  0  0  0  0
 22 43  1  0  0  0  0
 22 44  1  0  0  0  0
M  CHG  1  22   1
M  END
