2kgi_ligand
 OpenBabel08222323343D

170169  0  0  1  0  0  0  0  0999 V2000
    2.9830   10.2390   -2.9570 N   0  3  0  0  0  0  0  0  0  0  0  0
    2.7280    8.9560   -3.6650 C   0  0  2  0  0  0  0  0  0  0  0  0
    1.3040    8.8880   -4.1840 C   0  0  0  0  0  0  0  0  0  0  0  0
    0.5290    9.8600   -4.1300 O   0  0  0  0  0  0  0  0  0  0  0  0
    2.9780    7.7500   -2.7540 C   0  0  0  0  0  0  0  0  0  0  0  0
    0.9780    7.7620   -4.7130 N   0  0  0  0  0  0  0  0  0  0  0  0
   -0.3270    7.4670   -5.1800 C   0  0  2  0  0  0  0  0  0  0  0  0
   -0.9500    6.4730   -4.2130 C   0  0  0  0  0  0  0  0  0  0  0  0
   -0.4580    5.3650   -4.0490 O   0  0  0  0  0  0  0  0  0  0  0  0
   -0.2140    6.9210   -6.5980 C   0  0  0  0  0  0  0  0  0  0  0  0
    0.2220    7.9850   -7.6090 C   0  0  0  0  0  0  0  0  0  0  0  0
    0.7300    7.3830   -8.9150 C   0  0  0  0  0  0  0  0  0  0  0  0
    2.0690    6.7870   -8.7400 N   0  0  0  0  0  0  0  0  0  0  0  0
    2.6540    5.9250   -9.5680 C   0  0  0  0  0  3  0  0  0  0  0  0
    2.0190    5.4650  -10.6330 N   0  0  0  0  0  0  0  0  0  0  0  0
    3.8810    5.5180   -9.3160 N   0  0  0  0  0  0  0  0  0  0  0  0
   -1.9730    6.8920   -3.5270 N   0  0  0  0  0  0  0  0  0  0  0  0
   -2.6030    6.0670   -2.5240 C   0  0  2  0  0  0  0  0  0  0  0  0
   -3.9910    5.6230   -2.9500 C   0  0  0  0  0  0  0  0  0  0  0  0
   -4.5140    6.0820   -3.9810 O   0  0  0  0  0  0  0  0  0  0  0  0
   -2.6740    6.8070   -1.1580 C   0  0  2  0  0  0  0  0  0  0  0  0
   -3.2940    8.1130   -1.2990 O   0  0  0  0  0  0  0  0  0  0  0  0
   -1.2850    6.9480   -0.5830 C   0  0  0  0  0  0  0  0  0  0  0  0
   -4.5750    4.7200   -2.1760 N   0  0  0  0  0  0  0  0  0  0  0  0
   -5.9360    4.2280   -2.4300 C   0  0  1  0  0  0  0  0  0  0  0  0
   -5.9670    3.3130   -3.6490 C   0  0  0  0  0  0  0  0  0  0  0  0
   -5.0520    2.1640   -3.4980 C   0  0  0  0  0  0  0  0  0  0  0  0
   -4.9210    1.3310   -4.7290 C   0  0  0  0  0  0  0  0  0  0  0  0
   -6.1710    0.5820   -5.0970 C   0  0  0  0  0  0  0  0  0  0  0  0
   -5.9730   -0.2440   -6.3570 N   0  3  0  0  0  0  0  0  0  0  0  0
   -6.4380    3.4620   -1.2440 C   0  0  0  0  0  0  0  0  0  0  0  0
   -5.6600    3.1080   -0.3470 O   0  0  0  0  0  0  0  0  0  0  0  0
   -4.8130   -1.1570   -6.2170 C   0  0  0  0  0  0  0  0  0  0  0  0
   -5.7510    0.6870   -7.5230 C   0  0  0  0  0  0  0  0  0  0  0  0
   -7.1510   -1.0830   -6.5910 C   0  0  0  0  0  0  0  0  0  0  0  0
   -7.7140    3.1930   -1.2540 N   0  0  0  0  0  0  0  0  0  0  0  0
   -8.3510    2.4400   -0.2200 C   0  0  2  0  0  0  0  0  0  0  0  0
   -9.4170    1.5720   -0.8680 C   0  0  0  0  0  0  0  0  0  0  0  0
  -10.3550    2.0830   -1.4780 O   0  0  0  0  0  0  0  0  0  0  0  0
   -8.9660    3.3820    0.8160 C   0  0  0  0  0  0  0  0  0  0  0  0
   -9.5400    2.6780    2.0340 C   0  0  0  0  0  0  0  0  0  0  0  0
  -10.1020    3.6510    3.0380 C   0  0  0  0  0  0  0  0  0  0  0  0
  -11.2910    3.9890    3.0030 O   0  0  0  0  0  0  0  0  0  0  0  0
   -9.2630    4.1370    3.9070 N   0  0  0  0  0  0  0  0  0  0  0  0
   -9.2500    0.2820   -0.7730 N   0  0  0  0  0  0  0  0  0  0  0  0
  -10.1870   -0.6440   -1.3760 C   0  0  2  0  0  0  0  0  0  0  0  0
  -11.2700   -1.0110   -0.3650 C   0  0  0  0  0  0  0  0  0  0  0  0
  -10.9550   -1.3830    0.7830 O   0  0  0  0  0  0  0  0  0  0  0  0
   -9.4600   -1.9240   -1.8460 C   0  0  2  0  0  0  0  0  0  0  0  0
   -8.7630   -2.4950   -0.7230 O   0  0  0  0  0  0  0  0  0  0  0  0
   -8.4570   -1.6140   -2.9740 C   0  0  0  0  0  0  0  0  0  0  0  0
  -12.5160   -0.9110   -0.7750 N   0  0  0  0  0  0  0  0  0  0  0  0
  -13.6230   -1.2170    0.0970 C   0  0  2  0  0  0  0  0  0  0  0  0
  -14.2360   -2.5620   -0.2630 C   0  0  0  0  0  0  0  0  0  0  0  0
  -14.7710   -2.7490   -1.3470 O   0  0  0  0  0  0  0  0  0  0  0  0
  -14.6710   -0.1020    0.0870 C   0  0  0  0  0  0  0  0  0  0  0  0
  -14.1470   -3.4730    0.6520 N   0  0  0  0  0  0  0  0  0  0  0  0
  -14.6060   -4.8240    0.5080 C   0  0  2  0  0  0  0  0  0  0  0  0
  -15.8060   -5.0680    1.4000 C   0  0  0  0  0  0  0  0  0  0  0  0
  -15.8820   -4.5360    2.5080 O   0  0  0  0  0  0  0  0  0  0  0  0
  -13.4800   -5.7730    0.9180 C   0  0  0  0  0  0  0  0  0  0  0  0
  -12.2630   -5.7160    0.0200 C   0  0  0  0  0  0  0  0  0  0  0  0
  -12.5840   -6.2810   -1.3440 C   0  0  0  0  0  0  0  0  0  0  0  0
  -12.9970   -7.6950   -1.2330 N   0  0  0  0  0  0  0  0  0  0  0  0
  -13.4760   -8.4410   -2.2300 C   0  0  0  0  0  3  0  0  0  0  0  0
  -13.6280   -7.9270   -3.4450 N   0  0  0  0  0  0  0  0  0  0  0  0
  -13.8070   -9.7120   -2.0050 N   0  0  0  0  0  0  0  0  0  0  0  0
  -16.7490   -5.8540    0.8900 N   0  0  0  0  0  0  0  0  0  0  0  0
  -17.9450   -6.2960    1.6410 C   0  0  2  0  0  0  0  0  0  0  0  0
  -18.6570   -5.1320    2.3600 C   0  0  0  0  0  0  0  0  0  0  0  0
  -17.5690   -7.4130    2.6440 C   0  0  0  0  0  0  0  0  0  0  0  0
  -16.9050   -8.6360    2.0110 C   0  0  0  0  0  0  0  0  0  0  0  0
  -17.8040   -9.3210    0.9850 C   0  0  0  0  0  0  0  0  0  0  0  0
  -17.0900  -10.5030    0.3320 C   0  0  0  0  0  0  0  0  0  0  0  0
  -17.9420  -11.1780   -0.6770 N   0  3  0  0  0  0  0  0  0  0  0  0
    3.9343   10.2557   -2.6242 H   0  0  0  0  0  0  0  0  0  0  0  0
    2.3521   10.3226   -2.1754 H   0  0  0  0  0  0  0  0  0  0  0  0
    2.8355   11.0081   -3.5917 H   0  0  0  0  0  0  0  0  0  0  0  0
    3.4166    8.8964   -4.5207 H   0  0  0  0  0  0  0  0  0  0  0  0
    2.7796    6.8224   -3.3110 H   0  0  0  0  0  0  0  0  0  0  0  0
    2.3095    7.8042   -1.8821 H   0  0  0  0  0  0  0  0  0  0  0  0
    4.0244    7.7573   -2.4148 H   0  0  0  0  0  0  0  0  0  0  0  0
    1.6825    7.0576   -4.7993 H   0  0  0  0  0  0  0  0  0  0  0  0
   -0.9366    8.3825   -5.1969 H   0  0  0  0  0  0  0  0  0  0  0  0
   -1.1950    6.5275   -6.9026 H   0  0  0  0  0  0  0  0  0  0  0  0
    0.5255    6.1067   -6.6035 H   0  0  0  0  0  0  0  0  0  0  0  0
    1.0274    8.5862   -7.1619 H   0  0  0  0  0  0  0  0  0  0  0  0
   -0.6388    8.6327   -7.8315 H   0  0  0  0  0  0  0  0  0  0  0  0
    0.7857    8.1739   -9.6775 H   0  0  0  0  0  0  0  0  0  0  0  0
    0.0299    6.6022   -9.2470 H   0  0  0  0  0  0  0  0  0  0  0  0
    2.5986    7.0634   -7.9009 H   0  0  0  0  0  0  0  0  0  0  0  0
    2.4868    4.7982  -11.2634 H   0  0  0  0  0  0  0  0  0  0  0  0
    1.0567    5.7735  -10.8320 H   0  0  0  0  0  0  0  0  0  0  0  0
    4.3813    5.8722   -8.4883 H   0  0  0  0  0  0  0  0  0  0  0  0
    4.3402    4.8455   -9.9466 H   0  0  0  0  0  0  0  0  0  0  0  0
   -2.3321    7.8093   -3.6990 H   0  0  0  0  0  0  0  0  0  0  0  0
   -1.9846    5.1668   -2.3931 H   0  0  0  0  0  0  0  0  0  0  0  0
   -3.2829    6.2062   -0.4665 H   0  0  0  0  0  0  0  0  0  0  0  0
   -3.3240    8.5412   -0.4515 H   0  0  0  0  0  0  0  0  0  0  0  0
   -1.3394    7.4717    0.3828 H   0  0  0  0  0  0  0  0  0  0  0  0
   -0.6572    7.5249   -1.2780 H   0  0  0  0  0  0  0  0  0  0  0  0
   -0.8465    5.9502   -0.4348 H   0  0  0  0  0  0  0  0  0  0  0  0
   -4.0713    4.3603   -1.3906 H   0  0  0  0  0  0  0  0  0  0  0  0
   -6.5957    5.0895   -2.6105 H   0  0  0  0  0  0  0  0  0  0  0  0
   -5.6682    3.8914   -4.5356 H   0  0  0  0  0  0  0  0  0  0  0  0
   -6.9915    2.9363   -3.7850 H   0  0  0  0  0  0  0  0  0  0  0  0
   -5.4290    1.5251   -2.6858 H   0  0  0  0  0  0  0  0  0  0  0  0
   -4.0559    2.5469   -3.2311 H   0  0  0  0  0  0  0  0  0  0  0  0
   -4.1149    0.6002   -4.5678 H   0  0  0  0  0  0  0  0  0  0  0  0
   -4.6546    1.9919   -5.5670 H   0  0  0  0  0  0  0  0  0  0  0  0
   -6.9837    1.3037   -5.2665 H   0  0  0  0  0  0  0  0  0  0  0  0
   -6.4431   -0.0887   -4.2687 H   0  0  0  0  0  0  0  0  0  0  0  0
   -4.6928   -1.7415   -7.1411 H   0  0  0  0  0  0  0  0  0  0  0  0
   -4.9834   -1.8393   -5.3712 H   0  0  0  0  0  0  0  0  0  0  0  0
   -3.9023   -0.5676   -6.0350 H   0  0  0  0  0  0  0  0  0  0  0  0
   -6.6138    1.3620   -7.6227 H   0  0  0  0  0  0  0  0  0  0  0  0
   -5.6372    0.0987   -8.4455 H   0  0  0  0  0  0  0  0  0  0  0  0
   -4.8401    1.2793   -7.3511 H   0  0  0  0  0  0  0  0  0  0  0  0
   -7.2988   -1.7551   -5.7328 H   0  0  0  0  0  0  0  0  0  0  0  0
   -7.0008   -1.6800   -7.5026 H   0  0  0  0  0  0  0  0  0  0  0  0
   -8.0379   -0.4439   -6.7132 H   0  0  0  0  0  0  0  0  0  0  0  0
   -8.2690    3.5271   -2.0158 H   0  0  0  0  0  0  0  0  0  0  0  0
   -7.6098    1.7976    0.2778 H   0  0  0  0  0  0  0  0  0  0  0  0
   -9.7754    3.9473    0.3309 H   0  0  0  0  0  0  0  0  0  0  0  0
   -8.1851    4.0782    1.1560 H   0  0  0  0  0  0  0  0  0  0  0  0
   -8.7419    2.0934    2.5149 H   0  0  0  0  0  0  0  0  0  0  0  0
  -10.3436    2.0018    1.7071 H   0  0  0  0  0  0  0  0  0  0  0  0
   -9.5792    4.7874    4.5977 H   0  0  0  0  0  0  0  0  0  0  0  0
   -8.3024    3.8599    3.8838 H   0  0  0  0  0  0  0  0  0  0  0  0
   -8.4600   -0.0748   -0.2744 H   0  0  0  0  0  0  0  0  0  0  0  0
  -10.6558   -0.1607   -2.2458 H   0  0  0  0  0  0  0  0  0  0  0  0
  -10.2037   -2.6436   -2.2189 H   0  0  0  0  0  0  0  0  0  0  0  0
   -9.3874   -2.7094   -0.0399 H   0  0  0  0  0  0  0  0  0  0  0  0
   -7.9572   -2.5430   -3.2858 H   0  0  0  0  0  0  0  0  0  0  0  0
   -7.7056   -0.8978   -2.6100 H   0  0  0  0  0  0  0  0  0  0  0  0
   -8.9921   -1.1800   -3.8315 H   0  0  0  0  0  0  0  0  0  0  0  0
  -12.6997   -0.6161   -1.7127 H   0  0  0  0  0  0  0  0  0  0  0  0
  -13.2300   -1.2926    1.1216 H   0  0  0  0  0  0  0  0  0  0  0  0
  -15.4976   -0.3698    0.7615 H   0  0  0  0  0  0  0  0  0  0  0  0
  -15.0585    0.0279   -0.9342 H   0  0  0  0  0  0  0  0  0  0  0  0
  -14.2103    0.8373    0.4266 H   0  0  0  0  0  0  0  0  0  0  0  0
  -13.7277   -3.2161    1.5227 H   0  0  0  0  0  0  0  0  0  0  0  0
  -14.8845   -5.0079   -0.5401 H   0  0  0  0  0  0  0  0  0  0  0  0
  -13.8721   -6.8006    0.9027 H   0  0  0  0  0  0  0  0  0  0  0  0
  -13.1666   -5.5152    1.9404 H   0  0  0  0  0  0  0  0  0  0  0  0
  -11.4511   -6.3037    0.4731 H   0  0  0  0  0  0  0  0  0  0  0  0
  -11.9419   -4.6695   -0.0883 H   0  0  0  0  0  0  0  0  0  0  0  0
  -11.6914   -6.2136   -1.9832 H   0  0  0  0  0  0  0  0  0  0  0  0
  -13.4019   -5.6991   -1.7938 H   0  0  0  0  0  0  0  0  0  0  0  0
  -12.9078   -8.1420   -0.3094 H   0  0  0  0  0  0  0  0  0  0  0  0
  -13.9986   -8.5107   -4.2085 H   0  0  0  0  0  0  0  0  0  0  0  0
  -13.3753   -6.9446   -3.6239 H   0  0  0  0  0  0  0  0  0  0  0  0
  -13.6911  -10.1156   -1.0645 H   0  0  0  0  0  0  0  0  0  0  0  0
  -14.1788  -10.2908   -2.7716 H   0  0  0  0  0  0  0  0  0  0  0  0
  -16.6442   -6.1642   -0.0549 H   0  0  0  0  0  0  0  0  0  0  0  0
  -18.6548   -6.7188    0.9148 H   0  0  0  0  0  0  0  0  0  0  0  0
  -19.5349   -5.5166    2.8998 H   0  0  0  0  0  0  0  0  0  0  0  0
  -18.9801   -4.3860    1.6190 H   0  0  0  0  0  0  0  0  0  0  0  0
  -17.9639   -4.6633    3.0741 H   0  0  0  0  0  0  0  0  0  0  0  0
  -18.4879   -7.7442    3.1498 H   0  0  0  0  0  0  0  0  0  0  0  0
  -16.8747   -6.9901    3.3849 H   0  0  0  0  0  0  0  0  0  0  0  0
  -16.6626   -9.3571    2.8055 H   0  0  0  0  0  0  0  0  0  0  0  0
  -15.9788   -8.3160    1.5112 H   0  0  0  0  0  0  0  0  0  0  0  0
  -18.0807   -8.5940    0.2073 H   0  0  0  0  0  0  0  0  0  0  0  0
  -18.7126   -9.6833    1.4882 H   0  0  0  0  0  0  0  0  0  0  0  0
  -16.8199  -11.2299    1.1122 H   0  0  0  0  0  0  0  0  0  0  0  0
  -16.1770  -10.1381   -0.1611 H   0  0  0  0  0  0  0  0  0  0  0  0
  -17.4354  -11.9493   -1.0826 H   0  0  0  0  0  0  0  0  0  0  0  0
  -18.1902  -10.5215   -1.4005 H   0  0  0  0  0  0  0  0  0  0  0  0
  -18.7794  -11.5220   -0.2337 H   0  0  0  0  0  0  0  0  0  0  0  0
  1  2  1  0  0  0  0
  1 76  1  0  0  0  0
  1 77  1  0  0  0  0
  1 78  1  0  0  0  0
  2  3  1  0  0  0  0
  2  5  1  0  0  0  0
  2 79  1  6  0  0  0
  3  4  2  0  0  0  0
  3  6  1  0  0  0  0
  5 80  1  0  0  0  0
  5 81  1  0  0  0  0
  5 82  1  0  0  0  0
  6  7  1  0  0  0  0
  6 83  1  0  0  0  0
  7  8  1  0  0  0  0
  7 10  1  0  0  0  0
  7 84  1  6  0  0  0
  8  9  2  0  0  0  0
  8 17  1  0  0  0  0
 10 11  1  0  0  0  0
 10 85  1  0  0  0  0
 10 86  1  0  0  0  0
 11 12  1  0  0  0  0
 11 87  1  0  0  0  0
 11 88  1  0  0  0  0
 12 13  1  0  0  0  0
 12 89  1  0  0  0  0
 12 90  1  0  0  0  0
 13 14  1  0  0  0  0
 13 91  1  0  0  0  0
 14 15  1  0  0  0  0
 14 16  1  0  0  0  0
 15 92  1  0  0  0  0
 15 93  1  0  0  0  0
 16 94  1  0  0  0  0
 16 95  1  0  0  0  0
 17 18  1  0  0  0  0
 17 96  1  0  0  0  0
 18 19  1  0  0  0  0
 18 21  1  0  0  0  0
 18 97  1  1  0  0  0
 19 20  2  0  0  0  0
 19 24  1  0  0  0  0
 21 22  1  0  0  0  0
 21 23  1  0  0  0  0
 21 98  1  1  0  0  0
 22 99  1  0  0  0  0
 23100  1  0  0  0  0
 23101  1  0  0  0  0
 23102  1  0  0  0  0
 24 25  1  0  0  0  0
 24103  1  0  0  0  0
 25 26  1  0  0  0  0
 25 31  1  0  0  0  0
 25104  1  6  0  0  0
 26 27  1  0  0  0  0
 26105  1  0  0  0  0
 26106  1  0  0  0  0
 27 28  1  0  0  0  0
 27107  1  0  0  0  0
 27108  1  0  0  0  0
 28 29  1  0  0  0  0
 28109  1  0  0  0  0
 28110  1  0  0  0  0
 29 30  1  0  0  0  0
 29111  1  0  0  0  0
 29112  1  0  0  0  0
 30 33  1  0  0  0  0
 30 34  1  0  0  0  0
 30 35  1  0  0  0  0
 31 32  2  0  0  0  0
 31 36  1  0  0  0  0
 33113  1  0  0  0  0
 33114  1  0  0  0  0
 33115  1  0  0  0  0
 34116  1  0  0  0  0
 34117  1  0  0  0  0
 34118  1  0  0  0  0
 35119  1  0  0  0  0
 35120  1  0  0  0  0
 35121  1  0  0  0  0
 36 37  1  0  0  0  0
 36122  1  0  0  0  0
 37 38  1  0  0  0  0
 37 40  1  0  0  0  0
 37123  1  1  0  0  0
 38 39  2  0  0  0  0
 38 45  1  0  0  0  0
 40 41  1  0  0  0  0
 40124  1  0  0  0  0
 40125  1  0  0  0  0
 41 42  1  0  0  0  0
 41126  1  0  0  0  0
 41127  1  0  0  0  0
 42 43  2  0  0  0  0
 42 44  1  0  0  0  0
 44128  1  0  0  0  0
 44129  1  0  0  0  0
 45 46  1  0  0  0  0
 45130  1  0  0  0  0
 46 47  1  0  0  0  0
 46 49  1  0  0  0  0
 46131  1  6  0  0  0
 47 48  2  0  0  0  0
 47 52  1  0  0  0  0
 49 50  1  0  0  0  0
 49 51  1  0  0  0  0
 49132  1  6  0  0  0
 50133  1  0  0  0  0
 51134  1  0  0  0  0
 51135  1  0  0  0  0
 51136  1  0  0  0  0
 52 53  1  0  0  0  0
 52137  1  0  0  0  0
 53 54  1  0  0  0  0
 53 56  1  0  0  0  0
 53138  1  1  0  0  0
 54 55  2  0  0  0  0
 54 57  1  0  0  0  0
 56139  1  0  0  0  0
 56140  1  0  0  0  0
 56141  1  0  0  0  0
 57 58  1  0  0  0  0
 57142  1  0  0  0  0
 58 59  1  0  0  0  0
 58 61  1  0  0  0  0
 58143  1  6  0  0  0
 59 60  2  0  0  0  0
 59 68  1  0  0  0  0
 61 62  1  0  0  0  0
 61144  1  0  0  0  0
 61145  1  0  0  0  0
 62 63  1  0  0  0  0
 62146  1  0  0  0  0
 62147  1  0  0  0  0
 63 64  1  0  0  0  0
 63148  1  0  0  0  0
 63149  1  0  0  0  0
 64 65  1  0  0  0  0
 64150  1  0  0  0  0
 65 66  1  0  0  0  0
 65 67  1  0  0  0  0
 66151  1  0  0  0  0
 66152  1  0  0  0  0
 67153  1  0  0  0  0
 67154  1  0  0  0  0
 68 69  1  0  0  0  0
 68155  1  0  0  0  0
 69 70  1  0  0  0  0
 69 71  1  0  0  0  0
 69156  1  6  0  0  0
 70157  1  0  0  0  0
 70158  1  0  0  0  0
 70159  1  0  0  0  0
 71 72  1  0  0  0  0
 71160  1  0  0  0  0
 71161  1  0  0  0  0
 72 73  1  0  0  0  0
 72162  1  0  0  0  0
 72163  1  0  0  0  0
 73 74  1  0  0  0  0
 73164  1  0  0  0  0
 73165  1  0  0  0  0
 74 75  1  0  0  0  0
 74166  1  0  0  0  0
 74167  1  0  0  0  0
 75168  1  0  0  0  0
 75169  1  0  0  0  0
 75170  1  0  0  0  0
M  CHG  3   1   1  30   1  75   1
M  END
