2ksa_ligand
 OpenBabel08222323343D

194197  0  0  1  0  0  0  0  0999 V2000
  -23.0160  -15.9410  -26.3650 N   0  3  0  0  0  0  0  0  0  0  0  0
  -22.4480  -14.9550  -27.3260 C   0  0  2  0  0  0  0  0  0  0  0  0
  -22.9260  -13.5500  -26.9330 C   0  0  0  0  0  0  0  0  0  0  0  0
  -24.1090  -13.3640  -26.6490 O   0  0  0  0  0  0  0  0  0  0  0  0
  -22.9410  -15.2990  -28.7360 C   0  0  0  0  0  0  0  0  0  0  0  0
  -23.3700  -14.0230  -29.4620 C   0  0  0  0  0  0  0  0  0  0  0  0
  -22.4580  -13.7960  -30.6700 C   0  0  0  0  0  0  0  0  0  0  0  0
  -22.3220  -12.3690  -30.9390 N   0  0  0  0  0  0  0  0  0  0  0  0
  -22.2800  -11.9070  -32.1850 C   0  0  0  0  0  3  0  0  0  0  0  0
  -22.3610  -12.7340  -33.1900 N   0  0  0  0  0  0  0  0  0  0  0  0
  -22.1580  -10.6260  -32.4010 N   0  0  0  0  0  0  0  0  0  0  0  0
  -22.0580  -12.5560  -26.9000 N   0  0  0  0  0  0  0  0  0  0  0  0
  -22.4660  -11.1680  -26.5170 C   0  0  2  0  0  0  0  0  0  0  0  0
  -23.4030  -10.5440  -27.5520 C   0  0  0  0  0  0  0  0  0  0  0  0
  -23.2550  -10.7710  -28.7530 O   0  0  0  0  0  0  0  0  0  0  0  0
  -21.1360  -10.4050  -26.4140 C   0  0  0  0  0  0  0  0  0  0  0  0
  -20.1960  -11.1530  -27.3020 C   0  0  0  0  0  0  0  0  0  0  0  0
  -20.6170  -12.6210  -27.2240 C   0  0  0  0  0  0  0  0  0  0  0  0
  -24.3610   -9.7550  -27.0780 N   0  0  0  0  0  0  0  0  0  0  0  0
  -25.3110   -9.1030  -27.9730 C   0  0  2  0  0  0  0  0  0  0  0  0
  -24.5980   -7.9960  -28.7790 C   0  0  0  0  0  0  0  0  0  0  0  0
  -23.9170   -7.1580  -28.1910 O   0  0  0  0  0  0  0  0  0  0  0  0
  -26.4570   -8.5110  -27.1470 C   0  0  0  0  0  0  0  0  0  0  0  0
  -26.6420   -9.3040  -25.8350 C   0  0  0  0  0  0  0  0  0  0  0  0
  -26.4370   -8.3750  -24.6370 C   0  0  0  0  0  0  0  0  0  0  0  0
  -27.6410   -8.4610  -23.6940 C   0  0  0  0  0  0  0  0  0  0  0  0
  -27.1630   -8.6670  -22.2970 N   0  3  0  0  0  0  0  0  0  0  0  0
  -24.6970   -7.9850  -30.1000 N   0  0  0  0  0  0  0  0  0  0  0  0
  -23.9940   -6.9650  -30.9540 C   0  0  2  0  0  0  0  0  0  0  0  0
  -24.5410   -5.5350  -30.8210 C   0  0  0  0  0  0  0  0  0  0  0  0
  -23.8630   -4.5780  -31.1900 O   0  0  0  0  0  0  0  0  0  0  0  0
  -24.1780   -7.5010  -32.3840 C   0  0  0  0  0  0  0  0  0  0  0  0
  -25.4270   -8.3160  -32.3350 C   0  0  0  0  0  0  0  0  0  0  0  0
  -25.4890   -8.9200  -30.9300 C   0  0  0  0  0  0  0  0  0  0  0  0
  -25.7670   -5.3890  -30.3340 N   0  0  0  0  0  0  0  0  0  0  0  0
  -26.3710   -4.0560  -30.2180 C   0  0  2  0  0  0  0  0  0  0  0  0
  -25.5260   -3.1250  -29.3400 C   0  0  0  0  0  0  0  0  0  0  0  0
  -25.3990   -1.9360  -29.6330 O   0  0  0  0  0  0  0  0  0  0  0  0
  -27.8200   -4.1350  -29.6740 C   0  0  0  0  0  0  0  0  0  0  0  0
  -28.6820   -2.9820  -30.2060 C   0  0  0  0  0  0  0  0  0  0  0  0
  -29.2290   -2.1430  -29.0560 C   0  0  0  0  0  0  0  0  0  0  0  0
  -30.3760   -2.3250  -28.6480 O   0  0  0  0  0  0  0  0  0  0  0  0
  -28.4830   -1.2240  -28.5110 N   0  0  0  0  0  0  0  0  0  0  0  0
  -24.9620   -3.6620  -28.2720 N   0  0  0  0  0  0  0  0  0  0  0  0
  -24.1440   -2.8650  -27.3670 C   0  0  2  0  0  0  0  0  0  0  0  0
  -22.8180   -2.5020  -28.0240 C   0  0  0  0  0  0  0  0  0  0  0  0
  -22.0580   -1.6890  -27.5010 O   0  0  0  0  0  0  0  0  0  0  0  0
  -23.8930   -3.6480  -26.0720 C   0  0  0  0  0  0  0  0  0  0  0  0
  -24.7560   -3.0760  -24.9400 C   0  0  0  0  0  0  0  0  0  0  0  0
  -25.9000   -4.0270  -24.6150 C   0  0  0  0  0  0  0  0  0  0  0  0
  -25.9950   -5.1120  -25.1890 O   0  0  0  0  0  0  0  0  0  0  0  0
  -26.7750   -3.6780  -23.7160 N   0  0  0  0  0  0  0  0  0  0  0  0
  -22.5380   -3.1230  -29.1620 N   0  0  0  0  0  0  0  0  0  0  0  0
  -21.2900   -2.8670  -29.8610 C   0  0  2  0  0  0  0  0  0  0  0  0
  -21.1720   -1.3880  -30.2080 C   0  0  0  0  0  0  0  0  0  0  0  0
  -20.1290   -0.7680  -29.9960 O   0  0  0  0  0  0  0  0  0  0  0  0
  -21.2290   -3.6890  -31.1470 C   0  0  0  0  0  0  0  0  0  0  0  0
  -20.7530   -5.0870  -30.8300 C   0  0  0  0  0  0  0  0  0  0  0  0
  -20.9870   -5.6330  -29.5610 C   0  0  0  0  0  0  0  0  0  0  0  0
  -20.0830   -5.8380  -31.8030 C   0  0  0  0  0  0  0  0  0  0  0  0
  -20.5470   -6.9300  -29.2660 C   0  0  0  0  0  0  0  0  0  0  0  0
  -19.6450   -7.1350  -31.5070 C   0  0  0  0  0  0  0  0  0  0  0  0
  -19.8770   -7.6800  -30.2400 C   0  0  0  0  0  0  0  0  0  0  0  0
  -22.2510   -0.8310  -30.7420 N   0  0  0  0  0  0  0  0  0  0  0  0
  -22.2750    0.5760  -31.1190 C   0  0  2  0  0  0  0  0  0  0  0  0
  -22.0560    1.4550  -29.9060 C   0  0  0  0  0  0  0  0  0  0  0  0
  -21.2260    2.3640  -29.9220 O   0  0  0  0  0  0  0  0  0  0  0  0
  -23.6310    0.9110  -31.7200 C   0  0  0  0  0  0  0  0  0  0  0  0
  -23.6730    2.3720  -32.0970 C   0  0  0  0  0  0  0  0  0  0  0  0
  -22.6110    2.9420  -32.8110 C   0  0  0  0  0  0  0  0  0  0  0  0
  -24.7730    3.1570  -31.7340 C   0  0  0  0  0  0  0  0  0  0  0  0
  -22.6490    4.2970  -33.1590 C   0  0  0  0  0  0  0  0  0  0  0  0
  -24.8110    4.5130  -32.0850 C   0  0  0  0  0  0  0  0  0  0  0  0
  -23.7500    5.0820  -32.7970 C   0  0  0  0  0  0  0  0  0  0  0  0
  -22.8100    1.1700  -28.8540 N   0  0  0  0  0  0  0  0  0  0  0  0
  -22.7110    1.9260  -27.6150 C   0  0  0  0  0  0  0  0  0  0  0  0
  -22.2970    1.0060  -26.4840 C   0  0  0  0  0  0  0  0  0  0  0  0
  -23.1250    0.5710  -25.6830 O   0  0  0  0  0  0  0  0  0  0  0  0
  -21.0110    0.6970  -26.4370 N   0  0  0  0  0  0  0  0  0  0  0  0
  -20.4960   -0.1930  -25.4110 C   0  0  2  0  0  0  0  0  0  0  0  0
  -20.7390    0.4050  -24.0250 C   0  0  0  0  0  0  0  0  0  0  0  0
  -21.1210   -0.3030  -23.0920 O   0  0  0  0  0  0  0  0  0  0  0  0
  -18.9900   -0.4340  -25.6210 C   0  0  0  0  0  0  0  0  0  0  0  0
  -18.7530   -1.8420  -26.2300 C   0  0  0  0  0  0  0  0  0  0  0  0
  -17.6460   -1.7820  -27.2920 C   0  0  0  0  0  0  0  0  0  0  0  0
  -18.3390   -2.8370  -25.1290 C   0  0  0  0  0  0  0  0  0  0  0  0
  -20.5170    1.7080  -23.9010 N   0  0  0  0  0  0  0  0  0  0  0  0
  -20.7170    2.3890  -22.6280 C   0  0  2  0  0  0  0  0  0  0  0  0
  -22.1540    2.2160  -22.1490 C   0  0  0  0  0  0  0  0  0  0  0  0
  -22.9920    3.0040  -22.5550 O   0  5  0  0  0  0  0  0  0  0  0  0
  -20.4010    3.8780  -22.7760 C   0  0  0  0  0  0  0  0  0  0  0  0
  -20.2520    4.5100  -21.3900 C   0  0  0  0  0  0  0  0  0  0  0  0
  -18.6770    5.3970  -21.3010 S   0  0  0  0  0  0  0  0  0  0  0  0
  -18.2400    5.2600  -23.0520 C   0  0  0  0  0  0  0  0  0  0  0  0
  -22.3960    1.2980  -21.3840 O   0  0  0  0  0  0  0  0  0  0  0  0
  -22.7083  -16.8681  -26.6137 H   0  0  0  0  0  0  0  0  0  0  0  0
  -24.0226  -15.9009  -26.3981 H   0  0  0  0  0  0  0  0  0  0  0  0
  -22.7014  -15.7214  -25.4329 H   0  0  0  0  0  0  0  0  0  0  0  0
  -21.3491  -14.9942  -27.2977 H   0  0  0  0  0  0  0  0  0  0  0  0
  -23.7983  -15.9846  -28.6657 H   0  0  0  0  0  0  0  0  0  0  0  0
  -22.1292  -15.7834  -29.2984 H   0  0  0  0  0  0  0  0  0  0  0  0
  -23.2914  -13.1663  -28.7765 H   0  0  0  0  0  0  0  0  0  0  0  0
  -24.4110  -14.1263  -29.8021 H   0  0  0  0  0  0  0  0  0  0  0  0
  -22.8920  -14.2917  -31.5508 H   0  0  0  0  0  0  0  0  0  0  0  0
  -21.4657  -14.2222  -30.4610 H   0  0  0  0  0  0  0  0  0  0  0  0
  -22.2575  -11.7086  -30.1512 H   0  0  0  0  0  0  0  0  0  0  0  0
  -22.3285  -12.3762  -34.1553 H   0  0  0  0  0  0  0  0  0  0  0  0
  -22.4575  -13.7450  -33.0185 H   0  0  0  0  0  0  0  0  0  0  0  0
  -22.0941   -9.9736  -31.6066 H   0  0  0  0  0  0  0  0  0  0  0  0
  -22.1256  -10.2672  -33.3660 H   0  0  0  0  0  0  0  0  0  0  0  0
  -22.9750  -11.1770  -25.5419 H   0  0  0  0  0  0  0  0  0  0  0  0
  -20.7699  -10.4030  -25.3767 H   0  0  0  0  0  0  0  0  0  0  0  0
  -21.2560   -9.3686  -26.7625 H   0  0  0  0  0  0  0  0  0  0  0  0
  -19.1609  -11.0334  -26.9494 H   0  0  0  0  0  0  0  0  0  0  0  0
  -20.2755  -10.7875  -28.3364 H   0  0  0  0  0  0  0  0  0  0  0  0
  -20.4539  -13.1274  -28.1868 H   0  0  0  0  0  0  0  0  0  0  0  0
  -20.0608  -13.1470  -26.4342 H   0  0  0  0  0  0  0  0  0  0  0  0
  -24.4321   -9.6056  -26.0918 H   0  0  0  0  0  0  0  0  0  0  0  0
  -25.7190   -9.8476  -28.6723 H   0  0  0  0  0  0  0  0  0  0  0  0
  -27.3871   -8.5574  -27.7324 H   0  0  0  0  0  0  0  0  0  0  0  0
  -26.2266   -7.4625  -26.9071 H   0  0  0  0  0  0  0  0  0  0  0  0
  -25.9060  -10.1205  -25.7945 H   0  0  0  0  0  0  0  0  0  0  0  0
  -27.6580   -9.7242  -25.8020 H   0  0  0  0  0  0  0  0  0  0  0  0
  -26.3269   -7.3402  -24.9934 H   0  0  0  0  0  0  0  0  0  0  0  0
  -25.5280   -8.6749  -24.0950 H   0  0  0  0  0  0  0  0  0  0  0  0
  -28.2802   -9.3054  -23.9912 H   0  0  0  0  0  0  0  0  0  0  0  0
  -28.2184   -7.5264  -23.7501 H   0  0  0  0  0  0  0  0  0  0  0  0
  -27.9549   -8.7237  -21.6759 H   0  0  0  0  0  0  0  0  0  0  0  0
  -26.5772   -7.8932  -22.0247 H   0  0  0  0  0  0  0  0  0  0  0  0
  -26.6338   -9.5234  -22.2457 H   0  0  0  0  0  0  0  0  0  0  0  0
  -22.9256   -6.9443  -30.6931 H   0  0  0  0  0  0  0  0  0  0  0  0
  -23.3206   -8.1252  -32.6759 H   0  0  0  0  0  0  0  0  0  0  0  0
  -24.2865   -6.6704  -33.0970 H   0  0  0  0  0  0  0  0  0  0  0  0
  -25.3916   -9.1137  -33.0915 H   0  0  0  0  0  0  0  0  0  0  0  0
  -26.3053   -7.6787  -32.5150 H   0  0  0  0  0  0  0  0  0  0  0  0
  -26.5283   -8.9741  -30.5737 H   0  0  0  0  0  0  0  0  0  0  0  0
  -25.0443   -9.9260  -30.9175 H   0  0  0  0  0  0  0  0  0  0  0  0
  -26.2839   -6.1942  -30.0435 H   0  0  0  0  0  0  0  0  0  0  0  0
  -26.4126   -3.6211  -31.2275 H   0  0  0  0  0  0  0  0  0  0  0  0
  -27.7931   -4.0842  -28.5755 H   0  0  0  0  0  0  0  0  0  0  0  0
  -28.2678   -5.0900  -29.9861 H   0  0  0  0  0  0  0  0  0  0  0  0
  -29.5224   -3.3957  -30.7827 H   0  0  0  0  0  0  0  0  0  0  0  0
  -28.0684   -2.3437  -30.8586 H   0  0  0  0  0  0  0  0  0  0  0  0
  -28.8397   -0.6727  -27.7568 H   0  0  0  0  0  0  0  0  0  0  0  0
  -27.5538   -1.0701  -28.8470 H   0  0  0  0  0  0  0  0  0  0  0  0
  -25.0993   -4.6340  -28.0814 H   0  0  0  0  0  0  0  0  0  0  0  0
  -24.6838   -1.9378  -27.1242 H   0  0  0  0  0  0  0  0  0  0  0  0
  -22.8310   -3.5675  -25.7972 H   0  0  0  0  0  0  0  0  0  0  0  0
  -24.1519   -4.7055  -26.2292 H   0  0  0  0  0  0  0  0  0  0  0  0
  -25.1687   -2.1057  -25.2532 H   0  0  0  0  0  0  0  0  0  0  0  0
  -24.1336   -2.9376  -24.0437 H   0  0  0  0  0  0  0  0  0  0  0  0
  -27.5323   -4.2910  -23.4909 H   0  0  0  0  0  0  0  0  0  0  0  0
  -26.6897   -2.7970  -23.2507 H   0  0  0  0  0  0  0  0  0  0  0  0
  -23.1933   -3.7750  -29.5434 H   0  0  0  0  0  0  0  0  0  0  0  0
  -20.4509   -3.1527  -29.2096 H   0  0  0  0  0  0  0  0  0  0  0  0
  -20.5303   -3.2151  -31.8521 H   0  0  0  0  0  0  0  0  0  0  0  0
  -22.2305   -3.7367  -31.5994 H   0  0  0  0  0  0  0  0  0  0  0  0
  -21.5080   -5.0525  -28.8082 H   0  0  0  0  0  0  0  0  0  0  0  0
  -19.9032   -5.4159  -32.7851 H   0  0  0  0  0  0  0  0  0  0  0  0
  -20.7253   -7.3527  -28.2839 H   0  0  0  0  0  0  0  0  0  0  0  0
  -19.1260   -7.7167  -32.2602 H   0  0  0  0  0  0  0  0  0  0  0  0
  -19.5378   -8.6840  -30.0120 H   0  0  0  0  0  0  0  0  0  0  0  0
  -23.0670   -1.3900  -30.8892 H   0  0  0  0  0  0  0  0  0  0  0  0
  -21.4836    0.7681  -31.8585 H   0  0  0  0  0  0  0  0  0  0  0  0
  -24.4198    0.7008  -30.9828 H   0  0  0  0  0  0  0  0  0  0  0  0
  -23.7950    0.2968  -32.6177 H   0  0  0  0  0  0  0  0  0  0  0  0
  -21.7597    2.3335  -33.0940 H   0  0  0  0  0  0  0  0  0  0  0  0
  -25.5951    2.7164  -31.1817 H   0  0  0  0  0  0  0  0  0  0  0  0
  -21.8258    4.7387  -33.7089 H   0  0  0  0  0  0  0  0  0  0  0  0
  -25.6632    5.1214  -31.8046 H   0  0  0  0  0  0  0  0  0  0  0  0
  -23.7803    6.1310  -33.0685 H   0  0  0  0  0  0  0  0  0  0  0  0
  -23.4639    0.4158  -28.9134 H   0  0  0  0  0  0  0  0  0  0  0  0
  -23.6879    2.3746  -27.3818 H   0  0  0  0  0  0  0  0  0  0  0  0
  -21.9606    2.7218  -27.7317 H   0  0  0  0  0  0  0  0  0  0  0  0
  -20.3859    1.0811  -27.1165 H   0  0  0  0  0  0  0  0  0  0  0  0
  -21.0229   -1.1561  -25.4802 H   0  0  0  0  0  0  0  0  0  0  0  0
  -18.4723   -0.3649  -24.6529 H   0  0  0  0  0  0  0  0  0  0  0  0
  -18.5916    0.3297  -26.3052 H   0  0  0  0  0  0  0  0  0  0  0  0
  -19.6853   -2.1895  -26.6990 H   0  0  0  0  0  0  0  0  0  0  0  0
  -17.4887   -2.7853  -27.7147 H   0  0  0  0  0  0  0  0  0  0  0  0
  -16.7127   -1.4286  -26.8293 H   0  0  0  0  0  0  0  0  0  0  0  0
  -17.9434   -1.0892  -28.0930 H   0  0  0  0  0  0  0  0  0  0  0  0
  -19.1275   -2.8858  -24.3636 H   0  0  0  0  0  0  0  0  0  0  0  0
  -17.3991   -2.5017  -24.6662 H   0  0  0  0  0  0  0  0  0  0  0  0
  -18.1949   -3.8339  -25.5710 H   0  0  0  0  0  0  0  0  0  0  0  0
  -20.2072    2.2313  -24.6948 H   0  0  0  0  0  0  0  0  0  0  0  0
  -20.0379    1.9516  -21.8814 H   0  0  0  0  0  0  0  0  0  0  0  0
  -21.2192    4.3740  -23.3187 H   0  0  0  0  0  0  0  0  0  0  0  0
  -19.4625    3.9994  -23.3367 H   0  0  0  0  0  0  0  0  0  0  0  0
  -20.2733    3.7219  -20.6229 H   0  0  0  0  0  0  0  0  0  0  0  0
  -21.0797    5.2133  -21.2163 H   0  0  0  0  0  0  0  0  0  0  0  0
  -17.2734    5.7545  -23.2284 H   0  0  0  0  0  0  0  0  0  0  0  0
  -19.0163    5.7441  -23.6627 H   0  0  0  0  0  0  0  0  0  0  0  0
  -18.1646    4.1982  -23.3291 H   0  0  0  0  0  0  0  0  0  0  0  0
  1  2  1  0  0  0  0
  1 96  1  0  0  0  0
  1 97  1  0  0  0  0
  1 98  1  0  0  0  0
  2  3  1  0  0  0  0
  2  5  1  0  0  0  0
  2 99  1  1  0  0  0
  3  4  2  0  0  0  0
  3 12  1  0  0  0  0
  5  6  1  0  0  0  0
  5100  1  0  0  0  0
  5101  1  0  0  0  0
  6  7  1  0  0  0  0
  6102  1  0  0  0  0
  6103  1  0  0  0  0
  7  8  1  0  0  0  0
  7104  1  0  0  0  0
  7105  1  0  0  0  0
  8  9  1  0  0  0  0
  8106  1  0  0  0  0
  9 10  1  0  0  0  0
  9 11  1  0  0  0  0
 10107  1  0  0  0  0
 10108  1  0  0  0  0
 11109  1  0  0  0  0
 11110  1  0  0  0  0
 12 13  1  0  0  0  0
 12 18  1  0  0  0  0
 13 14  1  0  0  0  0
 13 16  1  0  0  0  0
 13111  1  1  0  0  0
 14 15  2  0  0  0  0
 14 19  1  0  0  0  0
 16 17  1  0  0  0  0
 16112  1  0  0  0  0
 16113  1  0  0  0  0
 17 18  1  0  0  0  0
 17114  1  0  0  0  0
 17115  1  0  0  0  0
 18116  1  0  0  0  0
 18117  1  0  0  0  0
 19 20  1  0  0  0  0
 19118  1  0  0  0  0
 20 21  1  0  0  0  0
 20 23  1  0  0  0  0
 20119  1  6  0  0  0
 21 22  2  0  0  0  0
 21 28  1  0  0  0  0
 23 24  1  0  0  0  0
 23120  1  0  0  0  0
 23121  1  0  0  0  0
 24 25  1  0  0  0  0
 24122  1  0  0  0  0
 24123  1  0  0  0  0
 25 26  1  0  0  0  0
 25124  1  0  0  0  0
 25125  1  0  0  0  0
 26 27  1  0  0  0  0
 26126  1  0  0  0  0
 26127  1  0  0  0  0
 27128  1  0  0  0  0
 27129  1  0  0  0  0
 27130  1  0  0  0  0
 28 29  1  0  0  0  0
 28 34  1  0  0  0  0
 29 30  1  0  0  0  0
 29 32  1  0  0  0  0
 29131  1  1  0  0  0
 30 31  2  0  0  0  0
 30 35  1  0  0  0  0
 32 33  1  0  0  0  0
 32132  1  0  0  0  0
 32133  1  0  0  0  0
 33 34  1  0  0  0  0
 33134  1  0  0  0  0
 33135  1  0  0  0  0
 34136  1  0  0  0  0
 34137  1  0  0  0  0
 35 36  1  0  0  0  0
 35138  1  0  0  0  0
 36 37  1  0  0  0  0
 36 39  1  0  0  0  0
 36139  1  6  0  0  0
 37 38  2  0  0  0  0
 37 44  1  0  0  0  0
 39 40  1  0  0  0  0
 39140  1  0  0  0  0
 39141  1  0  0  0  0
 40 41  1  0  0  0  0
 40142  1  0  0  0  0
 40143  1  0  0  0  0
 41 42  2  0  0  0  0
 41 43  1  0  0  0  0
 43144  1  0  0  0  0
 43145  1  0  0  0  0
 44 45  1  0  0  0  0
 44146  1  0  0  0  0
 45 46  1  0  0  0  0
 45 48  1  0  0  0  0
 45147  1  1  0  0  0
 46 47  2  0  0  0  0
 46 53  1  0  0  0  0
 48 49  1  0  0  0  0
 48148  1  0  0  0  0
 48149  1  0  0  0  0
 49 50  1  0  0  0  0
 49150  1  0  0  0  0
 49151  1  0  0  0  0
 50 51  2  0  0  0  0
 50 52  1  0  0  0  0
 52152  1  0  0  0  0
 52153  1  0  0  0  0
 53 54  1  0  0  0  0
 53154  1  0  0  0  0
 54 55  1  0  0  0  0
 54 57  1  0  0  0  0
 54155  1  1  0  0  0
 55 56  2  0  0  0  0
 55 64  1  0  0  0  0
 57 58  1  0  0  0  0
 57156  1  0  0  0  0
 57157  1  0  0  0  0
 58 59  2  0  0  0  0
 58 60  1  0  0  0  0
 59 61  1  0  0  0  0
 59158  1  0  0  0  0
 60 62  2  0  0  0  0
 60159  1  0  0  0  0
 61 63  2  0  0  0  0
 61160  1  0  0  0  0
 62 63  1  0  0  0  0
 62161  1  0  0  0  0
 63162  1  0  0  0  0
 64 65  1  0  0  0  0
 64163  1  0  0  0  0
 65 66  1  0  0  0  0
 65 68  1  0  0  0  0
 65164  1  6  0  0  0
 66 67  2  0  0  0  0
 66 75  1  0  0  0  0
 68 69  1  0  0  0  0
 68165  1  0  0  0  0
 68166  1  0  0  0  0
 69 70  2  0  0  0  0
 69 71  1  0  0  0  0
 70 72  1  0  0  0  0
 70167  1  0  0  0  0
 71 73  2  0  0  0  0
 71168  1  0  0  0  0
 72 74  2  0  0  0  0
 72169  1  0  0  0  0
 73 74  1  0  0  0  0
 73170  1  0  0  0  0
 74171  1  0  0  0  0
 75 76  1  0  0  0  0
 75172  1  0  0  0  0
 76 77  1  0  0  0  0
 76173  1  0  0  0  0
 76174  1  0  0  0  0
 77 78  2  0  0  0  0
 77 79  1  0  0  0  0
 79 80  1  0  0  0  0
 79175  1  0  0  0  0
 80 81  1  0  0  0  0
 80 83  1  0  0  0  0
 80176  1  6  0  0  0
 81 82  2  0  0  0  0
 81 87  1  0  0  0  0
 83 84  1  0  0  0  0
 83177  1  0  0  0  0
 83178  1  0  0  0  0
 84 85  1  0  0  0  0
 84 86  1  0  0  0  0
 84179  1  0  0  0  0
 85180  1  0  0  0  0
 85181  1  0  0  0  0
 85182  1  0  0  0  0
 86183  1  0  0  0  0
 86184  1  0  0  0  0
 86185  1  0  0  0  0
 87 88  1  0  0  0  0
 87186  1  0  0  0  0
 88 89  1  0  0  0  0
 88 91  1  0  0  0  0
 88187  1  1  0  0  0
 89 90  1  0  0  0  0
 89 95  2  0  0  0  0
 91 92  1  0  0  0  0
 91188  1  0  0  0  0
 91189  1  0  0  0  0
 92 93  1  0  0  0  0
 92190  1  0  0  0  0
 92191  1  0  0  0  0
 93 94  1  0  0  0  0
 94192  1  0  0  0  0
 94193  1  0  0  0  0
 94194  1  0  0  0  0
M  CHG  3   1   1  27   1  90  -1
M  END
