2ksb_ligand
 OpenBabel08222323343D

194197  0  0  1  0  0  0  0  0999 V2000
  -25.6130   -6.3870  -23.8660 N   0  3  0  0  0  0  0  0  0  0  0  0
  -24.8600   -7.5930  -23.4160 C   0  0  2  0  0  0  0  0  0  0  0  0
  -23.3720   -7.3920  -23.7390 C   0  0  0  0  0  0  0  0  0  0  0  0
  -23.0160   -6.5440  -24.5570 O   0  0  0  0  0  0  0  0  0  0  0  0
  -25.4330   -8.8360  -24.1410 C   0  0  0  0  0  0  0  0  0  0  0  0
  -25.9640   -9.8740  -23.1380 C   0  0  0  0  0  0  0  0  0  0  0  0
  -25.5540  -11.2750  -23.6030 C   0  0  0  0  0  0  0  0  0  0  0  0
  -26.7330  -12.0600  -23.9500 N   0  0  0  0  0  0  0  0  0  0  0  0
  -27.0390  -12.3180  -25.2180 C   0  0  0  0  0  3  0  0  0  0  0  0
  -26.2900  -11.8490  -26.1790 N   0  0  0  0  0  0  0  0  0  0  0  0
  -28.0910  -13.0350  -25.5010 N   0  0  0  0  0  0  0  0  0  0  0  0
  -22.5100   -8.1380  -23.0960 N   0  0  0  0  0  0  0  0  0  0  0  0
  -21.0280   -8.0330  -23.2930 C   0  0  2  0  0  0  0  0  0  0  0  0
  -20.5570   -8.4650  -24.6890 C   0  0  0  0  0  0  0  0  0  0  0  0
  -19.4590   -8.1020  -25.1130 O   0  0  0  0  0  0  0  0  0  0  0  0
  -20.4530   -8.9470  -22.1940 C   0  0  0  0  0  0  0  0  0  0  0  0
  -21.5390   -9.9280  -21.8990 C   0  0  0  0  0  0  0  0  0  0  0  0
  -22.8520   -9.1760  -22.1060 C   0  0  0  0  0  0  0  0  0  0  0  0
  -21.3740   -9.2450  -25.3980 N   0  0  0  0  0  0  0  0  0  0  0  0
  -20.9980   -9.7190  -26.7380 C   0  0  2  0  0  0  0  0  0  0  0  0
  -21.2970   -8.6650  -27.8190 C   0  0  0  0  0  0  0  0  0  0  0  0
  -20.4030   -8.3000  -28.5800 O   0  0  0  0  0  0  0  0  0  0  0  0
  -21.7040  -11.0620  -27.0860 C   0  0  0  0  0  0  0  0  0  0  0  0
  -20.9510  -11.7750  -28.2090 C   0  0  0  0  0  0  0  0  0  0  0  0
  -20.1960  -13.0010  -27.6570 C   0  0  0  0  0  0  0  0  0  0  0  0
  -18.6890  -12.7250  -27.6530 C   0  0  0  0  0  0  0  0  0  0  0  0
  -18.0510  -13.4490  -28.7880 N   0  3  0  0  0  0  0  0  0  0  0  0
  -22.5170   -8.1840  -27.9230 N   0  0  0  0  0  0  0  0  0  0  0  0
  -22.8800   -7.1760  -28.9580 C   0  0  2  0  0  0  0  0  0  0  0  0
  -22.0660   -5.8900  -28.8100 C   0  0  0  0  0  0  0  0  0  0  0  0
  -21.8250   -5.1810  -29.7860 O   0  0  0  0  0  0  0  0  0  0  0  0
  -24.3860   -6.9310  -28.7350 C   0  0  0  0  0  0  0  0  0  0  0  0
  -24.6530   -7.3870  -27.3410 C   0  0  0  0  0  0  0  0  0  0  0  0
  -23.6740   -8.5280  -27.0850 C   0  0  0  0  0  0  0  0  0  0  0  0
  -21.6360   -5.6030  -27.5820 N   0  0  0  0  0  0  0  0  0  0  0  0
  -20.8390   -4.4070  -27.3100 C   0  0  2  0  0  0  0  0  0  0  0  0
  -19.3590   -4.7410  -27.3410 C   0  0  0  0  0  0  0  0  0  0  0  0
  -18.6130   -4.3930  -26.4300 O   0  0  0  0  0  0  0  0  0  0  0  0
  -21.2110   -3.8220  -25.9420 C   0  0  0  0  0  0  0  0  0  0  0  0
  -22.5720   -3.1280  -26.0320 C   0  0  0  0  0  0  0  0  0  0  0  0
  -23.0560   -2.7560  -24.6340 C   0  0  0  0  0  0  0  0  0  0  0  0
  -23.6690   -3.5750  -23.9510 O   0  0  0  0  0  0  0  0  0  0  0  0
  -22.8160   -1.5590  -24.1640 N   0  0  0  0  0  0  0  0  0  0  0  0
  -18.9390   -5.3900  -28.4150 N   0  0  0  0  0  0  0  0  0  0  0  0
  -17.5390   -5.7380  -28.5800 C   0  0  2  0  0  0  0  0  0  0  0  0
  -16.8160   -4.5300  -29.1480 C   0  0  0  0  0  0  0  0  0  0  0  0
  -15.7070   -4.6320  -29.6730 O   0  0  0  0  0  0  0  0  0  0  0  0
  -17.3930   -6.9470  -29.5190 C   0  0  0  0  0  0  0  0  0  0  0  0
  -16.3760   -7.9440  -28.9470 C   0  0  0  0  0  0  0  0  0  0  0  0
  -16.8900   -8.5430  -27.6420 C   0  0  0  0  0  0  0  0  0  0  0  0
  -16.4490   -8.1480  -26.5610 O   0  0  0  0  0  0  0  0  0  0  0  0
  -17.8000   -9.4760  -27.6780 N   0  0  0  0  0  0  0  0  0  0  0  0
  -17.4780   -3.3820  -29.0340 N   0  0  0  0  0  0  0  0  0  0  0  0
  -16.9320   -2.1350  -29.5330 C   0  0  2  0  0  0  0  0  0  0  0  0
  -15.8400   -1.6140  -28.6050 C   0  0  0  0  0  0  0  0  0  0  0  0
  -15.5220   -0.4250  -28.6130 O   0  0  0  0  0  0  0  0  0  0  0  0
  -18.0360   -1.0820  -29.6580 C   0  0  0  0  0  0  0  0  0  0  0  0
  -18.9240   -1.4120  -30.8380 C   0  0  0  0  0  0  0  0  0  0  0  0
  -18.4960   -1.1180  -32.1390 C   0  0  0  0  0  0  0  0  0  0  0  0
  -20.1740   -2.0130  -30.6340 C   0  0  0  0  0  0  0  0  0  0  0  0
  -19.3150   -1.4240  -33.2320 C   0  0  0  0  0  0  0  0  0  0  0  0
  -20.9910   -2.3210  -31.7270 C   0  0  0  0  0  0  0  0  0  0  0  0
  -20.5620   -2.0250  -33.0270 C   0  0  0  0  0  0  0  0  0  0  0  0
  -15.2710   -2.5080  -27.8020 N   0  0  0  0  0  0  0  0  0  0  0  0
  -14.2190   -2.1190  -26.8720 C   0  0  2  0  0  0  0  0  0  0  0  0
  -12.9110   -1.8900  -27.6200 C   0  0  0  0  0  0  0  0  0  0  0  0
  -11.8500   -1.7580  -27.0120 O   0  0  0  0  0  0  0  0  0  0  0  0
  -14.0100   -3.2060  -25.8160 C   0  0  0  0  0  0  0  0  0  0  0  0
  -15.3160   -3.4930  -25.1100 C   0  0  0  0  0  0  0  0  0  0  0  0
  -16.2480   -2.4670  -24.9070 C   0  0  0  0  0  0  0  0  0  0  0  0
  -15.6000   -4.7900  -24.6660 C   0  0  0  0  0  0  0  0  0  0  0  0
  -17.4590   -2.7350  -24.2580 C   0  0  0  0  0  0  0  0  0  0  0  0
  -16.8120   -5.0600  -24.0170 C   0  0  0  0  0  0  0  0  0  0  0  0
  -17.7400   -4.0320  -23.8140 C   0  0  0  0  0  0  0  0  0  0  0  0
  -12.9920   -1.8500  -28.9450 N   0  0  0  0  0  0  0  0  0  0  0  0
  -11.8060   -1.6410  -29.7660 C   0  0  0  0  0  0  0  0  0  0  0  0
  -11.1180   -0.3280  -29.4090 C   0  0  0  0  0  0  0  0  0  0  0  0
  -10.0020   -0.0610  -29.8550 O   0  0  0  0  0  0  0  0  0  0  0  0
  -11.7900    0.4940  -28.6050 N   0  0  0  0  0  0  0  0  0  0  0  0
  -11.2270    1.7790  -28.2010 C   0  0  2  0  0  0  0  0  0  0  0  0
  -10.0500    1.5790  -27.2520 C   0  0  0  0  0  0  0  0  0  0  0  0
   -9.0260    2.2510  -27.3700 O   0  0  0  0  0  0  0  0  0  0  0  0
  -12.2990    2.6190  -27.5010 C   0  0  0  0  0  0  0  0  0  0  0  0
  -12.1140    4.1070  -27.8340 C   0  0  0  0  0  0  0  0  0  0  0  0
  -13.1440    4.5100  -28.8950 C   0  0  0  0  0  0  0  0  0  0  0  0
  -12.3050    4.9730  -26.5720 C   0  0  0  0  0  0  0  0  0  0  0  0
  -10.2000    0.6500  -26.3120 N   0  0  0  0  0  0  0  0  0  0  0  0
   -9.1410    0.3700  -25.3460 C   0  0  2  0  0  0  0  0  0  0  0  0
   -8.1350   -0.6150  -25.9320 C   0  0  0  0  0  0  0  0  0  0  0  0
   -8.3310   -1.0310  -27.0610 O   0  5  0  0  0  0  0  0  0  0  0  0
   -9.7360   -0.2040  -24.0600 C   0  0  0  0  0  0  0  0  0  0  0  0
  -10.9030    0.6700  -23.5970 C   0  0  0  0  0  0  0  0  0  0  0  0
  -10.2760    2.0860  -22.6530 S   0  0  0  0  0  0  0  0  0  0  0  0
  -11.4290    3.3400  -23.2730 C   0  0  0  0  0  0  0  0  0  0  0  0
   -7.1840   -0.9420  -25.2400 O   0  0  0  0  0  0  0  0  0  0  0  0
  -26.5924   -6.5061  -23.6596 H   0  0  0  0  0  0  0  0  0  0  0  0
  -25.4913   -6.2661  -24.8593 H   0  0  0  0  0  0  0  0  0  0  0  0
  -25.2644   -5.5737  -23.3833 H   0  0  0  0  0  0  0  0  0  0  0  0
  -24.9798   -7.7214  -22.3301 H   0  0  0  0  0  0  0  0  0  0  0  0
  -24.6376   -9.2964  -24.7454 H   0  0  0  0  0  0  0  0  0  0  0  0
  -26.2563   -8.5194  -24.7982 H   0  0  0  0  0  0  0  0  0  0  0  0
  -27.0609   -9.8092  -23.0866 H   0  0  0  0  0  0  0  0  0  0  0  0
  -25.5380   -9.6767  -22.1432 H   0  0  0  0  0  0  0  0  0  0  0  0
  -25.0075  -11.7804  -22.7931 H   0  0  0  0  0  0  0  0  0  0  0  0
  -24.9036  -11.1882  -24.4858 H   0  0  0  0  0  0  0  0  0  0  0  0
  -27.3393  -12.4209  -23.1997 H   0  0  0  0  0  0  0  0  0  0  0  0
  -26.5272  -12.0490  -27.1612 H   0  0  0  0  0  0  0  0  0  0  0  0
  -25.4618  -11.2790  -25.9550 H   0  0  0  0  0  0  0  0  0  0  0  0
  -28.6815  -13.4047  -24.7424 H   0  0  0  0  0  0  0  0  0  0  0  0
  -28.3313  -13.2315  -26.4831 H   0  0  0  0  0  0  0  0  0  0  0  0
  -20.7052   -6.9943  -23.1291 H   0  0  0  0  0  0  0  0  0  0  0  0
  -20.2056   -8.3626  -21.2955 H   0  0  0  0  0  0  0  0  0  0  0  0
  -19.5519   -9.4648  -22.5543 H   0  0  0  0  0  0  0  0  0  0  0  0
  -21.4616  -10.2835  -20.8609 H   0  0  0  0  0  0  0  0  0  0  0  0
  -21.4770  -10.7851  -22.5857 H   0  0  0  0  0  0  0  0  0  0  0  0
  -23.6311   -9.8477  -22.4956 H   0  0  0  0  0  0  0  0  0  0  0  0
  -23.1962   -8.7220  -21.1650 H   0  0  0  0  0  0  0  0  0  0  0  0
  -22.2570   -9.5119  -25.0118 H   0  0  0  0  0  0  0  0  0  0  0  0
  -19.9129   -9.8992  -26.7344 H   0  0  0  0  0  0  0  0  0  0  0  0
  -22.7347  -10.8577  -27.4115 H   0  0  0  0  0  0  0  0  0  0  0  0
  -21.7219  -11.7056  -26.1941 H   0  0  0  0  0  0  0  0  0  0  0  0
  -20.2294  -11.0784  -28.6607 H   0  0  0  0  0  0  0  0  0  0  0  0
  -21.6692  -12.1059  -28.9737 H   0  0  0  0  0  0  0  0  0  0  0  0
  -20.4053  -13.8748  -28.2916 H   0  0  0  0  0  0  0  0  0  0  0  0
  -20.5324  -13.2048  -26.6297 H   0  0  0  0  0  0  0  0  0  0  0  0
  -18.2544  -13.0736  -26.7045 H   0  0  0  0  0  0  0  0  0  0  0  0
  -18.5133  -11.6446  -27.7616 H   0  0  0  0  0  0  0  0  0  0  0  0
  -17.0593  -13.2684  -28.7867 H   0  0  0  0  0  0  0  0  0  0  0  0
  -18.4496  -13.1295  -29.6569 H   0  0  0  0  0  0  0  0  0  0  0  0
  -18.2123  -14.4390  -28.6882 H   0  0  0  0  0  0  0  0  0  0  0  0
  -22.7081   -7.5870  -29.9637 H   0  0  0  0  0  0  0  0  0  0  0  0
  -24.9822   -7.5138  -29.4525 H   0  0  0  0  0  0  0  0  0  0  0  0
  -24.6234   -5.8624  -28.8436 H   0  0  0  0  0  0  0  0  0  0  0  0
  -25.6896   -7.7425  -27.2457 H   0  0  0  0  0  0  0  0  0  0  0  0
  -24.4799   -6.5663  -26.6293 H   0  0  0  0  0  0  0  0  0  0  0  0
  -23.3908   -8.5718  -26.0230 H   0  0  0  0  0  0  0  0  0  0  0  0
  -24.1066   -9.4925  -27.3892 H   0  0  0  0  0  0  0  0  0  0  0  0
  -21.8635   -6.2198  -26.8285 H   0  0  0  0  0  0  0  0  0  0  0  0
  -21.0502   -3.6572  -28.0866 H   0  0  0  0  0  0  0  0  0  0  0  0
  -20.4474   -3.0916  -25.6365 H   0  0  0  0  0  0  0  0  0  0  0  0
  -21.2617   -4.6318  -25.1993 H   0  0  0  0  0  0  0  0  0  0  0  0
  -23.2984   -3.8081  -26.5009 H   0  0  0  0  0  0  0  0  0  0  0  0
  -22.4775   -2.2164  -26.6403 H   0  0  0  0  0  0  0  0  0  0  0  0
  -23.1307   -1.3090  -23.2483 H   0  0  0  0  0  0  0  0  0  0  0  0
  -22.3179   -0.8940  -24.7204 H   0  0  0  0  0  0  0  0  0  0  0  0
  -19.5963   -5.6448  -29.1243 H   0  0  0  0  0  0  0  0  0  0  0  0
  -17.1083   -5.9936  -27.6006 H   0  0  0  0  0  0  0  0  0  0  0  0
  -17.0480   -6.6017  -30.5047 H   0  0  0  0  0  0  0  0  0  0  0  0
  -18.3685   -7.4441  -29.6254 H   0  0  0  0  0  0  0  0  0  0  0  0
  -15.4262   -7.4229  -28.7565 H   0  0  0  0  0  0  0  0  0  0  0  0
  -16.2116   -8.7514  -29.6757 H   0  0  0  0  0  0  0  0  0  0  0  0
  -18.1422   -9.8738  -26.8267 H   0  0  0  0  0  0  0  0  0  0  0  0
  -18.1558   -9.7938  -28.5569 H   0  0  0  0  0  0  0  0  0  0  0  0
  -18.3754   -3.3789  -28.5928 H   0  0  0  0  0  0  0  0  0  0  0  0
  -16.4970   -2.3149  -30.5272 H   0  0  0  0  0  0  0  0  0  0  0  0
  -17.5815   -0.0916  -29.8081 H   0  0  0  0  0  0  0  0  0  0  0  0
  -18.6388   -1.0732  -28.7379 H   0  0  0  0  0  0  0  0  0  0  0  0
  -17.5299   -0.6532  -32.2994 H   0  0  0  0  0  0  0  0  0  0  0  0
  -20.5080   -2.2394  -29.6279 H   0  0  0  0  0  0  0  0  0  0  0  0
  -18.9830   -1.1952  -34.2382 H   0  0  0  0  0  0  0  0  0  0  0  0
  -21.9559   -2.7887  -31.5678 H   0  0  0  0  0  0  0  0  0  0  0  0
  -21.1957   -2.2614  -33.8741 H   0  0  0  0  0  0  0  0  0  0  0  0
  -15.5696   -3.4618  -27.8369 H   0  0  0  0  0  0  0  0  0  0  0  0
  -14.5152   -1.1852  -26.3718 H   0  0  0  0  0  0  0  0  0  0  0  0
  -13.2658   -2.8636  -25.0819 H   0  0  0  0  0  0  0  0  0  0  0  0
  -13.6491   -4.1238  -26.3032 H   0  0  0  0  0  0  0  0  0  0  0  0
  -16.0309   -1.4630  -25.2534 H   0  0  0  0  0  0  0  0  0  0  0  0
  -14.8815   -5.5861  -24.8245 H   0  0  0  0  0  0  0  0  0  0  0  0
  -18.1778   -1.9392  -24.0996 H   0  0  0  0  0  0  0  0  0  0  0  0
  -17.0308   -6.0642  -23.6724 H   0  0  0  0  0  0  0  0  0  0  0  0
  -18.6778   -4.2409  -23.3121 H   0  0  0  0  0  0  0  0  0  0  0  0
  -13.8817   -1.9652  -29.3868 H   0  0  0  0  0  0  0  0  0  0  0  0
  -12.1017   -1.6156  -30.8252 H   0  0  0  0  0  0  0  0  0  0  0  0
  -11.1036   -2.4714  -29.6012 H   0  0  0  0  0  0  0  0  0  0  0  0
  -12.6946    0.2268  -28.2728 H   0  0  0  0  0  0  0  0  0  0  0  0
  -10.8779    2.3123  -29.0975 H   0  0  0  0  0  0  0  0  0  0  0  0
  -12.2171    2.4780  -26.4132 H   0  0  0  0  0  0  0  0  0  0  0  0
  -13.2935    2.2927  -27.8392 H   0  0  0  0  0  0  0  0  0  0  0  0
  -11.1000    4.2664  -28.2294 H   0  0  0  0  0  0  0  0  0  0  0  0
  -13.0198    5.5750  -29.1407 H   0  0  0  0  0  0  0  0  0  0  0  0
  -14.1582    4.3396  -28.5048 H   0  0  0  0  0  0  0  0  0  0  0  0
  -12.9932    3.9047  -29.8010 H   0  0  0  0  0  0  0  0  0  0  0  0
  -11.5648    4.6820  -25.8121 H   0  0  0  0  0  0  0  0  0  0  0  0
  -13.3189    4.8213  -26.1732 H   0  0  0  0  0  0  0  0  0  0  0  0
  -12.1675    6.0333  -26.8306 H   0  0  0  0  0  0  0  0  0  0  0  0
  -11.0548    0.1330  -26.2658 H   0  0  0  0  0  0  0  0  0  0  0  0
   -8.6212    1.3100  -25.1089 H   0  0  0  0  0  0  0  0  0  0  0  0
   -8.9631   -0.2264  -23.2776 H   0  0  0  0  0  0  0  0  0  0  0  0
  -10.0968   -1.2259  -24.2483 H   0  0  0  0  0  0  0  0  0  0  0  0
  -11.5740    0.0752  -22.9599 H   0  0  0  0  0  0  0  0  0  0  0  0
  -11.4574    1.0334  -24.4748 H   0  0  0  0  0  0  0  0  0  0  0  0
  -11.2052    4.3086  -22.8021 H   0  0  0  0  0  0  0  0  0  0  0  0
  -12.4597    3.0431  -23.0290 H   0  0  0  0  0  0  0  0  0  0  0  0
  -11.3217    3.4293  -24.3641 H   0  0  0  0  0  0  0  0  0  0  0  0
  1  2  1  0  0  0  0
  1 96  1  0  0  0  0
  1 97  1  0  0  0  0
  1 98  1  0  0  0  0
  2  3  1  0  0  0  0
  2  5  1  0  0  0  0
  2 99  1  1  0  0  0
  3  4  2  0  0  0  0
  3 12  1  0  0  0  0
  5  6  1  0  0  0  0
  5100  1  0  0  0  0
  5101  1  0  0  0  0
  6  7  1  0  0  0  0
  6102  1  0  0  0  0
  6103  1  0  0  0  0
  7  8  1  0  0  0  0
  7104  1  0  0  0  0
  7105  1  0  0  0  0
  8  9  1  0  0  0  0
  8106  1  0  0  0  0
  9 10  1  0  0  0  0
  9 11  1  0  0  0  0
 10107  1  0  0  0  0
 10108  1  0  0  0  0
 11109  1  0  0  0  0
 11110  1  0  0  0  0
 12 13  1  0  0  0  0
 12 18  1  0  0  0  0
 13 14  1  0  0  0  0
 13 16  1  0  0  0  0
 13111  1  1  0  0  0
 14 15  2  0  0  0  0
 14 19  1  0  0  0  0
 16 17  1  0  0  0  0
 16112  1  0  0  0  0
 16113  1  0  0  0  0
 17 18  1  0  0  0  0
 17114  1  0  0  0  0
 17115  1  0  0  0  0
 18116  1  0  0  0  0
 18117  1  0  0  0  0
 19 20  1  0  0  0  0
 19118  1  0  0  0  0
 20 21  1  0  0  0  0
 20 23  1  0  0  0  0
 20119  1  1  0  0  0
 21 22  2  0  0  0  0
 21 28  1  0  0  0  0
 23 24  1  0  0  0  0
 23120  1  0  0  0  0
 23121  1  0  0  0  0
 24 25  1  0  0  0  0
 24122  1  0  0  0  0
 24123  1  0  0  0  0
 25 26  1  0  0  0  0
 25124  1  0  0  0  0
 25125  1  0  0  0  0
 26 27  1  0  0  0  0
 26126  1  0  0  0  0
 26127  1  0  0  0  0
 27128  1  0  0  0  0
 27129  1  0  0  0  0
 27130  1  0  0  0  0
 28 29  1  0  0  0  0
 28 34  1  0  0  0  0
 29 30  1  0  0  0  0
 29 32  1  0  0  0  0
 29131  1  6  0  0  0
 30 31  2  0  0  0  0
 30 35  1  0  0  0  0
 32 33  1  0  0  0  0
 32132  1  0  0  0  0
 32133  1  0  0  0  0
 33 34  1  0  0  0  0
 33134  1  0  0  0  0
 33135  1  0  0  0  0
 34136  1  0  0  0  0
 34137  1  0  0  0  0
 35 36  1  0  0  0  0
 35138  1  0  0  0  0
 36 37  1  0  0  0  0
 36 39  1  0  0  0  0
 36139  1  6  0  0  0
 37 38  2  0  0  0  0
 37 44  1  0  0  0  0
 39 40  1  0  0  0  0
 39140  1  0  0  0  0
 39141  1  0  0  0  0
 40 41  1  0  0  0  0
 40142  1  0  0  0  0
 40143  1  0  0  0  0
 41 42  2  0  0  0  0
 41 43  1  0  0  0  0
 43144  1  0  0  0  0
 43145  1  0  0  0  0
 44 45  1  0  0  0  0
 44146  1  0  0  0  0
 45 46  1  0  0  0  0
 45 48  1  0  0  0  0
 45147  1  1  0  0  0
 46 47  2  0  0  0  0
 46 53  1  0  0  0  0
 48 49  1  0  0  0  0
 48148  1  0  0  0  0
 48149  1  0  0  0  0
 49 50  1  0  0  0  0
 49150  1  0  0  0  0
 49151  1  0  0  0  0
 50 51  2  0  0  0  0
 50 52  1  0  0  0  0
 52152  1  0  0  0  0
 52153  1  0  0  0  0
 53 54  1  0  0  0  0
 53154  1  0  0  0  0
 54 55  1  0  0  0  0
 54 57  1  0  0  0  0
 54155  1  6  0  0  0
 55 56  2  0  0  0  0
 55 64  1  0  0  0  0
 57 58  1  0  0  0  0
 57156  1  0  0  0  0
 57157  1  0  0  0  0
 58 59  2  0  0  0  0
 58 60  1  0  0  0  0
 59 61  1  0  0  0  0
 59158  1  0  0  0  0
 60 62  2  0  0  0  0
 60159  1  0  0  0  0
 61 63  2  0  0  0  0
 61160  1  0  0  0  0
 62 63  1  0  0  0  0
 62161  1  0  0  0  0
 63162  1  0  0  0  0
 64 65  1  0  0  0  0
 64163  1  0  0  0  0
 65 66  1  0  0  0  0
 65 68  1  0  0  0  0
 65164  1  1  0  0  0
 66 67  2  0  0  0  0
 66 75  1  0  0  0  0
 68 69  1  0  0  0  0
 68165  1  0  0  0  0
 68166  1  0  0  0  0
 69 70  2  0  0  0  0
 69 71  1  0  0  0  0
 70 72  1  0  0  0  0
 70167  1  0  0  0  0
 71 73  2  0  0  0  0
 71168  1  0  0  0  0
 72 74  2  0  0  0  0
 72169  1  0  0  0  0
 73 74  1  0  0  0  0
 73170  1  0  0  0  0
 74171  1  0  0  0  0
 75 76  1  0  0  0  0
 75172  1  0  0  0  0
 76 77  1  0  0  0  0
 76173  1  0  0  0  0
 76174  1  0  0  0  0
 77 78  2  0  0  0  0
 77 79  1  0  0  0  0
 79 80  1  0  0  0  0
 79175  1  0  0  0  0
 80 81  1  0  0  0  0
 80 83  1  0  0  0  0
 80176  1  6  0  0  0
 81 82  2  0  0  0  0
 81 87  1  0  0  0  0
 83 84  1  0  0  0  0
 83177  1  0  0  0  0
 83178  1  0  0  0  0
 84 85  1  0  0  0  0
 84 86  1  0  0  0  0
 84179  1  0  0  0  0
 85180  1  0  0  0  0
 85181  1  0  0  0  0
 85182  1  0  0  0  0
 86183  1  0  0  0  0
 86184  1  0  0  0  0
 86185  1  0  0  0  0
 87 88  1  0  0  0  0
 87186  1  0  0  0  0
 88 89  1  0  0  0  0
 88 91  1  0  0  0  0
 88187  1  1  0  0  0
 89 90  1  0  0  0  0
 89 95  2  0  0  0  0
 91 92  1  0  0  0  0
 91188  1  0  0  0  0
 91189  1  0  0  0  0
 92 93  1  0  0  0  0
 92190  1  0  0  0  0
 92191  1  0  0  0  0
 93 94  1  0  0  0  0
 94192  1  0  0  0  0
 94193  1  0  0  0  0
 94194  1  0  0  0  0
M  CHG  3   1   1  27   1  90  -1
M  END
