2ksp_ligand
 OpenBabel08222323343D

240243  0  0  1  0  0  0  0  0999 V2000
    8.6790   19.4830    4.9350 N   0  3  0  0  0  0  0  0  0  0  0  0
    7.5390   18.5600    5.1330 C   0  0  2  0  0  0  0  0  0  0  0  0
    7.1430   17.8790    3.8240 C   0  0  0  0  0  0  0  0  0  0  0  0
    6.3180   16.9620    3.8190 O   0  0  0  0  0  0  0  0  0  0  0  0
    6.3240   19.3010    5.7160 C   0  0  0  0  0  0  0  0  0  0  0  0
    5.6130   20.2880    4.7780 C   0  0  0  0  0  0  0  0  0  0  0  0
    4.2670   20.6700    5.3640 C   0  0  0  0  0  0  0  0  0  0  0  0
    6.4500   21.5410    4.5470 C   0  0  0  0  0  0  0  0  0  0  0  0
    7.7180   18.3170    2.7090 N   0  0  0  0  0  0  0  0  0  0  0  0
    7.3480   17.7610    1.4160 C   0  0  2  0  0  0  0  0  0  0  0  0
    8.1300   16.4950    1.1120 C   0  0  0  0  0  0  0  0  0  0  0  0
    7.6190   15.5910    0.4540 O   0  0  0  0  0  0  0  0  0  0  0  0
    7.5170   18.7950    0.3080 C   0  0  0  0  0  0  0  0  0  0  0  0
    6.4530   19.8740    0.3670 C   0  0  0  0  0  0  0  0  0  0  0  0
    5.0640   19.2820    0.4870 C   0  0  0  0  0  0  0  0  0  0  0  0
    4.5690   18.7080   -0.5010 O   0  5  0  0  0  0  0  0  0  0  0  0
    4.4450   19.4230    1.5610 O   0  0  0  0  0  0  0  0  0  0  0  0
    9.3560   16.4260    1.5990 N   0  0  0  0  0  0  0  0  0  0  0  0
   10.1210   15.1980    1.5120 C   0  0  2  0  0  0  0  0  0  0  0  0
    9.5340   14.1980    2.5030 C   0  0  0  0  0  0  0  0  0  0  0  0
    9.7050   14.3470    3.7140 O   0  0  0  0  0  0  0  0  0  0  0  0
   11.5940   15.4680    1.8250 C   0  0  0  0  0  0  0  0  0  0  0  0
   12.0890   16.5500    1.0490 O   0  0  0  0  0  0  0  0  0  0  0  0
    8.8090   13.2080    1.9950 N   0  0  0  0  0  0  0  0  0  0  0  0
    8.0860   12.2860    2.8550 C   0  0  2  0  0  0  0  0  0  0  0  0
    8.9840   11.1290    3.2980 C   0  0  0  0  0  0  0  0  0  0  0  0
    9.2930   10.2270    2.5180 O   0  0  0  0  0  0  0  0  0  0  0  0
    6.8350   11.7630    2.1380 C   0  0  0  0  0  0  0  0  0  0  0  0
    5.8280   12.8540    1.7690 C   0  0  0  0  0  0  0  0  0  0  0  0
    5.2820   13.5640    3.0040 C   0  0  0  0  0  0  0  0  0  0  0  0
    4.1590   14.5420    2.6610 C   0  0  0  0  0  0  0  0  0  0  0  0
    4.6390   15.7020    1.8620 N   0  3  0  0  0  0  0  0  0  0  0  0
    9.3950   11.1310    4.5760 N   0  0  0  0  0  0  0  0  0  0  0  0
   10.3660   10.1800    5.1090 C   0  0  2  0  0  0  0  0  0  0  0  0
    9.7300    8.8690    5.5600 C   0  0  0  0  0  0  0  0  0  0  0  0
   10.3490    8.0760    6.2710 O   0  0  0  0  0  0  0  0  0  0  0  0
   10.9670   10.9210    6.3130 C   0  0  0  0  0  0  0  0  0  0  0  0
   10.1430   12.1620    6.5120 C   0  0  0  0  0  0  0  0  0  0  0  0
    8.9460   12.0560    5.6130 C   0  0  0  0  0  0  0  0  0  0  0  0
    8.5010    8.6390    5.1280 N   0  0  0  0  0  0  0  0  0  0  0  0
    7.7650    7.4450    5.5140 C   0  0  2  0  0  0  0  0  0  0  0  0
    7.8530    6.4070    4.4100 C   0  0  0  0  0  0  0  0  0  0  0  0
    7.2680    5.3280    4.5000 O   0  0  0  0  0  0  0  0  0  0  0  0
    6.3000    7.7840    5.7920 C   0  0  0  0  0  0  0  0  0  0  0  0
    6.1180    8.8670    6.8260 C   0  0  0  0  0  0  0  0  0  0  0  0
    6.0400    8.5600    8.1770 C   0  0  0  0  0  0  0  0  0  0  0  0
    6.0270   10.1980    6.4480 C   0  0  0  0  0  0  0  0  0  0  0  0
    5.8720    9.5500    9.1230 C   0  0  0  0  0  0  0  0  0  0  0  0
    5.8620   11.1950    7.3890 C   0  0  0  0  0  0  0  0  0  0  0  0
    5.7850   10.8650    8.7250 C   0  0  0  0  0  0  0  0  0  0  0  0
    5.6160   11.8500    9.6680 O   0  0  0  0  0  0  0  0  0  0  0  0
    8.5930    6.7520    3.3710 N   0  0  0  0  0  0  0  0  0  0  0  0
    8.7120    5.9090    2.1990 C   0  0  2  0  0  0  0  0  0  0  0  0
   10.1520    5.4190    2.0590 C   0  0  0  0  0  0  0  0  0  0  0  0
   11.0730    6.2200    1.9000 O   0  0  0  0  0  0  0  0  0  0  0  0
    8.2830    6.7000    0.9590 C   0  0  0  0  0  0  0  0  0  0  0  0
    8.1280    5.8440   -0.2870 C   0  0  0  0  0  0  0  0  0  0  0  0
    8.7130    4.7730   -0.4060 O   0  0  0  0  0  0  0  0  0  0  0  0
    7.3570    6.3330   -1.2440 N   0  0  0  0  0  0  0  0  0  0  0  0
   10.3630    4.0920    2.1290 N   0  0  0  0  0  0  0  0  0  0  0  0
   11.6960    3.4870    2.0040 C   0  0  2  0  0  0  0  0  0  0  0  0
   12.2340    3.5420    0.5750 C   0  0  0  0  0  0  0  0  0  0  0  0
   13.3380    3.0860    0.2970 O   0  0  0  0  0  0  0  0  0  0  0  0
   11.4690    2.0370    2.4320 C   0  0  0  0  0  0  0  0  0  0  0  0
   10.0390    1.7720    2.1210 C   0  0  0  0  0  0  0  0  0  0  0  0
    9.3210    3.0740    2.3540 C   0  0  0  0  0  0  0  0  0  0  0  0
   11.4290    4.0570   -0.3350 N   0  0  0  0  0  0  0  0  0  0  0  0
   11.8590    4.2570   -1.7050 C   0  0  2  0  0  0  0  0  0  0  0  0
   12.0510    5.7430   -1.9590 C   0  0  0  0  0  0  0  0  0  0  0  0
   12.3150    6.1730   -3.0810 O   0  0  0  0  0  0  0  0  0  0  0  0
   10.8270    3.6740   -2.6670 C   0  0  0  0  0  0  0  0  0  0  0  0
   10.3940    2.2950   -2.2770 C   0  0  0  0  0  0  0  0  0  0  0  0
   11.2520    1.2230   -2.4220 C   0  0  0  0  0  0  0  0  0  0  0  0
    9.1300    2.0720   -1.7550 C   0  0  0  0  0  0  0  0  0  0  0  0
   10.8620   -0.0480   -2.0550 C   0  0  0  0  0  0  0  0  0  0  0  0
    8.7330    0.8040   -1.3860 C   0  0  0  0  0  0  0  0  0  0  0  0
    9.6010   -0.2570   -1.5360 C   0  0  0  0  0  0  0  0  0  0  0  0
   11.9180    6.5110   -0.8910 N   0  0  0  0  0  0  0  0  0  0  0  0
   12.0120    7.9570   -0.9540 C   0  0  2  0  0  0  0  0  0  0  0  0
   12.9960    8.4260    0.1160 C   0  0  0  0  0  0  0  0  0  0  0  0
   13.0350    9.5980    0.4910 O   0  0  0  0  0  0  0  0  0  0  0  0
   10.6120    8.5420   -0.7280 C   0  0  0  0  0  0  0  0  0  0  0  0
   10.4150    9.9740   -1.2020 C   0  0  0  0  0  0  0  0  0  0  0  0
    8.9550   10.3930   -1.1470 C   0  0  0  0  0  0  0  0  0  0  0  0
    8.0780    9.5990   -1.5450 O   0  5  0  0  0  0  0  0  0  0  0  0
    8.6720   11.5320   -0.6970 O   0  0  0  0  0  0  0  0  0  0  0  0
   13.7990    7.4820    0.5960 N   0  0  0  0  0  0  0  0  0  0  0  0
   14.7670    7.7540    1.6480 C   0  0  2  0  0  0  0  0  0  0  0  0
   16.0040    8.4740    1.0980 C   0  0  0  0  0  0  0  0  0  0  0  0
   16.9930    7.8460    0.7240 O   0  0  0  0  0  0  0  0  0  0  0  0
   15.1450    6.4560    2.3900 C   0  0  0  0  0  0  0  0  0  0  0  0
   15.3710    5.2550    1.4790 C   0  0  0  0  0  0  0  0  0  0  0  0
   15.6460    3.9600    2.2370 C   0  0  0  0  0  0  0  0  0  0  0  0
   14.7070    3.3900    2.8450 O   0  5  0  0  0  0  0  0  0  0  0  0
   16.7960    3.4790    2.1970 O   0  0  0  0  0  0  0  0  0  0  0  0
   15.9010    9.8110    1.0460 N   0  0  0  0  0  0  0  0  0  0  0  0
   16.9730   10.7040    0.5890 C   0  0  2  0  0  0  0  0  0  0  0  0
   17.1730   10.6190   -0.9280 C   0  0  0  0  0  0  0  0  0  0  0  0
   16.9370    9.5840   -1.5460 O   0  0  0  0  0  0  0  0  0  0  0  0
   18.2820   10.4370    1.3430 C   0  0  0  0  0  0  0  0  0  0  0  0
   18.1240   10.5460    2.8510 C   0  0  0  0  0  0  0  0  0  0  0  0
   19.4440   10.5080    3.5900 C   0  0  0  0  0  0  0  0  0  0  0  0
   20.1180    9.4590    3.5730 O   0  5  0  0  0  0  0  0  0  0  0  0
   19.8030   11.5240    4.2180 O   0  0  0  0  0  0  0  0  0  0  0  0
   17.5890   11.7290   -1.5290 N   0  0  0  0  0  0  0  0  0  0  0  0
   17.6700   11.8100   -2.9810 C   0  0  2  0  0  0  0  0  0  0  0  0
   19.1200   11.7390   -3.4630 C   0  0  0  0  0  0  0  0  0  0  0  0
   19.5520   10.7270   -4.0150 O   0  0  0  0  0  0  0  0  0  0  0  0
   17.0090   13.1010   -3.4780 C   0  0  0  0  0  0  0  0  0  0  0  0
   16.7610   13.1180   -4.9780 C   0  0  0  0  0  0  0  0  0  0  0  0
   16.2320   14.4470   -5.4750 C   0  0  0  0  0  0  0  0  0  0  0  0
   15.1000   14.8160   -5.0950 O   0  5  0  0  0  0  0  0  0  0  0  0
   16.9430   15.1320   -6.2390 O   0  0  0  0  0  0  0  0  0  0  0  0
   19.8670   12.8150   -3.2550 N   0  0  0  0  0  0  0  0  0  0  0  0
   21.2510   12.8820   -3.7230 C   0  0  2  0  0  0  0  0  0  0  0  0
   22.2000   13.0340   -2.5440 C   0  0  0  0  0  0  0  0  0  0  0  0
   23.3730   12.6600   -2.6150 O   0  0  0  0  0  0  0  0  0  0  0  0
   21.4280   14.0600   -4.6770 C   0  0  0  0  0  0  0  0  0  0  0  0
   20.4240   14.0860   -5.8170 C   0  0  0  0  0  0  0  0  0  0  0  0
   20.7450   15.1520   -6.8390 C   0  0  0  0  0  0  0  0  0  0  0  0
   20.5100   16.3460   -6.5560 O   0  5  0  0  0  0  0  0  0  0  0  0
   21.2560   14.7990   -7.9220 O   0  0  0  0  0  0  0  0  0  0  0  0
   21.6690   13.5950   -1.4740 N   0  0  0  0  0  0  0  0  0  0  0  0
   22.4070   13.8220   -0.2440 C   0  0  2  0  0  0  0  0  0  0  0  0
   21.4700   13.6310    0.9270 C   0  0  0  0  0  0  0  0  0  0  0  0
   21.7490   12.7680    1.7810 O   0  5  0  0  0  0  0  0  0  0  0  0
   22.9980   15.2370   -0.2010 C   0  0  0  0  0  0  0  0  0  0  0  0
   24.3820   15.3250   -0.8100 C   0  0  0  0  0  0  0  0  0  0  0  0
   24.4890   15.5830   -2.0280 O   0  5  0  0  0  0  0  0  0  0  0  0
   25.3740   15.1700   -0.0640 O   0  0  0  0  0  0  0  0  0  0  0  0
   20.4280   14.3230    0.9570 O   0  0  0  0  0  0  0  0  0  0  0  0
    8.9170   19.9163    5.8135 H   0  0  0  0  0  0  0  0  0  0  0  0
    8.4236   20.1942    4.2679 H   0  0  0  0  0  0  0  0  0  0  0  0
    9.4728   18.9672    4.5889 H   0  0  0  0  0  0  0  0  0  0  0  0
    7.8485   17.7835    5.8480 H   0  0  0  0  0  0  0  0  0  0  0  0
    6.6660   19.8636    6.5972 H   0  0  0  0  0  0  0  0  0  0  0  0
    5.5880   18.5449    6.0267 H   0  0  0  0  0  0  0  0  0  0  0  0
    5.4510   19.7935    3.8089 H   0  0  0  0  0  0  0  0  0  0  0  0
    3.7609   21.3766    4.6899 H   0  0  0  0  0  0  0  0  0  0  0  0
    4.4154   21.1426    6.3461 H   0  0  0  0  0  0  0  0  0  0  0  0
    3.6486   19.7678    5.4809 H   0  0  0  0  0  0  0  0  0  0  0  0
    7.4244   21.2579    4.1222 H   0  0  0  0  0  0  0  0  0  0  0  0
    6.6044   22.0605    5.5042 H   0  0  0  0  0  0  0  0  0  0  0  0
    5.9253   22.2087    3.8478 H   0  0  0  0  0  0  0  0  0  0  0  0
    8.4116   19.0356    2.7589 H   0  0  0  0  0  0  0  0  0  0  0  0
    6.2826   17.4911    1.4614 H   0  0  0  0  0  0  0  0  0  0  0  0
    7.4522   18.2860   -0.6650 H   0  0  0  0  0  0  0  0  0  0  0  0
    8.5057   19.2661    0.4103 H   0  0  0  0  0  0  0  0  0  0  0  0
    6.5055   20.4776   -0.5511 H   0  0  0  0  0  0  0  0  0  0  0  0
    6.6438   20.5161    1.2395 H   0  0  0  0  0  0  0  0  0  0  0  0
    9.7612   17.2307    2.0329 H   0  0  0  0  0  0  0  0  0  0  0  0
   10.0420   14.7899    0.4936 H   0  0  0  0  0  0  0  0  0  0  0  0
   12.1810   14.5655    1.5996 H   0  0  0  0  0  0  0  0  0  0  0  0
   11.6957   15.7145    2.8922 H   0  0  0  0  0  0  0  0  0  0  0  0
   13.0032   16.6979    1.2607 H   0  0  0  0  0  0  0  0  0  0  0  0
    8.7596   13.0949    1.0026 H   0  0  0  0  0  0  0  0  0  0  0  0
    7.7650   12.8332    3.7537 H   0  0  0  0  0  0  0  0  0  0  0  0
    6.3347   11.0395    2.7985 H   0  0  0  0  0  0  0  0  0  0  0  0
    7.1518   11.2577    1.2137 H   0  0  0  0  0  0  0  0  0  0  0  0
    4.9905   12.3953    1.2230 H   0  0  0  0  0  0  0  0  0  0  0  0
    6.3250   13.5936    1.1241 H   0  0  0  0  0  0  0  0  0  0  0  0
    6.1011   14.1199    3.4836 H   0  0  0  0  0  0  0  0  0  0  0  0
    4.8926   12.8091    3.7029 H   0  0  0  0  0  0  0  0  0  0  0  0
    3.7187   14.9162    3.5970 H   0  0  0  0  0  0  0  0  0  0  0  0
    3.3908   14.0084    2.0821 H   0  0  0  0  0  0  0  0  0  0  0  0
    3.8647   16.3156    1.6619 H   0  0  0  0  0  0  0  0  0  0  0  0
    5.0385   15.3722    0.9973 H   0  0  0  0  0  0  0  0  0  0  0  0
    5.3389   16.2041    2.3855 H   0  0  0  0  0  0  0  0  0  0  0  0
   11.1390    9.9623    4.3573 H   0  0  0  0  0  0  0  0  0  0  0  0
   12.0138   11.1899    6.1086 H   0  0  0  0  0  0  0  0  0  0  0  0
   10.9198   10.2868    7.2105 H   0  0  0  0  0  0  0  0  0  0  0  0
   10.7336   13.0516    6.2480 H   0  0  0  0  0  0  0  0  0  0  0  0
    9.8199   12.2344    7.5610 H   0  0  0  0  0  0  0  0  0  0  0  0
    8.0789   11.6512    6.1554 H   0  0  0  0  0  0  0  0  0  0  0  0
    8.6859   13.0349    5.1840 H   0  0  0  0  0  0  0  0  0  0  0  0
    8.0664    9.3035    4.5200 H   0  0  0  0  0  0  0  0  0  0  0  0
    8.2135    7.0320    6.4296 H   0  0  0  0  0  0  0  0  0  0  0  0
    5.7938    6.8746    6.1478 H   0  0  0  0  0  0  0  0  0  0  0  0
    5.8358    8.1183    4.8525 H   0  0  0  0  0  0  0  0  0  0  0  0
    6.1122    7.5259    8.4941 H   0  0  0  0  0  0  0  0  0  0  0  0
    6.0863   10.4598    5.3978 H   0  0  0  0  0  0  0  0  0  0  0  0
    5.8088    9.2937   10.1744 H   0  0  0  0  0  0  0  0  0  0  0  0
    5.7934   12.2314    7.0787 H   0  0  0  0  0  0  0  0  0  0  0  0
    5.5831   11.4571   10.5323 H   0  0  0  0  0  0  0  0  0  0  0  0
    9.0860    7.6217    3.3945 H   0  0  0  0  0  0  0  0  0  0  0  0
    8.0500    5.0379    2.3129 H   0  0  0  0  0  0  0  0  0  0  0  0
    9.0418    7.4708    0.7588 H   0  0  0  0  0  0  0  0  0  0  0  0
    7.3175    7.1824    1.1714 H   0  0  0  0  0  0  0  0  0  0  0  0
    7.2174    5.8144   -2.0876 H   0  0  0  0  0  0  0  0  0  0  0  0
    6.9137    7.2213   -1.1240 H   0  0  0  0  0  0  0  0  0  0  0  0
   12.4091    3.9871    2.6759 H   0  0  0  0  0  0  0  0  0  0  0  0
   11.6610    1.9154    3.5083 H   0  0  0  0  0  0  0  0  0  0  0  0
   12.1219    1.3580    1.8640 H   0  0  0  0  0  0  0  0  0  0  0  0
    9.6409    0.9908    2.7852 H   0  0  0  0  0  0  0  0  0  0  0  0
    9.9271    1.4549    1.0737 H   0  0  0  0  0  0  0  0  0  0  0  0
    8.4916    3.1975    1.6421 H   0  0  0  0  0  0  0  0  0  0  0  0
    8.9334    3.1298    3.3819 H   0  0  0  0  0  0  0  0  0  0  0  0
   10.4992    4.3158   -0.0731 H   0  0  0  0  0  0  0  0  0  0  0  0
   12.8184    3.7415   -1.8596 H   0  0  0  0  0  0  0  0  0  0  0  0
   11.2670    3.6338   -3.6744 H   0  0  0  0  0  0  0  0  0  0  0  0
    9.9446    4.3307   -2.6782 H   0  0  0  0  0  0  0  0  0  0  0  0
   12.2439    1.3822   -2.8291 H   0  0  0  0  0  0  0  0  0  0  0  0
    8.4453    2.9039   -1.6353 H   0  0  0  0  0  0  0  0  0  0  0  0
   11.5451   -0.8812   -2.1742 H   0  0  0  0  0  0  0  0  0  0  0  0
    7.7414    0.6417   -0.9792 H   0  0  0  0  0  0  0  0  0  0  0  0
    9.2926   -1.2550   -1.2462 H   0  0  0  0  0  0  0  0  0  0  0  0
   11.7460    6.0784   -0.0060 H   0  0  0  0  0  0  0  0  0  0  0  0
   12.3789    8.2655   -1.9441 H   0  0  0  0  0  0  0  0  0  0  0  0
   10.4020    8.5107    0.3513 H   0  0  0  0  0  0  0  0  0  0  0  0
    9.8893    7.9065   -1.2608 H   0  0  0  0  0  0  0  0  0  0  0  0
   10.7700   10.0572   -2.2398 H   0  0  0  0  0  0  0  0  0  0  0  0
   11.0022   10.6457   -0.5586 H   0  0  0  0  0  0  0  0  0  0  0  0
   13.7361    6.5564    0.2228 H   0  0  0  0  0  0  0  0  0  0  0  0
   14.2895    8.4265    2.3758 H   0  0  0  0  0  0  0  0  0  0  0  0
   14.3322    6.2098    3.0891 H   0  0  0  0  0  0  0  0  0  0  0  0
   16.0712    6.6392    2.9544 H   0  0  0  0  0  0  0  0  0  0  0  0
   16.2327    5.4679    0.8294 H   0  0  0  0  0  0  0  0  0  0  0  0
   14.4722    5.1126    0.8610 H   0  0  0  0  0  0  0  0  0  0  0  0
   15.0388   10.2256    1.3372 H   0  0  0  0  0  0  0  0  0  0  0  0
   16.6637   11.7337    0.8216 H   0  0  0  0  0  0  0  0  0  0  0  0
   19.0332   11.1701    1.0142 H   0  0  0  0  0  0  0  0  0  0  0  0
   18.6283    9.4221    1.0981 H   0  0  0  0  0  0  0  0  0  0  0  0
   17.5033    9.7074    3.1996 H   0  0  0  0  0  0  0  0  0  0  0  0
   17.6203   11.4961    3.0826 H   0  0  0  0  0  0  0  0  0  0  0  0
   17.8503   12.5203   -0.9761 H   0  0  0  0  0  0  0  0  0  0  0  0
   17.1242   10.9540   -3.4044 H   0  0  0  0  0  0  0  0  0  0  0  0
   17.6640   13.9474   -3.2240 H   0  0  0  0  0  0  0  0  0  0  0  0
   16.0433   13.2176   -2.9643 H   0  0  0  0  0  0  0  0  0  0  0  0
   16.0269   12.3356   -5.2209 H   0  0  0  0  0  0  0  0  0  0  0  0
   17.7093   12.9036   -5.4926 H   0  0  0  0  0  0  0  0  0  0  0  0
   19.4760   13.5962   -2.7684 H   0  0  0  0  0  0  0  0  0  0  0  0
   21.4907   11.9505   -4.2567 H   0  0  0  0  0  0  0  0  0  0  0  0
   22.4390   14.0082   -5.1072 H   0  0  0  0  0  0  0  0  0  0  0  0
   21.3219   14.9911   -4.1009 H   0  0  0  0  0  0  0  0  0  0  0  0
   19.4238   14.2822   -5.4033 H   0  0  0  0  0  0  0  0  0  0  0  0
   20.4288   13.1053   -6.3152 H   0  0  0  0  0  0  0  0  0  0  0  0
   20.7106   13.8779   -1.5121 H   0  0  0  0  0  0  0  0  0  0  0  0
   23.2271   13.0919   -0.1782 H   0  0  0  0  0  0  0  0  0  0  0  0
   23.0571   15.5593    0.8490 H   0  0  0  0  0  0  0  0  0  0  0  0
   22.3290   15.9122   -0.7547 H   0  0  0  0  0  0  0  0  0  0  0  0
  1  2  1  0  0  0  0
  1132  1  0  0  0  0
  1133  1  0  0  0  0
  1134  1  0  0  0  0
  2  3  1  0  0  0  0
  2  5  1  0  0  0  0
  2135  1  1  0  0  0
  3  4  2  0  0  0  0
  3  9  1  0  0  0  0
  5  6  1  0  0  0  0
  5136  1  0  0  0  0
  5137  1  0  0  0  0
  6  7  1  0  0  0  0
  6  8  1  0  0  0  0
  6138  1  0  0  0  0
  7139  1  0  0  0  0
  7140  1  0  0  0  0
  7141  1  0  0  0  0
  8142  1  0  0  0  0
  8143  1  0  0  0  0
  8144  1  0  0  0  0
  9 10  1  0  0  0  0
  9145  1  0  0  0  0
 10 11  1  0  0  0  0
 10 13  1  0  0  0  0
 10146  1  1  0  0  0
 11 12  2  0  0  0  0
 11 18  1  0  0  0  0
 13 14  1  0  0  0  0
 13147  1  0  0  0  0
 13148  1  0  0  0  0
 14 15  1  0  0  0  0
 14149  1  0  0  0  0
 14150  1  0  0  0  0
 15 16  1  0  0  0  0
 15 17  2  0  0  0  0
 18 19  1  0  0  0  0
 18151  1  0  0  0  0
 19 20  1  0  0  0  0
 19 22  1  0  0  0  0
 19152  1  6  0  0  0
 20 21  2  0  0  0  0
 20 24  1  0  0  0  0
 22 23  1  0  0  0  0
 22153  1  0  0  0  0
 22154  1  0  0  0  0
 23155  1  0  0  0  0
 24 25  1  0  0  0  0
 24156  1  0  0  0  0
 25 26  1  0  0  0  0
 25 28  1  0  0  0  0
 25157  1  1  0  0  0
 26 27  2  0  0  0  0
 26 33  1  0  0  0  0
 28 29  1  0  0  0  0
 28158  1  0  0  0  0
 28159  1  0  0  0  0
 29 30  1  0  0  0  0
 29160  1  0  0  0  0
 29161  1  0  0  0  0
 30 31  1  0  0  0  0
 30162  1  0  0  0  0
 30163  1  0  0  0  0
 31 32  1  0  0  0  0
 31164  1  0  0  0  0
 31165  1  0  0  0  0
 32166  1  0  0  0  0
 32167  1  0  0  0  0
 32168  1  0  0  0  0
 33 34  1  0  0  0  0
 33 39  1  0  0  0  0
 34 35  1  0  0  0  0
 34 37  1  0  0  0  0
 34169  1  6  0  0  0
 35 36  2  0  0  0  0
 35 40  1  0  0  0  0
 37 38  1  0  0  0  0
 37170  1  0  0  0  0
 37171  1  0  0  0  0
 38 39  1  0  0  0  0
 38172  1  0  0  0  0
 38173  1  0  0  0  0
 39174  1  0  0  0  0
 39175  1  0  0  0  0
 40 41  1  0  0  0  0
 40176  1  0  0  0  0
 41 42  1  0  0  0  0
 41 44  1  0  0  0  0
 41177  1  1  0  0  0
 42 43  2  0  0  0  0
 42 52  1  0  0  0  0
 44 45  1  0  0  0  0
 44178  1  0  0  0  0
 44179  1  0  0  0  0
 45 46  2  0  0  0  0
 45 47  1  0  0  0  0
 46 48  1  0  0  0  0
 46180  1  0  0  0  0
 47 49  2  0  0  0  0
 47181  1  0  0  0  0
 48 50  2  0  0  0  0
 48182  1  0  0  0  0
 49 50  1  0  0  0  0
 49183  1  0  0  0  0
 50 51  1  0  0  0  0
 51184  1  0  0  0  0
 52 53  1  0  0  0  0
 52185  1  0  0  0  0
 53 54  1  0  0  0  0
 53 56  1  0  0  0  0
 53186  1  1  0  0  0
 54 55  2  0  0  0  0
 54 60  1  0  0  0  0
 56 57  1  0  0  0  0
 56187  1  0  0  0  0
 56188  1  0  0  0  0
 57 58  2  0  0  0  0
 57 59  1  0  0  0  0
 59189  1  0  0  0  0
 59190  1  0  0  0  0
 60 61  1  0  0  0  0
 60 66  1  0  0  0  0
 61 62  1  0  0  0  0
 61 64  1  0  0  0  0
 61191  1  1  0  0  0
 62 63  2  0  0  0  0
 62 67  1  0  0  0  0
 64 65  1  0  0  0  0
 64192  1  0  0  0  0
 64193  1  0  0  0  0
 65 66  1  0  0  0  0
 65194  1  0  0  0  0
 65195  1  0  0  0  0
 66196  1  0  0  0  0
 66197  1  0  0  0  0
 67 68  1  0  0  0  0
 67198  1  0  0  0  0
 68 69  1  0  0  0  0
 68 71  1  0  0  0  0
 68199  1  6  0  0  0
 69 70  2  0  0  0  0
 69 78  1  0  0  0  0
 71 72  1  0  0  0  0
 71200  1  0  0  0  0
 71201  1  0  0  0  0
 72 73  2  0  0  0  0
 72 74  1  0  0  0  0
 73 75  1  0  0  0  0
 73202  1  0  0  0  0
 74 76  2  0  0  0  0
 74203  1  0  0  0  0
 75 77  2  0  0  0  0
 75204  1  0  0  0  0
 76 77  1  0  0  0  0
 76205  1  0  0  0  0
 77206  1  0  0  0  0
 78 79  1  0  0  0  0
 78207  1  0  0  0  0
 79 80  1  0  0  0  0
 79 82  1  0  0  0  0
 79208  1  6  0  0  0
 80 81  2  0  0  0  0
 80 87  1  0  0  0  0
 82 83  1  0  0  0  0
 82209  1  0  0  0  0
 82210  1  0  0  0  0
 83 84  1  0  0  0  0
 83211  1  0  0  0  0
 83212  1  0  0  0  0
 84 85  1  0  0  0  0
 84 86  2  0  0  0  0
 87 88  1  0  0  0  0
 87213  1  0  0  0  0
 88 89  1  0  0  0  0
 88 91  1  0  0  0  0
 88214  1  1  0  0  0
 89 90  2  0  0  0  0
 89 96  1  0  0  0  0
 91 92  1  0  0  0  0
 91215  1  0  0  0  0
 91216  1  0  0  0  0
 92 93  1  0  0  0  0
 92217  1  0  0  0  0
 92218  1  0  0  0  0
 93 94  1  0  0  0  0
 93 95  2  0  0  0  0
 96 97  1  0  0  0  0
 96219  1  0  0  0  0
 97 98  1  0  0  0  0
 97100  1  0  0  0  0
 97220  1  1  0  0  0
 98 99  2  0  0  0  0
 98105  1  0  0  0  0
100101  1  0  0  0  0
100221  1  0  0  0  0
100222  1  0  0  0  0
101102  1  0  0  0  0
101223  1  0  0  0  0
101224  1  0  0  0  0
102103  1  0  0  0  0
102104  2  0  0  0  0
105106  1  0  0  0  0
105225  1  0  0  0  0
106107  1  0  0  0  0
106109  1  0  0  0  0
106226  1  6  0  0  0
107108  2  0  0  0  0
107114  1  0  0  0  0
109110  1  0  0  0  0
109227  1  0  0  0  0
109228  1  0  0  0  0
110111  1  0  0  0  0
110229  1  0  0  0  0
110230  1  0  0  0  0
111112  1  0  0  0  0
111113  2  0  0  0  0
114115  1  0  0  0  0
114231  1  0  0  0  0
115116  1  0  0  0  0
115118  1  0  0  0  0
115232  1  6  0  0  0
116117  2  0  0  0  0
116123  1  0  0  0  0
118119  1  0  0  0  0
118233  1  0  0  0  0
118234  1  0  0  0  0
119120  1  0  0  0  0
119235  1  0  0  0  0
119236  1  0  0  0  0
120121  1  0  0  0  0
120122  2  0  0  0  0
123124  1  0  0  0  0
123237  1  0  0  0  0
124125  1  0  0  0  0
124127  1  0  0  0  0
124238  1  1  0  0  0
125126  1  0  0  0  0
125131  2  0  0  0  0
127128  1  0  0  0  0
127239  1  0  0  0  0
127240  1  0  0  0  0
128129  1  0  0  0  0
128130  2  0  0  0  0
M  CHG  8   1   1  16  -1  32   1  85  -1  94  -1 103  -1 112  -1 121  -1
M  CHG  2 126  -1 129  -1
M  END
