2kup_ligand
 OpenBabel08222323343D

322327  0  0  1  0  0  0  0  0999 V2000
  -21.9410   -6.0980    3.1550 N   0  3  0  0  0  0  0  0  0  0  0  0
  -20.9310   -5.1710    3.7390 C   0  0  2  0  0  0  0  0  0  0  0  0
  -21.3180   -4.8180    5.1810 C   0  0  0  0  0  0  0  0  0  0  0  0
  -22.0950   -3.8910    5.4150 O   0  0  0  0  0  0  0  0  0  0  0  0
  -20.7280   -3.8900    2.8830 C   0  0  0  0  0  0  0  0  0  0  0  0
  -19.7140   -3.9660    1.7200 C   0  0  0  0  0  0  0  0  0  0  0  0
  -18.2940   -4.2440    2.2080 C   0  0  0  0  0  0  0  0  0  0  0  0
  -20.0440   -5.0230    0.6670 C   0  0  0  0  0  0  0  0  0  0  0  0
  -20.7880   -5.5610    6.1560 N   0  0  0  0  0  0  0  0  0  0  0  0
  -21.0290   -5.3310    7.5860 C   0  0  2  0  0  0  0  0  0  0  0  0
  -20.1730   -4.1710    8.1120 C   0  0  0  0  0  0  0  0  0  0  0  0
  -18.9600   -4.1580    7.8980 O   0  0  0  0  0  0  0  0  0  0  0  0
  -20.7310   -6.6260    8.3510 C   0  0  0  0  0  0  0  0  0  0  0  0
  -21.2520   -6.6320    9.7750 C   0  0  0  0  0  0  0  0  0  0  0  0
  -20.4850   -6.0850   10.8240 C   0  0  0  0  0  0  0  0  0  0  0  0
  -22.5180   -7.1820   10.0500 C   0  0  0  0  0  0  0  0  0  0  0  0
  -20.9940   -6.0750   12.1360 C   0  0  0  0  0  0  0  0  0  0  0  0
  -23.0200   -7.1830   11.3630 C   0  0  0  0  0  0  0  0  0  0  0  0
  -22.2610   -6.6230   12.4060 C   0  0  0  0  0  0  0  0  0  0  0  0
  -20.7980   -3.2230    8.8230 N   0  0  0  0  0  0  0  0  0  0  0  0
  -20.1190   -2.0950    9.4740 C   0  0  2  0  0  0  0  0  0  0  0  0
  -19.7360   -2.4830   10.9090 C   0  0  0  0  0  0  0  0  0  0  0  0
  -20.6090   -2.6230   11.7710 O   0  0  0  0  0  0  0  0  0  0  0  0
  -21.0170   -0.8410    9.4800 C   0  0  0  0  0  0  0  0  0  0  0  0
  -21.1430   -0.1070    8.1340 C   0  0  0  0  0  0  0  0  0  0  0  0
  -21.9970   -0.8280    7.0820 C   0  0  0  0  0  0  0  0  0  0  0  0
  -22.2420    0.0480    5.9200 N   0  0  0  0  0  0  0  0  0  0  0  0
  -22.9620   -0.2470    4.8450 C   0  0  0  0  0  3  0  0  0  0  0  0
  -23.4530   -1.4520    4.6390 N   0  0  0  0  0  0  0  0  0  0  0  0
  -23.1980    0.6850    3.9470 N   0  0  0  0  0  0  0  0  0  0  0  0
  -18.4390   -2.6590   11.1780 N   0  0  0  0  0  0  0  0  0  0  0  0
  -17.9130   -2.9750   12.5140 C   0  0  2  0  0  0  0  0  0  0  0  0
  -17.9200   -1.7690   13.4620 C   0  0  0  0  0  0  0  0  0  0  0  0
  -17.8780   -0.6120   13.0340 O   0  0  0  0  0  0  0  0  0  0  0  0
  -16.4880   -3.5440   12.3930 C   0  0  0  0  0  0  0  0  0  0  0  0
  -16.4100   -5.0110   11.9540 C   0  0  0  0  0  0  0  0  0  0  0  0
  -14.9380   -5.3720   11.7510 C   0  0  0  0  0  0  0  0  0  0  0  0
  -16.9830   -5.9560   13.0110 C   0  0  0  0  0  0  0  0  0  0  0  0
  -17.9250   -2.0720   14.7660 N   0  0  0  0  0  0  0  0  0  0  0  0
  -17.9220   -1.0900   15.8640 C   0  0  2  0  0  0  0  0  0  0  0  0
  -16.5320   -0.5010   16.1590 C   0  0  0  0  0  0  0  0  0  0  0  0
  -16.4270    0.6060   16.6880 O   0  0  0  0  0  0  0  0  0  0  0  0
  -18.4670   -1.7500   17.1430 C   0  0  0  0  0  0  0  0  0  0  0  0
  -19.9130   -2.2550   16.9980 C   0  0  0  0  0  0  0  0  0  0  0  0
  -20.4450   -2.8280   18.3180 C   0  0  0  0  0  0  0  0  0  0  0  0
  -19.7500   -4.0720   18.7040 N   0  0  0  0  0  0  0  0  0  0  0  0
  -19.6130   -4.5530   19.9340 C   0  0  0  0  0  3  0  0  0  0  0  0
  -20.0340   -3.9010   20.9990 N   0  0  0  0  0  0  0  0  0  0  0  0
  -19.0460   -5.7250   20.1090 N   0  0  0  0  0  0  0  0  0  0  0  0
  -15.4690   -1.2320   15.8170 N   0  0  0  0  0  0  0  0  0  0  0  0
  -14.0580   -0.8910   16.0560 C   0  0  2  0  0  0  0  0  0  0  0  0
  -13.1180   -1.7220   15.1540 C   0  0  0  0  0  0  0  0  0  0  0  0
  -13.5590   -2.6660   14.4890 O   0  0  0  0  0  0  0  0  0  0  0  0
  -13.7190   -1.0630   17.5500 C   0  0  0  0  0  0  0  0  0  0  0  0
  -13.4550   -2.4880   17.9640 C   0  0  0  0  0  0  0  0  0  0  0  0
  -12.2000   -3.0000   18.2990 N   0  0  0  0  0  0  0  0  0  0  0  0
  -14.3740   -3.4940   18.0230 C   0  0  0  0  0  0  0  0  0  0  0  0
  -12.3940   -4.3040   18.5520 C   0  0  0  0  0  0  0  0  0  0  0  0
  -13.6900   -4.6310   18.3950 N   0  0  0  0  0  0  0  0  0  0  0  0
  -11.8270   -1.3740   15.1100 N   0  0  0  0  0  0  0  0  0  0  0  0
  -10.8650   -2.0130   14.2090 C   0  0  2  0  0  0  0  0  0  0  0  0
  -10.3690   -3.3620   14.7830 C   0  0  0  0  0  0  0  0  0  0  0  0
   -9.8630   -3.3780   15.9090 O   0  0  0  0  0  0  0  0  0  0  0  0
   -9.7250   -1.0230   13.9060 C   0  0  0  0  0  0  0  0  0  0  0  0
   -8.9840   -1.3340   12.6240 C   0  0  0  0  0  0  0  0  0  0  0  0
   -9.6970   -1.4140   11.4140 C   0  0  0  0  0  0  0  0  0  0  0  0
   -7.5920   -1.5360   12.6240 C   0  0  0  0  0  0  0  0  0  0  0  0
   -9.0370   -1.7500   10.2270 C   0  0  0  0  0  0  0  0  0  0  0  0
   -6.9260   -1.8450   11.4270 C   0  0  0  0  0  0  0  0  0  0  0  0
   -7.6510   -1.9640   10.2300 C   0  0  0  0  0  0  0  0  0  0  0  0
  -10.4890   -4.4900   14.0450 N   0  0  0  0  0  0  0  0  0  0  0  0
  -10.2060   -5.8340   14.5560 C   0  0  2  0  0  0  0  0  0  0  0  0
   -8.7070   -6.1970   14.5550 C   0  0  0  0  0  0  0  0  0  0  0  0
   -8.3620   -7.3430   14.8420 O   0  0  0  0  0  0  0  0  0  0  0  0
  -11.0140   -6.7680   13.6480 C   0  0  0  0  0  0  0  0  0  0  0  0
  -10.9220   -6.0670   12.2970 C   0  0  0  0  0  0  0  0  0  0  0  0
  -11.0190   -4.5940   12.6880 C   0  0  0  0  0  0  0  0  0  0  0  0
   -7.8160   -5.2520   14.2280 N   0  0  0  0  0  0  0  0  0  0  0  0
   -6.3880   -5.4850   14.0070 C   0  0  2  0  0  0  0  0  0  0  0  0
   -5.5100   -4.5330   14.8420 C   0  0  0  0  0  0  0  0  0  0  0  0
   -5.7290   -3.3180   14.8500 O   0  0  0  0  0  0  0  0  0  0  0  0
   -6.1570   -5.3410   12.4970 C   0  0  0  0  0  0  0  0  0  0  0  0
   -4.4050   -5.5900   12.1380 S   0  0  0  0  0  0  0  0  0  0  0  0
   -4.5020   -5.0870   15.5320 N   0  0  0  0  0  0  0  0  0  0  0  0
   -3.5670   -4.3480   16.3990 C   0  0  0  0  0  0  0  0  0  0  0  0
   -2.2590   -3.9110   15.7240 C   0  0  0  0  0  0  0  0  0  0  0  0
   -1.5830   -3.0220   16.2420 O   0  0  0  0  0  0  0  0  0  0  0  0
   -1.9040   -4.5030   14.5780 N   0  0  0  0  0  0  0  0  0  0  0  0
   -0.6840   -4.2030   13.8110 C   0  0  2  0  0  0  0  0  0  0  0  0
   -1.0470   -3.5660   12.4600 C   0  0  0  0  0  0  0  0  0  0  0  0
   -1.6390   -4.2220   11.6030 O   0  0  0  0  0  0  0  0  0  0  0  0
    0.1290   -5.4950   13.6100 C   0  0  0  0  0  0  0  0  0  0  0  0
    0.7340   -6.0160   14.9130 C   0  0  0  0  0  0  0  0  0  0  0  0
    1.3760   -5.2890   15.6620 O   0  0  0  0  0  0  0  0  0  0  0  0
    0.5560   -7.2890   15.2200 N   0  0  0  0  0  0  0  0  0  0  0  0
   -0.7100   -2.2900   12.2620 N   0  0  0  0  0  0  0  0  0  0  0  0
   -1.1810   -1.4960   11.1200 C   0  0  2  0  0  0  0  0  0  0  0  0
   -0.2240   -0.3480   10.7860 C   0  0  0  0  0  0  0  0  0  0  0  0
    0.2430    0.3800   11.6590 O   0  0  0  0  0  0  0  0  0  0  0  0
   -2.6320   -1.0080   11.3550 C   0  0  0  0  0  0  0  0  0  0  0  0
   -2.8260   -0.1840   12.6390 C   0  0  0  0  0  0  0  0  0  0  0  0
   -3.1400   -0.1950   10.1640 C   0  0  0  0  0  0  0  0  0  0  0  0
    0.0470   -0.2130    9.4890 N   0  0  0  0  0  0  0  0  0  0  0  0
    0.7710    0.8830    8.8510 C   0  0  2  0  0  0  0  0  0  0  0  0
   -0.2170    1.9540    8.3470 C   0  0  0  0  0  0  0  0  0  0  0  0
   -1.0900    1.6880    7.5210 O   0  0  0  0  0  0  0  0  0  0  0  0
    1.6960    0.3520    7.7290 C   0  0  0  0  0  0  0  0  0  0  0  0
    1.1430   -0.7350    6.7940 C   0  0  0  0  0  0  0  0  0  0  0  0
    0.0270   -1.2240    6.9110 O   0  0  0  0  0  0  0  0  0  0  0  0
    1.9480   -1.1960    5.8520 N   0  0  0  0  0  0  0  0  0  0  0  0
   -0.0820    3.1840    8.8530 N   0  0  0  0  0  0  0  0  0  0  0  0
   -0.9090    4.3280    8.4500 C   0  0  2  0  0  0  0  0  0  0  0  0
   -0.3410    4.9720    7.1710 C   0  0  0  0  0  0  0  0  0  0  0  0
    0.7540    5.5430    7.1840 O   0  0  0  0  0  0  0  0  0  0  0  0
   -1.0030    5.3270    9.6110 C   0  0  0  0  0  0  0  0  0  0  0  0
   -1.5540    4.7360   10.8980 C   0  0  0  0  0  0  0  0  0  0  0  0
   -2.9230    4.4200   10.9950 C   0  0  0  0  0  0  0  0  0  0  0  0
   -0.7030    4.4880   11.9920 C   0  0  0  0  0  0  0  0  0  0  0  0
   -3.4430    3.8560   12.1750 C   0  0  0  0  0  0  0  0  0  0  0  0
   -1.2150    3.9270   13.1790 C   0  0  0  0  0  0  0  0  0  0  0  0
   -2.5900    3.6080   13.2730 C   0  0  0  0  0  0  0  0  0  0  0  0
   -3.0970    3.0700   14.4170 O   0  0  0  0  0  0  0  0  0  0  0  0
   -1.0720    4.8420    6.0580 N   0  0  0  0  0  0  0  0  0  0  0  0
   -0.6180    5.2410    4.7180 C   0  0  0  0  0  0  0  0  0  0  0  0
   -0.9100    6.7070    4.4150 C   0  0  0  0  0  0  0  0  0  0  0  0
    0.0090    7.5170    4.2880 O   0  0  0  0  0  0  0  0  0  0  0  0
   -2.1950    7.0450    4.2940 N   0  0  0  0  0  0  0  0  0  0  0  0
   -2.6650    8.3730    3.8850 C   0  0  2  0  0  0  0  0  0  0  0  0
   -3.0650    9.2220    5.1060 C   0  0  0  0  0  0  0  0  0  0  0  0
   -3.9570    8.8550    5.8730 O   0  0  0  0  0  0  0  0  0  0  0  0
   -3.8160    8.2180    2.8710 C   0  0  0  0  0  0  0  0  0  0  0  0
   -3.3700    7.7170    1.5040 C   0  0  0  0  0  0  0  0  0  0  0  0
   -3.0160    6.3660    1.3230 C   0  0  0  0  0  0  0  0  0  0  0  0
   -3.3010    8.6000    0.4080 C   0  0  0  0  0  0  0  0  0  0  0  0
   -2.5920    5.9030    0.0640 C   0  0  0  0  0  0  0  0  0  0  0  0
   -2.8760    8.1440   -0.8540 C   0  0  0  0  0  0  0  0  0  0  0  0
   -2.5240    6.7870   -1.0330 C   0  0  0  0  0  0  0  0  0  0  0  0
   -2.1480    6.3230   -2.2570 O   0  0  0  0  0  0  0  0  0  0  0  0
   -2.4130   10.3780    5.2710 N   0  0  0  0  0  0  0  0  0  0  0  0
   -2.6210   11.3290    6.3760 C   0  0  2  0  0  0  0  0  0  0  0  0
   -3.6150   12.4570    6.0110 C   0  0  0  0  0  0  0  0  0  0  0  0
   -3.5300   13.5700    6.5320 O   0  0  0  0  0  0  0  0  0  0  0  0
   -1.2540   11.8450    6.8790 C   0  0  0  0  0  0  0  0  0  0  0  0
   -0.4370   12.6270    5.8320 C   0  0  0  0  0  0  0  0  0  0  0  0
    0.7970   13.2930    6.4470 C   0  0  0  0  0  0  0  0  0  0  0  0
    0.8510   14.5030    6.6420 O   0  0  0  0  0  0  0  0  0  0  0  0
    1.8330   12.5450    6.7760 N   0  0  0  0  0  0  0  0  0  0  0  0
   -4.5490   12.1800    5.0950 N   0  0  0  0  0  0  0  0  0  0  0  0
   -5.5380   13.1210    4.5600 C   0  0  2  0  0  0  0  0  0  0  0  0
   -6.9540   12.5260    4.7110 C   0  0  0  0  0  0  0  0  0  0  0  0
   -7.1210   11.3030    4.7150 O   0  0  0  0  0  0  0  0  0  0  0  0
   -5.1570   13.4330    3.1000 C   0  0  0  0  0  0  0  0  0  0  0  0
   -5.9210   14.6260    2.5040 C   0  0  0  0  0  0  0  0  0  0  0  0
   -5.4000   14.9830    1.1080 C   0  0  0  0  0  0  0  0  0  0  0  0
   -5.8720   14.4920    0.0900 O   0  0  0  0  0  0  0  0  0  0  0  0
   -4.3970   15.8340    1.0000 N   0  0  0  0  0  0  0  0  0  0  0  0
   -7.9630   13.3920    4.8850 N   0  0  0  0  0  0  0  0  0  0  0  0
   -9.3440   13.0330    5.2580 C   0  0  2  0  0  0  0  0  0  0  0  0
  -10.0570   12.1340    4.2290 C   0  0  0  0  0  0  0  0  0  0  0  0
  -10.1360   12.5110    3.0400 O   0  5  0  0  0  0  0  0  0  0  0  0
  -10.1160   14.3350    5.5510 C   0  0  0  0  0  0  0  0  0  0  0  0
  -11.4520   14.1390    6.2970 C   0  0  0  0  0  0  0  0  0  0  0  0
  -12.6210   13.6350    5.4410 C   0  0  0  0  0  0  0  0  0  0  0  0
  -13.2540   12.6250    5.7260 O   0  0  0  0  0  0  0  0  0  0  0  0
  -12.9980   14.3420    4.3930 N   0  0  0  0  0  0  0  0  0  0  0  0
  -10.5430   11.0450    4.6030 O   0  0  0  0  0  0  0  0  0  0  0  0
  -21.6805   -6.3255    2.2082 H   0  0  0  0  0  0  0  0  0  0  0  0
  -22.8458   -5.6536    3.1570 H   0  0  0  0  0  0  0  0  0  0  0  0
  -21.9800   -6.9420    3.7047 H   0  0  0  0  0  0  0  0  0  0  0  0
  -19.9685   -5.7027    3.7675 H   0  0  0  0  0  0  0  0  0  0  0  0
  -20.3941   -3.0900    3.5601 H   0  0  0  0  0  0  0  0  0  0  0  0
  -21.7043   -3.6225    2.4526 H   0  0  0  0  0  0  0  0  0  0  0  0
  -19.7220   -2.9836    1.2252 H   0  0  0  0  0  0  0  0  0  0  0  0
  -17.6122   -4.2886    1.3459 H   0  0  0  0  0  0  0  0  0  0  0  0
  -18.2717   -5.2048    2.7432 H   0  0  0  0  0  0  0  0  0  0  0  0
  -17.9752   -3.4389    2.8863 H   0  0  0  0  0  0  0  0  0  0  0  0
  -21.0634   -4.8574    0.2882 H   0  0  0  0  0  0  0  0  0  0  0  0
  -19.9789   -6.0237    1.1190 H   0  0  0  0  0  0  0  0  0  0  0  0
  -19.3274   -4.9487   -0.1643 H   0  0  0  0  0  0  0  0  0  0  0  0
  -20.1908   -6.3200    5.8964 H   0  0  0  0  0  0  0  0  0  0  0  0
  -22.0883   -5.0712    7.7289 H   0  0  0  0  0  0  0  0  0  0  0  0
  -19.6406   -6.7677    8.3806 H   0  0  0  0  0  0  0  0  0  0  0  0
  -21.1950   -7.4631    7.8089 H   0  0  0  0  0  0  0  0  0  0  0  0
  -19.5036   -5.6723   10.6200 H   0  0  0  0  0  0  0  0  0  0  0  0
  -23.1083   -7.6065    9.2460 H   0  0  0  0  0  0  0  0  0  0  0  0
  -20.4085   -5.6441   12.9401 H   0  0  0  0  0  0  0  0  0  0  0  0
  -23.9919   -7.6153   11.5715 H   0  0  0  0  0  0  0  0  0  0  0  0
  -22.6519   -6.6137   13.4170 H   0  0  0  0  0  0  0  0  0  0  0  0
  -21.7915   -3.2876    8.9166 H   0  0  0  0  0  0  0  0  0  0  0  0
  -19.2015   -1.8650    8.9125 H   0  0  0  0  0  0  0  0  0  0  0  0
  -20.6048   -0.1331   10.2141 H   0  0  0  0  0  0  0  0  0  0  0  0
  -22.0256   -1.1485    9.7934 H   0  0  0  0  0  0  0  0  0  0  0  0
  -20.1321    0.0254    7.7211 H   0  0  0  0  0  0  0  0  0  0  0  0
  -21.5938    0.8784    8.3231 H   0  0  0  0  0  0  0  0  0  0  0  0
  -22.9607   -1.1104    7.5309 H   0  0  0  0  0  0  0  0  0  0  0  0
  -21.4693   -1.7331    6.7470 H   0  0  0  0  0  0  0  0  0  0  0  0
  -21.8105    0.9829    5.9459 H   0  0  0  0  0  0  0  0  0  0  0  0
  -24.0076   -1.6444    3.7926 H   0  0  0  0  0  0  0  0  0  0  0  0
  -23.2823   -2.2018    5.3243 H   0  0  0  0  0  0  0  0  0  0  0  0
  -22.8265    1.6361    4.0820 H   0  0  0  0  0  0  0  0  0  0  0  0
  -23.7543    0.4636    3.1089 H   0  0  0  0  0  0  0  0  0  0  0  0
  -17.7868   -2.5704   10.4251 H   0  0  0  0  0  0  0  0  0  0  0  0
  -18.5584   -3.7496   12.9538 H   0  0  0  0  0  0  0  0  0  0  0  0
  -16.0010   -3.4557   13.3753 H   0  0  0  0  0  0  0  0  0  0  0  0
  -15.9402   -2.9380   11.6563 H   0  0  0  0  0  0  0  0  0  0  0  0
  -16.9641   -5.1384   11.0123 H   0  0  0  0  0  0  0  0  0  0  0  0
  -14.8584   -6.4226   11.4350 H   0  0  0  0  0  0  0  0  0  0  0  0
  -14.3922   -5.2308   12.6955 H   0  0  0  0  0  0  0  0  0  0  0  0
  -14.5046   -4.7223   10.9764 H   0  0  0  0  0  0  0  0  0  0  0  0
  -18.0441   -5.7189   13.1782 H   0  0  0  0  0  0  0  0  0  0  0  0
  -16.4272   -5.8335   13.9523 H   0  0  0  0  0  0  0  0  0  0  0  0
  -16.8900   -6.9953   12.6628 H   0  0  0  0  0  0  0  0  0  0  0  0
  -17.9313   -3.0407   15.0141 H   0  0  0  0  0  0  0  0  0  0  0  0
  -18.5886   -0.2625   15.5797 H   0  0  0  0  0  0  0  0  0  0  0  0
  -18.4350   -1.0117   17.9578 H   0  0  0  0  0  0  0  0  0  0  0  0
  -17.8225   -2.6045   17.3969 H   0  0  0  0  0  0  0  0  0  0  0  0
  -19.9412   -3.0420   16.2300 H   0  0  0  0  0  0  0  0  0  0  0  0
  -20.5546   -1.4170   16.6881 H   0  0  0  0  0  0  0  0  0  0  0  0
  -21.5181   -3.0418   18.2049 H   0  0  0  0  0  0  0  0  0  0  0  0
  -20.3017   -2.0807   19.1123 H   0  0  0  0  0  0  0  0  0  0  0  0
  -19.3288   -4.6225   17.9421 H   0  0  0  0  0  0  0  0  0  0  0  0
  -19.9083   -4.3096   21.9361 H   0  0  0  0  0  0  0  0  0  0  0  0
  -20.4887   -2.9828   20.8943 H   0  0  0  0  0  0  0  0  0  0  0  0
  -18.7065   -6.2593   19.2965 H   0  0  0  0  0  0  0  0  0  0  0  0
  -18.9410   -6.1096   21.0587 H   0  0  0  0  0  0  0  0  0  0  0  0
  -15.6498   -2.0984   15.3516 H   0  0  0  0  0  0  0  0  0  0  0  0
  -13.9164    0.1688   15.7975 H   0  0  0  0  0  0  0  0  0  0  0  0
  -14.5650   -0.6831   18.1416 H   0  0  0  0  0  0  0  0  0  0  0  0
  -12.8207   -0.4678   17.7706 H   0  0  0  0  0  0  0  0  0  0  0  0
  -15.4403   -3.4143   17.8164 H   0  0  0  0  0  0  0  0  0  0  0  0
  -11.6103   -5.0014   18.8442 H   0  0  0  0  0  0  0  0  0  0  0  0
  -14.0989   -5.5668   18.5293 H   0  0  0  0  0  0  0  0  0  0  0  0
  -11.5054   -0.6476   15.7174 H   0  0  0  0  0  0  0  0  0  0  0  0
  -11.3782   -2.2312   13.2609 H   0  0  0  0  0  0  0  0  0  0  0  0
   -9.0074   -1.0518   14.7392 H   0  0  0  0  0  0  0  0  0  0  0  0
  -10.1527   -0.0128   13.8252 H   0  0  0  0  0  0  0  0  0  0  0  0
  -10.7624   -1.2145   11.4012 H   0  0  0  0  0  0  0  0  0  0  0  0
   -7.0328   -1.4531   13.5489 H   0  0  0  0  0  0  0  0  0  0  0  0
   -9.5975   -1.8450    9.3040 H   0  0  0  0  0  0  0  0  0  0  0  0
   -5.8520   -1.9917   11.4268 H   0  0  0  0  0  0  0  0  0  0  0  0
   -7.1397   -2.2210    9.3093 H   0  0  0  0  0  0  0  0  0  0  0  0
  -10.5722   -5.9137   15.5902 H   0  0  0  0  0  0  0  0  0  0  0  0
  -12.0579   -6.8470   13.9856 H   0  0  0  0  0  0  0  0  0  0  0  0
  -10.5648   -7.7713   13.6076 H   0  0  0  0  0  0  0  0  0  0  0  0
  -11.7531   -6.3600   11.6386 H   0  0  0  0  0  0  0  0  0  0  0  0
   -9.9656   -6.2849   11.7993 H   0  0  0  0  0  0  0  0  0  0  0  0
  -10.4229   -3.9778   11.9988 H   0  0  0  0  0  0  0  0  0  0  0  0
  -12.0675   -4.2624   12.6630 H   0  0  0  0  0  0  0  0  0  0  0  0
   -8.1521   -4.3156   14.1271 H   0  0  0  0  0  0  0  0  0  0  0  0
   -6.1429   -6.5146   14.3066 H   0  0  0  0  0  0  0  0  0  0  0  0
   -6.4595   -4.3343   12.1729 H   0  0  0  0  0  0  0  0  0  0  0  0
   -6.7531   -6.0936   11.9602 H   0  0  0  0  0  0  0  0  0  0  0  0
   -4.1299   -6.5127   12.4364 H   0  0  0  0  0  0  0  0  0  0  0  0
   -4.3754   -6.0757   15.4521 H   0  0  0  0  0  0  0  0  0  0  0  0
   -3.3109   -4.9934   17.2521 H   0  0  0  0  0  0  0  0  0  0  0  0
   -4.0805   -3.4458   16.7629 H   0  0  0  0  0  0  0  0  0  0  0  0
   -2.5160   -5.2049   14.2136 H   0  0  0  0  0  0  0  0  0  0  0  0
   -0.0733   -3.4879   14.3817 H   0  0  0  0  0  0  0  0  0  0  0  0
    0.9438   -5.2919   12.8995 H   0  0  0  0  0  0  0  0  0  0  0  0
   -0.5346   -6.2682   13.1956 H   0  0  0  0  0  0  0  0  0  0  0  0
    0.9405   -7.6577   16.0663 H   0  0  0  0  0  0  0  0  0  0  0  0
    0.0368   -7.8835   14.6060 H   0  0  0  0  0  0  0  0  0  0  0  0
   -0.1048   -1.8514   12.9264 H   0  0  0  0  0  0  0  0  0  0  0  0
   -1.2000   -2.1619   10.2447 H   0  0  0  0  0  0  0  0  0  0  0  0
   -3.2602   -1.9065   11.4449 H   0  0  0  0  0  0  0  0  0  0  0  0
   -3.8800    0.1189   12.7245 H   0  0  0  0  0  0  0  0  0  0  0  0
   -2.1891    0.7120   12.5995 H   0  0  0  0  0  0  0  0  0  0  0  0
   -2.5477   -0.7935   13.5114 H   0  0  0  0  0  0  0  0  0  0  0  0
   -3.0057   -0.7759    9.2396 H   0  0  0  0  0  0  0  0  0  0  0  0
   -2.5723    0.7444   10.0924 H   0  0  0  0  0  0  0  0  0  0  0  0
   -4.2074    0.0313   10.3030 H   0  0  0  0  0  0  0  0  0  0  0  0
   -0.2808   -0.9410    8.8869 H   0  0  0  0  0  0  0  0  0  0  0  0
    1.4114    1.3537    9.6115 H   0  0  0  0  0  0  0  0  0  0  0  0
    2.5948   -0.0584    8.2125 H   0  0  0  0  0  0  0  0  0  0  0  0
    1.9767    1.2112    7.1021 H   0  0  0  0  0  0  0  0  0  0  0  0
    1.6273   -1.9038    5.2226 H   0  0  0  0  0  0  0  0  0  0  0  0
    2.8776   -0.8369    5.7689 H   0  0  0  0  0  0  0  0  0  0  0  0
    0.6231    3.3334    9.5461 H   0  0  0  0  0  0  0  0  0  0  0  0
   -1.9233    3.9655    8.2268 H   0  0  0  0  0  0  0  0  0  0  0  0
   -1.6595    6.1539    9.3024 H   0  0  0  0  0  0  0  0  0  0  0  0
    0.0057    5.7158    9.8141 H   0  0  0  0  0  0  0  0  0  0  0  0
   -3.5807    4.6125   10.1551 H   0  0  0  0  0  0  0  0  0  0  0  0
    0.3513    4.7298   11.9208 H   0  0  0  0  0  0  0  0  0  0  0  0
   -4.4972    3.6122   12.2410 H   0  0  0  0  0  0  0  0  0  0  0  0
   -0.5560    3.7401   14.0191 H   0  0  0  0  0  0  0  0  0  0  0  0
   -4.0286    2.9190   14.3088 H   0  0  0  0  0  0  0  0  0  0  0  0
   -1.9870    4.4476    6.1432 H   0  0  0  0  0  0  0  0  0  0  0  0
   -1.1314    4.6174    3.9713 H   0  0  0  0  0  0  0  0  0  0  0  0
    0.4674    5.0761    4.6496 H   0  0  0  0  0  0  0  0  0  0  0  0
   -2.8827    6.3474    4.4953 H   0  0  0  0  0  0  0  0  0  0  0  0
   -1.8360    8.8895    3.3791 H   0  0  0  0  0  0  0  0  0  0  0  0
   -4.2972    9.1985    2.7405 H   0  0  0  0  0  0  0  0  0  0  0  0
   -4.5450    7.5035    3.2809 H   0  0  0  0  0  0  0  0  0  0  0  0
   -3.0706    5.6784    2.1592 H   0  0  0  0  0  0  0  0  0  0  0  0
   -3.5778    9.6400    0.5380 H   0  0  0  0  0  0  0  0  0  0  0  0
   -2.3164    4.8624   -0.0636 H   0  0  0  0  0  0  0  0  0  0  0  0
   -2.8187    8.8335   -1.6885 H   0  0  0  0  0  0  0  0  0  0  0  0
   -1.9480    5.3963   -2.1954 H   0  0  0  0  0  0  0  0  0  0  0  0
   -1.7254   10.6170    4.5854 H   0  0  0  0  0  0  0  0  0  0  0  0
   -3.0779   10.7691    7.2053 H   0  0  0  0  0  0  0  0  0  0  0  0
   -0.6580   10.9785    7.2014 H   0  0  0  0  0  0  0  0  0  0  0  0
   -1.4328   12.5074    7.7388 H   0  0  0  0  0  0  0  0  0  0  0  0
   -1.0774   13.4049    5.3907 H   0  0  0  0  0  0  0  0  0  0  0  0
   -0.1099   11.9314    5.0451 H   0  0  0  0  0  0  0  0  0  0  0  0
    2.6459   12.9659    7.1786 H   0  0  0  0  0  0  0  0  0  0  0  0
    1.8053   11.5572    6.6228 H   0  0  0  0  0  0  0  0  0  0  0  0
   -4.5754   11.2446    4.7423 H   0  0  0  0  0  0  0  0  0  0  0  0
   -5.4967   14.0563    5.1375 H   0  0  0  0  0  0  0  0  0  0  0  0
   -5.3692   12.5439    2.4880 H   0  0  0  0  0  0  0  0  0  0  0  0
   -4.0805   13.6559    3.0620 H   0  0  0  0  0  0  0  0  0  0  0  0
   -5.7977   15.4963    3.1653 H   0  0  0  0  0  0  0  0  0  0  0  0
   -6.9879   14.3680    2.4325 H   0  0  0  0  0  0  0  0  0  0  0  0
   -4.0439   16.0787    0.0970 H   0  0  0  0  0  0  0  0  0  0  0  0
   -3.9901   16.2341    1.8212 H   0  0  0  0  0  0  0  0  0  0  0  0
   -7.7623   14.3624    4.7506 H   0  0  0  0  0  0  0  0  0  0  0  0
   -9.2933   12.4575    6.1940 H   0  0  0  0  0  0  0  0  0  0  0  0
  -10.3286   14.8303    4.5921 H   0  0  0  0  0  0  0  0  0  0  0  0
   -9.4733   14.9837    6.1643 H   0  0  0  0  0  0  0  0  0  0  0  0
  -11.7428   15.1072    6.7306 H   0  0  0  0  0  0  0  0  0  0  0  0
  -11.2852   13.4109    7.1044 H   0  0  0  0  0  0  0  0  0  0  0  0
  -13.7583   14.0272    3.8248 H   0  0  0  0  0  0  0  0  0  0  0  0
  -12.5235   15.1927    4.1668 H   0  0  0  0  0  0  0  0  0  0  0  0
  1  2  1  0  0  0  0
  1167  1  0  0  0  0
  1168  1  0  0  0  0
  1169  1  0  0  0  0
  2  3  1  0  0  0  0
  2  5  1  0  0  0  0
  2170  1  1  0  0  0
  3  4  2  0  0  0  0
  3  9  1  0  0  0  0
  5  6  1  0  0  0  0
  5171  1  0  0  0  0
  5172  1  0  0  0  0
  6  7  1  0  0  0  0
  6  8  1  0  0  0  0
  6173  1  0  0  0  0
  7174  1  0  0  0  0
  7175  1  0  0  0  0
  7176  1  0  0  0  0
  8177  1  0  0  0  0
  8178  1  0  0  0  0
  8179  1  0  0  0  0
  9 10  1  0  0  0  0
  9180  1  0  0  0  0
 10 11  1  0  0  0  0
 10 13  1  0  0  0  0
 10181  1  1  0  0  0
 11 12  2  0  0  0  0
 11 20  1  0  0  0  0
 13 14  1  0  0  0  0
 13182  1  0  0  0  0
 13183  1  0  0  0  0
 14 15  2  0  0  0  0
 14 16  1  0  0  0  0
 15 17  1  0  0  0  0
 15184  1  0  0  0  0
 16 18  2  0  0  0  0
 16185  1  0  0  0  0
 17 19  2  0  0  0  0
 17186  1  0  0  0  0
 18 19  1  0  0  0  0
 18187  1  0  0  0  0
 19188  1  0  0  0  0
 20 21  1  0  0  0  0
 20189  1  0  0  0  0
 21 22  1  0  0  0  0
 21 24  1  0  0  0  0
 21190  1  6  0  0  0
 22 23  2  0  0  0  0
 22 31  1  0  0  0  0
 24 25  1  0  0  0  0
 24191  1  0  0  0  0
 24192  1  0  0  0  0
 25 26  1  0  0  0  0
 25193  1  0  0  0  0
 25194  1  0  0  0  0
 26 27  1  0  0  0  0
 26195  1  0  0  0  0
 26196  1  0  0  0  0
 27 28  1  0  0  0  0
 27197  1  0  0  0  0
 28 29  1  0  0  0  0
 28 30  1  0  0  0  0
 29198  1  0  0  0  0
 29199  1  0  0  0  0
 30200  1  0  0  0  0
 30201  1  0  0  0  0
 31 32  1  0  0  0  0
 31202  1  0  0  0  0
 32 33  1  0  0  0  0
 32 35  1  0  0  0  0
 32203  1  1  0  0  0
 33 34  2  0  0  0  0
 33 39  1  0  0  0  0
 35 36  1  0  0  0  0
 35204  1  0  0  0  0
 35205  1  0  0  0  0
 36 37  1  0  0  0  0
 36 38  1  0  0  0  0
 36206  1  0  0  0  0
 37207  1  0  0  0  0
 37208  1  0  0  0  0
 37209  1  0  0  0  0
 38210  1  0  0  0  0
 38211  1  0  0  0  0
 38212  1  0  0  0  0
 39 40  1  0  0  0  0
 39213  1  0  0  0  0
 40 41  1  0  0  0  0
 40 43  1  0  0  0  0
 40214  1  6  0  0  0
 41 42  2  0  0  0  0
 41 50  1  0  0  0  0
 43 44  1  0  0  0  0
 43215  1  0  0  0  0
 43216  1  0  0  0  0
 44 45  1  0  0  0  0
 44217  1  0  0  0  0
 44218  1  0  0  0  0
 45 46  1  0  0  0  0
 45219  1  0  0  0  0
 45220  1  0  0  0  0
 46 47  1  0  0  0  0
 46221  1  0  0  0  0
 47 48  1  0  0  0  0
 47 49  1  0  0  0  0
 48222  1  0  0  0  0
 48223  1  0  0  0  0
 49224  1  0  0  0  0
 49225  1  0  0  0  0
 50 51  1  0  0  0  0
 50226  1  0  0  0  0
 51 52  1  0  0  0  0
 51 54  1  0  0  0  0
 51227  1  6  0  0  0
 52 53  2  0  0  0  0
 52 60  1  0  0  0  0
 54 55  1  0  0  0  0
 54228  1  0  0  0  0
 54229  1  0  0  0  0
 55 56  1  0  0  0  0
 55 57  2  0  0  0  0
 56 58  2  0  0  0  0
 57 59  1  0  0  0  0
 57230  1  0  0  0  0
 58 59  1  0  0  0  0
 58231  1  0  0  0  0
 59232  1  0  0  0  0
 60 61  1  0  0  0  0
 60233  1  0  0  0  0
 61 62  1  0  0  0  0
 61 64  1  0  0  0  0
 61234  1  6  0  0  0
 62 63  2  0  0  0  0
 62 71  1  0  0  0  0
 64 65  1  0  0  0  0
 64235  1  0  0  0  0
 64236  1  0  0  0  0
 65 66  2  0  0  0  0
 65 67  1  0  0  0  0
 66 68  1  0  0  0  0
 66237  1  0  0  0  0
 67 69  2  0  0  0  0
 67238  1  0  0  0  0
 68 70  2  0  0  0  0
 68239  1  0  0  0  0
 69 70  1  0  0  0  0
 69240  1  0  0  0  0
 70241  1  0  0  0  0
 71 72  1  0  0  0  0
 71 77  1  0  0  0  0
 72 73  1  0  0  0  0
 72 75  1  0  0  0  0
 72242  1  1  0  0  0
 73 74  2  0  0  0  0
 73 78  1  0  0  0  0
 75 76  1  0  0  0  0
 75243  1  0  0  0  0
 75244  1  0  0  0  0
 76 77  1  0  0  0  0
 76245  1  0  0  0  0
 76246  1  0  0  0  0
 77247  1  0  0  0  0
 77248  1  0  0  0  0
 78 79  1  0  0  0  0
 78249  1  0  0  0  0
 79 80  1  0  0  0  0
 79 82  1  0  0  0  0
 79250  1  1  0  0  0
 80 81  2  0  0  0  0
 80 84  1  0  0  0  0
 82 83  1  0  0  0  0
 82251  1  0  0  0  0
 82252  1  0  0  0  0
 83253  1  0  0  0  0
 84 85  1  0  0  0  0
 84254  1  0  0  0  0
 85 86  1  0  0  0  0
 85255  1  0  0  0  0
 85256  1  0  0  0  0
 86 87  2  0  0  0  0
 86 88  1  0  0  0  0
 88 89  1  0  0  0  0
 88257  1  0  0  0  0
 89 90  1  0  0  0  0
 89 92  1  0  0  0  0
 89258  1  1  0  0  0
 90 91  2  0  0  0  0
 90 96  1  0  0  0  0
 92 93  1  0  0  0  0
 92259  1  0  0  0  0
 92260  1  0  0  0  0
 93 94  2  0  0  0  0
 93 95  1  0  0  0  0
 95261  1  0  0  0  0
 95262  1  0  0  0  0
 96 97  1  0  0  0  0
 96263  1  0  0  0  0
 97 98  1  0  0  0  0
 97100  1  0  0  0  0
 97264  1  6  0  0  0
 98 99  2  0  0  0  0
 98103  1  0  0  0  0
100101  1  0  0  0  0
100102  1  0  0  0  0
100265  1  0  0  0  0
101266  1  0  0  0  0
101267  1  0  0  0  0
101268  1  0  0  0  0
102269  1  0  0  0  0
102270  1  0  0  0  0
102271  1  0  0  0  0
103104  1  0  0  0  0
103272  1  0  0  0  0
104105  1  0  0  0  0
104107  1  0  0  0  0
104273  1  1  0  0  0
105106  2  0  0  0  0
105111  1  0  0  0  0
107108  1  0  0  0  0
107274  1  0  0  0  0
107275  1  0  0  0  0
108109  2  0  0  0  0
108110  1  0  0  0  0
110276  1  0  0  0  0
110277  1  0  0  0  0
111112  1  0  0  0  0
111278  1  0  0  0  0
112113  1  0  0  0  0
112115  1  0  0  0  0
112279  1  6  0  0  0
113114  2  0  0  0  0
113123  1  0  0  0  0
115116  1  0  0  0  0
115280  1  0  0  0  0
115281  1  0  0  0  0
116117  2  0  0  0  0
116118  1  0  0  0  0
117119  1  0  0  0  0
117282  1  0  0  0  0
118120  2  0  0  0  0
118283  1  0  0  0  0
119121  2  0  0  0  0
119284  1  0  0  0  0
120121  1  0  0  0  0
120285  1  0  0  0  0
121122  1  0  0  0  0
122286  1  0  0  0  0
123124  1  0  0  0  0
123287  1  0  0  0  0
124125  1  0  0  0  0
124288  1  0  0  0  0
124289  1  0  0  0  0
125126  2  0  0  0  0
125127  1  0  0  0  0
127128  1  0  0  0  0
127290  1  0  0  0  0
128129  1  0  0  0  0
128131  1  0  0  0  0
128291  1  6  0  0  0
129130  2  0  0  0  0
129139  1  0  0  0  0
131132  1  0  0  0  0
131292  1  0  0  0  0
131293  1  0  0  0  0
132133  2  0  0  0  0
132134  1  0  0  0  0
133135  1  0  0  0  0
133294  1  0  0  0  0
134136  2  0  0  0  0
134295  1  0  0  0  0
135137  2  0  0  0  0
135296  1  0  0  0  0
136137  1  0  0  0  0
136297  1  0  0  0  0
137138  1  0  0  0  0
138298  1  0  0  0  0
139140  1  0  0  0  0
139299  1  0  0  0  0
140141  1  0  0  0  0
140143  1  0  0  0  0
140300  1  1  0  0  0
141142  2  0  0  0  0
141148  1  0  0  0  0
143144  1  0  0  0  0
143301  1  0  0  0  0
143302  1  0  0  0  0
144145  1  0  0  0  0
144303  1  0  0  0  0
144304  1  0  0  0  0
145146  2  0  0  0  0
145147  1  0  0  0  0
147305  1  0  0  0  0
147306  1  0  0  0  0
148149  1  0  0  0  0
148307  1  0  0  0  0
149150  1  0  0  0  0
149152  1  0  0  0  0
149308  1  1  0  0  0
150151  2  0  0  0  0
150157  1  0  0  0  0
152153  1  0  0  0  0
152309  1  0  0  0  0
152310  1  0  0  0  0
153154  1  0  0  0  0
153311  1  0  0  0  0
153312  1  0  0  0  0
154155  2  0  0  0  0
154156  1  0  0  0  0
156313  1  0  0  0  0
156314  1  0  0  0  0
157158  1  0  0  0  0
157315  1  0  0  0  0
158159  1  0  0  0  0
158161  1  0  0  0  0
158316  1  1  0  0  0
159160  1  0  0  0  0
159166  2  0  0  0  0
161162  1  0  0  0  0
161317  1  0  0  0  0
161318  1  0  0  0  0
162163  1  0  0  0  0
162319  1  0  0  0  0
162320  1  0  0  0  0
163164  2  0  0  0  0
163165  1  0  0  0  0
165321  1  0  0  0  0
165322  1  0  0  0  0
M  CHG  2   1   1 160  -1
M  END
