2kzu_ligand
 OpenBabel08222323343D

278281  0  0  1  0  0  0  0  0999 V2000
   -0.6620  -19.1070    8.8410 N   0  3  0  0  0  0  0  0  0  0  0  0
    0.7630  -18.9860    8.4600 C   0  0  0  0  0  0  0  0  0  0  0  0
    0.9540  -18.0700    7.2710 C   0  0  0  0  0  0  0  0  0  0  0  0
   -0.0160  -17.5270    6.7370 O   0  0  0  0  0  0  0  0  0  0  0  0
    2.1990  -17.9040    6.8540 N   0  0  0  0  0  0  0  0  0  0  0  0
    2.5380  -16.9920    5.7740 C   0  0  2  0  0  0  0  0  0  0  0  0
    2.0710  -17.5100    4.4120 C   0  0  0  0  0  0  0  0  0  0  0  0
    2.7580  -18.2950    3.7600 O   0  0  0  0  0  0  0  0  0  0  0  0
    4.0500  -16.7530    5.7740 C   0  0  0  0  0  0  0  0  0  0  0  0
    4.7500  -17.9490    6.0850 O   0  0  0  0  0  0  0  0  0  0  0  0
    0.8810  -17.0840    4.0010 N   0  0  0  0  0  0  0  0  0  0  0  0
    0.3900  -17.3740    2.6590 C   0  0  2  0  0  0  0  0  0  0  0  0
    0.8480  -16.2870    1.6970 C   0  0  0  0  0  0  0  0  0  0  0  0
    0.5920  -16.3450    0.4930 O   0  0  0  0  0  0  0  0  0  0  0  0
   -1.1340  -17.5030    2.6440 C   0  0  0  0  0  0  0  0  0  0  0  0
   -1.6460  -18.6910    3.4320 C   0  0  0  0  0  0  0  0  0  0  0  0
   -1.0860  -20.0150    2.9410 C   0  0  0  0  0  0  0  0  0  0  0  0
   -1.6690  -20.6700    2.0770 O   0  0  0  0  0  0  0  0  0  0  0  0
    0.0520  -20.4170    3.4880 N   0  0  0  0  0  0  0  0  0  0  0  0
    1.5010  -15.2780    2.2560 N   0  0  0  0  0  0  0  0  0  0  0  0
    2.1690  -14.2560    1.4840 C   0  0  2  0  0  0  0  0  0  0  0  0
    3.4480  -13.8590    2.2060 C   0  0  0  0  0  0  0  0  0  0  0  0
    3.5690  -14.0560    3.4180 O   0  0  0  0  0  0  0  0  0  0  0  0
    1.2740  -13.0290    1.2890 C   0  0  0  0  0  0  0  0  0  0  0  0
    0.8780  -12.3180    2.5780 C   0  0  0  0  0  0  0  0  0  0  0  0
   -0.4870  -12.7280    3.0830 C   0  0  0  0  0  0  0  0  0  0  0  0
   -1.4510  -12.6940    2.2910 O   0  5  0  0  0  0  0  0  0  0  0  0
   -0.6060  -13.0770    4.2780 O   0  0  0  0  0  0  0  0  0  0  0  0
    4.4030  -13.3150    1.4650 N   0  0  0  0  0  0  0  0  0  0  0  0
    5.6570  -12.8680    2.0590 C   0  0  2  0  0  0  0  0  0  0  0  0
    5.4440  -11.5640    2.8110 C   0  0  0  0  0  0  0  0  0  0  0  0
    6.2650  -11.1730    3.6410 O   0  0  0  0  0  0  0  0  0  0  0  0
    6.7400  -12.6970    0.9950 C   0  0  0  0  0  0  0  0  0  0  0  0
    7.1320  -14.0100    0.3450 C   0  0  0  0  0  0  0  0  0  0  0  0
    7.7370  -14.8600    1.0280 O   0  5  0  0  0  0  0  0  0  0  0  0
    6.8230  -14.2000   -0.8520 O   0  0  0  0  0  0  0  0  0  0  0  0
    4.3370  -10.8950    2.4930 N   0  0  0  0  0  0  0  0  0  0  0  0
    3.8860   -9.7150    3.2180 C   0  0  2  0  0  0  0  0  0  0  0  0
    4.9190   -8.5900    3.1860 C   0  0  0  0  0  0  0  0  0  0  0  0
    5.1320   -7.9590    2.1550 O   0  0  0  0  0  0  0  0  0  0  0  0
    3.5230  -10.1060    4.6550 C   0  0  0  0  0  0  0  0  0  0  0  0
    2.9940   -9.0130    5.3840 O   0  0  0  0  0  0  0  0  0  0  0  0
    5.5500   -8.3480    4.3170 N   0  0  0  0  0  0  0  0  0  0  0  0
    6.5610   -7.3100    4.4330 C   0  0  2  0  0  0  0  0  0  0  0  0
    7.8760   -7.7840    3.8330 C   0  0  0  0  0  0  0  0  0  0  0  0
    8.5480   -7.0460    3.1120 O   0  0  0  0  0  0  0  0  0  0  0  0
    6.7350   -6.8950    5.9080 C   0  0  0  0  0  0  0  0  0  0  0  0
    7.0630   -8.0560    6.8350 C   0  0  0  0  0  0  0  0  0  0  0  0
    6.3350   -9.0740    6.8080 O   0  5  0  0  0  0  0  0  0  0  0  0
    8.0410   -7.9520    7.6050 O   0  0  0  0  0  0  0  0  0  0  0  0
    8.2070   -9.0380    4.0750 N   0  0  0  0  0  0  0  0  0  0  0  0
    9.4370   -9.6170    3.5600 C   0  0  2  0  0  0  0  0  0  0  0  0
    9.4280   -9.6570    2.0380 C   0  0  0  0  0  0  0  0  0  0  0  0
   10.4750   -9.7270    1.4000 O   0  0  0  0  0  0  0  0  0  0  0  0
    9.6070  -11.0110    4.1140 C   0  0  0  0  0  0  0  0  0  0  0  0
    9.5230  -11.0010    5.5300 O   0  0  0  0  0  0  0  0  0  0  0  0
    8.2280   -9.5850    1.4790 N   0  0  0  0  0  0  0  0  0  0  0  0
    8.0140   -9.5880    0.0380 C   0  0  2  0  0  0  0  0  0  0  0  0
    8.8070   -8.4630   -0.6290 C   0  0  0  0  0  0  0  0  0  0  0  0
    9.2800   -8.5920   -1.7580 O   0  0  0  0  0  0  0  0  0  0  0  0
    6.5190   -9.4320   -0.2250 C   0  0  0  0  0  0  0  0  0  0  0  0
    6.1150   -9.6350   -1.6610 C   0  0  0  0  0  0  0  0  0  0  0  0
    4.6290   -9.9140   -1.8210 C   0  0  0  0  0  0  0  0  0  0  0  0
    3.8100   -8.9850   -1.6440 O   0  5  0  0  0  0  0  0  0  0  0  0
    4.2760  -11.0680   -2.1370 O   0  0  0  0  0  0  0  0  0  0  0  0
    8.9510   -7.3720    0.1010 N   0  0  0  0  0  0  0  0  0  0  0  0
    9.7350   -6.2310   -0.3210 C   0  0  2  0  0  0  0  0  0  0  0  0
   11.1990   -6.4730   -0.0250 C   0  0  0  0  0  0  0  0  0  0  0  0
   12.0760   -6.2970   -0.8710 O   0  0  0  0  0  0  0  0  0  0  0  0
    9.3170   -5.0060    0.4590 C   0  0  0  0  0  0  0  0  0  0  0  0
    7.9190   -4.4490    0.2080 C   0  0  0  0  0  0  0  0  0  0  0  0
    7.7950   -3.8810   -1.1840 C   0  0  0  0  0  0  0  0  0  0  0  0
    6.8580   -5.4920    0.4590 C   0  0  0  0  0  0  0  0  0  0  0  0
   11.4240   -6.8670    1.2190 N   0  0  0  0  0  0  0  0  0  0  0  0
   12.7620   -7.0890    1.7780 C   0  0  2  0  0  0  0  0  0  0  0  0
   13.6200   -7.9830    0.8920 C   0  0  0  0  0  0  0  0  0  0  0  0
   14.8500   -7.9340    0.9540 O   0  0  0  0  0  0  0  0  0  0  0  0
   12.6680   -7.7290    3.1610 C   0  0  0  0  0  0  0  0  0  0  0  0
   11.6160   -7.1300    4.0800 C   0  0  0  0  0  0  0  0  0  0  0  0
   11.7700   -7.6340    5.5050 C   0  0  0  0  0  0  0  0  0  0  0  0
   11.1970   -8.6970    5.8310 O   0  5  0  0  0  0  0  0  0  0  0  0
   12.4980   -6.9940    6.2930 O   0  0  0  0  0  0  0  0  0  0  0  0
   12.9510   -8.7940    0.0880 N   0  0  0  0  0  0  0  0  0  0  0  0
   13.6020   -9.7340   -0.8220 C   0  0  2  0  0  0  0  0  0  0  0  0
   14.6950   -9.0590   -1.6270 C   0  0  0  0  0  0  0  0  0  0  0  0
   15.8010   -9.5810   -1.7610 O   0  0  0  0  0  0  0  0  0  0  0  0
   12.5800  -10.3240   -1.7860 C   0  0  0  0  0  0  0  0  0  0  0  0
   11.4270  -11.0070   -1.0980 C   0  0  0  0  0  0  0  0  0  0  0  0
   11.8540  -12.2010   -0.2730 C   0  0  0  0  0  0  0  0  0  0  0  0
   11.9320  -13.3260   -0.7710 O   0  0  0  0  0  0  0  0  0  0  0  0
   12.1270  -11.9670    0.9960 N   0  0  0  0  0  0  0  0  0  0  0  0
   14.3770   -7.8970   -2.1610 N   0  0  0  0  0  0  0  0  0  0  0  0
   15.3050   -7.1920   -3.0240 C   0  0  2  0  0  0  0  0  0  0  0  0
   15.6630   -5.8040   -2.4980 C   0  0  0  0  0  0  0  0  0  0  0  0
   16.7600   -5.3050   -2.7630 O   0  0  0  0  0  0  0  0  0  0  0  0
   14.7380   -7.0960   -4.4430 C   0  0  0  0  0  0  0  0  0  0  0  0
   13.2260   -7.1490   -4.5240 C   0  0  0  0  0  0  0  0  0  0  0  0
   12.4310   -6.3120   -3.7540 C   0  0  0  0  0  0  0  0  0  0  0  0
   12.5930   -8.0300   -5.3910 C   0  0  0  0  0  0  0  0  0  0  0  0
   11.0650   -6.3470   -3.8370 C   0  0  0  0  0  0  0  0  0  0  0  0
   11.2160   -8.0750   -5.4810 C   0  0  0  0  0  0  0  0  0  0  0  0
   10.4540   -7.2310   -4.7030 C   0  0  0  0  0  0  0  0  0  0  0  0
    9.0840   -7.2660   -4.8000 O   0  0  0  0  0  0  0  0  0  0  0  0
   14.7670   -5.1760   -1.7450 N   0  0  0  0  0  0  0  0  0  0  0  0
   15.0070   -3.8140   -1.2990 C   0  0  2  0  0  0  0  0  0  0  0  0
   14.4390   -3.5570    0.0890 C   0  0  0  0  0  0  0  0  0  0  0  0
   13.4240   -4.1290    0.4630 O   0  0  0  0  0  0  0  0  0  0  0  0
   14.4490   -2.7990   -2.3140 C   0  0  0  0  0  0  0  0  0  0  0  0
   12.9920   -2.9380   -2.6630 C   0  0  0  0  0  0  0  0  0  0  0  0
   12.0100   -2.8640   -1.6950 C   0  0  0  0  0  0  0  0  0  0  0  0
   12.6110   -3.1210   -3.9810 C   0  0  0  0  0  0  0  0  0  0  0  0
   10.6840   -2.9720   -2.0260 C   0  0  0  0  0  0  0  0  0  0  0  0
   11.2800   -3.2340   -4.3220 C   0  0  0  0  0  0  0  0  0  0  0  0
   10.3130   -3.1610   -3.3410 C   0  0  0  0  0  0  0  0  0  0  0  0
   15.1350   -2.7130    0.8450 N   0  0  0  0  0  0  0  0  0  0  0  0
   14.6950   -2.2530    2.1610 C   0  0  2  0  0  0  0  0  0  0  0  0
   15.6300   -1.1520    2.6600 C   0  0  0  0  0  0  0  0  0  0  0  0
   16.6450   -0.8670    2.0250 O   0  0  0  0  0  0  0  0  0  0  0  0
   14.6220   -3.3940    3.2050 C   0  0  2  0  0  0  0  0  0  0  0  0
   15.5110   -4.4590    2.8410 O   0  0  0  0  0  0  0  0  0  0  0  0
   13.2040   -3.9160    3.3170 C   0  0  0  0  0  0  0  0  0  0  0  0
   15.2860   -0.5350    3.7820 N   0  0  0  0  0  0  0  0  0  0  0  0
   16.0810    0.5620    4.3280 C   0  0  2  0  0  0  0  0  0  0  0  0
   16.9440    0.0710    5.4800 C   0  0  0  0  0  0  0  0  0  0  0  0
   17.2200   -1.1230    5.5880 O   0  0  0  0  0  0  0  0  0  0  0  0
   15.1770    1.6970    4.7970 C   0  0  0  0  0  0  0  0  0  0  0  0
   17.3580    0.9970    6.3410 N   0  0  0  0  0  0  0  0  0  0  0  0
   18.1750    0.6590    7.4990 C   0  0  2  0  0  0  0  0  0  0  0  0
   17.4570   -0.3530    8.3940 C   0  0  0  0  0  0  0  0  0  0  0  0
   18.0640   -1.3170    8.8600 O   0  0  0  0  0  0  0  0  0  0  0  0
   18.5330    1.9200    8.3070 C   0  0  0  0  0  0  0  0  0  0  0  0
   17.3910    2.4450    9.1610 C   0  0  0  0  0  0  0  0  0  0  0  0
   16.7430    3.6710    8.5720 C   0  0  0  0  0  0  0  0  0  0  0  0
   17.4960    4.8810    8.8820 N   0  0  0  0  0  0  0  0  0  0  0  0
   17.3700    5.5560   10.0270 C   0  0  0  0  0  3  0  0  0  0  0  0
   16.5510    5.1140   10.9820 N   0  0  0  0  0  0  0  0  0  0  0  0
   18.0720    6.6630   10.2210 N   0  0  0  0  0  0  0  0  0  0  0  0
   16.1560   -0.1220    8.5940 N   0  0  0  0  0  0  0  0  0  0  0  0
   15.3030   -0.9550    9.4380 C   0  0  2  0  0  0  0  0  0  0  0  0
   15.9730   -1.3150   10.7620 C   0  0  0  0  0  0  0  0  0  0  0  0
   16.4380   -2.4660   10.9120 O   0  5  0  0  0  0  0  0  0  0  0  0
   14.8770   -2.2040    8.6740 C   0  0  0  0  0  0  0  0  0  0  0  0
   13.9280   -1.8840    7.5770 C   0  0  0  0  0  0  0  0  0  0  0  0
   14.0140   -0.8480    6.7100 C   0  0  0  0  0  0  0  0  0  0  0  0
   12.7470   -2.5950    7.2410 C   0  0  0  0  0  0  0  0  0  0  0  0
   12.9470   -0.8610    5.8480 N   0  0  0  0  0  0  0  0  0  0  0  0
   12.1570   -1.9350    6.1520 C   0  0  0  0  0  0  0  0  0  0  0  0
   12.1310   -3.7260    7.7540 C   0  0  0  0  0  0  0  0  0  0  0  0
   10.9800   -2.3780    5.5700 C   0  0  0  0  0  0  0  0  0  0  0  0
   10.9650   -4.1570    7.1740 C   0  0  0  0  0  0  0  0  0  0  0  0
   10.4020   -3.4870    6.0930 C   0  0  0  0  0  0  0  0  0  0  0  0
   16.0370   -0.4340   11.6440 O   0  0  0  0  0  0  0  0  0  0  0  0
   -0.7466  -19.7234    9.6341 H   0  0  0  0  0  0  0  0  0  0  0  0
   -1.1863  -19.4825    8.0663 H   0  0  0  0  0  0  0  0  0  0  0  0
   -1.0237  -18.1976    9.0822 H   0  0  0  0  0  0  0  0  0  0  0  0
    1.1489  -19.9841    8.2054 H   0  0  0  0  0  0  0  0  0  0  0  0
    1.3263  -18.5820    9.3141 H   0  0  0  0  0  0  0  0  0  0  0  0
    2.9305  -18.4229    7.2963 H   0  0  0  0  0  0  0  0  0  0  0  0
    2.0330  -16.0331    5.9624 H   0  0  0  0  0  0  0  0  0  0  0  0
    4.2940  -15.9869    6.5247 H   0  0  0  0  0  0  0  0  0  0  0  0
    4.3597  -16.4025    4.7784 H   0  0  0  0  0  0  0  0  0  0  0  0
    4.5444  -18.6126    5.4370 H   0  0  0  0  0  0  0  0  0  0  0  0
    0.3095  -16.5526    4.6263 H   0  0  0  0  0  0  0  0  0  0  0  0
    0.8192  -18.3326    2.3320 H   0  0  0  0  0  0  0  0  0  0  0  0
   -1.4645  -17.6087    1.6002 H   0  0  0  0  0  0  0  0  0  0  0  0
   -1.5655  -16.5873    3.0744 H   0  0  0  0  0  0  0  0  0  0  0  0
   -2.7423  -18.7214    3.3477 H   0  0  0  0  0  0  0  0  0  0  0  0
   -1.3628  -18.5603    4.4868 H   0  0  0  0  0  0  0  0  0  0  0  0
    0.4662  -21.2813    3.2024 H   0  0  0  0  0  0  0  0  0  0  0  0
    0.4967  -19.8561    4.1864 H   0  0  0  0  0  0  0  0  0  0  0  0
    1.5325  -15.2219    3.2539 H   0  0  0  0  0  0  0  0  0  0  0  0
    2.4242  -14.6655    0.4955 H   0  0  0  0  0  0  0  0  0  0  0  0
    0.3543  -13.3532    0.7801 H   0  0  0  0  0  0  0  0  0  0  0  0
    1.8114  -12.3105    0.6527 H   0  0  0  0  0  0  0  0  0  0  0  0
    0.8721  -11.2337    2.3928 H   0  0  0  0  0  0  0  0  0  0  0  0
    1.6234  -12.5538    3.3518 H   0  0  0  0  0  0  0  0  0  0  0  0
    4.2607  -13.2093    0.4808 H   0  0  0  0  0  0  0  0  0  0  0  0
    5.9934  -13.6328    2.7745 H   0  0  0  0  0  0  0  0  0  0  0  0
    7.6312  -12.2578    1.4669 H   0  0  0  0  0  0  0  0  0  0  0  0
    6.3645  -12.0168    0.2163 H   0  0  0  0  0  0  0  0  0  0  0  0
    3.7901  -11.2179    1.7206 H   0  0  0  0  0  0  0  0  0  0  0  0
    2.9754   -9.3426    2.7259 H   0  0  0  0  0  0  0  0  0  0  0  0
    4.4284  -10.4678    5.1643 H   0  0  0  0  0  0  0  0  0  0  0  0
    2.7727  -10.9099    4.6257 H   0  0  0  0  0  0  0  0  0  0  0  0
    2.2078   -8.6977    4.9539 H   0  0  0  0  0  0  0  0  0  0  0  0
    5.3260   -8.8967    5.1225 H   0  0  0  0  0  0  0  0  0  0  0  0
    6.2221   -6.4303    3.8663 H   0  0  0  0  0  0  0  0  0  0  0  0
    5.7987   -6.4306    6.2510 H   0  0  0  0  0  0  0  0  0  0  0  0
    7.5520   -6.1609    5.9683 H   0  0  0  0  0  0  0  0  0  0  0  0
    7.5958   -9.6051    4.6271 H   0  0  0  0  0  0  0  0  0  0  0  0
   10.2838   -8.9969    3.8894 H   0  0  0  0  0  0  0  0  0  0  0  0
   10.5903  -11.4017    3.8133 H   0  0  0  0  0  0  0  0  0  0  0  0
    8.8156  -11.6593    3.7099 H   0  0  0  0  0  0  0  0  0  0  0  0
   10.2071  -10.4441    5.8828 H   0  0  0  0  0  0  0  0  0  0  0  0
    7.4288   -9.5256    2.0772 H   0  0  0  0  0  0  0  0  0  0  0  0
    8.3534  -10.5494   -0.3750 H   0  0  0  0  0  0  0  0  0  0  0  0
    6.2210   -8.4168    0.0758 H   0  0  0  0  0  0  0  0  0  0  0  0
    5.9827  -10.1692    0.3906 H   0  0  0  0  0  0  0  0  0  0  0  0
    6.6785  -10.4878   -2.0675 H   0  0  0  0  0  0  0  0  0  0  0  0
    6.3651   -8.7264   -2.2283 H   0  0  0  0  0  0  0  0  0  0  0  0
    8.4953   -7.3322    0.9903 H   0  0  0  0  0  0  0  0  0  0  0  0
    9.5899   -6.0617   -1.3982 H   0  0  0  0  0  0  0  0  0  0  0  0
   10.0359   -4.2068    0.2258 H   0  0  0  0  0  0  0  0  0  0  0  0
    9.3832   -5.2584    1.5276 H   0  0  0  0  0  0  0  0  0  0  0  0
    7.7554   -3.6271    0.9206 H   0  0  0  0  0  0  0  0  0  0  0  0
    6.7777   -3.4892   -1.3308 H   0  0  0  0  0  0  0  0  0  0  0  0
    7.9932   -4.6723   -1.9219 H   0  0  0  0  0  0  0  0  0  0  0  0
    8.5236   -3.0673   -1.3143 H   0  0  0  0  0  0  0  0  0  0  0  0
    6.9692   -5.8902    1.4783 H   0  0  0  0  0  0  0  0  0  0  0  0
    6.9685   -6.3099   -0.2682 H   0  0  0  0  0  0  0  0  0  0  0  0
    5.8628   -5.0363    0.3500 H   0  0  0  0  0  0  0  0  0  0  0  0
   10.6346   -7.0225    1.8129 H   0  0  0  0  0  0  0  0  0  0  0  0
   13.2583   -6.1119    1.8720 H   0  0  0  0  0  0  0  0  0  0  0  0
   13.6472   -7.6255    3.6514 H   0  0  0  0  0  0  0  0  0  0  0  0
   12.4357   -8.7959    3.0274 H   0  0  0  0  0  0  0  0  0  0  0  0
   10.6180   -7.4063    3.7090 H   0  0  0  0  0  0  0  0  0  0  0  0
   11.7188   -6.0348    4.0751 H   0  0  0  0  0  0  0  0  0  0  0  0
   11.9516   -8.7620    0.1040 H   0  0  0  0  0  0  0  0  0  0  0  0
   14.0474  -10.5455   -0.2279 H   0  0  0  0  0  0  0  0  0  0  0  0
   13.0892  -11.0603   -2.4251 H   0  0  0  0  0  0  0  0  0  0  0  0
   12.1805   -9.5109   -2.4099 H   0  0  0  0  0  0  0  0  0  0  0  0
   10.7137  -11.3469   -1.8633 H   0  0  0  0  0  0  0  0  0  0  0  0
   10.9347  -10.2807   -0.4346 H   0  0  0  0  0  0  0  0  0  0  0  0
   12.4146  -12.7167    1.5921 H   0  0  0  0  0  0  0  0  0  0  0  0
   12.0464  -11.0399    1.3621 H   0  0  0  0  0  0  0  0  0  0  0  0
   13.4818   -7.4951   -1.9681 H   0  0  0  0  0  0  0  0  0  0  0  0
   16.2332   -7.7807   -3.0663 H   0  0  0  0  0  0  0  0  0  0  0  0
   15.1424   -7.9329   -5.0312 H   0  0  0  0  0  0  0  0  0  0  0  0
   15.0717   -6.1442   -4.8820 H   0  0  0  0  0  0  0  0  0  0  0  0
   12.9024   -5.6145   -3.0711 H   0  0  0  0  0  0  0  0  0  0  0  0
   13.1896   -8.6930   -6.0070 H   0  0  0  0  0  0  0  0  0  0  0  0
   10.4655   -5.6829   -3.2249 H   0  0  0  0  0  0  0  0  0  0  0  0
   10.7369   -8.7708   -6.1603 H   0  0  0  0  0  0  0  0  0  0  0  0
    8.7090   -6.6288   -4.2034 H   0  0  0  0  0  0  0  0  0  0  0  0
   13.9224   -5.6432   -1.4835 H   0  0  0  0  0  0  0  0  0  0  0  0
   16.0962   -3.6703   -1.2436 H   0  0  0  0  0  0  0  0  0  0  0  0
   15.0277   -2.9020   -3.2438 H   0  0  0  0  0  0  0  0  0  0  0  0
   14.5994   -1.7918   -1.8982 H   0  0  0  0  0  0  0  0  0  0  0  0
   12.2917   -2.7184   -0.6584 H   0  0  0  0  0  0  0  0  0  0  0  0
   13.3684   -3.1761   -4.7545 H   0  0  0  0  0  0  0  0  0  0  0  0
    9.9263   -2.9088   -1.2534 H   0  0  0  0  0  0  0  0  0  0  0  0
   10.9943   -3.3797   -5.3575 H   0  0  0  0  0  0  0  0  0  0  0  0
    9.2650   -3.2519   -3.6027 H   0  0  0  0  0  0  0  0  0  0  0  0
   16.0078   -2.3742    0.4938 H   0  0  0  0  0  0  0  0  0  0  0  0
   13.6852   -1.8307    2.0515 H   0  0  0  0  0  0  0  0  0  0  0  0
   14.9297   -2.9961    4.1833 H   0  0  0  0  0  0  0  0  0  0  0  0
   15.2628   -4.8002    1.9899 H   0  0  0  0  0  0  0  0  0  0  0  0
   13.1688   -4.7249    4.0616 H   0  0  0  0  0  0  0  0  0  0  0  0
   12.8772   -4.3023    2.3403 H   0  0  0  0  0  0  0  0  0  0  0  0
   12.5365   -3.0999    3.6306 H   0  0  0  0  0  0  0  0  0  0  0  0
   14.4617   -0.8280    4.2665 H   0  0  0  0  0  0  0  0  0  0  0  0
   16.7399    0.9442    3.5344 H   0  0  0  0  0  0  0  0  0  0  0  0
   15.7932    2.5122    5.2041 H   0  0  0  0  0  0  0  0  0  0  0  0
   14.4976    1.3257    5.5783 H   0  0  0  0  0  0  0  0  0  0  0  0
   14.5882    2.0720    3.9469 H   0  0  0  0  0  0  0  0  0  0  0  0
   17.1013    1.9515    6.1891 H   0  0  0  0  0  0  0  0  0  0  0  0
   19.1087    0.2021    7.1391 H   0  0  0  0  0  0  0  0  0  0  0  0
   18.8312    2.7104    7.6025 H   0  0  0  0  0  0  0  0  0  0  0  0
   19.3787    1.6799    8.9682 H   0  0  0  0  0  0  0  0  0  0  0  0
   17.7834    2.6980   10.1570 H   0  0  0  0  0  0  0  0  0  0  0  0
   16.6306    1.6559    9.2561 H   0  0  0  0  0  0  0  0  0  0  0  0
   15.7268    3.7688    8.9817 H   0  0  0  0  0  0  0  0  0  0  0  0
   16.6884    3.5553    7.4795 H   0  0  0  0  0  0  0  0  0  0  0  0
   18.1612    5.2340    8.1793 H   0  0  0  0  0  0  0  0  0  0  0  0
   16.4574    5.6384   11.8635 H   0  0  0  0  0  0  0  0  0  0  0  0
   16.0120    4.2481   10.8381 H   0  0  0  0  0  0  0  0  0  0  0  0
   18.7054    7.0068    9.4851 H   0  0  0  0  0  0  0  0  0  0  0  0
   17.9843    7.1797   11.1077 H   0  0  0  0  0  0  0  0  0  0  0  0
   15.7424    0.6669    8.1395 H   0  0  0  0  0  0  0  0  0  0  0  0
   14.3973   -0.3768    9.6731 H   0  0  0  0  0  0  0  0  0  0  0  0
   14.3909   -2.9004    9.3731 H   0  0  0  0  0  0  0  0  0  0  0  0
   15.7705   -2.6802    8.2440 H   0  0  0  0  0  0  0  0  0  0  0  0
   14.8150   -0.1103    6.6985 H   0  0  0  0  0  0  0  0  0  0  0  0
   12.7706   -0.1772    5.0982 H   0  0  0  0  0  0  0  0  0  0  0  0
   12.5612   -4.2580    8.5948 H   0  0  0  0  0  0  0  0  0  0  0  0
   10.5381   -1.8573    4.7282 H   0  0  0  0  0  0  0  0  0  0  0  0
   10.4717   -5.0388    7.5667 H   0  0  0  0  0  0  0  0  0  0  0  0
    9.4811   -3.8597    5.6593 H   0  0  0  0  0  0  0  0  0  0  0  0
  1  2  1  0  0  0  0
  1153  1  0  0  0  0
  1154  1  0  0  0  0
  1155  1  0  0  0  0
  2  3  1  0  0  0  0
  2156  1  0  0  0  0
  2157  1  0  0  0  0
  3  4  2  0  0  0  0
  3  5  1  0  0  0  0
  5  6  1  0  0  0  0
  5158  1  0  0  0  0
  6  7  1  0  0  0  0
  6  9  1  0  0  0  0
  6159  1  1  0  0  0
  7  8  2  0  0  0  0
  7 11  1  0  0  0  0
  9 10  1  0  0  0  0
  9160  1  0  0  0  0
  9161  1  0  0  0  0
 10162  1  0  0  0  0
 11 12  1  0  0  0  0
 11163  1  0  0  0  0
 12 13  1  0  0  0  0
 12 15  1  0  0  0  0
 12164  1  6  0  0  0
 13 14  2  0  0  0  0
 13 20  1  0  0  0  0
 15 16  1  0  0  0  0
 15165  1  0  0  0  0
 15166  1  0  0  0  0
 16 17  1  0  0  0  0
 16167  1  0  0  0  0
 16168  1  0  0  0  0
 17 18  2  0  0  0  0
 17 19  1  0  0  0  0
 19169  1  0  0  0  0
 19170  1  0  0  0  0
 20 21  1  0  0  0  0
 20171  1  0  0  0  0
 21 22  1  0  0  0  0
 21 24  1  0  0  0  0
 21172  1  6  0  0  0
 22 23  2  0  0  0  0
 22 29  1  0  0  0  0
 24 25  1  0  0  0  0
 24173  1  0  0  0  0
 24174  1  0  0  0  0
 25 26  1  0  0  0  0
 25175  1  0  0  0  0
 25176  1  0  0  0  0
 26 27  1  0  0  0  0
 26 28  2  0  0  0  0
 29 30  1  0  0  0  0
 29177  1  0  0  0  0
 30 31  1  0  0  0  0
 30 33  1  0  0  0  0
 30178  1  1  0  0  0
 31 32  2  0  0  0  0
 31 37  1  0  0  0  0
 33 34  1  0  0  0  0
 33179  1  0  0  0  0
 33180  1  0  0  0  0
 34 35  1  0  0  0  0
 34 36  2  0  0  0  0
 37 38  1  0  0  0  0
 37181  1  0  0  0  0
 38 39  1  0  0  0  0
 38 41  1  0  0  0  0
 38182  1  6  0  0  0
 39 40  2  0  0  0  0
 39 43  1  0  0  0  0
 41 42  1  0  0  0  0
 41183  1  0  0  0  0
 41184  1  0  0  0  0
 42185  1  0  0  0  0
 43 44  1  0  0  0  0
 43186  1  0  0  0  0
 44 45  1  0  0  0  0
 44 47  1  0  0  0  0
 44187  1  6  0  0  0
 45 46  2  0  0  0  0
 45 51  1  0  0  0  0
 47 48  1  0  0  0  0
 47188  1  0  0  0  0
 47189  1  0  0  0  0
 48 49  1  0  0  0  0
 48 50  2  0  0  0  0
 51 52  1  0  0  0  0
 51190  1  0  0  0  0
 52 53  1  0  0  0  0
 52 55  1  0  0  0  0
 52191  1  1  0  0  0
 53 54  2  0  0  0  0
 53 57  1  0  0  0  0
 55 56  1  0  0  0  0
 55192  1  0  0  0  0
 55193  1  0  0  0  0
 56194  1  0  0  0  0
 57 58  1  0  0  0  0
 57195  1  0  0  0  0
 58 59  1  0  0  0  0
 58 61  1  0  0  0  0
 58196  1  6  0  0  0
 59 60  2  0  0  0  0
 59 66  1  0  0  0  0
 61 62  1  0  0  0  0
 61197  1  0  0  0  0
 61198  1  0  0  0  0
 62 63  1  0  0  0  0
 62199  1  0  0  0  0
 62200  1  0  0  0  0
 63 64  1  0  0  0  0
 63 65  2  0  0  0  0
 66 67  1  0  0  0  0
 66201  1  0  0  0  0
 67 68  1  0  0  0  0
 67 70  1  0  0  0  0
 67202  1  6  0  0  0
 68 69  2  0  0  0  0
 68 74  1  0  0  0  0
 70 71  1  0  0  0  0
 70203  1  0  0  0  0
 70204  1  0  0  0  0
 71 72  1  0  0  0  0
 71 73  1  0  0  0  0
 71205  1  0  0  0  0
 72206  1  0  0  0  0
 72207  1  0  0  0  0
 72208  1  0  0  0  0
 73209  1  0  0  0  0
 73210  1  0  0  0  0
 73211  1  0  0  0  0
 74 75  1  0  0  0  0
 74212  1  0  0  0  0
 75 76  1  0  0  0  0
 75 78  1  0  0  0  0
 75213  1  1  0  0  0
 76 77  2  0  0  0  0
 76 83  1  0  0  0  0
 78 79  1  0  0  0  0
 78214  1  0  0  0  0
 78215  1  0  0  0  0
 79 80  1  0  0  0  0
 79216  1  0  0  0  0
 79217  1  0  0  0  0
 80 81  1  0  0  0  0
 80 82  2  0  0  0  0
 83 84  1  0  0  0  0
 83218  1  0  0  0  0
 84 85  1  0  0  0  0
 84 87  1  0  0  0  0
 84219  1  1  0  0  0
 85 86  2  0  0  0  0
 85 92  1  0  0  0  0
 87 88  1  0  0  0  0
 87220  1  0  0  0  0
 87221  1  0  0  0  0
 88 89  1  0  0  0  0
 88222  1  0  0  0  0
 88223  1  0  0  0  0
 89 90  2  0  0  0  0
 89 91  1  0  0  0  0
 91224  1  0  0  0  0
 91225  1  0  0  0  0
 92 93  1  0  0  0  0
 92226  1  0  0  0  0
 93 94  1  0  0  0  0
 93 96  1  0  0  0  0
 93227  1  6  0  0  0
 94 95  2  0  0  0  0
 94104  1  0  0  0  0
 96 97  1  0  0  0  0
 96228  1  0  0  0  0
 96229  1  0  0  0  0
 97 98  2  0  0  0  0
 97 99  1  0  0  0  0
 98100  1  0  0  0  0
 98230  1  0  0  0  0
 99101  2  0  0  0  0
 99231  1  0  0  0  0
100102  2  0  0  0  0
100232  1  0  0  0  0
101102  1  0  0  0  0
101233  1  0  0  0  0
102103  1  0  0  0  0
103234  1  0  0  0  0
104105  1  0  0  0  0
104235  1  0  0  0  0
105106  1  0  0  0  0
105108  1  0  0  0  0
105236  1  1  0  0  0
106107  2  0  0  0  0
106115  1  0  0  0  0
108109  1  0  0  0  0
108237  1  0  0  0  0
108238  1  0  0  0  0
109110  2  0  0  0  0
109111  1  0  0  0  0
110112  1  0  0  0  0
110239  1  0  0  0  0
111113  2  0  0  0  0
111240  1  0  0  0  0
112114  2  0  0  0  0
112241  1  0  0  0  0
113114  1  0  0  0  0
113242  1  0  0  0  0
114243  1  0  0  0  0
115116  1  0  0  0  0
115244  1  0  0  0  0
116117  1  0  0  0  0
116119  1  0  0  0  0
116245  1  6  0  0  0
117118  2  0  0  0  0
117122  1  0  0  0  0
119120  1  0  0  0  0
119121  1  0  0  0  0
119246  1  1  0  0  0
120247  1  0  0  0  0
121248  1  0  0  0  0
121249  1  0  0  0  0
121250  1  0  0  0  0
122123  1  0  0  0  0
122251  1  0  0  0  0
123124  1  0  0  0  0
123126  1  0  0  0  0
123252  1  6  0  0  0
124125  2  0  0  0  0
124127  1  0  0  0  0
126253  1  0  0  0  0
126254  1  0  0  0  0
126255  1  0  0  0  0
127128  1  0  0  0  0
127256  1  0  0  0  0
128129  1  0  0  0  0
128131  1  0  0  0  0
128257  1  6  0  0  0
129130  2  0  0  0  0
129138  1  0  0  0  0
131132  1  0  0  0  0
131258  1  0  0  0  0
131259  1  0  0  0  0
132133  1  0  0  0  0
132260  1  0  0  0  0
132261  1  0  0  0  0
133134  1  0  0  0  0
133262  1  0  0  0  0
133263  1  0  0  0  0
134135  1  0  0  0  0
134264  1  0  0  0  0
135136  1  0  0  0  0
135137  1  0  0  0  0
136265  1  0  0  0  0
136266  1  0  0  0  0
137267  1  0  0  0  0
137268  1  0  0  0  0
138139  1  0  0  0  0
138269  1  0  0  0  0
139140  1  0  0  0  0
139142  1  0  0  0  0
139270  1  1  0  0  0
140141  1  0  0  0  0
140152  2  0  0  0  0
142143  1  0  0  0  0
142271  1  0  0  0  0
142272  1  0  0  0  0
143144  2  0  0  0  0
143145  1  0  0  0  0
144146  1  0  0  0  0
144273  1  0  0  0  0
145147  2  0  0  0  0
145148  1  0  0  0  0
146147  1  0  0  0  0
146274  1  0  0  0  0
147149  1  0  0  0  0
148150  2  0  0  0  0
148275  1  0  0  0  0
149151  2  0  0  0  0
149276  1  0  0  0  0
150151  1  0  0  0  0
150277  1  0  0  0  0
151278  1  0  0  0  0
M  CHG  7   1   1  27  -1  35  -1  49  -1  64  -1  81  -1 141  -1
M  END
