2lpr_ligand
 OpenBabel08222323343D

 55 55  0  0  1  0  0  0  0  0999 V2000
   13.8500   42.1190   18.2540 N   0  3  0  0  0  0  0  0  0  0  0  0
   14.3830   40.7440   18.0810 C   0  0  2  0  0  0  0  0  0  0  0  0
   13.5040   39.5640   18.4510 C   0  0  0  0  0  0  0  0  0  0  0  0
   12.7700   39.5060   19.4720 O   0  0  0  0  0  0  0  0  0  0  0  0
   15.6840   40.6310   18.8650 C   0  0  0  0  0  0  0  0  0  0  0  0
   13.5890   38.5620   17.5900 N   0  0  0  0  0  0  0  0  0  0  0  0
   12.8050   37.3080   17.7720 C   0  0  2  0  0  0  0  0  0  0  0  0
   13.7030   36.1490   17.3620 C   0  0  0  0  0  0  0  0  0  0  0  0
   14.5170   36.3700   16.4740 O   0  0  0  0  0  0  0  0  0  0  0  0
   11.5940   37.3810   16.8660 C   0  0  0  0  0  0  0  0  0  0  0  0
   13.4980   35.0050   17.9720 N   0  0  0  0  0  0  0  0  0  0  0  0
   14.2260   33.7990   17.6290 C   0  0  2  0  0  0  0  0  0  0  0  0
   13.8980   33.3970   16.1940 C   0  0  0  0  0  0  0  0  0  0  0  0
   12.7440   33.5680   15.7620 O   0  0  0  0  0  0  0  0  0  0  0  0
   13.5810   32.6990   18.4880 C   0  0  0  0  0  0  0  0  0  0  0  0
   12.7760   33.3970   19.5080 C   0  0  0  0  0  0  0  0  0  0  0  0
   12.4820   34.7900   19.0110 C   0  0  0  0  0  0  0  0  0  0  0  0
   14.8430   32.8070   15.4680 N   0  0  0  0  0  0  0  0  0  0  0  0
   14.6410   32.3200   14.0880 C   0  0  1  0  0  0  0  0  0  0  0  0
   15.4800   33.1350   13.0840 C   0  0  0  0  0  0  0  0  0  0  0  0
   14.9250   34.5250   12.9390 C   0  0  0  0  0  0  0  0  0  0  0  0
   16.9790   33.2090   13.3780 C   0  0  0  0  0  0  0  0  0  0  0  0
   14.9130   30.7900   14.0650 B   0  0  0  0  0  0  0  0  0  0  0  0
   14.8860   30.1920   12.7180 O   0  0  0  0  0  0  0  0  0  0  0  0
   14.0130   30.0760   15.0060 O   0  0  0  0  0  0  0  0  0  0  0  0
   14.5471   42.7881   17.9671 H   0  0  0  0  0  0  0  0  0  0  0  0
   13.6182   42.2700   19.2233 H   0  0  0  0  0  0  0  0  0  0  0  0
   13.0229   42.2323   17.6890 H   0  0  0  0  0  0  0  0  0  0  0  0
   14.6117   40.6349   17.0106 H   0  0  0  0  0  0  0  0  0  0  0  0
   16.0951   39.6173   18.7490 H   0  0  0  0  0  0  0  0  0  0  0  0
   15.4889   40.8279   19.9295 H   0  0  0  0  0  0  0  0  0  0  0  0
   16.4075   41.3660   18.4827 H   0  0  0  0  0  0  0  0  0  0  0  0
   14.1939   38.6488   16.7984 H   0  0  0  0  0  0  0  0  0  0  0  0
   12.4889   37.1937   18.8194 H   0  0  0  0  0  0  0  0  0  0  0  0
   10.9951   36.4654   16.9800 H   0  0  0  0  0  0  0  0  0  0  0  0
   11.9232   37.4759   15.8207 H   0  0  0  0  0  0  0  0  0  0  0  0
   10.9839   38.2546   17.1391 H   0  0  0  0  0  0  0  0  0  0  0  0
   15.3081   33.9039   17.7963 H   0  0  0  0  0  0  0  0  0  0  0  0
   14.3572   32.0852   18.9684 H   0  0  0  0  0  0  0  0  0  0  0  0
   12.9381   32.0575   17.8674 H   0  0  0  0  0  0  0  0  0  0  0  0
   13.3378   33.4503   20.4522 H   0  0  0  0  0  0  0  0  0  0  0  0
   11.8333   32.8546   19.6724 H   0  0  0  0  0  0  0  0  0  0  0  0
   11.4683   34.8508   18.5883 H   0  0  0  0  0  0  0  0  0  0  0  0
   12.5862   35.5266   19.8212 H   0  0  0  0  0  0  0  0  0  0  0  0
   15.7454   32.6856   15.8814 H   0  0  0  0  0  0  0  0  0  0  0  0
   13.5847   32.4720   13.8213 H   0  0  0  0  0  0  0  0  0  0  0  0
   15.3755   32.6318   12.1114 H   0  0  0  0  0  0  0  0  0  0  0  0
   15.5357   35.0905   12.2198 H   0  0  0  0  0  0  0  0  0  0  0  0
   14.9452   35.0316   13.9152 H   0  0  0  0  0  0  0  0  0  0  0  0
   13.8882   34.4698   12.5759 H   0  0  0  0  0  0  0  0  0  0  0  0
   17.3826   32.1912   13.4836 H   0  0  0  0  0  0  0  0  0  0  0  0
   17.1424   33.7669   14.3118 H   0  0  0  0  0  0  0  0  0  0  0  0
   17.4902   33.7220   12.5501 H   0  0  0  0  0  0  0  0  0  0  0  0
   15.1667   29.2858   12.7693 H   0  0  0  0  0  0  0  0  0  0  0  0
   14.0577   30.4892   15.8603 H   0  0  0  0  0  0  0  0  0  0  0  0
  1  2  1  0  0  0  0
  1 26  1  0  0  0  0
  1 27  1  0  0  0  0
  1 28  1  0  0  0  0
  2  3  1  0  0  0  0
  2  5  1  0  0  0  0
  2 29  1  6  0  0  0
  3  4  2  0  0  0  0
  3  6  1  0  0  0  0
  5 30  1  0  0  0  0
  5 31  1  0  0  0  0
  5 32  1  0  0  0  0
  6  7  1  0  0  0  0
  6 33  1  0  0  0  0
  7  8  1  0  0  0  0
  7 10  1  0  0  0  0
  7 34  1  1  0  0  0
  8  9  2  0  0  0  0
  8 11  1  0  0  0  0
 10 35  1  0  0  0  0
 10 36  1  0  0  0  0
 10 37  1  0  0  0  0
 11 12  1  0  0  0  0
 11 17  1  0  0  0  0
 12 13  1  0  0  0  0
 12 15  1  0  0  0  0
 12 38  1  1  0  0  0
 13 14  2  0  0  0  0
 13 18  1  0  0  0  0
 15 16  1  0  0  0  0
 15 39  1  0  0  0  0
 15 40  1  0  0  0  0
 16 17  1  0  0  0  0
 16 41  1  0  0  0  0
 16 42  1  0  0  0  0
 17 43  1  0  0  0  0
 17 44  1  0  0  0  0
 18 19  1  0  0  0  0
 18 45  1  0  0  0  0
 19 20  1  0  0  0  0
 19 23  1  0  0  0  0
 19 46  1  6  0  0  0
 20 21  1  0  0  0  0
 20 22  1  0  0  0  0
 20 47  1  0  0  0  0
 21 48  1  0  0  0  0
 21 49  1  0  0  0  0
 21 50  1  0  0  0  0
 22 51  1  0  0  0  0
 22 52  1  0  0  0  0
 22 53  1  0  0  0  0
 23 24  1  0  0  0  0
 23 25  1  0  0  0  0
 24 54  1  0  0  0  0
 25 55  1  0  0  0  0
M  CHG  1   1   1
M  END
