2lsv_ligand
 OpenBabel08222323343D

129128  0  0  1  0  0  0  0  0999 V2000
   22.3790   19.7020  -14.8640 N   0  3  0  0  0  0  0  0  0  0  0  0
   20.9790   19.2560  -14.9860 C   0  0  2  0  0  0  0  0  0  0  0  0
   20.0810   20.0180  -14.0170 C   0  0  0  0  0  0  0  0  0  0  0  0
   20.5550   20.8670  -13.2620 O   0  0  0  0  0  0  0  0  0  0  0  0
   20.8580   17.7470  -14.7560 C   0  0  0  0  0  0  0  0  0  0  0  0
   18.7830   19.7110  -14.0370 N   0  0  0  0  0  0  0  0  0  0  0  0
   17.7790   20.3610  -13.2060 C   0  0  2  0  0  0  0  0  0  0  0  0
   16.7450   19.3310  -12.7570 C   0  0  0  0  0  0  0  0  0  0  0  0
   15.6000   19.6730  -12.4610 O   0  0  0  0  0  0  0  0  0  0  0  0
   17.1150   21.4960  -13.9930 C   0  0  0  0  0  0  0  0  0  0  0  0
   18.1190   22.5820  -14.3730 C   0  0  0  0  0  0  0  0  0  0  0  0
   18.3540   23.4730  -13.5240 O   0  5  0  0  0  0  0  0  0  0  0  0
   18.6480   22.5160  -15.5070 O   0  0  0  0  0  0  0  0  0  0  0  0
   17.1490   18.0590  -12.7120 N   0  0  0  0  0  0  0  0  0  0  0  0
   16.2380   16.9540  -12.4540 C   0  0  2  0  0  0  0  0  0  0  0  0
   16.8780   15.7910  -11.7230 C   0  0  0  0  0  0  0  0  0  0  0  0
   18.0760   15.5310  -11.8130 O   0  0  0  0  0  0  0  0  0  0  0  0
   15.7910   16.3310  -13.7870 C   0  0  2  0  0  0  0  0  0  0  0  0
   16.9080   16.1620  -14.6410 O   0  0  0  0  0  0  0  0  0  0  0  0
   14.7400   17.1380  -14.5320 C   0  0  0  0  0  0  0  0  0  0  0  0
   16.0080   15.1000  -10.9920 N   0  0  0  0  0  0  0  0  0  0  0  0
   16.2120   13.7330  -10.5640 C   0  0  2  0  0  0  0  0  0  0  0  0
   15.1800   12.9150  -11.3460 C   0  0  0  0  0  0  0  0  0  0  0  0
   15.2340   11.6900  -11.3700 O   0  0  0  0  0  0  0  0  0  0  0  0
   16.0460   13.6060   -9.0470 C   0  0  0  0  0  0  0  0  0  0  0  0
   14.6370   13.9990   -8.6060 C   0  0  0  0  0  0  0  0  0  0  0  0
   14.4920   13.9090   -7.0910 C   0  0  0  0  0  0  0  0  0  0  0  0
   14.2950   12.7730   -6.5960 O   0  5  0  0  0  0  0  0  0  0  0  0
   14.5770   14.9690   -6.4340 O   0  0  0  0  0  0  0  0  0  0  0  0
   14.2390   13.6210  -11.9930 N   0  0  0  0  0  0  0  0  0  0  0  0
   13.1480   13.0950  -12.7970 C   0  0  2  0  0  0  0  0  0  0  0  0
   13.6630   12.3590  -14.0220 C   0  0  0  0  0  0  0  0  0  0  0  0
   12.9290   11.5820  -14.6350 O   0  0  0  0  0  0  0  0  0  0  0  0
   12.3040   14.2770  -13.3050 C   0  0  0  0  0  0  0  0  0  0  0  0
   11.9110   15.3210  -12.2550 C   0  0  0  0  0  0  0  0  0  0  0  0
   10.3780   14.9820  -11.3580 S   0  0  0  0  0  0  0  0  0  0  0  0
   10.7290   13.2730  -10.9140 C   0  0  0  0  0  0  0  0  0  0  0  0
   14.9240   12.6090  -14.3690 N   0  0  0  0  0  0  0  0  0  0  0  0
   15.5500   12.0690  -15.5580 C   0  0  2  0  0  0  0  0  0  0  0  0
   16.7920   11.2750  -15.1380 C   0  0  0  0  0  0  0  0  0  0  0  0
   17.7200   11.0490  -15.9110 O   0  0  0  0  0  0  0  0  0  0  0  0
   15.7740   13.2170  -16.5490 C   0  0  0  0  0  0  0  0  0  0  0  0
   16.1250   12.6640  -17.9340 C   0  0  0  0  0  0  0  0  0  0  0  0
   16.1660   13.7550  -19.0010 C   0  0  0  0  0  0  0  0  0  0  0  0
   16.8020   14.8050  -18.7510 O   0  5  0  0  0  0  0  0  0  0  0  0
   15.5540   13.5250  -20.0710 O   0  0  0  0  0  0  0  0  0  0  0  0
   16.7780   10.8500  -13.8710 N   0  0  0  0  0  0  0  0  0  0  0  0
   17.7110    9.9030  -13.2830 C   0  0  2  0  0  0  0  0  0  0  0  0
   16.8880    8.6650  -12.9330 C   0  0  0  0  0  0  0  0  0  0  0  0
   15.6560    8.7080  -12.9820 O   0  0  0  0  0  0  0  0  0  0  0  0
   18.3580   10.5060  -12.0330 C   0  0  0  0  0  0  0  0  0  0  0  0
   19.2550   11.6980  -12.3770 C   0  0  0  0  0  0  0  0  0  0  0  0
   20.4430   11.2930  -13.2440 C   0  0  0  0  0  0  0  0  0  0  0  0
   20.9140   10.1400  -13.0970 O   0  5  0  0  0  0  0  0  0  0  0  0
   20.8830   12.1390  -14.0530 O   0  0  0  0  0  0  0  0  0  0  0  0
   17.5290    7.5500  -12.5810 N   0  0  0  0  0  0  0  0  0  0  0  0
   16.7940    6.2930  -12.5260 C   0  0  2  0  0  0  0  0  0  0  0  0
   16.2010    5.9680  -11.1550 C   0  0  0  0  0  0  0  0  0  0  0  0
   14.9780    5.8950  -11.0340 O   0  0  0  0  0  0  0  0  0  0  0  0
   17.6510    5.1540  -13.0860 C   0  0  0  0  0  0  0  0  0  0  0  0
   18.3500    5.6120  -14.3620 C   0  0  0  0  0  0  0  0  0  0  0  0
   18.7310    4.6320  -12.1460 C   0  0  0  0  0  0  0  0  0  0  0  0
   17.0230    5.7710  -10.1230 N   0  0  0  0  0  0  0  0  0  0  0  0
   16.5340    5.3810   -8.8060 C   0  0  2  0  0  0  0  0  0  0  0  0
   16.1830    6.6000   -7.9500 C   0  0  0  0  0  0  0  0  0  0  0  0
   15.6890    6.3920   -6.8210 O   0  5  0  0  0  0  0  0  0  0  0  0
   17.5680    4.5140   -8.0800 C   0  0  0  0  0  0  0  0  0  0  0  0
   18.9340    5.1950   -7.9590 C   0  0  0  0  0  0  0  0  0  0  0  0
   19.5800    5.4040   -9.0090 O   0  5  0  0  0  0  0  0  0  0  0  0
   19.3180    5.5020   -6.8080 O   0  0  0  0  0  0  0  0  0  0  0  0
   16.4100    7.7360   -8.4310 O   0  0  0  0  0  0  0  0  0  0  0  0
   22.9536   19.1863  -15.5121 H   0  0  0  0  0  0  0  0  0  0  0  0
   22.7031   19.5381  -13.9237 H   0  0  0  0  0  0  0  0  0  0  0  0
   22.4375   20.6864  -15.0729 H   0  0  0  0  0  0  0  0  0  0  0  0
   20.6406   19.4734  -16.0098 H   0  0  0  0  0  0  0  0  0  0  0  0
   19.8049   17.4446  -14.8532 H   0  0  0  0  0  0  0  0  0  0  0  0
   21.2188   17.4998  -13.7467 H   0  0  0  0  0  0  0  0  0  0  0  0
   21.4633   17.2125  -15.5029 H   0  0  0  0  0  0  0  0  0  0  0  0
   18.4808   18.9903  -14.6609 H   0  0  0  0  0  0  0  0  0  0  0  0
   18.2677   20.7849  -12.3164 H   0  0  0  0  0  0  0  0  0  0  0  0
   16.3232   21.9433  -13.3742 H   0  0  0  0  0  0  0  0  0  0  0  0
   16.6730   21.0821  -14.9113 H   0  0  0  0  0  0  0  0  0  0  0  0
   18.1170   17.8576  -12.8617 H   0  0  0  0  0  0  0  0  0  0  0  0
   15.3746   17.3295  -11.8852 H   0  0  0  0  0  0  0  0  0  0  0  0
   15.3631   15.3424  -13.5644 H   0  0  0  0  0  0  0  0  0  0  0  0
   17.5403   15.5888  -14.2238 H   0  0  0  0  0  0  0  0  0  0  0  0
   14.4789   16.6238  -15.4687 H   0  0  0  0  0  0  0  0  0  0  0  0
   15.1392   18.1371  -14.7612 H   0  0  0  0  0  0  0  0  0  0  0  0
   13.8414   17.2370  -13.9053 H   0  0  0  0  0  0  0  0  0  0  0  0
   15.1592   15.5539  -10.7210 H   0  0  0  0  0  0  0  0  0  0  0  0
   17.2260   13.4016  -10.8324 H   0  0  0  0  0  0  0  0  0  0  0  0
   16.7733   14.2654   -8.5508 H   0  0  0  0  0  0  0  0  0  0  0  0
   16.2356   12.5634   -8.7522 H   0  0  0  0  0  0  0  0  0  0  0  0
   13.9105   13.3208   -9.0775 H   0  0  0  0  0  0  0  0  0  0  0  0
   14.4353   15.0320   -8.9256 H   0  0  0  0  0  0  0  0  0  0  0  0
   14.2946   14.6163  -11.9132 H   0  0  0  0  0  0  0  0  0  0  0  0
   12.5332   12.4180  -12.1857 H   0  0  0  0  0  0  0  0  0  0  0  0
   11.3783   13.8688  -13.7367 H   0  0  0  0  0  0  0  0  0  0  0  0
   12.8799   14.7892  -14.0899 H   0  0  0  0  0  0  0  0  0  0  0  0
   11.7985   16.2891  -12.7649 H   0  0  0  0  0  0  0  0  0  0  0  0
   12.7266   15.3863  -11.5199 H   0  0  0  0  0  0  0  0  0  0  0  0
    9.8855   12.8629  -10.3392 H   0  0  0  0  0  0  0  0  0  0  0  0
   11.6429   13.2331  -10.3031 H   0  0  0  0  0  0  0  0  0  0  0  0
   10.8730   12.6787  -11.8284 H   0  0  0  0  0  0  0  0  0  0  0  0
   15.4686   13.2022  -13.7761 H   0  0  0  0  0  0  0  0  0  0  0  0
   14.8564   11.3596  -16.0331 H   0  0  0  0  0  0  0  0  0  0  0  0
   16.5998   13.8493  -16.1910 H   0  0  0  0  0  0  0  0  0  0  0  0
   14.8559   13.8187  -16.6207 H   0  0  0  0  0  0  0  0  0  0  0  0
   15.3680   11.9186  -18.2194 H   0  0  0  0  0  0  0  0  0  0  0  0
   17.1127   12.1825  -17.8826 H   0  0  0  0  0  0  0  0  0  0  0  0
   16.0629   11.2156  -13.2752 H   0  0  0  0  0  0  0  0  0  0  0  0
   18.4963    9.6419  -14.0076 H   0  0  0  0  0  0  0  0  0  0  0  0
   18.9658    9.7338  -11.5387 H   0  0  0  0  0  0  0  0  0  0  0  0
   17.5653   10.8426  -11.3486 H   0  0  0  0  0  0  0  0  0  0  0  0
   19.6323   12.1389  -11.4425 H   0  0  0  0  0  0  0  0  0  0  0  0
   18.6583   12.4454  -12.9204 H   0  0  0  0  0  0  0  0  0  0  0  0
   18.5033    7.5762  -12.3572 H   0  0  0  0  0  0  0  0  0  0  0  0
   15.9363    6.4059  -13.2054 H   0  0  0  0  0  0  0  0  0  0  0  0
   16.9759    4.3191  -13.3252 H   0  0  0  0  0  0  0  0  0  0  0  0
   18.9636    4.7900  -14.7592 H   0  0  0  0  0  0  0  0  0  0  0  0
   18.9941    6.4751  -14.1377 H   0  0  0  0  0  0  0  0  0  0  0  0
   17.5965    5.9012  -15.1093 H   0  0  0  0  0  0  0  0  0  0  0  0
   18.2674    4.2899  -11.2089 H   0  0  0  0  0  0  0  0  0  0  0  0
   19.4478    5.4374  -11.9278 H   0  0  0  0  0  0  0  0  0  0  0  0
   19.2573    3.7919  -12.6227 H   0  0  0  0  0  0  0  0  0  0  0  0
   18.0062    5.8948  -10.2570 H   0  0  0  0  0  0  0  0  0  0  0  0
   15.6197    4.7856   -8.9455 H   0  0  0  0  0  0  0  0  0  0  0  0
   17.6922    3.5741   -8.6377 H   0  0  0  0  0  0  0  0  0  0  0  0
   17.1944    4.2939   -7.0691 H   0  0  0  0  0  0  0  0  0  0  0  0
  1  2  1  0  0  0  0
  1 72  1  0  0  0  0
  1 73  1  0  0  0  0
  1 74  1  0  0  0  0
  2  3  1  0  0  0  0
  2  5  1  0  0  0  0
  2 75  1  6  0  0  0
  3  4  2  0  0  0  0
  3  6  1  0  0  0  0
  5 76  1  0  0  0  0
  5 77  1  0  0  0  0
  5 78  1  0  0  0  0
  6  7  1  0  0  0  0
  6 79  1  0  0  0  0
  7  8  1  0  0  0  0
  7 10  1  0  0  0  0
  7 80  1  1  0  0  0
  8  9  2  0  0  0  0
  8 14  1  0  0  0  0
 10 11  1  0  0  0  0
 10 81  1  0  0  0  0
 10 82  1  0  0  0  0
 11 12  1  0  0  0  0
 11 13  2  0  0  0  0
 14 15  1  0  0  0  0
 14 83  1  0  0  0  0
 15 16  1  0  0  0  0
 15 18  1  0  0  0  0
 15 84  1  1  0  0  0
 16 17  2  0  0  0  0
 16 21  1  0  0  0  0
 18 19  1  0  0  0  0
 18 20  1  0  0  0  0
 18 85  1  1  0  0  0
 19 86  1  0  0  0  0
 20 87  1  0  0  0  0
 20 88  1  0  0  0  0
 20 89  1  0  0  0  0
 21 22  1  0  0  0  0
 21 90  1  0  0  0  0
 22 23  1  0  0  0  0
 22 25  1  0  0  0  0
 22 91  1  6  0  0  0
 23 24  2  0  0  0  0
 23 30  1  0  0  0  0
 25 26  1  0  0  0  0
 25 92  1  0  0  0  0
 25 93  1  0  0  0  0
 26 27  1  0  0  0  0
 26 94  1  0  0  0  0
 26 95  1  0  0  0  0
 27 28  1  0  0  0  0
 27 29  2  0  0  0  0
 30 31  1  0  0  0  0
 30 96  1  0  0  0  0
 31 32  1  0  0  0  0
 31 34  1  0  0  0  0
 31 97  1  1  0  0  0
 32 33  2  0  0  0  0
 32 38  1  0  0  0  0
 34 35  1  0  0  0  0
 34 98  1  0  0  0  0
 34 99  1  0  0  0  0
 35 36  1  0  0  0  0
 35100  1  0  0  0  0
 35101  1  0  0  0  0
 36 37  1  0  0  0  0
 37102  1  0  0  0  0
 37103  1  0  0  0  0
 37104  1  0  0  0  0
 38 39  1  0  0  0  0
 38105  1  0  0  0  0
 39 40  1  0  0  0  0
 39 42  1  0  0  0  0
 39106  1  6  0  0  0
 40 41  2  0  0  0  0
 40 47  1  0  0  0  0
 42 43  1  0  0  0  0
 42107  1  0  0  0  0
 42108  1  0  0  0  0
 43 44  1  0  0  0  0
 43109  1  0  0  0  0
 43110  1  0  0  0  0
 44 45  1  0  0  0  0
 44 46  2  0  0  0  0
 47 48  1  0  0  0  0
 47111  1  0  0  0  0
 48 49  1  0  0  0  0
 48 51  1  0  0  0  0
 48112  1  6  0  0  0
 49 50  2  0  0  0  0
 49 56  1  0  0  0  0
 51 52  1  0  0  0  0
 51113  1  0  0  0  0
 51114  1  0  0  0  0
 52 53  1  0  0  0  0
 52115  1  0  0  0  0
 52116  1  0  0  0  0
 53 54  1  0  0  0  0
 53 55  2  0  0  0  0
 56 57  1  0  0  0  0
 56117  1  0  0  0  0
 57 58  1  0  0  0  0
 57 60  1  0  0  0  0
 57118  1  6  0  0  0
 58 59  2  0  0  0  0
 58 63  1  0  0  0  0
 60 61  1  0  0  0  0
 60 62  1  0  0  0  0
 60119  1  0  0  0  0
 61120  1  0  0  0  0
 61121  1  0  0  0  0
 61122  1  0  0  0  0
 62123  1  0  0  0  0
 62124  1  0  0  0  0
 62125  1  0  0  0  0
 63 64  1  0  0  0  0
 63126  1  0  0  0  0
 64 65  1  0  0  0  0
 64 67  1  0  0  0  0
 64127  1  6  0  0  0
 65 66  1  0  0  0  0
 65 71  2  0  0  0  0
 67 68  1  0  0  0  0
 67128  1  0  0  0  0
 67129  1  0  0  0  0
 68 69  1  0  0  0  0
 68 70  2  0  0  0  0
M  CHG  7   1   1  12  -1  28  -1  45  -1  54  -1  66  -1  69  -1
M  END
