2m0u_ligand
 OpenBabel08222323343D

 89 88  0  0  1  0  0  0  0  0999 V2000
  -18.4420   24.4030    0.9410 N   0  3  0  0  0  0  0  0  0  0  0  0
  -18.2860   24.3360   -0.5300 C   0  0  2  0  0  0  0  0  0  0  0  0
  -17.2800   23.2530   -0.8880 C   0  0  0  0  0  0  0  0  0  0  0  0
  -16.3570   23.4810   -1.6770 O   0  0  0  0  0  0  0  0  0  0  0  0
  -17.8040   25.6830   -1.0770 C   0  0  0  0  0  0  0  0  0  0  0  0
  -18.6750   26.8620   -0.6780 C   0  0  0  0  0  0  0  0  0  0  0  0
  -18.1190   28.1800   -1.1740 C   0  0  0  0  0  0  0  0  0  0  0  0
  -16.9070   28.3330   -1.3350 O   0  0  0  0  0  0  0  0  0  0  0  0
  -18.9930   29.1400   -1.4110 N   0  0  0  0  0  0  0  0  0  0  0  0
  -17.4670   22.0760   -0.2910 N   0  0  0  0  0  0  0  0  0  0  0  0
  -16.5380   20.9550   -0.4310 C   0  0  2  0  0  0  0  0  0  0  0  0
  -15.1900   21.3220    0.1770 C   0  0  0  0  0  0  0  0  0  0  0  0
  -15.0580   22.3440    0.8560 O   0  0  0  0  0  0  0  0  0  0  0  0
  -16.3570   20.5420   -1.9000 C   0  0  0  0  0  0  0  0  0  0  0  0
  -17.6670   20.2240   -2.5930 C   0  0  0  0  0  0  0  0  0  0  0  0
  -18.5560   19.6230   -1.9590 O   0  5  0  0  0  0  0  0  0  0  0  0
  -17.8220   20.5940   -3.7760 O   0  0  0  0  0  0  0  0  0  0  0  0
  -14.1980   20.4800   -0.0400 N   0  0  0  0  0  0  0  0  0  0  0  0
  -12.8560   20.7500    0.4420 C   0  0  2  0  0  0  0  0  0  0  0  0
  -11.8320   20.3460   -0.6090 C   0  0  0  0  0  0  0  0  0  0  0  0
  -11.7760   19.1840   -1.0160 O   0  0  0  0  0  0  0  0  0  0  0  0
  -12.5830   19.9970    1.7580 C   0  0  2  0  0  0  0  0  0  0  0  0
  -13.6350   20.2770    2.6950 O   0  0  0  0  0  0  0  0  0  0  0  0
  -11.2440   20.4080    2.3560 C   0  0  0  0  0  0  0  0  0  0  0  0
  -11.0420   21.3080   -1.0630 N   0  0  0  0  0  0  0  0  0  0  0  0
  -10.0740   21.0540   -2.1180 C   0  0  2  0  0  0  0  0  0  0  0  0
   -8.7450   20.5950   -1.5320 C   0  0  0  0  0  0  0  0  0  0  0  0
   -8.2490   21.1630   -0.5550 O   0  0  0  0  0  0  0  0  0  0  0  0
   -9.8600   22.3110   -2.9660 C   0  0  0  0  0  0  0  0  0  0  0  0
   -9.1470   22.0460   -4.2860 C   0  0  0  0  0  0  0  0  0  0  0  0
   -7.9320   22.9450   -4.4580 C   0  0  0  0  0  0  0  0  0  0  0  0
   -6.8320   22.5500   -3.5820 N   0  0  0  0  0  0  0  0  0  0  0  0
   -6.2200   23.3680   -2.7280 C   0  0  0  0  0  3  0  0  0  0  0  0
   -6.6010   24.6320   -2.6040 N   0  0  0  0  0  0  0  0  0  0  0  0
   -5.2150   22.9120   -1.9950 N   0  0  0  0  0  0  0  0  0  0  0  0
   -8.1920   19.5530   -2.1200 N   0  0  0  0  0  0  0  0  0  0  0  0
   -6.8920   19.0510   -1.7310 C   0  0  2  0  0  0  0  0  0  0  0  0
   -5.8990   19.2430   -2.8650 C   0  0  0  0  0  0  0  0  0  0  0  0
   -5.2270   20.2940   -2.8960 O   0  5  0  0  0  0  0  0  0  0  0  0
   -7.0020   17.5790   -1.3410 C   0  0  0  0  0  0  0  0  0  0  0  0
   -7.3680   17.3410    0.1210 C   0  0  0  0  0  0  0  0  0  0  0  0
   -8.1400   16.0460    0.2820 C   0  0  0  0  0  0  0  0  0  0  0  0
   -6.1080   17.3070    0.9650 C   0  0  0  0  0  0  0  0  0  0  0  0
   -5.8140   18.3580   -3.7340 O   0  0  0  0  0  0  0  0  0  0  0  0
  -19.1091   25.1213    1.1757 H   0  0  0  0  0  0  0  0  0  0  0  0
  -17.5528   24.6192    1.3637 H   0  0  0  0  0  0  0  0  0  0  0  0
  -18.7704   23.5142    1.2849 H   0  0  0  0  0  0  0  0  0  0  0  0
  -19.2580   24.0913   -0.9832 H   0  0  0  0  0  0  0  0  0  0  0  0
  -17.7856   25.6232   -2.1752 H   0  0  0  0  0  0  0  0  0  0  0  0
  -16.7856   25.8635   -0.7024 H   0  0  0  0  0  0  0  0  0  0  0  0
  -18.7423   26.8969    0.4194 H   0  0  0  0  0  0  0  0  0  0  0  0
  -19.6797   26.7195   -1.1027 H   0  0  0  0  0  0  0  0  0  0  0  0
  -18.6801   30.0309   -1.7402 H   0  0  0  0  0  0  0  0  0  0  0  0
  -19.9681   28.9765   -1.2614 H   0  0  0  0  0  0  0  0  0  0  0  0
  -18.2797   21.9538    0.2787 H   0  0  0  0  0  0  0  0  0  0  0  0
  -16.9493   20.0960    0.1194 H   0  0  0  0  0  0  0  0  0  0  0  0
  -15.7158   19.6490   -1.9363 H   0  0  0  0  0  0  0  0  0  0  0  0
  -15.8674   21.3671   -2.4381 H   0  0  0  0  0  0  0  0  0  0  0  0
  -14.3746   19.6369   -0.5479 H   0  0  0  0  0  0  0  0  0  0  0  0
  -12.7623   21.8297    0.6301 H   0  0  0  0  0  0  0  0  0  0  0  0
  -12.5623   18.9168    1.5514 H   0  0  0  0  0  0  0  0  0  0  0  0
  -13.4666   19.8126    3.5065 H   0  0  0  0  0  0  0  0  0  0  0  0
  -11.0758   19.8560    3.2925 H   0  0  0  0  0  0  0  0  0  0  0  0
  -11.2511   21.4882    2.5634 H   0  0  0  0  0  0  0  0  0  0  0  0
  -10.4380   20.1765    1.6442 H   0  0  0  0  0  0  0  0  0  0  0  0
  -11.1128   22.2260   -0.6728 H   0  0  0  0  0  0  0  0  0  0  0  0
  -10.4663   20.2559   -2.7654 H   0  0  0  0  0  0  0  0  0  0  0  0
   -9.2584   23.0244   -2.3837 H   0  0  0  0  0  0  0  0  0  0  0  0
  -10.8430   22.7534   -3.1852 H   0  0  0  0  0  0  0  0  0  0  0  0
   -9.8477   22.2312   -5.1134 H   0  0  0  0  0  0  0  0  0  0  0  0
   -8.8201   20.9960   -4.3104 H   0  0  0  0  0  0  0  0  0  0  0  0
   -8.2197   23.9802   -4.2223 H   0  0  0  0  0  0  0  0  0  0  0  0
   -7.5924   22.8875   -5.5027 H   0  0  0  0  0  0  0  0  0  0  0  0
   -6.5080   21.5734   -3.6279 H   0  0  0  0  0  0  0  0  0  0  0  0
   -6.1178   25.2527   -1.9390 H   0  0  0  0  0  0  0  0  0  0  0  0
   -7.3802   24.9932   -3.1726 H   0  0  0  0  0  0  0  0  0  0  0  0
   -4.9143   21.9312   -2.0867 H   0  0  0  0  0  0  0  0  0  0  0  0
   -4.7344   23.5383   -1.3335 H   0  0  0  0  0  0  0  0  0  0  0  0
   -8.6867   19.0948   -2.8585 H   0  0  0  0  0  0  0  0  0  0  0  0
   -6.5395   19.6195   -0.8577 H   0  0  0  0  0  0  0  0  0  0  0  0
   -6.0322   17.0979   -1.5357 H   0  0  0  0  0  0  0  0  0  0  0  0
   -7.7752   17.1132   -1.9696 H   0  0  0  0  0  0  0  0  0  0  0  0
   -8.0022   18.1716    0.4644 H   0  0  0  0  0  0  0  0  0  0  0  0
   -8.3911   15.8983    1.3427 H   0  0  0  0  0  0  0  0  0  0  0  0
   -7.5235   15.2055   -0.0693 H   0  0  0  0  0  0  0  0  0  0  0  0
   -9.0655   16.0947   -0.3105 H   0  0  0  0  0  0  0  0  0  0  0  0
   -5.5573   18.2509    0.8398 H   0  0  0  0  0  0  0  0  0  0  0  0
   -5.4741   16.4673    0.6439 H   0  0  0  0  0  0  0  0  0  0  0  0
   -6.3789   17.1782    2.0233 H   0  0  0  0  0  0  0  0  0  0  0  0
  1  2  1  0  0  0  0
  1 45  1  0  0  0  0
  1 46  1  0  0  0  0
  1 47  1  0  0  0  0
  2  3  1  0  0  0  0
  2  5  1  0  0  0  0
  2 48  1  6  0  0  0
  3  4  2  0  0  0  0
  3 10  1  0  0  0  0
  5  6  1  0  0  0  0
  5 49  1  0  0  0  0
  5 50  1  0  0  0  0
  6  7  1  0  0  0  0
  6 51  1  0  0  0  0
  6 52  1  0  0  0  0
  7  8  2  0  0  0  0
  7  9  1  0  0  0  0
  9 53  1  0  0  0  0
  9 54  1  0  0  0  0
 10 11  1  0  0  0  0
 10 55  1  0  0  0  0
 11 12  1  0  0  0  0
 11 14  1  0  0  0  0
 11 56  1  1  0  0  0
 12 13  2  0  0  0  0
 12 18  1  0  0  0  0
 14 15  1  0  0  0  0
 14 57  1  0  0  0  0
 14 58  1  0  0  0  0
 15 16  1  0  0  0  0
 15 17  2  0  0  0  0
 18 19  1  0  0  0  0
 18 59  1  0  0  0  0
 19 20  1  0  0  0  0
 19 22  1  0  0  0  0
 19 60  1  1  0  0  0
 20 21  2  0  0  0  0
 20 25  1  0  0  0  0
 22 23  1  0  0  0  0
 22 24  1  0  0  0  0
 22 61  1  6  0  0  0
 23 62  1  0  0  0  0
 24 63  1  0  0  0  0
 24 64  1  0  0  0  0
 24 65  1  0  0  0  0
 25 26  1  0  0  0  0
 25 66  1  0  0  0  0
 26 27  1  0  0  0  0
 26 29  1  0  0  0  0
 26 67  1  6  0  0  0
 27 28  2  0  0  0  0
 27 36  1  0  0  0  0
 29 30  1  0  0  0  0
 29 68  1  0  0  0  0
 29 69  1  0  0  0  0
 30 31  1  0  0  0  0
 30 70  1  0  0  0  0
 30 71  1  0  0  0  0
 31 32  1  0  0  0  0
 31 72  1  0  0  0  0
 31 73  1  0  0  0  0
 32 33  1  0  0  0  0
 32 74  1  0  0  0  0
 33 34  1  0  0  0  0
 33 35  1  0  0  0  0
 34 75  1  0  0  0  0
 34 76  1  0  0  0  0
 35 77  1  0  0  0  0
 35 78  1  0  0  0  0
 36 37  1  0  0  0  0
 36 79  1  0  0  0  0
 37 38  1  0  0  0  0
 37 40  1  0  0  0  0
 37 80  1  1  0  0  0
 38 39  1  0  0  0  0
 38 44  2  0  0  0  0
 40 41  1  0  0  0  0
 40 81  1  0  0  0  0
 40 82  1  0  0  0  0
 41 42  1  0  0  0  0
 41 43  1  0  0  0  0
 41 83  1  0  0  0  0
 42 84  1  0  0  0  0
 42 85  1  0  0  0  0
 42 86  1  0  0  0  0
 43 87  1  0  0  0  0
 43 88  1  0  0  0  0
 43 89  1  0  0  0  0
M  CHG  3   1   1  16  -1  39  -1
M  END
