2m3m_ligand
 OpenBabel08222323343D

197197  0  0  1  0  0  0  0  0999 V2000
   22.3680   -8.6360   18.5260 N   0  3  0  0  0  0  0  0  0  0  0  0
   22.5120   -7.4040   19.2980 C   0  0  1  0  0  0  0  0  0  0  0  0
   23.1450   -7.7610   20.6330 C   0  0  0  0  0  0  0  0  0  0  0  0
   23.2930   -9.2530   20.5690 C   0  0  0  0  0  0  0  0  0  0  0  0
   23.2520   -9.6290   19.0960 C   0  0  2  0  0  0  0  0  0  0  0  0
   24.2810   -9.9670   18.5120 O   0  0  0  0  0  0  0  0  0  0  0  0
   23.3780   -6.4040   18.5310 C   0  0  0  0  0  0  0  0  0  0  0  0
   24.0560   -5.5370   19.1190 O   0  0  0  0  0  0  0  0  0  0  0  0
   23.2750   -6.4700   17.2280 N   0  0  0  0  0  0  0  0  0  0  0  0
   24.0570   -5.6750   16.3200 C   0  0  2  0  0  0  0  0  0  0  0  0
   23.2060   -4.4890   15.9700 C   0  0  0  0  0  0  0  0  0  0  0  0
   23.5990   -3.3410   16.1590 O   0  0  0  0  0  0  0  0  0  0  0  0
   24.3170   -6.5120   15.0840 C   0  0  0  0  0  0  0  0  0  0  0  0
   24.8350   -7.9040   15.4120 C   0  0  0  0  0  0  0  0  0  0  0  0
   24.6020   -8.8420   14.2470 C   0  0  0  0  0  0  0  0  0  0  0  0
   23.1530   -8.9530   13.9970 N   0  0  0  0  0  0  0  0  0  0  0  0
   22.5550   -9.5090   12.9480 C   0  0  0  0  0  3  0  0  0  0  0  0
   23.2710  -10.0620   11.9660 N   0  0  0  0  0  0  0  0  0  0  0  0
   21.2300   -9.4940   12.8890 N   0  0  0  0  0  0  0  0  0  0  0  0
   22.0200   -4.7840   15.4850 N   0  0  0  0  0  0  0  0  0  0  0  0
   21.0360   -3.7810   15.2780 C   0  0  2  0  0  0  0  0  0  0  0  0
   20.2290   -3.7480   16.5710 C   0  0  0  0  0  0  0  0  0  0  0  0
   20.1620   -4.7600   17.2770 O   0  0  0  0  0  0  0  0  0  0  0  0
   20.1940   -4.0400   13.9930 C   0  0  2  0  0  0  0  0  0  0  0  0
   21.0890   -4.4250   12.9400 O   0  0  0  0  0  0  0  0  0  0  0  0
   19.5560   -2.7490   13.5860 C   0  0  0  0  0  0  0  0  0  0  0  0
   19.6530   -2.6360   16.9120 N   0  0  0  0  0  0  0  0  0  0  0  0
   19.1950   -2.4790   18.2640 C   0  0  2  0  0  0  0  0  0  0  0  0
   18.0700   -1.4890   18.3140 C   0  0  0  0  0  0  0  0  0  0  0  0
   17.8080   -0.8030   17.3360 O   0  0  0  0  0  0  0  0  0  0  0  0
   20.4030   -1.9480   19.0290 C   0  0  0  0  0  0  0  0  0  0  0  0
   20.3380   -1.8930   20.5370 C   0  0  0  0  0  0  0  0  0  0  0  0
   21.6730   -1.3810   21.0590 C   0  0  0  0  0  0  0  0  0  0  0  0
   22.7980   -2.2150   20.5570 N   0  0  0  0  0  0  0  0  0  0  0  0
   23.7040   -1.8310   19.6190 C   0  0  0  0  0  3  0  0  0  0  0  0
   23.6360   -0.6040   19.0670 N   0  0  0  0  0  0  0  0  0  0  0  0
   24.6140   -2.7090   19.1740 N   0  0  0  0  0  0  0  0  0  0  0  0
   17.3930   -1.4540   19.4150 N   0  0  0  0  0  0  0  0  0  0  0  0
   16.3430   -0.5150   19.6390 C   0  0  2  0  0  0  0  0  0  0  0  0
   16.9090    0.8080   20.1620 C   0  0  0  0  0  0  0  0  0  0  0  0
   17.9900    0.8310   20.7420 O   0  0  0  0  0  0  0  0  0  0  0  0
   15.2320   -1.0810   20.5600 C   0  0  0  0  0  0  0  0  0  0  0  0
   15.7030   -1.7400   21.8550 C   0  0  0  0  0  0  0  0  0  0  0  0
   16.2410   -3.1470   21.6650 C   0  0  0  0  0  0  0  0  0  0  0  0
   17.4250   -3.3390   21.4380 O   0  0  0  0  0  0  0  0  0  0  0  0
   15.3750   -4.1250   21.7320 N   0  0  0  0  0  0  0  0  0  0  0  0
   16.1410    1.8810   19.9760 N   0  0  0  0  0  0  0  0  0  0  0  0
   16.5330    3.2700   20.2740 C   0  0  2  0  0  0  0  0  0  0  0  0
   17.6470    3.7660   19.3690 C   0  0  0  0  0  0  0  0  0  0  0  0
   18.3690    4.6890   19.7140 O   0  0  0  0  0  0  0  0  0  0  0  0
   16.8430    3.5370   21.7670 C   0  0  0  0  0  0  0  0  0  0  0  0
   15.6030    3.7450   22.6400 C   0  0  0  0  0  0  0  0  0  0  0  0
   14.7900    2.4790   22.8290 C   0  0  0  0  0  0  0  0  0  0  0  0
   15.4960    1.4950   23.6670 N   0  0  0  0  0  0  0  0  0  0  0  0
   14.9010    0.5030   24.3470 C   0  0  0  0  0  3  0  0  0  0  0  0
   13.5730    0.3430   24.2740 N   0  0  0  0  0  0  0  0  0  0  0  0
   15.6350   -0.3240   25.1030 N   0  0  0  0  0  0  0  0  0  0  0  0
   17.7210    3.1870   18.1800 N   0  0  0  0  0  0  0  0  0  0  0  0
   18.6550    3.6330   17.1570 C   0  0  2  0  0  0  0  0  0  0  0  0
   18.1950    3.1530   15.8050 C   0  0  0  0  0  0  0  0  0  0  0  0
   17.6080    2.0630   15.7140 O   0  0  0  0  0  0  0  0  0  0  0  0
   20.1540    3.2430   17.4660 C   0  0  0  0  0  0  0  0  0  0  0  0
   20.5520    1.7330   17.4650 C   0  0  0  0  0  0  0  0  0  0  0  0
   21.4040    1.3010   18.2660 O   0  0  0  0  0  0  0  0  0  0  0  0
   20.0350    0.9440   16.5600 N   0  0  0  0  0  0  0  0  0  0  0  0
   18.3910    3.9390   14.7720 N   0  0  0  0  0  0  0  0  0  0  0  0
   18.0300    3.4970   13.4500 C   0  0  2  0  0  0  0  0  0  0  0  0
   19.2320    2.8230   12.8190 C   0  0  0  0  0  0  0  0  0  0  0  0
   20.3580    2.9600   13.3080 O   0  0  0  0  0  0  0  0  0  0  0  0
   17.4920    4.6450   12.5510 C   0  0  0  0  0  0  0  0  0  0  0  0
   18.5230    5.5910   11.9380 C   0  0  0  0  0  0  0  0  0  0  0  0
   19.3600    6.3460   12.9330 C   0  0  0  0  0  0  0  0  0  0  0  0
   18.8710    6.6650   14.0100 O   0  5  0  0  0  0  0  0  0  0  0  0
   20.5160    6.6680   12.5980 O   0  0  0  0  0  0  0  0  0  0  0  0
   19.0150    2.0450   11.8070 N   0  0  0  0  0  0  0  0  0  0  0  0
   20.1040    1.3950   11.1380 C   0  0  2  0  0  0  0  0  0  0  0  0
   19.7980    1.2400    9.6460 C   0  0  0  0  0  0  0  0  0  0  0  0
   18.6420    1.0010    9.2590 O   0  0  0  0  0  0  0  0  0  0  0  0
   20.4000    0.0180   11.7920 C   0  0  2  0  0  0  0  0  0  0  0  0
   20.6370    0.2080   13.2030 O   0  0  0  0  0  0  0  0  0  0  0  0
   21.6340   -0.6420   11.1770 C   0  0  0  0  0  0  0  0  0  0  0  0
   20.8150    1.4470    8.8230 N   0  0  0  0  0  0  0  0  0  0  0  0
   20.7120    1.2890    7.3880 C   0  0  2  0  0  0  0  0  0  0  0  0
   20.5900   -0.1840    7.0370 C   0  0  0  0  0  0  0  0  0  0  0  0
   21.2660   -1.0350    7.6400 O   0  0  0  0  0  0  0  0  0  0  0  0
   21.9400    1.8960    6.7030 C   0  0  0  0  0  0  0  0  0  0  0  0
   21.9500    1.7840    5.1790 C   0  0  0  0  0  0  0  0  0  0  0  0
   23.2260    2.3270    4.5720 C   0  0  0  0  0  0  0  0  0  0  0  0
   23.8460    3.2220    5.1110 O   0  0  0  0  0  0  0  0  0  0  0  0
   23.6190    1.8000    3.4450 N   0  0  0  0  0  0  0  0  0  0  0  0
   19.7410   -0.4730    6.0930 N   0  0  0  0  0  0  0  0  0  0  0  0
   19.5010   -1.8140    5.6420 C   0  0  2  0  0  0  0  0  0  0  0  0
   20.3670   -2.1780    4.4400 C   0  0  0  0  0  0  0  0  0  0  0  0
   20.1350   -1.6510    3.3140 O   0  5  0  0  0  0  0  0  0  0  0  0
   18.0000   -2.1020    5.3950 C   0  0  0  0  0  0  0  0  0  0  0  0
   17.2870   -2.1820    6.7230 C   0  0  0  0  0  0  0  0  0  0  0  0
   17.3630   -1.0140    4.5490 C   0  0  0  0  0  0  0  0  0  0  0  0
   21.2960   -3.0010    4.6440 O   0  0  0  0  0  0  0  0  0  0  0  0
   22.6181   -8.4678   17.5641 H   0  0  0  0  0  0  0  0  0  0  0  0
   21.4146   -8.9597   18.5736 H   0  0  0  0  0  0  0  0  0  0  0  0
   21.5209   -6.9594   19.4711 H   0  0  0  0  0  0  0  0  0  0  0  0
   22.4919   -7.4671   21.4679 H   0  0  0  0  0  0  0  0  0  0  0  0
   24.1250   -7.2741   20.7451 H   0  0  0  0  0  0  0  0  0  0  0  0
   22.4674   -9.7401   21.1085 H   0  0  0  0  0  0  0  0  0  0  0  0
   24.2520   -9.5590   21.0126 H   0  0  0  0  0  0  0  0  0  0  0  0
   22.6715  -10.5629   19.0654 H   0  0  0  0  0  0  0  0  0  0  0  0
   24.7353  -10.6232   19.0274 H   0  0  0  0  0  0  0  0  0  0  0  0
   22.6129   -7.1116   16.8406 H   0  0  0  0  0  0  0  0  0  0  0  0
   25.0050   -5.3568   16.7784 H   0  0  0  0  0  0  0  0  0  0  0  0
   25.0636   -5.9970   14.4616 H   0  0  0  0  0  0  0  0  0  0  0  0
   23.3764   -6.6106   14.5222 H   0  0  0  0  0  0  0  0  0  0  0  0
   24.3071   -8.2878   16.2974 H   0  0  0  0  0  0  0  0  0  0  0  0
   25.9132   -7.8491   15.6230 H   0  0  0  0  0  0  0  0  0  0  0  0
   25.0113   -9.8346   14.4861 H   0  0  0  0  0  0  0  0  0  0  0  0
   25.1009   -8.4460   13.3502 H   0  0  0  0  0  0  0  0  0  0  0  0
   22.5338   -8.5544   14.7171 H   0  0  0  0  0  0  0  0  0  0  0  0
   22.7945  -10.4893   11.1590 H   0  0  0  0  0  0  0  0  0  0  0  0
   24.2998  -10.0613   12.0155 H   0  0  0  0  0  0  0  0  0  0  0  0
   20.6854   -9.0653   13.6509 H   0  0  0  0  0  0  0  0  0  0  0  0
   20.7457   -9.9110   12.0813 H   0  0  0  0  0  0  0  0  0  0  0  0
   21.8065   -5.7340   15.2572 H   0  0  0  0  0  0  0  0  0  0  0  0
   21.5341   -2.8086   15.1503 H   0  0  0  0  0  0  0  0  0  0  0  0
   19.4358   -4.8169   14.1709 H   0  0  0  0  0  0  0  0  0  0  0  0
   20.5918   -4.5873   12.1468 H   0  0  0  0  0  0  0  0  0  0  0  0
   18.9547   -2.9072   12.6786 H   0  0  0  0  0  0  0  0  0  0  0  0
   20.3373   -2.0020   13.3824 H   0  0  0  0  0  0  0  0  0  0  0  0
   18.9069   -2.3888   14.3977 H   0  0  0  0  0  0  0  0  0  0  0  0
   19.5303   -1.9013   16.2448 H   0  0  0  0  0  0  0  0  0  0  0  0
   18.8623   -3.4418   18.6791 H   0  0  0  0  0  0  0  0  0  0  0  0
   20.5857   -0.9227   18.6750 H   0  0  0  0  0  0  0  0  0  0  0  0
   21.2597   -2.5853   18.7647 H   0  0  0  0  0  0  0  0  0  0  0  0
   20.1443   -2.8992   20.9371 H   0  0  0  0  0  0  0  0  0  0  0  0
   19.5319   -1.2128   20.8492 H   0  0  0  0  0  0  0  0  0  0  0  0
   21.6650   -1.4123   22.1585 H   0  0  0  0  0  0  0  0  0  0  0  0
   21.8166   -0.3436   20.7227 H   0  0  0  0  0  0  0  0  0  0  0  0
   22.8987   -3.1607   20.9525 H   0  0  0  0  0  0  0  0  0  0  0  0
   24.3258   -0.3198   18.3569 H   0  0  0  0  0  0  0  0  0  0  0  0
   22.8942    0.0499   19.3551 H   0  0  0  0  0  0  0  0  0  0  0  0
   24.6706   -3.6486   19.5922 H   0  0  0  0  0  0  0  0  0  0  0  0
   25.2566   -2.4441   18.4139 H   0  0  0  0  0  0  0  0  0  0  0  0
   17.6139   -2.1100   20.1367 H   0  0  0  0  0  0  0  0  0  0  0  0
   15.8766   -0.3085   18.6644 H   0  0  0  0  0  0  0  0  0  0  0  0
   14.6700   -1.8323   19.9859 H   0  0  0  0  0  0  0  0  0  0  0  0
   14.5635   -0.2501   20.8297 H   0  0  0  0  0  0  0  0  0  0  0  0
   14.8523   -1.7849   22.5509 H   0  0  0  0  0  0  0  0  0  0  0  0
   16.5003   -1.1195   22.2901 H   0  0  0  0  0  0  0  0  0  0  0  0
   15.6784   -5.0705   21.6137 H   0  0  0  0  0  0  0  0  0  0  0  0
   14.4095   -3.9272   21.9016 H   0  0  0  0  0  0  0  0  0  0  0  0
   15.2248    1.7316   19.6042 H   0  0  0  0  0  0  0  0  0  0  0  0
   15.6515    3.8840   20.0375 H   0  0  0  0  0  0  0  0  0  0  0  0
   17.4665    4.4408   21.8332 H   0  0  0  0  0  0  0  0  0  0  0  0
   17.4021    2.6760   22.1622 H   0  0  0  0  0  0  0  0  0  0  0  0
   14.9638    4.5040   22.1653 H   0  0  0  0  0  0  0  0  0  0  0  0
   15.9266    4.1041   23.6281 H   0  0  0  0  0  0  0  0  0  0  0  0
   14.5937    2.0315   21.8435 H   0  0  0  0  0  0  0  0  0  0  0  0
   13.8356    2.7375   23.3110 H   0  0  0  0  0  0  0  0  0  0  0  0
   16.5206    1.5740   23.7361 H   0  0  0  0  0  0  0  0  0  0  0  0
   13.1166   -0.4186   24.7961 H   0  0  0  0  0  0  0  0  0  0  0  0
   13.0084    0.9815   23.6958 H   0  0  0  0  0  0  0  0  0  0  0  0
   16.6561   -0.2007   25.1589 H   0  0  0  0  0  0  0  0  0  0  0  0
   15.1783   -1.0832   25.6284 H   0  0  0  0  0  0  0  0  0  0  0  0
   17.1148    2.4176   17.9786 H   0  0  0  0  0  0  0  0  0  0  0  0
   18.6159    4.7322   17.1418 H   0  0  0  0  0  0  0  0  0  0  0  0
   20.3926    3.6399   18.4637 H   0  0  0  0  0  0  0  0  0  0  0  0
   20.7805    3.7433   16.7129 H   0  0  0  0  0  0  0  0  0  0  0  0
   20.2785   -0.0258   16.5442 H   0  0  0  0  0  0  0  0  0  0  0  0
   19.3961    1.3102   15.8835 H   0  0  0  0  0  0  0  0  0  0  0  0
   18.7915    4.8458   14.9034 H   0  0  0  0  0  0  0  0  0  0  0  0
   17.2274    2.7513   13.5488 H   0  0  0  0  0  0  0  0  0  0  0  0
   16.8080    5.2518   13.1625 H   0  0  0  0  0  0  0  0  0  0  0  0
   16.9328    4.1836   11.7237 H   0  0  0  0  0  0  0  0  0  0  0  0
   17.9875    6.3236   11.3164 H   0  0  0  0  0  0  0  0  0  0  0  0
   19.1981    4.9967   11.3048 H   0  0  0  0  0  0  0  0  0  0  0  0
   18.0787    1.8960   11.4889 H   0  0  0  0  0  0  0  0  0  0  0  0
   20.9998    2.0249   11.2421 H   0  0  0  0  0  0  0  0  0  0  0  0
   19.5307   -0.6406   11.6491 H   0  0  0  0  0  0  0  0  0  0  0  0
   21.3810    0.7864   13.3229 H   0  0  0  0  0  0  0  0  0  0  0  0
   21.8119   -1.6122   11.6639 H   0  0  0  0  0  0  0  0  0  0  0  0
   22.5092    0.0079   11.3241 H   0  0  0  0  0  0  0  0  0  0  0  0
   21.4690   -0.7968   10.1005 H   0  0  0  0  0  0  0  0  0  0  0  0
   21.6938    1.7251    9.2107 H   0  0  0  0  0  0  0  0  0  0  0  0
   19.8124    1.8146    7.0353 H   0  0  0  0  0  0  0  0  0  0  0  0
   22.8339    1.3841    7.0887 H   0  0  0  0  0  0  0  0  0  0  0  0
   21.9857    2.9628    6.9671 H   0  0  0  0  0  0  0  0  0  0  0  0
   21.0976    2.3512    4.7769 H   0  0  0  0  0  0  0  0  0  0  0  0
   21.8491    0.7244    4.9014 H   0  0  0  0  0  0  0  0  0  0  0  0
   24.4561    2.1259    3.0057 H   0  0  0  0  0  0  0  0  0  0  0  0
   23.0831    1.0702    3.0205 H   0  0  0  0  0  0  0  0  0  0  0  0
   19.2332    0.2734    5.6628 H   0  0  0  0  0  0  0  0  0  0  0  0
   19.8121   -2.4775    6.4624 H   0  0  0  0  0  0  0  0  0  0  0  0
   17.9026   -3.0641    4.8707 H   0  0  0  0  0  0  0  0  0  0  0  0
   16.2194   -2.3866    6.5542 H   0  0  0  0  0  0  0  0  0  0  0  0
   17.3973   -1.2264    7.2566 H   0  0  0  0  0  0  0  0  0  0  0  0
   17.7245   -2.9913    7.3259 H   0  0  0  0  0  0  0  0  0  0  0  0
   17.8803   -0.9529    3.5801 H   0  0  0  0  0  0  0  0  0  0  0  0
   17.4454   -0.0488    5.0701 H   0  0  0  0  0  0  0  0  0  0  0  0
   16.3019   -1.2521    4.3837 H   0  0  0  0  0  0  0  0  0  0  0  0
  1  2  1  0  0  0  0
  1  5  1  0  0  0  0
  1 99  1  0  0  0  0
  1100  1  0  0  0  0
  2  3  1  0  0  0  0
  2  7  1  0  0  0  0
  2101  1  1  0  0  0
  3  4  1  0  0  0  0
  3102  1  0  0  0  0
  3103  1  0  0  0  0
  4  5  1  0  0  0  0
  4104  1  0  0  0  0
  4105  1  0  0  0  0
  5  6  1  0  0  0  0
  5106  1  6  0  0  0
  6107  1  0  0  0  0
  7  8  2  0  0  0  0
  7  9  1  0  0  0  0
  9 10  1  0  0  0  0
  9108  1  0  0  0  0
 10 11  1  0  0  0  0
 10 13  1  0  0  0  0
 10109  1  1  0  0  0
 11 12  2  0  0  0  0
 11 20  1  0  0  0  0
 13 14  1  0  0  0  0
 13110  1  0  0  0  0
 13111  1  0  0  0  0
 14 15  1  0  0  0  0
 14112  1  0  0  0  0
 14113  1  0  0  0  0
 15 16  1  0  0  0  0
 15114  1  0  0  0  0
 15115  1  0  0  0  0
 16 17  1  0  0  0  0
 16116  1  0  0  0  0
 17 18  1  0  0  0  0
 17 19  1  0  0  0  0
 18117  1  0  0  0  0
 18118  1  0  0  0  0
 19119  1  0  0  0  0
 19120  1  0  0  0  0
 20 21  1  0  0  0  0
 20121  1  0  0  0  0
 21 22  1  0  0  0  0
 21 24  1  0  0  0  0
 21122  1  6  0  0  0
 22 23  2  0  0  0  0
 22 27  1  0  0  0  0
 24 25  1  0  0  0  0
 24 26  1  0  0  0  0
 24123  1  1  0  0  0
 25124  1  0  0  0  0
 26125  1  0  0  0  0
 26126  1  0  0  0  0
 26127  1  0  0  0  0
 27 28  1  0  0  0  0
 27128  1  0  0  0  0
 28 29  1  0  0  0  0
 28 31  1  0  0  0  0
 28129  1  1  0  0  0
 29 30  2  0  0  0  0
 29 38  1  0  0  0  0
 31 32  1  0  0  0  0
 31130  1  0  0  0  0
 31131  1  0  0  0  0
 32 33  1  0  0  0  0
 32132  1  0  0  0  0
 32133  1  0  0  0  0
 33 34  1  0  0  0  0
 33134  1  0  0  0  0
 33135  1  0  0  0  0
 34 35  1  0  0  0  0
 34136  1  0  0  0  0
 35 36  1  0  0  0  0
 35 37  1  0  0  0  0
 36137  1  0  0  0  0
 36138  1  0  0  0  0
 37139  1  0  0  0  0
 37140  1  0  0  0  0
 38 39  1  0  0  0  0
 38141  1  0  0  0  0
 39 40  1  0  0  0  0
 39 42  1  0  0  0  0
 39142  1  6  0  0  0
 40 41  2  0  0  0  0
 40 47  1  0  0  0  0
 42 43  1  0  0  0  0
 42143  1  0  0  0  0
 42144  1  0  0  0  0
 43 44  1  0  0  0  0
 43145  1  0  0  0  0
 43146  1  0  0  0  0
 44 45  2  0  0  0  0
 44 46  1  0  0  0  0
 46147  1  0  0  0  0
 46148  1  0  0  0  0
 47 48  1  0  0  0  0
 47149  1  0  0  0  0
 48 49  1  0  0  0  0
 48 51  1  0  0  0  0
 48150  1  6  0  0  0
 49 50  2  0  0  0  0
 49 58  1  0  0  0  0
 51 52  1  0  0  0  0
 51151  1  0  0  0  0
 51152  1  0  0  0  0
 52 53  1  0  0  0  0
 52153  1  0  0  0  0
 52154  1  0  0  0  0
 53 54  1  0  0  0  0
 53155  1  0  0  0  0
 53156  1  0  0  0  0
 54 55  1  0  0  0  0
 54157  1  0  0  0  0
 55 56  1  0  0  0  0
 55 57  1  0  0  0  0
 56158  1  0  0  0  0
 56159  1  0  0  0  0
 57160  1  0  0  0  0
 57161  1  0  0  0  0
 58 59  1  0  0  0  0
 58162  1  0  0  0  0
 59 60  1  0  0  0  0
 59 62  1  0  0  0  0
 59163  1  6  0  0  0
 60 61  2  0  0  0  0
 60 66  1  0  0  0  0
 62 63  1  0  0  0  0
 62164  1  0  0  0  0
 62165  1  0  0  0  0
 63 64  2  0  0  0  0
 63 65  1  0  0  0  0
 65166  1  0  0  0  0
 65167  1  0  0  0  0
 66 67  1  0  0  0  0
 66168  1  0  0  0  0
 67 68  1  0  0  0  0
 67 70  1  0  0  0  0
 67169  1  1  0  0  0
 68 69  2  0  0  0  0
 68 75  1  0  0  0  0
 70 71  1  0  0  0  0
 70170  1  0  0  0  0
 70171  1  0  0  0  0
 71 72  1  0  0  0  0
 71172  1  0  0  0  0
 71173  1  0  0  0  0
 72 73  1  0  0  0  0
 72 74  2  0  0  0  0
 75 76  1  0  0  0  0
 75174  1  0  0  0  0
 76 77  1  0  0  0  0
 76 79  1  0  0  0  0
 76175  1  1  0  0  0
 77 78  2  0  0  0  0
 77 82  1  0  0  0  0
 79 80  1  0  0  0  0
 79 81  1  0  0  0  0
 79176  1  6  0  0  0
 80177  1  0  0  0  0
 81178  1  0  0  0  0
 81179  1  0  0  0  0
 81180  1  0  0  0  0
 82 83  1  0  0  0  0
 82181  1  0  0  0  0
 83 84  1  0  0  0  0
 83 86  1  0  0  0  0
 83182  1  6  0  0  0
 84 85  2  0  0  0  0
 84 91  1  0  0  0  0
 86 87  1  0  0  0  0
 86183  1  0  0  0  0
 86184  1  0  0  0  0
 87 88  1  0  0  0  0
 87185  1  0  0  0  0
 87186  1  0  0  0  0
 88 89  2  0  0  0  0
 88 90  1  0  0  0  0
 90187  1  0  0  0  0
 90188  1  0  0  0  0
 91 92  1  0  0  0  0
 91189  1  0  0  0  0
 92 93  1  0  0  0  0
 92 95  1  0  0  0  0
 92190  1  1  0  0  0
 93 94  1  0  0  0  0
 93 98  2  0  0  0  0
 95 96  1  0  0  0  0
 95 97  1  0  0  0  0
 95191  1  0  0  0  0
 96192  1  0  0  0  0
 96193  1  0  0  0  0
 96194  1  0  0  0  0
 97195  1  0  0  0  0
 97196  1  0  0  0  0
 97197  1  0  0  0  0
M  CHG  3   1   1  73  -1  94  -1
M  END
