2m3o_ligand
 OpenBabel08222323343D

150153  0  0  1  0  0  0  0  0999 V2000
  -12.5700  -25.8520    1.0060 N   0  3  0  0  0  0  0  0  0  0  0  0
  -12.3990  -27.2490    1.3850 C   0  0  2  0  0  0  0  0  0  0  0  0
  -11.6170  -28.0140    0.3180 C   0  0  0  0  0  0  0  0  0  0  0  0
  -11.0170  -29.0550    0.5910 O   0  0  0  0  0  0  0  0  0  0  0  0
  -13.7680  -27.9180    1.6070 C   0  0  2  0  0  0  0  0  0  0  0  0
  -14.6300  -27.6340    0.4950 O   0  0  0  0  0  0  0  0  0  0  0  0
  -14.4090  -27.4200    2.8960 C   0  0  0  0  0  0  0  0  0  0  0  0
  -11.6330  -27.4850   -0.8960 N   0  0  0  0  0  0  0  0  0  0  0  0
  -10.9390  -28.1010   -2.0140 C   0  0  2  0  0  0  0  0  0  0  0  0
   -9.9740  -27.1070   -2.6540 C   0  0  0  0  0  0  0  0  0  0  0  0
  -10.2550  -25.9090   -2.7020 O   0  0  0  0  0  0  0  0  0  0  0  0
  -11.9410  -28.6090   -3.0440 C   0  0  0  0  0  0  0  0  0  0  0  0
   -8.8200  -27.5820   -3.1370 N   0  0  0  0  0  0  0  0  0  0  0  0
   -7.8420  -26.7340   -3.8160 C   0  0  2  0  0  0  0  0  0  0  0  0
   -8.2300  -26.4780   -5.2720 C   0  0  0  0  0  0  0  0  0  0  0  0
   -8.8960  -27.3030   -5.8980 O   0  0  0  0  0  0  0  0  0  0  0  0
   -6.5580  -27.5600   -3.7320 C   0  0  0  0  0  0  0  0  0  0  0  0
   -7.0220  -28.9770   -3.7270 C   0  0  0  0  0  0  0  0  0  0  0  0
   -8.3730  -28.9840   -3.0560 C   0  0  0  0  0  0  0  0  0  0  0  0
   -7.8320  -25.3320   -5.8310 N   0  0  0  0  0  0  0  0  0  0  0  0
   -8.1450  -24.9960   -7.2130 C   0  0  2  0  0  0  0  0  0  0  0  0
   -7.1890  -25.6670   -8.1950 C   0  0  0  0  0  0  0  0  0  0  0  0
   -6.0310  -25.9310   -7.8600 O   0  0  0  0  0  0  0  0  0  0  0  0
   -7.9820  -23.4800   -7.2430 C   0  0  0  0  0  0  0  0  0  0  0  0
   -6.9550  -23.1830   -6.2040 C   0  0  0  0  0  0  0  0  0  0  0  0
   -7.0520  -24.2750   -5.1650 C   0  0  0  0  0  0  0  0  0  0  0  0
   -7.6670  -25.9620   -9.4150 N   0  0  0  0  0  0  0  0  0  0  0  0
   -6.8470  -26.5860  -10.4560 C   0  0  2  0  0  0  0  0  0  0  0  0
   -5.6380  -25.7330  -10.8220 C   0  0  0  0  0  0  0  0  0  0  0  0
   -5.7360  -24.5070  -10.9050 O   0  0  0  0  0  0  0  0  0  0  0  0
   -7.7940  -26.6930  -11.6570 C   0  0  0  0  0  0  0  0  0  0  0  0
   -8.8960  -25.7340  -11.3720 C   0  0  0  0  0  0  0  0  0  0  0  0
   -9.0420  -25.7140   -9.8800 C   0  0  0  0  0  0  0  0  0  0  0  0
   -4.5070  -26.3860  -11.0400 N   0  0  0  0  0  0  0  0  0  0  0  0
   -3.2770  -25.6940  -11.3910 C   0  0  2  0  0  0  0  0  0  0  0  0
   -3.3710  -25.0810  -12.7840 C   0  0  0  0  0  0  0  0  0  0  0  0
   -4.2350  -25.4460  -13.5840 O   0  0  0  0  0  0  0  0  0  0  0  0
   -2.0940  -26.6470  -11.3020 C   0  0  0  0  0  0  0  0  0  0  0  0
   -2.4600  -24.1650  -13.0680 N   0  0  0  0  0  0  0  0  0  0  0  0
   -2.4410  -23.4450  -14.3350 C   0  0  2  0  0  0  0  0  0  0  0  0
   -2.2540  -24.4030  -15.5080 C   0  0  0  0  0  0  0  0  0  0  0  0
   -2.8890  -24.2540  -16.5530 O   0  0  0  0  0  0  0  0  0  0  0  0
   -1.3230  -22.3980  -14.3130 C   0  0  0  0  0  0  0  0  0  0  0  0
   -1.2070  -21.5900  -15.5840 C   0  0  0  0  0  0  0  0  0  0  0  0
   -2.1810  -20.6650  -15.9300 C   0  0  0  0  0  0  0  0  0  0  0  0
   -0.1200  -21.7520  -16.4340 C   0  0  0  0  0  0  0  0  0  0  0  0
   -2.0770  -19.9220  -17.0890 C   0  0  0  0  0  0  0  0  0  0  0  0
   -0.0090  -21.0130  -17.5940 C   0  0  0  0  0  0  0  0  0  0  0  0
   -0.9880  -20.1000  -17.9180 C   0  0  0  0  0  0  0  0  0  0  0  0
   -0.8790  -19.3610  -19.0740 O   0  0  0  0  0  0  0  0  0  0  0  0
   -1.3970  -25.3950  -15.3160 N   0  0  0  0  0  0  0  0  0  0  0  0
   -1.1300  -26.3890  -16.3520 C   0  0  2  0  0  0  0  0  0  0  0  0
   -2.2820  -27.3780  -16.4410 C   0  0  0  0  0  0  0  0  0  0  0  0
   -2.4690  -28.0580  -17.4470 O   0  0  0  0  0  0  0  0  0  0  0  0
    0.1730  -27.1200  -16.0650 C   0  0  0  0  0  0  0  0  0  0  0  0
   -3.0530  -27.4420  -15.3690 N   0  0  0  0  0  0  0  0  0  0  0  0
   -4.1960  -28.3330  -15.2790 C   0  0  2  0  0  0  0  0  0  0  0  0
   -5.3880  -27.7670  -16.0450 C   0  0  0  0  0  0  0  0  0  0  0  0
   -6.1450  -28.5020  -16.6770 O   0  0  0  0  0  0  0  0  0  0  0  0
   -4.5850  -28.5400  -13.8020 C   0  0  2  0  0  0  0  0  0  0  0  0
   -3.4840  -29.1180  -13.0930 O   0  0  0  0  0  0  0  0  0  0  0  0
   -5.8050  -29.4320  -13.6590 C   0  0  0  0  0  0  0  0  0  0  0  0
   -5.5400  -26.4530  -15.9890 N   0  0  0  0  0  0  0  0  0  0  0  0
   -6.6610  -25.7820  -16.6310 C   0  0  2  0  0  0  0  0  0  0  0  0
   -6.3210  -25.3700  -18.0620 C   0  0  0  0  0  0  0  0  0  0  0  0
   -7.1830  -24.8920  -18.8010 O   0  0  0  0  0  0  0  0  0  0  0  0
   -7.0910  -24.5720  -15.7880 C   0  0  0  0  0  0  0  0  0  0  0  0
   -5.9950  -23.5450  -15.4870 C   0  0  0  0  0  0  0  0  0  0  0  0
   -5.8730  -22.5190  -16.6040 C   0  0  0  0  0  0  0  0  0  0  0  0
   -6.2700  -22.8660  -14.1590 C   0  0  0  0  0  0  0  0  0  0  0  0
   -5.0660  -25.5550  -18.4500 N   0  0  0  0  0  0  0  0  0  0  0  0
   -4.6430  -25.1960  -19.7900 C   0  0  0  0  0  0  0  0  0  0  0  0
   -4.4510  -26.4110  -20.6720 C   0  0  0  0  0  0  0  0  0  0  0  0
   -4.2497  -27.5413  -20.1528 O   0  5  0  0  0  0  0  0  0  0  0  0
   -4.4925  -26.2920  -21.9257 O   0  0  0  0  0  0  0  0  0  0  0  0
  -11.6660  -25.4292    0.8646 H   0  0  0  0  0  0  0  0  0  0  0  0
  -13.0589  -25.3624    1.7390 H   0  0  0  0  0  0  0  0  0  0  0  0
  -13.1032  -25.7983    0.1523 H   0  0  0  0  0  0  0  0  0  0  0  0
  -11.8327  -27.2862    2.3273 H   0  0  0  0  0  0  0  0  0  0  0  0
  -13.6238  -29.0060    1.6801 H   0  0  0  0  0  0  0  0  0  0  0  0
  -15.4733  -28.0483    0.6356 H   0  0  0  0  0  0  0  0  0  0  0  0
  -15.3840  -27.9103    3.0339 H   0  0  0  0  0  0  0  0  0  0  0  0
  -14.5513  -26.3308    2.8378 H   0  0  0  0  0  0  0  0  0  0  0  0
  -13.7547  -27.6593    3.7472 H   0  0  0  0  0  0  0  0  0  0  0  0
  -12.1383  -26.6355   -1.0479 H   0  0  0  0  0  0  0  0  0  0  0  0
  -10.3600  -28.9572   -1.6376 H   0  0  0  0  0  0  0  0  0  0  0  0
  -11.4013  -29.0721   -3.8832 H   0  0  0  0  0  0  0  0  0  0  0  0
  -12.5436  -27.7671   -3.4156 H   0  0  0  0  0  0  0  0  0  0  0  0
  -12.6012  -29.3545   -2.5767 H   0  0  0  0  0  0  0  0  0  0  0  0
   -7.7281  -25.7719   -3.2950 H   0  0  0  0  0  0  0  0  0  0  0  0
   -6.0071  -27.3286   -2.8085 H   0  0  0  0  0  0  0  0  0  0  0  0
   -5.9135  -27.3655   -4.6020 H   0  0  0  0  0  0  0  0  0  0  0  0
   -6.3157  -29.6060   -3.1653 H   0  0  0  0  0  0  0  0  0  0  0  0
   -7.1078  -29.3522   -4.7574 H   0  0  0  0  0  0  0  0  0  0  0  0
   -9.0702  -29.6478   -3.5882 H   0  0  0  0  0  0  0  0  0  0  0  0
   -8.2871  -29.3069   -2.0080 H   0  0  0  0  0  0  0  0  0  0  0  0
   -9.1773  -25.2852   -7.4595 H   0  0  0  0  0  0  0  0  0  0  0  0
   -8.9331  -22.9838   -6.9997 H   0  0  0  0  0  0  0  0  0  0  0  0
   -7.6377  -23.1475   -8.2334 H   0  0  0  0  0  0  0  0  0  0  0  0
   -7.1550  -22.2042   -5.7436 H   0  0  0  0  0  0  0  0  0  0  0  0
   -5.9516  -23.1781   -6.6547 H   0  0  0  0  0  0  0  0  0  0  0  0
   -6.0524  -24.6418   -4.8888 H   0  0  0  0  0  0  0  0  0  0  0  0
   -7.5715  -23.9136   -4.2653 H   0  0  0  0  0  0  0  0  0  0  0  0
   -6.5065  -27.5810  -10.1336 H   0  0  0  0  0  0  0  0  0  0  0  0
   -8.1872  -27.7163  -11.7482 H   0  0  0  0  0  0  0  0  0  0  0  0
   -7.2725  -26.4165  -12.5852 H   0  0  0  0  0  0  0  0  0  0  0  0
   -9.8302  -26.0722  -11.8441 H   0  0  0  0  0  0  0  0  0  0  0  0
   -8.6383  -24.7319  -11.7454 H   0  0  0  0  0  0  0  0  0  0  0  0
   -9.4084  -24.7374   -9.5307 H   0  0  0  0  0  0  0  0  0  0  0  0
   -9.7249  -26.5056   -9.5380 H   0  0  0  0  0  0  0  0  0  0  0  0
   -4.4983  -27.3828  -10.9611 H   0  0  0  0  0  0  0  0  0  0  0  0
   -3.1209  -24.8800  -10.6678 H   0  0  0  0  0  0  0  0  0  0  0  0
   -1.1710  -26.1117  -11.5696 H   0  0  0  0  0  0  0  0  0  0  0  0
   -2.2459  -27.4860  -11.9970 H   0  0  0  0  0  0  0  0  0  0  0  0
   -2.0098  -27.0321  -10.2751 H   0  0  0  0  0  0  0  0  0  0  0  0
   -1.7573  -23.9586  -12.3871 H   0  0  0  0  0  0  0  0  0  0  0  0
   -3.4044  -22.9289  -14.4590 H   0  0  0  0  0  0  0  0  0  0  0  0
   -0.3676  -22.9168  -14.1456 H   0  0  0  0  0  0  0  0  0  0  0  0
   -1.5151  -21.7055  -13.4802 H   0  0  0  0  0  0  0  0  0  0  0  0
   -3.0371  -20.5233  -15.2803 H   0  0  0  0  0  0  0  0  0  0  0  0
    0.6524  -22.4696  -16.1822 H   0  0  0  0  0  0  0  0  0  0  0  0
   -2.8463  -19.2029  -17.3464 H   0  0  0  0  0  0  0  0  0  0  0  0
    0.8450  -21.1504  -18.2474 H   0  0  0  0  0  0  0  0  0  0  0  0
   -1.6288  -18.7827  -19.1507 H   0  0  0  0  0  0  0  0  0  0  0  0
   -0.9209  -25.4648  -14.4394 H   0  0  0  0  0  0  0  0  0  0  0  0
   -1.0358  -25.8718  -17.3182 H   0  0  0  0  0  0  0  0  0  0  0  0
    0.3577  -27.8636  -16.8542 H   0  0  0  0  0  0  0  0  0  0  0  0
    0.1018  -27.6281  -15.0920 H   0  0  0  0  0  0  0  0  0  0  0  0
    1.0016  -26.3969  -16.0413 H   0  0  0  0  0  0  0  0  0  0  0  0
   -2.8406  -26.8533  -14.5890 H   0  0  0  0  0  0  0  0  0  0  0  0
   -3.9220  -29.3043  -15.7166 H   0  0  0  0  0  0  0  0  0  0  0  0
   -4.8172  -27.5589  -13.3620 H   0  0  0  0  0  0  0  0  0  0  0  0
   -3.7261  -29.2446  -12.1831 H   0  0  0  0  0  0  0  0  0  0  0  0
   -6.0476  -29.5533  -12.5930 H   0  0  0  0  0  0  0  0  0  0  0  0
   -5.5931  -30.4167  -14.1011 H   0  0  0  0  0  0  0  0  0  0  0  0
   -6.6583  -28.9724  -14.1792 H   0  0  0  0  0  0  0  0  0  0  0  0
   -4.8661  -25.9064  -15.4919 H   0  0  0  0  0  0  0  0  0  0  0  0
   -7.5039  -26.4874  -16.6745 H   0  0  0  0  0  0  0  0  0  0  0  0
   -7.4733  -24.9485  -14.8278 H   0  0  0  0  0  0  0  0  0  0  0  0
   -7.8987  -24.0552  -16.3270 H   0  0  0  0  0  0  0  0  0  0  0  0
   -5.0365  -24.0790  -15.4095 H   0  0  0  0  0  0  0  0  0  0  0  0
   -5.0791  -21.7992  -16.3556 H   0  0  0  0  0  0  0  0  0  0  0  0
   -6.8284  -21.9861  -16.7184 H   0  0  0  0  0  0  0  0  0  0  0  0
   -5.6231  -23.0299  -17.5455 H   0  0  0  0  0  0  0  0  0  0  0  0
   -6.3539  -23.6266  -13.3688 H   0  0  0  0  0  0  0  0  0  0  0  0
   -7.2109  -22.3000  -14.2245 H   0  0  0  0  0  0  0  0  0  0  0  0
   -5.4446  -22.1791  -13.9205 H   0  0  0  0  0  0  0  0  0  0  0  0
   -4.4039  -25.9466  -17.8111 H   0  0  0  0  0  0  0  0  0  0  0  0
   -3.6903  -24.6498  -19.7267 H   0  0  0  0  0  0  0  0  0  0  0  0
   -5.4082  -24.5475  -20.2416 H   0  0  0  0  0  0  0  0  0  0  0  0
  1  2  1  0  0  0  0
  1 76  1  0  0  0  0
  1 77  1  0  0  0  0
  1 78  1  0  0  0  0
  2  3  1  0  0  0  0
  2  5  1  0  0  0  0
  2 79  1  1  0  0  0
  3  4  2  0  0  0  0
  3  8  1  0  0  0  0
  5  6  1  0  0  0  0
  5  7  1  0  0  0  0
  5 80  1  1  0  0  0
  6 81  1  0  0  0  0
  7 82  1  0  0  0  0
  7 83  1  0  0  0  0
  7 84  1  0  0  0  0
  8  9  1  0  0  0  0
  8 85  1  0  0  0  0
  9 10  1  0  0  0  0
  9 12  1  0  0  0  0
  9 86  1  1  0  0  0
 10 11  2  0  0  0  0
 10 13  1  0  0  0  0
 12 87  1  0  0  0  0
 12 88  1  0  0  0  0
 12 89  1  0  0  0  0
 13 14  1  0  0  0  0
 13 19  1  0  0  0  0
 14 15  1  0  0  0  0
 14 17  1  0  0  0  0
 14 90  1  1  0  0  0
 15 16  2  0  0  0  0
 15 20  1  0  0  0  0
 17 18  1  0  0  0  0
 17 91  1  0  0  0  0
 17 92  1  0  0  0  0
 18 19  1  0  0  0  0
 18 93  1  0  0  0  0
 18 94  1  0  0  0  0
 19 95  1  0  0  0  0
 19 96  1  0  0  0  0
 20 21  1  0  0  0  0
 20 26  1  0  0  0  0
 21 22  1  0  0  0  0
 21 24  1  0  0  0  0
 21 97  1  6  0  0  0
 22 23  2  0  0  0  0
 22 27  1  0  0  0  0
 24 25  1  0  0  0  0
 24 98  1  0  0  0  0
 24 99  1  0  0  0  0
 25 26  1  0  0  0  0
 25100  1  0  0  0  0
 25101  1  0  0  0  0
 26102  1  0  0  0  0
 26103  1  0  0  0  0
 27 28  1  0  0  0  0
 27 33  1  0  0  0  0
 28 29  1  0  0  0  0
 28 31  1  0  0  0  0
 28104  1  1  0  0  0
 29 30  2  0  0  0  0
 29 34  1  0  0  0  0
 31 32  1  0  0  0  0
 31105  1  0  0  0  0
 31106  1  0  0  0  0
 32 33  1  0  0  0  0
 32107  1  0  0  0  0
 32108  1  0  0  0  0
 33109  1  0  0  0  0
 33110  1  0  0  0  0
 34 35  1  0  0  0  0
 34111  1  0  0  0  0
 35 36  1  0  0  0  0
 35 38  1  0  0  0  0
 35112  1  1  0  0  0
 36 37  2  0  0  0  0
 36 39  1  0  0  0  0
 38113  1  0  0  0  0
 38114  1  0  0  0  0
 38115  1  0  0  0  0
 39 40  1  0  0  0  0
 39116  1  0  0  0  0
 40 41  1  0  0  0  0
 40 43  1  0  0  0  0
 40117  1  6  0  0  0
 41 42  2  0  0  0  0
 41 51  1  0  0  0  0
 43 44  1  0  0  0  0
 43118  1  0  0  0  0
 43119  1  0  0  0  0
 44 45  2  0  0  0  0
 44 46  1  0  0  0  0
 45 47  1  0  0  0  0
 45120  1  0  0  0  0
 46 48  2  0  0  0  0
 46121  1  0  0  0  0
 47 49  2  0  0  0  0
 47122  1  0  0  0  0
 48 49  1  0  0  0  0
 48123  1  0  0  0  0
 49 50  1  0  0  0  0
 50124  1  0  0  0  0
 51 52  1  0  0  0  0
 51125  1  0  0  0  0
 52 53  1  0  0  0  0
 52 55  1  0  0  0  0
 52126  1  6  0  0  0
 53 54  2  0  0  0  0
 53 56  1  0  0  0  0
 55127  1  0  0  0  0
 55128  1  0  0  0  0
 55129  1  0  0  0  0
 56 57  1  0  0  0  0
 56130  1  0  0  0  0
 57 58  1  0  0  0  0
 57 60  1  0  0  0  0
 57131  1  6  0  0  0
 58 59  2  0  0  0  0
 58 63  1  0  0  0  0
 60 61  1  0  0  0  0
 60 62  1  0  0  0  0
 60132  1  1  0  0  0
 61133  1  0  0  0  0
 62134  1  0  0  0  0
 62135  1  0  0  0  0
 62136  1  0  0  0  0
 63 64  1  0  0  0  0
 63137  1  0  0  0  0
 64 65  1  0  0  0  0
 64 67  1  0  0  0  0
 64138  1  6  0  0  0
 65 66  2  0  0  0  0
 65 71  1  0  0  0  0
 67 68  1  0  0  0  0
 67139  1  0  0  0  0
 67140  1  0  0  0  0
 68 69  1  0  0  0  0
 68 70  1  0  0  0  0
 68141  1  0  0  0  0
 69142  1  0  0  0  0
 69143  1  0  0  0  0
 69144  1  0  0  0  0
 70145  1  0  0  0  0
 70146  1  0  0  0  0
 70147  1  0  0  0  0
 71 72  1  0  0  0  0
 71148  1  0  0  0  0
 72 73  1  0  0  0  0
 72149  1  0  0  0  0
 72150  1  0  0  0  0
 73 74  1  0  0  0  0
 73 75  2  0  0  0  0
M  CHG  2   1   1  74  -1
M  END
