2m41_ligand
 OpenBabel08222323343D

245252  0  0  1  0  0  0  0  0999 V2000
  -18.8950   -4.7600   -5.2090 N   0  3  0  0  0  0  0  0  0  0  0  0
  -17.5860   -4.6490   -4.5220 C   0  0  2  0  0  0  0  0  0  0  0  0
  -16.4780   -4.3200   -5.5010 C   0  0  0  0  0  0  0  0  0  0  0  0
  -16.6870   -4.2720   -6.7120 O   0  0  0  0  0  0  0  0  0  0  0  0
  -17.1910   -5.9530   -3.8030 C   0  0  0  0  0  0  0  0  0  0  0  0
  -18.0490   -6.1950   -2.5850 C   0  0  0  0  0  0  0  0  0  0  0  0
  -17.2650   -7.1370   -4.7530 C   0  0  0  0  0  0  0  0  0  0  0  0
  -15.2970   -4.0960   -4.9550 N   0  0  0  0  0  0  0  0  0  0  0  0
  -14.1030   -3.9120   -5.7510 C   0  0  2  0  0  0  0  0  0  0  0  0
  -13.0750   -4.9580   -5.3710 C   0  0  0  0  0  0  0  0  0  0  0  0
  -12.9280   -5.2750   -4.1860 O   0  0  0  0  0  0  0  0  0  0  0  0
  -13.5290   -2.5110   -5.5410 C   0  0  0  0  0  0  0  0  0  0  0  0
  -14.1190   -1.4930   -6.4660 C   0  0  0  0  0  0  0  0  0  0  0  0
  -15.4680   -1.1990   -6.4230 C   0  0  0  0  0  0  0  0  0  0  0  0
  -13.3230   -0.8450   -7.3900 C   0  0  0  0  0  0  0  0  0  0  0  0
  -16.0150   -0.2730   -7.2830 C   0  0  0  0  0  0  0  0  0  0  0  0
  -13.8620    0.0820   -8.2570 C   0  0  0  0  0  0  0  0  0  0  0  0
  -15.2100    0.3700   -8.2030 C   0  0  0  0  0  0  0  0  0  0  0  0
  -12.3810   -5.5360   -6.3660 N   0  0  0  0  0  0  0  0  0  0  0  0
  -11.2870   -6.4730   -6.1170 C   0  0  2  0  0  0  0  0  0  0  0  0
  -10.2830   -5.8590   -5.1550 C   0  0  0  0  0  0  0  0  0  0  0  0
   -9.8000   -4.7470   -5.3950 O   0  0  0  0  0  0  0  0  0  0  0  0
  -10.6660   -6.6800   -7.5000 C   0  0  0  0  0  0  0  0  0  0  0  0
  -11.7570   -6.3670   -8.4620 C   0  0  0  0  0  0  0  0  0  0  0  0
  -12.6100   -5.3160   -7.8070 C   0  0  0  0  0  0  0  0  0  0  0  0
   -9.9800   -6.5800   -4.0770 N   0  0  0  0  0  0  0  0  0  0  0  0
   -9.2410   -6.0290   -2.9490 C   0  0  2  0  0  0  0  0  0  0  0  0
   -7.9550   -5.2960   -3.3460 C   0  0  0  0  0  0  0  0  0  0  0  0
   -7.5200   -4.3880   -2.6360 O   0  0  0  0  0  0  0  0  0  0  0  0
   -8.9470   -7.1090   -1.9080 C   0  0  0  0  0  0  0  0  0  0  0  0
   -8.3040   -8.3420   -2.4580 C   0  0  0  0  0  0  0  0  0  0  0  0
   -8.9100   -9.3440   -3.1580 C   0  0  0  0  0  0  0  0  0  0  0  0
   -6.9370   -8.7200   -2.3200 C   0  0  0  0  0  0  0  0  0  0  0  0
   -7.9960  -10.3100   -3.4850 N   0  0  0  0  0  0  0  0  0  0  0  0
   -6.7770   -9.9510   -2.9780 C   0  0  0  0  0  0  0  0  0  0  0  0
   -5.8280   -8.1320   -1.7120 C   0  0  0  0  0  0  0  0  0  0  0  0
   -5.5550  -10.6040   -3.0390 C   0  0  0  0  0  0  0  0  0  0  0  0
   -4.6160   -8.7840   -1.7760 C   0  0  0  0  0  0  0  0  0  0  0  0
   -4.4890  -10.0090   -2.4350 C   0  0  0  0  0  0  0  0  0  0  0  0
   -7.3360   -5.6770   -4.4670 N   0  0  0  0  0  0  0  0  0  0  0  0
   -6.2020   -4.9210   -4.9890 C   0  0  2  0  0  0  0  0  0  0  0  0
   -6.6640   -3.5650   -5.5480 C   0  0  0  0  0  0  0  0  0  0  0  0
   -6.6580   -3.3260   -6.7520 O   0  0  0  0  0  0  0  0  0  0  0  0
   -5.4390   -5.7290   -6.0530 C   0  0  0  0  0  0  0  0  0  0  0  0
   -6.2340   -6.0940   -7.2790 C   0  0  0  0  0  0  0  0  0  0  0  0
   -6.1050   -5.4380   -8.4860 N   0  0  0  0  0  0  0  0  0  0  0  0
   -7.1500   -7.0670   -7.4840 C   0  0  0  0  0  0  0  0  0  0  0  0
   -6.9050   -5.9920   -9.3760 C   0  0  0  0  0  0  0  0  0  0  0  0
   -7.5520   -6.9840   -8.7930 N   0  0  0  0  0  0  0  0  0  0  0  0
   -7.0820   -2.6840   -4.6590 N   0  0  0  0  0  0  0  0  0  0  0  0
   -7.5940   -1.3830   -5.0520 C   0  0  2  0  0  0  0  0  0  0  0  0
   -6.8120   -0.2620   -4.3600 C   0  0  0  0  0  0  0  0  0  0  0  0
   -6.8480    0.8930   -4.7790 O   0  0  0  0  0  0  0  0  0  0  0  0
   -9.0890   -1.3110   -4.6980 C   0  0  0  0  0  0  0  0  0  0  0  0
   -9.6550   -0.0490   -5.0110 O   0  0  0  0  0  0  0  0  0  0  0  0
   -6.0870   -0.6230   -3.3110 N   0  0  0  0  0  0  0  0  0  0  0  0
   -5.4190    0.3550   -2.4520 C   0  0  2  0  0  0  0  0  0  0  0  0
   -3.9990   -0.0910   -2.1240 C   0  0  0  0  0  0  0  0  0  0  0  0
   -3.2710    0.6100   -1.4310 O   0  0  0  0  0  0  0  0  0  0  0  0
   -6.2200    0.5310   -1.1610 C   0  0  0  0  0  0  0  0  0  0  0  0
   -7.3270   -0.5090   -0.9540 C   0  0  0  0  0  0  0  0  0  0  0  0
   -7.5340   -0.7910    0.5150 C   0  0  0  0  0  0  0  0  0  0  0  0
   -8.6360   -0.0360   -1.5730 C   0  0  0  0  0  0  0  0  0  0  0  0
   -3.6100   -1.2610   -2.6210 N   0  0  0  0  0  0  0  0  0  0  0  0
   -2.2820   -1.7790   -2.3820 C   0  0  2  0  0  0  0  0  0  0  0  0
   -1.3550   -1.4080   -3.5410 C   0  0  0  0  0  0  0  0  0  0  0  0
   -1.5240   -1.8800   -4.6670 O   0  0  0  0  0  0  0  0  0  0  0  0
   -2.3090   -3.3140   -2.1630 C   0  0  0  0  0  0  0  0  0  0  0  0
   -3.0430   -4.0320   -3.2890 C   0  0  0  0  0  0  0  0  0  0  0  0
   -0.9040   -3.8540   -2.0210 C   0  0  0  0  0  0  0  0  0  0  0  0
   -0.3890   -0.5190   -3.2870 N   0  0  0  0  0  0  0  0  0  0  0  0
    0.5540   -0.0750   -4.2990 C   0  0  2  0  0  0  0  0  0  0  0  0
    1.7670   -0.9880   -4.3800 C   0  0  0  0  0  0  0  0  0  0  0  0
    1.9670   -1.8570   -3.5290 O   0  0  0  0  0  0  0  0  0  0  0  0
    0.9520    1.3070   -3.7930 C   0  0  0  0  0  0  0  0  0  0  0  0
    0.8990    1.1890   -2.3080 C   0  0  0  0  0  0  0  0  0  0  0  0
   -0.1310    0.1270   -1.9900 C   0  0  0  0  0  0  0  0  0  0  0  0
    2.5730   -0.7890   -5.4020 N   0  0  0  0  0  0  0  0  0  0  0  0
    3.7650   -1.5870   -5.5850 C   0  0  2  0  0  0  0  0  0  0  0  0
    4.9790   -0.6840   -5.4680 C   0  0  0  0  0  0  0  0  0  0  0  0
    4.9930    0.4120   -6.0270 O   0  0  0  0  0  0  0  0  0  0  0  0
    3.7470   -2.2750   -6.9550 C   0  0  0  0  0  0  0  0  0  0  0  0
    2.3800   -2.7310   -7.3900 C   0  0  0  0  0  0  0  0  0  0  0  0
    1.6220   -3.5780   -6.5930 C   0  0  0  0  0  0  0  0  0  0  0  0
    1.8520   -2.3060   -8.5980 C   0  0  0  0  0  0  0  0  0  0  0  0
    0.3650   -3.9880   -6.9970 C   0  0  0  0  0  0  0  0  0  0  0  0
    0.5970   -2.7150   -9.0060 C   0  0  0  0  0  0  0  0  0  0  0  0
   -0.1480   -3.5560   -8.2040 C   0  0  0  0  0  0  0  0  0  0  0  0
    5.9920   -1.1340   -4.7430 N   0  0  0  0  0  0  0  0  0  0  0  0
    7.2010   -0.3390   -4.5540 C   0  0  2  0  0  0  0  0  0  0  0  0
    8.1150   -0.4520   -5.7820 C   0  0  0  0  0  0  0  0  0  0  0  0
    9.3350   -0.5010   -5.6690 O   0  0  0  0  0  0  0  0  0  0  0  0
    7.9130   -0.7170   -3.2160 C   0  0  0  0  0  0  0  0  0  0  0  0
    8.6170   -2.0960   -3.0590 C   0  0  0  0  0  0  0  0  0  0  0  0
    7.9040   -3.2170   -3.7920 C   0  0  0  0  0  0  0  0  0  0  0  0
   10.0860   -2.0200   -3.4660 C   0  0  0  0  0  0  0  0  0  0  0  0
    7.4840   -0.4230   -6.9640 N   0  0  0  0  0  0  0  0  0  0  0  0
    8.1420   -0.7130   -8.2390 C   0  0  2  0  0  0  0  0  0  0  0  0
    8.4460   -2.2060   -8.3360 C   0  0  0  0  0  0  0  0  0  0  0  0
    8.4500   -2.9050   -7.3220 O   0  0  0  0  0  0  0  0  0  0  0  0
    9.4060    0.1270   -8.4160 C   0  0  0  0  0  0  0  0  0  0  0  0
    8.6430   -2.7310   -9.5600 N   0  0  0  0  0  0  0  0  0  0  0  0
    9.0130   -4.1320   -9.7670 C   0  0  2  0  0  0  0  0  0  0  0  0
   10.2100   -4.5340   -8.9130 C   0  0  0  0  0  0  0  0  0  0  0  0
   11.3540   -4.1860   -9.2170 O   0  0  0  0  0  0  0  0  0  0  0  0
    9.3630   -4.2120  -11.2600 C   0  0  0  0  0  0  0  0  0  0  0  0
    9.4060   -2.7990  -11.7430 C   0  0  0  0  0  0  0  0  0  0  0  0
    8.5010   -2.0220  -10.8370 C   0  0  0  0  0  0  0  0  0  0  0  0
    9.9290   -5.2450   -7.8330 N   0  0  0  0  0  0  0  0  0  0  0  0
   10.9530   -5.6770   -6.9050 C   0  0  2  0  0  0  0  0  0  0  0  0
   11.8270   -6.7650   -7.5210 C   0  0  0  0  0  0  0  0  0  0  0  0
   11.4550   -7.3890   -8.5180 O   0  0  0  0  0  0  0  0  0  0  0  0
   10.2970   -6.1690   -5.6130 C   0  0  0  0  0  0  0  0  0  0  0  0
    9.1890   -7.0100   -5.8950 O   0  0  0  0  0  0  0  0  0  0  0  0
   12.9920   -6.9720   -6.9360 N   0  0  0  0  0  0  0  0  0  0  0  0
   13.9280   -7.9560   -7.4290 C   0  0  2  0  0  0  0  0  0  0  0  0
   13.8520   -9.2330   -6.6050 C   0  0  0  0  0  0  0  0  0  0  0  0
   13.3070  -10.2320   -7.1180 O   0  5  0  0  0  0  0  0  0  0  0  0
   15.3500   -7.3820   -7.4530 C   0  0  0  0  0  0  0  0  0  0  0  0
   15.7440   -6.6340   -6.1860 C   0  0  0  0  0  0  0  0  0  0  0  0
   17.0540   -5.8880   -6.3390 C   0  0  0  0  0  0  0  0  0  0  0  0
   17.9410   -6.3060   -7.0860 O   0  0  0  0  0  0  0  0  0  0  0  0
   17.1820   -4.7720   -5.6410 N   0  0  0  0  0  0  0  0  0  0  0  0
   14.2990   -9.2280   -5.4430 O   0  0  0  0  0  0  0  0  0  0  0  0
  -19.1110   -3.8866   -5.6635 H   0  0  0  0  0  0  0  0  0  0  0  0
  -19.6120   -4.9735   -4.5335 H   0  0  0  0  0  0  0  0  0  0  0  0
  -18.8520   -5.4952   -5.8972 H   0  0  0  0  0  0  0  0  0  0  0  0
  -17.6588   -3.8418   -3.7783 H   0  0  0  0  0  0  0  0  0  0  0  0
  -16.1485   -5.8506   -3.4672 H   0  0  0  0  0  0  0  0  0  0  0  0
  -17.7393   -7.1318   -2.0986 H   0  0  0  0  0  0  0  0  0  0  0  0
  -19.1036   -6.2707   -2.8885 H   0  0  0  0  0  0  0  0  0  0  0  0
  -17.9293   -5.3590   -1.8802 H   0  0  0  0  0  0  0  0  0  0  0  0
  -16.6341   -6.9413   -5.6326 H   0  0  0  0  0  0  0  0  0  0  0  0
  -18.3066   -7.2847   -5.0745 H   0  0  0  0  0  0  0  0  0  0  0  0
  -16.9079   -8.0419   -4.2396 H   0  0  0  0  0  0  0  0  0  0  0  0
  -15.2254   -4.0521   -3.9585 H   0  0  0  0  0  0  0  0  0  0  0  0
  -14.3610   -4.0333   -6.8134 H   0  0  0  0  0  0  0  0  0  0  0  0
  -12.4424   -2.5486   -5.7082 H   0  0  0  0  0  0  0  0  0  0  0  0
  -13.7301   -2.2014   -4.5048 H   0  0  0  0  0  0  0  0  0  0  0  0
  -16.1035   -1.7031   -5.7039 H   0  0  0  0  0  0  0  0  0  0  0  0
  -12.2630   -1.0675   -7.4342 H   0  0  0  0  0  0  0  0  0  0  0  0
  -17.0747   -0.0492   -7.2381 H   0  0  0  0  0  0  0  0  0  0  0  0
  -13.2279    0.5832   -8.9793 H   0  0  0  0  0  0  0  0  0  0  0  0
  -15.6368    1.0998   -8.8815 H   0  0  0  0  0  0  0  0  0  0  0  0
  -11.6618   -7.4224   -5.7070 H   0  0  0  0  0  0  0  0  0  0  0  0
  -10.3301   -7.7204   -7.6214 H   0  0  0  0  0  0  0  0  0  0  0  0
   -9.8139   -6.0001   -7.6471 H   0  0  0  0  0  0  0  0  0  0  0  0
  -12.3537   -7.2680   -8.6672 H   0  0  0  0  0  0  0  0  0  0  0  0
  -11.3363   -5.9835   -9.4032 H   0  0  0  0  0  0  0  0  0  0  0  0
  -12.2901   -4.3071   -8.1065 H   0  0  0  0  0  0  0  0  0  0  0  0
  -13.6708   -5.4552   -8.0624 H   0  0  0  0  0  0  0  0  0  0  0  0
  -10.2709   -7.5361   -4.0405 H   0  0  0  0  0  0  0  0  0  0  0  0
   -9.8970   -5.2848   -2.4739 H   0  0  0  0  0  0  0  0  0  0  0  0
   -9.8972   -7.3987   -1.4357 H   0  0  0  0  0  0  0  0  0  0  0  0
   -8.2757   -6.6809   -1.1490 H   0  0  0  0  0  0  0  0  0  0  0  0
   -9.9669   -9.3717   -3.4188 H   0  0  0  0  0  0  0  0  0  0  0  0
   -8.1936  -11.1654   -4.0236 H   0  0  0  0  0  0  0  0  0  0  0  0
   -5.9179   -7.1811   -1.1994 H   0  0  0  0  0  0  0  0  0  0  0  0
   -5.4519  -11.5547   -3.5495 H   0  0  0  0  0  0  0  0  0  0  0  0
   -3.7461   -8.3387   -1.3069 H   0  0  0  0  0  0  0  0  0  0  0  0
   -3.5213  -10.4966   -2.4664 H   0  0  0  0  0  0  0  0  0  0  0  0
   -7.6537   -6.4903   -4.9545 H   0  0  0  0  0  0  0  0  0  0  0  0
   -5.5120   -4.7261   -4.1548 H   0  0  0  0  0  0  0  0  0  0  0  0
   -5.0892   -6.6611   -5.5853 H   0  0  0  0  0  0  0  0  0  0  0  0
   -4.5726   -5.1329   -6.3753 H   0  0  0  0  0  0  0  0  0  0  0  0
   -7.5038   -7.7849   -6.7455 H   0  0  0  0  0  0  0  0  0  0  0  0
   -7.0134   -5.6837  -10.4148 H   0  0  0  0  0  0  0  0  0  0  0  0
   -8.2454   -7.5958   -9.2468 H   0  0  0  0  0  0  0  0  0  0  0  0
   -7.0452   -2.9187   -3.6876 H   0  0  0  0  0  0  0  0  0  0  0  0
   -7.4799   -1.2682   -6.1400 H   0  0  0  0  0  0  0  0  0  0  0  0
   -9.2066   -1.4940   -3.6197 H   0  0  0  0  0  0  0  0  0  0  0  0
   -9.6243   -2.0887   -5.2625 H   0  0  0  0  0  0  0  0  0  0  0  0
   -9.2031    0.6293   -4.5229 H   0  0  0  0  0  0  0  0  0  0  0  0
   -5.9934   -1.5959   -3.0996 H   0  0  0  0  0  0  0  0  0  0  0  0
   -5.3737    1.3189   -2.9800 H   0  0  0  0  0  0  0  0  0  0  0  0
   -6.6840    1.5282   -1.1776 H   0  0  0  0  0  0  0  0  0  0  0  0
   -5.5232    0.4648   -0.3124 H   0  0  0  0  0  0  0  0  0  0  0  0
   -7.0219   -1.4422   -1.4500 H   0  0  0  0  0  0  0  0  0  0  0  0
   -8.3317   -1.5387    0.6359 H   0  0  0  0  0  0  0  0  0  0  0  0
   -7.8209    0.1378    1.0298 H   0  0  0  0  0  0  0  0  0  0  0  0
   -6.6002   -1.1776    0.9493 H   0  0  0  0  0  0  0  0  0  0  0  0
   -8.4828    0.1687   -2.6429 H   0  0  0  0  0  0  0  0  0  0  0  0
   -8.9696    0.8825   -1.0680 H   0  0  0  0  0  0  0  0  0  0  0  0
   -9.4009   -0.8177   -1.4552 H   0  0  0  0  0  0  0  0  0  0  0  0
   -4.2508   -1.7949   -3.1728 H   0  0  0  0  0  0  0  0  0  0  0  0
   -1.8913   -1.3117   -1.4660 H   0  0  0  0  0  0  0  0  0  0  0  0
   -2.8493   -3.5126   -1.2257 H   0  0  0  0  0  0  0  0  0  0  0  0
   -3.0398   -5.1150   -3.0966 H   0  0  0  0  0  0  0  0  0  0  0  0
   -2.5380   -3.8279   -4.2446 H   0  0  0  0  0  0  0  0  0  0  0  0
   -4.0810   -3.6715   -3.3385 H   0  0  0  0  0  0  0  0  0  0  0  0
   -0.3889   -3.3257   -1.2052 H   0  0  0  0  0  0  0  0  0  0  0  0
   -0.3551   -3.6998   -2.9617 H   0  0  0  0  0  0  0  0  0  0  0  0
   -0.9457   -4.9292   -1.7927 H   0  0  0  0  0  0  0  0  0  0  0  0
    0.0743   -0.0154   -5.2871 H   0  0  0  0  0  0  0  0  0  0  0  0
    0.2438    2.0701   -4.1481 H   0  0  0  0  0  0  0  0  0  0  0  0
    1.9677    1.5658   -4.1266 H   0  0  0  0  0  0  0  0  0  0  0  0
    0.6022    2.1498   -1.8622 H   0  0  0  0  0  0  0  0  0  0  0  0
    1.8829    0.8914   -1.9164 H   0  0  0  0  0  0  0  0  0  0  0  0
    0.2662   -0.5979   -1.2643 H   0  0  0  0  0  0  0  0  0  0  0  0
   -1.0496    0.5808   -1.5897 H   0  0  0  0  0  0  0  0  0  0  0  0
    2.3566   -0.0720   -6.0646 H   0  0  0  0  0  0  0  0  0  0  0  0
    3.8086   -2.3568   -4.8005 H   0  0  0  0  0  0  0  0  0  0  0  0
    4.4073   -3.1536   -6.9102 H   0  0  0  0  0  0  0  0  0  0  0  0
    4.1302   -1.5661   -7.7037 H   0  0  0  0  0  0  0  0  0  0  0  0
    2.0195   -3.9212   -5.6447 H   0  0  0  0  0  0  0  0  0  0  0  0
    2.4310   -1.6439   -9.2315 H   0  0  0  0  0  0  0  0  0  0  0  0
   -0.2181   -4.6489   -6.3659 H   0  0  0  0  0  0  0  0  0  0  0  0
    0.1977   -2.3758   -9.9550 H   0  0  0  0  0  0  0  0  0  0  0  0
   -1.1338   -3.8766   -8.5211 H   0  0  0  0  0  0  0  0  0  0  0  0
    5.9270   -2.0363   -4.3168 H   0  0  0  0  0  0  0  0  0  0  0  0
    6.8973    0.7150   -4.4715 H   0  0  0  0  0  0  0  0  0  0  0  0
    7.1498   -0.6609   -2.4259 H   0  0  0  0  0  0  0  0  0  0  0  0
    8.6807    0.0508   -3.0395 H   0  0  0  0  0  0  0  0  0  0  0  0
    8.5889   -2.3470   -1.9884 H   0  0  0  0  0  0  0  0  0  0  0  0
    8.4505   -4.1596   -3.6410 H   0  0  0  0  0  0  0  0  0  0  0  0
    7.8633   -2.9849   -4.8665 H   0  0  0  0  0  0  0  0  0  0  0  0
    6.8813   -3.3193   -3.3999 H   0  0  0  0  0  0  0  0  0  0  0  0
   10.5758   -1.2003   -2.9199 H   0  0  0  0  0  0  0  0  0  0  0  0
   10.1576   -1.8341   -4.5478 H   0  0  0  0  0  0  0  0  0  0  0  0
   10.5833   -2.9707   -3.2236 H   0  0  0  0  0  0  0  0  0  0  0  0
    6.5114   -0.1908   -6.9756 H   0  0  0  0  0  0  0  0  0  0  0  0
    7.4473   -0.4514   -9.0507 H   0  0  0  0  0  0  0  0  0  0  0  0
    9.8747   -0.1147   -9.3814 H   0  0  0  0  0  0  0  0  0  0  0  0
   10.1105   -0.0944   -7.6008 H   0  0  0  0  0  0  0  0  0  0  0  0
    9.1428    1.1948   -8.3934 H   0  0  0  0  0  0  0  0  0  0  0  0
    8.1646   -4.7914   -9.5317 H   0  0  0  0  0  0  0  0  0  0  0  0
    8.5938   -4.7797  -11.8041 H   0  0  0  0  0  0  0  0  0  0  0  0
   10.3418   -4.6944  -11.3989 H   0  0  0  0  0  0  0  0  0  0  0  0
    9.0488   -2.7396  -12.7817 H   0  0  0  0  0  0  0  0  0  0  0  0
   10.4321   -2.4069  -11.6852 H   0  0  0  0  0  0  0  0  0  0  0  0
    8.8295   -0.9759  -10.7493 H   0  0  0  0  0  0  0  0  0  0  0  0
    7.4610   -2.0511  -11.1941 H   0  0  0  0  0  0  0  0  0  0  0  0
    8.9772   -5.4923   -7.6516 H   0  0  0  0  0  0  0  0  0  0  0  0
   11.5936   -4.8154   -6.6658 H   0  0  0  0  0  0  0  0  0  0  0  0
    9.9516   -5.3014   -5.0316 H   0  0  0  0  0  0  0  0  0  0  0  0
   11.0367   -6.7330   -5.0258 H   0  0  0  0  0  0  0  0  0  0  0  0
    8.7991   -7.3023   -5.0795 H   0  0  0  0  0  0  0  0  0  0  0  0
   13.2335   -6.4328   -6.1292 H   0  0  0  0  0  0  0  0  0  0  0  0
   13.6473   -8.2052   -8.4630 H   0  0  0  0  0  0  0  0  0  0  0  0
   15.4268   -6.6866   -8.3018 H   0  0  0  0  0  0  0  0  0  0  0  0
   16.0553   -8.2140   -7.5955 H   0  0  0  0  0  0  0  0  0  0  0  0
   15.8442   -7.3588   -5.3646 H   0  0  0  0  0  0  0  0  0  0  0  0
   14.9520   -5.9106   -5.9422 H   0  0  0  0  0  0  0  0  0  0  0  0
   18.0251   -4.2377   -5.7025 H   0  0  0  0  0  0  0  0  0  0  0  0
   16.4357   -4.4624   -5.0518 H   0  0  0  0  0  0  0  0  0  0  0  0
  1  2  1  0  0  0  0
  1125  1  0  0  0  0
  1126  1  0  0  0  0
  1127  1  0  0  0  0
  2  3  1  0  0  0  0
  2  5  1  0  0  0  0
  2128  1  1  0  0  0
  3  4  2  0  0  0  0
  3  8  1  0  0  0  0
  5  6  1  0  0  0  0
  5  7  1  0  0  0  0
  5129  1  0  0  0  0
  6130  1  0  0  0  0
  6131  1  0  0  0  0
  6132  1  0  0  0  0
  7133  1  0  0  0  0
  7134  1  0  0  0  0
  7135  1  0  0  0  0
  8  9  1  0  0  0  0
  8136  1  0  0  0  0
  9 10  1  0  0  0  0
  9 12  1  0  0  0  0
  9137  1  6  0  0  0
 10 11  2  0  0  0  0
 10 19  1  0  0  0  0
 12 13  1  0  0  0  0
 12138  1  0  0  0  0
 12139  1  0  0  0  0
 13 14  2  0  0  0  0
 13 15  1  0  0  0  0
 14 16  1  0  0  0  0
 14140  1  0  0  0  0
 15 17  2  0  0  0  0
 15141  1  0  0  0  0
 16 18  2  0  0  0  0
 16142  1  0  0  0  0
 17 18  1  0  0  0  0
 17143  1  0  0  0  0
 18144  1  0  0  0  0
 19 20  1  0  0  0  0
 19 25  1  0  0  0  0
 20 21  1  0  0  0  0
 20 23  1  0  0  0  0
 20145  1  1  0  0  0
 21 22  2  0  0  0  0
 21 26  1  0  0  0  0
 23 24  1  0  0  0  0
 23146  1  0  0  0  0
 23147  1  0  0  0  0
 24 25  1  0  0  0  0
 24148  1  0  0  0  0
 24149  1  0  0  0  0
 25150  1  0  0  0  0
 25151  1  0  0  0  0
 26 27  1  0  0  0  0
 26152  1  0  0  0  0
 27 28  1  0  0  0  0
 27 30  1  0  0  0  0
 27153  1  1  0  0  0
 28 29  2  0  0  0  0
 28 40  1  0  0  0  0
 30 31  1  0  0  0  0
 30154  1  0  0  0  0
 30155  1  0  0  0  0
 31 32  2  0  0  0  0
 31 33  1  0  0  0  0
 32 34  1  0  0  0  0
 32156  1  0  0  0  0
 33 35  2  0  0  0  0
 33 36  1  0  0  0  0
 34 35  1  0  0  0  0
 34157  1  0  0  0  0
 35 37  1  0  0  0  0
 36 38  2  0  0  0  0
 36158  1  0  0  0  0
 37 39  2  0  0  0  0
 37159  1  0  0  0  0
 38 39  1  0  0  0  0
 38160  1  0  0  0  0
 39161  1  0  0  0  0
 40 41  1  0  0  0  0
 40162  1  0  0  0  0
 41 42  1  0  0  0  0
 41 44  1  0  0  0  0
 41163  1  1  0  0  0
 42 43  2  0  0  0  0
 42 50  1  0  0  0  0
 44 45  1  0  0  0  0
 44164  1  0  0  0  0
 44165  1  0  0  0  0
 45 46  1  0  0  0  0
 45 47  2  0  0  0  0
 46 48  2  0  0  0  0
 47 49  1  0  0  0  0
 47166  1  0  0  0  0
 48 49  1  0  0  0  0
 48167  1  0  0  0  0
 49168  1  0  0  0  0
 50 51  1  0  0  0  0
 50169  1  0  0  0  0
 51 52  1  0  0  0  0
 51 54  1  0  0  0  0
 51170  1  6  0  0  0
 52 53  2  0  0  0  0
 52 56  1  0  0  0  0
 54 55  1  0  0  0  0
 54171  1  0  0  0  0
 54172  1  0  0  0  0
 55173  1  0  0  0  0
 56 57  1  0  0  0  0
 56174  1  0  0  0  0
 57 58  1  0  0  0  0
 57 60  1  0  0  0  0
 57175  1  6  0  0  0
 58 59  2  0  0  0  0
 58 64  1  0  0  0  0
 60 61  1  0  0  0  0
 60176  1  0  0  0  0
 60177  1  0  0  0  0
 61 62  1  0  0  0  0
 61 63  1  0  0  0  0
 61178  1  0  0  0  0
 62179  1  0  0  0  0
 62180  1  0  0  0  0
 62181  1  0  0  0  0
 63182  1  0  0  0  0
 63183  1  0  0  0  0
 63184  1  0  0  0  0
 64 65  1  0  0  0  0
 64185  1  0  0  0  0
 65 66  1  0  0  0  0
 65 68  1  0  0  0  0
 65186  1  1  0  0  0
 66 67  2  0  0  0  0
 66 71  1  0  0  0  0
 68 69  1  0  0  0  0
 68 70  1  0  0  0  0
 68187  1  0  0  0  0
 69188  1  0  0  0  0
 69189  1  0  0  0  0
 69190  1  0  0  0  0
 70191  1  0  0  0  0
 70192  1  0  0  0  0
 70193  1  0  0  0  0
 71 72  1  0  0  0  0
 71 77  1  0  0  0  0
 72 73  1  0  0  0  0
 72 75  1  0  0  0  0
 72194  1  6  0  0  0
 73 74  2  0  0  0  0
 73 78  1  0  0  0  0
 75 76  1  0  0  0  0
 75195  1  0  0  0  0
 75196  1  0  0  0  0
 76 77  1  0  0  0  0
 76197  1  0  0  0  0
 76198  1  0  0  0  0
 77199  1  0  0  0  0
 77200  1  0  0  0  0
 78 79  1  0  0  0  0
 78201  1  0  0  0  0
 79 80  1  0  0  0  0
 79 82  1  0  0  0  0
 79202  1  1  0  0  0
 80 81  2  0  0  0  0
 80 89  1  0  0  0  0
 82 83  1  0  0  0  0
 82203  1  0  0  0  0
 82204  1  0  0  0  0
 83 84  2  0  0  0  0
 83 85  1  0  0  0  0
 84 86  1  0  0  0  0
 84205  1  0  0  0  0
 85 87  2  0  0  0  0
 85206  1  0  0  0  0
 86 88  2  0  0  0  0
 86207  1  0  0  0  0
 87 88  1  0  0  0  0
 87208  1  0  0  0  0
 88209  1  0  0  0  0
 89 90  1  0  0  0  0
 89210  1  0  0  0  0
 90 91  1  0  0  0  0
 90 93  1  0  0  0  0
 90211  1  1  0  0  0
 91 92  2  0  0  0  0
 91 97  1  0  0  0  0
 93 94  1  0  0  0  0
 93212  1  0  0  0  0
 93213  1  0  0  0  0
 94 95  1  0  0  0  0
 94 96  1  0  0  0  0
 94214  1  0  0  0  0
 95215  1  0  0  0  0
 95216  1  0  0  0  0
 95217  1  0  0  0  0
 96218  1  0  0  0  0
 96219  1  0  0  0  0
 96220  1  0  0  0  0
 97 98  1  0  0  0  0
 97221  1  0  0  0  0
 98 99  1  0  0  0  0
 98101  1  0  0  0  0
 98222  1  6  0  0  0
 99100  2  0  0  0  0
 99102  1  0  0  0  0
101223  1  0  0  0  0
101224  1  0  0  0  0
101225  1  0  0  0  0
102103  1  0  0  0  0
102108  1  0  0  0  0
103104  1  0  0  0  0
103106  1  0  0  0  0
103226  1  1  0  0  0
104105  2  0  0  0  0
104109  1  0  0  0  0
106107  1  0  0  0  0
106227  1  0  0  0  0
106228  1  0  0  0  0
107108  1  0  0  0  0
107229  1  0  0  0  0
107230  1  0  0  0  0
108231  1  0  0  0  0
108232  1  0  0  0  0
109110  1  0  0  0  0
109233  1  0  0  0  0
110111  1  0  0  0  0
110113  1  0  0  0  0
110234  1  1  0  0  0
111112  2  0  0  0  0
111115  1  0  0  0  0
113114  1  0  0  0  0
113235  1  0  0  0  0
113236  1  0  0  0  0
114237  1  0  0  0  0
115116  1  0  0  0  0
115238  1  0  0  0  0
116117  1  0  0  0  0
116119  1  0  0  0  0
116239  1  6  0  0  0
117118  1  0  0  0  0
117124  2  0  0  0  0
119120  1  0  0  0  0
119240  1  0  0  0  0
119241  1  0  0  0  0
120121  1  0  0  0  0
120242  1  0  0  0  0
120243  1  0  0  0  0
121122  2  0  0  0  0
121123  1  0  0  0  0
123244  1  0  0  0  0
123245  1  0  0  0  0
M  CHG  2   1   1 118  -1
M  END
