2mji_ligand
 OpenBabel08222323343D

 31 33  0  0  1  0  0  0  0  0999 V2000
    1.2820    3.8590   -3.2450 O   0  5  0  0  0  0  0  0  0  0  0  0
   -1.0310    0.1660   -4.1390 C   0  0  0  0  0  0  0  0  0  0  0  0
    0.0010    0.5080   -3.3750 C   0  0  0  0  0  0  0  0  0  0  0  0
    1.9780   -0.2170   -2.4140 C   0  0  0  0  0  0  0  0  0  0  0  0
    0.7790   -0.5840   -3.2090 N   0  0  0  0  0  0  0  0  0  0  0  0
    1.6060    1.0060   -1.6670 C   0  0  0  0  0  0  0  0  0  0  0  0
    0.6280    1.6670   -2.6070 C   0  0  1  0  0  0  0  0  0  0  0  0
    1.3220    2.6490   -3.5540 C   0  0  0  0  0  0  0  0  0  0  0  0
    1.5250   -3.4770   -5.1820 C   0  0  0  0  0  0  0  0  0  0  0  0
    2.3040   -2.5700   -5.8940 C   0  0  0  0  0  0  0  0  0  0  0  0
    3.0040   -2.9720   -7.0240 C   0  0  0  0  0  0  0  0  0  0  0  0
    2.9280   -4.2920   -7.4520 C   0  0  0  0  0  0  0  0  0  0  0  0
    2.1530   -5.2060   -6.7490 C   0  0  0  0  0  0  0  0  0  0  0  0
    1.4560   -4.7970   -5.6190 C   0  0  0  0  0  0  0  0  0  0  0  0
    0.5710   -3.8120   -3.0060 O   0  0  0  0  0  0  0  0  0  0  0  0
    0.7550   -3.0300   -3.9390 C   0  0  0  0  0  0  0  0  0  0  0  0
    0.2130   -1.6020   -3.8670 C   0  0  0  0  0  0  0  0  0  0  0  0
   -0.8980   -1.1650   -4.4470 C   0  0  0  0  0  0  0  0  0  0  0  0
    1.8750    2.1660   -4.5660 O   0  0  0  0  0  0  0  0  0  0  0  0
   -1.8369    0.8231   -4.4624 H   0  0  0  0  0  0  0  0  0  0  0  0
    2.8314   -0.0157   -3.0782 H   0  0  0  0  0  0  0  0  0  0  0  0
    2.2387   -1.0273   -1.7172 H   0  0  0  0  0  0  0  0  0  0  0  0
    2.4823    1.6463   -1.4880 H   0  0  0  0  0  0  0  0  0  0  0  0
    1.1308    0.7579   -0.7065 H   0  0  0  0  0  0  0  0  0  0  0  0
   -0.1412    2.2077   -2.0361 H   0  0  0  0  0  0  0  0  0  0  0  0
    2.3650   -1.5395   -5.5633 H   0  0  0  0  0  0  0  0  0  0  0  0
    3.6085   -2.2576   -7.5711 H   0  0  0  0  0  0  0  0  0  0  0  0
    3.4731   -4.6083   -8.3339 H   0  0  0  0  0  0  0  0  0  0  0  0
    2.0923   -6.2360   -7.0815 H   0  0  0  0  0  0  0  0  0  0  0  0
    0.8526   -5.5126   -5.0723 H   0  0  0  0  0  0  0  0  0  0  0  0
   -1.5803   -1.7554   -5.0567 H   0  0  0  0  0  0  0  0  0  0  0  0
  2 18  1  0  0  0  0
  2 20  1  0  0  0  0
  3  2  2  0  0  0  0
  3  7  1  0  0  0  0
  4  6  1  0  0  0  0
  4 21  1  0  0  0  0
  4 22  1  0  0  0  0
  5  3  1  0  0  0  0
  5  4  1  0  0  0  0
  6  7  1  0  0  0  0
  6 23  1  0  0  0  0
  6 24  1  0  0  0  0
  7  8  1  0  0  0  0
  7 25  1  1  0  0  0
  8  1  1  0  0  0  0
  8 19  2  0  0  0  0
  9 10  2  0  0  0  0
  9 14  1  0  0  0  0
 10 11  1  0  0  0  0
 10 26  1  0  0  0  0
 11 12  2  0  0  0  0
 11 27  1  0  0  0  0
 12 28  1  0  0  0  0
 13 12  1  0  0  0  0
 13 29  1  0  0  0  0
 14 13  2  0  0  0  0
 14 30  1  0  0  0  0
 16  9  1  0  0  0  0
 16 15  2  0  0  0  0
 16 17  1  0  0  0  0
 17  5  1  0  0  0  0
 17 18  2  0  0  0  0
 18 31  1  0  0  0  0
M  CHG  1   1  -1
M  END
