2mkr_ligand
 OpenBabel08222323343D

211214  0  0  1  0  0  0  0  0999 V2000
  -17.0870  -14.4850   -1.6940 N   0  3  0  0  0  0  0  0  0  0  0  0
  -15.9800  -14.4790   -2.6430 C   0  0  2  0  0  0  0  0  0  0  0  0
  -15.6500  -13.0570   -3.0850 C   0  0  0  0  0  0  0  0  0  0  0  0
  -16.0600  -12.6200   -4.1600 O   0  0  0  0  0  0  0  0  0  0  0  0
  -16.3220  -15.3380   -3.8620 C   0  0  0  0  0  0  0  0  0  0  0  0
  -15.8940  -16.7820   -3.6900 C   0  0  0  0  0  0  0  0  0  0  0  0
  -14.7710  -17.0140   -3.1960 O   0  5  0  0  0  0  0  0  0  0  0  0
  -16.6830  -17.6820   -4.0480 O   0  0  0  0  0  0  0  0  0  0  0  0
  -14.9060  -12.3410   -2.2490 N   0  0  0  0  0  0  0  0  0  0  0  0
  -14.5200  -10.9670   -2.5540 C   0  0  2  0  0  0  0  0  0  0  0  0
  -13.0280  -10.7420   -2.3100 C   0  0  0  0  0  0  0  0  0  0  0  0
  -12.5580   -9.6040   -2.3070 O   0  0  0  0  0  0  0  0  0  0  0  0
  -15.3380   -9.9890   -1.7090 C   0  0  0  0  0  0  0  0  0  0  0  0
  -16.8540  -10.1620   -1.8040 C   0  0  0  0  0  0  0  0  0  0  0  0
  -17.5430   -9.4890   -0.6270 C   0  0  0  0  0  0  0  0  0  0  0  0
  -17.3720   -9.6010   -3.1200 C   0  0  0  0  0  0  0  0  0  0  0  0
  -12.2860  -11.8280   -2.1070 N   0  0  0  0  0  0  0  0  0  0  0  0
  -10.8510  -11.7370   -1.8640 C   0  0  2  0  0  0  0  0  0  0  0  0
  -10.1050  -11.3620   -3.1410 C   0  0  0  0  0  0  0  0  0  0  0  0
   -9.3470  -10.3920   -3.1670 O   0  0  0  0  0  0  0  0  0  0  0  0
  -10.3190  -13.0640   -1.3210 C   0  0  0  0  0  0  0  0  0  0  0  0
  -10.7330  -13.3070    0.1170 C   0  0  0  0  0  0  0  0  0  0  0  0
  -11.9090  -13.6590    0.3450 O   0  5  0  0  0  0  0  0  0  0  0  0
   -9.8800  -13.1460    1.0160 O   0  0  0  0  0  0  0  0  0  0  0  0
  -10.3250  -12.1370   -4.1980 N   0  0  0  0  0  0  0  0  0  0  0  0
   -9.6740  -11.8860   -5.4790 C   0  0  2  0  0  0  0  0  0  0  0  0
  -10.0300  -10.5010   -6.0090 C   0  0  0  0  0  0  0  0  0  0  0  0
   -9.1770   -9.7910   -6.5420 O   0  0  0  0  0  0  0  0  0  0  0  0
  -10.0760  -12.9540   -6.4970 C   0  0  0  0  0  0  0  0  0  0  0  0
  -11.5800  -13.1270   -6.6360 C   0  0  0  0  0  0  0  0  0  0  0  0
  -12.1340  -12.4360   -7.8670 C   0  0  0  0  0  0  0  0  0  0  0  0
  -11.6910  -11.3070   -8.1650 O   0  5  0  0  0  0  0  0  0  0  0  0
  -13.0110  -13.0250   -8.5340 O   0  0  0  0  0  0  0  0  0  0  0  0
  -11.2950  -10.1230   -5.8590 N   0  0  0  0  0  0  0  0  0  0  0  0
  -11.7650   -8.8230   -6.3220 C   0  0  2  0  0  0  0  0  0  0  0  0
  -11.0180   -7.6920   -5.6220 C   0  0  0  0  0  0  0  0  0  0  0  0
  -10.8360   -6.6120   -6.1850 O   0  0  0  0  0  0  0  0  0  0  0  0
  -13.2690   -8.6840   -6.0780 C   0  0  0  0  0  0  0  0  0  0  0  0
  -13.8970   -7.9900   -7.1430 O   0  0  0  0  0  0  0  0  0  0  0  0
  -10.5870   -7.9470   -4.3910 N   0  0  0  0  0  0  0  0  0  0  0  0
   -9.8590   -6.9500   -3.6130 C   0  0  2  0  0  0  0  0  0  0  0  0
   -8.5920   -6.5070   -4.3380 C   0  0  0  0  0  0  0  0  0  0  0  0
   -8.1310   -5.3780   -4.1700 O   0  0  0  0  0  0  0  0  0  0  0  0
   -9.5040   -7.5090   -2.2330 C   0  0  0  0  0  0  0  0  0  0  0  0
   -9.7310   -6.5330   -1.1200 C   0  0  0  0  0  0  0  0  0  0  0  0
   -8.8820   -6.2540   -0.0880 C   0  0  0  0  0  0  0  0  0  0  0  0
  -10.8840   -5.7060   -0.9260 C   0  0  0  0  0  0  0  0  0  0  0  0
   -9.4360   -5.3040    0.7350 N   0  0  0  0  0  0  0  0  0  0  0  0
  -10.6650   -4.9520    0.2420 C   0  0  0  0  0  0  0  0  0  0  0  0
  -12.0810   -5.5290   -1.6270 C   0  0  0  0  0  0  0  0  0  0  0  0
  -11.5980   -4.0370    0.7240 C   0  0  0  0  0  0  0  0  0  0  0  0
  -13.0060   -4.6210   -1.1480 C   0  0  0  0  0  0  0  0  0  0  0  0
  -12.7600   -3.8840    0.0170 C   0  0  0  0  0  0  0  0  0  0  0  0
   -8.0320   -7.4040   -5.1450 N   0  0  0  0  0  0  0  0  0  0  0  0
   -6.8180   -7.1030   -5.8940 C   0  0  2  0  0  0  0  0  0  0  0  0
   -7.1310   -6.2560   -7.1230 C   0  0  0  0  0  0  0  0  0  0  0  0
   -6.3090   -5.4510   -7.5610 O   0  0  0  0  0  0  0  0  0  0  0  0
   -6.1210   -8.3980   -6.3170 C   0  0  0  0  0  0  0  0  0  0  0  0
   -4.6950   -8.1640   -6.7740 C   0  0  0  0  0  0  0  0  0  0  0  0
   -3.9730   -7.3990   -6.1000 O   0  5  0  0  0  0  0  0  0  0  0  0
   -4.2990   -8.7460   -7.8060 O   0  0  0  0  0  0  0  0  0  0  0  0
   -8.3250   -6.4430   -7.6770 N   0  0  0  0  0  0  0  0  0  0  0  0
   -8.7460   -5.6950   -8.8560 C   0  0  2  0  0  0  0  0  0  0  0  0
   -9.0260   -4.2370   -8.5060 C   0  0  0  0  0  0  0  0  0  0  0  0
   -8.6450   -3.3280   -9.2430 O   0  0  0  0  0  0  0  0  0  0  0  0
   -9.9930   -6.3330   -9.4710 C   0  0  0  0  0  0  0  0  0  0  0  0
   -9.6850   -7.3560  -10.5420 C   0  0  0  0  0  0  0  0  0  0  0  0
   -9.4900   -6.9700  -11.8620 C   0  0  0  0  0  0  0  0  0  0  0  0
   -9.5890   -8.7060  -10.2320 C   0  0  0  0  0  0  0  0  0  0  0  0
   -9.2080   -7.9010  -12.8430 C   0  0  0  0  0  0  0  0  0  0  0  0
   -9.3070   -9.6440  -11.2070 C   0  0  0  0  0  0  0  0  0  0  0  0
   -9.1180   -9.2360  -12.5110 C   0  0  0  0  0  0  0  0  0  0  0  0
   -8.8370  -10.1660  -13.4850 O   0  0  0  0  0  0  0  0  0  0  0  0
   -9.6950   -4.0220   -7.3780 N   0  0  0  0  0  0  0  0  0  0  0  0
  -10.0260   -2.6740   -6.9300 C   0  0  2  0  0  0  0  0  0  0  0  0
   -8.7670   -1.8310   -6.7390 C   0  0  0  0  0  0  0  0  0  0  0  0
   -8.8040   -0.6070   -6.8640 O   0  0  0  0  0  0  0  0  0  0  0  0
  -10.8250   -2.7010   -5.6110 C   0  0  2  0  0  0  0  0  0  0  0  0
  -11.2200   -1.2830   -5.1930 C   0  0  0  0  0  0  0  0  0  0  0  0
  -10.0180   -3.3790   -4.5130 C   0  0  0  0  0  0  0  0  0  0  0  0
  -12.0310   -1.2320   -3.9170 C   0  0  0  0  0  0  0  0  0  0  0  0
   -7.6550   -2.4930   -6.4360 N   0  0  0  0  0  0  0  0  0  0  0  0
   -6.3880   -1.8010   -6.2280 C   0  0  2  0  0  0  0  0  0  0  0  0
   -5.4960   -1.9150   -7.4600 C   0  0  0  0  0  0  0  0  0  0  0  0
   -4.7100   -1.0140   -7.7540 O   0  0  0  0  0  0  0  0  0  0  0  0
   -5.6660   -2.3730   -5.0060 C   0  0  0  0  0  0  0  0  0  0  0  0
   -6.3830   -2.1140   -3.7120 C   0  0  0  0  0  0  0  0  0  0  0  0
   -6.6890   -0.8200   -3.3220 C   0  0  0  0  0  0  0  0  0  0  0  0
   -6.7510   -3.1640   -2.8860 C   0  0  0  0  0  0  0  0  0  0  0  0
   -7.3500   -0.5780   -2.1320 C   0  0  0  0  0  0  0  0  0  0  0  0
   -7.4110   -2.9280   -1.6960 C   0  0  0  0  0  0  0  0  0  0  0  0
   -7.7110   -1.6340   -1.3180 C   0  0  0  0  0  0  0  0  0  0  0  0
   -5.6240   -3.0260   -8.1770 N   0  0  0  0  0  0  0  0  0  0  0  0
   -4.8290   -3.2560   -9.3780 C   0  0  2  0  0  0  0  0  0  0  0  0
   -5.1330   -2.2050  -10.4410 C   0  0  0  0  0  0  0  0  0  0  0  0
   -4.2460   -1.4670  -10.8700 O   0  0  0  0  0  0  0  0  0  0  0  0
   -5.1000   -4.6540   -9.9350 C   0  0  0  0  0  0  0  0  0  0  0  0
   -4.2100   -5.7310   -9.3360 C   0  0  0  0  0  0  0  0  0  0  0  0
   -2.9600   -5.9770  -10.1580 C   0  0  0  0  0  0  0  0  0  0  0  0
   -2.3840   -4.9950  -10.6720 O   0  5  0  0  0  0  0  0  0  0  0  0
   -2.5560   -7.1520  -10.2880 O   0  0  0  0  0  0  0  0  0  0  0  0
   -6.3920   -2.1430  -10.8620 N   0  0  0  0  0  0  0  0  0  0  0  0
   -6.8130   -1.1820  -11.8740 C   0  0  2  0  0  0  0  0  0  0  0  0
   -7.4920    0.0230  -11.2320 C   0  0  0  0  0  0  0  0  0  0  0  0
   -7.5530    0.1340  -10.0070 O   0  0  0  0  0  0  0  0  0  0  0  0
   -7.7630   -1.8450  -12.8730 C   0  0  2  0  0  0  0  0  0  0  0  0
   -8.9720   -2.2240  -12.2390 O   0  0  0  0  0  0  0  0  0  0  0  0
   -7.1800   -3.0790  -13.5250 C   0  0  0  0  0  0  0  0  0  0  0  0
   -8.0020    0.9240  -12.0660 N   0  0  0  0  0  0  0  0  0  0  0  0
   -8.6770    2.1210  -11.5790 C   0  0  2  0  0  0  0  0  0  0  0  0
   -9.7290    2.5960  -12.5770 C   0  0  0  0  0  0  0  0  0  0  0  0
  -10.9210    2.6240  -12.2710 O   0  5  0  0  0  0  0  0  0  0  0  0
   -7.6620    3.2350  -11.3210 C   0  0  2  0  0  0  0  0  0  0  0  0
   -6.7330    3.3240  -12.3870 O   0  0  0  0  0  0  0  0  0  0  0  0
   -6.8760    3.0440  -10.0420 C   0  0  0  0  0  0  0  0  0  0  0  0
  -17.2867  -15.4333   -1.4167 H   0  0  0  0  0  0  0  0  0  0  0  0
  -17.9033  -14.0827   -2.1274 H   0  0  0  0  0  0  0  0  0  0  0  0
  -16.8363  -13.9432   -0.8818 H   0  0  0  0  0  0  0  0  0  0  0  0
  -15.0949  -14.9059   -2.1487 H   0  0  0  0  0  0  0  0  0  0  0  0
  -15.8115  -14.9208   -4.7426 H   0  0  0  0  0  0  0  0  0  0  0  0
  -17.4101  -15.3087   -4.0208 H   0  0  0  0  0  0  0  0  0  0  0  0
  -14.6031  -12.7536   -1.3899 H   0  0  0  0  0  0  0  0  0  0  0  0
  -14.7312  -10.7756   -3.6164 H   0  0  0  0  0  0  0  0  0  0  0  0
  -15.0904   -8.9677   -2.0341 H   0  0  0  0  0  0  0  0  0  0  0  0
  -15.0452  -10.1200   -0.6568 H   0  0  0  0  0  0  0  0  0  0  0  0
  -17.0834  -11.2373   -1.7712 H   0  0  0  0  0  0  0  0  0  0  0  0
  -18.6313   -9.6242   -0.7130 H   0  0  0  0  0  0  0  0  0  0  0  0
  -17.3057   -8.4149   -0.6284 H   0  0  0  0  0  0  0  0  0  0  0  0
  -17.1905   -9.9412    0.3117 H   0  0  0  0  0  0  0  0  0  0  0  0
  -16.8621  -10.0999   -3.9573 H   0  0  0  0  0  0  0  0  0  0  0  0
  -17.1731   -8.5199   -3.1614 H   0  0  0  0  0  0  0  0  0  0  0  0
  -18.4553   -9.7776   -3.1928 H   0  0  0  0  0  0  0  0  0  0  0  0
  -12.7227  -12.7275   -2.1214 H   0  0  0  0  0  0  0  0  0  0  0  0
  -10.6741  -10.9533   -1.1127 H   0  0  0  0  0  0  0  0  0  0  0  0
   -9.2204  -13.0531   -1.3753 H   0  0  0  0  0  0  0  0  0  0  0  0
  -10.7088  -13.8825   -1.9440 H   0  0  0  0  0  0  0  0  0  0  0  0
  -10.9522  -12.9112   -4.1131 H   0  0  0  0  0  0  0  0  0  0  0  0
   -8.5851  -11.9339   -5.3311 H   0  0  0  0  0  0  0  0  0  0  0  0
   -9.6431  -13.9150   -6.1822 H   0  0  0  0  0  0  0  0  0  0  0  0
   -9.6664  -12.6711   -7.4779 H   0  0  0  0  0  0  0  0  0  0  0  0
  -12.0673  -12.7042   -5.7451 H   0  0  0  0  0  0  0  0  0  0  0  0
  -11.8066  -14.2013   -6.7028 H   0  0  0  0  0  0  0  0  0  0  0  0
  -11.9408  -10.7459   -5.4174 H   0  0  0  0  0  0  0  0  0  0  0  0
  -11.5761   -8.7497   -7.4032 H   0  0  0  0  0  0  0  0  0  0  0  0
  -13.4314   -8.1289   -5.1423 H   0  0  0  0  0  0  0  0  0  0  0  0
  -13.7131   -9.6866   -5.9913 H   0  0  0  0  0  0  0  0  0  0  0  0
  -14.8277   -7.9176   -6.9671 H   0  0  0  0  0  0  0  0  0  0  0  0
  -10.7660   -8.8445   -3.9879 H   0  0  0  0  0  0  0  0  0  0  0  0
  -10.5084   -6.0723   -3.4794 H   0  0  0  0  0  0  0  0  0  0  0  0
   -8.4417   -7.7946   -2.2351 H   0  0  0  0  0  0  0  0  0  0  0  0
  -10.1228   -8.3994   -2.0476 H   0  0  0  0  0  0  0  0  0  0  0  0
   -7.9077   -6.7171    0.0610 H   0  0  0  0  0  0  0  0  0  0  0  0
   -8.9988   -4.9190    1.5844 H   0  0  0  0  0  0  0  0  0  0  0  0
  -12.2798   -6.0942   -2.5304 H   0  0  0  0  0  0  0  0  0  0  0  0
  -11.4106   -3.4666    1.6265 H   0  0  0  0  0  0  0  0  0  0  0  0
  -13.9377   -4.4768   -1.6830 H   0  0  0  0  0  0  0  0  0  0  0  0
  -13.5049   -3.1780    0.3660 H   0  0  0  0  0  0  0  0  0  0  0  0
   -8.4536   -8.3058   -5.2401 H   0  0  0  0  0  0  0  0  0  0  0  0
   -6.1386   -6.5347   -5.2418 H   0  0  0  0  0  0  0  0  0  0  0  0
   -6.6874   -8.8500   -7.1445 H   0  0  0  0  0  0  0  0  0  0  0  0
   -6.1087   -9.0885   -5.4608 H   0  0  0  0  0  0  0  0  0  0  0  0
   -8.9496   -7.1128   -7.2755 H   0  0  0  0  0  0  0  0  0  0  0  0
   -7.9333   -5.7264   -9.5966 H   0  0  0  0  0  0  0  0  0  0  0  0
  -10.6069   -5.5367   -9.9172 H   0  0  0  0  0  0  0  0  0  0  0  0
  -10.5610   -6.8286   -8.6699 H   0  0  0  0  0  0  0  0  0  0  0  0
   -9.5602   -5.9212  -12.1267 H   0  0  0  0  0  0  0  0  0  0  0  0
   -9.7377   -9.0296   -9.2082 H   0  0  0  0  0  0  0  0  0  0  0  0
   -9.0583   -7.5834  -13.8686 H   0  0  0  0  0  0  0  0  0  0  0  0
   -9.2348  -10.6942  -10.9485 H   0  0  0  0  0  0  0  0  0  0  0  0
   -8.7359   -9.7265  -14.3212 H   0  0  0  0  0  0  0  0  0  0  0  0
   -9.9785   -4.8038   -6.8226 H   0  0  0  0  0  0  0  0  0  0  0  0
  -10.6482   -2.2007   -7.7039 H   0  0  0  0  0  0  0  0  0  0  0  0
  -11.7443   -3.2825   -5.7744 H   0  0  0  0  0  0  0  0  0  0  0  0
  -11.8158   -0.8351   -6.0019 H   0  0  0  0  0  0  0  0  0  0  0  0
  -10.3019   -0.6954   -5.0453 H   0  0  0  0  0  0  0  0  0  0  0  0
   -9.7447   -4.3953   -4.8332 H   0  0  0  0  0  0  0  0  0  0  0  0
  -10.6214   -3.4337   -3.5949 H   0  0  0  0  0  0  0  0  0  0  0  0
   -9.1046   -2.7982   -4.3174 H   0  0  0  0  0  0  0  0  0  0  0  0
  -12.2770   -0.1863   -3.6805 H   0  0  0  0  0  0  0  0  0  0  0  0
  -11.4459   -1.6664   -3.0930 H   0  0  0  0  0  0  0  0  0  0  0  0
  -12.9598   -1.8061   -4.0497 H   0  0  0  0  0  0  0  0  0  0  0  0
   -7.6878   -3.4886   -6.3486 H   0  0  0  0  0  0  0  0  0  0  0  0
   -6.5982   -0.7367   -6.0461 H   0  0  0  0  0  0  0  0  0  0  0  0
   -4.6663   -1.9179   -4.9474 H   0  0  0  0  0  0  0  0  0  0  0  0
   -5.5667   -3.4606   -5.1375 H   0  0  0  0  0  0  0  0  0  0  0  0
   -6.4069    0.0120   -3.9571 H   0  0  0  0  0  0  0  0  0  0  0  0
   -6.5183   -4.1819   -3.1771 H   0  0  0  0  0  0  0  0  0  0  0  0
   -7.5846    0.4387   -1.8383 H   0  0  0  0  0  0  0  0  0  0  0  0
   -7.6935   -3.7582   -1.0588 H   0  0  0  0  0  0  0  0  0  0  0  0
   -8.2289   -1.4474   -0.3842 H   0  0  0  0  0  0  0  0  0  0  0  0
   -6.2812   -3.7214   -7.8863 H   0  0  0  0  0  0  0  0  0  0  0  0
   -3.7646   -3.1846   -9.1100 H   0  0  0  0  0  0  0  0  0  0  0  0
   -4.9362   -4.6328  -11.0225 H   0  0  0  0  0  0  0  0  0  0  0  0
   -6.1484   -4.9140   -9.7270 H   0  0  0  0  0  0  0  0  0  0  0  0
   -4.7825   -6.6683   -9.2761 H   0  0  0  0  0  0  0  0  0  0  0  0
   -3.9109   -5.4188   -8.3246 H   0  0  0  0  0  0  0  0  0  0  0  0
   -7.0671   -2.7710  -10.4750 H   0  0  0  0  0  0  0  0  0  0  0  0
   -5.9211   -0.8332  -12.4152 H   0  0  0  0  0  0  0  0  0  0  0  0
   -7.9885   -1.1107  -13.6603 H   0  0  0  0  0  0  0  0  0  0  0  0
   -8.7825   -2.8390  -11.5402 H   0  0  0  0  0  0  0  0  0  0  0  0
   -7.9123   -3.5030  -14.2279 H   0  0  0  0  0  0  0  0  0  0  0  0
   -6.9403   -3.8237  -12.7518 H   0  0  0  0  0  0  0  0  0  0  0  0
   -6.2636   -2.8078  -14.0696 H   0  0  0  0  0  0  0  0  0  0  0  0
   -7.9206    0.7771  -13.0518 H   0  0  0  0  0  0  0  0  0  0  0  0
   -9.1792    1.8765  -10.6314 H   0  0  0  0  0  0  0  0  0  0  0  0
   -9.3732    2.9641  -13.7283 O   0  0  0  0  0  0  0  0  0  0  0  0
   -8.2148    4.1833  -11.2500 H   0  0  0  0  0  0  0  0  0  0  0  0
   -7.1965    3.5117  -13.1947 H   0  0  0  0  0  0  0  0  0  0  0  0
   -6.1679    3.8768   -9.9190 H   0  0  0  0  0  0  0  0  0  0  0  0
   -6.3214    2.0953  -10.0906 H   0  0  0  0  0  0  0  0  0  0  0  0
   -7.5673    3.0212   -9.1867 H   0  0  0  0  0  0  0  0  0  0  0  0
  1  2  1  0  0  0  0
  1116  1  0  0  0  0
  1117  1  0  0  0  0
  1118  1  0  0  0  0
  2  3  1  0  0  0  0
  2  5  1  0  0  0  0
  2119  1  1  0  0  0
  3  4  2  0  0  0  0
  3  9  1  0  0  0  0
  5  6  1  0  0  0  0
  5120  1  0  0  0  0
  5121  1  0  0  0  0
  6  7  1  0  0  0  0
  6  8  2  0  0  0  0
  9 10  1  0  0  0  0
  9122  1  0  0  0  0
 10 11  1  0  0  0  0
 10 13  1  0  0  0  0
 10123  1  6  0  0  0
 11 12  2  0  0  0  0
 11 17  1  0  0  0  0
 13 14  1  0  0  0  0
 13124  1  0  0  0  0
 13125  1  0  0  0  0
 14 15  1  0  0  0  0
 14 16  1  0  0  0  0
 14126  1  0  0  0  0
 15127  1  0  0  0  0
 15128  1  0  0  0  0
 15129  1  0  0  0  0
 16130  1  0  0  0  0
 16131  1  0  0  0  0
 16132  1  0  0  0  0
 17 18  1  0  0  0  0
 17133  1  0  0  0  0
 18 19  1  0  0  0  0
 18 21  1  0  0  0  0
 18134  1  1  0  0  0
 19 20  2  0  0  0  0
 19 25  1  0  0  0  0
 21 22  1  0  0  0  0
 21135  1  0  0  0  0
 21136  1  0  0  0  0
 22 23  1  0  0  0  0
 22 24  2  0  0  0  0
 25 26  1  0  0  0  0
 25137  1  0  0  0  0
 26 27  1  0  0  0  0
 26 29  1  0  0  0  0
 26138  1  1  0  0  0
 27 28  2  0  0  0  0
 27 34  1  0  0  0  0
 29 30  1  0  0  0  0
 29139  1  0  0  0  0
 29140  1  0  0  0  0
 30 31  1  0  0  0  0
 30141  1  0  0  0  0
 30142  1  0  0  0  0
 31 32  1  0  0  0  0
 31 33  2  0  0  0  0
 34 35  1  0  0  0  0
 34143  1  0  0  0  0
 35 36  1  0  0  0  0
 35 38  1  0  0  0  0
 35144  1  6  0  0  0
 36 37  2  0  0  0  0
 36 40  1  0  0  0  0
 38 39  1  0  0  0  0
 38145  1  0  0  0  0
 38146  1  0  0  0  0
 39147  1  0  0  0  0
 40 41  1  0  0  0  0
 40148  1  0  0  0  0
 41 42  1  0  0  0  0
 41 44  1  0  0  0  0
 41149  1  1  0  0  0
 42 43  2  0  0  0  0
 42 54  1  0  0  0  0
 44 45  1  0  0  0  0
 44150  1  0  0  0  0
 44151  1  0  0  0  0
 45 46  2  0  0  0  0
 45 47  1  0  0  0  0
 46 48  1  0  0  0  0
 46152  1  0  0  0  0
 47 49  2  0  0  0  0
 47 50  1  0  0  0  0
 48 49  1  0  0  0  0
 48153  1  0  0  0  0
 49 51  1  0  0  0  0
 50 52  2  0  0  0  0
 50154  1  0  0  0  0
 51 53  2  0  0  0  0
 51155  1  0  0  0  0
 52 53  1  0  0  0  0
 52156  1  0  0  0  0
 53157  1  0  0  0  0
 54 55  1  0  0  0  0
 54158  1  0  0  0  0
 55 56  1  0  0  0  0
 55 58  1  0  0  0  0
 55159  1  1  0  0  0
 56 57  2  0  0  0  0
 56 62  1  0  0  0  0
 58 59  1  0  0  0  0
 58160  1  0  0  0  0
 58161  1  0  0  0  0
 59 60  1  0  0  0  0
 59 61  2  0  0  0  0
 62 63  1  0  0  0  0
 62162  1  0  0  0  0
 63 64  1  0  0  0  0
 63 66  1  0  0  0  0
 63163  1  6  0  0  0
 64 65  2  0  0  0  0
 64 74  1  0  0  0  0
 66 67  1  0  0  0  0
 66164  1  0  0  0  0
 66165  1  0  0  0  0
 67 68  2  0  0  0  0
 67 69  1  0  0  0  0
 68 70  1  0  0  0  0
 68166  1  0  0  0  0
 69 71  2  0  0  0  0
 69167  1  0  0  0  0
 70 72  2  0  0  0  0
 70168  1  0  0  0  0
 71 72  1  0  0  0  0
 71169  1  0  0  0  0
 72 73  1  0  0  0  0
 73170  1  0  0  0  0
 74 75  1  0  0  0  0
 74171  1  0  0  0  0
 75 76  1  0  0  0  0
 75 78  1  0  0  0  0
 75172  1  6  0  0  0
 76 77  2  0  0  0  0
 76 82  1  0  0  0  0
 78 79  1  0  0  0  0
 78 80  1  0  0  0  0
 78173  1  6  0  0  0
 79 81  1  0  0  0  0
 79174  1  0  0  0  0
 79175  1  0  0  0  0
 80176  1  0  0  0  0
 80177  1  0  0  0  0
 80178  1  0  0  0  0
 81179  1  0  0  0  0
 81180  1  0  0  0  0
 81181  1  0  0  0  0
 82 83  1  0  0  0  0
 82182  1  0  0  0  0
 83 84  1  0  0  0  0
 83 86  1  0  0  0  0
 83183  1  1  0  0  0
 84 85  2  0  0  0  0
 84 93  1  0  0  0  0
 86 87  1  0  0  0  0
 86184  1  0  0  0  0
 86185  1  0  0  0  0
 87 88  2  0  0  0  0
 87 89  1  0  0  0  0
 88 90  1  0  0  0  0
 88186  1  0  0  0  0
 89 91  2  0  0  0  0
 89187  1  0  0  0  0
 90 92  2  0  0  0  0
 90188  1  0  0  0  0
 91 92  1  0  0  0  0
 91189  1  0  0  0  0
 92190  1  0  0  0  0
 93 94  1  0  0  0  0
 93191  1  0  0  0  0
 94 95  1  0  0  0  0
 94 97  1  0  0  0  0
 94192  1  1  0  0  0
 95 96  2  0  0  0  0
 95102  1  0  0  0  0
 97 98  1  0  0  0  0
 97193  1  0  0  0  0
 97194  1  0  0  0  0
 98 99  1  0  0  0  0
 98195  1  0  0  0  0
 98196  1  0  0  0  0
 99100  1  0  0  0  0
 99101  2  0  0  0  0
102103  1  0  0  0  0
102197  1  0  0  0  0
103104  1  0  0  0  0
103106  1  0  0  0  0
103198  1  6  0  0  0
104105  2  0  0  0  0
104109  1  0  0  0  0
106107  1  0  0  0  0
106108  1  0  0  0  0
106199  1  6  0  0  0
107200  1  0  0  0  0
108201  1  0  0  0  0
108202  1  0  0  0  0
108203  1  0  0  0  0
109110  1  0  0  0  0
109204  1  0  0  0  0
110111  1  0  0  0  0
110113  1  0  0  0  0
110205  1  1  0  0  0
111112  1  0  0  0  0
111206  2  0  0  0  0
113114  1  0  0  0  0
113115  1  0  0  0  0
113207  1  1  0  0  0
114208  1  0  0  0  0
115209  1  0  0  0  0
115210  1  0  0  0  0
115211  1  0  0  0  0
M  CHG  7   1   1   7  -1  23  -1  32  -1  60  -1 100  -1 112  -1
M  END
