2mnz_ligand
 OpenBabel08222323343D

171170  0  0  1  0  0  0  0  0999 V2000
   -3.6270   -1.8480    7.5470 N   0  3  0  0  0  0  0  0  0  0  0  0
   -2.6820   -1.8110    6.3970 C   0  0  2  0  0  0  0  0  0  0  0  0
   -1.2590   -1.9970    6.9050 C   0  0  0  0  0  0  0  0  0  0  0  0
   -0.9420   -1.6440    8.0230 O   0  0  0  0  0  0  0  0  0  0  0  0
   -2.7830   -0.4620    5.6790 C   0  0  0  0  0  0  0  0  0  0  0  0
   -0.4010   -2.5440    6.0910 N   0  0  0  0  0  0  0  0  0  0  0  0
    1.0080   -2.7470    6.5250 C   0  0  2  0  0  0  0  0  0  0  0  0
    1.9190   -1.8460    5.6870 C   0  0  0  0  0  0  0  0  0  0  0  0
    1.7350   -1.6900    4.4970 O   0  0  0  0  0  0  0  0  0  0  0  0
    1.3700   -4.2200    6.3450 C   0  0  0  0  0  0  0  0  0  0  0  0
    0.5950   -5.0440    7.3740 C   0  0  0  0  0  0  0  0  0  0  0  0
    0.4930   -6.4940    6.9040 C   0  0  0  0  0  0  0  0  0  0  0  0
    1.8460   -7.1160    6.9020 N   0  0  0  0  0  0  0  0  0  0  0  0
    2.0980   -8.1260    6.1130 C   0  0  0  0  0  3  0  0  0  0  0  0
    1.1630   -8.5910    5.3280 N   0  0  0  0  0  0  0  0  0  0  0  0
    3.2830   -8.6710    6.1080 N   0  0  0  0  0  0  0  0  0  0  0  0
    2.8790   -1.2210    6.3140 N   0  0  0  0  0  0  0  0  0  0  0  0
    3.7810   -0.2920    5.5760 C   0  0  2  0  0  0  0  0  0  0  0  0
    4.8300   -1.0600    4.7700 C   0  0  0  0  0  0  0  0  0  0  0  0
    5.3850   -2.0430    5.2160 O   0  0  0  0  0  0  0  0  0  0  0  0
    4.4900    0.6240    6.5800 C   0  0  2  0  0  0  0  0  0  0  0  0
    3.7090    1.7910    6.7860 O   0  0  0  0  0  0  0  0  0  0  0  0
    5.8680    1.0140    6.0430 C   0  0  0  0  0  0  0  0  0  0  0  0
    5.1180   -0.5850    3.5870 N   0  0  0  0  0  0  0  0  0  0  0  0
    6.1470   -1.2420    2.7370 C   0  0  2  0  0  0  0  0  0  0  0  0
    7.0890   -0.1590    2.2040 C   0  0  0  0  0  0  0  0  0  0  0  0
    6.6640    0.9350    1.8770 O   0  0  0  0  0  0  0  0  0  0  0  0
    5.4740   -1.9650    1.5660 C   0  0  0  0  0  0  0  0  0  0  0  0
    5.9890   -3.4040    1.4830 C   0  0  0  0  0  0  0  0  0  0  0  0
    5.2870   -4.2550    2.5440 C   0  0  0  0  0  0  0  0  0  0  0  0
    5.8820   -5.6630    2.5440 C   0  0  0  0  0  0  0  0  0  0  0  0
    7.3700   -5.5690    2.5460 N   0  3  0  0  0  0  0  0  0  0  0  0
    8.3620   -0.4490    2.1290 N   0  0  0  0  0  0  0  0  0  0  0  0
    9.3350    0.5690    1.6350 C   0  0  2  0  0  0  0  0  0  0  0  0
   10.2100   -0.0350    0.5380 C   0  0  0  0  0  0  0  0  0  0  0  0
   10.4130   -1.2320    0.4830 O   0  0  0  0  0  0  0  0  0  0  0  0
   10.2310    1.0040    2.7950 C   0  0  0  0  0  0  0  0  0  0  0  0
   11.1300   -0.1640    3.2090 C   0  0  0  0  0  0  0  0  0  0  0  0
   11.8290    0.1720    4.5260 C   0  0  0  0  0  0  0  0  0  0  0  0
   11.2270    0.7300    5.4240 O   0  0  0  0  0  0  0  0  0  0  0  0
   13.0850   -0.1470    4.6850 N   0  0  0  0  0  0  0  0  0  0  0  0
   10.7410    0.7830   -0.3320 N   0  0  0  0  0  0  0  0  0  0  0  0
   11.6140    0.2360   -1.4130 C   0  0  2  0  0  0  0  0  0  0  0  0
   12.7460    1.2190   -1.7170 C   0  0  0  0  0  0  0  0  0  0  0  0
   12.5170    2.3870   -1.9680 O   0  0  0  0  0  0  0  0  0  0  0  0
   10.7880    0.0110   -2.6780 C   0  0  2  0  0  0  0  0  0  0  0  0
    9.6110   -0.7150   -2.3530 O   0  0  0  0  0  0  0  0  0  0  0  0
   11.6130   -0.7800   -3.6940 C   0  0  0  0  0  0  0  0  0  0  0  0
   13.9650    0.7540   -1.7120 N   0  0  0  0  0  0  0  0  0  0  0  0
   15.1100    1.6590   -2.0110 C   0  0  2  0  0  0  0  0  0  0  0  0
   16.1750    0.8920   -2.7960 C   0  0  0  0  0  0  0  0  0  0  0  0
   16.2920   -0.3120   -2.6820 O   0  0  0  0  0  0  0  0  0  0  0  0
   15.7120    2.1700   -0.6990 C   0  0  0  0  0  0  0  0  0  0  0  0
   16.9510    1.5800   -3.5900 N   0  0  0  0  0  0  0  0  0  0  0  0
   18.0100    0.8930   -4.3860 C   0  0  2  0  0  0  0  0  0  0  0  0
   19.3630    1.5540   -4.1120 C   0  0  0  0  0  0  0  0  0  0  0  0
   19.4500    2.7480   -3.9020 O   0  0  0  0  0  0  0  0  0  0  0  0
   17.6810    1.0080   -5.8770 C   0  0  0  0  0  0  0  0  0  0  0  0
   16.3770    0.2630   -6.1720 C   0  0  0  0  0  0  0  0  0  0  0  0
   16.1040    0.2880   -7.6760 C   0  0  0  0  0  0  0  0  0  0  0  0
   14.7400   -0.2490   -7.9410 N   0  0  0  0  0  0  0  0  0  0  0  0
   13.6890    0.4650   -7.6420 C   0  0  0  0  0  3  0  0  0  0  0  0
   13.8320    1.6480   -7.1100 N   0  0  0  0  0  0  0  0  0  0  0  0
   12.4930   -0.0050   -7.8740 N   0  0  0  0  0  0  0  0  0  0  0  0
   20.4190    0.7850   -4.1170 N   0  0  0  0  0  0  0  0  0  0  0  0
   21.7690    1.3630   -3.8610 C   0  0  2  0  0  0  0  0  0  0  0  0
   22.5820    1.3430   -5.1560 C   0  0  0  0  0  0  0  0  0  0  0  0
   22.4510    0.4490   -5.9690 O   0  0  0  0  0  0  0  0  0  0  0  0
   22.4890    0.5290   -2.7970 C   0  0  0  0  0  0  0  0  0  0  0  0
   21.6090    0.3980   -1.5470 C   0  0  0  0  0  0  0  0  0  0  0  0
   21.4130    1.7740   -0.9020 C   0  0  0  0  0  0  0  0  0  0  0  0
   20.8720    1.5960    0.5170 C   0  0  0  0  0  0  0  0  0  0  0  0
   20.5420    2.9300    1.0950 N   0  3  0  0  0  0  0  0  0  0  0  0
   23.4220    2.3200   -5.3560 N   0  0  0  0  0  0  0  0  0  0  0  0
   24.2420    2.3550   -6.6000 C   0  0  2  0  0  0  0  0  0  0  0  0
   25.2000    3.5460   -6.5460 C   0  0  0  0  0  0  0  0  0  0  0  0
   26.3940    3.3280   -6.6720 O   0  5  0  0  0  0  0  0  0  0  0  0
   23.3220    2.4950   -7.8140 C   0  0  0  0  0  0  0  0  0  0  0  0
   22.2010    3.2950   -7.4620 O   0  0  0  0  0  0  0  0  0  0  0  0
   24.7240    4.6570   -6.3810 O   0  0  0  0  0  0  0  0  0  0  0  0
   -4.5695   -1.7249    7.2115 H   0  0  0  0  0  0  0  0  0  0  0  0
   -3.4006   -1.1072    8.1920 H   0  0  0  0  0  0  0  0  0  0  0  0
   -3.5508   -2.7369    8.0161 H   0  0  0  0  0  0  0  0  0  0  0  0
   -2.9309   -2.6196    5.6940 H   0  0  0  0  0  0  0  0  0  0  0  0
   -2.0818   -0.4442    4.8317 H   0  0  0  0  0  0  0  0  0  0  0  0
   -2.5307    0.3467    6.3807 H   0  0  0  0  0  0  0  0  0  0  0  0
   -3.8090   -0.3195    5.3088 H   0  0  0  0  0  0  0  0  0  0  0  0
   -0.6889   -2.8269    5.1761 H   0  0  0  0  0  0  0  0  0  0  0  0
    1.1107   -2.4769    7.5864 H   0  0  0  0  0  0  0  0  0  0  0  0
    2.4505   -4.3572    6.4988 H   0  0  0  0  0  0  0  0  0  0  0  0
    1.0997   -4.5464    5.3299 H   0  0  0  0  0  0  0  0  0  0  0  0
   -0.4157   -4.6258    7.4905 H   0  0  0  0  0  0  0  0  0  0  0  0
    1.1199   -5.0092    8.3401 H   0  0  0  0  0  0  0  0  0  0  0  0
    0.0768   -6.5203    5.8861 H   0  0  0  0  0  0  0  0  0  0  0  0
   -0.1659   -7.0536    7.5842 H   0  0  0  0  0  0  0  0  0  0  0  0
    2.5825   -6.7501    7.5222 H   0  0  0  0  0  0  0  0  0  0  0  0
    1.3618   -9.3874    4.7059 H   0  0  0  0  0  0  0  0  0  0  0  0
    0.2270   -8.1612    5.3312 H   0  0  0  0  0  0  0  0  0  0  0  0
    4.0208   -8.3050    6.7266 H   0  0  0  0  0  0  0  0  0  0  0  0
    3.4810   -9.4673    5.4855 H   0  0  0  0  0  0  0  0  0  0  0  0
    3.0096   -1.3665    7.2947 H   0  0  0  0  0  0  0  0  0  0  0  0
    3.1785    0.3187    4.8875 H   0  0  0  0  0  0  0  0  0  0  0  0
    4.6102    0.0926    7.5356 H   0  0  0  0  0  0  0  0  0  0  0  0
    4.1482    2.3588    7.4082 H   0  0  0  0  0  0  0  0  0  0  0  0
    6.3714    1.6709    6.7676 H   0  0  0  0  0  0  0  0  0  0  0  0
    5.7521    1.5442    5.0862 H   0  0  0  0  0  0  0  0  0  0  0  0
    6.4716    0.1074    5.8890 H   0  0  0  0  0  0  0  0  0  0  0  0
    4.6423    0.2275    3.2501 H   0  0  0  0  0  0  0  0  0  0  0  0
    6.7159   -1.9678    3.3366 H   0  0  0  0  0  0  0  0  0  0  0  0
    5.7073   -1.4387    0.6287 H   0  0  0  0  0  0  0  0  0  0  0  0
    4.3849   -1.9749    1.7198 H   0  0  0  0  0  0  0  0  0  0  0  0
    7.0744   -3.4166    1.6611 H   0  0  0  0  0  0  0  0  0  0  0  0
    5.7765   -3.8132    0.4843 H   0  0  0  0  0  0  0  0  0  0  0  0
    4.2122   -4.3113    2.3166 H   0  0  0  0  0  0  0  0  0  0  0  0
    5.4289   -3.7971    3.5340 H   0  0  0  0  0  0  0  0  0  0  0  0
    5.5491   -6.2026    1.6451 H   0  0  0  0  0  0  0  0  0  0  0  0
    5.5468   -6.2036    3.4414 H   0  0  0  0  0  0  0  0  0  0  0  0
    7.7652   -6.4963    2.5460 H   0  0  0  0  0  0  0  0  0  0  0  0
    7.6743   -5.0741    3.3697 H   0  0  0  0  0  0  0  0  0  0  0  0
    7.6765   -5.0732    1.7236 H   0  0  0  0  0  0  0  0  0  0  0  0
    8.6842   -1.3551    2.4033 H   0  0  0  0  0  0  0  0  0  0  0  0
    8.7903    1.4380    1.2374 H   0  0  0  0  0  0  0  0  0  0  0  0
    9.6059    1.3062    3.6482 H   0  0  0  0  0  0  0  0  0  0  0  0
   10.8548    1.8529    2.4785 H   0  0  0  0  0  0  0  0  0  0  0  0
   11.8845   -0.3404    2.4283 H   0  0  0  0  0  0  0  0  0  0  0  0
   10.5185   -1.0690    3.3392 H   0  0  0  0  0  0  0  0  0  0  0  0
   13.5509    0.0687    5.5431 H   0  0  0  0  0  0  0  0  0  0  0  0
   13.5811   -0.6071    3.9486 H   0  0  0  0  0  0  0  0  0  0  0  0
   10.5644    1.7656   -0.2744 H   0  0  0  0  0  0  0  0  0  0  0  0
   12.0427   -0.7216   -1.0825 H   0  0  0  0  0  0  0  0  0  0  0  0
   10.5100    0.9833   -3.1108 H   0  0  0  0  0  0  0  0  0  0  0  0
    9.0989   -0.2206   -1.7238 H   0  0  0  0  0  0  0  0  0  0  0  0
   11.0169   -0.9412   -4.6043 H   0  0  0  0  0  0  0  0  0  0  0  0
   11.8927   -1.7521   -3.2620 H   0  0  0  0  0  0  0  0  0  0  0  0
   12.5227   -0.2156   -3.9466 H   0  0  0  0  0  0  0  0  0  0  0  0
   14.1309   -0.2107   -1.5073 H   0  0  0  0  0  0  0  0  0  0  0  0
   14.7569    2.5119   -2.6092 H   0  0  0  0  0  0  0  0  0  0  0  0
   16.5575    2.8383   -0.9193 H   0  0  0  0  0  0  0  0  0  0  0  0
   16.0651    1.3171   -0.1008 H   0  0  0  0  0  0  0  0  0  0  0  0
   14.9460    2.7218   -0.1344 H   0  0  0  0  0  0  0  0  0  0  0  0
   16.8351    2.5704   -3.6648 H   0  0  0  0  0  0  0  0  0  0  0  0
   18.0546   -0.1682   -4.1000 H   0  0  0  0  0  0  0  0  0  0  0  0
   18.4971    0.5661   -6.4675 H   0  0  0  0  0  0  0  0  0  0  0  0
   17.5661    2.0683   -6.1462 H   0  0  0  0  0  0  0  0  0  0  0  0
   15.5472    0.7520   -5.6407 H   0  0  0  0  0  0  0  0  0  0  0  0
   16.4657   -0.7797   -5.8329 H   0  0  0  0  0  0  0  0  0  0  0  0
   16.8497   -0.3325   -8.1946 H   0  0  0  0  0  0  0  0  0  0  0  0
   16.1686    1.3228   -8.0435 H   0  0  0  0  0  0  0  0  0  0  0  0
   14.6263   -1.1831   -8.3599 H   0  0  0  0  0  0  0  0  0  0  0  0
   13.0019    2.2105   -6.8745 H   0  0  0  0  0  0  0  0  0  0  0  0
   14.7749    2.0192   -6.9256 H   0  0  0  0  0  0  0  0  0  0  0  0
   12.3791   -0.9386   -8.2939 H   0  0  0  0  0  0  0  0  0  0  0  0
   11.6636    0.5579   -7.6371 H   0  0  0  0  0  0  0  0  0  0  0  0
   20.3214   -0.1945   -4.2931 H   0  0  0  0  0  0  0  0  0  0  0  0
   21.6645    2.3994   -3.5074 H   0  0  0  0  0  0  0  0  0  0  0  0
   23.4345    1.0217   -2.5265 H   0  0  0  0  0  0  0  0  0  0  0  0
   22.6997   -0.4724   -3.2004 H   0  0  0  0  0  0  0  0  0  0  0  0
   22.0957   -0.2764   -0.8271 H   0  0  0  0  0  0  0  0  0  0  0  0
   20.6298   -0.0144   -1.8316 H   0  0  0  0  0  0  0  0  0  0  0  0
   20.6971    2.3599   -1.4971 H   0  0  0  0  0  0  0  0  0  0  0  0
   22.3770    2.3023   -0.8638 H   0  0  0  0  0  0  0  0  0  0  0  0
   21.6334    1.1046    1.1406 H   0  0  0  0  0  0  0  0  0  0  0  0
   19.9648    0.9746    0.4881 H   0  0  0  0  0  0  0  0  0  0  0  0
   20.1854    2.8120    2.0304 H   0  0  0  0  0  0  0  0  0  0  0  0
   19.8442    3.3804    0.5238 H   0  0  0  0  0  0  0  0  0  0  0  0
   21.3732    3.4996    1.1217 H   0  0  0  0  0  0  0  0  0  0  0  0
   23.5160    3.0459   -4.6746 H   0  0  0  0  0  0  0  0  0  0  0  0
   24.8203    1.4231   -6.6841 H   0  0  0  0  0  0  0  0  0  0  0  0
   22.9782    1.4996   -8.1316 H   0  0  0  0  0  0  0  0  0  0  0  0
   23.8710    2.9736   -8.6383 H   0  0  0  0  0  0  0  0  0  0  0  0
   22.5000    4.1539   -7.1874 H   0  0  0  0  0  0  0  0  0  0  0  0
  1  2  1  0  0  0  0
  1 81  1  0  0  0  0
  1 82  1  0  0  0  0
  1 83  1  0  0  0  0
  2  3  1  0  0  0  0
  2  5  1  0  0  0  0
  2 84  1  6  0  0  0
  3  4  2  0  0  0  0
  3  6  1  0  0  0  0
  5 85  1  0  0  0  0
  5 86  1  0  0  0  0
  5 87  1  0  0  0  0
  6  7  1  0  0  0  0
  6 88  1  0  0  0  0
  7  8  1  0  0  0  0
  7 10  1  0  0  0  0
  7 89  1  1  0  0  0
  8  9  2  0  0  0  0
  8 17  1  0  0  0  0
 10 11  1  0  0  0  0
 10 90  1  0  0  0  0
 10 91  1  0  0  0  0
 11 12  1  0  0  0  0
 11 92  1  0  0  0  0
 11 93  1  0  0  0  0
 12 13  1  0  0  0  0
 12 94  1  0  0  0  0
 12 95  1  0  0  0  0
 13 14  1  0  0  0  0
 13 96  1  0  0  0  0
 14 15  1  0  0  0  0
 14 16  1  0  0  0  0
 15 97  1  0  0  0  0
 15 98  1  0  0  0  0
 16 99  1  0  0  0  0
 16100  1  0  0  0  0
 17 18  1  0  0  0  0
 17101  1  0  0  0  0
 18 19  1  0  0  0  0
 18 21  1  0  0  0  0
 18102  1  6  0  0  0
 19 20  2  0  0  0  0
 19 24  1  0  0  0  0
 21 22  1  0  0  0  0
 21 23  1  0  0  0  0
 21103  1  1  0  0  0
 22104  1  0  0  0  0
 23105  1  0  0  0  0
 23106  1  0  0  0  0
 23107  1  0  0  0  0
 24 25  1  0  0  0  0
 24108  1  0  0  0  0
 25 26  1  0  0  0  0
 25 28  1  0  0  0  0
 25109  1  1  0  0  0
 26 27  2  0  0  0  0
 26 33  1  0  0  0  0
 28 29  1  0  0  0  0
 28110  1  0  0  0  0
 28111  1  0  0  0  0
 29 30  1  0  0  0  0
 29112  1  0  0  0  0
 29113  1  0  0  0  0
 30 31  1  0  0  0  0
 30114  1  0  0  0  0
 30115  1  0  0  0  0
 31 32  1  0  0  0  0
 31116  1  0  0  0  0
 31117  1  0  0  0  0
 32118  1  0  0  0  0
 32119  1  0  0  0  0
 32120  1  0  0  0  0
 33 34  1  0  0  0  0
 33121  1  0  0  0  0
 34 35  1  0  0  0  0
 34 37  1  0  0  0  0
 34122  1  6  0  0  0
 35 36  2  0  0  0  0
 35 42  1  0  0  0  0
 37 38  1  0  0  0  0
 37123  1  0  0  0  0
 37124  1  0  0  0  0
 38 39  1  0  0  0  0
 38125  1  0  0  0  0
 38126  1  0  0  0  0
 39 40  2  0  0  0  0
 39 41  1  0  0  0  0
 41127  1  0  0  0  0
 41128  1  0  0  0  0
 42 43  1  0  0  0  0
 42129  1  0  0  0  0
 43 44  1  0  0  0  0
 43 46  1  0  0  0  0
 43130  1  1  0  0  0
 44 45  2  0  0  0  0
 44 49  1  0  0  0  0
 46 47  1  0  0  0  0
 46 48  1  0  0  0  0
 46131  1  6  0  0  0
 47132  1  0  0  0  0
 48133  1  0  0  0  0
 48134  1  0  0  0  0
 48135  1  0  0  0  0
 49 50  1  0  0  0  0
 49136  1  0  0  0  0
 50 51  1  0  0  0  0
 50 53  1  0  0  0  0
 50137  1  6  0  0  0
 51 52  2  0  0  0  0
 51 54  1  0  0  0  0
 53138  1  0  0  0  0
 53139  1  0  0  0  0
 53140  1  0  0  0  0
 54 55  1  0  0  0  0
 54141  1  0  0  0  0
 55 56  1  0  0  0  0
 55 58  1  0  0  0  0
 55142  1  1  0  0  0
 56 57  2  0  0  0  0
 56 65  1  0  0  0  0
 58 59  1  0  0  0  0
 58143  1  0  0  0  0
 58144  1  0  0  0  0
 59 60  1  0  0  0  0
 59145  1  0  0  0  0
 59146  1  0  0  0  0
 60 61  1  0  0  0  0
 60147  1  0  0  0  0
 60148  1  0  0  0  0
 61 62  1  0  0  0  0
 61149  1  0  0  0  0
 62 63  1  0  0  0  0
 62 64  1  0  0  0  0
 63150  1  0  0  0  0
 63151  1  0  0  0  0
 64152  1  0  0  0  0
 64153  1  0  0  0  0
 65 66  1  0  0  0  0
 65154  1  0  0  0  0
 66 67  1  0  0  0  0
 66 69  1  0  0  0  0
 66155  1  1  0  0  0
 67 68  2  0  0  0  0
 67 74  1  0  0  0  0
 69 70  1  0  0  0  0
 69156  1  0  0  0  0
 69157  1  0  0  0  0
 70 71  1  0  0  0  0
 70158  1  0  0  0  0
 70159  1  0  0  0  0
 71 72  1  0  0  0  0
 71160  1  0  0  0  0
 71161  1  0  0  0  0
 72 73  1  0  0  0  0
 72162  1  0  0  0  0
 72163  1  0  0  0  0
 73164  1  0  0  0  0
 73165  1  0  0  0  0
 73166  1  0  0  0  0
 74 75  1  0  0  0  0
 74167  1  0  0  0  0
 75 76  1  0  0  0  0
 75 78  1  0  0  0  0
 75168  1  6  0  0  0
 76 77  1  0  0  0  0
 76 80  2  0  0  0  0
 78 79  1  0  0  0  0
 78169  1  0  0  0  0
 78170  1  0  0  0  0
 79171  1  0  0  0  0
M  CHG  4   1   1  32   1  73   1  77  -1
M  END
