2mpa_ligand
 OpenBabel08222323343D

186189  0  0  1  0  0  0  0  0999 V2000
  -14.2710   10.6420   47.8440 N   0  0  0  0  0  0  0  0  0  0  0  0
  -14.8290   11.4530   46.9570 C   0  0  0  0  0  0  0  0  0  0  0  0
  -14.2400   11.8470   45.9480 O   0  0  0  0  0  0  0  0  0  0  0  0
  -16.2600   11.8900   47.2490 C   0  0  0  0  0  0  0  0  0  0  0  0
  -12.9110   10.1410   47.6930 C   0  0  1  0  0  0  0  0  0  0  0  0
  -12.4530    9.5000   49.0130 C   0  0  2  0  0  0  0  0  0  0  0  0
  -12.2330   10.5350   49.9770 O   0  0  0  0  0  0  0  0  0  0  0  0
  -11.1890    8.6670   48.8180 C   0  0  0  0  0  0  0  0  0  0  0  0
  -12.8030    9.1140   46.5670 C   0  0  0  0  0  0  0  0  0  0  0  0
  -13.7880    8.4580   46.2250 O   0  0  0  0  0  0  0  0  0  0  0  0
  -11.6090    8.9730   45.9970 N   0  0  0  0  0  0  0  0  0  0  0  0
  -11.4020    8.0040   44.9290 C   0  0  2  0  0  0  0  0  0  0  0  0
  -10.0950    7.2040   45.0850 C   0  0  0  0  0  0  0  0  0  0  0  0
   -9.1410    7.6810   45.7030 O   0  0  0  0  0  0  0  0  0  0  0  0
  -11.4400    8.7090   43.5630 C   0  0  0  0  0  0  0  0  0  0  0  0
  -10.3260    9.7020   43.3150 C   0  0  0  0  0  0  0  0  0  0  0  0
  -10.3700   10.2440   41.8790 C   0  0  0  0  0  0  0  0  0  0  0  0
  -11.5460   11.1820   41.5990 C   0  0  0  0  0  0  0  0  0  0  0  0
  -11.4020   12.5320   42.2400 N   0  3  0  0  0  0  0  0  0  0  0  0
  -10.0710    5.9850   44.5380 N   0  0  0  0  0  0  0  0  0  0  0  0
   -8.8970    5.0940   44.5840 C   0  0  2  0  0  0  0  0  0  0  0  0
   -7.6680    5.6870   43.9270 C   0  0  0  0  0  0  0  0  0  0  0  0
   -7.6580    6.8450   43.5200 O   0  0  0  0  0  0  0  0  0  0  0  0
   -9.1480    3.7820   43.8300 C   0  0  0  0  0  0  0  0  0  0  0  0
  -10.2090    2.9420   44.4560 C   0  0  0  0  0  0  0  0  0  0  0  0
  -10.2480    2.8690   45.7050 O   0  5  0  0  0  0  0  0  0  0  0  0
  -10.9860    2.3230   43.6980 O   0  0  0  0  0  0  0  0  0  0  0  0
   -6.6510    4.8380   43.8010 N   0  0  0  0  0  0  0  0  0  0  0  0
   -5.3970    5.1690   43.1360 C   0  0  2  0  0  0  0  0  0  0  0  0
   -5.6980    4.9650   41.6520 C   0  0  0  0  0  0  0  0  0  0  0  0
   -4.9430    5.3770   40.7770 O   0  0  0  0  0  0  0  0  0  0  0  0
   -4.2750    4.1940   43.5470 C   0  0  2  0  0  0  0  0  0  0  0  0
   -4.0580    4.2970   44.9570 O   0  0  0  0  0  0  0  0  0  0  0  0
   -2.9770    4.5080   42.8040 C   0  0  0  0  0  0  0  0  0  0  0  0
   -6.8160    4.3040   41.3910 N   0  0  0  0  0  0  0  0  0  0  0  0
   -7.2560    4.0460   40.0330 C   0  0  2  0  0  0  0  0  0  0  0  0
   -8.4290    4.9670   39.7030 C   0  0  0  0  0  0  0  0  0  0  0  0
   -9.0970    4.8050   38.6960 O   0  0  0  0  0  0  0  0  0  0  0  0
   -7.6690    2.5810   39.8840 C   0  0  0  0  0  0  0  0  0  0  0  0
   -6.5330    1.6290   40.1640 C   0  0  0  0  0  0  0  0  0  0  0  0
   -5.4390    1.7670   39.6000 O   0  0  0  0  0  0  0  0  0  0  0  0
   -6.7820    0.6450   41.0310 N   0  0  0  0  0  0  0  0  0  0  0  0
   -8.6780    5.9260   40.5830 N   0  0  0  0  0  0  0  0  0  0  0  0
   -9.7380    6.9030   40.4100 C   0  0  2  0  0  0  0  0  0  0  0  0
  -11.1640    6.3690   40.5000 C   0  0  0  0  0  0  0  0  0  0  0  0
  -12.0770    6.9480   39.9120 O   0  0  0  0  0  0  0  0  0  0  0  0
   -9.5280    7.6630   39.0940 C   0  0  0  0  0  0  0  0  0  0  0  0
   -8.1680    8.3630   39.0360 C   0  0  0  0  0  0  0  0  0  0  0  0
   -7.8270    9.1320   39.9270 O   0  0  0  0  0  0  0  0  0  0  0  0
   -7.3980    8.0990   37.9950 N   0  0  0  0  0  0  0  0  0  0  0  0
  -11.3610    5.2740   41.2370 N   0  0  0  0  0  0  0  0  0  0  0  0
  -12.7050    4.7170   41.4280 C   0  0  2  0  0  0  0  0  0  0  0  0
  -13.2620    5.3070   42.7400 C   0  0  0  0  0  0  0  0  0  0  0  0
  -12.5040    5.5940   43.6630 O   0  0  0  0  0  0  0  0  0  0  0  0
  -12.6900    3.1790   41.5650 C   0  0  0  0  0  0  0  0  0  0  0  0
  -12.0340    2.4650   40.3900 C   0  0  0  0  0  0  0  0  0  0  0  0
  -12.3320    2.7300   39.2290 O   0  0  0  0  0  0  0  0  0  0  0  0
  -11.1570    1.5140   40.7000 N   0  0  0  0  0  0  0  0  0  0  0  0
  -14.5770    5.4850   42.8350 N   0  0  0  0  0  0  0  0  0  0  0  0
  -15.1400    6.0330   44.0640 C   0  0  2  0  0  0  0  0  0  0  0  0
  -15.1020    5.0340   45.2110 C   0  0  0  0  0  0  0  0  0  0  0  0
  -15.7150    3.9650   45.1500 O   0  0  0  0  0  0  0  0  0  0  0  0
  -16.5770    6.5120   43.8520 C   0  0  0  0  0  0  0  0  0  0  0  0
  -16.7200    7.8720   43.1680 C   0  0  0  0  0  0  0  0  0  0  0  0
  -18.1950    8.1980   42.9730 C   0  0  0  0  0  0  0  0  0  0  0  0
  -16.0500    8.9410   44.0200 C   0  0  0  0  0  0  0  0  0  0  0  0
   -2.2440    5.9600   52.0380 C   0  0  0  0  0  0  0  0  0  0  0  0
   -1.5500    6.8470   52.5770 O   0  0  0  0  0  0  0  0  0  0  0  0
   -1.5750    4.9090   51.3850 C   0  0  0  0  0  0  0  0  0  0  0  0
   -2.2920    3.9050   50.7090 C   0  0  0  0  0  0  0  0  0  0  0  0
   -1.5020    2.8640   50.0620 O   0  0  0  0  0  0  0  0  0  0  0  0
   -2.2260    1.8260   49.3640 C   0  0  0  0  0  0  0  0  0  0  0  0
   -1.4750    0.8030   48.7500 C   0  0  0  0  0  0  0  0  0  0  0  0
   -2.1240   -0.2460   48.0690 C   0  0  0  0  0  0  0  0  0  0  0  0
   -1.4860   -1.2280   47.6430 O   0  0  0  0  0  0  0  0  0  0  0  0
   -3.5400   -0.2500   47.9830 C   0  0  0  0  0  0  0  0  0  0  0  0
   -4.3000    0.7770   48.5930 C   0  0  0  0  0  0  0  0  0  0  0  0
   -3.6640    1.8280   49.2970 C   0  0  0  0  0  0  0  0  0  0  0  0
   -4.4000    2.8930   49.9580 C   0  0  0  0  0  0  0  0  0  0  0  0
   -3.7080    3.9290   50.6710 C   0  0  0  0  0  0  0  0  0  0  0  0
   -4.3890    5.0020   51.3430 C   0  0  0  0  0  0  0  0  0  0  0  0
   -3.6610    6.0030   52.0190 C   0  0  0  0  0  0  0  0  0  0  0  0
   -5.8330    2.9720   49.8900 C   0  0  0  0  0  0  0  0  0  0  0  0
   -6.5680    2.8420   51.0750 C   0  0  0  0  0  0  0  0  0  0  0  0
   -7.9570    2.9090   51.0560 C   0  0  0  0  0  0  0  0  0  0  0  0
   -8.6570    3.0990   49.8630 C   0  0  0  0  0  0  0  0  0  0  0  0
   -7.9390    3.2250   48.6660 C   0  0  0  0  0  0  0  0  0  0  0  0
   -6.5410    3.1700   48.6400 C   0  0  0  0  0  0  0  0  0  0  0  0
   -5.8860    3.3600   47.4020 C   0  0  0  0  0  0  0  0  0  0  0  0
   -4.7190    3.8150   47.2780 O   0  5  0  0  0  0  0  0  0  0  0  0
   -6.4300    3.0610   46.3050 O   0  0  0  0  0  0  0  0  0  0  0  0
   -9.9850    3.1470   49.8930 N   0  0  0  0  0  0  0  0  0  0  0  0
  -11.0270    3.8960   49.5590 C   0  0  0  0  0  0  0  0  0  0  0  0
  -10.9590    4.9420   48.9140 O   0  0  0  0  0  0  0  0  0  0  0  0
  -12.3590    3.3100   49.9190 C   0  0  0  0  0  0  0  0  0  0  0  0
  -12.8720    2.3210   48.5360 S   0  0  0  0  0  0  0  0  0  0  0  0
  -13.0320    3.6120   47.2590 C   0  0  0  0  0  0  0  0  0  0  0  0
  -14.2660    4.5080   47.4130 C   0  0  2  0  0  0  0  0  0  0  0  0
  -14.3800    5.3870   46.2670 N   0  0  0  0  0  0  0  0  0  0  0  0
  -13.2380    6.1240   48.8390 O   0  0  0  0  0  0  0  0  0  0  0  0
  -14.1670    5.3330   48.6740 C   0  0  0  0  0  0  0  0  0  0  0  0
  -15.1330    5.1560   49.5720 N   0  0  0  0  0  0  0  0  0  0  0  0
  -14.8016   10.3641   48.6448 H   0  0  0  0  0  0  0  0  0  0  0  0
  -16.6108   12.5562   46.4471 H   0  0  0  0  0  0  0  0  0  0  0  0
  -16.2913   12.4247   48.2098 H   0  0  0  0  0  0  0  0  0  0  0  0
  -16.9105   11.0045   47.3008 H   0  0  0  0  0  0  0  0  0  0  0  0
  -12.2505   10.9885   47.4576 H   0  0  0  0  0  0  0  0  0  0  0  0
  -13.2511    8.8373   49.3790 H   0  0  0  0  0  0  0  0  0  0  0  0
  -11.9494   10.1476   50.7967 H   0  0  0  0  0  0  0  0  0  0  0  0
  -10.8898    8.2241   49.7794 H   0  0  0  0  0  0  0  0  0  0  0  0
  -10.3797    9.3109   48.4433 H   0  0  0  0  0  0  0  0  0  0  0  0
  -11.3865    7.8656   48.0908 H   0  0  0  0  0  0  0  0  0  0  0  0
  -10.8445    9.5390   46.3054 H   0  0  0  0  0  0  0  0  0  0  0  0
  -12.2349    7.2865   44.9660 H   0  0  0  0  0  0  0  0  0  0  0  0
  -12.3969    9.2457   43.4844 H   0  0  0  0  0  0  0  0  0  0  0  0
  -11.3871    7.9372   42.7810 H   0  0  0  0  0  0  0  0  0  0  0  0
   -9.3591    9.2043   43.4804 H   0  0  0  0  0  0  0  0  0  0  0  0
  -10.4314   10.5414   44.0180 H   0  0  0  0  0  0  0  0  0  0  0  0
  -10.4384    9.3896   41.1896 H   0  0  0  0  0  0  0  0  0  0  0  0
   -9.4368   10.7945   41.6892 H   0  0  0  0  0  0  0  0  0  0  0  0
  -12.4645   10.7120   41.9802 H   0  0  0  0  0  0  0  0  0  0  0  0
  -11.6293   11.3205   40.5110 H   0  0  0  0  0  0  0  0  0  0  0  0
  -12.2062   13.0973   42.0170 H   0  0  0  0  0  0  0  0  0  0  0  0
  -10.5689   12.9814   41.8935 H   0  0  0  0  0  0  0  0  0  0  0  0
  -11.3343   12.4237   43.2399 H   0  0  0  0  0  0  0  0  0  0  0  0
  -10.8938    5.6594   44.0722 H   0  0  0  0  0  0  0  0  0  0  0  0
   -8.6768    4.8774   45.6397 H   0  0  0  0  0  0  0  0  0  0  0  0
   -8.2115    3.2053   43.8093 H   0  0  0  0  0  0  0  0  0  0  0  0
   -9.4534    4.0224   42.8010 H   0  0  0  0  0  0  0  0  0  0  0  0
   -6.7530    3.9202   44.1846 H   0  0  0  0  0  0  0  0  0  0  0  0
   -5.0970    6.2054   43.3502 H   0  0  0  0  0  0  0  0  0  0  0  0
   -4.5857    3.1676   43.3020 H   0  0  0  0  0  0  0  0  0  0  0  0
   -4.8592    4.0749   45.4166 H   0  0  0  0  0  0  0  0  0  0  0  0
   -2.1956    3.7992   43.1154 H   0  0  0  0  0  0  0  0  0  0  0  0
   -2.6575    5.5335   43.0413 H   0  0  0  0  0  0  0  0  0  0  0  0
   -3.1436    4.4173   41.7205 H   0  0  0  0  0  0  0  0  0  0  0  0
   -7.3731    3.9731   42.1527 H   0  0  0  0  0  0  0  0  0  0  0  0
   -6.4282    4.2551   39.3394 H   0  0  0  0  0  0  0  0  0  0  0  0
   -8.0213    2.4167   38.8550 H   0  0  0  0  0  0  0  0  0  0  0  0
   -8.4867    2.3715   40.5894 H   0  0  0  0  0  0  0  0  0  0  0  0
   -6.0665   -0.0165   41.2555 H   0  0  0  0  0  0  0  0  0  0  0  0
   -7.6841    0.5694   41.4560 H   0  0  0  0  0  0  0  0  0  0  0  0
   -8.1096    5.9792   41.4041 H   0  0  0  0  0  0  0  0  0  0  0  0
   -9.6293    7.6273   41.2307 H   0  0  0  0  0  0  0  0  0  0  0  0
  -10.3196    8.4200   38.9928 H   0  0  0  0  0  0  0  0  0  0  0  0
   -9.5941    6.9495   38.2594 H   0  0  0  0  0  0  0  0  0  0  0  0
   -6.5007    8.5329   37.9140 H   0  0  0  0  0  0  0  0  0  0  0  0
   -7.7126    7.4654   37.2882 H   0  0  0  0  0  0  0  0  0  0  0  0
  -10.5780    4.8247   41.6671 H   0  0  0  0  0  0  0  0  0  0  0  0
  -13.3439    5.0008   40.5788 H   0  0  0  0  0  0  0  0  0  0  0  0
  -13.7291    2.8278   41.6483 H   0  0  0  0  0  0  0  0  0  0  0  0
  -12.1400    2.9174   42.4810 H   0  0  0  0  0  0  0  0  0  0  0  0
  -10.6914    1.0074   39.9743 H   0  0  0  0  0  0  0  0  0  0  0  0
  -10.9633    1.3057   41.6587 H   0  0  0  0  0  0  0  0  0  0  0  0
  -15.1747    5.2450   42.0700 H   0  0  0  0  0  0  0  0  0  0  0  0
  -14.5288    6.9014   44.3509 H   0  0  0  0  0  0  0  0  0  0  0  0
  -17.0628    6.5746   44.8369 H   0  0  0  0  0  0  0  0  0  0  0  0
  -17.0962    5.7649   43.2338 H   0  0  0  0  0  0  0  0  0  0  0  0
  -16.2281    7.8356   42.1848 H   0  0  0  0  0  0  0  0  0  0  0  0
  -18.2922    9.1769   42.4808 H   0  0  0  0  0  0  0  0  0  0  0  0
  -18.6963    8.2283   43.9516 H   0  0  0  0  0  0  0  0  0  0  0  0
  -18.6617    7.4243   42.3457 H   0  0  0  0  0  0  0  0  0  0  0  0
  -14.9867    8.6918   44.1516 H   0  0  0  0  0  0  0  0  0  0  0  0
  -16.5404    8.9866   45.0036 H   0  0  0  0  0  0  0  0  0  0  0  0
  -16.1387    9.9170   43.5204 H   0  0  0  0  0  0  0  0  0  0  0  0
   -2.1195    7.4922   52.9794 H   0  0  0  0  0  0  0  0  0  0  0  0
   -0.4918    4.8722   51.4029 H   0  0  0  0  0  0  0  0  0  0  0  0
   -0.3924    0.8235   48.8021 H   0  0  0  0  0  0  0  0  0  0  0  0
   -0.8308   -0.9332   47.0215 H   0  0  0  0  0  0  0  0  0  0  0  0
   -4.0440   -1.0455   47.4461 H   0  0  0  0  0  0  0  0  0  0  0  0
   -5.3814    0.7585   48.5202 H   0  0  0  0  0  0  0  0  0  0  0  0
   -4.4638    2.2838   50.8717 H   0  0  0  0  0  0  0  0  0  0  0  0
   -5.4722    5.0421   51.3300 H   0  0  0  0  0  0  0  0  0  0  0  0
   -4.1853    6.8059   52.5245 H   0  0  0  0  0  0  0  0  0  0  0  0
   -6.0500    2.6879   52.0147 H   0  0  0  0  0  0  0  0  0  0  0  0
   -8.5067    2.8118   51.9852 H   0  0  0  0  0  0  0  0  0  0  0  0
   -8.4799    3.3686   47.7376 H   0  0  0  0  0  0  0  0  0  0  0  0
  -10.3221    2.3114   50.3267 H   0  0  0  0  0  0  0  0  0  0  0  0
  -13.0889    4.1121   50.1029 H   0  0  0  0  0  0  0  0  0  0  0  0
  -12.2672    2.6844   50.8191 H   0  0  0  0  0  0  0  0  0  0  0  0
  -13.0855    3.1193   46.2770 H   0  0  0  0  0  0  0  0  0  0  0  0
  -12.1368    4.2498   47.3010 H   0  0  0  0  0  0  0  0  0  0  0  0
  -15.1625    3.8733   47.4706 H   0  0  0  0  0  0  0  0  0  0  0  0
  -13.9095    6.2694   46.2718 H   0  0  0  0  0  0  0  0  0  0  0  0
  -15.1218    5.6742   50.4272 H   0  0  0  0  0  0  0  0  0  0  0  0
  -15.8701    4.5048   49.3916 H   0  0  0  0  0  0  0  0  0  0  0  0
  1  2  1  0  0  0  0
  1103  1  0  0  0  0
  2  3  2  0  0  0  0
  2  4  1  0  0  0  0
  4104  1  0  0  0  0
  4105  1  0  0  0  0
  4106  1  0  0  0  0
  5  1  1  0  0  0  0
  5  6  1  0  0  0  0
  5107  1  6  0  0  0
  6  7  1  0  0  0  0
  6  8  1  0  0  0  0
  6108  1  1  0  0  0
  7109  1  0  0  0  0
  8110  1  0  0  0  0
  8111  1  0  0  0  0
  8112  1  0  0  0  0
  9  5  1  0  0  0  0
  9 10  2  0  0  0  0
 11  9  1  0  0  0  0
 11113  1  0  0  0  0
 12 11  1  0  0  0  0
 12 15  1  0  0  0  0
 12114  1  1  0  0  0
 13 12  1  0  0  0  0
 13 14  2  0  0  0  0
 15 16  1  0  0  0  0
 15115  1  0  0  0  0
 15116  1  0  0  0  0
 16 17  1  0  0  0  0
 16117  1  0  0  0  0
 16118  1  0  0  0  0
 17 18  1  0  0  0  0
 17119  1  0  0  0  0
 17120  1  0  0  0  0
 18 19  1  0  0  0  0
 18121  1  0  0  0  0
 18122  1  0  0  0  0
 19123  1  0  0  0  0
 19124  1  0  0  0  0
 19125  1  0  0  0  0
 20 13  1  0  0  0  0
 20126  1  0  0  0  0
 21 20  1  0  0  0  0
 21 24  1  0  0  0  0
 21127  1  1  0  0  0
 22 21  1  0  0  0  0
 22 23  2  0  0  0  0
 24 25  1  0  0  0  0
 24128  1  0  0  0  0
 24129  1  0  0  0  0
 25 26  1  0  0  0  0
 25 27  2  0  0  0  0
 28 22  1  0  0  0  0
 28130  1  0  0  0  0
 29 28  1  0  0  0  0
 29 32  1  0  0  0  0
 29131  1  1  0  0  0
 30 29  1  0  0  0  0
 30 31  2  0  0  0  0
 32 33  1  0  0  0  0
 32 34  1  0  0  0  0
 32132  1  6  0  0  0
 33133  1  0  0  0  0
 34134  1  0  0  0  0
 34135  1  0  0  0  0
 34136  1  0  0  0  0
 35 30  1  0  0  0  0
 35137  1  0  0  0  0
 36 35  1  0  0  0  0
 36 39  1  0  0  0  0
 36138  1  6  0  0  0
 37 36  1  0  0  0  0
 37 38  2  0  0  0  0
 39 40  1  0  0  0  0
 39139  1  0  0  0  0
 39140  1  0  0  0  0
 40 41  2  0  0  0  0
 40 42  1  0  0  0  0
 42141  1  0  0  0  0
 42142  1  0  0  0  0
 43 37  1  0  0  0  0
 43143  1  0  0  0  0
 44 43  1  0  0  0  0
 44 47  1  0  0  0  0
 44144  1  1  0  0  0
 45 44  1  0  0  0  0
 45 46  2  0  0  0  0
 47 48  1  0  0  0  0
 47145  1  0  0  0  0
 47146  1  0  0  0  0
 48 49  2  0  0  0  0
 48 50  1  0  0  0  0
 50147  1  0  0  0  0
 50148  1  0  0  0  0
 51 45  1  0  0  0  0
 51149  1  0  0  0  0
 52 51  1  0  0  0  0
 52 55  1  0  0  0  0
 52150  1  6  0  0  0
 53 52  1  0  0  0  0
 53 54  2  0  0  0  0
 55 56  1  0  0  0  0
 55151  1  0  0  0  0
 55152  1  0  0  0  0
 56 57  2  0  0  0  0
 56 58  1  0  0  0  0
 58153  1  0  0  0  0
 58154  1  0  0  0  0
 59 53  1  0  0  0  0
 59155  1  0  0  0  0
 60 59  1  0  0  0  0
 60 63  1  0  0  0  0
 60156  1  1  0  0  0
 61 60  1  0  0  0  0
 61 62  2  0  0  0  0
 63 64  1  0  0  0  0
 63157  1  0  0  0  0
 63158  1  0  0  0  0
 64 65  1  0  0  0  0
 64 66  1  0  0  0  0
 64159  1  0  0  0  0
 65160  1  0  0  0  0
 65161  1  0  0  0  0
 65162  1  0  0  0  0
 66163  1  0  0  0  0
 66164  1  0  0  0  0
 66165  1  0  0  0  0
 67 68  1  0  0  0  0
 68166  1  0  0  0  0
 69 67  2  0  0  0  0
 69167  1  0  0  0  0
 70 69  1  0  0  0  0
 70 71  1  0  0  0  0
 72 71  1  0  0  0  0
 72 73  2  0  0  0  0
 73 74  1  0  0  0  0
 73168  1  0  0  0  0
 74 75  1  0  0  0  0
 75169  1  0  0  0  0
 76 74  2  0  0  0  0
 76170  1  0  0  0  0
 77 76  1  0  0  0  0
 77171  1  0  0  0  0
 78 72  1  0  0  0  0
 78 77  2  0  0  0  0
 79 78  1  0  0  0  0
 79 80  1  0  0  0  0
 79172  1  0  0  0  0
 80 70  2  0  0  0  0
 80 81  1  0  0  0  0
 81 82  2  0  0  0  0
 81173  1  0  0  0  0
 82 67  1  0  0  0  0
 82174  1  0  0  0  0
 83 79  1  0  0  0  0
 84 83  2  0  0  0  0
 84175  1  0  0  0  0
 85 84  1  0  0  0  0
 85176  1  0  0  0  0
 86 85  2  0  0  0  0
 86 87  1  0  0  0  0
 87 88  2  0  0  0  0
 87177  1  0  0  0  0
 88 83  1  0  0  0  0
 88 89  1  0  0  0  0
 89 90  1  0  0  0  0
 89 91  2  0  0  0  0
 92 86  1  0  0  0  0
 92178  1  0  0  0  0
 93 92  1  0  0  0  0
 93 94  2  0  0  0  0
 95 93  1  0  0  0  0
 95179  1  0  0  0  0
 95180  1  0  0  0  0
 96 95  1  0  0  0  0
 97 96  1  0  0  0  0
 97181  1  0  0  0  0
 97182  1  0  0  0  0
 98 97  1  0  0  0  0
 98 99  1  0  0  0  0
 98101  1  0  0  0  0
 98183  1  1  0  0  0
 99 61  1  0  0  0  0
 99184  1  0  0  0  0
101100  2  0  0  0  0
101102  1  0  0  0  0
102185  1  0  0  0  0
102186  1  0  0  0  0
M  CHG  3  19   1  26  -1  90  -1
M  END
