2mwo_ligand
 OpenBabel08222323343D

244245  0  0  1  0  0  0  0  0999 V2000
    1.5920  -16.8170   20.6810 N   0  3  0  0  0  0  0  0  0  0  0  0
    0.6730  -17.9050   20.2340 C   0  0  2  0  0  0  0  0  0  0  0  0
    0.2110  -17.6520   18.7890 C   0  0  0  0  0  0  0  0  0  0  0  0
    0.0610  -16.4990   18.3730 O   0  0  0  0  0  0  0  0  0  0  0  0
   -0.5250  -18.0630   21.2100 C   0  0  0  0  0  0  0  0  0  0  0  0
   -1.4580  -19.2540   20.8930 C   0  0  0  0  0  0  0  0  0  0  0  0
   -2.5640  -19.4280   21.9430 C   0  0  0  0  0  0  0  0  0  0  0  0
   -2.0260  -19.8400   23.2560 N   0  0  0  0  0  0  0  0  0  0  0  0
   -2.6920  -19.8290   24.4210 C   0  0  0  0  0  3  0  0  0  0  0  0
   -3.9690  -19.4580   24.4710 N   0  0  0  0  0  0  0  0  0  0  0  0
   -2.0680  -20.1900   25.5390 N   0  0  0  0  0  0  0  0  0  0  0  0
   -0.0460  -18.7280   18.0350 N   0  0  0  0  0  0  0  0  0  0  0  0
   -0.6520  -18.7060   16.7060 C   0  0  2  0  0  0  0  0  0  0  0  0
   -1.7030  -19.8220   16.6290 C   0  0  0  0  0  0  0  0  0  0  0  0
   -1.8460  -20.6250   17.5570 O   0  0  0  0  0  0  0  0  0  0  0  0
    0.4420  -18.8820   15.6400 C   0  0  0  0  0  0  0  0  0  0  0  0
   -2.4330  -19.8620   15.5160 N   0  0  0  0  0  0  0  0  0  0  0  0
   -3.3380  -20.9520   15.1550 C   0  0  2  0  0  0  0  0  0  0  0  0
   -2.5830  -22.2870   14.9980 C   0  0  0  0  0  0  0  0  0  0  0  0
   -1.3490  -22.3570   15.0570 O   0  0  0  0  0  0  0  0  0  0  0  0
   -4.0930  -20.5750   13.8680 C   0  0  0  0  0  0  0  0  0  0  0  0
   -3.1670  -20.0610   12.7940 C   0  0  0  0  0  0  0  0  0  0  0  0
   -3.1060  -18.7320   12.3600 N   0  0  0  0  0  0  0  0  0  0  0  0
   -2.2450  -20.8020   12.1100 C   0  0  0  0  0  0  0  0  0  0  0  0
   -2.1220  -18.6990   11.4460 C   0  0  0  0  0  0  0  0  0  0  0  0
   -1.5800  -19.9190   11.2960 N   0  0  0  0  0  0  0  0  0  0  0  0
   -3.3620  -23.3540   14.8080 N   0  0  0  0  0  0  0  0  0  0  0  0
   -2.9550  -24.7500   14.7010 C   0  0  2  0  0  0  0  0  0  0  0  0
   -1.9880  -25.0400   13.5370 C   0  0  0  0  0  0  0  0  0  0  0  0
   -1.6750  -24.1710   12.7220 O   0  0  0  0  0  0  0  0  0  0  0  0
   -4.2420  -25.5700   14.5480 C   0  0  0  0  0  0  0  0  0  0  0  0
   -5.2230  -25.1420   15.4800 O   0  0  0  0  0  0  0  0  0  0  0  0
   -1.5450  -26.2980   13.4360 N   0  0  0  0  0  0  0  0  0  0  0  0
   -0.5440  -26.7930   12.4920 C   0  0  2  0  0  0  0  0  0  0  0  0
   -0.8970  -26.6430   11.0020 C   0  0  0  0  0  0  0  0  0  0  0  0
   -0.0360  -26.9270   10.1630 O   0  0  0  0  0  0  0  0  0  0  0  0
   -0.3290  -28.2840   12.7860 C   0  0  0  0  0  0  0  0  0  0  0  0
   -0.2300  -28.5410   14.1880 O   0  0  0  0  0  0  0  0  0  0  0  0
   -2.1180  -26.2080   10.6550 N   0  0  0  0  0  0  0  0  0  0  0  0
   -2.6410  -26.2490    9.2930 C   0  0  2  0  0  0  0  0  0  0  0  0
   -2.4020  -27.6590    8.7520 C   0  0  0  0  0  0  0  0  0  0  0  0
   -2.7150  -28.6480    9.4220 O   0  0  0  0  0  0  0  0  0  0  0  0
   -2.0660  -25.1190    8.4120 C   0  0  0  0  0  0  0  0  0  0  0  0
   -2.8870  -24.8790    7.1700 C   0  0  0  0  0  0  0  0  0  0  0  0
   -4.2240  -24.4940    7.1780 N   0  0  0  0  0  0  0  0  0  0  0  0
   -2.4610  -24.9900    5.8740 C   0  0  0  0  0  0  0  0  0  0  0  0
   -4.5650  -24.3310    5.8920 C   0  0  0  0  0  0  0  0  0  0  0  0
   -3.5320  -24.6290    5.0840 N   0  0  0  0  0  0  0  0  0  0  0  0
   -1.8070  -27.7710    7.5720 N   0  0  0  0  0  0  0  0  0  0  0  0
   -1.4030  -29.0110    6.9610 C   0  0  2  0  0  0  0  0  0  0  0  0
    0.0900  -28.8870    6.7290 C   0  0  0  0  0  0  0  0  0  0  0  0
    0.5350  -27.8360    6.2720 O   0  0  0  0  0  0  0  0  0  0  0  0
   -2.1710  -29.1450    5.6490 C   0  0  0  0  0  0  0  0  0  0  0  0
   -1.6860  -30.2910    4.7450 C   0  0  0  0  0  0  0  0  0  0  0  0
   -2.3150  -31.6160    5.1700 C   0  0  0  0  0  0  0  0  0  0  0  0
   -2.0690  -29.9570    3.3060 C   0  0  0  0  0  0  0  0  0  0  0  0
    0.8380  -29.9490    7.0110 N   0  0  0  0  0  0  0  0  0  0  0  0
    2.2370  -30.1050    6.6670 C   0  0  1  0  0  0  0  0  0  0  0  0
    3.1640  -29.8270    7.8660 C   0  0  0  0  0  0  0  0  0  0  0  0
    3.0130  -28.4030    8.4450 C   0  0  0  0  0  0  0  0  0  0  0  0
    3.4060  -27.2750    7.4630 C   0  0  0  0  0  0  0  0  0  0  0  0
    2.7210  -25.9480    7.8250 C   0  0  0  0  0  0  0  0  0  0  0  0
    2.7720  -24.9360    6.7300 N   0  3  0  0  0  0  0  0  0  0  0  0
    4.1170  -24.4940    6.3050 C   0  0  0  0  0  0  0  0  0  0  0  0
    1.8570  -25.1600    5.5780 C   0  0  0  0  0  0  0  0  0  0  0  0
    2.3590  -31.5080    6.0940 C   0  0  0  0  0  0  0  0  0  0  0  0
    2.5150  -32.4950    6.8110 O   0  0  0  0  0  0  0  0  0  0  0  0
    2.2160  -31.5400    4.7680 N   0  0  0  0  0  0  0  0  0  0  0  0
    2.1070  -32.6980    3.8760 C   0  0  2  0  0  0  0  0  0  0  0  0
    3.2450  -33.7260    4.0050 C   0  0  0  0  0  0  0  0  0  0  0  0
    3.1190  -34.8450    3.5040 O   0  0  0  0  0  0  0  0  0  0  0  0
    1.9860  -32.1730    2.4350 C   0  0  0  0  0  0  0  0  0  0  0  0
    2.7960  -31.0060    2.2500 O   0  0  0  0  0  0  0  0  0  0  0  0
    4.3470  -33.3750    4.6890 N   0  0  0  0  0  0  0  0  0  0  0  0
    5.4590  -34.2900    4.9640 C   0  0  2  0  0  0  0  0  0  0  0  0
    5.0170  -35.5640    5.6990 C   0  0  0  0  0  0  0  0  0  0  0  0
    5.6850  -36.5940    5.5700 O   0  0  0  0  0  0  0  0  0  0  0  0
    6.5930  -33.5610    5.7110 C   0  0  0  0  0  0  0  0  0  0  0  0
    6.2180  -33.0620    7.1190 C   0  0  0  0  0  0  0  0  0  0  0  0
    7.4300  -32.4310    7.8180 C   0  0  0  0  0  0  0  0  0  0  0  0
    7.0340  -31.9200    9.2130 C   0  0  0  0  0  0  0  0  0  0  0  0
    8.1970  -31.3670    9.9590 N   0  3  0  0  0  0  0  0  0  0  0  0
    3.9030  -35.5190    6.4390 N   0  0  0  0  0  0  0  0  0  0  0  0
    3.2630  -36.6710    7.0810 C   0  0  2  0  0  0  0  0  0  0  0  0
    1.7480  -36.5160    6.9220 C   0  0  0  0  0  0  0  0  0  0  0  0
    1.2620  -35.4080    6.6760 O   0  0  0  0  0  0  0  0  0  0  0  0
    3.6430  -36.7550    8.5730 C   0  0  0  0  0  0  0  0  0  0  0  0
    5.1160  -37.1300    8.8040 C   0  0  0  0  0  0  0  0  0  0  0  0
    5.4120  -37.3020   10.3040 C   0  0  0  0  0  0  0  0  0  0  0  0
    6.8880  -37.6230   10.5900 C   0  0  0  0  0  0  0  0  0  0  0  0
    7.2930  -38.9830   10.1470 N   0  3  0  0  0  0  0  0  0  0  0  0
    1.0040  -37.6170    7.0600 N   0  0  0  0  0  0  0  0  0  0  0  0
   -0.4550  -37.5870    7.0790 C   0  0  0  0  0  0  0  0  0  0  0  0
   -0.9680  -36.9980    8.3940 C   0  0  0  0  0  0  0  0  0  0  0  0
   -0.2490  -36.9830    9.3960 O   0  0  0  0  0  0  0  0  0  0  0  0
   -2.2230  -36.5330    8.3930 N   0  0  0  0  0  0  0  0  0  0  0  0
   -2.8840  -35.8990    9.5440 C   0  0  2  0  0  0  0  0  0  0  0  0
   -4.2990  -36.4710    9.7820 C   0  0  0  0  0  0  0  0  0  0  0  0
   -5.0350  -35.9320   10.6110 O   0  0  0  0  0  0  0  0  0  0  0  0
   -2.8650  -34.3680    9.3490 C   0  0  0  0  0  0  0  0  0  0  0  0
   -1.4870  -33.7680    9.6860 C   0  0  0  0  0  0  0  0  0  0  0  0
   -1.4060  -32.2760    9.3650 C   0  0  0  0  0  0  0  0  0  0  0  0
   -0.6320  -31.8570    8.5080 O   0  0  0  0  0  0  0  0  0  0  0  0
   -2.1870  -31.4420   10.0270 N   0  0  0  0  0  0  0  0  0  0  0  0
   -4.6450  -37.5750    9.1030 N   0  0  0  0  0  0  0  0  0  0  0  0
   -5.8300  -38.4120    9.3070 C   0  0  2  0  0  0  0  0  0  0  0  0
   -7.0970  -37.6450    9.7350 C   0  0  0  0  0  0  0  0  0  0  0  0
   -7.5540  -37.7650   10.8820 O   0  0  0  0  0  0  0  0  0  0  0  0
   -5.4640  -39.5490   10.2680 C   0  0  0  0  0  0  0  0  0  0  0  0
   -4.2950  -40.2320    9.8210 O   0  0  0  0  0  0  0  0  0  0  0  0
   -7.6520  -36.8520    8.8060 N   0  0  0  0  0  0  0  0  0  0  0  0
   -8.9560  -36.2120    8.9450 C   0  0  2  0  0  0  0  0  0  0  0  0
   -9.9960  -37.2430    9.4150 C   0  0  0  0  0  0  0  0  0  0  0  0
  -10.7470  -36.9520   10.3770 O   0  5  0  0  0  0  0  0  0  0  0  0
   -9.3640  -35.5680    7.6060 C   0  0  2  0  0  0  0  0  0  0  0  0
   -8.2600  -34.9030    7.0140 O   0  0  0  0  0  0  0  0  0  0  0  0
  -10.4950  -34.5470    7.7850 C   0  0  0  0  0  0  0  0  0  0  0  0
  -10.0670  -38.3530    8.8300 O   0  0  0  0  0  0  0  0  0  0  0  0
    1.8871  -16.9945   21.6283 H   0  0  0  0  0  0  0  0  0  0  0  0
    1.1107  -15.9323   20.6393 H   0  0  0  0  0  0  0  0  0  0  0  0
    2.3988  -16.7895   20.0774 H   0  0  0  0  0  0  0  0  0  0  0  0
    1.2366  -18.8496   20.2449 H   0  0  0  0  0  0  0  0  0  0  0  0
   -1.1220  -17.1398   21.1733 H   0  0  0  0  0  0  0  0  0  0  0  0
   -0.1250  -18.2009   22.2254 H   0  0  0  0  0  0  0  0  0  0  0  0
   -0.8564  -20.1742   20.8582 H   0  0  0  0  0  0  0  0  0  0  0  0
   -1.9260  -19.0845   19.9121 H   0  0  0  0  0  0  0  0  0  0  0  0
   -3.2685  -20.1963   21.5918 H   0  0  0  0  0  0  0  0  0  0  0  0
   -3.0939  -18.4714   22.0615 H   0  0  0  0  0  0  0  0  0  0  0  0
   -1.0492  -20.1659   23.2793 H   0  0  0  0  0  0  0  0  0  0  0  0
   -4.4692  -19.4538   25.3714 H   0  0  0  0  0  0  0  0  0  0  0  0
   -4.4572  -19.1750   23.6093 H   0  0  0  0  0  0  0  0  0  0  0  0
   -1.0797  -20.4782   25.5071 H   0  0  0  0  0  0  0  0  0  0  0  0
   -2.5732  -20.1813   26.4366 H   0  0  0  0  0  0  0  0  0  0  0  0
    0.1972  -19.6213   18.4131 H   0  0  0  0  0  0  0  0  0  0  0  0
   -1.1479  -17.7371   16.5471 H   0  0  0  0  0  0  0  0  0  0  0  0
   -0.0149  -18.8654   14.6395 H   0  0  0  0  0  0  0  0  0  0  0  0
    0.9526  -19.8441   15.7939 H   0  0  0  0  0  0  0  0  0  0  0  0
    1.1709  -18.0625   15.7238 H   0  0  0  0  0  0  0  0  0  0  0  0
   -2.3568  -19.0921   14.8824 H   0  0  0  0  0  0  0  0  0  0  0  0
   -4.0731  -21.0736   15.9642 H   0  0  0  0  0  0  0  0  0  0  0  0
   -4.8290  -19.7927   14.1053 H   0  0  0  0  0  0  0  0  0  0  0  0
   -4.6145  -21.4664   13.4892 H   0  0  0  0  0  0  0  0  0  0  0  0
   -2.0729  -21.8741   12.1935 H   0  0  0  0  0  0  0  0  0  0  0  0
   -1.8080  -17.8087   10.9032 H   0  0  0  0  0  0  0  0  0  0  0  0
   -0.7944  -20.1534   10.6725 H   0  0  0  0  0  0  0  0  0  0  0  0
   -4.3426  -23.1744   14.7296 H   0  0  0  0  0  0  0  0  0  0  0  0
   -2.4504  -25.0385   15.6349 H   0  0  0  0  0  0  0  0  0  0  0  0
   -4.0164  -26.6322   14.7234 H   0  0  0  0  0  0  0  0  0  0  0  0
   -4.6329  -25.4417   13.5278 H   0  0  0  0  0  0  0  0  0  0  0  0
   -6.0110  -25.6610   15.3694 H   0  0  0  0  0  0  0  0  0  0  0  0
   -1.9371  -26.9660   14.0685 H   0  0  0  0  0  0  0  0  0  0  0  0
    0.3924  -26.2448   12.6727 H   0  0  0  0  0  0  0  0  0  0  0  0
    0.6003  -28.6125   12.2976 H   0  0  0  0  0  0  0  0  0  0  0  0
   -1.1780  -28.8529   12.3792 H   0  0  0  0  0  0  0  0  0  0  0  0
   -0.0978  -29.4710   14.3298 H   0  0  0  0  0  0  0  0  0  0  0  0
   -2.7049  -25.8332   11.3727 H   0  0  0  0  0  0  0  0  0  0  0  0
   -3.7285  -26.0905    9.3401 H   0  0  0  0  0  0  0  0  0  0  0  0
   -1.0436  -25.3918    8.1115 H   0  0  0  0  0  0  0  0  0  0  0  0
   -2.0395  -24.1909    9.0018 H   0  0  0  0  0  0  0  0  0  0  0  0
   -1.4740  -25.3011    5.5347 H   0  0  0  0  0  0  0  0  0  0  0  0
   -5.5447  -24.0022    5.5484 H   0  0  0  0  0  0  0  0  0  0  0  0
   -3.5395  -24.5937    4.0546 H   0  0  0  0  0  0  0  0  0  0  0  0
   -1.6244  -26.9277    7.0665 H   0  0  0  0  0  0  0  0  0  0  0  0
   -1.6199  -29.8685    7.6149 H   0  0  0  0  0  0  0  0  0  0  0  0
   -2.0699  -28.2014    5.0928 H   0  0  0  0  0  0  0  0  0  0  0  0
   -3.2309  -29.3189    5.8866 H   0  0  0  0  0  0  0  0  0  0  0  0
   -0.5919  -30.3761    4.8208 H   0  0  0  0  0  0  0  0  0  0  0  0
   -1.9553  -32.4205    4.5116 H   0  0  0  0  0  0  0  0  0  0  0  0
   -3.4100  -31.5429    5.0950 H   0  0  0  0  0  0  0  0  0  0  0  0
   -2.0328  -31.8392    6.2095 H   0  0  0  0  0  0  0  0  0  0  0  0
   -1.6083  -29.0010    3.0164 H   0  0  0  0  0  0  0  0  0  0  0  0
   -3.1631  -29.8754    3.2273 H   0  0  0  0  0  0  0  0  0  0  0  0
   -1.7116  -30.7537    2.6371 H   0  0  0  0  0  0  0  0  0  0  0  0
    0.3992  -30.7023    7.5009 H   0  0  0  0  0  0  0  0  0  0  0  0
    2.4953  -29.3815    5.8797 H   0  0  0  0  0  0  0  0  0  0  0  0
    4.2057  -29.9611    7.5391 H   0  0  0  0  0  0  0  0  0  0  0  0
    2.9327  -30.5520    8.6603 H   0  0  0  0  0  0  0  0  0  0  0  0
    3.6530  -28.3232    9.3361 H   0  0  0  0  0  0  0  0  0  0  0  0
    1.9617  -28.2578    8.7343 H   0  0  0  0  0  0  0  0  0  0  0  0
    3.1056  -27.5662    6.4457 H   0  0  0  0  0  0  0  0  0  0  0  0
    4.4965  -27.1351    7.4975 H   0  0  0  0  0  0  0  0  0  0  0  0
    3.2202  -25.5284    8.7109 H   0  0  0  0  0  0  0  0  0  0  0  0
    1.6664  -26.1532    8.0611 H   0  0  0  0  0  0  0  0  0  0  0  0
    2.3887  -24.1158    7.1732 H   0  0  0  0  0  0  0  0  0  0  0  0
    4.0213  -23.7529    5.4978 H   0  0  0  0  0  0  0  0  0  0  0  0
    4.6898  -25.3600    5.9417 H   0  0  0  0  0  0  0  0  0  0  0  0
    4.6408  -24.0401    7.1592 H   0  0  0  0  0  0  0  0  0  0  0  0
    0.8740  -25.4862    5.9486 H   0  0  0  0  0  0  0  0  0  0  0  0
    2.2773  -25.9360    4.9214 H   0  0  0  0  0  0  0  0  0  0  0  0
    1.7432  -24.2234    5.0125 H   0  0  0  0  0  0  0  0  0  0  0  0
    2.1777  -30.6473    4.3189 H   0  0  0  0  0  0  0  0  0  0  0  0
    1.1743  -33.2233    4.1294 H   0  0  0  0  0  0  0  0  0  0  0  0
    0.9354  -31.9191    2.2305 H   0  0  0  0  0  0  0  0  0  0  0  0
    2.3166  -32.9560    1.7367 H   0  0  0  0  0  0  0  0  0  0  0  0
    2.5115  -30.3261    2.8494 H   0  0  0  0  0  0  0  0  0  0  0  0
    4.4123  -32.4371    5.0296 H   0  0  0  0  0  0  0  0  0  0  0  0
    5.8620  -34.6081    3.9912 H   0  0  0  0  0  0  0  0  0  0  0  0
    6.8969  -32.6920    5.1090 H   0  0  0  0  0  0  0  0  0  0  0  0
    7.4412  -34.2547    5.8078 H   0  0  0  0  0  0  0  0  0  0  0  0
    5.8588  -33.9116    7.7183 H   0  0  0  0  0  0  0  0  0  0  0  0
    5.4198  -32.3100    7.0337 H   0  0  0  0  0  0  0  0  0  0  0  0
    7.7995  -31.5889    7.2144 H   0  0  0  0  0  0  0  0  0  0  0  0
    8.2239  -33.1855    7.9197 H   0  0  0  0  0  0  0  0  0  0  0  0
    6.6083  -32.7550    9.7887 H   0  0  0  0  0  0  0  0  0  0  0  0
    6.2775  -31.1296    9.0994 H   0  0  0  0  0  0  0  0  0  0  0  0
    7.8930  -31.0449   10.8645 H   0  0  0  0  0  0  0  0  0  0  0  0
    8.5913  -30.5960    9.4431 H   0  0  0  0  0  0  0  0  0  0  0  0
    8.8944  -32.0855   10.0748 H   0  0  0  0  0  0  0  0  0  0  0  0
    3.4714  -34.6257    6.5644 H   0  0  0  0  0  0  0  0  0  0  0  0
    3.5902  -37.5940    6.5801 H   0  0  0  0  0  0  0  0  0  0  0  0
    3.0095  -37.5157    9.0526 H   0  0  0  0  0  0  0  0  0  0  0  0
    3.4550  -35.7756    9.0371 H   0  0  0  0  0  0  0  0  0  0  0  0
    5.7578  -36.3334    8.3997 H   0  0  0  0  0  0  0  0  0  0  0  0
    5.3326  -38.0748    8.2839 H   0  0  0  0  0  0  0  0  0  0  0  0
    4.7926  -38.1241   10.6919 H   0  0  0  0  0  0  0  0  0  0  0  0
    5.1491  -36.3684   10.8229 H   0  0  0  0  0  0  0  0  0  0  0  0
    7.0583  -37.5443   11.6739 H   0  0  0  0  0  0  0  0  0  0  0  0
    7.5132  -36.8851   10.0660 H   0  0  0  0  0  0  0  0  0  0  0  0
    8.2667  -39.1303   10.3621 H   0  0  0  0  0  0  0  0  0  0  0  0
    7.1519  -39.0684    9.1526 H   0  0  0  0  0  0  0  0  0  0  0  0
    6.7351  -39.6725   10.6260 H   0  0  0  0  0  0  0  0  0  0  0  0
    1.4662  -38.4987    7.1542 H   0  0  0  0  0  0  0  0  0  0  0  0
   -0.8385  -38.6121    6.9689 H   0  0  0  0  0  0  0  0  0  0  0  0
   -0.8141  -36.9694    6.2426 H   0  0  0  0  0  0  0  0  0  0  0  0
   -2.7499  -36.6232    7.5479 H   0  0  0  0  0  0  0  0  0  0  0  0
   -2.2905  -36.1265   10.4417 H   0  0  0  0  0  0  0  0  0  0  0  0
   -3.6214  -33.9154   10.0070 H   0  0  0  0  0  0  0  0  0  0  0  0
   -3.1067  -34.1391    8.3006 H   0  0  0  0  0  0  0  0  0  0  0  0
   -0.7192  -34.2969    9.1022 H   0  0  0  0  0  0  0  0  0  0  0  0
   -1.2934  -33.9092   10.7596 H   0  0  0  0  0  0  0  0  0  0  0  0
   -2.1502  -30.4617    9.8328 H   0  0  0  0  0  0  0  0  0  0  0  0
   -2.8152  -31.7907   10.7225 H   0  0  0  0  0  0  0  0  0  0  0  0
   -4.0226  -37.8593    8.3738 H   0  0  0  0  0  0  0  0  0  0  0  0
   -6.0673  -38.8708    8.3358 H   0  0  0  0  0  0  0  0  0  0  0  0
   -6.3006  -40.2614   10.3194 H   0  0  0  0  0  0  0  0  0  0  0  0
   -5.2770  -39.1303   11.2678 H   0  0  0  0  0  0  0  0  0  0  0  0
   -4.0860  -40.9311   10.4292 H   0  0  0  0  0  0  0  0  0  0  0  0
   -7.1386  -36.6889    7.9635 H   0  0  0  0  0  0  0  0  0  0  0  0
   -8.8831  -35.4199    9.7048 H   0  0  0  0  0  0  0  0  0  0  0  0
   -9.7085  -36.3644    6.9299 H   0  0  0  0  0  0  0  0  0  0  0  0
   -8.5308  -34.5131    6.1910 H   0  0  0  0  0  0  0  0  0  0  0  0
  -10.7548  -34.1126    6.8084 H   0  0  0  0  0  0  0  0  0  0  0  0
  -10.1638  -33.7484    8.4651 H   0  0  0  0  0  0  0  0  0  0  0  0
  -11.3774  -35.0479    8.2098 H   0  0  0  0  0  0  0  0  0  0  0  0
  1  2  1  0  0  0  0
  1119  1  0  0  0  0
  1120  1  0  0  0  0
  1121  1  0  0  0  0
  2  3  1  0  0  0  0
  2  5  1  0  0  0  0
  2122  1  1  0  0  0
  3  4  2  0  0  0  0
  3 12  1  0  0  0  0
  5  6  1  0  0  0  0
  5123  1  0  0  0  0
  5124  1  0  0  0  0
  6  7  1  0  0  0  0
  6125  1  0  0  0  0
  6126  1  0  0  0  0
  7  8  1  0  0  0  0
  7127  1  0  0  0  0
  7128  1  0  0  0  0
  8  9  1  0  0  0  0
  8129  1  0  0  0  0
  9 10  1  0  0  0  0
  9 11  1  0  0  0  0
 10130  1  0  0  0  0
 10131  1  0  0  0  0
 11132  1  0  0  0  0
 11133  1  0  0  0  0
 12 13  1  0  0  0  0
 12134  1  0  0  0  0
 13 14  1  0  0  0  0
 13 16  1  0  0  0  0
 13135  1  6  0  0  0
 14 15  2  0  0  0  0
 14 17  1  0  0  0  0
 16136  1  0  0  0  0
 16137  1  0  0  0  0
 16138  1  0  0  0  0
 17 18  1  0  0  0  0
 17139  1  0  0  0  0
 18 19  1  0  0  0  0
 18 21  1  0  0  0  0
 18140  1  1  0  0  0
 19 20  2  0  0  0  0
 19 27  1  0  0  0  0
 21 22  1  0  0  0  0
 21141  1  0  0  0  0
 21142  1  0  0  0  0
 22 23  1  0  0  0  0
 22 24  2  0  0  0  0
 23 25  2  0  0  0  0
 24 26  1  0  0  0  0
 24143  1  0  0  0  0
 25 26  1  0  0  0  0
 25144  1  0  0  0  0
 26145  1  0  0  0  0
 27 28  1  0  0  0  0
 27146  1  0  0  0  0
 28 29  1  0  0  0  0
 28 31  1  0  0  0  0
 28147  1  1  0  0  0
 29 30  2  0  0  0  0
 29 33  1  0  0  0  0
 31 32  1  0  0  0  0
 31148  1  0  0  0  0
 31149  1  0  0  0  0
 32150  1  0  0  0  0
 33 34  1  0  0  0  0
 33151  1  0  0  0  0
 34 35  1  0  0  0  0
 34 37  1  0  0  0  0
 34152  1  1  0  0  0
 35 36  2  0  0  0  0
 35 39  1  0  0  0  0
 37 38  1  0  0  0  0
 37153  1  0  0  0  0
 37154  1  0  0  0  0
 38155  1  0  0  0  0
 39 40  1  0  0  0  0
 39156  1  0  0  0  0
 40 41  1  0  0  0  0
 40 43  1  0  0  0  0
 40157  1  1  0  0  0
 41 42  2  0  0  0  0
 41 49  1  0  0  0  0
 43 44  1  0  0  0  0
 43158  1  0  0  0  0
 43159  1  0  0  0  0
 44 45  1  0  0  0  0
 44 46  2  0  0  0  0
 45 47  2  0  0  0  0
 46 48  1  0  0  0  0
 46160  1  0  0  0  0
 47 48  1  0  0  0  0
 47161  1  0  0  0  0
 48162  1  0  0  0  0
 49 50  1  0  0  0  0
 49163  1  0  0  0  0
 50 51  1  0  0  0  0
 50 53  1  0  0  0  0
 50164  1  1  0  0  0
 51 52  2  0  0  0  0
 51 57  1  0  0  0  0
 53 54  1  0  0  0  0
 53165  1  0  0  0  0
 53166  1  0  0  0  0
 54 55  1  0  0  0  0
 54 56  1  0  0  0  0
 54167  1  0  0  0  0
 55168  1  0  0  0  0
 55169  1  0  0  0  0
 55170  1  0  0  0  0
 56171  1  0  0  0  0
 56172  1  0  0  0  0
 56173  1  0  0  0  0
 57 58  1  0  0  0  0
 57174  1  0  0  0  0
 58 59  1  0  0  0  0
 58 66  1  0  0  0  0
 58175  1  6  0  0  0
 59 60  1  0  0  0  0
 59176  1  0  0  0  0
 59177  1  0  0  0  0
 60 61  1  0  0  0  0
 60178  1  0  0  0  0
 60179  1  0  0  0  0
 61 62  1  0  0  0  0
 61180  1  0  0  0  0
 61181  1  0  0  0  0
 62 63  1  0  0  0  0
 62182  1  0  0  0  0
 62183  1  0  0  0  0
 63 64  1  0  0  0  0
 63 65  1  0  0  0  0
 63184  1  0  0  0  0
 64185  1  0  0  0  0
 64186  1  0  0  0  0
 64187  1  0  0  0  0
 65188  1  0  0  0  0
 65189  1  0  0  0  0
 65190  1  0  0  0  0
 66 67  2  0  0  0  0
 66 68  1  0  0  0  0
 68 69  1  0  0  0  0
 68191  1  0  0  0  0
 69 70  1  0  0  0  0
 69 72  1  0  0  0  0
 69192  1  1  0  0  0
 70 71  2  0  0  0  0
 70 74  1  0  0  0  0
 72 73  1  0  0  0  0
 72193  1  0  0  0  0
 72194  1  0  0  0  0
 73195  1  0  0  0  0
 74 75  1  0  0  0  0
 74196  1  0  0  0  0
 75 76  1  0  0  0  0
 75 78  1  0  0  0  0
 75197  1  6  0  0  0
 76 77  2  0  0  0  0
 76 83  1  0  0  0  0
 78 79  1  0  0  0  0
 78198  1  0  0  0  0
 78199  1  0  0  0  0
 79 80  1  0  0  0  0
 79200  1  0  0  0  0
 79201  1  0  0  0  0
 80 81  1  0  0  0  0
 80202  1  0  0  0  0
 80203  1  0  0  0  0
 81 82  1  0  0  0  0
 81204  1  0  0  0  0
 81205  1  0  0  0  0
 82206  1  0  0  0  0
 82207  1  0  0  0  0
 82208  1  0  0  0  0
 83 84  1  0  0  0  0
 83209  1  0  0  0  0
 84 85  1  0  0  0  0
 84 87  1  0  0  0  0
 84210  1  6  0  0  0
 85 86  2  0  0  0  0
 85 92  1  0  0  0  0
 87 88  1  0  0  0  0
 87211  1  0  0  0  0
 87212  1  0  0  0  0
 88 89  1  0  0  0  0
 88213  1  0  0  0  0
 88214  1  0  0  0  0
 89 90  1  0  0  0  0
 89215  1  0  0  0  0
 89216  1  0  0  0  0
 90 91  1  0  0  0  0
 90217  1  0  0  0  0
 90218  1  0  0  0  0
 91219  1  0  0  0  0
 91220  1  0  0  0  0
 91221  1  0  0  0  0
 92 93  1  0  0  0  0
 92222  1  0  0  0  0
 93 94  1  0  0  0  0
 93223  1  0  0  0  0
 93224  1  0  0  0  0
 94 95  2  0  0  0  0
 94 96  1  0  0  0  0
 96 97  1  0  0  0  0
 96225  1  0  0  0  0
 97 98  1  0  0  0  0
 97100  1  0  0  0  0
 97226  1  1  0  0  0
 98 99  2  0  0  0  0
 98105  1  0  0  0  0
100101  1  0  0  0  0
100227  1  0  0  0  0
100228  1  0  0  0  0
101102  1  0  0  0  0
101229  1  0  0  0  0
101230  1  0  0  0  0
102103  2  0  0  0  0
102104  1  0  0  0  0
104231  1  0  0  0  0
104232  1  0  0  0  0
105106  1  0  0  0  0
105233  1  0  0  0  0
106107  1  0  0  0  0
106109  1  0  0  0  0
106234  1  6  0  0  0
107108  2  0  0  0  0
107111  1  0  0  0  0
109110  1  0  0  0  0
109235  1  0  0  0  0
109236  1  0  0  0  0
110237  1  0  0  0  0
111112  1  0  0  0  0
111238  1  0  0  0  0
112113  1  0  0  0  0
112115  1  0  0  0  0
112239  1  1  0  0  0
113114  1  0  0  0  0
113118  2  0  0  0  0
115116  1  0  0  0  0
115117  1  0  0  0  0
115240  1  6  0  0  0
116241  1  0  0  0  0
117242  1  0  0  0  0
117243  1  0  0  0  0
117244  1  0  0  0  0
M  CHG  5   1   1  63   1  82   1  91   1 114  -1
M  END
