2nn8_ligand
 OpenBabel08222323343D

 45 46  0  0  1  0  0  0  0  0999 V2000
   20.2520   37.6300   32.8210 C   0  0  2  0  0  0  0  0  0  0  0  0
   18.7740   38.0010   32.7830 C   0  0  1  0  0  0  0  0  0  0  0  0
   17.9010   36.7820   33.0530 C   0  0  2  0  0  0  0  0  0  0  0  0
   18.2970   35.6230   32.1550 C   0  0  2  0  0  0  0  0  0  0  0  0
   19.7890   35.3500   32.3000 C   0  0  1  0  0  0  0  0  0  0  0  0
   20.2490   34.2170   31.3990 C   0  0  0  0  0  0  0  0  0  0  0  0
   21.0060   38.7560   32.3800 O   0  0  0  0  0  0  0  0  0  0  0  0
   18.5190   38.9840   33.7920 O   0  0  0  0  0  0  0  0  0  0  0  0
   16.5300   37.1130   32.8200 O   0  0  0  0  0  0  0  0  0  0  0  0
   17.9690   35.9540   30.7930 O   0  0  0  0  0  0  0  0  0  0  0  0
   20.5220   36.5290   31.9490 O   0  0  0  0  0  0  0  0  0  0  0  0
   21.6570   34.0580   31.5740 O   0  0  0  0  0  0  0  0  0  0  0  0
   25.0600   39.8950   32.7080 C   0  0  2  0  0  0  0  0  0  0  0  0
   24.6360   39.0970   31.4720 C   0  0  1  0  0  0  0  0  0  0  0  0
   23.1200   39.1070   31.3010 C   0  0  2  0  0  0  0  0  0  0  0  0
   22.4180   38.6520   32.5770 C   0  0  1  0  0  0  0  0  0  0  0  0
   22.8980   39.5070   33.7630 C   0  0  1  0  0  0  0  0  0  0  0  0
   22.3130   39.0650   35.1050 C   0  0  0  0  0  0  0  0  0  0  0  0
   26.4560   39.6730   32.9310 O   0  0  0  0  0  0  0  0  0  0  0  0
   25.2510   39.6350   30.2970 O   0  0  0  0  0  0  0  0  0  0  0  0
   22.7690   38.2560   30.2060 O   0  0  0  0  0  0  0  0  0  0  0  0
   24.3300   39.4410   33.8570 O   0  0  0  0  0  0  0  0  0  0  0  0
   22.5920   37.6770   35.3410 O   0  0  0  0  0  0  0  0  0  0  0  0
   20.5391   37.3635   33.8489 H   0  0  0  0  0  0  0  0  0  0  0  0
   18.5277   38.4126   31.7931 H   0  0  0  0  0  0  0  0  0  0  0  0
   18.0267   36.4794   34.1031 H   0  0  0  0  0  0  0  0  0  0  0  0
   17.7377   34.7236   32.4522 H   0  0  0  0  0  0  0  0  0  0  0  0
   20.0004   35.0837   33.3461 H   0  0  0  0  0  0  0  0  0  0  0  0
   20.0286   34.4617   30.3495 H   0  0  0  0  0  0  0  0  0  0  0  0
   19.7311   33.2867   31.6752 H   0  0  0  0  0  0  0  0  0  0  0  0
   19.0596   39.7485   33.6315 H   0  0  0  0  0  0  0  0  0  0  0  0
   16.4156   37.3613   31.9102 H   0  0  0  0  0  0  0  0  0  0  0  0
   17.0362   36.1202   30.7245 H   0  0  0  0  0  0  0  0  0  0  0  0
   22.0976   34.8656   31.3373 H   0  0  0  0  0  0  0  0  0  0  0  0
   24.8690   40.9660   32.5451 H   0  0  0  0  0  0  0  0  0  0  0  0
   24.9677   38.0560   31.6000 H   0  0  0  0  0  0  0  0  0  0  0  0
   22.7966   40.1332   31.0724 H   0  0  0  0  0  0  0  0  0  0  0  0
   22.6721   37.6006   32.7767 H   0  0  0  0  0  0  0  0  0  0  0  0
   22.5959   40.5484   33.5783 H   0  0  0  0  0  0  0  0  0  0  0  0
   21.2239   39.2186   35.0936 H   0  0  0  0  0  0  0  0  0  0  0  0
   22.7597   39.6663   35.9105 H   0  0  0  0  0  0  0  0  0  0  0  0
   26.6105   38.7452   33.0652 H   0  0  0  0  0  0  0  0  0  0  0  0
   24.9522   40.5270   30.1647 H   0  0  0  0  0  0  0  0  0  0  0  0
   23.0317   37.3644   30.4025 H   0  0  0  0  0  0  0  0  0  0  0  0
   23.5322   37.5418   35.3537 H   0  0  0  0  0  0  0  0  0  0  0  0
  1  2  1  0  0  0  0
  1 11  1  0  0  0  0
  1 24  1  1  0  0  0
  2  3  1  0  0  0  0
  2  8  1  0  0  0  0
  2 25  1  6  0  0  0
  3  4  1  0  0  0  0
  3  9  1  0  0  0  0
  3 26  1  1  0  0  0
  4 10  1  0  0  0  0
  4 27  1  1  0  0  0
  5  4  1  0  0  0  0
  5  6  1  0  0  0  0
  5 28  1  1  0  0  0
  6 12  1  0  0  0  0
  6 29  1  0  0  0  0
  6 30  1  0  0  0  0
  7  1  1  0  0  0  0
  8 31  1  0  0  0  0
  9 32  1  0  0  0  0
 10 33  1  0  0  0  0
 11  5  1  0  0  0  0
 12 34  1  0  0  0  0
 13 19  1  0  0  0  0
 13 22  1  0  0  0  0
 13 35  1  6  0  0  0
 14 13  1  0  0  0  0
 14 20  1  0  0  0  0
 14 36  1  1  0  0  0
 15 14  1  0  0  0  0
 15 16  1  0  0  0  0
 15 21  1  0  0  0  0
 15 37  1  6  0  0  0
 16  7  1  0  0  0  0
 16 17  1  0  0  0  0
 16 38  1  1  0  0  0
 17 18  1  0  0  0  0
 17 22  1  0  0  0  0
 17 39  1  6  0  0  0
 18 23  1  0  0  0  0
 18 40  1  0  0  0  0
 18 41  1  0  0  0  0
 19 42  1  0  0  0  0
 20 43  1  0  0  0  0
 21 44  1  0  0  0  0
 23 45  1  0  0  0  0
M  END
