2nng_ligand
 OpenBabel08222323343D

 26 26  0  0  0  0  0  0  0  0999 V2000
   -5.2110    2.2850   15.7470 C   0  0  0  0  0  0  0  0  0  0  0  0
   -3.8580    2.2760   15.4320 C   0  0  0  0  0  0  0  0  0  0  0  0
   -3.3380    3.3490   14.7060 C   0  0  0  0  0  0  0  0  0  0  0  0
   -4.1320    4.4050   14.2860 C   0  0  0  0  0  0  0  0  0  0  0  0
   -5.4890    4.3670   14.5920 C   0  0  0  0  0  0  0  0  0  0  0  0
   -6.0230    3.3260   15.3110 C   0  0  0  0  0  0  0  0  0  0  0  0
   -5.8950    0.9400   16.7130 S   0  0  0  0  0  0  0  0  0  0  0  0
   -7.3120    1.0580   16.5550 O   0  0  0  0  0  0  0  0  0  0  0  0
   -5.3200    1.1250   18.0250 O   0  0  0  0  0  0  0  0  0  0  0  0
   -5.3770   -0.4270   16.0610 N   0  0  0  0  0  0  0  0  0  0  0  0
   -3.6430    5.5140   13.3710 C   0  0  0  0  0  0  0  0  0  0  0  0
   -2.5690    6.4240   13.8810 C   0  0  0  0  0  0  0  0  0  0  0  0
   -2.1560    7.1920   12.6700 N   0  3  0  0  0  0  0  0  0  0  0  0
   -3.2213    1.4555   15.7425 H   0  0  0  0  0  0  0  0  0  0  0  0
   -2.2815    3.3567   14.4633 H   0  0  0  0  0  0  0  0  0  0  0  0
   -6.1343    5.1713   14.2577 H   0  0  0  0  0  0  0  0  0  0  0  0
   -7.0826    3.3158   15.5397 H   0  0  0  0  0  0  0  0  0  0  0  0
   -5.6490   -1.3042   16.4566 H   0  0  0  0  0  0  0  0  0  0  0  0
   -4.7814   -0.4038   15.2581 H   0  0  0  0  0  0  0  0  0  0  0  0
   -4.5123    6.1408   13.1233 H   0  0  0  0  0  0  0  0  0  0  0  0
   -3.2611    5.0383   12.4557 H   0  0  0  0  0  0  0  0  0  0  0  0
   -1.7251    5.8469   14.2868 H   0  0  0  0  0  0  0  0  0  0  0  0
   -2.9605    7.0968   14.6582 H   0  0  0  0  0  0  0  0  0  0  0  0
   -1.4252    7.8410   12.9168 H   0  0  0  0  0  0  0  0  0  0  0  0
   -2.9479    7.6997   12.3078 H   0  0  0  0  0  0  0  0  0  0  0  0
   -1.8158    6.5542   11.9675 H   0  0  0  0  0  0  0  0  0  0  0  0
  1  2  2  0  0  0  0
  1  6  1  0  0  0  0
  1  7  1  0  0  0  0
  2  3  1  0  0  0  0
  2 14  1  0  0  0  0
  3  4  2  0  0  0  0
  3 15  1  0  0  0  0
  4  5  1  0  0  0  0
  4 11  1  0  0  0  0
  5  6  2  0  0  0  0
  5 16  1  0  0  0  0
  6 17  1  0  0  0  0
  7  8  2  0  0  0  0
  7  9  2  0  0  0  0
  7 10  1  0  0  0  0
 10 18  1  0  0  0  0
 10 19  1  0  0  0  0
 11 12  1  0  0  0  0
 11 20  1  0  0  0  0
 11 21  1  0  0  0  0
 12 13  1  0  0  0  0
 12 22  1  0  0  0  0
 12 23  1  0  0  0  0
 13 24  1  0  0  0  0
 13 25  1  0  0  0  0
 13 26  1  0  0  0  0
M  CHG  1  13   1
M  END
