2nq7_ligand
 OpenBabel08222323343D

 37 38  0  0  0  0  0  0  0  0999 V2000
   10.7210   33.2170   23.2850 S   0  0  0  0  0  0  0  0  0  0  0  0
    9.1330   31.2470   23.1770 N   0  0  0  0  0  0  0  0  0  0  0  0
   11.1600   30.9660   21.9780 N   0  0  0  0  0  0  0  0  0  0  0  0
   12.3460   29.1710   20.3630 N   0  0  0  0  0  0  0  0  0  0  0  0
   15.1410   31.5840   20.7510 N   0  0  0  0  0  0  0  0  0  0  0  0
    9.2390   33.3520   24.1420 C   0  0  0  0  0  0  0  0  0  0  0  0
    8.5330   32.1990   23.9600 C   0  0  0  0  0  0  0  0  0  0  0  0
   10.3020   31.6580   22.7710 C   0  0  0  0  0  0  0  0  0  0  0  0
   12.4330   31.2930   21.5980 C   0  0  0  0  0  0  0  0  0  0  0  0
   13.0930   30.2700   20.7270 C   0  0  0  0  0  0  0  0  0  0  0  0
   12.9790   28.2100   19.5390 C   0  0  0  0  0  0  0  0  0  0  0  0
   14.2300   28.2730   19.1160 C   0  0  0  0  0  0  0  0  0  0  0  0
   15.0090   29.4070   19.4960 C   0  0  0  0  0  0  0  0  0  0  0  0
   14.4600   30.4490   20.3150 C   0  0  0  0  0  0  0  0  0  0  0  0
   16.4400   32.0900   20.5970 C   0  0  0  0  0  0  0  0  0  0  0  0
   16.6900   33.5730   21.0280 C   0  0  0  0  0  0  0  0  0  0  0  0
   15.4100   34.2580   21.5550 C   0  0  0  0  0  0  0  0  0  0  0  0
   17.2360   34.3890   19.8290 C   0  0  0  0  0  0  0  0  0  0  0  0
   17.7450   33.5860   22.1550 C   0  0  0  0  0  0  0  0  0  0  0  0
   12.9780   32.3100   21.9730 O   0  0  0  0  0  0  0  0  0  0  0  0
   17.3410   31.4070   20.1640 O   0  0  0  0  0  0  0  0  0  0  0  0
   10.8137   30.0977   21.6228 H   0  0  0  0  0  0  0  0  0  0  0  0
   14.5645   32.1818   21.3080 H   0  0  0  0  0  0  0  0  0  0  0  0
    8.9179   34.2106   24.7298 H   0  0  0  0  0  0  0  0  0  0  0  0
    7.5530   32.0443   24.4091 H   0  0  0  0  0  0  0  0  0  0  0  0
   12.3908   27.3535   19.2299 H   0  0  0  0  0  0  0  0  0  0  0  0
   14.6513   27.4873   18.4993 H   0  0  0  0  0  0  0  0  0  0  0  0
   16.0365   29.4824   19.1588 H   0  0  0  0  0  0  0  0  0  0  0  0
   15.6407   35.2943   21.8430 H   0  0  0  0  0  0  0  0  0  0  0  0
   15.0344   33.7090   22.4311 H   0  0  0  0  0  0  0  0  0  0  0  0
   14.6432   34.2588   20.7663 H   0  0  0  0  0  0  0  0  0  0  0  0
   18.1487   33.9101   19.4448 H   0  0  0  0  0  0  0  0  0  0  0  0
   17.4695   35.4124   20.1579 H   0  0  0  0  0  0  0  0  0  0  0  0
   16.4774   34.4237   19.0332 H   0  0  0  0  0  0  0  0  0  0  0  0
   17.3709   33.0098   23.0141 H   0  0  0  0  0  0  0  0  0  0  0  0
   17.9374   34.6236   22.4653 H   0  0  0  0  0  0  0  0  0  0  0  0
   18.6784   33.1337   21.7887 H   0  0  0  0  0  0  0  0  0  0  0  0
  1  6  1  0  0  0  0
  2  7  1  0  0  0  0
  3  8  1  0  0  0  0
  3 22  1  0  0  0  0
  4 11  1  0  0  0  0
  5 15  1  0  0  0  0
  5 23  1  0  0  0  0
  6 24  1  0  0  0  0
  7  6  2  0  0  0  0
  7 25  1  0  0  0  0
  8  1  1  0  0  0  0
  8  2  2  0  0  0  0
  9  3  1  0  0  0  0
  9 20  2  0  0  0  0
 10  4  2  0  0  0  0
 10  9  1  0  0  0  0
 10 14  1  0  0  0  0
 11 12  2  0  0  0  0
 11 26  1  0  0  0  0
 12 13  1  0  0  0  0
 12 27  1  0  0  0  0
 13 14  2  0  0  0  0
 13 28  1  0  0  0  0
 14  5  1  0  0  0  0
 15 16  1  0  0  0  0
 15 21  2  0  0  0  0
 16 17  1  0  0  0  0
 16 18  1  0  0  0  0
 16 19  1  0  0  0  0
 17 29  1  0  0  0  0
 17 30  1  0  0  0  0
 17 31  1  0  0  0  0
 18 32  1  0  0  0  0
 18 33  1  0  0  0  0
 18 34  1  0  0  0  0
 19 35  1  0  0  0  0
 19 36  1  0  0  0  0
 19 37  1  0  0  0  0
M  END
