2nqg_ligand
 OpenBabel08222323343D

 84 85  0  0  1  0  0  0  0  0999 V2000
    5.9300    4.0790  -22.5620 C   0  0  0  0  0  0  0  0  0  0  0  0
    7.2660    4.8280  -22.6210 C   0  0  0  0  0  0  0  0  0  0  0  0
    8.5460    4.1020  -22.3080 O   0  0  0  0  0  0  0  0  0  0  0  0
    9.2830    4.8060  -21.3920 C   0  0  0  0  0  0  0  0  0  0  0  0
    8.6710    5.4580  -20.5380 O   0  0  0  0  0  0  0  0  0  0  0  0
   10.8430    4.7560  -21.3980 C   0  0  0  0  0  0  0  0  0  0  0  0
   11.4420    6.1980  -21.3220 C   0  0  2  0  0  0  0  0  0  0  0  0
   11.0790    6.9900  -22.4680 O   0  0  0  0  0  0  0  0  0  0  0  0
   12.9690    6.1880  -21.1610 C   0  0  0  0  0  0  0  0  0  0  0  0
   13.4760    6.0900  -20.0550 O   0  0  0  0  0  0  0  0  0  0  0  0
   13.6910    6.3070  -22.2720 N   0  0  0  0  0  0  0  0  0  0  0  0
   15.1800    6.3010  -22.2860 C   0  0  1  0  0  0  0  0  0  0  0  0
   15.6770    5.1940  -23.2520 C   0  0  0  0  0  0  0  0  0  0  0  0
   15.2680    3.7420  -22.8700 C   0  0  0  0  0  0  0  0  0  0  0  0
   15.6480    3.3190  -21.5080 C   0  0  0  0  0  0  0  0  0  0  0  0
   15.9020    3.0960  -20.4130 N   0  0  0  0  0  0  0  0  0  0  0  0
   15.7020    7.7070  -22.7100 C   0  0  0  0  0  0  0  0  0  0  0  0
   14.9440    8.4780  -23.3020 O   0  0  0  0  0  0  0  0  0  0  0  0
   16.9720    8.0670  -22.4210 N   0  0  0  0  0  0  0  0  0  0  0  0
   18.0500    7.3100  -21.7120 C   0  0  1  0  0  0  0  0  0  0  0  0
   18.7890    6.3290  -22.6730 C   0  0  0  0  0  0  0  0  0  0  0  0
   19.2720    4.9790  -22.0920 C   0  0  0  0  0  0  0  0  0  0  0  0
   19.8470    4.0220  -23.1850 C   0  0  0  0  0  0  0  0  0  0  0  0
   18.8280    3.8670  -24.2450 N   0  0  0  0  0  0  0  0  0  0  0  0
   18.5260    2.7900  -25.0060 C   0  0  0  0  0  3  0  0  0  0  0  0
   17.5220    2.9290  -25.8740 N   0  0  0  0  0  0  0  0  0  0  0  0
   19.1690    1.6160  -24.9330 N   0  0  0  0  0  0  0  0  0  0  0  0
   19.0170    8.3870  -21.1230 C   0  0  0  0  0  0  0  0  0  0  0  0
   20.2460    8.3080  -21.2450 O   0  0  0  0  0  0  0  0  0  0  0  0
   18.4060    9.3940  -20.4820 N   0  0  0  0  0  0  0  0  0  0  0  0
   19.1120   10.5320  -19.8480 C   0  0  2  0  0  0  0  0  0  0  0  0
   20.0930   10.0610  -18.7270 C   0  0  0  0  0  0  0  0  0  0  0  0
   19.7270    9.3290  -17.8030 O   0  0  0  0  0  0  0  0  0  0  0  0
   21.3500   10.5000  -18.8420 N   0  0  0  0  0  0  0  0  0  0  0  0
   18.0440   11.4950  -19.2960 C   0  0  0  0  0  0  0  0  0  0  0  0
   17.6310   12.5800  -20.3080 C   0  0  0  0  0  0  0  0  0  0  0  0
   16.9270   12.4230  -21.5100 C   0  0  0  0  0  0  0  0  0  0  0  0
   16.3880   11.3230  -22.1910 C   0  0  0  0  0  0  0  0  0  0  0  0
   15.7300   11.5170  -23.4100 C   0  0  0  0  0  0  0  0  0  0  0  0
   15.6050   12.7990  -23.9580 C   0  0  0  0  0  0  0  0  0  0  0  0
   16.1400   13.8980  -23.2820 C   0  0  0  0  0  0  0  0  0  0  0  0
   16.8010   13.7080  -22.0600 C   0  0  0  0  0  0  0  0  0  0  0  0
   17.3950   14.5620  -21.2150 N   0  0  0  0  0  0  0  0  0  0  0  0
   17.8870   13.8870  -20.1670 C   0  0  0  0  0  0  0  0  0  0  0  0
    5.1119    4.7677  -22.8196 H   0  0  0  0  0  0  0  0  0  0  0  0
    5.7736    3.6876  -21.5460 H   0  0  0  0  0  0  0  0  0  0  0  0
    5.9457    3.2442  -23.2782 H   0  0  0  0  0  0  0  0  0  0  0  0
    7.1932    5.6651  -21.9111 H   0  0  0  0  0  0  0  0  0  0  0  0
    7.3653    5.2217  -23.6433 H   0  0  0  0  0  0  0  0  0  0  0  0
   11.1853    4.2712  -22.3242 H   0  0  0  0  0  0  0  0  0  0  0  0
   11.1891    4.1750  -20.5304 H   0  0  0  0  0  0  0  0  0  0  0  0
   11.0156    6.6819  -20.4309 H   0  0  0  0  0  0  0  0  0  0  0  0
   11.4599    7.8564  -22.3863 H   0  0  0  0  0  0  0  0  0  0  0  0
   13.2089    6.4056  -23.1426 H   0  0  0  0  0  0  0  0  0  0  0  0
   15.5493    6.0787  -21.2740 H   0  0  0  0  0  0  0  0  0  0  0  0
   16.7756    5.2398  -23.2842 H   0  0  0  0  0  0  0  0  0  0  0  0
   15.2716    5.4088  -24.2517 H   0  0  0  0  0  0  0  0  0  0  0  0
   15.7446    3.0551  -23.5848 H   0  0  0  0  0  0  0  0  0  0  0  0
   14.1745    3.6623  -22.9582 H   0  0  0  0  0  0  0  0  0  0  0  0
   17.2317    8.9822  -22.7291 H   0  0  0  0  0  0  0  0  0  0  0  0
   17.6095    6.7250  -20.8912 H   0  0  0  0  0  0  0  0  0  0  0  0
   19.6737    6.8544  -23.0618 H   0  0  0  0  0  0  0  0  0  0  0  0
   18.1029    6.1027  -23.5025 H   0  0  0  0  0  0  0  0  0  0  0  0
   18.4215    4.4825  -21.6021 H   0  0  0  0  0  0  0  0  0  0  0  0
   20.0586    5.1771  -21.3490 H   0  0  0  0  0  0  0  0  0  0  0  0
   20.0736    3.0419  -22.7401 H   0  0  0  0  0  0  0  0  0  0  0  0
   20.7652    4.4524  -23.6112 H   0  0  0  0  0  0  0  0  0  0  0  0
   18.2619    4.7068  -24.4326 H   0  0  0  0  0  0  0  0  0  0  0  0
   17.2505    2.1401  -26.4780 H   0  0  0  0  0  0  0  0  0  0  0  0
   17.0186    3.8252  -25.9399 H   0  0  0  0  0  0  0  0  0  0  0  0
   19.9458    1.4948  -24.2675 H   0  0  0  0  0  0  0  0  0  0  0  0
   18.8863    0.8352  -25.5424 H   0  0  0  0  0  0  0  0  0  0  0  0
   17.4076    9.3757  -20.4283 H   0  0  0  0  0  0  0  0  0  0  0  0
   19.6999   11.0558  -20.6161 H   0  0  0  0  0  0  0  0  0  0  0  0
   22.0348   10.2397  -18.1613 H   0  0  0  0  0  0  0  0  0  0  0  0
   21.6058   11.0888  -19.6087 H   0  0  0  0  0  0  0  0  0  0  0  0
   18.4465   11.9877  -18.3987 H   0  0  0  0  0  0  0  0  0  0  0  0
   17.1521   10.9111  -19.0248 H   0  0  0  0  0  0  0  0  0  0  0  0
   16.4806   10.3263  -21.7749 H   0  0  0  0  0  0  0  0  0  0  0  0
   15.3126   10.6658  -23.9357 H   0  0  0  0  0  0  0  0  0  0  0  0
   15.0946   12.9384  -24.9041 H   0  0  0  0  0  0  0  0  0  0  0  0
   16.0446   14.8935  -23.7002 H   0  0  0  0  0  0  0  0  0  0  0  0
   17.4629   15.5808  -21.3503 H   0  0  0  0  0  0  0  0  0  0  0  0
   18.4158   14.3343  -19.3266 H   0  0  0  0  0  0  0  0  0  0  0  0
  1  2  1  0  0  0  0
  1 45  1  0  0  0  0
  1 46  1  0  0  0  0
  1 47  1  0  0  0  0
  2  3  1  0  0  0  0
  2 48  1  0  0  0  0
  2 49  1  0  0  0  0
  3  4  1  0  0  0  0
  4  5  2  0  0  0  0
  4  6  1  0  0  0  0
  6  7  1  0  0  0  0
  6 50  1  0  0  0  0
  6 51  1  0  0  0  0
  7  8  1  0  0  0  0
  7  9  1  0  0  0  0
  7 52  1  1  0  0  0
  8 53  1  0  0  0  0
  9 10  2  0  0  0  0
  9 11  1  0  0  0  0
 11 12  1  0  0  0  0
 11 54  1  0  0  0  0
 12 13  1  0  0  0  0
 12 17  1  0  0  0  0
 12 55  1  1  0  0  0
 13 14  1  0  0  0  0
 13 56  1  0  0  0  0
 13 57  1  0  0  0  0
 14 15  1  0  0  0  0
 14 58  1  0  0  0  0
 14 59  1  0  0  0  0
 15 16  3  0  0  0  0
 17 18  2  0  0  0  0
 17 19  1  0  0  0  0
 19 20  1  0  0  0  0
 19 60  1  0  0  0  0
 20 21  1  0  0  0  0
 20 28  1  0  0  0  0
 20 61  1  1  0  0  0
 21 22  1  0  0  0  0
 21 62  1  0  0  0  0
 21 63  1  0  0  0  0
 22 23  1  0  0  0  0
 22 64  1  0  0  0  0
 22 65  1  0  0  0  0
 23 24  1  0  0  0  0
 23 66  1  0  0  0  0
 23 67  1  0  0  0  0
 24 25  1  0  0  0  0
 24 68  1  0  0  0  0
 25 26  1  0  0  0  0
 25 27  1  0  0  0  0
 26 69  1  0  0  0  0
 26 70  1  0  0  0  0
 27 71  1  0  0  0  0
 27 72  1  0  0  0  0
 28 29  2  0  0  0  0
 28 30  1  0  0  0  0
 30 31  1  0  0  0  0
 30 73  1  0  0  0  0
 31 32  1  0  0  0  0
 31 35  1  0  0  0  0
 31 74  1  6  0  0  0
 32 33  2  0  0  0  0
 32 34  1  0  0  0  0
 34 75  1  0  0  0  0
 34 76  1  0  0  0  0
 35 36  1  0  0  0  0
 35 77  1  0  0  0  0
 35 78  1  0  0  0  0
 36 37  1  0  0  0  0
 36 44  2  0  0  0  0
 37 38  2  0  0  0  0
 37 42  1  0  0  0  0
 38 39  1  0  0  0  0
 38 79  1  0  0  0  0
 39 40  2  0  0  0  0
 39 80  1  0  0  0  0
 40 41  1  0  0  0  0
 40 81  1  0  0  0  0
 41 42  2  0  0  0  0
 41 82  1  0  0  0  0
 42 43  1  0  0  0  0
 43 44  1  0  0  0  0
 43 83  1  0  0  0  0
 44 84  1  0  0  0  0
M  END
