2ntf_ligand
 OpenBabel08222323343D

 49 49  0  0  1  0  0  0  0  0999 V2000
  -34.8950   17.6830    2.6130 C   0  0  0  0  0  0  0  0  0  0  0  0
  -33.3840   17.4540    2.9500 C   0  0  0  0  0  0  0  0  0  0  0  0
  -32.8630   16.0950    2.3420 C   0  0  0  0  0  0  0  0  0  0  0  0
  -31.3020   15.8110    2.5610 C   0  0  0  0  0  0  0  0  0  0  0  0
  -30.9410   14.3350    2.0730 C   0  0  0  0  0  0  0  0  0  0  0  0
  -29.4530   14.0980    1.7010 C   0  0  0  0  0  0  0  0  0  0  0  0
  -29.1890   12.7500    0.9920 C   0  0  0  0  0  0  0  0  0  0  0  0
  -28.8660   11.6030    1.9810 C   0  0  0  0  0  0  0  0  0  0  0  0
  -27.9070   10.4950    1.4700 C   0  0  0  0  0  0  0  0  0  0  0  0
  -28.6590    9.2220    0.9930 C   0  0  0  0  0  0  0  0  0  0  0  0
  -29.0070    8.3400    1.7740 O   0  0  0  0  0  0  0  0  0  0  0  0
  -28.9650    9.1260   -0.5040 C   0  0  0  0  0  0  0  0  0  0  0  0
  -29.3540    7.7520   -0.9790 C   0  0  0  0  0  0  0  0  0  0  0  0
  -28.5240    6.9140   -1.3120 O   0  0  0  0  0  0  0  0  0  0  0  0
  -30.6430    7.5490   -1.0360 N   0  0  0  0  0  0  0  0  0  0  0  0
  -31.1610    6.2820   -1.5390 C   0  0  1  0  0  0  0  0  0  0  0  0
  -31.3490    5.2560   -0.4530 C   0  0  0  0  0  0  0  0  0  0  0  0
  -32.6060    4.5190   -0.9460 C   0  0  0  0  0  0  0  0  0  0  0  0
  -33.3910    5.5510   -1.6450 N   0  0  0  0  0  0  0  0  0  0  0  0
  -32.5880    6.5500   -1.9820 C   0  0  0  0  0  0  0  0  0  0  0  0
  -32.9530    7.5760   -2.5620 O   0  0  0  0  0  0  0  0  0  0  0  0
  -35.2276   18.6363    3.0496 H   0  0  0  0  0  0  0  0  0  0  0  0
  -35.4928   16.8598    3.0312 H   0  0  0  0  0  0  0  0  0  0  0  0
  -35.0266   17.7140    1.5214 H   0  0  0  0  0  0  0  0  0  0  0  0
  -33.2600   17.4290    4.0427 H   0  0  0  0  0  0  0  0  0  0  0  0
  -32.7938   18.2832    2.5328 H   0  0  0  0  0  0  0  0  0  0  0  0
  -33.0591   16.1077    1.2597 H   0  0  0  0  0  0  0  0  0  0  0  0
  -33.4279   15.2739    2.8074 H   0  0  0  0  0  0  0  0  0  0  0  0
  -31.0602   15.9105    3.6295 H   0  0  0  0  0  0  0  0  0  0  0  0
  -30.7147   16.5395    1.9827 H   0  0  0  0  0  0  0  0  0  0  0  0
  -31.5514   14.1130    1.1853 H   0  0  0  0  0  0  0  0  0  0  0  0
  -31.2030   13.6373    2.8820 H   0  0  0  0  0  0  0  0  0  0  0  0
  -28.8569   14.1253    2.6251 H   0  0  0  0  0  0  0  0  0  0  0  0
  -29.1302   14.9095    1.0323 H   0  0  0  0  0  0  0  0  0  0  0  0
  -28.3367   12.8741    0.3078 H   0  0  0  0  0  0  0  0  0  0  0  0
  -30.0847   12.4749    0.4158 H   0  0  0  0  0  0  0  0  0  0  0  0
  -29.8161   11.1215    2.2556 H   0  0  0  0  0  0  0  0  0  0  0  0
  -28.4104   12.0521    2.8758 H   0  0  0  0  0  0  0  0  0  0  0  0
  -27.2257   10.2154    2.2871 H   0  0  0  0  0  0  0  0  0  0  0  0
  -27.3242   10.8955    0.6274 H   0  0  0  0  0  0  0  0  0  0  0  0
  -28.0677    9.4388   -1.0580 H   0  0  0  0  0  0  0  0  0  0  0  0
  -29.7934    9.8137   -0.7293 H   0  0  0  0  0  0  0  0  0  0  0  0
  -31.2751    8.2629   -0.7345 H   0  0  0  0  0  0  0  0  0  0  0  0
  -30.5267    5.8974   -2.3512 H   0  0  0  0  0  0  0  0  0  0  0  0
  -31.5187    5.7312    0.5244 H   0  0  0  0  0  0  0  0  0  0  0  0
  -30.4854    4.5780   -0.3862 H   0  0  0  0  0  0  0  0  0  0  0  0
  -33.1730    4.1079   -0.0978 H   0  0  0  0  0  0  0  0  0  0  0  0
  -32.3342    3.7052   -1.6343 H   0  0  0  0  0  0  0  0  0  0  0  0
  -34.3718    5.5052   -1.8347 H   0  0  0  0  0  0  0  0  0  0  0  0
  1  2  1  0  0  0  0
  1 22  1  0  0  0  0
  1 23  1  0  0  0  0
  1 24  1  0  0  0  0
  2  3  1  0  0  0  0
  2 25  1  0  0  0  0
  2 26  1  0  0  0  0
  3  4  1  0  0  0  0
  3 27  1  0  0  0  0
  3 28  1  0  0  0  0
  4  5  1  0  0  0  0
  4 29  1  0  0  0  0
  4 30  1  0  0  0  0
  5  6  1  0  0  0  0
  5 31  1  0  0  0  0
  5 32  1  0  0  0  0
  6  7  1  0  0  0  0
  6 33  1  0  0  0  0
  6 34  1  0  0  0  0
  7  8  1  0  0  0  0
  7 35  1  0  0  0  0
  7 36  1  0  0  0  0
  8  9  1  0  0  0  0
  8 37  1  0  0  0  0
  8 38  1  0  0  0  0
  9 10  1  0  0  0  0
  9 39  1  0  0  0  0
  9 40  1  0  0  0  0
 10 11  2  0  0  0  0
 10 12  1  0  0  0  0
 12 13  1  0  0  0  0
 12 41  1  0  0  0  0
 12 42  1  0  0  0  0
 13 14  2  0  0  0  0
 13 15  1  0  0  0  0
 15 16  1  0  0  0  0
 15 43  1  0  0  0  0
 16 17  1  0  0  0  0
 16 20  1  0  0  0  0
 16 44  1  6  0  0  0
 17 18  1  0  0  0  0
 17 45  1  0  0  0  0
 17 46  1  0  0  0  0
 18 19  1  0  0  0  0
 18 47  1  0  0  0  0
 18 48  1  0  0  0  0
 19 20  1  0  0  0  0
 19 49  1  0  0  0  0
 20 21  2  0  0  0  0
M  END
