2nww_ligand
 OpenBabel08222323343D

 29 29  0  0  1  0  0  0  0  0999 V2000
   13.1380    4.4620    5.0560 C   0  0  0  0  0  0  0  0  0  0  0  0
   14.5140    4.5240    4.8510 C   0  0  0  0  0  0  0  0  0  0  0  0
   15.3850    4.7700    5.9070 C   0  0  0  0  0  0  0  0  0  0  0  0
   14.8730    4.9600    7.1820 C   0  0  0  0  0  0  0  0  0  0  0  0
   13.4950    4.9050    7.3920 C   0  0  0  0  0  0  0  0  0  0  0  0
   12.6150    4.6500    6.3340 C   0  0  0  0  0  0  0  0  0  0  0  0
   11.2200    4.5950    6.5420 C   0  0  0  0  0  0  0  0  0  0  0  0
   10.4670    3.3340    6.5860 O   0  0  0  0  0  0  0  0  0  0  0  0
   10.9840    2.4540    7.6280 C   0  0  2  0  0  0  0  0  0  0  0  0
   11.1120    1.0270    7.1310 C   0  0  0  0  0  0  0  0  0  0  0  0
   12.3170    0.5650    7.1040 O   0  5  0  0  0  0  0  0  0  0  0  0
   10.0060    0.4000    6.7950 O   0  0  0  0  0  0  0  0  0  0  0  0
   10.1140    2.4080    8.8820 C   0  0  1  0  0  0  0  0  0  0  0  0
   10.7670    3.2760    9.9500 C   0  0  0  0  0  0  0  0  0  0  0  0
   11.3450    2.6760   10.8830 O   0  5  0  0  0  0  0  0  0  0  0  0
   10.6710    4.5170    9.8100 O   0  0  0  0  0  0  0  0  0  0  0  0
    8.7680    2.9010    8.5760 N   0  3  0  0  0  0  0  0  0  0  0  0
   12.4738    4.2675    4.2217 H   0  0  0  0  0  0  0  0  0  0  0  0
   14.9122    4.3783    3.8534 H   0  0  0  0  0  0  0  0  0  0  0  0
   16.4544    4.8129    5.7352 H   0  0  0  0  0  0  0  0  0  0  0  0
   15.5421    5.1508    8.0133 H   0  0  0  0  0  0  0  0  0  0  0  0
   13.1000    5.0621    8.3892 H   0  0  0  0  0  0  0  0  0  0  0  0
   10.7693    5.1891    5.7334 H   0  0  0  0  0  0  0  0  0  0  0  0
   11.0376    5.0908    7.5068 H   0  0  0  0  0  0  0  0  0  0  0  0
   11.9807    2.8241    7.9100 H   0  0  0  0  0  0  0  0  0  0  0  0
   10.0446    1.3716    9.2440 H   0  0  0  0  0  0  0  0  0  0  0  0
    8.2006    2.8673    9.4084 H   0  0  0  0  0  0  0  0  0  0  0  0
    8.3525    2.3227    7.8626 H   0  0  0  0  0  0  0  0  0  0  0  0
    8.8253    3.8519    8.2467 H   0  0  0  0  0  0  0  0  0  0  0  0
  1  2  2  0  0  0  0
  1  6  1  0  0  0  0
  1 18  1  0  0  0  0
  2  3  1  0  0  0  0
  2 19  1  0  0  0  0
  3  4  2  0  0  0  0
  3 20  1  0  0  0  0
  4  5  1  0  0  0  0
  4 21  1  0  0  0  0
  5  6  2  0  0  0  0
  5 22  1  0  0  0  0
  6  7  1  0  0  0  0
  7  8  1  0  0  0  0
  7 23  1  0  0  0  0
  7 24  1  0  0  0  0
  8  9  1  0  0  0  0
  9 10  1  0  0  0  0
  9 13  1  0  0  0  0
  9 25  1  1  0  0  0
 10 11  1  0  0  0  0
 10 12  2  0  0  0  0
 13 14  1  0  0  0  0
 13 17  1  0  0  0  0
 13 26  1  1  0  0  0
 14 15  1  0  0  0  0
 14 16  2  0  0  0  0
 17 27  1  0  0  0  0
 17 28  1  0  0  0  0
 17 29  1  0  0  0  0
M  CHG  3  11  -1  15  -1  17   1
M  END
