2nxm_ligand
 OpenBabel08222323343D

121122  0  0  1  0  0  0  0  0999 V2000
    0.0580    5.8630    5.8340 N   0  3  0  0  0  0  0  0  0  0  0  0
    0.9860    6.2260    6.9530 C   0  0  2  0  0  0  0  0  0  0  0  0
    1.8180    5.0310    7.4290 C   0  0  0  0  0  0  0  0  0  0  0  0
    1.8160    3.9720    6.7840 O   0  0  0  0  0  0  0  0  0  0  0  0
    0.2030    6.8310    8.0970 C   0  0  0  0  0  0  0  0  0  0  0  0
    2.5390    5.1970    8.5370 N   0  0  0  0  0  0  0  0  0  0  0  0
    3.4970    4.1670    8.9570 C   0  0  2  0  0  0  0  0  0  0  0  0
    3.3840    3.7050   10.4200 C   0  0  0  0  0  0  0  0  0  0  0  0
    3.2580    4.5030   11.3510 O   0  0  0  0  0  0  0  0  0  0  0  0
    4.9370    4.5620    8.6040 C   0  0  0  0  0  0  0  0  0  0  0  0
    5.2260    4.7850    7.1250 C   0  0  0  0  0  0  0  0  0  0  0  0
    5.3610    3.4910    6.3360 C   0  0  0  0  0  0  0  0  0  0  0  0
    5.8790    2.4900    6.8340 O   0  0  0  0  0  0  0  0  0  0  0  0
    4.9180    3.5170    5.0800 N   0  0  0  0  0  0  0  0  0  0  0  0
    3.4710    2.3890   10.5920 N   0  0  0  0  0  0  0  0  0  0  0  0
    2.9660    1.7080   11.7790 C   0  0  2  0  0  0  0  0  0  0  0  0
    3.9720    0.6410   12.2570 C   0  0  0  0  0  0  0  0  0  0  0  0
    4.0030   -0.4760   11.7430 O   0  0  0  0  0  0  0  0  0  0  0  0
    1.5660    1.1330   11.4640 C   0  0  2  0  0  0  0  0  0  0  0  0
    0.7690    2.1570   10.8510 O   0  0  0  0  0  0  0  0  0  0  0  0
    0.8650    0.6550   12.7160 C   0  0  0  0  0  0  0  0  0  0  0  0
    4.8270    1.0110   13.2080 N   0  0  0  0  0  0  0  0  0  0  0  0
    6.0270    0.2240   13.5100 C   0  0  2  0  0  0  0  0  0  0  0  0
    5.8740   -0.6410   14.7610 C   0  0  0  0  0  0  0  0  0  0  0  0
    6.7350   -0.7050   15.6530 O   0  0  0  0  0  0  0  0  0  0  0  0
    7.2770    1.1090   13.5490 C   0  0  0  0  0  0  0  0  0  0  0  0
    7.4270    1.9940   12.3400 C   0  0  0  0  0  0  0  0  0  0  0  0
    7.1130    3.3520   12.4110 C   0  0  0  0  0  0  0  0  0  0  0  0
    7.8630    1.4710   11.1250 C   0  0  0  0  0  0  0  0  0  0  0  0
    7.2250    4.1740   11.2940 C   0  0  0  0  0  0  0  0  0  0  0  0
    7.9940    2.2920   10.0110 C   0  0  0  0  0  0  0  0  0  0  0  0
    7.6740    3.6460   10.0920 C   0  0  0  0  0  0  0  0  0  0  0  0
    4.7480   -1.3350   14.8000 N   0  0  0  0  0  0  0  0  0  0  0  0
    4.6170   -2.4830   15.6700 C   0  0  2  0  0  0  0  0  0  0  0  0
    5.7550   -3.4780   15.4040 C   0  0  0  0  0  0  0  0  0  0  0  0
    6.0270   -3.8690   14.2600 O   0  0  0  0  0  0  0  0  0  0  0  0
    3.2410   -3.1160   15.4720 C   0  0  0  0  0  0  0  0  0  0  0  0
    3.1090   -4.4770   16.0940 C   0  0  0  0  0  0  0  0  0  0  0  0
    2.9930   -4.6170   17.4690 C   0  0  0  0  0  0  0  0  0  0  0  0
    3.1190   -5.6220   15.3100 C   0  0  0  0  0  0  0  0  0  0  0  0
    2.8780   -5.8600   18.0470 C   0  0  0  0  0  0  0  0  0  0  0  0
    3.0180   -6.8810   15.8840 C   0  0  0  0  0  0  0  0  0  0  0  0
    2.8920   -6.9850   17.2540 C   0  0  0  0  0  0  0  0  0  0  0  0
    2.7640   -8.2160   17.8420 O   0  0  0  0  0  0  0  0  0  0  0  0
    6.4560   -3.8370   16.4710 N   0  0  0  0  0  0  0  0  0  0  0  0
    7.4680   -4.8860   16.3980 C   0  0  2  0  0  0  0  0  0  0  0  0
    7.1240   -5.9850   17.3860 C   0  0  0  0  0  0  0  0  0  0  0  0
    6.9410   -5.7520   18.5920 O   0  0  0  0  0  0  0  0  0  0  0  0
    8.9200   -4.3680   16.6010 C   0  0  0  0  0  0  0  0  0  0  0  0
    9.8660   -5.5080   16.9800 C   0  0  0  0  0  0  0  0  0  0  0  0
    9.4160   -3.6500   15.3430 C   0  0  0  0  0  0  0  0  0  0  0  0
    7.0260   -7.1870   16.8330 N   0  0  0  0  0  0  0  0  0  0  0  0
    6.7400   -8.3850   17.5950 C   0  0  2  0  0  0  0  0  0  0  0  0
    8.0220   -9.2260   17.6540 C   0  0  0  0  0  0  0  0  0  0  0  0
    8.4760   -9.7720   16.6410 O   0  0  0  0  0  0  0  0  0  0  0  0
    5.5520   -9.1100   16.9510 C   0  0  0  0  0  0  0  0  0  0  0  0
    5.5350  -10.6010   17.2270 C   0  0  0  0  0  0  0  0  0  0  0  0
    5.9980  -11.0200   18.3120 O   0  5  0  0  0  0  0  0  0  0  0  0
    5.0420  -11.3470   16.3480 O   0  0  0  0  0  0  0  0  0  0  0  0
    8.5840   -9.3190   18.8600 N   0  0  0  0  0  0  0  0  0  0  0  0
    9.9140   -9.8770   19.0730 C   0  0  0  0  0  0  0  0  0  0  0  0
    9.9080  -11.2750   19.6600 C   0  0  0  0  0  0  0  0  0  0  0  0
   10.9510  -11.7880   20.0830 O   0  0  0  0  0  0  0  0  0  0  0  0
    8.7681  -11.9575   19.7208 O   0  0  0  0  0  0  0  0  0  0  0  0
   -0.4666    6.6773    5.5550 H   0  0  0  0  0  0  0  0  0  0  0  0
   -0.5771    5.1442    6.1439 H   0  0  0  0  0  0  0  0  0  0  0  0
    0.5933    5.5234    5.0503 H   0  0  0  0  0  0  0  0  0  0  0  0
    1.6841    6.9883    6.5769 H   0  0  0  0  0  0  0  0  0  0  0  0
    0.8913    7.0944    8.9136 H   0  0  0  0  0  0  0  0  0  0  0  0
   -0.5362    6.1024    8.4612 H   0  0  0  0  0  0  0  0  0  0  0  0
   -0.3155    7.7362    7.7482 H   0  0  0  0  0  0  0  0  0  0  0  0
    2.4272    6.0263    9.0845 H   0  0  0  0  0  0  0  0  0  0  0  0
    3.2610    3.2808    8.3496 H   0  0  0  0  0  0  0  0  0  0  0  0
    5.6022    3.7614    8.9596 H   0  0  0  0  0  0  0  0  0  0  0  0
    5.1698    5.4958    9.1367 H   0  0  0  0  0  0  0  0  0  0  0  0
    6.1661    5.3489    7.0341 H   0  0  0  0  0  0  0  0  0  0  0  0
    4.4026    5.3728    6.6932 H   0  0  0  0  0  0  0  0  0  0  0  0
    4.9797    2.6970    4.5110 H   0  0  0  0  0  0  0  0  0  0  0  0
    4.5238    4.3565    4.7061 H   0  0  0  0  0  0  0  0  0  0  0  0
    3.9023    1.8415    9.8749 H   0  0  0  0  0  0  0  0  0  0  0  0
    2.8555    2.4471   12.5862 H   0  0  0  0  0  0  0  0  0  0  0  0
    1.6751    0.2869   10.7696 H   0  0  0  0  0  0  0  0  0  0  0  0
    1.2014    2.4640   10.0629 H   0  0  0  0  0  0  0  0  0  0  0  0
   -0.1247    0.2541   12.4517 H   0  0  0  0  0  0  0  0  0  0  0  0
    0.7451    1.4972   13.4134 H   0  0  0  0  0  0  0  0  0  0  0  0
    1.4646   -0.1340   13.1934 H   0  0  0  0  0  0  0  0  0  0  0  0
    4.6467    1.8454   13.7288 H   0  0  0  0  0  0  0  0  0  0  0  0
    6.1631   -0.4729   12.6699 H   0  0  0  0  0  0  0  0  0  0  0  0
    8.1616    0.4586   13.6157 H   0  0  0  0  0  0  0  0  0  0  0  0
    7.2231    1.7477   14.4429 H   0  0  0  0  0  0  0  0  0  0  0  0
    6.7765    3.7731   13.3515 H   0  0  0  0  0  0  0  0  0  0  0  0
    8.1018    0.4165   11.0476 H   0  0  0  0  0  0  0  0  0  0  0  0
    6.9623    5.2235   11.3626 H   0  0  0  0  0  0  0  0  0  0  0  0
    8.3470    1.8768    9.0740 H   0  0  0  0  0  0  0  0  0  0  0  0
    7.7753    4.2831    9.2208 H   0  0  0  0  0  0  0  0  0  0  0  0
    3.9791   -1.0627   14.2215 H   0  0  0  0  0  0  0  0  0  0  0  0
    4.6943   -2.1450   16.7139 H   0  0  0  0  0  0  0  0  0  0  0  0
    3.0527   -3.2077   14.3921 H   0  0  0  0  0  0  0  0  0  0  0  0
    2.4860   -2.4540   15.9210 H   0  0  0  0  0  0  0  0  0  0  0  0
    2.9930   -3.7338   18.0975 H   0  0  0  0  0  0  0  0  0  0  0  0
    3.2070   -5.5314   14.2334 H   0  0  0  0  0  0  0  0  0  0  0  0
    2.7768   -5.9531   19.1222 H   0  0  0  0  0  0  0  0  0  0  0  0
    3.0378   -7.7705   15.2648 H   0  0  0  0  0  0  0  0  0  0  0  0
    2.6885   -8.1099   18.7831 H   0  0  0  0  0  0  0  0  0  0  0  0
    6.2876   -3.3793   17.3440 H   0  0  0  0  0  0  0  0  0  0  0  0
    7.4208   -5.3171   15.3871 H   0  0  0  0  0  0  0  0  0  0  0  0
    8.9110   -3.6434   17.4285 H   0  0  0  0  0  0  0  0  0  0  0  0
   10.8827   -5.1108   17.1164 H   0  0  0  0  0  0  0  0  0  0  0  0
    9.8713   -6.2618   16.1789 H   0  0  0  0  0  0  0  0  0  0  0  0
    9.5247   -5.9715   17.9174 H   0  0  0  0  0  0  0  0  0  0  0  0
    8.7223   -2.8351   15.0884 H   0  0  0  0  0  0  0  0  0  0  0  0
    9.4645   -4.3645   14.5081 H   0  0  0  0  0  0  0  0  0  0  0  0
   10.4174   -3.2344   15.5287 H   0  0  0  0  0  0  0  0  0  0  0  0
    7.1555   -7.2696   15.8449 H   0  0  0  0  0  0  0  0  0  0  0  0
    6.4589   -8.1074   18.6216 H   0  0  0  0  0  0  0  0  0  0  0  0
    5.5987   -8.9574   15.8626 H   0  0  0  0  0  0  0  0  0  0  0  0
    4.6222   -8.6722   17.3431 H   0  0  0  0  0  0  0  0  0  0  0  0
    8.0705   -8.9915   19.6531 H   0  0  0  0  0  0  0  0  0  0  0  0
   10.4610   -9.2152   19.7606 H   0  0  0  0  0  0  0  0  0  0  0  0
   10.4345   -9.9105   18.1045 H   0  0  0  0  0  0  0  0  0  0  0  0
    8.0651  -11.4305   19.3594 H   0  0  0  0  0  0  0  0  0  0  0  0
  1 65  1  0  0  0  0
  1 66  1  0  0  0  0
  1 67  1  0  0  0  0
  2  1  1  0  0  0  0
  2  5  1  0  0  0  0
  2 68  1  6  0  0  0
  3  2  1  0  0  0  0
  3  4  2  0  0  0  0
  5 69  1  0  0  0  0
  5 70  1  0  0  0  0
  5 71  1  0  0  0  0
  6  3  1  0  0  0  0
  6 72  1  0  0  0  0
  7  6  1  0  0  0  0
  7 10  1  0  0  0  0
  7 73  1  6  0  0  0
  8  7  1  0  0  0  0
  8  9  2  0  0  0  0
 10 11  1  0  0  0  0
 10 74  1  0  0  0  0
 10 75  1  0  0  0  0
 11 12  1  0  0  0  0
 11 76  1  0  0  0  0
 11 77  1  0  0  0  0
 12 14  1  0  0  0  0
 12 13  2  0  0  0  0
 14 78  1  0  0  0  0
 14 79  1  0  0  0  0
 15  8  1  0  0  0  0
 15 80  1  0  0  0  0
 16 15  1  0  0  0  0
 16 19  1  0  0  0  0
 16 81  1  1  0  0  0
 17 16  1  0  0  0  0
 17 18  2  0  0  0  0
 19 21  1  0  0  0  0
 19 20  1  0  0  0  0
 19 82  1  6  0  0  0
 20 83  1  0  0  0  0
 21 84  1  0  0  0  0
 21 85  1  0  0  0  0
 21 86  1  0  0  0  0
 22 17  1  0  0  0  0
 22 87  1  0  0  0  0
 23 22  1  0  0  0  0
 23 26  1  0  0  0  0
 23 88  1  6  0  0  0
 24 23  1  0  0  0  0
 24 25  2  0  0  0  0
 26 27  1  0  0  0  0
 26 89  1  0  0  0  0
 26 90  1  0  0  0  0
 27 28  2  0  0  0  0
 27 29  1  0  0  0  0
 28 30  1  0  0  0  0
 28 91  1  0  0  0  0
 29 31  2  0  0  0  0
 29 92  1  0  0  0  0
 30 32  2  0  0  0  0
 30 93  1  0  0  0  0
 31 32  1  0  0  0  0
 31 94  1  0  0  0  0
 32 95  1  0  0  0  0
 33 24  1  0  0  0  0
 33 96  1  0  0  0  0
 34 33  1  0  0  0  0
 34 37  1  0  0  0  0
 34 97  1  1  0  0  0
 35 34  1  0  0  0  0
 35 36  2  0  0  0  0
 37 38  1  0  0  0  0
 37 98  1  0  0  0  0
 37 99  1  0  0  0  0
 38 39  2  0  0  0  0
 38 40  1  0  0  0  0
 39 41  1  0  0  0  0
 39100  1  0  0  0  0
 40 42  2  0  0  0  0
 40101  1  0  0  0  0
 41 43  2  0  0  0  0
 41102  1  0  0  0  0
 42 43  1  0  0  0  0
 42103  1  0  0  0  0
 43 44  1  0  0  0  0
 44104  1  0  0  0  0
 45 35  1  0  0  0  0
 45105  1  0  0  0  0
 46 45  1  0  0  0  0
 46 49  1  0  0  0  0
 46106  1  6  0  0  0
 47 46  1  0  0  0  0
 47 48  2  0  0  0  0
 49 51  1  0  0  0  0
 49 50  1  0  0  0  0
 49107  1  0  0  0  0
 50108  1  0  0  0  0
 50109  1  0  0  0  0
 50110  1  0  0  0  0
 51111  1  0  0  0  0
 51112  1  0  0  0  0
 51113  1  0  0  0  0
 52 47  1  0  0  0  0
 52114  1  0  0  0  0
 53 52  1  0  0  0  0
 53 56  1  0  0  0  0
 53115  1  1  0  0  0
 54 53  1  0  0  0  0
 54 55  2  0  0  0  0
 54 60  1  0  0  0  0
 56 57  1  0  0  0  0
 56116  1  0  0  0  0
 56117  1  0  0  0  0
 57 58  1  0  0  0  0
 57 59  2  0  0  0  0
 60 61  1  0  0  0  0
 60118  1  0  0  0  0
 61 62  1  0  0  0  0
 61119  1  0  0  0  0
 61120  1  0  0  0  0
 62 63  2  0  0  0  0
 62 64  1  0  0  0  0
 64121  1  0  0  0  0
M  CHG  2   1   1  58  -1
M  END
