2o1c_ligand
 OpenBabel08222323343D

 13 12  0  0  0  0  0  0  0  0999 V2000
  -26.7590    0.5120   66.1110 O   0  0  0  0  0  0  0  0  0  0  0  0
  -25.7270    1.4740   65.5780 P   0  0  0  0  0  0  0  0  0  0  0  0
  -26.1750    2.3140   64.4050 O   0  0  0  0  0  0  0  0  0  0  0  0
  -25.1180    2.2490   66.7220 O   0  0  0  0  0  0  0  0  0  0  0  0
  -24.5390    0.5010   65.0100 O   0  0  0  0  0  0  0  0  0  0  0  0
  -23.8240    0.4250   63.5430 P   0  0  0  0  0  0  0  0  0  0  0  0
  -23.9170    1.7840   62.8980 O   0  0  0  0  0  0  0  0  0  0  0  0
  -24.5070   -0.6550   62.7600 O   0  0  0  0  0  0  0  0  0  0  0  0
  -22.4180    0.0180   63.8940 O   0  0  0  0  0  0  0  0  0  0  0  0
  -27.5488    0.8379   66.4956 H   0  0  0  0  0  0  0  0  0  0  0  0
  -26.8574    2.9466   64.5152 H   0  0  0  0  0  0  0  0  0  0  0  0
  -24.7515    2.1255   62.6430 H   0  0  0  0  0  0  0  0  0  0  0  0
  -25.3912   -0.5377   62.4728 H   0  0  0  0  0  0  0  0  0  0  0  0
  1  2  1  0  0  0  0
  1 10  1  0  0  0  0
  2  3  1  0  0  0  0
  2  4  2  0  0  0  0
  2  5  1  0  0  0  0
  3 11  1  0  0  0  0
  5  6  1  0  0  0  0
  6  7  1  0  0  0  0
  6  8  1  0  0  0  0
  6  9  2  0  0  0  0
  7 12  1  0  0  0  0
  8 13  1  0  0  0  0
M  END
