2o48_ligand
 OpenBabel08222323343D

 18 18  0  0  0  0  0  0  0  0999 V2000
  -15.4010  -47.0530    3.6450 C   0  0  0  0  0  0  0  0  0  0  0  0
  -16.3860  -46.1510    3.3250 C   0  0  0  0  0  0  0  0  0  0  0  0
  -16.0910  -44.7990    3.3040 C   0  0  0  0  0  0  0  0  0  0  0  0
  -14.8030  -44.3350    3.6310 C   0  0  0  0  0  0  0  0  0  0  0  0
  -13.8020  -45.2800    3.9530 C   0  0  0  0  0  0  0  0  0  0  0  0
  -14.1020  -46.6570    3.9590 C   0  0  0  0  0  0  0  0  0  0  0  0
  -15.6970  -48.3480    3.6690 O   0  0  0  0  0  0  0  0  0  0  0  0
  -15.3410  -42.0860    3.1170 O   0  0  0  0  0  0  0  0  0  0  0  0
  -14.4840  -42.8510    3.5470 C   0  0  0  0  0  0  0  0  0  0  0  0
  -13.1010  -42.3510    3.8530 C   0  0  0  0  0  0  0  0  0  0  0  0
  -17.3868  -46.4954    3.0907 H   0  0  0  0  0  0  0  0  0  0  0  0
  -16.8624  -44.0877    3.0320 H   0  0  0  0  0  0  0  0  0  0  0  0
  -12.8004  -44.9443    4.1961 H   0  0  0  0  0  0  0  0  0  0  0  0
  -13.3413  -47.3901    4.2018 H   0  0  0  0  0  0  0  0  0  0  0  0
  -16.6101  -48.4674    3.4357 H   0  0  0  0  0  0  0  0  0  0  0  0
  -13.0725  -41.2575    3.7370 H   0  0  0  0  0  0  0  0  0  0  0  0
  -12.3825  -42.8122    3.1594 H   0  0  0  0  0  0  0  0  0  0  0  0
  -12.8352  -42.6171    4.8867 H   0  0  0  0  0  0  0  0  0  0  0  0
  1  2  2  0  0  0  0
  1  6  1  0  0  0  0
  1  7  1  0  0  0  0
  2  3  1  0  0  0  0
  2 11  1  0  0  0  0
  3  4  2  0  0  0  0
  3 12  1  0  0  0  0
  4  5  1  0  0  0  0
  4  9  1  0  0  0  0
  5  6  2  0  0  0  0
  5 13  1  0  0  0  0
  6 14  1  0  0  0  0
  7 15  1  0  0  0  0
  9  8  2  0  0  0  0
  9 10  1  0  0  0  0
 10 16  1  0  0  0  0
 10 17  1  0  0  0  0
 10 18  1  0  0  0  0
M  END
