2o4h_ligand
 OpenBabel08222323343D

 20 19  0  0  1  0  0  0  0  0999 V2000
  -41.9710    9.6210  -39.3200 C   0  0  0  0  0  0  0  0  0  0  0  0
  -42.7180    9.5120  -40.9470 P   0  0  1  0  0  0  0  0  0  0  0  0
  -44.2310    8.9610  -40.8000 O   0  0  0  0  0  1  0  0  0  0  0  0
  -42.7220   10.8440  -41.5630 O   0  0  0  0  0  0  0  0  0  0  0  0
  -41.8770    8.3600  -41.7090 N   0  0  0  0  0  0  0  0  0  0  0  0
  -42.4630    7.8770  -42.9760 C   0  0  2  0  0  0  0  0  0  0  0  0
  -43.4070    6.6550  -42.7570 C   0  0  0  0  0  0  0  0  0  0  0  0
  -44.4220    6.5840  -43.4770 O   0  5  0  0  0  0  0  0  0  0  0  0
  -43.1170    5.8060  -41.8830 O   0  0  0  0  0  0  0  0  0  0  0  0
  -41.2840    7.4890  -43.8800 C   0  0  0  0  0  0  0  0  0  0  0  0
  -41.3850    8.0210  -45.3200 C   0  0  0  0  0  0  0  0  0  0  0  0
  -41.8310    9.1860  -45.5040 O   0  5  0  0  0  0  0  0  0  0  0  0
  -40.9900    7.2320  -46.2080 O   0  0  0  0  0  0  0  0  0  0  0  0
  -41.9646    8.6255  -38.8521 H   0  0  0  0  0  0  0  0  0  0  0  0
  -42.5518   10.3159  -38.6957 H   0  0  0  0  0  0  0  0  0  0  0  0
  -40.9385    9.9883  -39.4144 H   0  0  0  0  0  0  0  0  0  0  0  0
  -41.0178    7.9988  -41.3467 H   0  0  0  0  0  0  0  0  0  0  0  0
  -43.0401    8.6876  -43.4448 H   0  0  0  0  0  0  0  0  0  0  0  0
  -41.2294    6.3912  -43.9220 H   0  0  0  0  0  0  0  0  0  0  0  0
  -40.3613    7.8851  -43.4309 H   0  0  0  0  0  0  0  0  0  0  0  0
  1  2  1  0  0  0  0
  1 14  1  0  0  0  0
  1 15  1  0  0  0  0
  1 16  1  0  0  0  0
  2  3  1  1  0  0  0
  2  4  2  0  0  0  0
  2  5  1  0  0  0  0
  5  6  1  0  0  0  0
  5 17  1  0  0  0  0
  6  7  1  0  0  0  0
  6 10  1  0  0  0  0
  6 18  1  6  0  0  0
  7  8  1  0  0  0  0
  7  9  2  0  0  0  0
 10 11  1  0  0  0  0
 10 19  1  0  0  0  0
 10 20  1  0  0  0  0
 11 12  1  0  0  0  0
 11 13  2  0  0  0  0
M  CHG  2   8  -1  12  -1
M  END
