2o63_ligand
 OpenBabel08222323343D

 33 35  0  0  0  0  0  0  0  0999 V2000
   76.1760   33.0730   -1.5020 C   0  0  0  0  0  0  0  0  0  0  0  0
   75.6950   34.1640   -2.2140 C   0  0  0  0  0  0  0  0  0  0  0  0
   75.5110   35.4250   -1.4930 C   0  0  0  0  0  0  0  0  0  0  0  0
   75.8190   35.4800   -0.0670 C   0  0  0  0  0  0  0  0  0  0  0  0
   76.2800   34.3540    0.5730 C   0  0  0  0  0  0  0  0  0  0  0  0
   76.4420   33.1690   -0.1350 C   0  0  0  0  0  0  0  0  0  0  0  0
   75.0160   36.6390   -2.1640 C   0  0  0  0  0  0  0  0  0  0  0  0
   74.8600   37.8440   -1.3710 C   0  0  0  0  0  0  0  0  0  0  0  0
   75.1360   37.8380   -0.0590 C   0  0  0  0  0  0  0  0  0  0  0  0
   75.0120   39.0280    0.8590 C   0  0  0  0  0  0  0  0  0  0  0  0
   74.5230   40.2730    0.4350 C   0  0  0  0  0  0  0  0  0  0  0  0
   74.4470   41.3480    1.3250 C   0  0  0  0  0  0  0  0  0  0  0  0
   74.8850   41.1750    2.7190 C   0  0  0  0  0  0  0  0  0  0  0  0
   75.3830   39.8400    3.1330 C   0  0  0  0  0  0  0  0  0  0  0  0
   75.4180   38.8170    2.1920 C   0  0  0  0  0  0  0  0  0  0  0  0
   75.6310   36.6410    0.6020 O   0  0  0  0  0  0  0  0  0  0  0  0
   74.7690   36.6220   -3.3600 O   0  0  0  0  0  0  0  0  0  0  0  0
   75.7850   39.6490    4.3880 O   0  0  0  0  0  0  0  0  0  0  0  0
   74.8130   42.1920    3.5760 O   0  0  0  0  0  0  0  0  0  0  0  0
   73.9940   42.5470    0.9600 O   0  0  0  0  0  0  0  0  0  0  0  0
   74.4100   38.9180   -2.0100 O   0  0  0  0  0  0  0  0  0  0  0  0
   76.8960   32.1090    0.5290 O   0  0  0  0  0  0  0  0  0  0  0  0
   75.4130   34.1070   -3.5160 O   0  0  0  0  0  0  0  0  0  0  0  0
   76.3473   32.1336   -2.0150 H   0  0  0  0  0  0  0  0  0  0  0  0
   76.5172   34.3904    1.6301 H   0  0  0  0  0  0  0  0  0  0  0  0
   74.2013   40.4022   -0.5921 H   0  0  0  0  0  0  0  0  0  0  0  0
   75.7656   37.8346    2.4905 H   0  0  0  0  0  0  0  0  0  0  0  0
   75.6870   40.4574    4.8772 H   0  0  0  0  0  0  0  0  0  0  0  0
   74.4724   42.9579    3.1289 H   0  0  0  0  0  0  0  0  0  0  0  0
   74.6768   43.1949    1.0888 H   0  0  0  0  0  0  0  0  0  0  0  0
   74.2801   38.7080   -2.9274 H   0  0  0  0  0  0  0  0  0  0  0  0
   76.9612   31.3695   -0.0638 H   0  0  0  0  0  0  0  0  0  0  0  0
   75.5824   33.2292   -3.8374 H   0  0  0  0  0  0  0  0  0  0  0  0
  1  2  2  0  0  0  0
  1  6  1  0  0  0  0
  1 24  1  0  0  0  0
  2  3  1  0  0  0  0
  2 23  1  0  0  0  0
  3  4  2  0  0  0  0
  3  7  1  0  0  0  0
  4  5  1  0  0  0  0
  4 16  1  0  0  0  0
  5  6  2  0  0  0  0
  5 25  1  0  0  0  0
  6 22  1  0  0  0  0
  7  8  1  0  0  0  0
  7 17  2  0  0  0  0
  8  9  2  0  0  0  0
  8 21  1  0  0  0  0
  9 10  1  0  0  0  0
  9 16  1  0  0  0  0
 10 11  2  0  0  0  0
 10 15  1  0  0  0  0
 11 12  1  0  0  0  0
 11 26  1  0  0  0  0
 12 13  2  0  0  0  0
 12 20  1  0  0  0  0
 13 14  1  0  0  0  0
 13 19  1  0  0  0  0
 14 15  2  0  0  0  0
 14 18  1  0  0  0  0
 15 27  1  0  0  0  0
 18 28  1  0  0  0  0
 19 29  1  0  0  0  0
 20 30  1  0  0  0  0
 21 31  1  0  0  0  0
 22 32  1  0  0  0  0
 23 33  1  0  0  0  0
M  END
