2o7e_ligand
 OpenBabel08222323343D

 25 26  0  0  0  0  0  0  0  0999 V2000
   17.8760   11.8540   38.4490 O   0  0  0  0  0  1  0  0  0  0  0  0
   19.2930   11.4230   38.1420 P   0  0  0  0  0  0  0  0  0  0  0  0
   20.2770   11.6930   39.2550 O   0  0  0  0  0  1  0  0  0  0  0  0
   19.3540    9.9740   37.7040 O   0  0  0  0  0  0  0  0  0  0  0  0
   19.8360   12.4190   36.7270 C   0  0  0  0  0  0  0  0  0  0  0  0
   19.5240   13.9100   37.0140 C   0  0  0  0  0  0  0  0  0  0  0  0
   20.8060   14.6090   36.6620 C   0  0  0  0  0  0  0  0  0  0  0  0
   19.0560   11.9370   35.5460 N   0  3  0  0  0  0  0  0  0  0  0  0
   21.3650   12.2120   36.5160 C   0  0  0  0  0  0  0  0  0  0  0  0
   21.8810   13.6180   36.3640 C   0  0  0  0  0  0  0  0  0  0  0  0
   23.1730   14.0480   36.0090 C   0  0  0  0  0  0  0  0  0  0  0  0
   23.4070   15.4520   35.9310 C   0  0  0  0  0  0  0  0  0  0  0  0
   22.3750   16.4050   36.2170 C   0  0  0  0  0  0  0  0  0  0  0  0
   21.0650   15.9890   36.5770 C   0  0  0  0  0  0  0  0  0  0  0  0
   19.2711   14.0622   38.0737 H   0  0  0  0  0  0  0  0  0  0  0  0
   18.6956   14.2669   36.3844 H   0  0  0  0  0  0  0  0  0  0  0  0
   19.3237   12.4633   34.7290 H   0  0  0  0  0  0  0  0  0  0  0  0
   18.0711   12.0636   35.7194 H   0  0  0  0  0  0  0  0  0  0  0  0
   19.2473   10.9592   35.3933 H   0  0  0  0  0  0  0  0  0  0  0  0
   21.5622   11.6188   35.6109 H   0  0  0  0  0  0  0  0  0  0  0  0
   21.8203   11.7160   37.3859 H   0  0  0  0  0  0  0  0  0  0  0  0
   23.9635   13.3358   35.8019 H   0  0  0  0  0  0  0  0  0  0  0  0
   24.3909   15.8083   35.6481 H   0  0  0  0  0  0  0  0  0  0  0  0
   22.5985   17.4640   36.1574 H   0  0  0  0  0  0  0  0  0  0  0  0
   20.2864   16.7152   36.7806 H   0  0  0  0  0  0  0  0  0  0  0  0
  1  2  1  0  0  0  0
  2  3  1  0  0  0  0
  2  4  2  0  0  0  0
  2  5  1  0  0  0  0
  5  6  1  0  0  0  0
  5  8  1  0  0  0  0
  5  9  1  0  0  0  0
  6  7  1  0  0  0  0
  6 15  1  0  0  0  0
  6 16  1  0  0  0  0
  7 10  2  0  0  0  0
  7 14  1  0  0  0  0
  8 17  1  0  0  0  0
  8 18  1  0  0  0  0
  8 19  1  0  0  0  0
  9 10  1  0  0  0  0
  9 20  1  0  0  0  0
  9 21  1  0  0  0  0
 10 11  1  0  0  0  0
 11 12  2  0  0  0  0
 11 22  1  0  0  0  0
 12 13  1  0  0  0  0
 12 23  1  0  0  0  0
 13 14  2  0  0  0  0
 13 24  1  0  0  0  0
 14 25  1  0  0  0  0
M  CHG  1   8   1
M  END
