2o7v_ligand
 OpenBabel08222323343D

 19 18  0  0  0  0  0  0  0  0999 V2000
   55.9820   34.2500   23.6260 C   0  0  0  0  0  0  0  0  0  0  0  0
   55.9860   33.8070   22.1680 C   0  0  0  0  0  0  0  0  0  0  0  0
   55.5860   35.2920   27.2180 C   0  0  0  0  0  0  0  0  0  0  0  0
   55.8880   35.8430   28.6030 C   0  0  0  0  0  0  0  0  0  0  0  0
   56.3280   35.6300   23.6780 O   0  0  0  0  0  0  0  0  0  0  0  0
   56.4450   35.8590   26.2040 O   0  0  0  0  0  0  0  0  0  0  0  0
   54.3870   37.0800   24.8560 O   0  0  0  0  0  0  0  0  0  0  0  0
   55.9230   36.5990   24.8730 P   0  0  0  0  0  0  0  0  0  0  0  0
   56.7166   33.6613   24.1950 H   0  0  0  0  0  0  0  0  0  0  0  0
   54.9806   34.1018   24.0565 H   0  0  0  0  0  0  0  0  0  0  0  0
   55.7204   32.7412   22.1079 H   0  0  0  0  0  0  0  0  0  0  0  0
   56.9882   33.9597   21.7411 H   0  0  0  0  0  0  0  0  0  0  0  0
   55.2523   34.4002   21.6025 H   0  0  0  0  0  0  0  0  0  0  0  0
   54.5405   35.5227   26.9655 H   0  0  0  0  0  0  0  0  0  0  0  0
   55.7277   34.2013   27.2324 H   0  0  0  0  0  0  0  0  0  0  0  0
   55.2102   35.3822   29.3367 H   0  0  0  0  0  0  0  0  0  0  0  0
   55.7425   36.9333   28.6036 H   0  0  0  0  0  0  0  0  0  0  0  0
   56.9297   35.6119   28.8705 H   0  0  0  0  0  0  0  0  0  0  0  0
   56.4643   37.4436   24.7745 H   0  0  0  0  0  0  0  0  0  0  0  0
  1  2  1  0  0  0  0
  1  9  1  0  0  0  0
  1 10  1  0  0  0  0
  2 11  1  0  0  0  0
  2 12  1  0  0  0  0
  2 13  1  0  0  0  0
  3  4  1  0  0  0  0
  3 14  1  0  0  0  0
  3 15  1  0  0  0  0
  4 16  1  0  0  0  0
  4 17  1  0  0  0  0
  4 18  1  0  0  0  0
  5  1  1  0  0  0  0
  6  3  1  0  0  0  0
  6  8  1  0  0  0  0
  8  5  1  0  0  0  0
  8  7  2  0  0  0  0
  8 19  1  0  0  0  0
M  END
