2o9k_ligand
 OpenBabel08222323343D

111110  0  0  1  0  0  0  0  0999 V2000
  -31.1180   28.5300    2.7730 N   0  3  0  0  0  0  0  0  0  0  0  0
  -30.5230   28.2100    4.1040 C   0  0  2  0  0  0  0  0  0  0  0  0
  -31.5860   27.9500    5.2100 C   0  0  0  0  0  0  0  0  0  0  0  0
  -32.7910   28.0380    4.9680 O   0  0  0  0  0  0  0  0  0  0  0  0
  -29.5520   29.3130    4.5030 C   0  0  0  0  0  0  0  0  0  0  0  0
  -31.1130   27.5990    6.4110 N   0  0  0  0  0  0  0  0  0  0  0  0
  -31.9330   27.3640    7.6000 C   0  0  2  0  0  0  0  0  0  0  0  0
  -32.7450   28.6110    7.9790 C   0  0  0  0  0  0  0  0  0  0  0  0
  -33.7810   28.5250    8.6600 O   0  0  0  0  0  0  0  0  0  0  0  0
  -31.0260   26.9050    8.7580 C   0  0  0  0  0  0  0  0  0  0  0  0
  -31.6290   26.9800   10.1760 C   0  0  0  0  0  0  0  0  0  0  0  0
  -30.5110   26.8830   11.2590 C   0  0  0  0  0  0  0  0  0  0  0  0
  -29.5790   25.7690   11.0420 N   0  0  0  0  0  0  0  0  0  0  0  0
  -29.7620   24.5130   11.4820 C   0  0  0  0  0  3  0  0  0  0  0  0
  -28.8520   23.5730   11.2410 N   0  0  0  0  0  0  0  0  0  0  0  0
  -30.8400   24.1880   12.1850 N   0  0  0  0  0  0  0  0  0  0  0  0
  -32.3060   29.7580    7.4730 N   0  0  0  0  0  0  0  0  0  0  0  0
  -32.9710   31.0400    7.7590 C   0  0  2  0  0  0  0  0  0  0  0  0
  -34.2510   31.2880    6.9220 C   0  0  0  0  0  0  0  0  0  0  0  0
  -34.9740   32.2820    7.1360 O   0  0  0  0  0  0  0  0  0  0  0  0
  -31.9840   32.2100    7.5770 C   0  0  2  0  0  0  0  0  0  0  0  0
  -31.4690   32.1860    6.2480 O   0  0  0  0  0  0  0  0  0  0  0  0
  -30.8200   32.1430    8.6120 C   0  0  0  0  0  0  0  0  0  0  0  0
  -34.5260   30.3880    5.9780 N   0  0  0  0  0  0  0  0  0  0  0  0
  -35.7500   30.4210    5.1780 C   0  0  1  0  0  0  0  0  0  0  0  0
  -35.4780   30.4200    3.6660 C   0  0  0  0  0  0  0  0  0  0  0  0
  -34.7760   31.6690    3.1730 C   0  0  0  0  0  0  0  0  0  0  0  0
  -35.5400   32.9430    3.5390 C   0  0  0  0  0  0  0  0  0  0  0  0
  -35.0110   34.1420    2.7430 C   0  0  0  0  0  0  0  0  0  0  0  0
  -35.2870   35.3800    3.4870 N   0  3  0  0  0  0  0  0  0  0  0  0
  -34.5000   36.4940    2.9040 C   0  0  0  0  0  0  0  0  0  0  0  0
  -36.7270   35.6970    3.4070 C   0  0  0  0  0  0  0  0  0  0  0  0
  -36.5460   29.2050    5.4930 C   0  0  0  0  0  0  0  0  0  0  0  0
  -35.9880   28.1260    5.6410 O   0  0  0  0  0  0  0  0  0  0  0  0
  -37.8640   29.3320    5.5810 N   0  0  0  0  0  0  0  0  0  0  0  0
  -38.6510   28.1450    5.9330 C   0  0  2  0  0  0  0  0  0  0  0  0
  -38.8970   27.2020    4.7540 C   0  0  0  0  0  0  0  0  0  0  0  0
  -39.2190   27.6380    3.6450 O   0  0  0  0  0  0  0  0  0  0  0  0
  -39.9260   28.4750    6.7020 C   0  0  0  0  0  0  0  0  0  0  0  0
  -40.8270   29.5110    6.1120 C   0  0  0  0  0  0  0  0  0  0  0  0
  -42.2590   29.3350    6.5910 C   0  0  0  0  0  0  0  0  0  0  0  0
  -42.9840   30.3070    6.7660 O   0  0  0  0  0  0  0  0  0  0  0  0
  -42.6730   28.0810    6.7980 N   0  0  0  0  0  0  0  0  0  0  0  0
  -38.6890   25.9090    5.0050 N   0  0  0  0  0  0  0  0  0  0  0  0
  -38.7180   24.8870    3.9540 C   0  0  2  0  0  0  0  0  0  0  0  0
  -39.4460   23.6290    4.4370 C   0  0  0  0  0  0  0  0  0  0  0  0
  -39.3870   22.5760    3.7890 O   0  0  0  0  0  0  0  0  0  0  0  0
  -37.2740   24.5020    3.4540 C   0  0  2  0  0  0  0  0  0  0  0  0
  -36.5420   23.8680    4.5110 O   0  0  0  0  0  0  0  0  0  0  0  0
  -36.4870   25.7370    2.9450 C   0  0  0  0  0  0  0  0  0  0  0  0
  -40.1493   23.6684    5.5651 O   0  0  0  0  0  0  0  0  0  0  0  0
  -30.3803   28.6869    2.1042 H   0  0  0  0  0  0  0  0  0  0  0  0
  -31.6847   29.3602    2.8491 H   0  0  0  0  0  0  0  0  0  0  0  0
  -31.6907   27.7591    2.4668 H   0  0  0  0  0  0  0  0  0  0  0  0
  -29.9453   27.2808    3.9906 H   0  0  0  0  0  0  0  0  0  0  0  0
  -29.1130   29.0779    5.4838 H   0  0  0  0  0  0  0  0  0  0  0  0
  -30.0894   30.2710    4.5619 H   0  0  0  0  0  0  0  0  0  0  0  0
  -28.7521   29.3869    3.7516 H   0  0  0  0  0  0  0  0  0  0  0  0
  -30.1234   27.4888    6.5034 H   0  0  0  0  0  0  0  0  0  0  0  0
  -32.6433   26.5545    7.3757 H   0  0  0  0  0  0  0  0  0  0  0  0
  -30.1235   27.5337    8.7450 H   0  0  0  0  0  0  0  0  0  0  0  0
  -30.7464   25.8581    8.5688 H   0  0  0  0  0  0  0  0  0  0  0  0
  -32.3358   26.1481   10.3118 H   0  0  0  0  0  0  0  0  0  0  0  0
  -32.1610   27.9358   10.2916 H   0  0  0  0  0  0  0  0  0  0  0  0
  -30.9884   26.7510   12.2412 H   0  0  0  0  0  0  0  0  0  0  0  0
  -29.9382   27.8221   11.2530 H   0  0  0  0  0  0  0  0  0  0  0  0
  -28.7184   25.9659   10.5114 H   0  0  0  0  0  0  0  0  0  0  0  0
  -29.0008   22.6126   11.5823 H   0  0  0  0  0  0  0  0  0  0  0  0
  -27.9987   23.8056   10.7132 H   0  0  0  0  0  0  0  0  0  0  0  0
  -31.5584   24.8987   12.3844 H   0  0  0  0  0  0  0  0  0  0  0  0
  -30.9581   23.2251   12.5311 H   0  0  0  0  0  0  0  0  0  0  0  0
  -31.5004   29.7505    6.8806 H   0  0  0  0  0  0  0  0  0  0  0  0
  -33.2750   31.0170    8.8159 H   0  0  0  0  0  0  0  0  0  0  0  0
  -32.5280   33.1539    7.7291 H   0  0  0  0  0  0  0  0  0  0  0  0
  -32.1891   32.2274    5.6298 H   0  0  0  0  0  0  0  0  0  0  0  0
  -30.1379   32.9911    8.4521 H   0  0  0  0  0  0  0  0  0  0  0  0
  -30.2687   31.1998    8.4833 H   0  0  0  0  0  0  0  0  0  0  0  0
  -31.2320   32.1909    9.6308 H   0  0  0  0  0  0  0  0  0  0  0  0
  -33.8652   29.6567    5.8090 H   0  0  0  0  0  0  0  0  0  0  0  0
  -36.3225   31.3233    5.4391 H   0  0  0  0  0  0  0  0  0  0  0  0
  -36.4401   30.3318    3.1400 H   0  0  0  0  0  0  0  0  0  0  0  0
  -34.8483   29.5504    3.4269 H   0  0  0  0  0  0  0  0  0  0  0  0
  -34.6822   31.6142    2.0784 H   0  0  0  0  0  0  0  0  0  0  0  0
  -33.7742   31.7143    3.6251 H   0  0  0  0  0  0  0  0  0  0  0  0
  -35.4171   33.1412    4.6140 H   0  0  0  0  0  0  0  0  0  0  0  0
  -36.6070   32.8017    3.3118 H   0  0  0  0  0  0  0  0  0  0  0  0
  -35.5111   34.1825    1.7641 H   0  0  0  0  0  0  0  0  0  0  0  0
  -33.9260   34.0357    2.5964 H   0  0  0  0  0  0  0  0  0  0  0  0
  -35.0256   35.2551    4.4525 H   0  0  0  0  0  0  0  0  0  0  0  0
  -34.7069   37.4198    3.4609 H   0  0  0  0  0  0  0  0  0  0  0  0
  -34.7821   36.6297    1.8495 H   0  0  0  0  0  0  0  0  0  0  0  0
  -33.4275   36.2587    2.9693 H   0  0  0  0  0  0  0  0  0  0  0  0
  -37.3091   34.8700    3.8397 H   0  0  0  0  0  0  0  0  0  0  0  0
  -37.0140   35.8358    2.3542 H   0  0  0  0  0  0  0  0  0  0  0  0
  -36.9307   36.6213    3.9675 H   0  0  0  0  0  0  0  0  0  0  0  0
  -38.3082   30.2119    5.4122 H   0  0  0  0  0  0  0  0  0  0  0  0
  -38.0230   27.5773    6.6353 H   0  0  0  0  0  0  0  0  0  0  0  0
  -39.6291   28.8245    7.7018 H   0  0  0  0  0  0  0  0  0  0  0  0
  -40.5066   27.5454    6.7959 H   0  0  0  0  0  0  0  0  0  0  0  0
  -40.8027   29.4247    5.0157 H   0  0  0  0  0  0  0  0  0  0  0  0
  -40.4697   30.5080    6.4093 H   0  0  0  0  0  0  0  0  0  0  0  0
  -43.6061   27.9081    7.1134 H   0  0  0  0  0  0  0  0  0  0  0  0
  -42.0496   27.3157    6.6374 H   0  0  0  0  0  0  0  0  0  0  0  0
  -38.5062   25.6254    5.9464 H   0  0  0  0  0  0  0  0  0  0  0  0
  -39.2741   25.3006    3.0998 H   0  0  0  0  0  0  0  0  0  0  0  0
  -37.3770   23.7910    2.6210 H   0  0  0  0  0  0  0  0  0  0  0  0
  -36.4223   24.4831    5.2250 H   0  0  0  0  0  0  0  0  0  0  0  0
  -35.4887   25.4219    2.6073 H   0  0  0  0  0  0  0  0  0  0  0  0
  -36.3844   26.4680    3.7605 H   0  0  0  0  0  0  0  0  0  0  0  0
  -37.0295   26.1972    2.1060 H   0  0  0  0  0  0  0  0  0  0  0  0
  -39.7960   23.0358    6.1795 H   0  0  0  0  0  0  0  0  0  0  0  0
  1 52  1  0  0  0  0
  1 53  1  0  0  0  0
  1 54  1  0  0  0  0
  2  1  1  0  0  0  0
  2  5  1  0  0  0  0
  2 55  1  6  0  0  0
  3  2  1  0  0  0  0
  3  4  2  0  0  0  0
  5 56  1  0  0  0  0
  5 57  1  0  0  0  0
  5 58  1  0  0  0  0
  6  3  1  0  0  0  0
  6 59  1  0  0  0  0
  7  6  1  0  0  0  0
  7 10  1  0  0  0  0
  7 60  1  6  0  0  0
  8  7  1  0  0  0  0
  8  9  2  0  0  0  0
 10 11  1  0  0  0  0
 10 61  1  0  0  0  0
 10 62  1  0  0  0  0
 11 12  1  0  0  0  0
 11 63  1  0  0  0  0
 11 64  1  0  0  0  0
 12 13  1  0  0  0  0
 12 65  1  0  0  0  0
 12 66  1  0  0  0  0
 13 14  1  0  0  0  0
 13 67  1  0  0  0  0
 14 16  1  0  0  0  0
 14 15  1  0  0  0  0
 15 68  1  0  0  0  0
 15 69  1  0  0  0  0
 16 70  1  0  0  0  0
 16 71  1  0  0  0  0
 17  8  1  0  0  0  0
 17 72  1  0  0  0  0
 18 17  1  0  0  0  0
 18 21  1  0  0  0  0
 18 73  1  1  0  0  0
 19 18  1  0  0  0  0
 19 20  2  0  0  0  0
 21 23  1  0  0  0  0
 21 22  1  0  0  0  0
 21 74  1  1  0  0  0
 22 75  1  0  0  0  0
 23 76  1  0  0  0  0
 23 77  1  0  0  0  0
 23 78  1  0  0  0  0
 24 25  1  0  0  0  0
 24 19  1  0  0  0  0
 24 79  1  0  0  0  0
 25 26  1  0  0  0  0
 25 33  1  0  0  0  0
 25 80  1  1  0  0  0
 26 27  1  0  0  0  0
 26 81  1  0  0  0  0
 26 82  1  0  0  0  0
 27 28  1  0  0  0  0
 27 83  1  0  0  0  0
 27 84  1  0  0  0  0
 28 29  1  0  0  0  0
 28 85  1  0  0  0  0
 28 86  1  0  0  0  0
 29 30  1  0  0  0  0
 29 87  1  0  0  0  0
 29 88  1  0  0  0  0
 30 31  1  0  0  0  0
 30 32  1  0  0  0  0
 30 89  1  0  0  0  0
 31 90  1  0  0  0  0
 31 91  1  0  0  0  0
 31 92  1  0  0  0  0
 32 93  1  0  0  0  0
 32 94  1  0  0  0  0
 32 95  1  0  0  0  0
 33 34  2  0  0  0  0
 33 35  1  0  0  0  0
 35 36  1  0  0  0  0
 35 96  1  0  0  0  0
 36 39  1  0  0  0  0
 36 37  1  0  0  0  0
 36 97  1  1  0  0  0
 37 38  2  0  0  0  0
 37 44  1  0  0  0  0
 39 40  1  0  0  0  0
 39 98  1  0  0  0  0
 39 99  1  0  0  0  0
 40 41  1  0  0  0  0
 40100  1  0  0  0  0
 40101  1  0  0  0  0
 41 43  1  0  0  0  0
 41 42  2  0  0  0  0
 43102  1  0  0  0  0
 43103  1  0  0  0  0
 44 45  1  0  0  0  0
 44104  1  0  0  0  0
 45 48  1  0  0  0  0
 45 46  1  0  0  0  0
 45105  1  6  0  0  0
 46 47  2  0  0  0  0
 46 51  1  0  0  0  0
 48 50  1  0  0  0  0
 48 49  1  0  0  0  0
 48106  1  6  0  0  0
 49107  1  0  0  0  0
 50108  1  0  0  0  0
 50109  1  0  0  0  0
 50110  1  0  0  0  0
 51111  1  0  0  0  0
M  CHG  2   1   1  30   1
M  END
