2oah_ligand
 OpenBabel08222323343D

 72 74  0  0  1  0  0  0  0  0999 V2000
   30.1940   43.6350    1.6580 C   0  0  0  0  0  0  0  0  0  0  0  0
   30.7200   42.3120    1.5090 C   0  0  0  0  0  0  0  0  0  0  0  0
   29.8290   41.3050    1.0130 C   0  0  0  0  0  0  0  0  0  0  0  0
   28.4860   41.5920    0.6540 C   0  0  0  0  0  0  0  0  0  0  0  0
   27.9940   42.9310    0.8210 C   0  0  0  0  0  0  0  0  0  0  0  0
   28.8720   43.8650    1.3240 N   0  0  0  0  0  0  0  0  0  0  0  0
   26.6740   43.2650    0.5240 N   0  0  0  0  0  0  0  0  0  0  0  0
   25.9510   44.6060    1.1380 S   0  0  0  0  0  0  0  0  0  0  0  0
   24.5700   44.4920    0.7610 O   0  0  0  0  0  0  0  0  0  0  0  0
   25.9500   42.5710   -0.5630 C   0  0  0  0  0  0  0  0  0  0  0  0
   30.2780   39.9190    0.8510 C   0  0  0  0  0  0  0  0  0  0  0  0
   30.8860   39.4010    1.9370 N   0  0  0  0  0  0  0  0  0  0  0  0
   31.7120   38.1890    1.9370 C   0  0  2  0  0  0  0  0  0  0  0  0
   31.0430   37.1520    2.8740 C   0  0  2  0  0  0  0  0  0  0  0  0
   33.1150   38.5520    2.4460 C   0  0  0  0  0  0  0  0  0  0  0  0
   30.1170   39.2800   -0.1710 O   0  0  0  0  0  0  0  0  0  0  0  0
   26.6280   46.0610    0.3270 C   0  0  0  0  0  0  0  0  0  0  0  0
   26.2800   44.6880    2.5140 O   0  0  0  0  0  0  0  0  0  0  0  0
   34.0190   39.7650    0.2360 C   0  0  0  0  0  0  0  0  0  0  0  0
   33.7700   39.7160    1.6800 C   0  0  0  0  0  0  0  0  0  0  0  0
   34.1750   40.9760    2.2850 C   0  0  0  0  0  0  0  0  0  0  0  0
   34.8070   42.0190    1.0610 S   0  0  0  0  0  0  0  0  0  0  0  0
   34.5650   40.9450   -0.2380 C   0  0  0  0  0  0  0  0  0  0  0  0
   29.6730   36.7230    2.3350 C   0  0  0  0  0  0  0  0  0  0  0  0
   30.7930   37.8100    4.1610 N   0  3  0  0  0  0  0  0  0  0  0  0
   29.7320   35.9020    1.0580 C   0  0  0  0  0  0  0  0  0  0  0  0
   28.3310   35.3670    0.7450 C   0  0  0  0  0  0  0  0  0  0  0  0
   28.4240   34.3050   -0.3370 C   0  0  0  0  0  0  0  0  0  0  0  0
   30.9880   44.7510    2.0730 N   0  0  0  0  0  0  0  0  0  0  0  0
   32.4190   44.6250    2.4680 C   0  0  0  0  0  0  0  0  0  0  0  0
   33.8230   44.0170    4.5130 C   0  0  0  0  0  0  0  0  0  0  0  0
   32.6220   44.7900    5.0440 C   0  0  1  0  0  0  0  0  0  0  0  0
   32.5040   43.9550    3.8010 C   0  0  1  0  0  0  0  0  0  0  0  0
   32.0480   44.2910    6.3270 C   0  0  0  0  0  0  0  0  0  0  0  0
   31.7489   42.0815    1.7607 H   0  0  0  0  0  0  0  0  0  0  0  0
   27.8425   40.8136    0.2604 H   0  0  0  0  0  0  0  0  0  0  0  0
   26.5299   41.6949   -0.8888 H   0  0  0  0  0  0  0  0  0  0  0  0
   25.8161   43.2582   -1.4114 H   0  0  0  0  0  0  0  0  0  0  0  0
   24.9656   42.2437   -0.1973 H   0  0  0  0  0  0  0  0  0  0  0  0
   30.7648   39.8786    2.8072 H   0  0  0  0  0  0  0  0  0  0  0  0
   31.7829   37.7787    0.9189 H   0  0  0  0  0  0  0  0  0  0  0  0
   31.6973   36.2764    2.9978 H   0  0  0  0  0  0  0  0  0  0  0  0
   33.7596   37.6660    2.3486 H   0  0  0  0  0  0  0  0  0  0  0  0
   33.0374   38.8343    3.5063 H   0  0  0  0  0  0  0  0  0  0  0  0
   26.1483   46.9637    0.7332 H   0  0  0  0  0  0  0  0  0  0  0  0
   26.4376   45.9998   -0.7547 H   0  0  0  0  0  0  0  0  0  0  0  0
   27.7122   46.1097    0.5063 H   0  0  0  0  0  0  0  0  0  0  0  0
   33.7892   38.9273   -0.4208 H   0  0  0  0  0  0  0  0  0  0  0  0
   34.0927   41.2227    3.3425 H   0  0  0  0  0  0  0  0  0  0  0  0
   34.8029   41.1542   -1.2799 H   0  0  0  0  0  0  0  0  0  0  0  0
   29.0825   37.6292    2.1348 H   0  0  0  0  0  0  0  0  0  0  0  0
   29.1716   36.1220    3.1079 H   0  0  0  0  0  0  0  0  0  0  0  0
   31.6682   38.1127    4.5592 H   0  0  0  0  0  0  0  0  0  0  0  0
   30.3449   37.1610    4.7887 H   0  0  0  0  0  0  0  0  0  0  0  0
   30.1943   38.6085    4.0195 H   0  0  0  0  0  0  0  0  0  0  0  0
   30.4269   35.0600    1.1924 H   0  0  0  0  0  0  0  0  0  0  0  0
   30.0791   36.5350    0.2281 H   0  0  0  0  0  0  0  0  0  0  0  0
   27.6933   36.1921    0.3949 H   0  0  0  0  0  0  0  0  0  0  0  0
   27.8951   34.9269    1.6540 H   0  0  0  0  0  0  0  0  0  0  0  0
   27.4179   33.9212   -0.5614 H   0  0  0  0  0  0  0  0  0  0  0  0
   29.0616   33.4798    0.0130 H   0  0  0  0  0  0  0  0  0  0  0  0
   28.8598   34.7449   -1.2461 H   0  0  0  0  0  0  0  0  0  0  0  0
   30.5505   45.6831    2.0998 H   0  0  0  0  0  0  0  0  0  0  0  0
   32.8731   45.6250    2.5294 H   0  0  0  0  0  0  0  0  0  0  0  0
   32.9557   44.0238    1.7193 H   0  0  0  0  0  0  0  0  0  0  0  0
   34.1972   43.1376    5.0577 H   0  0  0  0  0  0  0  0  0  0  0  0
   34.6688   44.5554    4.0605 H   0  0  0  0  0  0  0  0  0  0  0  0
   32.5660   45.8872    4.9894 H   0  0  0  0  0  0  0  0  0  0  0  0
   31.8997   43.0359    3.8074 H   0  0  0  0  0  0  0  0  0  0  0  0
   32.2285   45.0301    7.1214 H   0  0  0  0  0  0  0  0  0  0  0  0
   32.5269   43.3383    6.5970 H   0  0  0  0  0  0  0  0  0  0  0  0
   30.9653   44.1367    6.2089 H   0  0  0  0  0  0  0  0  0  0  0  0
  1  2  2  0  0  0  0
  1  6  1  0  0  0  0
  2  3  1  0  0  0  0
  2 35  1  0  0  0  0
  3  4  2  0  0  0  0
  3 11  1  0  0  0  0
  4 36  1  0  0  0  0
  5  4  1  0  0  0  0
  5  7  1  0  0  0  0
  6  5  2  0  0  0  0
  7  8  1  0  0  0  0
  7 10  1  0  0  0  0
  8  9  2  0  0  0  0
  8 17  1  0  0  0  0
  8 18  2  0  0  0  0
 10 37  1  0  0  0  0
 10 38  1  0  0  0  0
 10 39  1  0  0  0  0
 11 12  1  0  0  0  0
 11 16  2  0  0  0  0
 12 13  1  0  0  0  0
 12 40  1  0  0  0  0
 13 14  1  0  0  0  0
 13 15  1  0  0  0  0
 13 41  1  6  0  0  0
 14 24  1  0  0  0  0
 14 25  1  0  0  0  0
 14 42  1  1  0  0  0
 15 20  1  0  0  0  0
 15 43  1  0  0  0  0
 15 44  1  0  0  0  0
 17 45  1  0  0  0  0
 17 46  1  0  0  0  0
 17 47  1  0  0  0  0
 19 23  2  0  0  0  0
 19 48  1  0  0  0  0
 20 19  1  0  0  0  0
 20 21  2  0  0  0  0
 21 22  1  0  0  0  0
 21 49  1  0  0  0  0
 22 23  1  0  0  0  0
 23 50  1  0  0  0  0
 24 26  1  0  0  0  0
 24 51  1  0  0  0  0
 24 52  1  0  0  0  0
 25 53  1  0  0  0  0
 25 54  1  0  0  0  0
 25 55  1  0  0  0  0
 26 27  1  0  0  0  0
 26 56  1  0  0  0  0
 26 57  1  0  0  0  0
 27 28  1  0  0  0  0
 27 58  1  0  0  0  0
 27 59  1  0  0  0  0
 28 60  1  0  0  0  0
 28 61  1  0  0  0  0
 28 62  1  0  0  0  0
 29  1  1  0  0  0  0
 29 63  1  0  0  0  0
 30 29  1  0  0  0  0
 30 64  1  0  0  0  0
 30 65  1  0  0  0  0
 31 32  1  0  0  0  0
 31 33  1  0  0  0  0
 31 66  1  0  0  0  0
 31 67  1  0  0  0  0
 32 33  1  0  0  0  0
 32 34  1  0  0  0  0
 32 68  1  6  0  0  0
 33 30  1  0  0  0  0
 33 69  1  1  0  0  0
 34 70  1  0  0  0  0
 34 71  1  0  0  0  0
 34 72  1  0  0  0  0
M  CHG  1  25   1
M  END
