2obj_ligand
 OpenBabel08222323343D

 34 36  0  0  0  0  0  0  0  0999 V2000
  -20.8050   38.9620    1.9470 C   0  0  0  0  0  0  0  0  0  0  0  0
  -19.9950   38.2630    2.8600 C   0  0  0  0  0  0  0  0  0  0  0  0
  -19.1200   37.2490    2.3990 C   0  0  0  0  0  0  0  0  0  0  0  0
  -19.0360   36.8970    0.9820 C   0  0  0  0  0  0  0  0  0  0  0  0
  -19.8890   37.6480    0.1060 C   0  0  0  0  0  0  0  0  0  0  0  0
  -20.7470   38.6510    0.5730 C   0  0  0  0  0  0  0  0  0  0  0  0
  -18.1710   35.8860    0.4710 C   0  0  0  0  0  0  0  0  0  0  0  0
  -17.3960   35.1700    1.3140 N   0  0  0  0  0  0  0  0  0  0  0  0
  -16.5570   34.2130    0.9630 C   0  0  0  0  0  0  0  0  0  0  0  0
  -16.3980   33.8410   -0.4140 C   0  0  0  0  0  0  0  0  0  0  0  0
  -17.1910   34.5560   -1.4230 C   0  0  0  0  0  0  0  0  0  0  0  0
  -18.0700   35.5740   -0.9400 C   0  0  0  0  0  0  0  0  0  0  0  0
  -17.1460   34.3120   -2.8140 C   0  0  0  0  0  0  0  0  0  0  0  0
  -17.8880   33.2280   -3.4180 C   0  0  0  0  0  0  0  0  0  0  0  0
  -17.8310   32.9880   -4.8160 C   0  0  0  0  0  0  0  0  0  0  0  0
  -17.0400   33.8210   -5.6420 C   0  0  0  0  0  0  0  0  0  0  0  0
  -16.2980   34.8960   -5.0860 C   0  0  0  0  0  0  0  0  0  0  0  0
  -16.3480   35.1420   -3.6920 C   0  0  0  0  0  0  0  0  0  0  0  0
  -15.4640   32.7870   -0.7210 C   0  0  0  0  0  0  0  0  0  0  0  0
  -14.7240   31.9370   -0.9860 N   0  0  0  0  0  0  0  0  0  0  0  0
  -15.8850   33.6370    2.0140 O   0  0  0  0  0  0  0  0  0  0  0  0
  -18.3750   36.6400    3.3780 O   0  0  0  0  0  0  0  0  0  0  0  0
  -21.8250   39.5960   -0.6910 Br  0  0  0  0  0  0  0  0  0  0  0  0
  -21.4734   39.7393    2.2995 H   0  0  0  0  0  0  0  0  0  0  0  0
  -20.0404   38.5003    3.9167 H   0  0  0  0  0  0  0  0  0  0  0  0
  -19.8684   37.4309   -0.9558 H   0  0  0  0  0  0  0  0  0  0  0  0
  -18.6769   36.1270   -1.6478 H   0  0  0  0  0  0  0  0  0  0  0  0
  -18.4986   32.5872   -2.7923 H   0  0  0  0  0  0  0  0  0  0  0  0
  -18.3923   32.1683   -5.2497 H   0  0  0  0  0  0  0  0  0  0  0  0
  -17.0002   33.6366   -6.7095 H   0  0  0  0  0  0  0  0  0  0  0  0
  -15.6940   35.5277   -5.7273 H   0  0  0  0  0  0  0  0  0  0  0  0
  -15.7793   35.9655   -3.2755 H   0  0  0  0  0  0  0  0  0  0  0  0
  -15.3772   34.3008    2.4657 H   0  0  0  0  0  0  0  0  0  0  0  0
  -17.4512   36.7666    3.1962 H   0  0  0  0  0  0  0  0  0  0  0  0
  1  2  2  0  0  0  0
  1  6  1  0  0  0  0
  1 24  1  0  0  0  0
  2  3  1  0  0  0  0
  2 25  1  0  0  0  0
  3  4  2  0  0  0  0
  3 22  1  0  0  0  0
  4  5  1  0  0  0  0
  4  7  1  0  0  0  0
  5  6  2  0  0  0  0
  5 26  1  0  0  0  0
  6 23  1  0  0  0  0
  7  8  2  0  0  0  0
  7 12  1  0  0  0  0
  8  9  1  0  0  0  0
  9 10  2  0  0  0  0
  9 21  1  0  0  0  0
 10 11  1  0  0  0  0
 10 19  1  0  0  0  0
 11 12  2  0  0  0  0
 11 13  1  0  0  0  0
 12 27  1  0  0  0  0
 13 14  2  0  0  0  0
 13 18  1  0  0  0  0
 14 15  1  0  0  0  0
 14 28  1  0  0  0  0
 15 16  2  0  0  0  0
 15 29  1  0  0  0  0
 16 17  1  0  0  0  0
 16 30  1  0  0  0  0
 17 18  2  0  0  0  0
 17 31  1  0  0  0  0
 18 32  1  0  0  0  0
 19 20  3  0  0  0  0
 21 33  1  0  0  0  0
 22 34  1  0  0  0  0
M  END
