2obo_ligand
 OpenBabel08222323343D

 80 82  0  0  1  0  0  0  0  0999 V2000
  192.0180  -10.4090   48.8310 C   0  0  0  0  0  0  0  0  0  0  0  0
  192.6240  -11.2850   49.4590 O   0  0  0  0  0  0  0  0  0  0  0  0
  190.6890  -10.1650   48.8440 O   0  0  0  0  0  0  0  0  0  0  0  0
  189.6980  -10.9280   49.6350 C   0  0  0  0  0  0  0  0  0  0  0  0
  188.3380  -10.2250   49.4430 C   0  0  0  0  0  0  0  0  0  0  0  0
  189.5220  -12.3650   49.0710 C   0  0  0  0  0  0  0  0  0  0  0  0
  190.0670  -10.9810   51.1480 C   0  0  0  0  0  0  0  0  0  0  0  0
  192.6230   -9.5400   48.0250 N   0  0  0  0  0  0  0  0  0  0  0  0
  194.0740   -9.4170   48.0010 C   0  0  1  0  0  0  0  0  0  0  0  0
  194.6730   -8.9350   46.7010 C   0  0  0  0  0  0  0  0  0  0  0  0
  196.1680   -8.9540   46.9100 C   0  0  0  0  0  0  0  0  0  0  0  0
  194.3430   -9.8870   45.5960 C   0  0  0  0  0  0  0  0  0  0  0  0
  194.2280   -7.4970   46.2960 C   0  0  0  0  0  0  0  0  0  0  0  0
  194.5810   -8.6080   49.1900 C   0  0  0  0  0  0  0  0  0  0  0  0
  194.4110   -7.3860   49.2440 O   0  0  0  0  0  0  0  0  0  0  0  0
  195.1720   -9.2900   50.1820 N   0  0  0  0  0  0  0  0  0  0  0  0
  195.4090  -10.7350   50.2670 C   0  0  0  0  0  0  0  0  0  0  0  0
  195.6930   -8.5870   51.3500 C   0  0  1  0  0  0  0  0  0  0  0  0
  196.5020   -9.6080   52.0990 C   0  0  2  0  0  0  0  0  0  0  0  0
  196.3200  -10.8920   51.4230 C   0  0  1  0  0  0  0  0  0  0  0  0
  195.7110  -10.7030   52.7850 C   0  0  0  0  0  0  0  0  0  0  0  0
  196.3470  -11.3320   53.9910 C   0  0  0  0  0  0  0  0  0  0  0  0
  194.2020  -10.7630   52.8680 C   0  0  0  0  0  0  0  0  0  0  0  0
  196.7300   -7.5950   50.8600 C   0  0  0  0  0  0  0  0  0  0  0  0
  197.5860   -7.9450   50.0460 O   0  0  0  0  0  0  0  0  0  0  0  0
  196.6070   -6.3490   51.3020 N   0  0  0  0  0  0  0  0  0  0  0  0
  197.5450   -5.2910   50.9250 C   0  0  1  0  0  0  0  0  0  0  0  0
  196.8210   -4.1310   50.2340 C   0  0  0  0  0  0  0  0  0  0  0  0
  196.0400   -4.6580   49.0490 C   0  0  0  0  0  0  0  0  0  0  0  0
  196.6690   -4.6550   47.6950 C   0  0  0  0  0  0  0  0  0  0  0  0
  195.5290   -3.7140   48.0210 C   0  0  0  0  0  0  0  0  0  0  0  0
  198.7390   -5.8960   52.9960 O   0  0  0  0  0  0  0  0  0  0  0  0
  198.2970   -4.7730   52.1700 C   0  0  1  0  0  0  0  0  0  0  0  0
  199.3180   -2.8540   51.2060 O   0  0  0  0  0  0  0  0  0  0  0  0
  200.6770   -4.5460   51.8230 N   0  0  0  0  0  0  0  0  0  0  0  0
  199.4850   -3.9770   51.6930 C   0  0  0  0  0  0  0  0  0  0  0  0
  187.5652  -10.7590   50.0153 H   0  0  0  0  0  0  0  0  0  0  0  0
  188.0713  -10.2276   48.3758 H   0  0  0  0  0  0  0  0  0  0  0  0
  188.4079   -9.1873   49.8010 H   0  0  0  0  0  0  0  0  0  0  0  0
  188.7816  -12.9084   49.6764 H   0  0  0  0  0  0  0  0  0  0  0  0
  190.4856  -12.8942   49.1084 H   0  0  0  0  0  0  0  0  0  0  0  0
  189.1741  -12.3099   48.0289 H   0  0  0  0  0  0  0  0  0  0  0  0
  189.3034  -11.5566   51.6917 H   0  0  0  0  0  0  0  0  0  0  0  0
  190.1110   -9.9583   51.5508 H   0  0  0  0  0  0  0  0  0  0  0  0
  191.0470  -11.4655   51.2697 H   0  0  0  0  0  0  0  0  0  0  0  0
  192.0713   -8.9609   47.4248 H   0  0  0  0  0  0  0  0  0  0  0  0
  194.4572  -10.4390   48.1376 H   0  0  0  0  0  0  0  0  0  0  0  0
  196.6707   -8.6113   45.9936 H   0  0  0  0  0  0  0  0  0  0  0  0
  196.4924   -9.9785   47.1449 H   0  0  0  0  0  0  0  0  0  0  0  0
  196.4302   -8.2861   47.7437 H   0  0  0  0  0  0  0  0  0  0  0  0
  193.2562   -9.8892   45.4263 H   0  0  0  0  0  0  0  0  0  0  0  0
  194.6728  -10.8991   45.8732 H   0  0  0  0  0  0  0  0  0  0  0  0
  194.8571   -9.5730   44.6757 H   0  0  0  0  0  0  0  0  0  0  0  0
  194.4703   -6.7958   47.1082 H   0  0  0  0  0  0  0  0  0  0  0  0
  193.1432   -7.4865   46.1140 H   0  0  0  0  0  0  0  0  0  0  0  0
  194.7565   -7.1939   45.3801 H   0  0  0  0  0  0  0  0  0  0  0  0
  195.8816  -11.1067   49.3459 H   0  0  0  0  0  0  0  0  0  0  0  0
  194.4659  -11.2746   50.4387 H   0  0  0  0  0  0  0  0  0  0  0  0
  194.9017   -8.1213   51.9558 H   0  0  0  0  0  0  0  0  0  0  0  0
  197.4548   -9.2291   52.4972 H   0  0  0  0  0  0  0  0  0  0  0  0
  197.1319  -11.6123   51.2439 H   0  0  0  0  0  0  0  0  0  0  0  0
  195.7605  -11.0818   54.8873 H   0  0  0  0  0  0  0  0  0  0  0  0
  197.3724  -10.9508   54.1056 H   0  0  0  0  0  0  0  0  0  0  0  0
  196.3740  -12.4243   53.8637 H   0  0  0  0  0  0  0  0  0  0  0  0
  193.7667  -10.2955   51.9725 H   0  0  0  0  0  0  0  0  0  0  0  0
  193.8624  -10.2241   53.7648 H   0  0  0  0  0  0  0  0  0  0  0  0
  193.8795  -11.8130   52.9270 H   0  0  0  0  0  0  0  0  0  0  0  0
  195.8476   -6.1260   51.9132 H   0  0  0  0  0  0  0  0  0  0  0  0
  198.2784   -5.7122   50.2217 H   0  0  0  0  0  0  0  0  0  0  0  0
  197.5589   -3.3924   49.8876 H   0  0  0  0  0  0  0  0  0  0  0  0
  196.1307   -3.6539   50.9452 H   0  0  0  0  0  0  0  0  0  0  0  0
  195.4209   -5.5104   49.3653 H   0  0  0  0  0  0  0  0  0  0  0  0
  196.5083   -5.5003   47.0097 H   0  0  0  0  0  0  0  0  0  0  0  0
  197.6876   -4.2623   47.5603 H   0  0  0  0  0  0  0  0  0  0  0  0
  195.7171   -2.6349   48.1219 H   0  0  0  0  0  0  0  0  0  0  0  0
  194.5378   -3.8729   47.5713 H   0  0  0  0  0  0  0  0  0  0  0  0
  197.9831   -6.3990   53.2754 H   0  0  0  0  0  0  0  0  0  0  0  0
  197.6323   -4.1273   52.7626 H   0  0  0  0  0  0  0  0  0  0  0  0
  201.4981   -4.0609   51.5223 H   0  0  0  0  0  0  0  0  0  0  0  0
  200.7540   -5.4598   52.2217 H   0  0  0  0  0  0  0  0  0  0  0  0
  1  2  2  0  0  0  0
  1  3  1  0  0  0  0
  1  8  1  0  0  0  0
  3  4  1  0  0  0  0
  4  5  1  0  0  0  0
  4  6  1  0  0  0  0
  4  7  1  0  0  0  0
  5 37  1  0  0  0  0
  5 38  1  0  0  0  0
  5 39  1  0  0  0  0
  6 40  1  0  0  0  0
  6 41  1  0  0  0  0
  6 42  1  0  0  0  0
  7 43  1  0  0  0  0
  7 44  1  0  0  0  0
  7 45  1  0  0  0  0
  8  9  1  0  0  0  0
  8 46  1  0  0  0  0
  9 10  1  0  0  0  0
  9 14  1  0  0  0  0
  9 47  1  1  0  0  0
 10 11  1  0  0  0  0
 10 12  1  0  0  0  0
 10 13  1  0  0  0  0
 11 48  1  0  0  0  0
 11 49  1  0  0  0  0
 11 50  1  0  0  0  0
 12 51  1  0  0  0  0
 12 52  1  0  0  0  0
 12 53  1  0  0  0  0
 13 54  1  0  0  0  0
 13 55  1  0  0  0  0
 13 56  1  0  0  0  0
 14 15  2  0  0  0  0
 14 16  1  0  0  0  0
 16 17  1  0  0  0  0
 16 18  1  0  0  0  0
 17 20  1  0  0  0  0
 17 57  1  0  0  0  0
 17 58  1  0  0  0  0
 18 19  1  0  0  0  0
 18 24  1  0  0  0  0
 18 59  1  1  0  0  0
 19 20  1  0  0  0  0
 19 21  1  0  0  0  0
 19 60  1  1  0  0  0
 20 21  1  0  0  0  0
 20 61  1  6  0  0  0
 21 22  1  0  0  0  0
 21 23  1  0  0  0  0
 22 62  1  0  0  0  0
 22 63  1  0  0  0  0
 22 64  1  0  0  0  0
 23 65  1  0  0  0  0
 23 66  1  0  0  0  0
 23 67  1  0  0  0  0
 24 25  2  0  0  0  0
 24 26  1  0  0  0  0
 26 27  1  0  0  0  0
 26 68  1  0  0  0  0
 27 28  1  0  0  0  0
 27 33  1  0  0  0  0
 27 69  1  6  0  0  0
 28 29  1  0  0  0  0
 28 70  1  0  0  0  0
 28 71  1  0  0  0  0
 29 30  1  0  0  0  0
 29 31  1  0  0  0  0
 29 72  1  0  0  0  0
 30 31  1  0  0  0  0
 30 73  1  0  0  0  0
 30 74  1  0  0  0  0
 31 75  1  0  0  0  0
 31 76  1  0  0  0  0
 32 77  1  0  0  0  0
 33 32  1  0  0  0  0
 33 36  1  0  0  0  0
 33 78  1  1  0  0  0
 35 79  1  0  0  0  0
 35 80  1  0  0  0  0
 36 34  2  0  0  0  0
 36 35  1  0  0  0  0
M  END
