2oc0_ligand
 OpenBabel08222323343D

 87 90  0  0  1  0  0  0  0  0999 V2000
  192.0400  -10.3830   49.1750 C   0  0  0  0  0  0  0  0  0  0  0  0
  192.6100  -11.3340   49.7220 O   0  0  0  0  0  0  0  0  0  0  0  0
  190.7010  -10.1490   49.1460 O   0  0  0  0  0  0  0  0  0  0  0  0
  189.6590  -10.8590   49.8960 C   0  0  0  0  0  0  0  0  0  0  0  0
  188.8670  -11.6610   48.8600 C   0  0  0  0  0  0  0  0  0  0  0  0
  188.6840   -9.8300   50.5060 C   0  0  0  0  0  0  0  0  0  0  0  0
  190.1540  -11.7810   51.0490 C   0  0  0  0  0  0  0  0  0  0  0  0
  192.6970   -9.4530   48.4900 N   0  0  0  0  0  0  0  0  0  0  0  0
  194.1490   -9.4430   48.3710 C   0  0  1  0  0  0  0  0  0  0  0  0
  194.5800   -8.7860   47.0610 C   0  0  0  0  0  0  0  0  0  0  0  0
  196.1050   -8.7530   46.9420 C   0  0  0  0  0  0  0  0  0  0  0  0
  193.9770   -9.5210   45.8640 C   0  0  0  0  0  0  0  0  0  0  0  0
  196.5840   -8.2110   45.6040 C   0  0  0  0  0  0  0  0  0  0  0  0
  194.4350   -8.9710   44.5290 C   0  0  0  0  0  0  0  0  0  0  0  0
  195.9540   -8.9900   44.4410 C   0  0  0  0  0  0  0  0  0  0  0  0
  194.6890   -8.6180   49.5320 C   0  0  0  0  0  0  0  0  0  0  0  0
  194.4110   -7.4160   49.6280 O   0  0  0  0  0  0  0  0  0  0  0  0
  195.4120   -9.2600   50.4620 N   0  0  0  0  0  0  0  0  0  0  0  0
  195.7630  -10.6890   50.4960 C   0  0  0  0  0  0  0  0  0  0  0  0
  195.9690   -8.5470   51.6160 C   0  0  1  0  0  0  0  0  0  0  0  0
  196.4400   -9.5730   52.5860 C   0  0  2  0  0  0  0  0  0  0  0  0
  196.4840  -10.8420   51.8110 C   0  0  1  0  0  0  0  0  0  0  0  0
  195.6430  -10.7580   53.0880 C   0  0  0  0  0  0  0  0  0  0  0  0
  196.1630  -11.4340   54.3160 C   0  0  0  0  0  0  0  0  0  0  0  0
  194.1510  -10.7130   52.9690 C   0  0  0  0  0  0  0  0  0  0  0  0
  197.0190   -7.5340   51.1720 C   0  0  0  0  0  0  0  0  0  0  0  0
  198.0030   -7.8880   50.5080 O   0  0  0  0  0  0  0  0  0  0  0  0
  196.8130   -6.2780   51.5510 N   0  0  0  0  0  0  0  0  0  0  0  0
  197.7280   -5.2110   51.1700 C   0  0  1  0  0  0  0  0  0  0  0  0
  196.9610   -4.1400   50.3820 C   0  0  0  0  0  0  0  0  0  0  0  0
  196.3330   -4.6740   49.0670 C   0  0  0  0  0  0  0  0  0  0  0  0
  195.3550   -3.7610   48.3230 C   0  0  0  0  0  0  0  0  0  0  0  0
  197.2360   -4.6540   47.8320 C   0  0  0  0  0  0  0  0  0  0  0  0
  196.0300   -4.1670   47.0070 C   0  0  0  0  0  0  0  0  0  0  0  0
  199.0140   -5.7020   53.2040 O   0  0  0  0  0  0  0  0  0  0  0  0
  198.4720   -4.6140   52.3950 C   0  0  1  0  0  0  0  0  0  0  0  0
  199.4910   -2.7450   51.3070 O   0  0  0  0  0  0  0  0  0  0  0  0
  200.9060   -4.3320   52.0080 N   0  0  0  0  0  0  0  0  0  0  0  0
  199.6880   -3.8230   51.8580 C   0  0  0  0  0  0  0  0  0  0  0  0
  188.0647  -12.2197   49.3641 H   0  0  0  0  0  0  0  0  0  0  0  0
  189.5397  -12.3659   48.3495 H   0  0  0  0  0  0  0  0  0  0  0  0
  188.4275  -10.9738   48.1221 H   0  0  0  0  0  0  0  0  0  0  0  0
  187.9002  -10.3570   51.0698 H   0  0  0  0  0  0  0  0  0  0  0  0
  188.2224   -9.2399   49.7006 H   0  0  0  0  0  0  0  0  0  0  0  0
  189.2344   -9.1596   51.1825 H   0  0  0  0  0  0  0  0  0  0  0  0
  189.2894  -12.2565   51.5351 H   0  0  0  0  0  0  0  0  0  0  0  0
  190.7055  -11.1806   51.7875 H   0  0  0  0  0  0  0  0  0  0  0  0
  190.8168  -12.5573   50.6389 H   0  0  0  0  0  0  0  0  0  0  0  0
  192.1736   -8.7308   48.0379 H   0  0  0  0  0  0  0  0  0  0  0  0
  194.5379  -10.4709   48.4164 H   0  0  0  0  0  0  0  0  0  0  0  0
  194.2090   -7.7505   47.0563 H   0  0  0  0  0  0  0  0  0  0  0  0
  196.4885   -9.7768   47.0632 H   0  0  0  0  0  0  0  0  0  0  0  0
  196.5056   -8.1141   47.7428 H   0  0  0  0  0  0  0  0  0  0  0  0
  192.8816   -9.4370   45.9186 H   0  0  0  0  0  0  0  0  0  0  0  0
  194.2670  -10.5805   45.9228 H   0  0  0  0  0  0  0  0  0  0  0  0
  197.6787   -8.3039   45.5487 H   0  0  0  0  0  0  0  0  0  0  0  0
  196.3013   -7.1511   45.5226 H   0  0  0  0  0  0  0  0  0  0  0  0
  194.0786   -7.9359   44.4218 H   0  0  0  0  0  0  0  0  0  0  0  0
  194.0173   -9.5883   43.7200 H   0  0  0  0  0  0  0  0  0  0  0  0
  196.3029  -10.0326   44.4759 H   0  0  0  0  0  0  0  0  0  0  0  0
  196.2647   -8.5310   43.4909 H   0  0  0  0  0  0  0  0  0  0  0  0
  196.4200  -10.9528   49.6542 H   0  0  0  0  0  0  0  0  0  0  0  0
  194.8601  -11.3166   50.4671 H   0  0  0  0  0  0  0  0  0  0  0  0
  195.1605   -7.9789   52.0994 H   0  0  0  0  0  0  0  0  0  0  0  0
  197.2549   -9.1883   53.2169 H   0  0  0  0  0  0  0  0  0  0  0  0
  197.3705  -11.4897   51.7427 H   0  0  0  0  0  0  0  0  0  0  0  0
  195.4540  -11.2863   55.1439 H   0  0  0  0  0  0  0  0  0  0  0  0
  197.1380  -11.0028   54.5869 H   0  0  0  0  0  0  0  0  0  0  0  0
  196.2795  -12.5102   54.1207 H   0  0  0  0  0  0  0  0  0  0  0  0
  193.8729  -10.1985   52.0374 H   0  0  0  0  0  0  0  0  0  0  0  0
  193.7309  -10.1690   53.8278 H   0  0  0  0  0  0  0  0  0  0  0  0
  193.7532  -11.7384   52.9543 H   0  0  0  0  0  0  0  0  0  0  0  0
  196.0127   -6.0603   52.1098 H   0  0  0  0  0  0  0  0  0  0  0  0
  198.4889   -5.6412   50.5023 H   0  0  0  0  0  0  0  0  0  0  0  0
  197.6574   -3.3265   50.1306 H   0  0  0  0  0  0  0  0  0  0  0  0
  196.1547   -3.7485   51.0196 H   0  0  0  0  0  0  0  0  0  0  0  0
  195.9113   -5.6677   49.2783 H   0  0  0  0  0  0  0  0  0  0  0  0
  195.4510   -2.6939   48.5721 H   0  0  0  0  0  0  0  0  0  0  0  0
  194.3004   -4.0631   48.4043 H   0  0  0  0  0  0  0  0  0  0  0  0
  197.6219   -5.6403   47.5347 H   0  0  0  0  0  0  0  0  0  0  0  0
  198.0679   -3.9365   47.8884 H   0  0  0  0  0  0  0  0  0  0  0  0
  196.2496   -3.3287   46.3295 H   0  0  0  0  0  0  0  0  0  0  0  0
  195.5072   -4.9598   46.4519 H   0  0  0  0  0  0  0  0  0  0  0  0
  198.3037   -6.2581   53.5015 H   0  0  0  0  0  0  0  0  0  0  0  0
  197.8030   -3.9729   52.9879 H   0  0  0  0  0  0  0  0  0  0  0  0
  201.7021   -3.8327   51.6662 H   0  0  0  0  0  0  0  0  0  0  0  0
  201.0266   -5.2145   52.4627 H   0  0  0  0  0  0  0  0  0  0  0  0
  1  2  2  0  0  0  0
  1  3  1  0  0  0  0
  1  8  1  0  0  0  0
  3  4  1  0  0  0  0
  4  5  1  0  0  0  0
  4  6  1  0  0  0  0
  4  7  1  0  0  0  0
  5 40  1  0  0  0  0
  5 41  1  0  0  0  0
  5 42  1  0  0  0  0
  6 43  1  0  0  0  0
  6 44  1  0  0  0  0
  6 45  1  0  0  0  0
  7 46  1  0  0  0  0
  7 47  1  0  0  0  0
  7 48  1  0  0  0  0
  8  9  1  0  0  0  0
  8 49  1  0  0  0  0
  9 10  1  0  0  0  0
  9 16  1  0  0  0  0
  9 50  1  1  0  0  0
 10 11  1  0  0  0  0
 10 12  1  0  0  0  0
 10 51  1  0  0  0  0
 11 13  1  0  0  0  0
 11 52  1  0  0  0  0
 11 53  1  0  0  0  0
 12 14  1  0  0  0  0
 12 54  1  0  0  0  0
 12 55  1  0  0  0  0
 13 15  1  0  0  0  0
 13 56  1  0  0  0  0
 13 57  1  0  0  0  0
 14 15  1  0  0  0  0
 14 58  1  0  0  0  0
 14 59  1  0  0  0  0
 15 60  1  0  0  0  0
 15 61  1  0  0  0  0
 16 17  2  0  0  0  0
 16 18  1  0  0  0  0
 18 19  1  0  0  0  0
 18 20  1  0  0  0  0
 19 22  1  0  0  0  0
 19 62  1  0  0  0  0
 19 63  1  0  0  0  0
 20 21  1  0  0  0  0
 20 26  1  0  0  0  0
 20 64  1  1  0  0  0
 21 22  1  0  0  0  0
 21 23  1  0  0  0  0
 21 65  1  1  0  0  0
 22 23  1  0  0  0  0
 22 66  1  1  0  0  0
 23 24  1  0  0  0  0
 23 25  1  0  0  0  0
 24 67  1  0  0  0  0
 24 68  1  0  0  0  0
 24 69  1  0  0  0  0
 25 70  1  0  0  0  0
 25 71  1  0  0  0  0
 25 72  1  0  0  0  0
 26 27  2  0  0  0  0
 26 28  1  0  0  0  0
 28 29  1  0  0  0  0
 28 73  1  0  0  0  0
 29 30  1  0  0  0  0
 29 36  1  0  0  0  0
 29 74  1  6  0  0  0
 30 31  1  0  0  0  0
 30 75  1  0  0  0  0
 30 76  1  0  0  0  0
 31 32  1  0  0  0  0
 31 33  1  0  0  0  0
 31 77  1  0  0  0  0
 32 34  1  0  0  0  0
 32 78  1  0  0  0  0
 32 79  1  0  0  0  0
 33 34  1  0  0  0  0
 33 80  1  0  0  0  0
 33 81  1  0  0  0  0
 34 82  1  0  0  0  0
 34 83  1  0  0  0  0
 35 84  1  0  0  0  0
 36 35  1  0  0  0  0
 36 39  1  0  0  0  0
 36 85  1  1  0  0  0
 38 86  1  0  0  0  0
 38 87  1  0  0  0  0
 39 37  2  0  0  0  0
 39 38  1  0  0  0  0
M  END
