2oc7_ligand
 OpenBabel08222323343D

 88 91  0  0  1  0  0  0  0  0999 V2000
  192.7250  -10.6490   49.1130 C   0  0  0  0  0  0  0  0  0  0  0  0
  193.3580  -11.4910   49.7560 O   0  0  0  0  0  0  0  0  0  0  0  0
  191.3810  -10.5690   48.9730 O   0  0  0  0  0  0  0  0  0  0  0  0
  190.4070  -11.2010   49.8190 C   0  0  0  0  0  0  0  0  0  0  0  0
  190.6910  -11.2060   51.3550 C   0  0  0  0  0  0  0  0  0  0  0  0
  189.0400  -10.4330   49.5490 C   0  0  0  0  0  0  0  0  0  0  0  0
  190.3320  -12.6770   49.4030 C   0  0  0  0  0  0  0  0  0  0  0  0
  193.3190   -9.7090   48.3960 N   0  0  0  0  0  0  0  0  0  0  0  0
  194.7620   -9.5400   48.3790 C   0  0  1  0  0  0  0  0  0  0  0  0
  195.1750   -8.7490   47.1390 C   0  0  0  0  0  0  0  0  0  0  0  0
  196.6720   -8.4660   47.1090 C   0  0  0  0  0  0  0  0  0  0  0  0
  194.7380   -9.4450   45.8480 C   0  0  0  0  0  0  0  0  0  0  0  0
  197.0680   -7.6600   45.8650 C   0  0  0  0  0  0  0  0  0  0  0  0
  195.0970   -8.6450   44.6050 C   0  0  0  0  0  0  0  0  0  0  0  0
  196.5990   -8.3410   44.5730 C   0  0  0  0  0  0  0  0  0  0  0  0
  195.1180   -8.7110   49.6160 C   0  0  0  0  0  0  0  0  0  0  0  0
  194.6500   -7.5760   49.7710 O   0  0  0  0  0  0  0  0  0  0  0  0
  195.8910   -9.2890   50.5460 N   0  0  0  0  0  0  0  0  0  0  0  0
  196.4960  -10.6250   50.4700 C   0  0  0  0  0  0  0  0  0  0  0  0
  196.2880   -8.5810   51.7640 C   0  0  1  0  0  0  0  0  0  0  0  0
  196.7040   -9.6880   52.6660 C   0  0  2  0  0  0  0  0  0  0  0  0
  197.2860  -10.7080   51.7900 C   0  0  1  0  0  0  0  0  0  0  0  0
  196.7240  -11.7030   52.6760 O   0  0  0  0  0  0  0  0  0  0  0  0
  195.8440  -10.7350   53.3100 C   0  0  0  0  0  0  0  0  0  0  0  0
  195.8740  -10.8610   54.7700 C   0  0  0  0  0  0  0  0  0  0  0  0
  194.3810  -10.6980   52.9800 C   0  0  0  0  0  0  0  0  0  0  0  0
  197.3900   -7.5800   51.4400 C   0  0  0  0  0  0  0  0  0  0  0  0
  198.4760   -7.9590   50.9950 O   0  0  0  0  0  0  0  0  0  0  0  0
  197.1140   -6.3000   51.6690 N   0  0  0  0  0  0  0  0  0  0  0  0
  198.0890   -5.2560   51.3720 C   0  0  1  0  0  0  0  0  0  0  0  0
  197.4180   -4.1460   50.5450 C   0  0  0  0  0  0  0  0  0  0  0  0
  196.7120   -4.6860   49.2610 C   0  0  0  0  0  0  0  0  0  0  0  0
  197.5840   -5.0330   48.0550 C   0  0  0  0  0  0  0  0  0  0  0  0
  195.8900   -3.7370   48.3940 C   0  0  0  0  0  0  0  0  0  0  0  0
  196.5200   -4.4000   47.1650 C   0  0  0  0  0  0  0  0  0  0  0  0
  199.1910   -5.7930   53.4620 O   0  0  0  0  0  0  0  0  0  0  0  0
  198.8370   -4.7080   52.6190 C   0  0  1  0  0  0  0  0  0  0  0  0
  200.1230   -2.9080   51.7860 O   0  0  0  0  0  0  0  0  0  0  0  0
  201.3000   -4.7280   52.4260 N   0  0  0  0  0  0  0  0  0  0  0  0
  200.1640   -4.0530   52.2470 C   0  0  0  0  0  0  0  0  0  0  0  0
  189.8701  -11.7185   51.8780 H   0  0  0  0  0  0  0  0  0  0  0  0
  190.7664  -10.1701   51.7173 H   0  0  0  0  0  0  0  0  0  0  0  0
  191.6364  -11.7330   51.5514 H   0  0  0  0  0  0  0  0  0  0  0  0
  188.2448  -10.8704   50.1705 H   0  0  0  0  0  0  0  0  0  0  0  0
  188.7695  -10.5282   48.4870 H   0  0  0  0  0  0  0  0  0  0  0  0
  189.1606   -9.3695   49.8028 H   0  0  0  0  0  0  0  0  0  0  0  0
  189.5936  -13.1977   50.0304 H   0  0  0  0  0  0  0  0  0  0  0  0
  191.3188  -13.1452   49.5331 H   0  0  0  0  0  0  0  0  0  0  0  0
  190.0298  -12.7456   48.3476 H   0  0  0  0  0  0  0  0  0  0  0  0
  192.7548   -9.0930   47.8463 H   0  0  0  0  0  0  0  0  0  0  0  0
  195.2689  -10.5160   48.3979 H   0  0  0  0  0  0  0  0  0  0  0  0
  194.6568   -7.7798   47.1845 H   0  0  0  0  0  0  0  0  0  0  0  0
  197.2163   -9.4219   47.1035 H   0  0  0  0  0  0  0  0  0  0  0  0
  196.9455   -7.8935   48.0076 H   0  0  0  0  0  0  0  0  0  0  0  0
  193.6473   -9.5851   45.8745 H   0  0  0  0  0  0  0  0  0  0  0  0
  195.2325  -10.4259   45.7912 H   0  0  0  0  0  0  0  0  0  0  0  0
  198.1632   -7.5613   45.8382 H   0  0  0  0  0  0  0  0  0  0  0  0
  196.6112   -6.6613   45.9273 H   0  0  0  0  0  0  0  0  0  0  0  0
  194.5368   -7.6983   44.6103 H   0  0  0  0  0  0  0  0  0  0  0  0
  194.8269   -9.2260   43.7109 H   0  0  0  0  0  0  0  0  0  0  0  0
  197.1509   -9.2841   44.4466 H   0  0  0  0  0  0  0  0  0  0  0  0
  196.8099   -7.6759   43.7227 H   0  0  0  0  0  0  0  0  0  0  0  0
  197.1645  -10.7100   49.6006 H   0  0  0  0  0  0  0  0  0  0  0  0
  195.7253  -11.4082   50.4180 H   0  0  0  0  0  0  0  0  0  0  0  0
  195.4366   -8.0387   52.2011 H   0  0  0  0  0  0  0  0  0  0  0  0
  197.3932   -9.2610   53.4095 H   0  0  0  0  0  0  0  0  0  0  0  0
  198.3771  -10.7193   51.6508 H   0  0  0  0  0  0  0  0  0  0  0  0
  195.1940  -11.6672   55.0825 H   0  0  0  0  0  0  0  0  0  0  0  0
  195.5530   -9.9131   55.2265 H   0  0  0  0  0  0  0  0  0  0  0  0
  196.8974  -11.0973   55.0967 H   0  0  0  0  0  0  0  0  0  0  0  0
  193.8646  -11.5111   53.5113 H   0  0  0  0  0  0  0  0  0  0  0  0
  194.2463  -10.8250   51.8957 H   0  0  0  0  0  0  0  0  0  0  0  0
  193.9593   -9.7309   53.2911 H   0  0  0  0  0  0  0  0  0  0  0  0
  196.2245   -6.0488   52.0507 H   0  0  0  0  0  0  0  0  0  0  0  0
  198.8578   -5.7138   50.7323 H   0  0  0  0  0  0  0  0  0  0  0  0
  198.1870   -3.4197   50.2433 H   0  0  0  0  0  0  0  0  0  0  0  0
  196.6672   -3.6452   51.1738 H   0  0  0  0  0  0  0  0  0  0  0  0
  196.1107   -5.5479   49.5859 H   0  0  0  0  0  0  0  0  0  0  0  0
  197.7312   -6.1111   47.8936 H   0  0  0  0  0  0  0  0  0  0  0  0
  198.5583   -4.5227   48.0346 H   0  0  0  0  0  0  0  0  0  0  0  0
  196.1401   -2.6730   48.5176 H   0  0  0  0  0  0  0  0  0  0  0  0
  194.8012   -3.8698   48.4769 H   0  0  0  0  0  0  0  0  0  0  0  0
  195.8654   -5.1263   46.6611 H   0  0  0  0  0  0  0  0  0  0  0  0
  196.9174   -3.6895   46.4252 H   0  0  0  0  0  0  0  0  0  0  0  0
  198.4042   -6.2497   53.7357 H   0  0  0  0  0  0  0  0  0  0  0  0
  198.1921   -3.9918   53.1493 H   0  0  0  0  0  0  0  0  0  0  0  0
  202.1747   -4.3074   52.1853 H   0  0  0  0  0  0  0  0  0  0  0  0
  201.2772   -5.6548   52.8009 H   0  0  0  0  0  0  0  0  0  0  0  0
  1  2  2  0  0  0  0
  1  3  1  0  0  0  0
  1  8  1  0  0  0  0
  3  4  1  0  0  0  0
  4  5  1  0  0  0  0
  4  6  1  0  0  0  0
  4  7  1  0  0  0  0
  5 41  1  0  0  0  0
  5 42  1  0  0  0  0
  5 43  1  0  0  0  0
  6 44  1  0  0  0  0
  6 45  1  0  0  0  0
  6 46  1  0  0  0  0
  7 47  1  0  0  0  0
  7 48  1  0  0  0  0
  7 49  1  0  0  0  0
  8  9  1  0  0  0  0
  8 50  1  0  0  0  0
  9 10  1  0  0  0  0
  9 16  1  0  0  0  0
  9 51  1  1  0  0  0
 10 11  1  0  0  0  0
 10 12  1  0  0  0  0
 10 52  1  0  0  0  0
 11 13  1  0  0  0  0
 11 53  1  0  0  0  0
 11 54  1  0  0  0  0
 12 14  1  0  0  0  0
 12 55  1  0  0  0  0
 12 56  1  0  0  0  0
 13 15  1  0  0  0  0
 13 57  1  0  0  0  0
 13 58  1  0  0  0  0
 14 15  1  0  0  0  0
 14 59  1  0  0  0  0
 14 60  1  0  0  0  0
 15 61  1  0  0  0  0
 15 62  1  0  0  0  0
 16 17  2  0  0  0  0
 16 18  1  0  0  0  0
 18 19  1  0  0  0  0
 18 20  1  0  0  0  0
 19 22  1  0  0  0  0
 19 63  1  0  0  0  0
 19 64  1  0  0  0  0
 20 21  1  0  0  0  0
 20 27  1  0  0  0  0
 20 65  1  1  0  0  0
 21 22  1  0  0  0  0
 21 24  1  0  0  0  0
 21 66  1  1  0  0  0
 22 23  1  0  0  0  0
 22 67  1  6  0  0  0
 23 24  1  0  0  0  0
 24 25  1  0  0  0  0
 24 26  1  0  0  0  0
 25 68  1  0  0  0  0
 25 69  1  0  0  0  0
 25 70  1  0  0  0  0
 26 71  1  0  0  0  0
 26 72  1  0  0  0  0
 26 73  1  0  0  0  0
 27 28  2  0  0  0  0
 27 29  1  0  0  0  0
 29 30  1  0  0  0  0
 29 74  1  0  0  0  0
 30 31  1  0  0  0  0
 30 37  1  0  0  0  0
 30 75  1  6  0  0  0
 31 32  1  0  0  0  0
 31 76  1  0  0  0  0
 31 77  1  0  0  0  0
 32 33  1  0  0  0  0
 32 34  1  0  0  0  0
 32 78  1  0  0  0  0
 33 35  1  0  0  0  0
 33 79  1  0  0  0  0
 33 80  1  0  0  0  0
 34 35  1  0  0  0  0
 34 81  1  0  0  0  0
 34 82  1  0  0  0  0
 35 83  1  0  0  0  0
 35 84  1  0  0  0  0
 36 85  1  0  0  0  0
 37 36  1  0  0  0  0
 37 40  1  0  0  0  0
 37 86  1  1  0  0  0
 39 87  1  0  0  0  0
 39 88  1  0  0  0  0
 40 38  2  0  0  0  0
 40 39  1  0  0  0  0
M  END
