2oei_ligand
 OpenBabel08222323343D

130137  0  0  1  0  0  0  0  0999 V2000
    1.8360   -1.9260   15.2780 N   0  3  0  0  0  0  0  0  0  0  0  0
    3.0590   -1.2800   15.6830 C   0  0  2  0  0  0  0  0  0  0  0  0
    2.8950    0.2340   15.8520 C   0  0  0  0  0  0  0  0  0  0  0  0
    1.8640    0.7750   15.4500 O   0  0  0  0  0  0  0  0  0  0  0  0
    4.0050   -1.5450   14.5030 C   0  0  0  0  0  0  0  0  0  0  0  0
    3.5200   -2.7430   13.8830 C   0  0  0  0  0  0  0  0  0  0  0  0
    2.0550   -2.8900   14.1860 C   0  0  0  0  0  0  0  0  0  0  0  0
    3.8820    0.9080   16.4520 N   0  0  0  0  0  0  0  0  0  0  0  0
    3.7750    2.3590   16.5300 C   0  0  2  0  0  0  0  0  0  0  0  0
    3.8960    2.9500   15.1270 C   0  0  0  0  0  0  0  0  0  0  0  0
    4.3190    2.2690   14.1830 O   0  0  0  0  0  0  0  0  0  0  0  0
    4.9750    2.7700   17.3830 C   0  0  0  0  0  0  0  0  0  0  0  0
    5.6640    1.4400   17.7810 C   0  0  0  0  0  0  0  0  0  0  0  0
    5.1550    0.3950   16.9950 C   0  0  0  0  0  0  0  0  0  0  0  0
    3.5360    4.2220   14.9800 N   0  0  0  0  0  0  0  0  0  0  0  0
    3.5960    4.8450   13.6590 C   0  0  2  0  0  0  0  0  0  0  0  0
    5.0080    5.0320   13.1520 C   0  0  0  0  0  0  0  0  0  0  0  0
    6.0010    4.9650   13.9210 O   0  0  0  0  0  0  0  0  0  0  0  0
    2.9720    6.2100   13.9040 C   0  0  0  0  0  0  0  0  0  0  0  0
    3.2060    6.4960   15.3380 C   0  0  0  0  0  0  0  0  0  0  0  0
    3.1260    5.1660   16.0280 C   0  0  0  0  0  0  0  0  0  0  0  0
    5.1390    5.3220   11.8420 N   0  0  0  0  0  0  0  0  0  0  0  0
    6.4660    5.5880   11.3410 C   0  0  2  0  0  0  0  0  0  0  0  0
    7.0930    6.7800   12.0400 C   0  0  0  0  0  0  0  0  0  0  0  0
    6.4050    7.7690   12.3120 O   0  0  0  0  0  0  0  0  0  0  0  0
    6.2450    5.8090    9.8360 C   0  0  0  0  0  0  0  0  0  0  0  0
    4.8460    5.9900    9.6830 C   0  0  0  0  0  0  0  0  0  0  0  0
    4.1080    5.4120   10.7910 C   0  0  0  0  0  0  0  0  0  0  0  0
    8.3950    6.6950   12.3380 N   0  0  0  0  0  0  0  0  0  0  0  0
    9.0340    7.8160   12.9920 C   0  0  2  0  0  0  0  0  0  0  0  0
    9.2940    8.9990   12.0330 C   0  0  0  0  0  0  0  0  0  0  0  0
    9.2100    8.8640   10.8070 O   0  0  0  0  0  0  0  0  0  0  0  0
   10.4050    7.2350   13.3950 C   0  0  0  0  0  0  0  0  0  0  0  0
   10.6390    6.1070   12.4760 C   0  0  0  0  0  0  0  0  0  0  0  0
    9.3300    5.5920   12.0740 C   0  0  0  0  0  0  0  0  0  0  0  0
    9.5430   10.1610   12.5730 N   0  0  0  0  0  0  0  0  0  0  0  0
    9.9050   11.3060   11.6980 C   0  0  2  0  0  0  0  0  0  0  0  0
   11.3060   11.0720   11.1580 C   0  0  0  0  0  0  0  0  0  0  0  0
   12.0960   10.2830   11.7420 O   0  0  0  0  0  0  0  0  0  0  0  0
   10.0170   12.4590   12.6740 C   0  0  0  0  0  0  0  0  0  0  0  0
   10.3300   11.7530   13.9900 C   0  0  0  0  0  0  0  0  0  0  0  0
    9.5520   10.5170   14.0030 C   0  0  0  0  0  0  0  0  0  0  0  0
   11.6370   11.8020   10.1060 N   0  0  0  0  0  0  0  0  0  0  0  0
   12.9710   11.7630    9.5840 C   0  0  2  0  0  0  0  0  0  0  0  0
   13.8290   12.5900   10.4300 C   0  0  0  0  0  0  0  0  0  0  0  0
   13.4200   13.6840   10.8660 O   0  0  0  0  0  0  0  0  0  0  0  0
   13.0730   12.3230    8.1800 C   0  0  0  0  0  0  0  0  0  0  0  0
   12.4630   11.5240    7.0680 C   0  0  0  0  0  0  0  0  0  0  0  0
   12.5940   12.3440    5.7580 C   0  0  0  0  0  0  0  0  0  0  0  0
   13.1210   10.1340    6.8410 C   0  0  0  0  0  0  0  0  0  0  0  0
   15.0600   12.1070   10.7080 N   0  0  0  0  0  0  0  0  0  0  0  0
   15.9520   12.8850   11.5390 C   0  0  2  0  0  0  0  0  0  0  0  0
   16.4170   14.0850   10.7510 C   0  0  0  0  0  0  0  0  0  0  0  0
   16.3100   14.0710    9.5140 O   0  0  0  0  0  0  0  0  0  0  0  0
   17.1330   11.9530   11.7900 C   0  0  0  0  0  0  0  0  0  0  0  0
   17.0510   10.9130   10.7360 C   0  0  0  0  0  0  0  0  0  0  0  0
   15.6340   10.8020   10.3150 C   0  0  0  0  0  0  0  0  0  0  0  0
   16.9570   15.1120   11.4470 N   0  0  0  0  0  0  0  0  0  0  0  0
   17.4150   16.3620   10.8290 C   0  0  2  0  0  0  0  0  0  0  0  0
   18.4040   16.1610    9.6700 C   0  0  0  0  0  0  0  0  0  0  0  0
   18.3820   16.9290    8.7060 O   0  5  0  0  0  0  0  0  0  0  0  0
   18.0960   17.1150   11.9900 C   0  0  0  0  0  0  0  0  0  0  0  0
   18.2170   16.1370   13.1090 C   0  0  0  0  0  0  0  0  0  0  0  0
   17.1290   15.1330   12.9070 C   0  0  0  0  0  0  0  0  0  0  0  0
    1.1849   -1.2229   14.9653 H   0  0  0  0  0  0  0  0  0  0  0  0
    1.4485   -2.4144   16.0700 H   0  0  0  0  0  0  0  0  0  0  0  0
    3.4424   -1.7187   16.6160 H   0  0  0  0  0  0  0  0  0  0  0  0
    5.0352   -1.6878   14.8611 H   0  0  0  0  0  0  0  0  0  0  0  0
    3.9768   -0.7061   13.7921 H   0  0  0  0  0  0  0  0  0  0  0  0
    4.0676   -3.6111   14.2785 H   0  0  0  0  0  0  0  0  0  0  0  0
    3.6674   -2.6812   12.7947 H   0  0  0  0  0  0  0  0  0  0  0  0
    1.4436   -2.6359   13.3076 H   0  0  0  0  0  0  0  0  0  0  0  0
    1.8210   -3.9142   14.5118 H   0  0  0  0  0  0  0  0  0  0  0  0
    2.8278    2.6702   16.9946 H   0  0  0  0  0  0  0  0  0  0  0  0
    4.6431    3.3157   18.2786 H   0  0  0  0  0  0  0  0  0  0  0  0
    5.6628    3.4022   16.8023 H   0  0  0  0  0  0  0  0  0  0  0  0
    6.4257    1.3330   18.5519 H   0  0  0  0  0  0  0  0  0  0  0  0
    5.6024   -0.5828   16.8229 H   0  0  0  0  0  0  0  0  0  0  0  0
    3.0180    4.2615   12.9273 H   0  0  0  0  0  0  0  0  0  0  0  0
    1.8939    6.1851   13.6872 H   0  0  0  0  0  0  0  0  0  0  0  0
    3.4549    6.9727   13.2754 H   0  0  0  0  0  0  0  0  0  0  0  0
    2.4343    7.1775   15.7254 H   0  0  0  0  0  0  0  0  0  0  0  0
    4.1992    6.9459   15.4836 H   0  0  0  0  0  0  0  0  0  0  0  0
    3.8120    5.1249   16.8869 H   0  0  0  0  0  0  0  0  0  0  0  0
    2.1005    4.9583   16.3674 H   0  0  0  0  0  0  0  0  0  0  0  0
    7.1151    4.7140   11.4986 H   0  0  0  0  0  0  0  0  0  0  0  0
    7.0018    5.8236    9.0531 H   0  0  0  0  0  0  0  0  0  0  0  0
    4.3834    6.4994    8.8389 H   0  0  0  0  0  0  0  0  0  0  0  0
    3.2788    6.0649   11.1011 H   0  0  0  0  0  0  0  0  0  0  0  0
    3.7149    4.4178   10.5323 H   0  0  0  0  0  0  0  0  0  0  0  0
    8.4517    8.1529   13.8623 H   0  0  0  0  0  0  0  0  0  0  0  0
   10.3826    6.8837   14.4371 H   0  0  0  0  0  0  0  0  0  0  0  0
   11.1930    7.9940   13.2807 H   0  0  0  0  0  0  0  0  0  0  0  0
   11.2126    5.3191   12.9861 H   0  0  0  0  0  0  0  0  0  0  0  0
   11.1953    6.4515   11.5918 H   0  0  0  0  0  0  0  0  0  0  0  0
    9.3282    5.3299   11.0057 H   0  0  0  0  0  0  0  0  0  0  0  0
    9.0626    4.7065   12.6693 H   0  0  0  0  0  0  0  0  0  0  0  0
    9.1724   11.4815   10.8965 H   0  0  0  0  0  0  0  0  0  0  0  0
    9.0717   13.0178   12.7384 H   0  0  0  0  0  0  0  0  0  0  0  0
   10.8290   13.1437   12.3880 H   0  0  0  0  0  0  0  0  0  0  0  0
   10.0421   12.3902   14.8391 H   0  0  0  0  0  0  0  0  0  0  0  0
   11.4043   11.5245   14.0507 H   0  0  0  0  0  0  0  0  0  0  0  0
   10.0424    9.7398   14.6076 H   0  0  0  0  0  0  0  0  0  0  0  0
    8.5332   10.6874   14.3812 H   0  0  0  0  0  0  0  0  0  0  0  0
   10.9511   12.3857    9.6715 H   0  0  0  0  0  0  0  0  0  0  0  0
   13.3252   10.7216    9.5869 H   0  0  0  0  0  0  0  0  0  0  0  0
   14.1420   12.4434    7.9506 H   0  0  0  0  0  0  0  0  0  0  0  0
   12.5852   13.3089    8.1827 H   0  0  0  0  0  0  0  0  0  0  0  0
   11.3989   11.3677    7.2988 H   0  0  0  0  0  0  0  0  0  0  0  0
   12.1524   11.7773    4.9250 H   0  0  0  0  0  0  0  0  0  0  0  0
   13.6571   12.5342    5.5492 H   0  0  0  0  0  0  0  0  0  0  0  0
   12.0653   13.3020    5.8706 H   0  0  0  0  0  0  0  0  0  0  0  0
   13.0389    9.5350    7.7600 H   0  0  0  0  0  0  0  0  0  0  0  0
   14.1822   10.2682    6.5844 H   0  0  0  0  0  0  0  0  0  0  0  0
   12.6075    9.6152    6.0181 H   0  0  0  0  0  0  0  0  0  0  0  0
   15.4717   13.1958   12.4785 H   0  0  0  0  0  0  0  0  0  0  0  0
   17.0561   11.4957   12.7875 H   0  0  0  0  0  0  0  0  0  0  0  0
   18.0812   12.5050   11.7118 H   0  0  0  0  0  0  0  0  0  0  0  0
   17.3991    9.9486   11.1345 H   0  0  0  0  0  0  0  0  0  0  0  0
   17.6746   11.2014    9.8770 H   0  0  0  0  0  0  0  0  0  0  0  0
   15.5565   10.6484    9.2286 H   0  0  0  0  0  0  0  0  0  0  0  0
   15.1307    9.9761   10.8390 H   0  0  0  0  0  0  0  0  0  0  0  0
   16.5507   16.9304   10.4550 H   0  0  0  0  0  0  0  0  0  0  0  0
   19.2347   15.2142    9.7050 O   0  0  0  0  0  0  0  0  0  0  0  0
   17.4820   17.9736   12.2993 H   0  0  0  0  0  0  0  0  0  0  0  0
   19.0917   17.4678   11.6832 H   0  0  0  0  0  0  0  0  0  0  0  0
   18.0906   16.6465   14.0757 H   0  0  0  0  0  0  0  0  0  0  0  0
   19.2001   15.6444   13.0799 H   0  0  0  0  0  0  0  0  0  0  0  0
   17.4303   14.1441   13.2828 H   0  0  0  0  0  0  0  0  0  0  0  0
   16.2026   15.4493   13.4087 H   0  0  0  0  0  0  0  0  0  0  0  0
  1  2  1  0  0  0  0
  1  7  1  0  0  0  0
  1 65  1  0  0  0  0
  1 66  1  0  0  0  0
  2  3  1  0  0  0  0
  2  5  1  0  0  0  0
  2 67  1  1  0  0  0
  3  4  2  0  0  0  0
  3  8  1  0  0  0  0
  5  6  1  0  0  0  0
  5 68  1  0  0  0  0
  5 69  1  0  0  0  0
  6  7  1  0  0  0  0
  6 70  1  0  0  0  0
  6 71  1  0  0  0  0
  7 72  1  0  0  0  0
  7 73  1  0  0  0  0
  8  9  1  0  0  0  0
  8 14  1  0  0  0  0
  9 10  1  0  0  0  0
  9 12  1  0  0  0  0
  9 74  1  1  0  0  0
 10 11  2  0  0  0  0
 10 15  1  0  0  0  0
 12 13  1  0  0  0  0
 12 75  1  0  0  0  0
 12 76  1  0  0  0  0
 13 14  2  0  0  0  0
 13 77  1  0  0  0  0
 14 78  1  0  0  0  0
 15 16  1  0  0  0  0
 15 21  1  0  0  0  0
 16 17  1  0  0  0  0
 16 19  1  0  0  0  0
 16 79  1  6  0  0  0
 17 18  2  0  0  0  0
 17 22  1  0  0  0  0
 19 20  1  0  0  0  0
 19 80  1  0  0  0  0
 19 81  1  0  0  0  0
 20 21  1  0  0  0  0
 20 82  1  0  0  0  0
 20 83  1  0  0  0  0
 21 84  1  0  0  0  0
 21 85  1  0  0  0  0
 22 23  1  0  0  0  0
 22 28  1  0  0  0  0
 23 24  1  0  0  0  0
 23 26  1  0  0  0  0
 23 86  1  1  0  0  0
 24 25  2  0  0  0  0
 24 29  1  0  0  0  0
 26 27  2  0  0  0  0
 26 87  1  0  0  0  0
 27 28  1  0  0  0  0
 27 88  1  0  0  0  0
 28 89  1  0  0  0  0
 28 90  1  0  0  0  0
 29 30  1  0  0  0  0
 29 35  1  0  0  0  0
 30 31  1  0  0  0  0
 30 33  1  0  0  0  0
 30 91  1  1  0  0  0
 31 32  2  0  0  0  0
 31 36  1  0  0  0  0
 33 34  1  0  0  0  0
 33 92  1  0  0  0  0
 33 93  1  0  0  0  0
 34 35  1  0  0  0  0
 34 94  1  0  0  0  0
 34 95  1  0  0  0  0
 35 96  1  0  0  0  0
 35 97  1  0  0  0  0
 36 37  1  0  0  0  0
 36 42  1  0  0  0  0
 37 38  1  0  0  0  0
 37 40  1  0  0  0  0
 37 98  1  6  0  0  0
 38 39  2  0  0  0  0
 38 43  1  0  0  0  0
 40 41  1  0  0  0  0
 40 99  1  0  0  0  0
 40100  1  0  0  0  0
 41 42  1  0  0  0  0
 41101  1  0  0  0  0
 41102  1  0  0  0  0
 42103  1  0  0  0  0
 42104  1  0  0  0  0
 43 44  1  0  0  0  0
 43105  1  0  0  0  0
 44 45  1  0  0  0  0
 44 47  1  0  0  0  0
 44106  1  1  0  0  0
 45 46  2  0  0  0  0
 45 51  1  0  0  0  0
 47 48  1  0  0  0  0
 47107  1  0  0  0  0
 47108  1  0  0  0  0
 48 49  1  0  0  0  0
 48 50  1  0  0  0  0
 48109  1  0  0  0  0
 49110  1  0  0  0  0
 49111  1  0  0  0  0
 49112  1  0  0  0  0
 50113  1  0  0  0  0
 50114  1  0  0  0  0
 50115  1  0  0  0  0
 51 52  1  0  0  0  0
 51 57  1  0  0  0  0
 52 53  1  0  0  0  0
 52 55  1  0  0  0  0
 52116  1  1  0  0  0
 53 54  2  0  0  0  0
 53 58  1  0  0  0  0
 55 56  1  0  0  0  0
 55117  1  0  0  0  0
 55118  1  0  0  0  0
 56 57  1  0  0  0  0
 56119  1  0  0  0  0
 56120  1  0  0  0  0
 57121  1  0  0  0  0
 57122  1  0  0  0  0
 58 59  1  0  0  0  0
 58 64  1  0  0  0  0
 59 60  1  0  0  0  0
 59 62  1  0  0  0  0
 59123  1  6  0  0  0
 60 61  1  0  0  0  0
 60124  2  0  0  0  0
 62 63  1  0  0  0  0
 62125  1  0  0  0  0
 62126  1  0  0  0  0
 63 64  1  0  0  0  0
 63127  1  0  0  0  0
 63128  1  0  0  0  0
 64129  1  0  0  0  0
 64130  1  0  0  0  0
M  CHG  2   1   1  61  -1
M  END
