2of2_ligand
 OpenBabel08222323343D

 58 62  0  0  0  0  0  0  0  0999 V2000
   23.3130   35.2040   82.6920 C   0  0  0  0  0  0  0  0  0  0  0  0
   24.6110   34.9970   82.3530 N   0  0  0  0  0  0  0  0  0  0  0  0
   25.6330   35.8390   82.7690 C   0  0  0  0  0  0  0  0  0  0  0  0
   25.3670   36.9590   83.5920 C   0  0  0  0  0  0  0  0  0  0  0  0
   23.9760   37.2040   83.9840 C   0  0  0  0  0  0  0  0  0  0  0  0
   22.9540   36.2980   83.5210 C   0  0  0  0  0  0  0  0  0  0  0  0
   26.9560   35.7210   82.4870 O   0  0  0  0  0  0  0  0  0  0  0  0
   27.5720   36.7840   83.1180 C   0  0  0  0  0  0  0  0  0  0  0  0
   26.5570   37.6280   83.8630 C   0  0  0  0  0  0  0  0  0  0  0  0
   26.7120   38.8560   84.6820 C   0  0  0  0  0  0  0  0  0  0  0  0
   27.0220   40.1120   84.0560 C   0  0  0  0  0  0  0  0  0  0  0  0
   27.1840   41.2830   84.8650 C   0  0  0  0  0  0  0  0  0  0  0  0
   27.0370   41.1890   86.2990 C   0  0  0  0  0  0  0  0  0  0  0  0
   26.7220   39.9280   86.9320 C   0  0  0  0  0  0  0  0  0  0  0  0
   26.5620   38.7590   86.1200 C   0  0  0  0  0  0  0  0  0  0  0  0
   29.0530   36.9920   83.0270 C   0  0  0  0  0  0  0  0  0  0  0  0
   29.7860   36.2420   82.0450 C   0  0  0  0  0  0  0  0  0  0  0  0
   31.2050   36.4270   81.9230 C   0  0  0  0  0  0  0  0  0  0  0  0
   31.8890   37.3710   82.7800 C   0  0  0  0  0  0  0  0  0  0  0  0
   31.1680   38.1210   83.7630 C   0  0  0  0  0  0  0  0  0  0  0  0
   29.7640   37.9300   83.8800 C   0  0  0  0  0  0  0  0  0  0  0  0
   23.6700   38.2800   84.7910 N   0  0  0  0  0  0  0  0  0  0  0  0
   22.3130   38.5930   85.2200 C   0  0  0  0  0  0  0  0  0  0  0  0
   22.2460   39.8340   86.1150 C   0  0  0  0  0  0  0  0  0  0  0  0
   23.0260   41.0020   85.6340 N   0  3  0  0  0  0  0  0  0  0  0  0
   23.2340   41.8710   86.8240 C   0  0  0  0  0  0  0  0  0  0  0  0
   24.0340   43.1270   86.4310 C   0  0  0  0  0  0  0  0  0  0  0  0
   23.3110   43.8450   85.3400 N   0  3  0  0  0  0  0  0  0  0  0  0
   23.0980   42.9700   84.1440 C   0  0  0  0  0  0  0  0  0  0  0  0
   22.2740   41.7390   84.5800 C   0  0  0  0  0  0  0  0  0  0  0  0
   22.5465   34.5298   82.3273 H   0  0  0  0  0  0  0  0  0  0  0  0
   21.9190   36.4517   83.8043 H   0  0  0  0  0  0  0  0  0  0  0  0
   27.1324   40.1728   82.9793 H   0  0  0  0  0  0  0  0  0  0  0  0
   27.4160   42.2358   84.4030 H   0  0  0  0  0  0  0  0  0  0  0  0
   27.1646   42.0761   86.9088 H   0  0  0  0  0  0  0  0  0  0  0  0
   26.6083   39.8679   88.0083 H   0  0  0  0  0  0  0  0  0  0  0  0
   26.3295   37.8051   86.5795 H   0  0  0  0  0  0  0  0  0  0  0  0
   29.2707   35.5401   81.3994 H   0  0  0  0  0  0  0  0  0  0  0  0
   31.7640   35.8589   81.1883 H   0  0  0  0  0  0  0  0  0  0  0  0
   32.9588   37.5117   82.6765 H   0  0  0  0  0  0  0  0  0  0  0  0
   31.6840   38.8232   84.4078 H   0  0  0  0  0  0  0  0  0  0  0  0
   29.2118   38.4961   84.6214 H   0  0  0  0  0  0  0  0  0  0  0  0
   24.4371   38.8913   85.1053 H   0  0  0  0  0  0  0  0  0  0  0  0
   21.9141   37.7340   85.7795 H   0  0  0  0  0  0  0  0  0  0  0  0
   21.6939   38.7690   84.3279 H   0  0  0  0  0  0  0  0  0  0  0  0
   22.6257   39.5574   87.1096 H   0  0  0  0  0  0  0  0  0  0  0  0
   21.1922   40.1386   86.1964 H   0  0  0  0  0  0  0  0  0  0  0  0
   23.9128   40.6998   85.2621 H   0  0  0  0  0  0  0  0  0  0  0  0
   23.7899   41.3110   87.5904 H   0  0  0  0  0  0  0  0  0  0  0  0
   22.2568   42.1741   87.2280 H   0  0  0  0  0  0  0  0  0  0  0  0
   25.0333   42.8319   86.0785 H   0  0  0  0  0  0  0  0  0  0  0  0
   24.1337   43.7885   87.3042 H   0  0  0  0  0  0  0  0  0  0  0  0
   23.8527   44.6489   85.0637 H   0  0  0  0  0  0  0  0  0  0  0  0
   22.4141   44.1472   85.6869 H   0  0  0  0  0  0  0  0  0  0  0  0
   24.0697   42.6439   83.7447 H   0  0  0  0  0  0  0  0  0  0  0  0
   22.5513   43.5271   83.3689 H   0  0  0  0  0  0  0  0  0  0  0  0
   21.3036   42.0676   84.9805 H   0  0  0  0  0  0  0  0  0  0  0  0
   22.1095   41.0799   83.7149 H   0  0  0  0  0  0  0  0  0  0  0  0
  1  2  2  0  0  0  0
  1  6  1  0  0  0  0
  1 31  1  0  0  0  0
  2  3  1  0  0  0  0
  3  4  2  0  0  0  0
  3  7  1  0  0  0  0
  4  5  1  0  0  0  0
  4  9  1  0  0  0  0
  5  6  2  0  0  0  0
  5 22  1  0  0  0  0
  6 32  1  0  0  0  0
  7  8  1  0  0  0  0
  8  9  2  0  0  0  0
  8 16  1  0  0  0  0
  9 10  1  0  0  0  0
 10 11  2  0  0  0  0
 10 15  1  0  0  0  0
 11 12  1  0  0  0  0
 11 33  1  0  0  0  0
 12 13  2  0  0  0  0
 12 34  1  0  0  0  0
 13 14  1  0  0  0  0
 13 35  1  0  0  0  0
 14 15  2  0  0  0  0
 14 36  1  0  0  0  0
 15 37  1  0  0  0  0
 16 17  2  0  0  0  0
 16 21  1  0  0  0  0
 17 18  1  0  0  0  0
 17 38  1  0  0  0  0
 18 19  2  0  0  0  0
 18 39  1  0  0  0  0
 19 20  1  0  0  0  0
 19 40  1  0  0  0  0
 20 21  2  0  0  0  0
 20 41  1  0  0  0  0
 21 42  1  0  0  0  0
 22 23  1  0  0  0  0
 22 43  1  0  0  0  0
 23 24  1  0  0  0  0
 23 44  1  0  0  0  0
 23 45  1  0  0  0  0
 24 25  1  0  0  0  0
 24 46  1  0  0  0  0
 24 47  1  0  0  0  0
 25 26  1  0  0  0  0
 25 30  1  0  0  0  0
 25 48  1  0  0  0  0
 26 27  1  0  0  0  0
 26 49  1  0  0  0  0
 26 50  1  0  0  0  0
 27 28  1  0  0  0  0
 27 51  1  0  0  0  0
 27 52  1  0  0  0  0
 28 29  1  0  0  0  0
 28 53  1  0  0  0  0
 28 54  1  0  0  0  0
 29 30  1  0  0  0  0
 29 55  1  0  0  0  0
 29 56  1  0  0  0  0
 30 57  1  0  0  0  0
 30 58  1  0  0  0  0
M  CHG  2  25   1  28   1
M  END
