2of4_ligand
 OpenBabel08222323343D

 57 61  0  0  0  0  0  0  0  0999 V2000
   23.7940   35.5150   82.2490 C   0  0  0  0  0  0  0  0  0  0  0  0
   25.0750   35.3570   81.9170 N   0  0  0  0  0  0  0  0  0  0  0  0
   26.0620   36.1730   82.4300 C   0  0  0  0  0  0  0  0  0  0  0  0
   25.7800   37.1810   83.3690 C   0  0  0  0  0  0  0  0  0  0  0  0
   24.3740   37.2860   83.7100 C   0  0  0  0  0  0  0  0  0  0  0  0
   23.4700   36.4580   83.1500 N   0  0  0  0  0  0  0  0  0  0  0  0
   27.3950   36.1010   82.1700 O   0  0  0  0  0  0  0  0  0  0  0  0
   27.9960   37.0940   82.9060 C   0  0  0  0  0  0  0  0  0  0  0  0
   26.9600   37.8360   83.7520 C   0  0  0  0  0  0  0  0  0  0  0  0
   23.8520   38.1850   84.5990 N   0  0  0  0  0  0  0  0  0  0  0  0
   23.4060   39.4830   84.1250 C   0  0  0  0  0  0  0  0  0  0  0  0
   23.2350   40.4470   85.3080 C   0  0  0  0  0  0  0  0  0  0  0  0
   22.8660   41.8560   84.9380 N   0  3  0  0  0  0  0  0  0  0  0  0
   27.1280   38.9960   84.7050 C   0  0  0  0  0  0  0  0  0  0  0  0
   27.7660   40.2210   84.2560 C   0  0  0  0  0  0  0  0  0  0  0  0
   27.9840   41.2870   85.1840 C   0  0  0  0  0  0  0  0  0  0  0  0
   27.5780   41.1180   86.5610 C   0  0  0  0  0  0  0  0  0  0  0  0
   26.9280   39.9080   87.0130 C   0  0  0  0  0  0  0  0  0  0  0  0
   26.7200   38.8460   86.0890 C   0  0  0  0  0  0  0  0  0  0  0  0
   29.4860   37.2940   82.8560 C   0  0  0  0  0  0  0  0  0  0  0  0
   30.2230   36.7880   81.7100 C   0  0  0  0  0  0  0  0  0  0  0  0
   31.6410   36.9820   81.6450 C   0  0  0  0  0  0  0  0  0  0  0  0
   32.3250   37.6860   82.7180 C   0  0  0  0  0  0  0  0  0  0  0  0
   31.6160   38.1900   83.8500 C   0  0  0  0  0  0  0  0  0  0  0  0
   30.2030   37.9940   83.9120 C   0  0  0  0  0  0  0  0  0  0  0  0
   22.7350   42.7020   86.1910 C   0  0  0  0  0  0  0  0  0  0  0  0
   23.8310   42.4720   83.9170 C   0  0  0  0  0  0  0  0  0  0  0  0
   24.1650   43.0430   86.7980 C   0  0  0  0  0  0  0  0  0  0  0  0
   25.1600   43.0400   84.5150 C   0  0  0  0  0  0  0  0  0  0  0  0
   25.0110   43.7710   85.8140 N   0  3  0  0  0  0  0  0  0  0  0  0
   23.0271   34.8940   81.8003 H   0  0  0  0  0  0  0  0  0  0  0  0
   23.7759   37.9430   85.5973 H   0  0  0  0  0  0  0  0  0  0  0  0
   22.4427   39.3695   83.6062 H   0  0  0  0  0  0  0  0  0  0  0  0
   24.1522   39.8917   83.4277 H   0  0  0  0  0  0  0  0  0  0  0  0
   24.1852   40.4784   85.8613 H   0  0  0  0  0  0  0  0  0  0  0  0
   22.4439   40.0483   85.9601 H   0  0  0  0  0  0  0  0  0  0  0  0
   21.9587   41.8236   84.5000 H   0  0  0  0  0  0  0  0  0  0  0  0
   28.0754   40.3268   83.2225 H   0  0  0  0  0  0  0  0  0  0  0  0
   28.4483   42.2109   84.8586 H   0  0  0  0  0  0  0  0  0  0  0  0
   27.7649   41.9160   87.2705 H   0  0  0  0  0  0  0  0  0  0  0  0
   26.6033   39.8112   88.0427 H   0  0  0  0  0  0  0  0  0  0  0  0
   26.2561   37.9238   86.4197 H   0  0  0  0  0  0  0  0  0  0  0  0
   29.7047   36.2687   80.9120 H   0  0  0  0  0  0  0  0  0  0  0  0
   32.2027   36.6049   80.7980 H   0  0  0  0  0  0  0  0  0  0  0  0
   33.3975   37.8314   82.6569 H   0  0  0  0  0  0  0  0  0  0  0  0
   32.1387   38.7099   84.6447 H   0  0  0  0  0  0  0  0  0  0  0  0
   29.6520   38.3749   84.7643 H   0  0  0  0  0  0  0  0  0  0  0  0
   22.1488   42.1487   86.9394 H   0  0  0  0  0  0  0  0  0  0  0  0
   22.2175   43.6396   85.9400 H   0  0  0  0  0  0  0  0  0  0  0  0
   23.3080   43.2949   83.4079 H   0  0  0  0  0  0  0  0  0  0  0  0
   24.0926   41.6947   83.1840 H   0  0  0  0  0  0  0  0  0  0  0  0
   24.6679   42.1058   87.0785 H   0  0  0  0  0  0  0  0  0  0  0  0
   24.0344   43.6708   87.6917 H   0  0  0  0  0  0  0  0  0  0  0  0
   25.5944   43.7346   83.7810 H   0  0  0  0  0  0  0  0  0  0  0  0
   25.8490   42.1976   84.6752 H   0  0  0  0  0  0  0  0  0  0  0  0
   25.9265   43.9043   86.2142 H   0  0  0  0  0  0  0  0  0  0  0  0
   24.5904   44.6685   85.6309 H   0  0  0  0  0  0  0  0  0  0  0  0
  1  2  2  0  0  0  0
  1  6  1  0  0  0  0
  1 31  1  0  0  0  0
  2  3  1  0  0  0  0
  3  4  2  0  0  0  0
  3  7  1  0  0  0  0
  4  5  1  0  0  0  0
  4  9  1  0  0  0  0
  5  6  2  0  0  0  0
  5 10  1  0  0  0  0
  7  8  1  0  0  0  0
  8  9  2  0  0  0  0
  8 20  1  0  0  0  0
  9 14  1  0  0  0  0
 10 11  1  0  0  0  0
 10 32  1  0  0  0  0
 11 12  1  0  0  0  0
 11 33  1  0  0  0  0
 11 34  1  0  0  0  0
 12 13  1  0  0  0  0
 12 35  1  0  0  0  0
 12 36  1  0  0  0  0
 13 26  1  0  0  0  0
 13 27  1  0  0  0  0
 13 37  1  0  0  0  0
 14 15  2  0  0  0  0
 14 19  1  0  0  0  0
 15 16  1  0  0  0  0
 15 38  1  0  0  0  0
 16 17  2  0  0  0  0
 16 39  1  0  0  0  0
 17 18  1  0  0  0  0
 17 40  1  0  0  0  0
 18 19  2  0  0  0  0
 18 41  1  0  0  0  0
 19 42  1  0  0  0  0
 20 21  2  0  0  0  0
 20 25  1  0  0  0  0
 21 22  1  0  0  0  0
 21 43  1  0  0  0  0
 22 23  2  0  0  0  0
 22 44  1  0  0  0  0
 23 24  1  0  0  0  0
 23 45  1  0  0  0  0
 24 25  2  0  0  0  0
 24 46  1  0  0  0  0
 25 47  1  0  0  0  0
 26 28  1  0  0  0  0
 26 48  1  0  0  0  0
 26 49  1  0  0  0  0
 27 29  1  0  0  0  0
 27 50  1  0  0  0  0
 27 51  1  0  0  0  0
 28 30  1  0  0  0  0
 28 52  1  0  0  0  0
 28 53  1  0  0  0  0
 29 30  1  0  0  0  0
 29 54  1  0  0  0  0
 29 55  1  0  0  0  0
 30 56  1  0  0  0  0
 30 57  1  0  0  0  0
M  CHG  2  13   1  30   1
M  END
