2ofu_ligand
 OpenBabel08222323343D

 98102  0  0  1  0  0  0  0  0999 V2000
   25.7160   35.8400   82.7480 C   0  0  0  0  0  0  0  0  0  0  0  0
   25.2120   36.6900   83.6600 N   0  0  0  0  0  0  0  0  0  0  0  0
   23.9300   36.6070   84.0410 C   0  0  0  0  0  0  0  0  0  0  0  0
   23.0440   35.6180   83.4800 C   0  0  0  0  0  0  0  0  0  0  0  0
   23.6170   34.7700   82.5330 C   0  0  0  0  0  0  0  0  0  0  0  0
   24.9150   34.9180   82.2070 N   0  0  0  0  0  0  0  0  0  0  0  0
   27.0310   35.8420   82.3570 N   0  0  0  0  0  0  0  0  0  0  0  0
   28.0490   36.6660   82.7980 C   0  0  0  0  0  0  0  0  0  0  0  0
   23.5510   37.5640   85.0020 N   0  0  0  0  0  0  0  0  0  0  0  0
   24.4230   38.4760   85.6320 C   0  0  0  0  0  0  0  0  0  0  0  0
   24.1910   39.8960   85.4080 C   0  0  0  0  0  0  0  0  0  0  0  0
   22.2100   37.5920   85.3050 C   0  0  0  0  0  0  0  0  0  0  0  0
   25.4920   37.9750   86.5020 C   0  0  0  0  0  0  0  0  0  0  0  0
   26.3320   38.9130   87.1600 C   0  0  0  0  0  0  0  0  0  0  0  0
   26.0960   40.3120   86.9320 C   0  0  0  0  0  0  0  0  0  0  0  0
   25.0420   40.8400   86.0750 C   0  0  0  0  0  0  0  0  0  0  0  0
   27.9010   38.0190   83.3090 C   0  0  0  0  0  0  0  0  0  0  0  0
   29.0340   38.7810   83.6960 C   0  0  0  0  0  0  0  0  0  0  0  0
   30.3210   38.1580   83.5530 C   0  0  0  0  0  0  0  0  0  0  0  0
   30.4780   36.8190   83.0550 C   0  0  0  0  0  0  0  0  0  0  0  0
   29.3180   36.0680   82.6740 C   0  0  0  0  0  0  0  0  0  0  0  0
   22.0250   37.9480   86.7470 O   0  0  0  0  0  0  0  0  0  0  0  0
   20.5850   37.8270   87.2100 C   0  0  0  0  0  0  0  0  0  0  0  0
   20.0870   36.5390   87.5210 C   0  0  0  0  0  0  0  0  0  0  0  0
   18.7110   36.4440   87.9640 C   0  0  0  0  0  0  0  0  0  0  0  0
   17.9670   37.6600   88.0410 C   0  0  0  0  0  0  0  0  0  0  0  0
   18.5010   38.9510   87.7120 C   0  0  0  0  0  0  0  0  0  0  0  0
   19.8790   39.0370   87.2720 C   0  0  0  0  0  0  0  0  0  0  0  0
   20.5330   40.3200   86.8850 C   0  0  0  0  0  0  0  0  0  0  0  0
   20.9280   35.3250   87.3600 C   0  0  0  0  0  0  0  0  0  0  0  0
   31.7910   36.3210   82.9910 O   0  0  0  0  0  0  0  0  0  0  0  0
   32.0590   35.0050   82.4880 C   0  0  0  0  0  0  0  0  0  0  0  0
   21.2780   37.4040   84.6490 O   0  0  0  0  0  0  0  0  0  0  0  0
   27.0280   41.1480   87.5650 O   0  0  0  0  0  0  0  0  0  0  0  0
   23.1300   40.2520   84.5170 O   0  0  0  0  0  0  0  0  0  0  0  0
   22.6970   41.6340   84.4480 C   0  0  0  0  0  0  0  0  0  0  0  0
   26.5830   42.3600   88.1680 C   0  0  0  0  0  0  0  0  0  0  0  0
   31.4390   38.9290   83.8970 O   0  0  0  0  0  0  0  0  0  0  0  0
   31.6960   38.8700   85.2980 C   0  0  0  0  0  0  0  0  0  0  0  0
   33.0160   39.5090   85.5580 C   0  0  0  0  0  0  0  0  0  0  0  0
   33.0630   40.9280   84.9840 C   0  0  0  0  0  0  0  0  0  0  0  0
   28.9330   40.0920   84.2320 O   0  0  0  0  0  0  0  0  0  0  0  0
   27.8930   41.0230   83.8580 C   0  0  0  0  0  0  0  0  0  0  0  0
   36.2520   41.9690   86.9110 C   0  0  0  0  0  0  0  0  0  0  0  0
   36.5290   43.1780   86.0540 N   0  3  2  0  0  0  0  0  0  0  0  0
   35.2920   43.9500   85.6730 C   0  0  0  0  0  0  0  0  0  0  0  0
   34.2800   43.0040   84.9190 C   0  0  0  0  0  0  0  0  0  0  0  0
   33.9770   41.7970   85.7540 N   0  3  2  0  0  0  0  0  0  0  0  0
   35.2490   41.0780   86.1080 C   0  0  0  0  0  0  0  0  0  0  0  0
   37.2360   42.7970   84.7960 C   0  0  0  0  0  0  0  0  0  0  0  0
   22.0037   35.5389   83.7741 H   0  0  0  0  0  0  0  0  0  0  0  0
   23.0212   33.9964   82.0622 H   0  0  0  0  0  0  0  0  0  0  0  0
   27.2918   35.1429   81.6470 H   0  0  0  0  0  0  0  0  0  0  0  0
   25.6384   36.9099   86.6403 H   0  0  0  0  0  0  0  0  0  0  0  0
   27.1291   38.5824   87.8161 H   0  0  0  0  0  0  0  0  0  0  0  0
   24.9056   41.9076   85.9459 H   0  0  0  0  0  0  0  0  0  0  0  0
   26.9110   38.4520   83.3957 H   0  0  0  0  0  0  0  0  0  0  0  0
   29.4159   35.0565   82.2967 H   0  0  0  0  0  0  0  0  0  0  0  0
   18.2656   35.4910   88.2257 H   0  0  0  0  0  0  0  0  0  0  0  0
   16.9350   37.6049   88.3682 H   0  0  0  0  0  0  0  0  0  0  0  0
   17.8876   39.8413   87.7909 H   0  0  0  0  0  0  0  0  0  0  0  0
   21.5747   40.1260   86.5895 H   0  0  0  0  0  0  0  0  0  0  0  0
   20.5172   41.0121   87.7398 H   0  0  0  0  0  0  0  0  0  0  0  0
   19.9897   40.7683   86.0401 H   0  0  0  0  0  0  0  0  0  0  0  0
   21.9317   35.6171   87.0176 H   0  0  0  0  0  0  0  0  0  0  0  0
   20.4678   34.6559   86.6180 H   0  0  0  0  0  0  0  0  0  0  0  0
   21.0073   34.8032   88.3251 H   0  0  0  0  0  0  0  0  0  0  0  0
   33.1414   34.8124   82.5232 H   0  0  0  0  0  0  0  0  0  0  0  0
   31.7071   34.9311   81.4485 H   0  0  0  0  0  0  0  0  0  0  0  0
   31.5342   34.2621   83.1066 H   0  0  0  0  0  0  0  0  0  0  0  0
   21.8794   41.7260   83.7179 H   0  0  0  0  0  0  0  0  0  0  0  0
   23.5404   42.2674   84.1357 H   0  0  0  0  0  0  0  0  0  0  0  0
   22.3427   41.9571   85.4380 H   0  0  0  0  0  0  0  0  0  0  0  0
   27.4412   42.8847   88.6132 H   0  0  0  0  0  0  0  0  0  0  0  0
   25.8466   42.1306   88.9522 H   0  0  0  0  0  0  0  0  0  0  0  0
   26.1178   43.0004   87.4041 H   0  0  0  0  0  0  0  0  0  0  0  0
   31.7190   37.8210   85.6282 H   0  0  0  0  0  0  0  0  0  0  0  0
   30.9078   39.4091   85.8439 H   0  0  0  0  0  0  0  0  0  0  0  0
   33.8065   38.9050   85.0885 H   0  0  0  0  0  0  0  0  0  0  0  0
   33.1856   39.5548   86.6439 H   0  0  0  0  0  0  0  0  0  0  0  0
   32.0513   41.3588   85.0140 H   0  0  0  0  0  0  0  0  0  0  0  0
   33.4103   40.8799   83.9414 H   0  0  0  0  0  0  0  0  0  0  0  0
   28.0303   41.9661   84.4072 H   0  0  0  0  0  0  0  0  0  0  0  0
   26.9107   40.5943   84.1055 H   0  0  0  0  0  0  0  0  0  0  0  0
   27.9464   41.2174   82.7766 H   0  0  0  0  0  0  0  0  0  0  0  0
   35.8057   42.2757   87.8685 H   0  0  0  0  0  0  0  0  0  0  0  0
   37.1837   41.4161   87.1011 H   0  0  0  0  0  0  0  0  0  0  0  0
   37.1277   43.7914   86.5844 H   0  0  0  0  0  0  0  0  0  0  0  0
   35.5716   44.7847   85.0134 H   0  0  0  0  0  0  0  0  0  0  0  0
   34.8142   44.3449   86.5817 H   0  0  0  0  0  0  0  0  0  0  0  0
   34.7245   42.6833   83.9653 H   0  0  0  0  0  0  0  0  0  0  0  0
   33.3473   43.5530   84.7226 H   0  0  0  0  0  0  0  0  0  0  0  0
   33.5207   42.0849   86.6054 H   0  0  0  0  0  0  0  0  0  0  0  0
   34.9961   40.1982   86.7178 H   0  0  0  0  0  0  0  0  0  0  0  0
   35.7373   40.7515   85.1780 H   0  0  0  0  0  0  0  0  0  0  0  0
   38.1458   42.2305   85.0439 H   0  0  0  0  0  0  0  0  0  0  0  0
   37.5100   43.7056   84.2398 H   0  0  0  0  0  0  0  0  0  0  0  0
   36.5734   42.1740   84.1772 H   0  0  0  0  0  0  0  0  0  0  0  0
  1  2  2  0  0  0  0
  1  6  1  0  0  0  0
  2  3  1  0  0  0  0
  3  4  2  0  0  0  0
  3  9  1  0  0  0  0
  4 51  1  0  0  0  0
  5  4  1  0  0  0  0
  5 52  1  0  0  0  0
  6  5  2  0  0  0  0
  7  1  1  0  0  0  0
  7 53  1  0  0  0  0
  8  7  1  0  0  0  0
  9 10  1  0  0  0  0
  9 12  1  0  0  0  0
 10 11  2  0  0  0  0
 10 13  1  0  0  0  0
 11 16  1  0  0  0  0
 11 35  1  0  0  0  0
 12 22  1  0  0  0  0
 12 33  2  0  0  0  0
 13 14  2  0  0  0  0
 13 54  1  0  0  0  0
 14 15  1  0  0  0  0
 14 55  1  0  0  0  0
 15 34  1  0  0  0  0
 16 15  2  0  0  0  0
 16 56  1  0  0  0  0
 17  8  2  0  0  0  0
 17 57  1  0  0  0  0
 18 17  1  0  0  0  0
 18 42  1  0  0  0  0
 19 18  2  0  0  0  0
 19 20  1  0  0  0  0
 20 21  2  0  0  0  0
 20 31  1  0  0  0  0
 21  8  1  0  0  0  0
 21 58  1  0  0  0  0
 22 23  1  0  0  0  0
 23 24  2  0  0  0  0
 23 28  1  0  0  0  0
 24 25  1  0  0  0  0
 24 30  1  0  0  0  0
 25 26  2  0  0  0  0
 25 59  1  0  0  0  0
 26 60  1  0  0  0  0
 27 26  1  0  0  0  0
 27 61  1  0  0  0  0
 28 27  2  0  0  0  0
 28 29  1  0  0  0  0
 29 62  1  0  0  0  0
 29 63  1  0  0  0  0
 29 64  1  0  0  0  0
 30 65  1  0  0  0  0
 30 66  1  0  0  0  0
 30 67  1  0  0  0  0
 31 32  1  0  0  0  0
 32 68  1  0  0  0  0
 32 69  1  0  0  0  0
 32 70  1  0  0  0  0
 34 37  1  0  0  0  0
 35 36  1  0  0  0  0
 36 71  1  0  0  0  0
 36 72  1  0  0  0  0
 36 73  1  0  0  0  0
 37 74  1  0  0  0  0
 37 75  1  0  0  0  0
 37 76  1  0  0  0  0
 38 19  1  0  0  0  0
 39 38  1  0  0  0  0
 39 77  1  0  0  0  0
 39 78  1  0  0  0  0
 40 39  1  0  0  0  0
 40 79  1  0  0  0  0
 40 80  1  0  0  0  0
 41 40  1  0  0  0  0
 41 81  1  0  0  0  0
 41 82  1  0  0  0  0
 42 43  1  0  0  0  0
 43 83  1  0  0  0  0
 43 84  1  0  0  0  0
 43 85  1  0  0  0  0
 44 49  1  0  0  0  0
 44 86  1  0  0  0  0
 44 87  1  0  0  0  0
 45 44  1  0  0  0  0
 45 50  1  0  0  0  0
 45 88  1  1  0  0  0
 46 45  1  0  0  0  0
 46 89  1  0  0  0  0
 46 90  1  0  0  0  0
 47 46  1  0  0  0  0
 47 48  1  0  0  0  0
 47 91  1  0  0  0  0
 47 92  1  0  0  0  0
 48 41  1  0  0  0  0
 48 49  1  0  0  0  0
 48 93  1  1  0  0  0
 49 94  1  0  0  0  0
 49 95  1  0  0  0  0
 50 96  1  0  0  0  0
 50 97  1  0  0  0  0
 50 98  1  0  0  0  0
M  CHG  2  45   1  48   1
M  END
