2ogz_ligand
 OpenBabel08222323343D

 46 47  0  0  1  0  0  0  0  0999 V2000
   34.2130   52.6560   94.4520 C   0  0  0  0  0  0  0  0  0  0  0  0
   34.1970   53.5420   95.5800 C   0  0  0  0  0  0  0  0  0  0  0  0
   35.4170   54.1410   96.0020 C   0  0  0  0  0  0  0  0  0  0  0  0
   36.6450   53.8670   95.3240 C   0  0  0  0  0  0  0  0  0  0  0  0
   36.6460   52.9900   94.2130 C   0  0  0  0  0  0  0  0  0  0  0  0
   35.4460   52.3890   93.7790 C   0  0  0  0  0  0  0  0  0  0  0  0
   37.9420   54.4870   95.7580 C   0  0  0  0  0  0  0  0  0  0  0  0
   37.8530   55.9950   95.9480 C   0  0  0  0  0  0  0  0  0  0  0  0
   37.8050   56.8150   94.6430 C   0  0  1  0  0  0  0  0  0  0  0  0
   38.4450   58.1650   94.9440 C   0  0  0  0  0  0  0  0  0  0  0  0
   38.5370   56.1390   93.5360 N   0  3  0  0  0  0  0  0  0  0  0  0
   38.1230   56.5430   92.1780 C   0  0  0  0  0  0  0  0  0  0  0  0
   36.7270   56.0100   91.7850 C   0  0  0  0  0  0  0  0  0  0  0  0
   35.6870   56.5530   92.1200 O   0  0  0  0  0  0  0  0  0  0  0  0
   36.5970   54.7540   90.9250 C   0  0  0  0  0  0  0  0  0  0  0  0
   37.5710   53.6990   90.9160 C   0  0  0  0  0  0  0  0  0  0  0  0
   37.3870   52.5590   90.0940 C   0  0  0  0  0  0  0  0  0  0  0  0
   36.2390   52.4710   89.2750 C   0  0  0  0  0  0  0  0  0  0  0  0
   36.0780   51.4110   88.5040 F   0  0  0  0  0  0  0  0  0  0  0  0
   35.2610   53.4920   89.2640 C   0  0  0  0  0  0  0  0  0  0  0  0
   35.4420   54.6290   90.0850 C   0  0  0  0  0  0  0  0  0  0  0  0
   33.0140   51.9660   93.9350 C   0  0  0  0  0  0  0  0  0  0  0  0
   31.7430   52.1500   94.5410 N   0  0  0  0  0  0  0  0  0  0  0  0
   33.0390   51.2110   92.9880 O   0  0  0  0  0  0  0  0  0  0  0  0
   33.2707   53.7519   96.1025 H   0  0  0  0  0  0  0  0  0  0  0  0
   35.4149   54.8154   96.8507 H   0  0  0  0  0  0  0  0  0  0  0  0
   37.5736   52.7792   93.6931 H   0  0  0  0  0  0  0  0  0  0  0  0
   35.4587   51.7185   92.9273 H   0  0  0  0  0  0  0  0  0  0  0  0
   38.7036   54.2756   94.9930 H   0  0  0  0  0  0  0  0  0  0  0  0
   38.2448   54.0319   96.7125 H   0  0  0  0  0  0  0  0  0  0  0  0
   38.7334   56.3191   96.5223 H   0  0  0  0  0  0  0  0  0  0  0  0
   36.9403   56.2133   96.5218 H   0  0  0  0  0  0  0  0  0  0  0  0
   36.7575   56.9587   94.3396 H   0  0  0  0  0  0  0  0  0  0  0  0
   38.4328   58.7869   94.0368 H   0  0  0  0  0  0  0  0  0  0  0  0
   39.4844   58.0134   95.2707 H   0  0  0  0  0  0  0  0  0  0  0  0
   37.8797   58.6691   95.7417 H   0  0  0  0  0  0  0  0  0  0  0  0
   38.3910   55.1456   93.6251 H   0  0  0  0  0  0  0  0  0  0  0  0
   39.5184   56.3449   93.6382 H   0  0  0  0  0  0  0  0  0  0  0  0
   38.8600   56.1574   91.4583 H   0  0  0  0  0  0  0  0  0  0  0  0
   38.1041   57.6418   92.1303 H   0  0  0  0  0  0  0  0  0  0  0  0
   38.4528   53.7749   91.5419 H   0  0  0  0  0  0  0  0  0  0  0  0
   38.1210   51.7613   90.0937 H   0  0  0  0  0  0  0  0  0  0  0  0
   34.3833   53.4043   88.6340 H   0  0  0  0  0  0  0  0  0  0  0  0
   34.6974   55.4167   90.0791 H   0  0  0  0  0  0  0  0  0  0  0  0
   30.9421   51.6744   94.1772 H   0  0  0  0  0  0  0  0  0  0  0  0
   31.6489   52.7551   95.3316 H   0  0  0  0  0  0  0  0  0  0  0  0
  1  2  2  0  0  0  0
  1  6  1  0  0  0  0
  1 22  1  0  0  0  0
  2  3  1  0  0  0  0
  2 25  1  0  0  0  0
  3  4  2  0  0  0  0
  3 26  1  0  0  0  0
  4  5  1  0  0  0  0
  4  7  1  0  0  0  0
  5  6  2  0  0  0  0
  5 27  1  0  0  0  0
  6 28  1  0  0  0  0
  7  8  1  0  0  0  0
  7 29  1  0  0  0  0
  7 30  1  0  0  0  0
  8  9  1  0  0  0  0
  8 31  1  0  0  0  0
  8 32  1  0  0  0  0
  9 10  1  0  0  0  0
  9 11  1  0  0  0  0
  9 33  1  6  0  0  0
 10 34  1  0  0  0  0
 10 35  1  0  0  0  0
 10 36  1  0  0  0  0
 11 12  1  0  0  0  0
 11 37  1  0  0  0  0
 11 38  1  0  0  0  0
 12 13  1  0  0  0  0
 12 39  1  0  0  0  0
 12 40  1  0  0  0  0
 13 14  2  0  0  0  0
 13 15  1  0  0  0  0
 15 16  2  0  0  0  0
 15 21  1  0  0  0  0
 16 17  1  0  0  0  0
 16 41  1  0  0  0  0
 17 18  2  0  0  0  0
 17 42  1  0  0  0  0
 18 19  1  0  0  0  0
 18 20  1  0  0  0  0
 20 21  2  0  0  0  0
 20 43  1  0  0  0  0
 21 44  1  0  0  0  0
 22 23  1  0  0  0  0
 22 24  2  0  0  0  0
 23 45  1  0  0  0  0
 23 46  1  0  0  0  0
M  CHG  1  11   1
M  END
