2oh0_ligand
 OpenBabel08222323343D

 51 55  0  0  1  0  0  0  0  0999 V2000
    3.3250   10.2010    4.8580 N   0  0  0  0  0  0  0  0  0  0  0  0
    9.5060   10.5300   -0.9050 N   0  0  0  0  0  0  0  0  0  0  0  0
    4.0270   10.0650    2.7230 C   0  0  0  0  0  0  0  0  0  0  0  0
    4.2100    9.9710    1.3510 C   0  0  0  0  0  0  0  0  0  0  0  0
    5.5260    9.9600    0.8100 C   0  0  0  0  0  0  0  0  0  0  0  0
    4.6670   10.2380    4.9680 C   0  0  0  0  0  0  0  0  0  0  0  0
   13.4490   13.5440    0.2790 C   0  0  0  0  0  0  0  0  0  0  0  0
   14.1020   11.0450    1.4890 C   0  0  0  0  0  0  0  0  0  0  0  0
   12.8190   13.1790    1.5080 C   0  0  0  0  0  0  0  0  0  0  0  0
   14.6510    9.7490    1.8010 C   0  0  0  0  0  0  0  0  0  0  0  0
    8.0730   10.0080    1.0060 C   0  0  0  0  0  0  0  0  0  0  0  0
    9.1970    9.4240    1.6440 C   0  0  0  0  0  0  0  0  0  0  0  0
   10.4730    9.3980    0.9970 C   0  0  0  0  0  0  0  0  0  0  0  0
   11.8040    8.2200    2.7230 C   0  0  0  0  0  0  0  0  0  0  0  0
    6.6950   10.0440    1.6390 C   0  0  0  0  0  0  0  0  0  0  0  0
    6.4860   10.1420    3.0590 C   0  0  0  0  0  0  0  0  0  0  0  0
    5.1800   10.1540    3.6060 C   0  0  0  0  0  0  0  0  0  0  0  0
    2.9580   10.1020    3.5760 N   0  0  0  0  0  0  0  0  0  0  0  0
   14.4000   12.6690   -0.3400 C   0  0  0  0  0  0  0  0  0  0  0  0
   14.7040   11.4490    0.2720 C   0  0  0  0  0  0  0  0  0  0  0  0
   13.1290   11.9370    2.1310 C   0  0  0  0  0  0  0  0  0  0  0  0
   15.5800   10.4480   -0.1330 N   0  0  0  0  0  0  0  0  0  0  0  0
   15.5430    9.4320    0.7880 C   0  0  0  0  0  0  0  0  0  0  0  0
   10.5650    9.9710   -0.2860 C   0  0  0  0  0  0  0  0  0  0  0  0
    8.2920   10.5480   -0.2800 C   0  0  0  0  0  0  0  0  0  0  0  0
   11.6750    8.8550    1.4630 O   0  0  0  0  0  0  0  0  0  0  0  0
   13.2770    7.7430    2.7970 C   0  0  2  0  0  0  0  0  0  0  0  0
   14.3050    8.8880    3.0220 C   0  0  0  0  0  0  0  0  0  0  0  0
   13.5810    7.0080    1.5440 N   0  3  0  0  0  0  0  0  0  0  0  0
    2.6710   10.2432    5.6526 H   0  0  0  0  0  0  0  0  0  0  0  0
    3.3517    9.9060    0.6921 H   0  0  0  0  0  0  0  0  0  0  0  0
    5.6500    9.8857   -0.2643 H   0  0  0  0  0  0  0  0  0  0  0  0
    5.2488   10.3148    5.8853 H   0  0  0  0  0  0  0  0  0  0  0  0
   13.2056   14.4909   -0.1893 H   0  0  0  0  0  0  0  0  0  0  0  0
   12.1025   13.8500    1.9678 H   0  0  0  0  0  0  0  0  0  0  0  0
    9.0883    8.9926    2.6325 H   0  0  0  0  0  0  0  0  0  0  0  0
   11.1183    7.3628    2.7936 H   0  0  0  0  0  0  0  0  0  0  0  0
   11.5885    8.9298    3.5352 H   0  0  0  0  0  0  0  0  0  0  0  0
    7.3420   10.2077    3.7208 H   0  0  0  0  0  0  0  0  0  0  0  0
   14.8781   12.9495   -1.2716 H   0  0  0  0  0  0  0  0  0  0  0  0
   12.6544   11.6548    3.0638 H   0  0  0  0  0  0  0  0  0  0  0  0
   16.1605   10.4663   -0.9836 H   0  0  0  0  0  0  0  0  0  0  0  0
   16.1266    8.5143    0.7319 H   0  0  0  0  0  0  0  0  0  0  0  0
   11.5223    9.9623   -0.7944 H   0  0  0  0  0  0  0  0  0  0  0  0
    7.4537   11.0000   -0.7977 H   0  0  0  0  0  0  0  0  0  0  0  0
   13.3667    7.0475    3.6445 H   0  0  0  0  0  0  0  0  0  0  0  0
   13.8977    9.5549    3.7962 H   0  0  0  0  0  0  0  0  0  0  0  0
   15.2382    8.4323    3.3844 H   0  0  0  0  0  0  0  0  0  0  0  0
   12.9057    6.2709    1.4146 H   0  0  0  0  0  0  0  0  0  0  0  0
   14.5053    6.6103    1.6035 H   0  0  0  0  0  0  0  0  0  0  0  0
   13.5384    7.6436    0.7628 H   0  0  0  0  0  0  0  0  0  0  0  0
  1 18  1  0  0  0  0
  1 30  1  0  0  0  0
  2 25  1  0  0  0  0
  3 18  2  0  0  0  0
  4  3  1  0  0  0  0
  4 31  1  0  0  0  0
  5  4  2  0  0  0  0
  5 32  1  0  0  0  0
  6  1  1  0  0  0  0
  6 33  1  0  0  0  0
  7 34  1  0  0  0  0
  8 20  1  0  0  0  0
  8 21  2  0  0  0  0
  9  7  2  0  0  0  0
  9 35  1  0  0  0  0
 10  8  1  0  0  0  0
 10 23  2  0  0  0  0
 11 15  1  0  0  0  0
 11 25  2  0  0  0  0
 12 11  1  0  0  0  0
 12 36  1  0  0  0  0
 13 12  2  0  0  0  0
 13 24  1  0  0  0  0
 14 26  1  0  0  0  0
 14 37  1  0  0  0  0
 14 38  1  0  0  0  0
 15  5  1  0  0  0  0
 15 16  2  0  0  0  0
 16 17  1  0  0  0  0
 16 39  1  0  0  0  0
 17  3  1  0  0  0  0
 17  6  2  0  0  0  0
 19  7  1  0  0  0  0
 19 40  1  0  0  0  0
 20 19  2  0  0  0  0
 21  9  1  0  0  0  0
 21 41  1  0  0  0  0
 22 20  1  0  0  0  0
 22 42  1  0  0  0  0
 23 22  1  0  0  0  0
 23 43  1  0  0  0  0
 24  2  2  0  0  0  0
 24 44  1  0  0  0  0
 25 45  1  0  0  0  0
 26 13  1  0  0  0  0
 27 14  1  0  0  0  0
 27 28  1  0  0  0  0
 27 29  1  0  0  0  0
 27 46  1  1  0  0  0
 28 10  1  0  0  0  0
 28 47  1  0  0  0  0
 28 48  1  0  0  0  0
 29 49  1  0  0  0  0
 29 50  1  0  0  0  0
 29 51  1  0  0  0  0
M  CHG  1  29   1
M  END
