2ohl_ligand
 OpenBabel08222323343D

 19 20  0  0  0  0  0  0  0  0999 V2000
   65.9390   48.6290    6.0130 N   0  0  0  0  0  0  0  0  0  0  0  0
   66.6300   48.6680    7.0830 C   0  0  0  0  0  0  0  0  0  0  0  0
   66.9230   47.5020    7.7790 C   0  0  0  0  0  0  0  0  0  0  0  0
   67.6720   47.5720    8.9280 C   0  0  0  0  0  0  0  0  0  0  0  0
   68.1000   48.8100    9.3810 C   0  0  0  0  0  0  0  0  0  0  0  0
   68.8550   48.9590   10.5330 C   0  0  0  0  0  0  0  0  0  0  0  0
   69.2520   50.2120   10.9470 C   0  0  0  0  0  0  0  0  0  0  0  0
   68.9030   51.3310   10.2150 C   0  0  0  0  0  0  0  0  0  0  0  0
   68.1580   51.2020    9.0600 C   0  0  0  0  0  0  0  0  0  0  0  0
   67.7480   49.9540    8.6280 C   0  0  0  0  0  0  0  0  0  0  0  0
   67.0270   49.8790    7.5020 N   0  0  0  0  0  0  0  0  0  0  0  0
   65.6081   47.7252    5.6463 H   0  0  0  0  0  0  0  0  0  0  0  0
   65.7114   49.5013    5.5148 H   0  0  0  0  0  0  0  0  0  0  0  0
   66.5635   46.5451    7.4183 H   0  0  0  0  0  0  0  0  0  0  0  0
   67.9253   46.6703    9.4738 H   0  0  0  0  0  0  0  0  0  0  0  0
   69.1348   48.0859   11.1114 H   0  0  0  0  0  0  0  0  0  0  0  0
   69.8406   50.3204   11.8508 H   0  0  0  0  0  0  0  0  0  0  0  0
   69.2154   52.3138   10.5490 H   0  0  0  0  0  0  0  0  0  0  0  0
   67.8929   52.0841    8.4884 H   0  0  0  0  0  0  0  0  0  0  0  0
  1  2  1  0  0  0  0
  1 12  1  0  0  0  0
  1 13  1  0  0  0  0
  2  3  2  0  0  0  0
  2 11  1  0  0  0  0
  3  4  1  0  0  0  0
  3 14  1  0  0  0  0
  4  5  2  0  0  0  0
  4 15  1  0  0  0  0
  5  6  1  0  0  0  0
  5 10  1  0  0  0  0
  6  7  2  0  0  0  0
  6 16  1  0  0  0  0
  7  8  1  0  0  0  0
  7 17  1  0  0  0  0
  8  9  2  0  0  0  0
  8 18  1  0  0  0  0
  9 10  1  0  0  0  0
  9 19  1  0  0  0  0
 10 11  2  0  0  0  0
M  END
