2ohp_ligand
 OpenBabel08222323343D

 33 35  0  0  0  0  0  0  0  0999 V2000
   65.9590   48.6240    6.1440 N   0  0  0  0  0  0  0  0  0  0  0  0
   66.8150   48.4670    7.1260 C   0  0  0  0  0  0  0  0  0  0  0  0
   66.7820   47.3350    7.9340 C   0  0  0  0  0  0  0  0  0  0  0  0
   67.6920   47.1950    8.9600 C   0  0  0  0  0  0  0  0  0  0  0  0
   68.6210   48.1910    9.1960 C   0  0  0  0  0  0  0  0  0  0  0  0
   68.6360   49.3310    8.4000 C   0  0  0  0  0  0  0  0  0  0  0  0
   69.6430   50.4290    8.6230 C   0  0  0  0  0  0  0  0  0  0  0  0
   70.4360   50.7520    7.3720 C   0  0  0  0  0  0  0  0  0  0  0  0
   71.3270   49.6250    6.9150 C   0  0  0  0  0  0  0  0  0  0  0  0
   72.3880   49.2050    7.7140 C   0  0  0  0  0  0  0  0  0  0  0  0
   73.2320   48.1870    7.3060 C   0  0  0  0  0  0  0  0  0  0  0  0
   73.0220   47.5880    6.0700 C   0  0  0  0  0  0  0  0  0  0  0  0
   73.6720   46.5570    5.3590 C   0  0  0  0  0  0  0  0  0  0  0  0
   73.0020   46.3900    4.1450 C   0  0  0  0  0  0  0  0  0  0  0  0
   71.9850   47.2750    4.0950 N   0  0  0  0  0  0  0  0  0  0  0  0
   71.9680   48.0130    5.2590 C   0  0  0  0  0  0  0  0  0  0  0  0
   71.1180   49.0320    5.6730 C   0  0  0  0  0  0  0  0  0  0  0  0
   67.7260   49.4530    7.3860 N   0  0  0  0  0  0  0  0  0  0  0  0
   65.2834   47.9031    5.9442 H   0  0  0  0  0  0  0  0  0  0  0  0
   66.0379   46.5601    7.7561 H   0  0  0  0  0  0  0  0  0  0  0  0
   67.6790   46.3019    9.5830 H   0  0  0  0  0  0  0  0  0  0  0  0
   69.3413   48.0828   10.0055 H   0  0  0  0  0  0  0  0  0  0  0  0
   70.3415   50.1123    9.4115 H   0  0  0  0  0  0  0  0  0  0  0  0
   69.1107   51.3354    8.9471 H   0  0  0  0  0  0  0  0  0  0  0  0
   71.0645   51.6314    7.5759 H   0  0  0  0  0  0  0  0  0  0  0  0
   69.7288   50.9863    6.5627 H   0  0  0  0  0  0  0  0  0  0  0  0
   72.5554   49.6839    8.6720 H   0  0  0  0  0  0  0  0  0  0  0  0
   74.0466   47.8611    7.9426 H   0  0  0  0  0  0  0  0  0  0  0  0
   74.5402   45.9928    5.6963 H   0  0  0  0  0  0  0  0  0  0  0  0
   73.2571   45.6682    3.3705 H   0  0  0  0  0  0  0  0  0  0  0  0
   71.3256   47.3822    3.3110 H   0  0  0  0  0  0  0  0  0  0  0  0
   70.3036   49.3604    5.0374 H   0  0  0  0  0  0  0  0  0  0  0  0
   67.7270   50.3047    6.8067 H   0  0  0  0  0  0  0  0  0  0  0  0
  1  2  2  0  0  0  0
  1 19  1  0  0  0  0
  2  3  1  0  0  0  0
  2 18  1  0  0  0  0
  3  4  2  0  0  0  0
  3 20  1  0  0  0  0
  4  5  1  0  0  0  0
  4 21  1  0  0  0  0
  5  6  2  0  0  0  0
  5 22  1  0  0  0  0
  6  7  1  0  0  0  0
  6 18  1  0  0  0  0
  7  8  1  0  0  0  0
  7 23  1  0  0  0  0
  7 24  1  0  0  0  0
  8  9  1  0  0  0  0
  8 25  1  0  0  0  0
  8 26  1  0  0  0  0
  9 10  2  0  0  0  0
  9 17  1  0  0  0  0
 10 11  1  0  0  0  0
 10 27  1  0  0  0  0
 11 12  2  0  0  0  0
 11 28  1  0  0  0  0
 12 13  1  0  0  0  0
 12 16  1  0  0  0  0
 13 14  2  0  0  0  0
 13 29  1  0  0  0  0
 14 15  1  0  0  0  0
 14 30  1  0  0  0  0
 15 16  1  0  0  0  0
 15 31  1  0  0  0  0
 16 17  2  0  0  0  0
 17 32  1  0  0  0  0
 18 33  1  0  0  0  0
M  END
