2ohq_ligand
 OpenBabel08222323343D

 43 45  0  0  0  0  0  0  0  0999 V2000
   71.0690   45.9020    1.0960 C   0  0  0  0  0  0  0  0  0  0  0  0
   71.0940   46.8910    2.1280 O   0  0  0  0  0  0  0  0  0  0  0  0
   71.8850   46.6510    3.2260 C   0  0  0  0  0  0  0  0  0  0  0  0
   72.7200   45.5530    3.3820 C   0  0  0  0  0  0  0  0  0  0  0  0
   73.4540   45.3940    4.5370 C   0  0  0  0  0  0  0  0  0  0  0  0
   73.3650   46.3230    5.5500 C   0  0  0  0  0  0  0  0  0  0  0  0
   72.5290   47.4280    5.4290 C   0  0  0  0  0  0  0  0  0  0  0  0
   71.7940   47.5810    4.2550 C   0  0  0  0  0  0  0  0  0  0  0  0
   72.4280   48.4190    6.5390 C   0  0  0  0  0  0  0  0  0  0  0  0
   73.4330   48.5070    7.4990 C   0  0  0  0  0  0  0  0  0  0  0  0
   73.3380   49.4120    8.5370 C   0  0  0  0  0  0  0  0  0  0  0  0
   72.2420   50.2400    8.6340 C   0  0  0  0  0  0  0  0  0  0  0  0
   71.2180   50.1660    7.7010 C   0  0  0  0  0  0  0  0  0  0  0  0
   70.0300   51.0860    7.8080 C   0  0  0  0  0  0  0  0  0  0  0  0
   69.1150   50.7320    8.9620 C   0  0  0  0  0  0  0  0  0  0  0  0
   68.2920   49.5100    8.6570 C   0  0  0  0  0  0  0  0  0  0  0  0
   68.3930   48.3490    9.4150 C   0  0  0  0  0  0  0  0  0  0  0  0
   67.6270   47.2480    9.0880 C   0  0  0  0  0  0  0  0  0  0  0  0
   66.7710   47.3060    8.0070 C   0  0  0  0  0  0  0  0  0  0  0  0
   66.6880   48.4690    7.2470 C   0  0  0  0  0  0  0  0  0  0  0  0
   65.8930   48.5460    6.1790 N   0  0  0  0  0  0  0  0  0  0  0  0
   67.4430   49.5480    7.5900 N   0  0  0  0  0  0  0  0  0  0  0  0
   71.3160   49.2510    6.6590 C   0  0  0  0  0  0  0  0  0  0  0  0
   70.3975   46.2309    0.2892 H   0  0  0  0  0  0  0  0  0  0  0  0
   70.7061   44.9495    1.5096 H   0  0  0  0  0  0  0  0  0  0  0  0
   72.0841   45.7646    0.6951 H   0  0  0  0  0  0  0  0  0  0  0  0
   72.7949   44.8163    2.5903 H   0  0  0  0  0  0  0  0  0  0  0  0
   74.1044   44.5340    4.6490 H   0  0  0  0  0  0  0  0  0  0  0  0
   73.9528   46.1915    6.4512 H   0  0  0  0  0  0  0  0  0  0  0  0
   71.1410   48.4389    4.1425 H   0  0  0  0  0  0  0  0  0  0  0  0
   74.2987   47.8582    7.4304 H   0  0  0  0  0  0  0  0  0  0  0  0
   74.1277   49.4710    9.2772 H   0  0  0  0  0  0  0  0  0  0  0  0
   72.1789   50.9554    9.4460 H   0  0  0  0  0  0  0  0  0  0  0  0
   69.4545   51.0270    6.8724 H   0  0  0  0  0  0  0  0  0  0  0  0
   70.3936   52.1143    7.9506 H   0  0  0  0  0  0  0  0  0  0  0  0
   68.4399   51.5785    9.1558 H   0  0  0  0  0  0  0  0  0  0  0  0
   69.7257   50.5378    9.8561 H   0  0  0  0  0  0  0  0  0  0  0  0
   69.0740   48.3082   10.2638 H   0  0  0  0  0  0  0  0  0  0  0  0
   67.6979   46.3372    9.6808 H   0  0  0  0  0  0  0  0  0  0  0  0
   66.1606   46.4419    7.7487 H   0  0  0  0  0  0  0  0  0  0  0  0
   65.8493   49.3990    5.6437 H   0  0  0  0  0  0  0  0  0  0  0  0
   67.3719   50.4111    7.0325 H   0  0  0  0  0  0  0  0  0  0  0  0
   70.5167   49.1836    5.9298 H   0  0  0  0  0  0  0  0  0  0  0  0
  1  2  1  0  0  0  0
  1 24  1  0  0  0  0
  1 25  1  0  0  0  0
  1 26  1  0  0  0  0
  2  3  1  0  0  0  0
  3  4  2  0  0  0  0
  3  8  1  0  0  0  0
  4  5  1  0  0  0  0
  4 27  1  0  0  0  0
  5  6  2  0  0  0  0
  5 28  1  0  0  0  0
  6  7  1  0  0  0  0
  6 29  1  0  0  0  0
  7  8  2  0  0  0  0
  7  9  1  0  0  0  0
  8 30  1  0  0  0  0
  9 10  2  0  0  0  0
  9 23  1  0  0  0  0
 10 11  1  0  0  0  0
 10 31  1  0  0  0  0
 11 12  2  0  0  0  0
 11 32  1  0  0  0  0
 12 13  1  0  0  0  0
 12 33  1  0  0  0  0
 13 14  1  0  0  0  0
 13 23  2  0  0  0  0
 14 15  1  0  0  0  0
 14 34  1  0  0  0  0
 14 35  1  0  0  0  0
 15 16  1  0  0  0  0
 15 36  1  0  0  0  0
 15 37  1  0  0  0  0
 16 17  2  0  0  0  0
 16 22  1  0  0  0  0
 17 18  1  0  0  0  0
 17 38  1  0  0  0  0
 18 19  2  0  0  0  0
 18 39  1  0  0  0  0
 19 20  1  0  0  0  0
 19 40  1  0  0  0  0
 20 21  2  0  0  0  0
 20 22  1  0  0  0  0
 21 41  1  0  0  0  0
 22 42  1  0  0  0  0
 23 43  1  0  0  0  0
M  END
