2ohr_ligand
 OpenBabel08222323343D

 37 39  0  0  0  0  0  0  0  0999 V2000
   65.3690   47.2000    6.3800 N   0  0  0  0  0  0  0  0  0  0  0  0
   66.0320   46.3570    7.1920 C   0  0  0  0  0  0  0  0  0  0  0  0
   65.6790   45.0520    7.1510 N   0  0  0  0  0  0  0  0  0  0  0  0
   66.3160   44.2090    7.9730 C   0  0  0  0  0  0  0  0  0  0  0  0
   67.2970   44.6060    8.8580 C   0  0  0  0  0  0  0  0  0  0  0  0
   67.6600   45.9320    8.9150 C   0  0  0  0  0  0  0  0  0  0  0  0
   67.0250   46.8470    8.0850 C   0  0  0  0  0  0  0  0  0  0  0  0
   67.3140   48.2130    8.0970 N   0  0  0  0  0  0  0  0  0  0  0  0
   68.2930   48.8430    8.9680 C   0  0  0  0  0  0  0  0  0  0  0  0
   69.7330   48.5410    8.6180 C   0  0  0  0  0  0  0  0  0  0  0  0
   70.7450   48.9240    9.4820 C   0  0  0  0  0  0  0  0  0  0  0  0
   72.0640   48.6670    9.1750 C   0  0  0  0  0  0  0  0  0  0  0  0
   72.3920   48.0050    8.0120 C   0  0  0  0  0  0  0  0  0  0  0  0
   71.4000   47.6030    7.1250 C   0  0  0  0  0  0  0  0  0  0  0  0
   70.0700   47.8750    7.4430 C   0  0  0  0  0  0  0  0  0  0  0  0
   71.7530   46.8550    5.8850 C   0  0  0  0  0  0  0  0  0  0  0  0
   72.7980   45.9420    5.8710 C   0  0  0  0  0  0  0  0  0  0  0  0
   73.0820   45.2550    4.7120 C   0  0  0  0  0  0  0  0  0  0  0  0
   72.2990   45.4660    3.5970 C   0  0  0  0  0  0  0  0  0  0  0  0
   71.2840   46.3340    3.5720 N   0  0  0  0  0  0  0  0  0  0  0  0
   71.0160   46.9940    4.7090 C   0  0  0  0  0  0  0  0  0  0  0  0
   65.6034   48.2030    6.3767 H   0  0  0  0  0  0  0  0  0  0  0  0
   64.6270   46.8425    5.7615 H   0  0  0  0  0  0  0  0  0  0  0  0
   66.0469   43.1594    7.9416 H   0  0  0  0  0  0  0  0  0  0  0  0
   67.7778   43.8795    9.5030 H   0  0  0  0  0  0  0  0  0  0  0  0
   68.4334   46.2591    9.6005 H   0  0  0  0  0  0  0  0  0  0  0  0
   66.7970   48.8172    7.4424 H   0  0  0  0  0  0  0  0  0  0  0  0
   68.1101   48.4977    9.9963 H   0  0  0  0  0  0  0  0  0  0  0  0
   68.1483   49.9322    8.9157 H   0  0  0  0  0  0  0  0  0  0  0  0
   70.4978   49.4304   10.4080 H   0  0  0  0  0  0  0  0  0  0  0  0
   72.8474   48.9874    9.8522 H   0  0  0  0  0  0  0  0  0  0  0  0
   73.4316   47.7960    7.7870 H   0  0  0  0  0  0  0  0  0  0  0  0
   69.2851   47.5626    6.7637 H   0  0  0  0  0  0  0  0  0  0  0  0
   73.3861   45.7710    6.7654 H   0  0  0  0  0  0  0  0  0  0  0  0
   73.9107   44.5571    4.6767 H   0  0  0  0  0  0  0  0  0  0  0  0
   72.5174   44.9008    2.6982 H   0  0  0  0  0  0  0  0  0  0  0  0
   70.1747   47.6775    4.7140 H   0  0  0  0  0  0  0  0  0  0  0  0
  1  2  1  0  0  0  0
  1 22  1  0  0  0  0
  1 23  1  0  0  0  0
  2  3  2  0  0  0  0
  2  7  1  0  0  0  0
  3  4  1  0  0  0  0
  4  5  2  0  0  0  0
  4 24  1  0  0  0  0
  5  6  1  0  0  0  0
  5 25  1  0  0  0  0
  6  7  2  0  0  0  0
  6 26  1  0  0  0  0
  7  8  1  0  0  0  0
  8  9  1  0  0  0  0
  8 27  1  0  0  0  0
  9 10  1  0  0  0  0
  9 28  1  0  0  0  0
  9 29  1  0  0  0  0
 10 11  2  0  0  0  0
 10 15  1  0  0  0  0
 11 12  1  0  0  0  0
 11 30  1  0  0  0  0
 12 13  2  0  0  0  0
 12 31  1  0  0  0  0
 13 14  1  0  0  0  0
 13 32  1  0  0  0  0
 14 15  2  0  0  0  0
 14 16  1  0  0  0  0
 15 33  1  0  0  0  0
 16 17  2  0  0  0  0
 16 21  1  0  0  0  0
 17 18  1  0  0  0  0
 17 34  1  0  0  0  0
 18 19  2  0  0  0  0
 18 35  1  0  0  0  0
 19 20  1  0  0  0  0
 19 36  1  0  0  0  0
 20 21  2  0  0  0  0
 21 37  1  0  0  0  0
M  END
