2ohs_ligand
 OpenBabel08222323343D

 41 43  0  0  0  0  0  0  0  0999 V2000
   70.3460   45.2650    1.6510 C   0  0  0  0  0  0  0  0  0  0  0  0
   70.3220   46.3010    2.6470 O   0  0  0  0  0  0  0  0  0  0  0  0
   71.1190   46.1400    3.7510 C   0  0  0  0  0  0  0  0  0  0  0  0
   72.1610   45.2300    3.8810 C   0  0  0  0  0  0  0  0  0  0  0  0
   72.8980   45.1020    4.9860 N   0  0  0  0  0  0  0  0  0  0  0  0
   72.5730   45.8770    6.0270 C   0  0  0  0  0  0  0  0  0  0  0  0
   71.5480   46.8230    6.0100 C   0  0  0  0  0  0  0  0  0  0  0  0
   70.7990   46.9310    4.8460 C   0  0  0  0  0  0  0  0  0  0  0  0
   71.2270   47.6230    7.2260 C   0  0  0  0  0  0  0  0  0  0  0  0
   72.2370   47.9840    8.1090 C   0  0  0  0  0  0  0  0  0  0  0  0
   71.9460   48.6710    9.2660 C   0  0  0  0  0  0  0  0  0  0  0  0
   70.6400   48.9970    9.5730 C   0  0  0  0  0  0  0  0  0  0  0  0
   69.6010   48.6310    8.7300 C   0  0  0  0  0  0  0  0  0  0  0  0
   68.1810   48.9910    9.0970 C   0  0  0  0  0  0  0  0  0  0  0  0
   67.1400   48.4090    8.2530 N   0  0  0  0  0  0  0  0  0  0  0  0
   66.7280   47.0330    8.2800 C   0  0  0  0  0  0  0  0  0  0  0  0
   67.3370   46.1160    9.1300 C   0  0  0  0  0  0  0  0  0  0  0  0
   66.9430   44.7930    9.1180 C   0  0  0  0  0  0  0  0  0  0  0  0
   65.9210   44.3880    8.2810 C   0  0  0  0  0  0  0  0  0  0  0  0
   65.3140   45.2570    7.4540 N   0  0  0  0  0  0  0  0  0  0  0  0
   65.6910   46.5750    7.4180 C   0  0  0  0  0  0  0  0  0  0  0  0
   65.0300   47.3900    6.5800 N   0  0  0  0  0  0  0  0  0  0  0  0
   69.9050   47.9370    7.5560 C   0  0  0  0  0  0  0  0  0  0  0  0
   69.6627   45.5293    0.8305 H   0  0  0  0  0  0  0  0  0  0  0  0
   70.0260   44.3145    2.1028 H   0  0  0  0  0  0  0  0  0  0  0  0
   71.3676   45.1584    1.2574 H   0  0  0  0  0  0  0  0  0  0  0  0
   72.3879   44.5881    3.0375 H   0  0  0  0  0  0  0  0  0  0  0  0
   73.1426   45.7625    6.9422 H   0  0  0  0  0  0  0  0  0  0  0  0
   69.9704   47.6279    4.7926 H   0  0  0  0  0  0  0  0  0  0  0  0
   73.2647   47.7221    7.8847 H   0  0  0  0  0  0  0  0  0  0  0  0
   72.7460   48.9573    9.9391 H   0  0  0  0  0  0  0  0  0  0  0  0
   70.4241   49.5451   10.4830 H   0  0  0  0  0  0  0  0  0  0  0  0
   68.0857   50.0856    9.0442 H   0  0  0  0  0  0  0  0  0  0  0  0
   68.0041   48.6569   10.1300 H   0  0  0  0  0  0  0  0  0  0  0  0
   66.6644   49.0340    7.5866 H   0  0  0  0  0  0  0  0  0  0  0  0
   68.1259   46.4422    9.8061 H   0  0  0  0  0  0  0  0  0  0  0  0
   67.4364   44.0705    9.7665 H   0  0  0  0  0  0  0  0  0  0  0  0
   65.6017   43.3469    8.2914 H   0  0  0  0  0  0  0  0  0  0  0  0
   64.5557   44.9284    6.8393 H   0  0  0  0  0  0  0  0  0  0  0  0
   65.2782   48.3654    6.5252 H   0  0  0  0  0  0  0  0  0  0  0  0
   69.1034   47.6373    6.8906 H   0  0  0  0  0  0  0  0  0  0  0  0
  1  2  1  0  0  0  0
  1 24  1  0  0  0  0
  1 25  1  0  0  0  0
  1 26  1  0  0  0  0
  2  3  1  0  0  0  0
  3  4  2  0  0  0  0
  3  8  1  0  0  0  0
  4  5  1  0  0  0  0
  4 27  1  0  0  0  0
  5  6  2  0  0  0  0
  6  7  1  0  0  0  0
  6 28  1  0  0  0  0
  7  8  2  0  0  0  0
  7  9  1  0  0  0  0
  8 29  1  0  0  0  0
  9 10  2  0  0  0  0
  9 23  1  0  0  0  0
 10 11  1  0  0  0  0
 10 30  1  0  0  0  0
 11 12  2  0  0  0  0
 11 31  1  0  0  0  0
 12 13  1  0  0  0  0
 12 32  1  0  0  0  0
 13 14  1  0  0  0  0
 13 23  2  0  0  0  0
 14 15  1  0  0  0  0
 14 33  1  0  0  0  0
 14 34  1  0  0  0  0
 15 16  1  0  0  0  0
 15 35  1  0  0  0  0
 16 17  2  0  0  0  0
 16 21  1  0  0  0  0
 17 18  1  0  0  0  0
 17 36  1  0  0  0  0
 18 19  2  0  0  0  0
 18 37  1  0  0  0  0
 19 20  1  0  0  0  0
 19 38  1  0  0  0  0
 20 21  1  0  0  0  0
 20 39  1  0  0  0  0
 21 22  2  0  0  0  0
 22 40  1  0  0  0  0
 23 41  1  0  0  0  0
M  END
