2oht_ligand
 OpenBabel08222323343D

 42 45  0  0  0  0  0  0  0  0999 V2000
   65.8610   48.7170    6.5440 N   0  0  0  0  0  0  0  0  0  0  0  0
   65.7760   48.1960    7.8330 C   0  0  0  0  0  0  0  0  0  0  0  0
   65.1480   47.0390    8.0370 N   0  0  0  0  0  0  0  0  0  0  0  0
   65.0470   46.5000    9.2420 C   0  0  0  0  0  0  0  0  0  0  0  0
   65.5920   47.1180   10.3530 C   0  0  0  0  0  0  0  0  0  0  0  0
   66.2570   48.3260   10.1850 C   0  0  0  0  0  0  0  0  0  0  0  0
   66.3570   48.8900    8.9100 C   0  0  0  0  0  0  0  0  0  0  0  0
   67.0270   50.1180    8.6990 N   0  0  0  0  0  0  0  0  0  0  0  0
   67.7440   50.8000    9.7950 C   0  0  0  0  0  0  0  0  0  0  0  0
   69.1070   50.1540    9.9970 C   0  0  0  0  0  0  0  0  0  0  0  0
   69.5460   49.9200   11.3020 C   0  0  0  0  0  0  0  0  0  0  0  0
   70.7790   49.3260   11.5120 C   0  0  0  0  0  0  0  0  0  0  0  0
   71.5790   48.9590   10.4280 C   0  0  0  0  0  0  0  0  0  0  0  0
   71.1570   49.2000    9.1100 C   0  0  0  0  0  0  0  0  0  0  0  0
   69.9000   49.7890    8.8990 C   0  0  0  0  0  0  0  0  0  0  0  0
   72.0310   48.7840    7.9840 C   0  0  0  0  0  0  0  0  0  0  0  0
   73.4380   48.8230    8.1250 C   0  0  0  0  0  0  0  0  0  0  0  0
   74.2530   48.4180    7.0920 C   0  0  0  0  0  0  0  0  0  0  0  0
   73.6950   47.9500    5.8810 C   0  0  0  0  0  0  0  0  0  0  0  0
   74.2490   47.4550    4.6050 C   0  0  0  0  0  0  0  0  0  0  0  0
   73.2110   47.1310    3.7960 C   0  0  0  0  0  0  0  0  0  0  0  0
   72.0250   47.3840    4.4400 N   0  0  0  0  0  0  0  0  0  0  0  0
   72.2780   47.8790    5.7250 C   0  0  0  0  0  0  0  0  0  0  0  0
   71.4560   48.2980    6.7960 C   0  0  0  0  0  0  0  0  0  0  0  0
   66.3455   49.6112    6.3809 H   0  0  0  0  0  0  0  0  0  0  0  0
   65.4394   48.2081    5.7540 H   0  0  0  0  0  0  0  0  0  0  0  0
   64.5272   45.5561    9.3602 H   0  0  0  0  0  0  0  0  0  0  0  0
   65.5020   46.6686   11.3353 H   0  0  0  0  0  0  0  0  0  0  0  0
   66.6964   48.8290   11.0388 H   0  0  0  0  0  0  0  0  0  0  0  0
   67.0144   50.5450    7.7618 H   0  0  0  0  0  0  0  0  0  0  0  0
   67.1587   50.7162   10.7226 H   0  0  0  0  0  0  0  0  0  0  0  0
   67.8769   51.8617    9.5399 H   0  0  0  0  0  0  0  0  0  0  0  0
   68.9255   50.2016   12.1450 H   0  0  0  0  0  0  0  0  0  0  0  0
   71.1250   49.1449   12.5232 H   0  0  0  0  0  0  0  0  0  0  0  0
   72.5365   48.4828   10.6055 H   0  0  0  0  0  0  0  0  0  0  0  0
   69.5432   49.9613    7.8900 H   0  0  0  0  0  0  0  0  0  0  0  0
   73.8771   49.1739    9.0519 H   0  0  0  0  0  0  0  0  0  0  0  0
   75.3300   48.4584    7.2084 H   0  0  0  0  0  0  0  0  0  0  0  0
   75.3058   47.3659    4.3575 H   0  0  0  0  0  0  0  0  0  0  0  0
   73.3036   46.7305    2.7876 H   0  0  0  0  0  0  0  0  0  0  0  0
   71.0890   47.2323    4.0378 H   0  0  0  0  0  0  0  0  0  0  0  0
   70.3775   48.2445    6.7012 H   0  0  0  0  0  0  0  0  0  0  0  0
  1  2  1  0  0  0  0
  1 25  1  0  0  0  0
  1 26  1  0  0  0  0
  2  3  2  0  0  0  0
  2  7  1  0  0  0  0
  3  4  1  0  0  0  0
  4  5  2  0  0  0  0
  4 27  1  0  0  0  0
  5  6  1  0  0  0  0
  5 28  1  0  0  0  0
  6  7  2  0  0  0  0
  6 29  1  0  0  0  0
  7  8  1  0  0  0  0
  8  9  1  0  0  0  0
  8 30  1  0  0  0  0
  9 10  1  0  0  0  0
  9 31  1  0  0  0  0
  9 32  1  0  0  0  0
 10 11  2  0  0  0  0
 10 15  1  0  0  0  0
 11 12  1  0  0  0  0
 11 33  1  0  0  0  0
 12 13  2  0  0  0  0
 12 34  1  0  0  0  0
 13 14  1  0  0  0  0
 13 35  1  0  0  0  0
 14 15  2  0  0  0  0
 14 16  1  0  0  0  0
 15 36  1  0  0  0  0
 16 17  2  0  0  0  0
 16 24  1  0  0  0  0
 17 18  1  0  0  0  0
 17 37  1  0  0  0  0
 18 19  2  0  0  0  0
 18 38  1  0  0  0  0
 19 20  1  0  0  0  0
 19 23  1  0  0  0  0
 20 21  2  0  0  0  0
 20 39  1  0  0  0  0
 21 22  1  0  0  0  0
 21 40  1  0  0  0  0
 22 23  1  0  0  0  0
 22 41  1  0  0  0  0
 23 24  2  0  0  0  0
 24 42  1  0  0  0  0
M  END
