2oj9_ligand
 OpenBabel08222323343D

 49 53  0  0  1  0  0  0  0  0999 V2000
    3.1460   -4.5250   18.4410 C   0  0  0  0  0  0  0  0  0  0  0  0
    2.7560   -5.6360   17.8830 O   0  0  0  0  0  0  0  0  0  0  0  0
    4.9310   -3.2670   21.6820 N   0  0  0  0  0  0  0  0  0  0  0  0
    2.8980   -3.3310   17.9320 N   0  0  0  0  0  0  0  0  0  0  0  0
    4.2240   -3.3630   20.4270 C   0  0  0  0  0  0  0  0  0  0  0  0
    3.9510   -2.1660   19.7420 C   0  0  0  0  0  0  0  0  0  0  0  0
    3.2890   -2.2380   18.5760 C   0  0  0  0  0  0  0  0  0  0  0  0
    6.1460   -2.3190   21.8520 C   0  0  0  0  0  0  0  0  0  0  0  0
    8.4580   -4.0300   24.2910 C   0  0  0  0  0  0  0  0  0  0  0  0
    7.5420   -3.1670   23.7480 C   0  0  0  0  0  0  0  0  0  0  0  0
    9.0360   -4.9650   23.4230 C   0  0  0  0  0  0  0  0  0  0  0  0
    7.2110   -3.2340   22.4120 C   0  0  0  0  0  0  0  0  0  0  0  0
    7.7620   -4.1500   21.5760 N   0  0  0  0  0  0  0  0  0  0  0  0
    8.6570   -5.0060   22.0630 C   0  0  0  0  0  0  0  0  0  0  0  0
    3.8190   -4.5490   19.7500 C   0  0  2  0  0  0  0  0  0  0  0  0
    5.9250  -12.1070   22.5390 C   0  0  0  0  0  0  0  0  0  0  0  0
    5.5650   -9.8540   21.5280 C   0  0  0  0  0  0  0  0  0  0  0  0
    5.0230   -9.2590   20.4490 C   0  0  0  0  0  0  0  0  0  0  0  0
    5.9050  -11.2140   21.5020 N   0  0  0  0  0  0  0  0  0  0  0  0
    6.3110  -11.8600   20.4050 C   0  0  0  0  0  0  0  0  0  0  0  0
    6.6000  -13.1510   20.6500 N   0  0  0  0  0  0  0  0  0  0  0  0
    6.3520  -13.3410   21.9890 C   0  0  0  0  0  0  0  0  0  0  0  0
    4.7380   -7.8890   20.5150 C   0  0  0  0  0  0  0  0  0  0  0  0
    4.6790   -5.9430   21.4200 N   0  0  0  0  0  0  0  0  0  0  0  0
    4.1620   -5.8220   20.3210 C   0  0  0  0  0  0  0  0  0  0  0  0
    4.2050   -6.9530   19.6740 N   0  0  0  0  0  0  0  0  0  0  0  0
    5.0030   -7.2570   21.5870 C   0  0  0  0  0  0  0  0  0  0  0  0
    5.5310   -7.8880   22.6180 C   0  0  0  0  0  0  0  0  0  0  0  0
    5.7990   -9.1700   22.6200 C   0  0  0  0  0  0  0  0  0  0  0  0
    5.7950   -7.0590   23.8340 C   0  0  0  0  0  0  0  0  0  0  0  0
    4.6221   -3.8397   22.4804 H   0  0  0  0  0  0  0  0  0  0  0  0
    4.2680   -1.2058   20.1464 H   0  0  0  0  0  0  0  0  0  0  0  0
    3.0441   -1.2881   18.1031 H   0  0  0  0  0  0  0  0  0  0  0  0
    5.9165   -1.5030   22.5530 H   0  0  0  0  0  0  0  0  0  0  0  0
    6.4562   -1.8956   20.8853 H   0  0  0  0  0  0  0  0  0  0  0  0
    8.7223   -3.9908   25.3415 H   0  0  0  0  0  0  0  0  0  0  0  0
    7.0713   -2.4213   24.3784 H   0  0  0  0  0  0  0  0  0  0  0  0
    9.7782   -5.6609   23.7970 H   0  0  0  0  0  0  0  0  0  0  0  0
    9.1015   -5.7453   21.4066 H   0  0  0  0  0  0  0  0  0  0  0  0
    2.8500   -4.5376   20.2705 H   0  0  0  0  0  0  0  0  0  0  0  0
    5.6650  -11.9090   23.5778 H   0  0  0  0  0  0  0  0  0  0  0  0
    4.8120   -9.8267   19.5500 H   0  0  0  0  0  0  0  0  0  0  0  0
    6.3980  -11.3945   19.4243 H   0  0  0  0  0  0  0  0  0  0  0  0
    6.4643  -14.2778   22.5327 H   0  0  0  0  0  0  0  0  0  0  0  0
    3.8938   -7.1121   18.7051 H   0  0  0  0  0  0  0  0  0  0  0  0
    6.2039   -9.6522   23.5024 H   0  0  0  0  0  0  0  0  0  0  0  0
    5.5066   -6.0160   23.6364 H   0  0  0  0  0  0  0  0  0  0  0  0
    6.8658   -7.1026   24.0821 H   0  0  0  0  0  0  0  0  0  0  0  0
    5.2069   -7.4484   24.6781 H   0  0  0  0  0  0  0  0  0  0  0  0
  1  2  2  0  0  0  0
  1  4  1  0  0  0  0
  3  8  1  0  0  0  0
  3 31  1  0  0  0  0
  4  7  2  0  0  0  0
  5  3  1  0  0  0  0
  5  6  2  0  0  0  0
  6  7  1  0  0  0  0
  6 32  1  0  0  0  0
  7 33  1  0  0  0  0
  8 12  1  0  0  0  0
  8 34  1  0  0  0  0
  8 35  1  0  0  0  0
  9 11  1  0  0  0  0
  9 36  1  0  0  0  0
 10  9  2  0  0  0  0
 10 37  1  0  0  0  0
 11 38  1  0  0  0  0
 12 10  1  0  0  0  0
 12 13  2  0  0  0  0
 13 14  1  0  0  0  0
 14 11  2  0  0  0  0
 14 39  1  0  0  0  0
 15  1  1  0  0  0  0
 15  5  1  0  0  0  0
 15 40  1  1  0  0  0
 16 22  2  0  0  0  0
 16 41  1  0  0  0  0
 17 19  1  0  0  0  0
 17 29  1  0  0  0  0
 18 17  2  0  0  0  0
 18 42  1  0  0  0  0
 19 16  1  0  0  0  0
 19 20  1  0  0  0  0
 20 21  2  0  0  0  0
 20 43  1  0  0  0  0
 21 22  1  0  0  0  0
 22 44  1  0  0  0  0
 23 18  1  0  0  0  0
 23 26  1  0  0  0  0
 24 25  2  0  0  0  0
 24 27  1  0  0  0  0
 25 15  1  0  0  0  0
 25 26  1  0  0  0  0
 26 45  1  0  0  0  0
 27 23  2  0  0  0  0
 27 28  1  0  0  0  0
 28 29  2  0  0  0  0
 28 30  1  0  0  0  0
 29 46  1  0  0  0  0
 30 47  1  0  0  0  0
 30 48  1  0  0  0  0
 30 49  1  0  0  0  0
M  END
