2ojf_ligand
 OpenBabel08222323343D

 50 54  0  0  1  0  0  0  0  0999 V2000
   13.3740   13.0890    1.3650 C   0  0  0  0  0  0  0  0  0  0  0  0
   15.5740   10.1310    1.2720 C   0  0  0  0  0  0  0  0  0  0  0  0
   14.3980   10.7900    3.5360 C   0  0  0  0  0  0  0  0  0  0  0  0
   14.5050   12.5900   -1.1970 C   0  0  0  0  0  0  0  0  0  0  0  0
   13.4150    9.5980    3.8410 C   0  0  1  0  0  0  0  0  0  0  0  0
   10.8350    9.9870    1.1300 C   0  0  0  0  0  0  0  0  0  0  0  0
   10.9420   10.1600   -0.2710 C   0  0  0  0  0  0  0  0  0  0  0  0
    6.9620   10.0700    1.4110 C   0  0  0  0  0  0  0  0  0  0  0  0
    8.5940   10.2670   -0.5150 C   0  0  0  0  0  0  0  0  0  0  0  0
    6.6430   10.1660    2.7970 C   0  0  0  0  0  0  0  0  0  0  0  0
    5.3090   10.1230    3.2080 C   0  0  0  0  0  0  0  0  0  0  0  0
    4.2500    9.9800    2.2190 C   0  0  0  0  0  0  0  0  0  0  0  0
   14.2380   11.9930    1.1710 C   0  0  0  0  0  0  0  0  0  0  0  0
   14.7290   10.9640    2.0510 C   0  0  0  0  0  0  0  0  0  0  0  0
   14.8100   11.7400   -0.1280 C   0  0  0  0  0  0  0  0  0  0  0  0
   15.6170   10.5960   -0.0110 N   0  0  0  0  0  0  0  0  0  0  0  0
   13.0650   13.9550    0.2750 C   0  0  0  0  0  0  0  0  0  0  0  0
   13.6330   13.7020   -1.0080 C   0  0  0  0  0  0  0  0  0  0  0  0
   11.9520    9.6930    3.3180 C   0  0  0  0  0  0  0  0  0  0  0  0
   14.0050    8.3540    3.3330 N   0  3  0  0  0  0  0  0  0  0  0  0
   12.0090    9.8580    1.8940 O   0  0  0  0  0  0  0  0  0  0  0  0
    9.5220    9.9560    1.6960 C   0  0  0  0  0  0  0  0  0  0  0  0
    8.3660   10.0990    0.8690 C   0  0  0  0  0  0  0  0  0  0  0  0
    9.8470   10.2970   -1.0690 N   0  0  0  0  0  0  0  0  0  0  0  0
    5.8920    9.9360    0.5030 N   0  0  0  0  0  0  0  0  0  0  0  0
    4.5810    9.8910    0.8800 C   0  0  0  0  0  0  0  0  0  0  0  0
    4.6750   10.1940    4.5240 C   0  0  0  0  0  0  0  0  0  0  0  0
    3.1040    9.9740    2.9800 N   0  0  0  0  0  0  0  0  0  0  0  0
    3.3670   10.0980    4.2980 N   0  0  0  0  0  0  0  0  0  0  0  0
   12.9442   13.2739    2.3428 H   0  0  0  0  0  0  0  0  0  0  0  0
   16.1062    9.2555    1.6410 H   0  0  0  0  0  0  0  0  0  0  0  0
   15.3370   10.6112    4.0804 H   0  0  0  0  0  0  0  0  0  0  0  0
   13.9357   11.7202    3.8980 H   0  0  0  0  0  0  0  0  0  0  0  0
   14.9342   12.4019   -2.1745 H   0  0  0  0  0  0  0  0  0  0  0  0
   13.3486    9.5262    4.9366 H   0  0  0  0  0  0  0  0  0  0  0  0
   11.9270   10.1842   -0.7230 H   0  0  0  0  0  0  0  0  0  0  0  0
    7.7372   10.3774   -1.1698 H   0  0  0  0  0  0  0  0  0  0  0  0
    7.4342   10.2722    3.5304 H   0  0  0  0  0  0  0  0  0  0  0  0
   16.1592   10.1721   -0.7773 H   0  0  0  0  0  0  0  0  0  0  0  0
   12.4024   14.8004    0.4210 H   0  0  0  0  0  0  0  0  0  0  0  0
   13.4015   14.3560   -1.8409 H   0  0  0  0  0  0  0  0  0  0  0  0
   11.4457   10.5558    3.7753 H   0  0  0  0  0  0  0  0  0  0  0  0
   11.4043    8.7721    3.5670 H   0  0  0  0  0  0  0  0  0  0  0  0
   14.9546    8.2739    3.6615 H   0  0  0  0  0  0  0  0  0  0  0  0
   13.9980    8.3659    2.3251 H   0  0  0  0  0  0  0  0  0  0  0  0
   13.4677    7.5678    3.6635 H   0  0  0  0  0  0  0  0  0  0  0  0
    9.4026    9.8224    2.7651 H   0  0  0  0  0  0  0  0  0  0  0  0
    3.8029    9.7859    0.1326 H   0  0  0  0  0  0  0  0  0  0  0  0
    5.1700   10.3027    5.4879 H   0  0  0  0  0  0  0  0  0  0  0  0
    2.6474   10.1160    5.0347 H   0  0  0  0  0  0  0  0  0  0  0  0
  1 17  1  0  0  0  0
  1 30  1  0  0  0  0
  2 16  1  0  0  0  0
  2 31  1  0  0  0  0
  3 14  1  0  0  0  0
  3 32  1  0  0  0  0
  3 33  1  0  0  0  0
  4 18  1  0  0  0  0
  4 34  1  0  0  0  0
  5  3  1  0  0  0  0
  5 20  1  0  0  0  0
  5 35  1  1  0  0  0
  6  7  2  0  0  0  0
  6 22  1  0  0  0  0
  7 24  1  0  0  0  0
  7 36  1  0  0  0  0
  8 10  2  0  0  0  0
  8 25  1  0  0  0  0
  9 23  1  0  0  0  0
  9 37  1  0  0  0  0
 10 11  1  0  0  0  0
 10 38  1  0  0  0  0
 11 12  1  0  0  0  0
 11 27  2  0  0  0  0
 12 26  1  0  0  0  0
 12 28  2  0  0  0  0
 13  1  2  0  0  0  0
 13 15  1  0  0  0  0
 14  2  2  0  0  0  0
 14 13  1  0  0  0  0
 15  4  2  0  0  0  0
 15 16  1  0  0  0  0
 16 39  1  0  0  0  0
 17 18  2  0  0  0  0
 17 40  1  0  0  0  0
 18 41  1  0  0  0  0
 19  5  1  0  0  0  0
 19 21  1  0  0  0  0
 19 42  1  0  0  0  0
 19 43  1  0  0  0  0
 20 44  1  0  0  0  0
 20 45  1  0  0  0  0
 20 46  1  0  0  0  0
 21  6  1  0  0  0  0
 22 23  2  0  0  0  0
 22 47  1  0  0  0  0
 23  8  1  0  0  0  0
 24  9  2  0  0  0  0
 25 26  2  0  0  0  0
 26 48  1  0  0  0  0
 27 29  1  0  0  0  0
 27 49  1  0  0  0  0
 28 29  1  0  0  0  0
 29 50  1  0  0  0  0
M  CHG  1  20   1
M  END
