2oji_ligand
 OpenBabel08222323343D

 44 47  0  0  0  0  0  0  0  0999 V2000
  -15.0190   16.5280   41.7210 C   0  0  0  0  0  0  0  0  0  0  0  0
  -15.1330   16.9420   43.0660 C   0  0  0  0  0  0  0  0  0  0  0  0
  -15.8810   16.1680   43.9790 C   0  0  0  0  0  0  0  0  0  0  0  0
  -16.5060   14.9910   43.5450 C   0  0  0  0  0  0  0  0  0  0  0  0
  -16.3990   14.5670   42.1920 C   0  0  0  0  0  0  0  0  0  0  0  0
  -15.6460   15.3510   41.2780 C   0  0  0  0  0  0  0  0  0  0  0  0
  -17.1040   13.3000   41.7970 C   0  0  0  0  0  0  0  0  0  0  0  0
  -14.0950   17.4800   40.6190 Cl  0  0  0  0  0  0  0  0  0  0  0  0
  -18.3780   13.0100   42.1990 C   0  0  0  0  0  0  0  0  0  0  0  0
  -18.7230   11.8160   41.7000 N   0  0  0  0  0  0  0  0  0  0  0  0
  -17.6560   11.3130   40.9530 N   0  0  0  0  0  0  0  0  0  0  0  0
  -16.6530   12.1800   40.9800 C   0  0  0  0  0  0  0  0  0  0  0  0
  -15.3240   11.9530   40.2680 C   0  0  0  0  0  0  0  0  0  0  0  0
  -15.1460   11.2170   39.1160 C   0  0  0  0  0  0  0  0  0  0  0  0
  -13.8340   11.2270   38.7860 N   0  0  0  0  0  0  0  0  0  0  0  0
  -13.1400   11.9770   39.7230 C   0  0  0  0  0  0  0  0  0  0  0  0
  -14.0460   12.4250   40.6380 C   0  0  0  0  0  0  0  0  0  0  0  0
  -11.6870   12.2440   39.7410 C   0  0  0  0  0  0  0  0  0  0  0  0
  -10.9670   11.6280   38.9740 O   0  0  0  0  0  0  0  0  0  0  0  0
  -11.1610   13.1890   40.6010 N   0  0  0  0  0  0  0  0  0  0  0  0
   -9.7020   13.5030   40.6460 C   0  0  0  0  0  0  0  0  0  0  0  0
   -9.3670   14.6840   39.7390 C   0  0  0  0  0  0  0  0  0  0  0  0
   -8.0520   14.8510   39.2360 C   0  0  0  0  0  0  0  0  0  0  0  0
   -7.7490   15.9470   38.3900 C   0  0  0  0  0  0  0  0  0  0  0  0
   -8.7530   16.8810   38.0400 C   0  0  0  0  0  0  0  0  0  0  0  0
  -10.0600   16.7300   38.5320 C   0  0  0  0  0  0  0  0  0  0  0  0
  -10.3690   15.6310   39.3840 C   0  0  0  0  0  0  0  0  0  0  0  0
  -14.6469   17.8527   43.3969 H   0  0  0  0  0  0  0  0  0  0  0  0
  -15.9718   16.4828   45.0123 H   0  0  0  0  0  0  0  0  0  0  0  0
  -17.0776   14.3970   44.2489 H   0  0  0  0  0  0  0  0  0  0  0  0
  -15.5553   15.0427   40.2427 H   0  0  0  0  0  0  0  0  0  0  0  0
  -19.0075   13.6442   42.8214 H   0  0  0  0  0  0  0  0  0  0  0  0
  -19.6279   11.3455   41.8438 H   0  0  0  0  0  0  0  0  0  0  0  0
  -15.9340   10.7096   38.5614 H   0  0  0  0  0  0  0  0  0  0  0  0
  -13.4182   10.7541   37.9709 H   0  0  0  0  0  0  0  0  0  0  0  0
  -13.8219   13.0422   41.5068 H   0  0  0  0  0  0  0  0  0  0  0  0
  -11.7793   13.6799   41.2148 H   0  0  0  0  0  0  0  0  0  0  0  0
   -9.1342   12.6217   40.3130 H   0  0  0  0  0  0  0  0  0  0  0  0
   -9.4196   13.7521   41.6795 H   0  0  0  0  0  0  0  0  0  0  0  0
   -7.2774   14.1396   39.4988 H   0  0  0  0  0  0  0  0  0  0  0  0
   -6.7419   16.0706   38.0086 H   0  0  0  0  0  0  0  0  0  0  0  0
   -8.5128   17.7150   37.3906 H   0  0  0  0  0  0  0  0  0  0  0  0
  -10.8291   17.4457   38.2649 H   0  0  0  0  0  0  0  0  0  0  0  0
  -11.3769   15.5146   39.7658 H   0  0  0  0  0  0  0  0  0  0  0  0
  1  2  2  0  0  0  0
  1  6  1  0  0  0  0
  1  8  1  0  0  0  0
  2  3  1  0  0  0  0
  2 28  1  0  0  0  0
  3  4  2  0  0  0  0
  3 29  1  0  0  0  0
  4  5  1  0  0  0  0
  4 30  1  0  0  0  0
  5  6  2  0  0  0  0
  5  7  1  0  0  0  0
  6 31  1  0  0  0  0
  7  9  2  0  0  0  0
  7 12  1  0  0  0  0
  9 10  1  0  0  0  0
  9 32  1  0  0  0  0
 10 11  1  0  0  0  0
 10 33  1  0  0  0  0
 11 12  2  0  0  0  0
 12 13  1  0  0  0  0
 13 14  2  0  0  0  0
 13 17  1  0  0  0  0
 14 15  1  0  0  0  0
 14 34  1  0  0  0  0
 15 16  1  0  0  0  0
 15 35  1  0  0  0  0
 16 17  2  0  0  0  0
 16 18  1  0  0  0  0
 17 36  1  0  0  0  0
 18 19  2  0  0  0  0
 18 20  1  0  0  0  0
 20 21  1  0  0  0  0
 20 37  1  0  0  0  0
 21 22  1  0  0  0  0
 21 38  1  0  0  0  0
 21 39  1  0  0  0  0
 22 23  2  0  0  0  0
 22 27  1  0  0  0  0
 23 24  1  0  0  0  0
 23 40  1  0  0  0  0
 24 25  2  0  0  0  0
 24 41  1  0  0  0  0
 25 26  1  0  0  0  0
 25 42  1  0  0  0  0
 26 27  2  0  0  0  0
 26 43  1  0  0  0  0
 27 44  1  0  0  0  0
M  END
