2onb_ligand
 OpenBabel08222323343D

 17 16  0  0  0  0  0  0  0  0999 V2000
   51.4810  -14.0090   24.8910 O   0  0  0  0  0  1  0  0  0  0  0  0
   52.7180  -12.7770   26.7340 O   0  0  0  0  0  1  0  0  0  0  0  0
   50.8790  -17.6940   26.8310 C   0  0  0  0  0  0  0  0  0  0  0  0
   51.3140  -16.5480   27.7530 C   0  0  0  0  0  0  0  0  0  0  0  0
   50.4480  -19.4620   27.1570 P   0  0  0  0  0  0  0  0  0  0  0  0
   52.0970  -15.4400   27.0350 C   0  0  0  0  0  0  0  0  0  0  0  0
   51.5920  -13.7620   26.4150 P   0  0  0  0  0  0  0  0  0  0  0  0
   51.5400  -19.8480   28.1780 O   0  0  0  0  0  1  0  0  0  0  0  0
   50.6270  -20.2640   25.8670 O   0  0  0  0  0  1  0  0  0  0  0  0
   50.2560  -13.3580   27.0200 O   0  0  0  0  0  0  0  0  0  0  0  0
   49.0530  -19.5720   27.7130 O   0  0  0  0  0  0  0  0  0  0  0  0
   51.6990  -17.7607   26.1009 H   0  0  0  0  0  0  0  0  0  0  0  0
   49.9795  -17.2980   26.3370 H   0  0  0  0  0  0  0  0  0  0  0  0
   51.9511  -16.9643   28.5472 H   0  0  0  0  0  0  0  0  0  0  0  0
   50.4137  -16.1022   28.2010 H   0  0  0  0  0  0  0  0  0  0  0  0
   52.4879  -15.9404   26.1368 H   0  0  0  0  0  0  0  0  0  0  0  0
   52.9266  -15.2220   27.7237 H   0  0  0  0  0  0  0  0  0  0  0  0
  3  5  1  0  0  0  0
  3 12  1  0  0  0  0
  3 13  1  0  0  0  0
  4  3  1  0  0  0  0
  4 14  1  0  0  0  0
  4 15  1  0  0  0  0
  5  8  1  0  0  0  0
  5  9  1  0  0  0  0
  5 11  2  0  0  0  0
  6  4  1  0  0  0  0
  6  7  1  0  0  0  0
  6 16  1  0  0  0  0
  6 17  1  0  0  0  0
  7  1  1  0  0  0  0
  7  2  1  0  0  0  0
  7 10  2  0  0  0  0
M  END
