2ony_ligand
 OpenBabel08222323343D

 37 39  0  0  0  0  0  0  0  0999 V2000
   28.9560   46.0530   19.3380 C   0  0  0  0  0  0  0  0  0  0  0  0
   26.8880   44.9480   12.0170 C   0  0  0  0  0  0  0  0  0  0  0  0
   25.1990   46.4240   10.3670 C   0  0  0  0  0  0  0  0  0  0  0  0
   24.9650   46.3800   11.7390 C   0  0  0  0  0  0  0  0  0  0  0  0
   26.2700   45.7260    9.8210 C   0  0  0  0  0  0  0  0  0  0  0  0
   25.8090   45.6430   12.5630 C   0  0  0  0  0  0  0  0  0  0  0  0
   27.1150   44.9840   10.6470 C   0  0  0  0  0  0  0  0  0  0  0  0
   28.1800   46.1170   16.9370 C   0  0  0  0  0  0  0  0  0  0  0  0
   28.5290   43.9580   17.9440 C   0  0  0  0  0  0  0  0  0  0  0  0
   29.0420   45.0830   20.5150 C   0  0  0  0  0  0  0  0  0  0  0  0
   28.9000   43.0900   19.1510 C   0  0  0  0  0  0  0  0  0  0  0  0
   24.1780   47.3640    9.3320 Cl  0  0  0  0  0  0  0  0  0  0  0  0
   27.8280   44.2200   12.8850 N   0  0  0  0  0  0  0  0  0  0  0  0
   27.3180   43.3370   14.1570 S   0  0  0  0  0  0  0  0  0  0  0  0
   25.8960   43.2050   14.1190 O   0  0  0  0  0  0  0  0  0  0  0  0
   27.9440   41.9760   14.0780 O   0  0  0  0  0  0  0  0  0  0  0  0
   27.7920   44.1160   15.6510 C   0  0  0  0  0  0  0  0  0  0  0  0
   28.1550   43.3450   16.7510 C   0  0  0  0  0  0  0  0  0  0  0  0
   27.8030   45.5050   15.7450 C   0  0  0  0  0  0  0  0  0  0  0  0
   28.5450   45.3460   18.0390 C   0  0  0  0  0  0  0  0  0  0  0  0
   29.7350   43.8580   20.0840 N   0  3  0  0  0  0  0  0  0  0  0  0
   29.9404   46.5214   19.1912 H   0  0  0  0  0  0  0  0  0  0  0  0
   28.2118   46.8288   19.5708 H   0  0  0  0  0  0  0  0  0  0  0  0
   24.1263   46.9193   12.1642 H   0  0  0  0  0  0  0  0  0  0  0  0
   26.4489   45.7582    8.7523 H   0  0  0  0  0  0  0  0  0  0  0  0
   25.6279   45.6087   13.6312 H   0  0  0  0  0  0  0  0  0  0  0  0
   27.9475   44.4364   10.2202 H   0  0  0  0  0  0  0  0  0  0  0  0
   28.1897   47.1986   17.0084 H   0  0  0  0  0  0  0  0  0  0  0  0
   28.0279   44.8304   20.8583 H   0  0  0  0  0  0  0  0  0  0  0  0
   29.6015   45.5519   21.3379 H   0  0  0  0  0  0  0  0  0  0  0  0
   29.4569   42.2061   18.8067 H   0  0  0  0  0  0  0  0  0  0  0  0
   27.9819   42.7680   19.6642 H   0  0  0  0  0  0  0  0  0  0  0  0
   28.8074   44.2685   12.6888 H   0  0  0  0  0  0  0  0  0  0  0  0
   28.1466   42.2634   16.6789 H   0  0  0  0  0  0  0  0  0  0  0  0
   27.5184   46.1091   14.8911 H   0  0  0  0  0  0  0  0  0  0  0  0
   29.9365   43.2901   20.8920 H   0  0  0  0  0  0  0  0  0  0  0  0
   30.5973   44.1092   19.6264 H   0  0  0  0  0  0  0  0  0  0  0  0
  1 10  1  0  0  0  0
  1 22  1  0  0  0  0
  1 23  1  0  0  0  0
  2  6  2  0  0  0  0
  2  7  1  0  0  0  0
  3 12  1  0  0  0  0
  4  3  2  0  0  0  0
  4 24  1  0  0  0  0
  5  3  1  0  0  0  0
  5 25  1  0  0  0  0
  6  4  1  0  0  0  0
  6 26  1  0  0  0  0
  7  5  2  0  0  0  0
  7 27  1  0  0  0  0
  8 19  2  0  0  0  0
  8 28  1  0  0  0  0
  9 11  1  0  0  0  0
  9 20  2  0  0  0  0
 10 29  1  0  0  0  0
 10 30  1  0  0  0  0
 11 21  1  0  0  0  0
 11 31  1  0  0  0  0
 11 32  1  0  0  0  0
 13  2  1  0  0  0  0
 13 33  1  0  0  0  0
 14 13  1  0  0  0  0
 14 15  2  0  0  0  0
 14 16  2  0  0  0  0
 17 14  1  0  0  0  0
 17 18  2  0  0  0  0
 17 19  1  0  0  0  0
 18  9  1  0  0  0  0
 18 34  1  0  0  0  0
 19 35  1  0  0  0  0
 20  1  1  0  0  0  0
 20  8  1  0  0  0  0
 21 10  1  0  0  0  0
 21 36  1  0  0  0  0
 21 37  1  0  0  0  0
M  CHG  1  21   1
M  END
