2op9_ligand
 OpenBabel08222323343D

 55 56  0  0  1  0  0  0  0  0999 V2000
   -6.5520   28.5150   71.1060 O   0  0  0  0  0  0  0  0  0  0  0  0
   -6.5250   27.8900   72.1570 C   0  0  0  0  0  0  0  0  0  0  0  0
   -6.2310   26.4680   72.1340 O   0  0  0  0  0  0  0  0  0  0  0  0
   -5.5160   25.8180   71.0780 C   0  0  0  0  0  0  0  0  0  0  0  0
   -4.1610   26.4210   70.7410 C   0  0  0  0  0  0  0  0  0  0  0  0
   -3.4620   25.9000   69.6440 C   0  0  0  0  0  0  0  0  0  0  0  0
   -2.2190   26.4200   69.2890 C   0  0  0  0  0  0  0  0  0  0  0  0
   -1.6640   27.4620   70.0320 C   0  0  0  0  0  0  0  0  0  0  0  0
   -2.3460   27.9720   71.1330 C   0  0  0  0  0  0  0  0  0  0  0  0
   -3.5920   27.4590   71.4880 C   0  0  0  0  0  0  0  0  0  0  0  0
   -6.6950   28.3820   73.3840 N   0  0  0  0  0  0  0  0  0  0  0  0
   -6.9660   29.7610   73.7370 C   0  0  1  0  0  0  0  0  0  0  0  0
   -8.1050   29.7830   74.7610 C   0  0  0  0  0  0  0  0  0  0  0  0
   -9.3070   29.0590   74.1810 C   0  0  0  0  0  0  0  0  0  0  0  0
   -9.4620   27.6780   74.3360 C   0  0  0  0  0  0  0  0  0  0  0  0
  -10.5700   27.0350   73.7840 C   0  0  0  0  0  0  0  0  0  0  0  0
  -11.5180   27.7770   73.0800 C   0  0  0  0  0  0  0  0  0  0  0  0
  -11.3540   29.1540   72.9310 C   0  0  0  0  0  0  0  0  0  0  0  0
  -10.2570   29.7940   73.4820 C   0  0  0  0  0  0  0  0  0  0  0  0
   -5.7340   30.4410   74.3020 C   0  0  0  0  0  0  0  0  0  0  0  0
   -4.6870   29.8150   74.4860 O   0  0  0  0  0  0  0  0  0  0  0  0
   -5.8250   31.7550   74.5470 N   0  0  0  0  0  0  0  0  0  0  0  0
   -4.6800   32.5560   74.9540 C   0  0  2  0  0  0  0  0  0  0  0  0
   -5.1140   33.7280   75.8440 C   0  0  0  0  0  0  0  0  0  0  0  0
   -3.8920   33.0250   73.7460 C   0  0  0  0  0  0  0  0  0  0  0  0
   -3.2570   34.0880   73.8110 O   0  0  0  0  0  0  0  0  0  0  0  0
   -3.8880   32.1160   72.5040 C   0  0  0  0  0  0  0  0  0  0  0  0
   -3.0880   32.6100   71.2980 C   0  0  0  0  0  0  0  0  0  0  0  0
   -2.5760   31.4720   70.6260 O   0  0  0  0  0  0  0  0  0  0  0  0
   -6.1392   25.8561   70.1724 H   0  0  0  0  0  0  0  0  0  0  0  0
   -5.3577   24.7695   71.3704 H   0  0  0  0  0  0  0  0  0  0  0  0
   -3.8907   25.0877   69.0682 H   0  0  0  0  0  0  0  0  0  0  0  0
   -1.6843   26.0156   68.4371 H   0  0  0  0  0  0  0  0  0  0  0  0
   -0.7015   27.8746   69.7519 H   0  0  0  0  0  0  0  0  0  0  0  0
   -1.9057   28.7721   71.7171 H   0  0  0  0  0  0  0  0  0  0  0  0
   -4.1209   27.8640   72.3431 H   0  0  0  0  0  0  0  0  0  0  0  0
   -6.6286   27.7312   74.1403 H   0  0  0  0  0  0  0  0  0  0  0  0
   -7.2822   30.3046   72.8345 H   0  0  0  0  0  0  0  0  0  0  0  0
   -8.3764   30.8245   74.9881 H   0  0  0  0  0  0  0  0  0  0  0  0
   -7.7811   29.2790   75.6835 H   0  0  0  0  0  0  0  0  0  0  0  0
   -8.7215   27.1074   74.8848 H   0  0  0  0  0  0  0  0  0  0  0  0
  -10.6935   25.9645   73.9016 H   0  0  0  0  0  0  0  0  0  0  0  0
  -12.3817   27.2839   72.6489 H   0  0  0  0  0  0  0  0  0  0  0  0
  -12.0907   29.7272   72.3798 H   0  0  0  0  0  0  0  0  0  0  0  0
  -10.1394   30.8656   73.3685 H   0  0  0  0  0  0  0  0  0  0  0  0
   -6.7136   32.2025   74.4464 H   0  0  0  0  0  0  0  0  0  0  0  0
   -4.0179   31.9133   75.5528 H   0  0  0  0  0  0  0  0  0  0  0  0
   -4.2299   34.3141   76.1353 H   0  0  0  0  0  0  0  0  0  0  0  0
   -5.6099   33.3396   76.7458 H   0  0  0  0  0  0  0  0  0  0  0  0
   -5.8133   34.3706   75.2890 H   0  0  0  0  0  0  0  0  0  0  0  0
   -4.9317   31.9861   72.1818 H   0  0  0  0  0  0  0  0  0  0  0  0
   -3.4729   31.1425   72.8040 H   0  0  0  0  0  0  0  0  0  0  0  0
   -2.2596   33.2506   71.6347 H   0  0  0  0  0  0  0  0  0  0  0  0
   -3.7421   33.1811   70.6228 H   0  0  0  0  0  0  0  0  0  0  0  0
   -3.2968   30.9222   70.3424 H   0  0  0  0  0  0  0  0  0  0  0  0
  1  2  2  0  0  0  0
  2  3  1  0  0  0  0
  2 11  1  0  0  0  0
  3  4  1  0  0  0  0
  4  5  1  0  0  0  0
  4 30  1  0  0  0  0
  4 31  1  0  0  0  0
  5  6  2  0  0  0  0
  5 10  1  0  0  0  0
  6  7  1  0  0  0  0
  6 32  1  0  0  0  0
  7  8  2  0  0  0  0
  7 33  1  0  0  0  0
  8  9  1  0  0  0  0
  8 34  1  0  0  0  0
  9 10  2  0  0  0  0
  9 35  1  0  0  0  0
 10 36  1  0  0  0  0
 11 12  1  0  0  0  0
 11 37  1  0  0  0  0
 12 13  1  0  0  0  0
 12 20  1  0  0  0  0
 12 38  1  6  0  0  0
 13 14  1  0  0  0  0
 13 39  1  0  0  0  0
 13 40  1  0  0  0  0
 14 15  2  0  0  0  0
 14 19  1  0  0  0  0
 15 16  1  0  0  0  0
 15 41  1  0  0  0  0
 16 17  2  0  0  0  0
 16 42  1  0  0  0  0
 17 18  1  0  0  0  0
 17 43  1  0  0  0  0
 18 19  2  0  0  0  0
 18 44  1  0  0  0  0
 19 45  1  0  0  0  0
 20 21  2  0  0  0  0
 20 22  1  0  0  0  0
 22 23  1  0  0  0  0
 22 46  1  0  0  0  0
 23 24  1  0  0  0  0
 23 25  1  0  0  0  0
 23 47  1  1  0  0  0
 24 48  1  0  0  0  0
 24 49  1  0  0  0  0
 24 50  1  0  0  0  0
 25 26  2  0  0  0  0
 25 27  1  0  0  0  0
 27 28  1  0  0  0  0
 27 51  1  0  0  0  0
 27 52  1  0  0  0  0
 28 29  1  0  0  0  0
 28 53  1  0  0  0  0
 28 54  1  0  0  0  0
 29 55  1  0  0  0  0
M  END
