2opb_ligand
 OpenBabel08222323343D

 41 43  0  0  1  0  0  0  0  0999 V2000
   26.1240   45.4710   13.5220 C   0  0  0  0  0  0  0  0  0  0  0  0
   25.3300   46.0950   12.3720 C   0  0  0  0  0  0  0  0  0  0  0  0
   26.5360   46.6830   11.1310 S   0  0  0  0  0  0  0  0  0  0  0  0
   27.6510   45.2680   10.8300 C   0  0  0  0  0  0  0  0  0  0  0  0
   28.1120   44.7800   12.2060 C   0  0  0  0  0  0  0  0  0  0  0  0
   26.9510   44.3630   13.0090 N   0  0  0  0  0  0  0  0  0  0  0  0
   27.4900   43.4300   14.2320 S   0  0  0  0  0  0  0  0  0  0  0  0
   26.3720   42.6830   14.7110 O   0  0  0  0  0  0  0  0  0  0  0  0
   28.5060   42.4870   13.6580 O   0  0  0  0  0  0  0  0  0  0  0  0
   28.2470   44.2400   15.5870 C   0  0  0  0  0  0  0  0  0  0  0  0
   28.5710   43.4640   16.6900 C   0  0  0  0  0  0  0  0  0  0  0  0
   29.1760   44.0360   17.8140 C   0  0  0  0  0  0  0  0  0  0  0  0
   29.4910   43.1460   19.0230 C   0  0  0  0  0  0  0  0  0  0  0  0
   30.3820   43.8280   19.9750 N   0  3  0  0  0  0  0  0  0  0  0  0
   29.8580   45.1650   20.2800 C   0  0  1  0  0  0  0  0  0  0  0  0
   30.5810   45.7710   21.4870 C   0  0  0  0  0  0  0  0  0  0  0  0
   30.1910   45.1340   22.6550 F   0  0  0  0  0  0  0  0  0  0  0  0
   30.0610   46.0630   19.0540 C   0  0  0  0  0  0  0  0  0  0  0  0
   29.4530   45.3920   17.8240 C   0  0  0  0  0  0  0  0  0  0  0  0
   29.1330   46.1760   16.7000 C   0  0  0  0  0  0  0  0  0  0  0  0
   28.5330   45.6070   15.5910 C   0  0  0  0  0  0  0  0  0  0  0  0
   25.4273   45.0864   14.2814 H   0  0  0  0  0  0  0  0  0  0  0  0
   26.7745   46.2342   13.9741 H   0  0  0  0  0  0  0  0  0  0  0  0
   24.7309   46.9394   12.7435 H   0  0  0  0  0  0  0  0  0  0  0  0
   24.6648   45.3429   11.9228 H   0  0  0  0  0  0  0  0  0  0  0  0
   28.5162   45.5864   10.2299 H   0  0  0  0  0  0  0  0  0  0  0  0
   27.1139   44.4660   10.3024 H   0  0  0  0  0  0  0  0  0  0  0  0
   28.6386   45.5952   12.7237 H   0  0  0  0  0  0  0  0  0  0  0  0
   28.7930   43.9254   12.0798 H   0  0  0  0  0  0  0  0  0  0  0  0
   28.3529   42.4022   16.6809 H   0  0  0  0  0  0  0  0  0  0  0  0
   29.9801   42.2254   18.6718 H   0  0  0  0  0  0  0  0  0  0  0  0
   28.5508   42.8900   19.5334 H   0  0  0  0  0  0  0  0  0  0  0  0
   31.3011   43.9137   19.5701 H   0  0  0  0  0  0  0  0  0  0  0  0
   30.4382   43.2892   20.8250 H   0  0  0  0  0  0  0  0  0  0  0  0
   28.7840   45.0902   20.5056 H   0  0  0  0  0  0  0  0  0  0  0  0
   30.3339   46.8405   21.5579 H   0  0  0  0  0  0  0  0  0  0  0  0
   31.6667   45.6534   21.3555 H   0  0  0  0  0  0  0  0  0  0  0  0
   31.1370   46.2221   18.8903 H   0  0  0  0  0  0  0  0  0  0  0  0
   29.5687   47.0319   19.2238 H   0  0  0  0  0  0  0  0  0  0  0  0
   29.3589   47.2362   16.7033 H   0  0  0  0  0  0  0  0  0  0  0  0
   28.2864   46.2183   14.7305 H   0  0  0  0  0  0  0  0  0  0  0  0
  1  2  1  0  0  0  0
  1  6  1  0  0  0  0
  1 22  1  0  0  0  0
  1 23  1  0  0  0  0
  2  3  1  0  0  0  0
  2 24  1  0  0  0  0
  2 25  1  0  0  0  0
  3  4  1  0  0  0  0
  4  5  1  0  0  0  0
  4 26  1  0  0  0  0
  4 27  1  0  0  0  0
  5  6  1  0  0  0  0
  5 28  1  0  0  0  0
  5 29  1  0  0  0  0
  6  7  1  0  0  0  0
  7  8  2  0  0  0  0
  7  9  2  0  0  0  0
  7 10  1  0  0  0  0
 10 11  2  0  0  0  0
 10 21  1  0  0  0  0
 11 12  1  0  0  0  0
 11 30  1  0  0  0  0
 12 13  1  0  0  0  0
 12 19  2  0  0  0  0
 13 14  1  0  0  0  0
 13 31  1  0  0  0  0
 13 32  1  0  0  0  0
 14 15  1  0  0  0  0
 14 33  1  0  0  0  0
 14 34  1  0  0  0  0
 15 16  1  0  0  0  0
 15 18  1  0  0  0  0
 15 35  1  1  0  0  0
 16 17  1  0  0  0  0
 16 36  1  0  0  0  0
 16 37  1  0  0  0  0
 18 19  1  0  0  0  0
 18 38  1  0  0  0  0
 18 39  1  0  0  0  0
 19 20  1  0  0  0  0
 20 21  2  0  0  0  0
 20 40  1  0  0  0  0
 21 41  1  0  0  0  0
M  CHG  1  14   1
M  END
