2opy_ligand
 OpenBabel08222323343D

 57 60  0  0  1  0  0  0  0  0999 V2000
  -16.0130  -21.6030   -0.5070 C   0  0  0  0  0  0  0  0  0  0  0  0
  -15.8870  -19.2000    0.0770 N   0  3  0  0  0  0  0  0  0  0  0  0
  -13.4710  -19.8500   -5.5660 O   0  0  0  0  0  0  0  0  0  0  0  0
  -15.3910  -20.2460   -0.8210 C   0  0  2  0  0  0  0  0  0  0  0  0
  -14.8290  -19.9790   -3.1910 N   0  0  0  0  0  0  0  0  0  0  0  0
  -13.6600  -17.0960   -7.4970 O   0  0  0  0  0  0  0  0  0  0  0  0
  -15.6800  -19.8770   -2.2450 C   0  0  0  0  0  0  0  0  0  0  0  0
  -15.2030  -19.3050   -6.8670 N   0  0  0  0  0  0  0  0  0  0  0  0
  -11.5850  -16.3600  -11.2160 O   0  5  0  0  0  0  0  0  0  0  0  0
  -15.3870  -19.5710   -4.3420 C   0  0  0  0  0  0  0  0  0  0  0  0
  -12.1310  -18.4170   -8.4490 N   0  0  0  0  0  0  0  0  0  0  0  0
  -11.8710  -18.5660  -11.2190 O   0  0  0  0  0  0  0  0  0  0  0  0
  -14.6560  -19.5700   -5.6260 C   0  0  0  0  0  0  0  0  0  0  0  0
   -8.2050  -20.5510  -10.3910 N   0  0  0  0  0  0  0  0  0  0  0  0
  -16.8310  -19.3990   -2.7340 O   0  0  0  0  0  0  0  0  0  0  0  0
  -16.6210  -19.0390   -7.2240 C   0  0  0  0  0  0  0  0  0  0  0  0
  -16.7400  -19.4340   -8.7130 C   0  0  0  0  0  0  0  0  0  0  0  0
  -15.3830  -18.9390   -9.2710 C   0  0  0  0  0  0  0  0  0  0  0  0
  -14.4180  -19.2460   -8.1150 C   0  0  1  0  0  0  0  0  0  0  0  0
  -13.3780  -18.1660   -8.0110 C   0  0  0  0  0  0  0  0  0  0  0  0
  -11.3170  -17.3860   -9.0940 C   0  0  1  0  0  0  0  0  0  0  0  0
   -9.8060  -17.6140   -8.7860 C   0  0  0  0  0  0  0  0  0  0  0  0
   -9.2850  -18.9840   -9.2280 C   0  0  0  0  0  0  0  0  0  0  0  0
   -8.4750  -19.2130  -10.2800 C   0  0  0  0  0  0  0  0  0  0  0  0
   -8.8410  -21.2490   -9.3960 C   0  0  0  0  0  0  0  0  0  0  0  0
   -8.8990  -22.6230   -9.0570 C   0  0  0  0  0  0  0  0  0  0  0  0
   -9.6530  -23.0390   -7.9540 C   0  0  0  0  0  0  0  0  0  0  0  0
  -10.3600  -22.0940   -7.1740 C   0  0  0  0  0  0  0  0  0  0  0  0
  -10.3150  -20.7400   -7.4940 C   0  0  0  0  0  0  0  0  0  0  0  0
   -9.5560  -20.2970   -8.6090 C   0  0  0  0  0  0  0  0  0  0  0  0
  -11.5980  -17.3970  -10.5920 C   0  0  0  0  0  0  0  0  0  0  0  0
  -16.6630  -19.2010   -4.0500 C   0  0  0  0  0  0  0  0  0  0  0  0
  -15.6155  -22.3580   -1.2013 H   0  0  0  0  0  0  0  0  0  0  0  0
  -17.1054  -21.5405   -0.6195 H   0  0  0  0  0  0  0  0  0  0  0  0
  -15.7665  -21.8891    0.5261 H   0  0  0  0  0  0  0  0  0  0  0  0
  -15.4550  -18.3208   -0.1604 H   0  0  0  0  0  0  0  0  0  0  0  0
  -15.6601  -19.4395    1.0295 H   0  0  0  0  0  0  0  0  0  0  0  0
  -16.8871  -19.1200   -0.0203 H   0  0  0  0  0  0  0  0  0  0  0  0
  -14.3016  -20.3254   -0.6907 H   0  0  0  0  0  0  0  0  0  0  0  0
  -11.7496  -19.3338   -8.3305 H   0  0  0  0  0  0  0  0  0  0  0  0
   -7.6095  -20.9729  -11.1178 H   0  0  0  0  0  0  0  0  0  0  0  0
  -16.8611  -17.9744   -7.0862 H   0  0  0  0  0  0  0  0  0  0  0  0
  -17.2961  -19.6501   -6.6069 H   0  0  0  0  0  0  0  0  0  0  0  0
  -17.5847  -18.9232   -9.1983 H   0  0  0  0  0  0  0  0  0  0  0  0
  -16.8513  -20.5218   -8.8329 H   0  0  0  0  0  0  0  0  0  0  0  0
  -15.4120  -17.8613   -9.4894 H   0  0  0  0  0  0  0  0  0  0  0  0
  -15.1021  -19.4901  -10.1806 H   0  0  0  0  0  0  0  0  0  0  0  0
  -13.9240  -20.2130   -8.2904 H   0  0  0  0  0  0  0  0  0  0  0  0
  -11.6057  -16.4037   -8.6919 H   0  0  0  0  0  0  0  0  0  0  0  0
   -9.6552  -17.5194   -7.7005 H   0  0  0  0  0  0  0  0  0  0  0  0
   -9.2251  -16.8379   -9.3059 H   0  0  0  0  0  0  0  0  0  0  0  0
   -8.0897  -18.4434  -10.9473 H   0  0  0  0  0  0  0  0  0  0  0  0
   -8.3598  -23.3517   -9.6515 H   0  0  0  0  0  0  0  0  0  0  0  0
   -9.6956  -24.0910   -7.6959 H   0  0  0  0  0  0  0  0  0  0  0  0
  -10.9408  -22.4266   -6.3213 H   0  0  0  0  0  0  0  0  0  0  0  0
  -10.8602  -20.0229   -6.8910 H   0  0  0  0  0  0  0  0  0  0  0  0
  -17.4047  -18.8181   -4.7494 H   0  0  0  0  0  0  0  0  0  0  0  0
  1 33  1  0  0  0  0
  1 34  1  0  0  0  0
  1 35  1  0  0  0  0
  2 36  1  0  0  0  0
  2 37  1  0  0  0  0
  2 38  1  0  0  0  0
  4  1  1  0  0  0  0
  4  2  1  0  0  0  0
  4 39  1  1  0  0  0
  5  7  2  0  0  0  0
  7  4  1  0  0  0  0
  8 13  1  0  0  0  0
  8 16  1  0  0  0  0
 10  5  1  0  0  0  0
 10 32  2  0  0  0  0
 11 20  1  0  0  0  0
 11 40  1  0  0  0  0
 13  3  2  0  0  0  0
 13 10  1  0  0  0  0
 14 25  1  0  0  0  0
 14 41  1  0  0  0  0
 15  7  1  0  0  0  0
 16 42  1  0  0  0  0
 16 43  1  0  0  0  0
 17 16  1  0  0  0  0
 17 44  1  0  0  0  0
 17 45  1  0  0  0  0
 18 17  1  0  0  0  0
 18 46  1  0  0  0  0
 18 47  1  0  0  0  0
 19  8  1  0  0  0  0
 19 18  1  0  0  0  0
 19 48  1  6  0  0  0
 20  6  2  0  0  0  0
 20 19  1  0  0  0  0
 21 11  1  0  0  0  0
 21 31  1  0  0  0  0
 21 49  1  1  0  0  0
 22 21  1  0  0  0  0
 22 50  1  0  0  0  0
 22 51  1  0  0  0  0
 23 22  1  0  0  0  0
 23 24  2  0  0  0  0
 23 30  1  0  0  0  0
 24 14  1  0  0  0  0
 24 52  1  0  0  0  0
 25 26  2  0  0  0  0
 25 30  1  0  0  0  0
 26 27  1  0  0  0  0
 26 53  1  0  0  0  0
 27 28  2  0  0  0  0
 27 54  1  0  0  0  0
 28 29  1  0  0  0  0
 28 55  1  0  0  0  0
 29 30  2  0  0  0  0
 29 56  1  0  0  0  0
 31  9  1  0  0  0  0
 31 12  2  0  0  0  0
 32 15  1  0  0  0  0
 32 57  1  0  0  0  0
M  CHG  2   2   1   9  -1
M  END
