2or9_ligand
 OpenBabel08222323343D

181180  0  0  1  0  0  0  0  0999 V2000
   43.1710   46.9300   -2.0440 N   0  3  0  0  0  0  0  0  0  0  0  0
   43.3530   48.3990   -1.8440 C   0  0  2  0  0  0  0  0  0  0  0  0
   44.8410   48.7850   -1.6900 C   0  0  0  0  0  0  0  0  0  0  0  0
   45.6540   48.0020   -1.1690 O   0  0  0  0  0  0  0  0  0  0  0  0
   42.5620   48.8650   -0.6160 C   0  0  0  0  0  0  0  0  0  0  0  0
   42.5120   50.3850   -0.4680 C   0  0  0  0  0  0  0  0  0  0  0  0
   42.0020   50.8840    0.8990 C   0  0  0  0  0  0  0  0  0  0  0  0
   41.9920   52.1210    1.0830 O   0  5  0  0  0  0  0  0  0  0  0  0
   41.6210   50.0690    1.7770 O   0  0  0  0  0  0  0  0  0  0  0  0
   45.1870   49.9860   -2.1650 N   0  0  0  0  0  0  0  0  0  0  0  0
   46.5530   50.5120   -2.0730 C   0  0  2  0  0  0  0  0  0  0  0  0
   46.5210   51.9850   -1.6890 C   0  0  0  0  0  0  0  0  0  0  0  0
   45.8400   52.7840   -2.3310 O   0  0  0  0  0  0  0  0  0  0  0  0
   47.2950   50.3490   -3.3960 C   0  0  0  0  0  0  0  0  0  0  0  0
   47.4670   48.9200   -3.7980 C   0  0  0  0  0  0  0  0  0  0  0  0
   48.3310   48.7610   -5.0240 C   0  0  0  0  0  0  0  0  0  0  0  0
   49.5100   49.1070   -5.0010 O   0  0  0  0  0  0  0  0  0  0  0  0
   47.7510   48.2350   -6.1100 N   0  0  0  0  0  0  0  0  0  0  0  0
   47.2580   52.3320   -0.6400 N   0  0  0  0  0  0  0  0  0  0  0  0
   47.3000   53.6980   -0.1710 C   0  0  2  0  0  0  0  0  0  0  0  0
   48.4540   53.9770    0.7850 C   0  0  0  0  0  0  0  0  0  0  0  0
   48.9760   53.0800    1.4500 O   0  0  0  0  0  0  0  0  0  0  0  0
   45.9930   54.0540    0.5400 C   0  0  0  0  0  0  0  0  0  0  0  0
   45.9410   53.5810    1.9880 C   0  0  0  0  0  0  0  0  0  0  0  0
   44.6720   54.0240    2.6990 C   0  0  0  0  0  0  0  0  0  0  0  0
   44.7590   53.7020    4.1880 C   0  0  0  0  0  0  0  0  0  0  0  0
   43.4310   53.6660    4.8450 N   0  3  0  0  0  0  0  0  0  0  0  0
   48.8350   55.2470    0.8540 N   0  0  0  0  0  0  0  0  0  0  0  0
   49.9010   55.6710    1.7320 C   0  0  2  0  0  0  0  0  0  0  0  0
   49.2880   55.8420    3.1070 C   0  0  0  0  0  0  0  0  0  0  0  0
   48.0770   56.0290    3.2340 O   0  0  0  0  0  0  0  0  0  0  0  0
   50.5030   56.9830    1.2290 C   0  0  0  0  0  0  0  0  0  0  0  0
   51.1620   56.9210   -0.1580 C   0  0  0  0  0  0  0  0  0  0  0  0
   51.4590   58.3410   -0.6000 C   0  0  0  0  0  0  0  0  0  0  0  0
   52.4500   56.0890   -0.1380 C   0  0  0  0  0  0  0  0  0  0  0  0
   50.1240   55.7790    4.1330 N   0  0  0  0  0  0  0  0  0  0  0  0
   49.6660   55.8790    5.5120 C   0  0  2  0  0  0  0  0  0  0  0  0
   50.7710   56.3920    6.4160 C   0  0  0  0  0  0  0  0  0  0  0  0
   51.9330   56.4490    6.0300 O   0  0  0  0  0  0  0  0  0  0  0  0
   49.2830   54.5020    6.0350 C   0  0  2  0  0  0  0  0  0  0  0  0
   50.4560   53.5360    5.7710 C   0  0  0  0  0  0  0  0  0  0  0  0
   48.0100   54.0210    5.3590 C   0  0  0  0  0  0  0  0  0  0  0  0
   50.4070   52.2510    6.5290 C   0  0  0  0  0  0  0  0  0  0  0  0
   50.4100   56.7260    7.6440 N   0  0  0  0  0  0  0  0  0  0  0  0
   51.3870   57.2210    8.5890 C   0  0  2  0  0  0  0  0  0  0  0  0
   52.1300   56.0290    9.1820 C   0  0  0  0  0  0  0  0  0  0  0  0
   51.6250   54.9090    9.1690 O   0  0  0  0  0  0  0  0  0  0  0  0
   50.6880   57.9890    9.7050 C   0  0  0  0  0  0  0  0  0  0  0  0
   50.0220   57.0960   10.5810 O   0  0  0  0  0  0  0  0  0  0  0  0
   53.3290   56.2670    9.6950 N   0  0  0  0  0  0  0  0  0  0  0  0
   54.0910   55.2030   10.3070 C   0  0  2  0  0  0  0  0  0  0  0  0
   53.2390   54.6610   11.4540 C   0  0  0  0  0  0  0  0  0  0  0  0
   53.2770   53.4700   11.7540 O   0  0  0  0  0  0  0  0  0  0  0  0
   55.4110   55.7420   10.8560 C   0  0  0  0  0  0  0  0  0  0  0  0
   56.4200   54.6540   11.1900 C   0  0  0  0  0  0  0  0  0  0  0  0
   57.6530   55.1700   11.9300 C   0  0  0  0  0  0  0  0  0  0  0  0
   58.1180   56.2910   11.6200 O   0  5  0  0  0  0  0  0  0  0  0  0
   58.1690   54.4450   12.8120 O   0  0  0  0  0  0  0  0  0  0  0  0
   52.4620   55.5370   12.0860 N   0  0  0  0  0  0  0  0  0  0  0  0
   51.6140   55.1300   13.2020 C   0  0  2  0  0  0  0  0  0  0  0  0
   50.5250   54.1370   12.8070 C   0  0  0  0  0  0  0  0  0  0  0  0
   50.2330   53.2000   13.5580 O   0  0  0  0  0  0  0  0  0  0  0  0
   50.9690   56.3480   13.8620 C   0  0  0  0  0  0  0  0  0  0  0  0
   51.9330   57.1890   14.6910 C   0  0  0  0  0  0  0  0  0  0  0  0
   52.3660   56.5130   15.9840 C   0  0  0  0  0  0  0  0  0  0  0  0
   51.4750   56.0200   16.7140 O   0  5  0  0  0  0  0  0  0  0  0  0
   53.5890   56.4890   16.2760 O   0  0  0  0  0  0  0  0  0  0  0  0
   49.9120   54.3400   11.6430 N   0  0  0  0  0  0  0  0  0  0  0  0
   48.8760   53.4250   11.1930 C   0  0  2  0  0  0  0  0  0  0  0  0
   49.5420   52.1780   10.6440 C   0  0  0  0  0  0  0  0  0  0  0  0
   48.8730   51.2460   10.2090 O   0  0  0  0  0  0  0  0  0  0  0  0
   48.0140   54.0440   10.0870 C   0  0  0  0  0  0  0  0  0  0  0  0
   47.3590   55.3360   10.5080 C   0  0  0  0  0  0  0  0  0  0  0  0
   47.0990   55.4960   11.7160 O   0  5  0  0  0  0  0  0  0  0  0  0
   47.0940   56.1830    9.6230 O   0  0  0  0  0  0  0  0  0  0  0  0
   50.8670   52.1570   10.6670 N   0  0  0  0  0  0  0  0  0  0  0  0
   51.5900   51.0150   10.1430 C   0  0  2  0  0  0  0  0  0  0  0  0
   51.4250   49.7360   10.9550 C   0  0  0  0  0  0  0  0  0  0  0  0
   51.1320   48.6960   10.3910 O   0  0  0  0  0  0  0  0  0  0  0  0
   53.0740   51.3540    9.9910 C   0  0  0  0  0  0  0  0  0  0  0  0
   53.9080   50.2650    9.3140 C   0  0  0  0  0  0  0  0  0  0  0  0
   55.1070   50.8980    8.6350 C   0  0  0  0  0  0  0  0  0  0  0  0
   54.3410   49.2070   10.3340 C   0  0  0  0  0  0  0  0  0  0  0  0
   51.6050   49.8020   12.2700 N   0  0  0  0  0  0  0  0  0  0  0  0
   51.4810   48.6000   13.1030 C   0  0  2  0  0  0  0  0  0  0  0  0
   50.0440   48.1620   13.4310 C   0  0  0  0  0  0  0  0  0  0  0  0
   49.8620   46.9960   13.8540 O   0  5  0  0  0  0  0  0  0  0  0  0
   52.2900   48.7550   14.4050 C   0  0  0  0  0  0  0  0  0  0  0  0
   52.0500   50.0820   15.0970 C   0  0  0  0  0  0  0  0  0  0  0  0
   52.4890   51.1330   14.6180 O   0  0  0  0  0  0  0  0  0  0  0  0
   51.3520   50.0450   16.2320 N   0  0  0  0  0  0  0  0  0  0  0  0
   49.1150   48.9780   13.2710 O   0  0  0  0  0  0  0  0  0  0  0  0
   42.1891   46.7230   -2.1395 H   0  0  0  0  0  0  0  0  0  0  0  0
   43.5431   46.4340   -1.2493 H   0  0  0  0  0  0  0  0  0  0  0  0
   43.6578   46.6416   -2.8782 H   0  0  0  0  0  0  0  0  0  0  0  0
   42.9565   48.9154   -2.7306 H   0  0  0  0  0  0  0  0  0  0  0  0
   43.0334   48.4424    0.2835 H   0  0  0  0  0  0  0  0  0  0  0  0
   41.5318   48.4889   -0.7013 H   0  0  0  0  0  0  0  0  0  0  0  0
   41.8464   50.7833   -1.2479 H   0  0  0  0  0  0  0  0  0  0  0  0
   43.5286   50.7773   -0.6181 H   0  0  0  0  0  0  0  0  0  0  0  0
   44.4851   50.5491   -2.6012 H   0  0  0  0  0  0  0  0  0  0  0  0
   47.0924   49.9522   -1.2948 H   0  0  0  0  0  0  0  0  0  0  0  0
   48.2900   50.8076   -3.2984 H   0  0  0  0  0  0  0  0  0  0  0  0
   46.7274   50.8682   -4.1823 H   0  0  0  0  0  0  0  0  0  0  0  0
   46.4759   48.4915   -4.0079 H   0  0  0  0  0  0  0  0  0  0  0  0
   47.9338   48.3737   -2.9651 H   0  0  0  0  0  0  0  0  0  0  0  0
   48.2812   48.1089   -6.9485 H   0  0  0  0  0  0  0  0  0  0  0  0
   46.7876   47.9682   -6.0827 H   0  0  0  0  0  0  0  0  0  0  0  0
   47.7944   51.6341   -0.1654 H   0  0  0  0  0  0  0  0  0  0  0  0
   47.4159   54.3510   -1.0485 H   0  0  0  0  0  0  0  0  0  0  0  0
   45.1604   53.5892   -0.0083 H   0  0  0  0  0  0  0  0  0  0  0  0
   45.8758   55.1476    0.5265 H   0  0  0  0  0  0  0  0  0  0  0  0
   46.8084   53.9924    2.5251 H   0  0  0  0  0  0  0  0  0  0  0  0
   45.9882   52.4821    2.0023 H   0  0  0  0  0  0  0  0  0  0  0  0
   43.8097   53.4977    2.2638 H   0  0  0  0  0  0  0  0  0  0  0  0
   44.5432   55.1087    2.5693 H   0  0  0  0  0  0  0  0  0  0  0  0
   45.3735   54.4711    4.6789 H   0  0  0  0  0  0  0  0  0  0  0  0
   45.2374   52.7188    4.3079 H   0  0  0  0  0  0  0  0  0  0  0  0
   43.5457   53.4501    5.8229 H   0  0  0  0  0  0  0  0  0  0  0  0
   42.8597   52.9588    4.4095 H   0  0  0  0  0  0  0  0  0  0  0  0
   42.9844   54.5646    4.7495 H   0  0  0  0  0  0  0  0  0  0  0  0
   48.3728   55.9266    0.2843 H   0  0  0  0  0  0  0  0  0  0  0  0
   50.6880   54.9034    1.7675 H   0  0  0  0  0  0  0  0  0  0  0  0
   51.2665   57.3047    1.9526 H   0  0  0  0  0  0  0  0  0  0  0  0
   49.6979   57.7314    1.1882 H   0  0  0  0  0  0  0  0  0  0  0  0
   50.4593   56.4597   -0.8675 H   0  0  0  0  0  0  0  0  0  0  0  0
   51.9324   58.3245   -1.5928 H   0  0  0  0  0  0  0  0  0  0  0  0
   52.1392   58.8153    0.1227 H   0  0  0  0  0  0  0  0  0  0  0  0
   50.5209   58.9131   -0.6506 H   0  0  0  0  0  0  0  0  0  0  0  0
   52.2187   55.0630    0.1841 H   0  0  0  0  0  0  0  0  0  0  0  0
   53.1673   56.5405    0.5631 H   0  0  0  0  0  0  0  0  0  0  0  0
   52.8878   56.0667   -1.1469 H   0  0  0  0  0  0  0  0  0  0  0  0
   51.1007   55.6590    3.9549 H   0  0  0  0  0  0  0  0  0  0  0  0
   48.7998   56.5555    5.5579 H   0  0  0  0  0  0  0  0  0  0  0  0
   49.1052   54.5623    7.1189 H   0  0  0  0  0  0  0  0  0  0  0  0
   51.3891   54.0532    6.0389 H   0  0  0  0  0  0  0  0  0  0  0  0
   50.4645   53.2971    4.6973 H   0  0  0  0  0  0  0  0  0  0  0  0
   47.1946   54.7298    5.5660 H   0  0  0  0  0  0  0  0  0  0  0  0
   47.7405   53.0282    5.7486 H   0  0  0  0  0  0  0  0  0  0  0  0
   48.1732   53.9569    4.2731 H   0  0  0  0  0  0  0  0  0  0  0  0
   51.2835   51.6389    6.2699 H   0  0  0  0  0  0  0  0  0  0  0  0
   49.4884   51.7055    6.2670 H   0  0  0  0  0  0  0  0  0  0  0  0
   50.4131   52.4616    7.6086 H   0  0  0  0  0  0  0  0  0  0  0  0
   49.4535   56.6355    7.9214 H   0  0  0  0  0  0  0  0  0  0  0  0
   52.0973   57.8852    8.0749 H   0  0  0  0  0  0  0  0  0  0  0  0
   49.9533   58.6790    9.2644 H   0  0  0  0  0  0  0  0  0  0  0  0
   51.4354   58.5627   10.2727 H   0  0  0  0  0  0  0  0  0  0  0  0
   49.3740   56.6007   10.0939 H   0  0  0  0  0  0  0  0  0  0  0  0
   53.7094   57.1911    9.6580 H   0  0  0  0  0  0  0  0  0  0  0  0
   54.2935   54.4094    9.5727 H   0  0  0  0  0  0  0  0  0  0  0  0
   55.1995   56.3134   11.7719 H   0  0  0  0  0  0  0  0  0  0  0  0
   55.8550   56.4087   10.1022 H   0  0  0  0  0  0  0  0  0  0  0  0
   56.7490   54.1846   10.2512 H   0  0  0  0  0  0  0  0  0  0  0  0
   55.9245   53.9022   11.8219 H   0  0  0  0  0  0  0  0  0  0  0  0
   52.4590   56.4924   11.7907 H   0  0  0  0  0  0  0  0  0  0  0  0
   52.2606   54.6388   13.9440 H   0  0  0  0  0  0  0  0  0  0  0  0
   50.1618   55.9968   14.5215 H   0  0  0  0  0  0  0  0  0  0  0  0
   50.5457   56.9856   13.0719 H   0  0  0  0  0  0  0  0  0  0  0  0
   51.4392   58.1391   14.9427 H   0  0  0  0  0  0  0  0  0  0  0  0
   52.8292   57.3905   14.0858 H   0  0  0  0  0  0  0  0  0  0  0  0
   50.1649   55.1243   11.0765 H   0  0  0  0  0  0  0  0  0  0  0  0
   48.2333   53.1598   12.0454 H   0  0  0  0  0  0  0  0  0  0  0  0
   47.2281   53.3256    9.8109 H   0  0  0  0  0  0  0  0  0  0  0  0
   48.6527   54.2425    9.2137 H   0  0  0  0  0  0  0  0  0  0  0  0
   51.3704   52.9327   11.0477 H   0  0  0  0  0  0  0  0  0  0  0  0
   51.1865   50.8127    9.1399 H   0  0  0  0  0  0  0  0  0  0  0  0
   53.4902   51.5318   10.9936 H   0  0  0  0  0  0  0  0  0  0  0  0
   53.1568   52.2725    9.3914 H   0  0  0  0  0  0  0  0  0  0  0  0
   53.2908   49.7738    8.5474 H   0  0  0  0  0  0  0  0  0  0  0  0
   55.7077   50.1158    8.1477 H   0  0  0  0  0  0  0  0  0  0  0  0
   55.7211   51.4179    9.3851 H   0  0  0  0  0  0  0  0  0  0  0  0
   54.7621   51.6194    7.8796 H   0  0  0  0  0  0  0  0  0  0  0  0
   53.4504   48.7681   10.8075 H   0  0  0  0  0  0  0  0  0  0  0  0
   54.9719   49.6760   11.1034 H   0  0  0  0  0  0  0  0  0  0  0  0
   54.9115   48.4172    9.8234 H   0  0  0  0  0  0  0  0  0  0  0  0
   51.8271   50.6790   12.6960 H   0  0  0  0  0  0  0  0  0  0  0  0
   51.9340   47.7783   12.5288 H   0  0  0  0  0  0  0  0  0  0  0  0
   53.3603   48.6737   14.1645 H   0  0  0  0  0  0  0  0  0  0  0  0
   52.0061   47.9447   15.0927 H   0  0  0  0  0  0  0  0  0  0  0  0
   51.1637   50.8909   16.7310 H   0  0  0  0  0  0  0  0  0  0  0  0
   51.0167   49.1713   16.5845 H   0  0  0  0  0  0  0  0  0  0  0  0
  1  2  1  0  0  0  0
  1 93  1  0  0  0  0
  1 94  1  0  0  0  0
  1 95  1  0  0  0  0
  2  3  1  0  0  0  0
  2  5  1  0  0  0  0
  2 96  1  6  0  0  0
  3  4  2  0  0  0  0
  3 10  1  0  0  0  0
  5  6  1  0  0  0  0
  5 97  1  0  0  0  0
  5 98  1  0  0  0  0
  6  7  1  0  0  0  0
  6 99  1  0  0  0  0
  6100  1  0  0  0  0
  7  8  1  0  0  0  0
  7  9  2  0  0  0  0
 10 11  1  0  0  0  0
 10101  1  0  0  0  0
 11 12  1  0  0  0  0
 11 14  1  0  0  0  0
 11102  1  1  0  0  0
 12 13  2  0  0  0  0
 12 19  1  0  0  0  0
 14 15  1  0  0  0  0
 14103  1  0  0  0  0
 14104  1  0  0  0  0
 15 16  1  0  0  0  0
 15105  1  0  0  0  0
 15106  1  0  0  0  0
 16 17  2  0  0  0  0
 16 18  1  0  0  0  0
 18107  1  0  0  0  0
 18108  1  0  0  0  0
 19 20  1  0  0  0  0
 19109  1  0  0  0  0
 20 21  1  0  0  0  0
 20 23  1  0  0  0  0
 20110  1  6  0  0  0
 21 22  2  0  0  0  0
 21 28  1  0  0  0  0
 23 24  1  0  0  0  0
 23111  1  0  0  0  0
 23112  1  0  0  0  0
 24 25  1  0  0  0  0
 24113  1  0  0  0  0
 24114  1  0  0  0  0
 25 26  1  0  0  0  0
 25115  1  0  0  0  0
 25116  1  0  0  0  0
 26 27  1  0  0  0  0
 26117  1  0  0  0  0
 26118  1  0  0  0  0
 27119  1  0  0  0  0
 27120  1  0  0  0  0
 27121  1  0  0  0  0
 28 29  1  0  0  0  0
 28122  1  0  0  0  0
 29 30  1  0  0  0  0
 29 32  1  0  0  0  0
 29123  1  1  0  0  0
 30 31  2  0  0  0  0
 30 36  1  0  0  0  0
 32 33  1  0  0  0  0
 32124  1  0  0  0  0
 32125  1  0  0  0  0
 33 34  1  0  0  0  0
 33 35  1  0  0  0  0
 33126  1  0  0  0  0
 34127  1  0  0  0  0
 34128  1  0  0  0  0
 34129  1  0  0  0  0
 35130  1  0  0  0  0
 35131  1  0  0  0  0
 35132  1  0  0  0  0
 36 37  1  0  0  0  0
 36133  1  0  0  0  0
 37 38  1  0  0  0  0
 37 40  1  0  0  0  0
 37134  1  1  0  0  0
 38 39  2  0  0  0  0
 38 44  1  0  0  0  0
 40 41  1  0  0  0  0
 40 42  1  0  0  0  0
 40135  1  1  0  0  0
 41 43  1  0  0  0  0
 41136  1  0  0  0  0
 41137  1  0  0  0  0
 42138  1  0  0  0  0
 42139  1  0  0  0  0
 42140  1  0  0  0  0
 43141  1  0  0  0  0
 43142  1  0  0  0  0
 43143  1  0  0  0  0
 44 45  1  0  0  0  0
 44144  1  0  0  0  0
 45 46  1  0  0  0  0
 45 48  1  0  0  0  0
 45145  1  6  0  0  0
 46 47  2  0  0  0  0
 46 50  1  0  0  0  0
 48 49  1  0  0  0  0
 48146  1  0  0  0  0
 48147  1  0  0  0  0
 49148  1  0  0  0  0
 50 51  1  0  0  0  0
 50149  1  0  0  0  0
 51 52  1  0  0  0  0
 51 54  1  0  0  0  0
 51150  1  6  0  0  0
 52 53  2  0  0  0  0
 52 59  1  0  0  0  0
 54 55  1  0  0  0  0
 54151  1  0  0  0  0
 54152  1  0  0  0  0
 55 56  1  0  0  0  0
 55153  1  0  0  0  0
 55154  1  0  0  0  0
 56 57  1  0  0  0  0
 56 58  2  0  0  0  0
 59 60  1  0  0  0  0
 59155  1  0  0  0  0
 60 61  1  0  0  0  0
 60 63  1  0  0  0  0
 60156  1  1  0  0  0
 61 62  2  0  0  0  0
 61 68  1  0  0  0  0
 63 64  1  0  0  0  0
 63157  1  0  0  0  0
 63158  1  0  0  0  0
 64 65  1  0  0  0  0
 64159  1  0  0  0  0
 64160  1  0  0  0  0
 65 66  1  0  0  0  0
 65 67  2  0  0  0  0
 68 69  1  0  0  0  0
 68161  1  0  0  0  0
 69 70  1  0  0  0  0
 69 72  1  0  0  0  0
 69162  1  1  0  0  0
 70 71  2  0  0  0  0
 70 76  1  0  0  0  0
 72 73  1  0  0  0  0
 72163  1  0  0  0  0
 72164  1  0  0  0  0
 73 74  1  0  0  0  0
 73 75  2  0  0  0  0
 76 77  1  0  0  0  0
 76165  1  0  0  0  0
 77 78  1  0  0  0  0
 77 80  1  0  0  0  0
 77166  1  6  0  0  0
 78 79  2  0  0  0  0
 78 84  1  0  0  0  0
 80 81  1  0  0  0  0
 80167  1  0  0  0  0
 80168  1  0  0  0  0
 81 82  1  0  0  0  0
 81 83  1  0  0  0  0
 81169  1  0  0  0  0
 82170  1  0  0  0  0
 82171  1  0  0  0  0
 82172  1  0  0  0  0
 83173  1  0  0  0  0
 83174  1  0  0  0  0
 83175  1  0  0  0  0
 84 85  1  0  0  0  0
 84176  1  0  0  0  0
 85 86  1  0  0  0  0
 85 88  1  0  0  0  0
 85177  1  6  0  0  0
 86 87  1  0  0  0  0
 86 92  2  0  0  0  0
 88 89  1  0  0  0  0
 88178  1  0  0  0  0
 88179  1  0  0  0  0
 89 90  2  0  0  0  0
 89 91  1  0  0  0  0
 91180  1  0  0  0  0
 91181  1  0  0  0  0
M  CHG  7   1   1   8  -1  27   1  57  -1  66  -1  74  -1  87  -1
M  END
