2os9_ligand
 OpenBabel08222323343D

 24 24  0  0  1  0  0  0  0  0999 V2000
   27.6770  -13.6400   11.2180 C   0  0  2  0  0  0  0  0  0  0  0  0
   27.6530  -14.7060   10.0560 C   0  0  1  0  0  0  0  0  0  0  0  0
   28.6950  -14.3490    8.9630 C   0  0  1  0  0  0  0  0  0  0  0  0
   30.0880  -14.0470    9.5230 C   0  0  2  0  0  0  0  0  0  0  0  0
   30.0520  -12.9170   10.6150 C   0  0  1  0  0  0  0  0  0  0  0  0
   29.1190  -13.3710   11.7880 C   0  0  1  0  0  0  0  0  0  0  0  0
   26.8030  -14.0810   12.3460 O   0  0  0  0  0  0  0  0  0  0  0  0
   27.8970  -16.0700   10.4990 O   0  0  0  0  0  0  0  0  0  0  0  0
   28.8190  -15.4510    8.0370 O   0  0  0  0  0  0  0  0  0  0  0  0
   30.9250  -13.7080    8.4080 O   0  0  0  0  0  0  0  0  0  0  0  0
   31.3680  -12.6770   11.1430 O   0  0  0  0  0  0  0  0  0  0  0  0
   29.0640  -12.3490   12.8320 O   0  0  0  0  0  0  0  0  0  0  0  0
   27.2852  -12.6946   10.8148 H   0  0  0  0  0  0  0  0  0  0  0  0
   26.6508  -14.6749    9.6038 H   0  0  0  0  0  0  0  0  0  0  0  0
   28.3357  -13.4601    8.4239 H   0  0  0  0  0  0  0  0  0  0  0  0
   30.4842  -14.9573    9.9967 H   0  0  0  0  0  0  0  0  0  0  0  0
   29.6630  -11.9905   10.1676 H   0  0  0  0  0  0  0  0  0  0  0  0
   29.5151  -14.3007   12.2224 H   0  0  0  0  0  0  0  0  0  0  0  0
   25.9267  -14.2482   12.0195 H   0  0  0  0  0  0  0  0  0  0  0  0
   27.8092  -16.6619    9.7611 H   0  0  0  0  0  0  0  0  0  0  0  0
   27.9650  -15.6571    7.6756 H   0  0  0  0  0  0  0  0  0  0  0  0
   30.9143  -14.4188    7.7778 H   0  0  0  0  0  0  0  0  0  0  0  0
   31.7024  -13.4764   11.5324 H   0  0  0  0  0  0  0  0  0  0  0  0
   29.9375  -12.2004   13.1744 H   0  0  0  0  0  0  0  0  0  0  0  0
  1  2  1  0  0  0  0
  1  6  1  0  0  0  0
  1  7  1  0  0  0  0
  1 13  1  6  0  0  0
  2  3  1  0  0  0  0
  2  8  1  0  0  0  0
  2 14  1  6  0  0  0
  3  4  1  0  0  0  0
  3  9  1  0  0  0  0
  3 15  1  6  0  0  0
  4  5  1  0  0  0  0
  4 10  1  0  0  0  0
  4 16  1  1  0  0  0
  5  6  1  0  0  0  0
  5 11  1  0  0  0  0
  5 17  1  6  0  0  0
  6 12  1  0  0  0  0
  6 18  1  1  0  0  0
  7 19  1  0  0  0  0
  8 20  1  0  0  0  0
  9 21  1  0  0  0  0
 10 22  1  0  0  0  0
 11 23  1  0  0  0  0
 12 24  1  0  0  0  0
M  END
