2ovq_ligand
 OpenBabel08222323343D

175177  0  0  1  0  0  0  0  0999 V2000
   37.5240   64.9980   21.7850 N   0  3  0  0  0  0  0  0  0  0  0  0
   36.9580   63.8540   22.5750 C   0  0  2  0  0  0  0  0  0  0  0  0
   35.8050   63.1750   21.8320 C   0  0  0  0  0  0  0  0  0  0  0  0
   34.8860   63.8480   21.3520 O   0  0  0  0  0  0  0  0  0  0  0  0
   36.4440   64.3550   23.9360 C   0  0  0  0  0  0  0  0  0  0  0  0
   35.7730   63.3820   24.9250 C   0  0  0  0  0  0  0  0  0  0  0  0
   36.8160   62.5490   25.6660 C   0  0  0  0  0  0  0  0  0  0  0  0
   34.9530   64.1760   25.9340 C   0  0  0  0  0  0  0  0  0  0  0  0
   35.8250   61.8330   21.7380 N   0  0  0  0  0  0  0  0  0  0  0  0
   34.7100   61.1990   21.0260 C   0  0  2  0  0  0  0  0  0  0  0  0
   33.3440   61.7880   21.4120 C   0  0  0  0  0  0  0  0  0  0  0  0
   33.1070   62.1620   22.5680 O   0  0  0  0  0  0  0  0  0  0  0  0
   34.8560   59.7120   21.3840 C   0  0  0  0  0  0  0  0  0  0  0  0
   35.7420   59.7030   22.6140 C   0  0  0  0  0  0  0  0  0  0  0  0
   36.7100   60.8230   22.3410 C   0  0  0  0  0  0  0  0  0  0  0  0
   32.4610   61.8900   20.4250 N   0  0  0  0  0  0  0  0  0  0  0  0
   31.1190   62.4400   20.6220 C   0  0  2  0  0  0  0  0  0  0  0  0
   30.1970   61.4870   21.3990 C   0  0  0  0  0  0  0  0  0  0  0  0
   29.9950   60.3310   21.0110 O   0  0  0  0  0  0  0  0  0  0  0  0
   30.4950   62.7810   19.2600 C   0  0  0  0  0  0  0  0  0  0  0  0
   31.3300   63.6560   18.5160 O   0  0  0  0  0  0  0  0  0  0  0  0
   29.6350   61.9910   22.4940 N   0  0  0  0  0  0  0  0  0  0  0  0
   28.7600   61.1830   23.3220 C   0  0  0  0  0  0  0  0  0  0  0  0
   29.3390   61.0830   24.7220 C   0  0  0  0  0  0  0  0  0  0  0  0
   28.6550   60.6920   25.6700 O   0  0  0  0  0  0  0  0  0  0  0  0
   30.6200   61.4320   24.8370 N   0  0  0  0  0  0  0  0  0  0  0  0
   31.3370   61.4160   26.1120 C   0  0  2  0  0  0  0  0  0  0  0  0
   31.4460   62.8550   26.6300 C   0  0  0  0  0  0  0  0  0  0  0  0
   31.4080   63.8010   25.8420 O   0  0  0  0  0  0  0  0  0  0  0  0
   32.7270   60.8000   25.9220 C   0  0  0  0  0  0  0  0  0  0  0  0
   32.8700   59.2740   26.0570 C   0  0  0  0  0  0  0  0  0  0  0  0
   31.7880   58.5290   25.2950 C   0  0  0  0  0  0  0  0  0  0  0  0
   34.2480   58.8780   25.5560 C   0  0  0  0  0  0  0  0  0  0  0  0
   31.5850   63.0240   27.9430 N   0  0  0  0  0  0  0  0  0  0  0  0
   31.6520   64.3640   28.5220 C   0  0  2  0  0  0  0  0  0  0  0  0
   32.6460   64.5490   29.6790 C   0  0  0  0  0  0  0  0  0  0  0  0
   33.2570   63.5930   30.1550 O   0  0  0  0  0  0  0  0  0  0  0  0
   30.2580   64.7410   29.0170 C   0  0  0  0  0  0  0  0  0  0  0  0
   29.0730   64.1920   28.2110 C   0  0  0  0  0  0  0  0  0  0  0  0
   27.8400   64.0670   29.0950 C   0  0  0  0  0  0  0  0  0  0  0  0
   28.8000   65.0940   27.0260 C   0  0  0  0  0  0  0  0  0  0  0  0
   32.7990   65.8110   30.0820 N   0  0  0  0  0  0  0  0  0  0  0  0
   33.6120   66.3050   31.2230 C   0  0  1  0  0  0  0  0  0  0  0  0
   35.1050   66.3140   30.8550 C   0  0  2  0  0  0  0  0  0  0  0  0
   35.2920   66.8470   29.4410 C   0  0  0  0  0  0  0  0  0  0  0  0
   35.5450   65.0160   30.8110 O   0  0  0  0  0  0  0  0  0  0  0  0
   36.9040   64.7210   31.6430 P   0  0  0  0  0  0  0  0  0  0  0  0
   36.6380   65.1410   33.1260 O   0  0  0  0  0  1  0  0  0  0  0  0
   38.0790   65.5840   31.0150 O   0  0  0  0  0  1  0  0  0  0  0  0
   37.1420   63.1570   31.4630 O   0  0  0  0  0  0  0  0  0  0  0  0
   33.1920   67.7190   31.4320 C   0  0  0  0  0  0  0  0  0  0  0  0
   32.7230   68.3960   30.5180 O   0  0  0  0  0  0  0  0  0  0  0  0
   33.3550   68.1850   32.6770 N   0  0  0  0  0  0  0  0  0  0  0  0
   33.0080   69.5490   33.0560 C   0  0  2  0  0  0  0  0  0  0  0  0
   33.9490   70.4470   32.2760 C   0  0  0  0  0  0  0  0  0  0  0  0
   35.0580   70.0350   31.9150 O   0  0  0  0  0  0  0  0  0  0  0  0
   33.3130   69.5800   34.5530 C   0  0  0  0  0  0  0  0  0  0  0  0
   33.1300   68.1680   34.9740 C   0  0  0  0  0  0  0  0  0  0  0  0
   33.7710   67.4060   33.8570 C   0  0  0  0  0  0  0  0  0  0  0  0
   33.5090   71.6720   31.9740 N   0  0  0  0  0  0  0  0  0  0  0  0
   34.3740   72.5910   31.2330 C   0  0  2  0  0  0  0  0  0  0  0  0
   35.5410   72.9590   32.1430 C   0  0  0  0  0  0  0  0  0  0  0  0
   35.4100   72.9020   33.3650 O   0  0  0  0  0  0  0  0  0  0  0  0
   33.4490   73.7720   30.9430 C   0  0  0  0  0  0  0  0  0  0  0  0
   32.4720   73.7340   32.0980 C   0  0  0  0  0  0  0  0  0  0  0  0
   32.1840   72.2660   32.2240 C   0  0  0  0  0  0  0  0  0  0  0  0
   36.6820   73.3120   31.5650 N   0  0  0  0  0  0  0  0  0  0  0  0
   37.8380   73.6790   32.3760 C   0  0  2  0  0  0  0  0  0  0  0  0
   37.5240   74.8540   33.2970 C   0  0  0  0  0  0  0  0  0  0  0  0
   36.8320   75.7960   32.9170 O   0  0  0  0  0  0  0  0  0  0  0  0
   39.0250   74.0020   31.4760 C   0  0  0  0  0  0  0  0  0  0  0  0
   39.6770   72.7620   30.8890 C   0  0  0  0  0  0  0  0  0  0  0  0
   40.5920   72.0690   31.8830 C   0  0  0  0  0  0  0  0  0  0  0  0
   41.6450   72.5990   32.2430 O   0  0  0  0  0  0  0  0  0  0  0  0
   40.1940   70.8830   32.3380 N   0  0  0  0  0  0  0  0  0  0  0  0
   38.0350   74.7740   34.5180 N   0  0  0  0  0  0  0  0  0  0  0  0
   37.8130   75.7920   35.5420 C   0  0  1  0  0  0  0  0  0  0  0  0
   37.9600   75.0770   36.8980 C   0  0  0  0  0  0  0  0  0  0  0  0
   38.9030   74.4420   37.1430 O   0  0  0  0  0  0  0  0  0  0  0  0
   38.8490   76.9110   35.4690 C   0  0  0  0  0  0  0  0  0  0  0  0
   38.5190   78.0920   35.6160 O   0  0  0  0  0  0  0  0  0  0  0  0
   38.1810   73.1420   37.5300 P   0  0  0  0  0  0  0  0  0  0  0  0
   37.0890   72.9870   38.6650 O   0  0  0  0  0  1  0  0  0  0  0  0
   39.5600   72.4490   37.9420 O   0  0  0  0  0  1  0  0  0  0  0  0
   37.6200   72.6140   36.1060 O   0  0  0  0  0  0  0  0  0  0  0  0
   40.1020   76.5230   35.2500 N   0  0  0  0  0  0  0  0  0  0  0  0
   41.1840   77.4860   35.1610 C   0  0  0  0  0  0  0  0  0  0  0  0
   42.4060   76.9260   34.4510 C   0  0  0  0  0  0  0  0  0  0  0  0
   42.3350   75.7780   33.9530 O   0  5  0  0  0  0  0  0  0  0  0  0
   43.4360   77.6380   34.3870 O   0  0  0  0  0  0  0  0  0  0  0  0
   38.2790   65.4218   22.3012 H   0  0  0  0  0  0  0  0  0  0  0  0
   36.8027   65.6829   21.6216 H   0  0  0  0  0  0  0  0  0  0  0  0
   37.8704   64.6576   20.9018 H   0  0  0  0  0  0  0  0  0  0  0  0
   37.7559   63.1154   22.7418 H   0  0  0  0  0  0  0  0  0  0  0  0
   35.7089   65.1453   23.7238 H   0  0  0  0  0  0  0  0  0  0  0  0
   37.3087   64.7894   24.4590 H   0  0  0  0  0  0  0  0  0  0  0  0
   35.1077   62.7071   24.3666 H   0  0  0  0  0  0  0  0  0  0  0  0
   36.3107   61.8649   26.3636 H   0  0  0  0  0  0  0  0  0  0  0  0
   37.4864   63.2161   26.2277 H   0  0  0  0  0  0  0  0  0  0  0  0
   37.4023   61.9658   24.9407 H   0  0  0  0  0  0  0  0  0  0  0  0
   34.2005   64.7773   25.4028 H   0  0  0  0  0  0  0  0  0  0  0  0
   35.6178   64.8413   26.5045 H   0  0  0  0  0  0  0  0  0  0  0  0
   34.4485   63.4828   26.6232 H   0  0  0  0  0  0  0  0  0  0  0  0
   34.8387   61.3317   19.9417 H   0  0  0  0  0  0  0  0  0  0  0  0
   35.3294   59.1583   20.5598 H   0  0  0  0  0  0  0  0  0  0  0  0
   33.8750   59.2679   21.6083 H   0  0  0  0  0  0  0  0  0  0  0  0
   36.2676   58.7421   22.7159 H   0  0  0  0  0  0  0  0  0  0  0  0
   35.1568   59.8992   23.5245 H   0  0  0  0  0  0  0  0  0  0  0  0
   37.1687   61.1933   23.2697 H   0  0  0  0  0  0  0  0  0  0  0  0
   37.4992   60.5107   21.6413 H   0  0  0  0  0  0  0  0  0  0  0  0
   32.7234   61.5788   19.5116 H   0  0  0  0  0  0  0  0  0  0  0  0
   31.2145   63.3682   21.2045 H   0  0  0  0  0  0  0  0  0  0  0  0
   29.5216   63.2667   19.4230 H   0  0  0  0  0  0  0  0  0  0  0  0
   30.3502   61.8519   18.6892 H   0  0  0  0  0  0  0  0  0  0  0  0
   30.9202   63.8491   17.6810 H   0  0  0  0  0  0  0  0  0  0  0  0
   29.8182   62.9401   22.7500 H   0  0  0  0  0  0  0  0  0  0  0  0
   28.6721   60.1758   22.8887 H   0  0  0  0  0  0  0  0  0  0  0  0
   27.7652   61.6501   23.3691 H   0  0  0  0  0  0  0  0  0  0  0  0
   31.1130   61.7175   24.0152 H   0  0  0  0  0  0  0  0  0  0  0  0
   30.7750   60.8114   26.8390 H   0  0  0  0  0  0  0  0  0  0  0  0
   33.3916   61.2573   26.6698 H   0  0  0  0  0  0  0  0  0  0  0  0
   33.0691   61.0716   24.9125 H   0  0  0  0  0  0  0  0  0  0  0  0
   32.7867   59.0060   27.1206 H   0  0  0  0  0  0  0  0  0  0  0  0
   31.9309   57.4456   25.4206 H   0  0  0  0  0  0  0  0  0  0  0  0
   31.8488   58.7855   24.2271 H   0  0  0  0  0  0  0  0  0  0  0  0
   30.8006   58.8162   25.6854 H   0  0  0  0  0  0  0  0  0  0  0  0
   35.0154   59.4282   26.1203 H   0  0  0  0  0  0  0  0  0  0  0  0
   34.3336   59.1221   24.4869 H   0  0  0  0  0  0  0  0  0  0  0  0
   34.3931   57.7969   25.6980 H   0  0  0  0  0  0  0  0  0  0  0  0
   31.6443   62.2243   28.5404 H   0  0  0  0  0  0  0  0  0  0  0  0
   31.9468   65.0565   27.7198 H   0  0  0  0  0  0  0  0  0  0  0  0
   30.1866   65.8386   29.0104 H   0  0  0  0  0  0  0  0  0  0  0  0
   30.1591   64.3733   30.0490 H   0  0  0  0  0  0  0  0  0  0  0  0
   29.3352   63.1915   27.8366 H   0  0  0  0  0  0  0  0  0  0  0  0
   27.0019   63.6727   28.5016 H   0  0  0  0  0  0  0  0  0  0  0  0
   27.5730   65.0567   29.4940 H   0  0  0  0  0  0  0  0  0  0  0  0
   28.0540   63.3813   29.9280 H   0  0  0  0  0  0  0  0  0  0  0  0
   29.7049   65.1672   26.4048 H   0  0  0  0  0  0  0  0  0  0  0  0
   28.5193   66.0954   27.3844 H   0  0  0  0  0  0  0  0  0  0  0  0
   27.9776   64.6748   26.4278 H   0  0  0  0  0  0  0  0  0  0  0  0
   32.3095   66.5056   29.5548 H   0  0  0  0  0  0  0  0  0  0  0  0
   33.4394   65.6953   32.1221 H   0  0  0  0  0  0  0  0  0  0  0  0
   35.6774   66.9091   31.5818 H   0  0  0  0  0  0  0  0  0  0  0  0
   36.3626   66.8490   29.1885 H   0  0  0  0  0  0  0  0  0  0  0  0
   34.8992   67.8727   29.3808 H   0  0  0  0  0  0  0  0  0  0  0  0
   34.7494   66.2043   28.7321 H   0  0  0  0  0  0  0  0  0  0  0  0
   31.9568   69.7980   32.8488 H   0  0  0  0  0  0  0  0  0  0  0  0
   32.6127   70.2421   35.0832 H   0  0  0  0  0  0  0  0  0  0  0  0
   34.3446   69.9145   34.7371 H   0  0  0  0  0  0  0  0  0  0  0  0
   32.0631   67.9162   35.0648 H   0  0  0  0  0  0  0  0  0  0  0  0
   33.6361   67.9705   35.9305 H   0  0  0  0  0  0  0  0  0  0  0  0
   34.8660   67.3908   33.9603 H   0  0  0  0  0  0  0  0  0  0  0  0
   33.3929   66.3742   33.8085 H   0  0  0  0  0  0  0  0  0  0  0  0
   34.7486   72.1456   30.2996 H   0  0  0  0  0  0  0  0  0  0  0  0
   32.9299   73.6404   29.9822 H   0  0  0  0  0  0  0  0  0  0  0  0
   34.0091   74.7186   30.9306 H   0  0  0  0  0  0  0  0  0  0  0  0
   31.5583   74.3008   31.8659 H   0  0  0  0  0  0  0  0  0  0  0  0
   32.9264   74.1313   33.0176 H   0  0  0  0  0  0  0  0  0  0  0  0
   31.8170   72.0156   33.2303 H   0  0  0  0  0  0  0  0  0  0  0  0
   31.4502   71.9367   31.4736 H   0  0  0  0  0  0  0  0  0  0  0  0
   36.7500   73.3266   30.5674 H   0  0  0  0  0  0  0  0  0  0  0  0
   38.1047   72.8160   33.0037 H   0  0  0  0  0  0  0  0  0  0  0  0
   39.7758   74.5466   32.0674 H   0  0  0  0  0  0  0  0  0  0  0  0
   38.6760   74.6392   30.6501 H   0  0  0  0  0  0  0  0  0  0  0  0
   40.2679   73.0556   30.0089 H   0  0  0  0  0  0  0  0  0  0  0  0
   38.8887   72.0584   30.5833 H   0  0  0  0  0  0  0  0  0  0  0  0
   40.7595   70.3839   32.9946 H   0  0  0  0  0  0  0  0  0  0  0  0
   39.3295   70.4911   32.0232 H   0  0  0  0  0  0  0  0  0  0  0  0
   38.5982   73.9804   34.7484 H   0  0  0  0  0  0  0  0  0  0  0  0
   36.8045   76.2180   35.4353 H   0  0  0  0  0  0  0  0  0  0  0  0
   37.0964   74.4020   36.9904 H   0  0  0  0  0  0  0  0  0  0  0  0
   37.8997   75.8575   37.6708 H   0  0  0  0  0  0  0  0  0  0  0  0
   40.3025   75.5490   35.1446 H   0  0  0  0  0  0  0  0  0  0  0  0
   41.4741   77.7855   36.1789 H   0  0  0  0  0  0  0  0  0  0  0  0
   40.8273   78.3669   34.6072 H   0  0  0  0  0  0  0  0  0  0  0  0
  1  2  1  0  0  0  0
  1 91  1  0  0  0  0
  1 92  1  0  0  0  0
  1 93  1  0  0  0  0
  2  3  1  0  0  0  0
  2  5  1  0  0  0  0
  2 94  1  1  0  0  0
  3  4  2  0  0  0  0
  3  9  1  0  0  0  0
  5  6  1  0  0  0  0
  5 95  1  0  0  0  0
  5 96  1  0  0  0  0
  6  7  1  0  0  0  0
  6  8  1  0  0  0  0
  6 97  1  0  0  0  0
  7 98  1  0  0  0  0
  7 99  1  0  0  0  0
  7100  1  0  0  0  0
  8101  1  0  0  0  0
  8102  1  0  0  0  0
  8103  1  0  0  0  0
  9 10  1  0  0  0  0
  9 15  1  0  0  0  0
 10 11  1  0  0  0  0
 10 13  1  0  0  0  0
 10104  1  6  0  0  0
 11 12  2  0  0  0  0
 11 16  1  0  0  0  0
 13 14  1  0  0  0  0
 13105  1  0  0  0  0
 13106  1  0  0  0  0
 14 15  1  0  0  0  0
 14107  1  0  0  0  0
 14108  1  0  0  0  0
 15109  1  0  0  0  0
 15110  1  0  0  0  0
 16 17  1  0  0  0  0
 16111  1  0  0  0  0
 17 18  1  0  0  0  0
 17 20  1  0  0  0  0
 17112  1  1  0  0  0
 18 19  2  0  0  0  0
 18 22  1  0  0  0  0
 20 21  1  0  0  0  0
 20113  1  0  0  0  0
 20114  1  0  0  0  0
 21115  1  0  0  0  0
 22 23  1  0  0  0  0
 22116  1  0  0  0  0
 23 24  1  0  0  0  0
 23117  1  0  0  0  0
 23118  1  0  0  0  0
 24 25  2  0  0  0  0
 24 26  1  0  0  0  0
 26 27  1  0  0  0  0
 26119  1  0  0  0  0
 27 28  1  0  0  0  0
 27 30  1  0  0  0  0
 27120  1  1  0  0  0
 28 29  2  0  0  0  0
 28 34  1  0  0  0  0
 30 31  1  0  0  0  0
 30121  1  0  0  0  0
 30122  1  0  0  0  0
 31 32  1  0  0  0  0
 31 33  1  0  0  0  0
 31123  1  0  0  0  0
 32124  1  0  0  0  0
 32125  1  0  0  0  0
 32126  1  0  0  0  0
 33127  1  0  0  0  0
 33128  1  0  0  0  0
 33129  1  0  0  0  0
 34 35  1  0  0  0  0
 34130  1  0  0  0  0
 35 36  1  0  0  0  0
 35 38  1  0  0  0  0
 35131  1  6  0  0  0
 36 37  2  0  0  0  0
 36 42  1  0  0  0  0
 38 39  1  0  0  0  0
 38132  1  0  0  0  0
 38133  1  0  0  0  0
 39 40  1  0  0  0  0
 39 41  1  0  0  0  0
 39134  1  0  0  0  0
 40135  1  0  0  0  0
 40136  1  0  0  0  0
 40137  1  0  0  0  0
 41138  1  0  0  0  0
 41139  1  0  0  0  0
 41140  1  0  0  0  0
 42 43  1  0  0  0  0
 42141  1  0  0  0  0
 43 44  1  0  0  0  0
 43 51  1  0  0  0  0
 43142  1  1  0  0  0
 44 45  1  0  0  0  0
 44 46  1  0  0  0  0
 44143  1  1  0  0  0
 45144  1  0  0  0  0
 45145  1  0  0  0  0
 45146  1  0  0  0  0
 46 47  1  0  0  0  0
 47 48  1  0  0  0  0
 47 49  1  0  0  0  0
 47 50  2  0  0  0  0
 51 52  2  0  0  0  0
 51 53  1  0  0  0  0
 53 54  1  0  0  0  0
 53 59  1  0  0  0  0
 54 55  1  0  0  0  0
 54 57  1  0  0  0  0
 54147  1  6  0  0  0
 55 56  2  0  0  0  0
 55 60  1  0  0  0  0
 57 58  1  0  0  0  0
 57148  1  0  0  0  0
 57149  1  0  0  0  0
 58 59  1  0  0  0  0
 58150  1  0  0  0  0
 58151  1  0  0  0  0
 59152  1  0  0  0  0
 59153  1  0  0  0  0
 60 61  1  0  0  0  0
 60 66  1  0  0  0  0
 61 62  1  0  0  0  0
 61 64  1  0  0  0  0
 61154  1  6  0  0  0
 62 63  2  0  0  0  0
 62 67  1  0  0  0  0
 64 65  1  0  0  0  0
 64155  1  0  0  0  0
 64156  1  0  0  0  0
 65 66  1  0  0  0  0
 65157  1  0  0  0  0
 65158  1  0  0  0  0
 66159  1  0  0  0  0
 66160  1  0  0  0  0
 67 68  1  0  0  0  0
 67161  1  0  0  0  0
 68 69  1  0  0  0  0
 68 71  1  0  0  0  0
 68162  1  1  0  0  0
 69 70  2  0  0  0  0
 69 76  1  0  0  0  0
 71 72  1  0  0  0  0
 71163  1  0  0  0  0
 71164  1  0  0  0  0
 72 73  1  0  0  0  0
 72165  1  0  0  0  0
 72166  1  0  0  0  0
 73 74  2  0  0  0  0
 73 75  1  0  0  0  0
 75167  1  0  0  0  0
 75168  1  0  0  0  0
 76 77  1  0  0  0  0
 76169  1  0  0  0  0
 77 78  1  0  0  0  0
 77 80  1  0  0  0  0
 77170  1  6  0  0  0
 78 79  1  0  0  0  0
 78171  1  0  0  0  0
 78172  1  0  0  0  0
 79 82  1  0  0  0  0
 80 81  2  0  0  0  0
 80 86  1  0  0  0  0
 82 83  1  0  0  0  0
 82 84  1  0  0  0  0
 82 85  2  0  0  0  0
 86 87  1  0  0  0  0
 86173  1  0  0  0  0
 87 88  1  0  0  0  0
 87174  1  0  0  0  0
 87175  1  0  0  0  0
 88 89  1  0  0  0  0
 88 90  2  0  0  0  0
M  CHG  2   1   1  89  -1
M  END
