2ovx_ligand
 OpenBabel08222323343D

 57 61  0  0  0  0  0  0  0  0999 V2000
   24.3640    3.1140   51.6060 C   0  0  0  0  0  0  0  0  0  0  0  0
   23.3520    2.1920   51.8540 C   0  0  0  0  0  0  0  0  0  0  0  0
   23.3550    1.4510   53.0330 C   0  0  0  0  0  0  0  0  0  0  0  0
   24.3650    1.6440   53.9700 C   0  0  0  0  0  0  0  0  0  0  0  0
   25.3680    2.5780   53.7270 C   0  0  0  0  0  0  0  0  0  0  0  0
   25.3760    3.3110   52.5430 C   0  0  0  0  0  0  0  0  0  0  0  0
   26.4810    4.0500   52.2440 O   0  0  0  0  0  0  0  0  0  0  0  0
   26.2940    5.2850   51.7000 C   0  0  0  0  0  0  0  0  0  0  0  0
   27.3610    5.8710   51.0260 C   0  0  0  0  0  0  0  0  0  0  0  0
   27.2710    7.1840   50.5720 C   0  0  0  0  0  0  0  0  0  0  0  0
   25.1400    6.0340   51.9220 C   0  0  0  0  0  0  0  0  0  0  0  0
   25.0480    7.3430   51.4580 C   0  0  0  0  0  0  0  0  0  0  0  0
   26.1080    7.9250   50.7670 C   0  0  0  0  0  0  0  0  0  0  0  0
   25.8670    9.2010   49.9510 C   0  0  0  0  0  0  0  0  0  0  0  0
   25.3350    8.7180   48.5970 C   0  0  0  0  0  0  0  0  0  0  0  0
   24.1640    8.3490   48.5170 O   0  0  0  0  0  0  0  0  0  0  0  0
   26.1050    8.7850   47.4300 N   0  0  0  0  0  0  0  0  0  0  0  0
   27.3870    9.3460   47.4250 C   0  0  0  0  0  0  0  0  0  0  0  0
   28.0940    9.2320   46.4250 O   0  0  0  0  0  0  0  0  0  0  0  0
   27.9170    9.9130   48.5910 N   0  0  0  0  0  0  0  0  0  0  0  0
   27.1920    9.9560   49.7890 C   0  0  0  0  0  0  0  0  0  0  0  0
   27.7120   10.4750   50.7760 O   0  0  0  0  0  0  0  0  0  0  0  0
   24.8460   10.0420   50.6040 N   0  3  0  0  0  0  0  0  0  0  0  0
   25.2150   10.4270   51.9770 C   0  0  0  0  0  0  0  0  0  0  0  0
   24.0490   11.1690   52.6350 C   0  0  0  0  0  0  0  0  0  0  0  0
   24.4940   11.2250   49.7990 C   0  0  0  0  0  0  0  0  0  0  0  0
   23.3320   11.9760   50.4560 C   0  0  0  0  0  0  0  0  0  0  0  0
   23.7330   12.3530   51.8210 N   0  0  0  0  0  0  0  0  0  0  0  0
   22.8080   13.2840   52.4840 C   0  0  0  0  0  0  0  0  0  0  0  0
   22.9330   13.4980   53.8030 N   0  0  0  0  0  0  0  0  0  0  0  0
   22.3640   14.5350   54.3920 C   0  0  0  0  0  0  0  0  0  0  0  0
   21.6060   15.4270   53.6410 C   0  0  0  0  0  0  0  0  0  0  0  0
   21.4720   15.1730   52.2800 C   0  0  0  0  0  0  0  0  0  0  0  0
   22.0650   14.1210   51.7430 N   0  0  0  0  0  0  0  0  0  0  0  0
   24.3651    3.6803   50.6817 H   0  0  0  0  0  0  0  0  0  0  0  0
   22.5596    2.0502   51.1280 H   0  0  0  0  0  0  0  0  0  0  0  0
   22.5719    0.7252   53.2203 H   0  0  0  0  0  0  0  0  0  0  0  0
   24.3709    1.0678   54.8881 H   0  0  0  0  0  0  0  0  0  0  0  0
   26.1474    2.7357   54.4637 H   0  0  0  0  0  0  0  0  0  0  0  0
   28.2674    5.3020   50.8535 H   0  0  0  0  0  0  0  0  0  0  0  0
   28.1147    7.6342   50.0615 H   0  0  0  0  0  0  0  0  0  0  0  0
   24.3081    5.5940   52.4599 H   0  0  0  0  0  0  0  0  0  0  0  0
   24.1440    7.9141   51.6359 H   0  0  0  0  0  0  0  0  0  0  0  0
   25.7290    8.4224   46.5773 H   0  0  0  0  0  0  0  0  0  0  0  0
   28.8395   10.2982   48.5676 H   0  0  0  0  0  0  0  0  0  0  0  0
   24.0133    9.4784   50.6742 H   0  0  0  0  0  0  0  0  0  0  0  0
   26.0969   11.0838   51.9482 H   0  0  0  0  0  0  0  0  0  0  0  0
   25.4493    9.5239   52.5597 H   0  0  0  0  0  0  0  0  0  0  0  0
   24.3334   11.4816   53.6505 H   0  0  0  0  0  0  0  0  0  0  0  0
   23.1706   10.5089   52.6870 H   0  0  0  0  0  0  0  0  0  0  0  0
   24.1966   10.9040   48.7898 H   0  0  0  0  0  0  0  0  0  0  0  0
   25.3662   11.8916   49.7296 H   0  0  0  0  0  0  0  0  0  0  0  0
   22.4453   11.3263   50.4957 H   0  0  0  0  0  0  0  0  0  0  0  0
   23.0984   12.8802   49.8747 H   0  0  0  0  0  0  0  0  0  0  0  0
   22.4877   14.6900   55.4577 H   0  0  0  0  0  0  0  0  0  0  0  0
   21.1364   16.2895   54.0999 H   0  0  0  0  0  0  0  0  0  0  0  0
   20.8814   15.8377   51.6600 H   0  0  0  0  0  0  0  0  0  0  0  0
  1  2  2  0  0  0  0
  1  6  1  0  0  0  0
  1 35  1  0  0  0  0
  2  3  1  0  0  0  0
  2 36  1  0  0  0  0
  3  4  2  0  0  0  0
  3 37  1  0  0  0  0
  4  5  1  0  0  0  0
  4 38  1  0  0  0  0
  5  6  2  0  0  0  0
  5 39  1  0  0  0  0
  6  7  1  0  0  0  0
  7  8  1  0  0  0  0
  8  9  2  0  0  0  0
  8 11  1  0  0  0  0
  9 10  1  0  0  0  0
  9 40  1  0  0  0  0
 10 13  2  0  0  0  0
 10 41  1  0  0  0  0
 11 12  2  0  0  0  0
 11 42  1  0  0  0  0
 12 13  1  0  0  0  0
 12 43  1  0  0  0  0
 13 14  1  0  0  0  0
 14 15  1  0  0  0  0
 14 21  1  0  0  0  0
 14 23  1  0  0  0  0
 15 16  2  0  0  0  0
 15 17  1  0  0  0  0
 17 18  1  0  0  0  0
 17 44  1  0  0  0  0
 18 19  2  0  0  0  0
 18 20  1  0  0  0  0
 20 21  1  0  0  0  0
 20 45  1  0  0  0  0
 21 22  2  0  0  0  0
 23 24  1  0  0  0  0
 23 26  1  0  0  0  0
 23 46  1  0  0  0  0
 24 25  1  0  0  0  0
 24 47  1  0  0  0  0
 24 48  1  0  0  0  0
 25 28  1  0  0  0  0
 25 49  1  0  0  0  0
 25 50  1  0  0  0  0
 26 27  1  0  0  0  0
 26 51  1  0  0  0  0
 26 52  1  0  0  0  0
 27 28  1  0  0  0  0
 27 53  1  0  0  0  0
 27 54  1  0  0  0  0
 28 29  1  0  0  0  0
 29 30  2  0  0  0  0
 29 34  1  0  0  0  0
 30 31  1  0  0  0  0
 31 32  2  0  0  0  0
 31 55  1  0  0  0  0
 32 33  1  0  0  0  0
 32 56  1  0  0  0  0
 33 34  2  0  0  0  0
 33 57  1  0  0  0  0
M  CHG  1  23   1
M  END
