2ow7_ligand
 OpenBabel08222323343D

 26 27  0  0  1  0  0  0  0  0999 V2000
   31.7020   66.8190    6.2520 O   0  0  0  0  0  0  0  0  0  0  0  0
   31.5130   66.2910    7.5660 C   0  0  1  0  0  0  0  0  0  0  0  0
   30.6750   64.9970    7.5380 C   0  0  2  0  0  0  0  0  0  0  0  0
   29.2670   65.1930    6.9370 C   0  0  0  0  0  0  0  0  0  0  0  0
   28.3170   66.0200    7.8000 C   0  0  0  0  0  0  0  0  0  0  0  0
   28.2320   65.5710    9.2740 C   0  0  0  0  0  0  0  0  0  0  0  0
   29.5430   65.6830   10.0510 C   0  0  0  0  0  0  0  0  0  0  0  0
   30.7980   64.6380    9.2980 S   0  0  2  0  0  3  0  0  0  0  0  0
   32.4620   65.2830    9.6250 C   0  0  0  0  0  0  0  0  0  0  0  0
   32.7950   66.0260    8.3280 C   0  0  1  0  0  0  0  0  0  0  0  0
   33.7090   65.2390    7.5710 O   0  0  0  0  0  0  0  0  0  0  0  0
   32.2204   67.6135    6.3027 H   0  0  0  0  0  0  0  0  0  0  0  0
   30.9480   67.0462    8.1321 H   0  0  0  0  0  0  0  0  0  0  0  0
   31.1721   64.2103    6.9515 H   0  0  0  0  0  0  0  0  0  0  0  0
   28.8172   64.2006    6.7860 H   0  0  0  0  0  0  0  0  0  0  0  0
   29.3757   65.6980    5.9658 H   0  0  0  0  0  0  0  0  0  0  0  0
   27.3100   65.9531    7.3625 H   0  0  0  0  0  0  0  0  0  0  0  0
   28.6572   67.0659    7.7791 H   0  0  0  0  0  0  0  0  0  0  0  0
   27.9104   64.5193    9.2941 H   0  0  0  0  0  0  0  0  0  0  0  0
   27.4796   66.1942    9.7794 H   0  0  0  0  0  0  0  0  0  0  0  0
   29.3785   65.3627   11.0904 H   0  0  0  0  0  0  0  0  0  0  0  0
   29.8849   66.7284   10.0391 H   0  0  0  0  0  0  0  0  0  0  0  0
   33.1753   64.4660    9.8085 H   0  0  0  0  0  0  0  0  0  0  0  0
   32.4600   65.9682   10.4855 H   0  0  0  0  0  0  0  0  0  0  0  0
   33.2695   66.9886    8.5693 H   0  0  0  0  0  0  0  0  0  0  0  0
   33.9219   65.6920    6.7636 H   0  0  0  0  0  0  0  0  0  0  0  0
  1  2  1  0  0  0  0
  1 12  1  0  0  0  0
  2  3  1  0  0  0  0
  2 10  1  0  0  0  0
  2 13  1  1  0  0  0
  3  4  1  0  0  0  0
  3  8  1  0  0  0  0
  3 14  1  6  0  0  0
  4  5  1  0  0  0  0
  4 15  1  0  0  0  0
  4 16  1  0  0  0  0
  5  6  1  0  0  0  0
  5 17  1  0  0  0  0
  5 18  1  0  0  0  0
  6  7  1  0  0  0  0
  6 19  1  0  0  0  0
  6 20  1  0  0  0  0
  7 21  1  0  0  0  0
  7 22  1  0  0  0  0
  8  7  1  1  0  0  0
  8  9  1  0  0  0  0
  9 10  1  0  0  0  0
  9 23  1  0  0  0  0
  9 24  1  0  0  0  0
 10 11  1  0  0  0  0
 10 25  1  1  0  0  0
 11 26  1  0  0  0  0
M  END
