2owb_ligand
 OpenBabel08222323343D

 59 63  0  0  0  0  0  0  0  0999 V2000
   -0.6310   28.7700   64.1010 C   0  0  0  0  0  0  0  0  0  0  0  0
   -0.2580   29.7610   63.4780 O   0  0  0  0  0  0  0  0  0  0  0  0
   -0.0340   28.4200   65.2440 N   0  0  0  0  0  0  0  0  0  0  0  0
    2.2070   28.5660   68.0640 N   0  0  0  0  0  0  0  0  0  0  0  0
    1.0950   26.8180   68.4280 C   0  0  0  0  0  0  0  0  0  0  0  0
    2.0440   27.5860   68.8750 N   0  0  0  0  0  0  0  0  0  0  0  0
    0.7470   25.6700   69.1520 N   0  0  0  0  0  0  0  0  0  0  0  0
   -0.1730   24.7700   68.7470 C   0  0  0  0  0  0  0  0  0  0  0  0
   -0.4150   23.5420   69.5720 C   0  0  0  0  0  0  0  0  0  0  0  0
   -0.8200   24.8810   67.7080 O   0  0  0  0  0  0  0  0  0  0  0  0
    0.2030   23.3230   70.8220 C   0  0  0  0  0  0  0  0  0  0  0  0
   -0.0320   22.1590   71.5690 C   0  0  0  0  0  0  0  0  0  0  0  0
   -1.5290   21.3650   69.8610 C   0  0  0  0  0  0  0  0  0  0  0  0
   -1.2930   22.5310   69.1120 C   0  0  0  0  0  0  0  0  0  0  0  0
    1.3560   28.5080   66.9920 C   0  0  0  0  0  0  0  0  0  0  0  0
    0.6220   27.4120   67.1700 C   0  0  0  0  0  0  0  0  0  0  0  0
   -0.3620   27.2160   66.0640 C   0  0  0  0  0  0  0  0  0  0  0  0
    1.0500   29.2840   65.7690 C   0  0  0  0  0  0  0  0  0  0  0  0
   -1.1260   19.9640   71.9180 N   0  0  0  0  0  0  0  0  0  0  0  0
   -1.7640   18.7760   71.3230 C   0  0  0  0  0  0  0  0  0  0  0  0
   -0.7340   18.0130   70.4850 C   0  0  0  0  0  0  0  0  0  0  0  0
    0.4230   17.6180   71.3230 N   0  3  0  0  0  0  0  0  0  0  0  0
    0.9990   18.7730   72.0480 C   0  0  0  0  0  0  0  0  0  0  0  0
   -0.0820   19.5050   72.8470 C   0  0  0  0  0  0  0  0  0  0  0  0
    1.4540   16.8830   70.5530 C   0  0  0  0  0  0  0  0  0  0  0  0
   -0.9040   21.1450   71.1150 C   0  0  0  0  0  0  0  0  0  0  0  0
   -1.1010   25.1660   60.8630 C   0  0  0  0  0  0  0  0  0  0  0  0
    0.0640   25.9230   60.9060 C   0  0  0  0  0  0  0  0  0  0  0  0
   -2.3310   25.7200   61.9460 S   0  0  0  0  0  0  0  0  0  0  0  0
   -0.0550   27.0070   61.8670 C   0  0  0  0  0  0  0  0  0  0  0  0
   -1.3080   26.9940   62.4920 C   0  0  0  0  0  0  0  0  0  0  0  0
   -1.7960   27.9610   63.5460 C   0  0  0  0  0  0  0  0  0  0  0  0
    2.5791   27.4321   69.7415 H   0  0  0  0  0  0  0  0  0  0  0  0
    1.2095   25.5075   70.0236 H   0  0  0  0  0  0  0  0  0  0  0  0
    0.8776   24.0747   71.2155 H   0  0  0  0  0  0  0  0  0  0  0  0
    0.4699   22.0343   72.5217 H   0  0  0  0  0  0  0  0  0  0  0  0
   -2.2063   20.6145   69.4699 H   0  0  0  0  0  0  0  0  0  0  0  0
   -1.7951   22.6591   68.1598 H   0  0  0  0  0  0  0  0  0  0  0  0
   -0.1829   26.2807   65.5135 H   0  0  0  0  0  0  0  0  0  0  0  0
   -1.4001   27.2346   66.4274 H   0  0  0  0  0  0  0  0  0  0  0  0
    0.6987   30.3010   65.9976 H   0  0  0  0  0  0  0  0  0  0  0  0
    1.9088   29.3380   65.0838 H   0  0  0  0  0  0  0  0  0  0  0  0
   -2.5994   19.0909   70.6804 H   0  0  0  0  0  0  0  0  0  0  0  0
   -2.1427   18.1230   72.1231 H   0  0  0  0  0  0  0  0  0  0  0  0
   -0.3844   18.6577   69.6652 H   0  0  0  0  0  0  0  0  0  0  0  0
   -1.2037   17.1104   70.0670 H   0  0  0  0  0  0  0  0  0  0  0  0
    0.0719   16.9806   72.0205 H   0  0  0  0  0  0  0  0  0  0  0  0
    1.4448   19.4690   71.3221 H   0  0  0  0  0  0  0  0  0  0  0  0
    1.7772   18.4145   72.7379 H   0  0  0  0  0  0  0  0  0  0  0  0
   -0.5209   18.8212   73.5885 H   0  0  0  0  0  0  0  0  0  0  0  0
    0.3608   20.3698   73.3627 H   0  0  0  0  0  0  0  0  0  0  0  0
    0.9865   16.0352   70.0307 H   0  0  0  0  0  0  0  0  0  0  0  0
    2.2275   16.5090   71.2399 H   0  0  0  0  0  0  0  0  0  0  0  0
    1.9132   17.5591   69.8168 H   0  0  0  0  0  0  0  0  0  0  0  0
   -1.2276   24.3047   60.2087 H   0  0  0  0  0  0  0  0  0  0  0  0
    0.9482   25.7297   60.3003 H   0  0  0  0  0  0  0  0  0  0  0  0
    0.7284   27.7346   62.0740 H   0  0  0  0  0  0  0  0  0  0  0  0
   -2.5320   28.6449   63.0981 H   0  0  0  0  0  0  0  0  0  0  0  0
   -2.2690   27.3978   64.3639 H   0  0  0  0  0  0  0  0  0  0  0  0
  1  2  2  0  0  0  0
  1  3  1  0  0  0  0
  3 17  1  0  0  0  0
  3 18  1  0  0  0  0
  4  6  1  0  0  0  0
  5  6  1  0  0  0  0
  5  7  1  0  0  0  0
  6 33  1  0  0  0  0
  7  8  1  0  0  0  0
  7 34  1  0  0  0  0
  8  9  1  0  0  0  0
  8 10  2  0  0  0  0
  9 11  2  0  0  0  0
  9 14  1  0  0  0  0
 11 12  1  0  0  0  0
 11 35  1  0  0  0  0
 12 26  2  0  0  0  0
 12 36  1  0  0  0  0
 13 26  1  0  0  0  0
 13 37  1  0  0  0  0
 14 13  2  0  0  0  0
 14 38  1  0  0  0  0
 15  4  2  0  0  0  0
 15 16  1  0  0  0  0
 16  5  2  0  0  0  0
 17 16  1  0  0  0  0
 17 39  1  0  0  0  0
 17 40  1  0  0  0  0
 18 15  1  0  0  0  0
 18 41  1  0  0  0  0
 18 42  1  0  0  0  0
 19 20  1  0  0  0  0
 19 24  1  0  0  0  0
 20 21  1  0  0  0  0
 20 43  1  0  0  0  0
 20 44  1  0  0  0  0
 21 22  1  0  0  0  0
 21 45  1  0  0  0  0
 21 46  1  0  0  0  0
 22 25  1  0  0  0  0
 22 47  1  0  0  0  0
 23 22  1  0  0  0  0
 23 48  1  0  0  0  0
 23 49  1  0  0  0  0
 24 23  1  0  0  0  0
 24 50  1  0  0  0  0
 24 51  1  0  0  0  0
 25 52  1  0  0  0  0
 25 53  1  0  0  0  0
 25 54  1  0  0  0  0
 26 19  1  0  0  0  0
 27 55  1  0  0  0  0
 28 27  2  0  0  0  0
 28 56  1  0  0  0  0
 29 27  1  0  0  0  0
 30 28  1  0  0  0  0
 30 57  1  0  0  0  0
 31 29  1  0  0  0  0
 31 30  2  0  0  0  0
 31 32  1  0  0  0  0
 32  1  1  0  0  0  0
 32 58  1  0  0  0  0
 32 59  1  0  0  0  0
M  CHG  1  22   1
M  END
