2oyk_ligand
 OpenBabel08222323343D

 45 46  0  0  1  0  0  0  0  0999 V2000
   28.9510   61.1250  -25.7520 O   0  0  0  0  0  0  0  0  0  0  0  0
   29.3330   59.7590  -25.7350 C   0  0  2  0  0  0  0  0  0  0  0  0
   30.8000   59.6320  -26.1520 C   0  0  1  0  0  0  0  0  0  0  0  0
   31.6140   60.3200  -25.1940 O   0  0  0  0  0  0  0  0  0  0  0  0
   31.1900   58.1570  -26.2250 C   0  0  2  0  0  0  0  0  0  0  0  0
   32.5130   58.0530  -26.7810 O   0  0  0  0  0  0  0  0  0  0  0  0
   30.1900   57.3800  -27.0910 C   0  0  1  0  0  0  0  0  0  0  0  0
   30.4760   55.8890  -27.0170 C   0  0  0  0  0  0  0  0  0  0  0  0
   30.3750   55.4190  -25.6570 O   0  0  0  0  0  0  0  0  0  0  0  0
   28.8470   57.5630  -26.5880 O   0  0  0  0  0  0  0  0  0  0  0  0
   28.4360   58.9340  -26.6520 C   0  0  1  0  0  0  0  0  0  0  0  0
   27.1110   58.9690  -26.1310 O   0  0  0  0  0  0  0  0  0  0  0  0
   26.1360   58.3940  -27.0070 C   0  0  1  0  0  0  0  0  0  0  0  0
   25.1900   57.4680  -26.2380 C   0  0  2  0  0  0  0  0  0  0  0  0
   25.9310   56.4620  -25.5550 O   0  0  0  0  0  0  0  0  0  0  0  0
   24.2150   56.8000  -27.1970 C   0  0  0  0  0  0  0  0  0  0  0  0
   23.4410   57.8170  -27.9400 N   0  3  0  0  0  0  0  0  0  0  0  0
   24.3090   58.7950  -28.6330 C   0  0  0  0  0  0  0  0  0  0  0  0
   25.2480   59.4630  -27.6320 C   0  0  2  0  0  0  0  0  0  0  0  0
   26.0640   60.5880  -28.2940 C   0  0  0  0  0  0  0  0  0  0  0  0
   26.7860   60.1180  -29.4410 O   0  0  0  0  0  0  0  0  0  0  0  0
   29.4959   61.6126  -25.1454 H   0  0  0  0  0  0  0  0  0  0  0  0
   29.2251   59.3769  -24.7092 H   0  0  0  0  0  0  0  0  0  0  0  0
   30.9396   60.0901  -27.1423 H   0  0  0  0  0  0  0  0  0  0  0  0
   31.4880   59.9318  -24.3361 H   0  0  0  0  0  0  0  0  0  0  0  0
   31.1887   57.7321  -25.2104 H   0  0  0  0  0  0  0  0  0  0  0  0
   32.5197   58.4314  -27.6523 H   0  0  0  0  0  0  0  0  0  0  0  0
   30.2575   57.7291  -28.1319 H   0  0  0  0  0  0  0  0  0  0  0  0
   31.4924   55.6969  -27.3911 H   0  0  0  0  0  0  0  0  0  0  0  0
   29.7477   55.3499  -27.6407 H   0  0  0  0  0  0  0  0  0  0  0  0
   30.5567   54.4869  -25.6309 H   0  0  0  0  0  0  0  0  0  0  0  0
   28.4729   59.3154  -27.6831 H   0  0  0  0  0  0  0  0  0  0  0  0
   26.6552   57.8305  -27.7962 H   0  0  0  0  0  0  0  0  0  0  0  0
   24.6260   58.0626  -25.5043 H   0  0  0  0  0  0  0  0  0  0  0  0
   26.4229   55.9495  -26.1857 H   0  0  0  0  0  0  0  0  0  0  0  0
   23.5226   56.1647  -26.6252 H   0  0  0  0  0  0  0  0  0  0  0  0
   24.7769   56.1799  -27.9109 H   0  0  0  0  0  0  0  0  0  0  0  0
   22.8506   58.3123  -27.2903 H   0  0  0  0  0  0  0  0  0  0  0  0
   22.8684   57.3502  -28.6258 H   0  0  0  0  0  0  0  0  0  0  0  0
   23.6829   59.5619  -29.1124 H   0  0  0  0  0  0  0  0  0  0  0  0
   24.9035   58.2755  -29.3990 H   0  0  0  0  0  0  0  0  0  0  0  0
   24.6408   59.9154  -26.8341 H   0  0  0  0  0  0  0  0  0  0  0  0
   26.7807   60.9868  -27.5610 H   0  0  0  0  0  0  0  0  0  0  0  0
   25.3777   61.3880  -28.6085 H   0  0  0  0  0  0  0  0  0  0  0  0
   27.2761   60.8372  -29.8219 H   0  0  0  0  0  0  0  0  0  0  0  0
  1  2  1  0  0  0  0
  1 22  1  0  0  0  0
  2  3  1  0  0  0  0
  2 11  1  0  0  0  0
  2 23  1  1  0  0  0
  3  4  1  0  0  0  0
  3  5  1  0  0  0  0
  3 24  1  6  0  0  0
  4 25  1  0  0  0  0
  5  6  1  0  0  0  0
  5  7  1  0  0  0  0
  5 26  1  1  0  0  0
  6 27  1  0  0  0  0
  7  8  1  0  0  0  0
  7 10  1  0  0  0  0
  7 28  1  6  0  0  0
  8  9  1  0  0  0  0
  8 29  1  0  0  0  0
  8 30  1  0  0  0  0
  9 31  1  0  0  0  0
 10 11  1  0  0  0  0
 11 12  1  0  0  0  0
 11 32  1  6  0  0  0
 12 13  1  0  0  0  0
 13 14  1  0  0  0  0
 13 19  1  0  0  0  0
 13 33  1  6  0  0  0
 14 15  1  0  0  0  0
 14 16  1  0  0  0  0
 14 34  1  1  0  0  0
 15 35  1  0  0  0  0
 16 17  1  0  0  0  0
 16 36  1  0  0  0  0
 16 37  1  0  0  0  0
 17 18  1  0  0  0  0
 17 38  1  0  0  0  0
 17 39  1  0  0  0  0
 18 19  1  0  0  0  0
 18 40  1  0  0  0  0
 18 41  1  0  0  0  0
 19 20  1  0  0  0  0
 19 42  1  1  0  0  0
 20 21  1  0  0  0  0
 20 43  1  0  0  0  0
 20 44  1  0  0  0  0
 21 45  1  0  0  0  0
M  CHG  1  17   1
M  END
