2ozr_ligand
 OpenBabel08222323343D

 51 54  0  0  0  0  0  0  0  0999 V2000
    6.1160   33.5450    4.5750 N   0  0  0  0  0  0  0  0  0  0  0  0
    6.1860   34.0960    8.2370 C   0  0  0  0  0  0  0  0  0  0  0  0
    7.7950   34.5970    6.4920 C   0  0  0  0  0  0  0  0  0  0  0  0
    8.9640   34.5620    2.4830 C   0  0  0  0  0  0  0  0  0  0  0  0
   10.9690   35.5660    3.1060 C   0  0  0  0  0  0  0  0  0  0  0  0
    9.8190   35.0950    3.4560 C   0  0  0  0  0  0  0  0  0  0  0  0
    7.5120   30.5890   10.3940 C   0  0  0  0  0  0  0  0  0  0  0  0
    6.2830   30.5700    9.7150 C   0  0  0  0  0  0  0  0  0  0  0  0
    5.8520   31.6960    9.0150 C   0  0  0  0  0  0  0  0  0  0  0  0
    7.8680   32.8640    9.6630 C   0  0  0  0  0  0  0  0  0  0  0  0
   14.4830   35.7010    2.7490 C   0  0  0  0  0  0  0  0  0  0  0  0
    6.6460   32.8480    8.9840 C   0  0  0  0  0  0  0  0  0  0  0  0
    8.1820   34.5870    5.1560 C   0  0  0  0  0  0  0  0  0  0  0  0
    7.9870   29.3910   11.1770 C   0  0  0  0  0  0  0  0  0  0  0  0
   12.0110   35.9830    2.7280 C   0  0  0  0  0  0  0  0  0  0  0  0
    7.4800   28.2920   11.0400 O   0  5  0  0  0  0  0  0  0  0  0  0
    8.9370   29.5240   12.0910 O   0  0  0  0  0  0  0  0  0  0  0  0
    8.3010   31.7410   10.3620 C   0  0  0  0  0  0  0  0  0  0  0  0
    6.5980   34.0880    6.8290 N   0  0  0  0  0  0  0  0  0  0  0  0
    8.5420   35.0730    7.3830 O   0  0  0  0  0  0  0  0  0  0  0  0
    7.3160   34.0460    4.1890 C   0  0  0  0  0  0  0  0  0  0  0  0
    7.7200   34.0350    2.8500 C   0  0  0  0  0  0  0  0  0  0  0  0
    5.1560   32.9630    3.6320 C   0  0  0  0  0  0  0  0  0  0  0  0
    5.7710   33.5720    5.8840 C   0  0  0  0  0  0  0  0  0  0  0  0
    4.6600   33.1010    6.2280 O   0  0  0  0  0  0  0  0  0  0  0  0
    9.4310   35.0980    4.7890 C   0  0  0  0  0  0  0  0  0  0  0  0
   13.2950   36.4940    2.2150 C   0  0  0  0  0  0  0  0  0  0  0  0
   15.7490   35.8910    2.1860 C   0  0  0  0  0  0  0  0  0  0  0  0
   16.8560   35.1940    2.6630 C   0  0  0  0  0  0  0  0  0  0  0  0
   14.3380   34.8000    3.8060 C   0  0  0  0  0  0  0  0  0  0  0  0
   15.4400   34.0940    4.2910 C   0  0  0  0  0  0  0  0  0  0  0  0
   16.7020   34.2930    3.7180 C   0  0  0  0  0  0  0  0  0  0  0  0
    6.6189   34.9807    8.7268 H   0  0  0  0  0  0  0  0  0  0  0  0
    5.0884   34.1513    8.2836 H   0  0  0  0  0  0  0  0  0  0  0  0
    9.2666   34.5575    1.4421 H   0  0  0  0  0  0  0  0  0  0  0  0
    5.6679   29.6776    9.7352 H   0  0  0  0  0  0  0  0  0  0  0  0
    4.9013   31.6792    8.4944 H   0  0  0  0  0  0  0  0  0  0  0  0
    8.4823   33.7569    9.6450 H   0  0  0  0  0  0  0  0  0  0  0  0
    9.2518   31.7605   10.8822 H   0  0  0  0  0  0  0  0  0  0  0  0
    7.0668   33.6165    2.0929 H   0  0  0  0  0  0  0  0  0  0  0  0
    5.5687   33.0091    2.6134 H   0  0  0  0  0  0  0  0  0  0  0  0
    4.2137   33.5291    3.6718 H   0  0  0  0  0  0  0  0  0  0  0  0
    4.9654   31.9141    3.9032 H   0  0  0  0  0  0  0  0  0  0  0  0
   10.0967   35.4967    5.5459 H   0  0  0  0  0  0  0  0  0  0  0  0
   13.2895   36.4283    1.1170 H   0  0  0  0  0  0  0  0  0  0  0  0
   13.4050   37.5454    2.5189 H   0  0  0  0  0  0  0  0  0  0  0  0
   15.8702   36.5906    1.3669 H   0  0  0  0  0  0  0  0  0  0  0  0
   17.8319   35.3502    2.2176 H   0  0  0  0  0  0  0  0  0  0  0  0
   13.3623   34.6478    4.2531 H   0  0  0  0  0  0  0  0  0  0  0  0
   15.3192   33.3933    5.1093 H   0  0  0  0  0  0  0  0  0  0  0  0
   17.5598   33.7471    4.0938 H   0  0  0  0  0  0  0  0  0  0  0  0
  1 23  1  0  0  0  0
  1 24  1  0  0  0  0
  2 12  1  0  0  0  0
  2 33  1  0  0  0  0
  2 34  1  0  0  0  0
  3 19  1  0  0  0  0
  3 20  2  0  0  0  0
  4 22  1  0  0  0  0
  4 35  1  0  0  0  0
  5  6  1  0  0  0  0
  6  4  2  0  0  0  0
  6 26  1  0  0  0  0
  7 14  1  0  0  0  0
  8  7  2  0  0  0  0
  8 36  1  0  0  0  0
  9  8  1  0  0  0  0
  9 37  1  0  0  0  0
 10 18  2  0  0  0  0
 10 38  1  0  0  0  0
 11 28  2  0  0  0  0
 11 30  1  0  0  0  0
 12  9  2  0  0  0  0
 12 10  1  0  0  0  0
 13  3  1  0  0  0  0
 13 21  1  0  0  0  0
 14 16  1  0  0  0  0
 14 17  2  0  0  0  0
 15  5  3  0  0  0  0
 15 27  1  0  0  0  0
 18  7  1  0  0  0  0
 18 39  1  0  0  0  0
 19  2  1  0  0  0  0
 19 24  1  0  0  0  0
 21  1  1  0  0  0  0
 21 22  2  0  0  0  0
 22 40  1  0  0  0  0
 23 41  1  0  0  0  0
 23 42  1  0  0  0  0
 23 43  1  0  0  0  0
 24 25  2  0  0  0  0
 26 13  2  0  0  0  0
 26 44  1  0  0  0  0
 27 11  1  0  0  0  0
 27 45  1  0  0  0  0
 27 46  1  0  0  0  0
 28 29  1  0  0  0  0
 28 47  1  0  0  0  0
 29 32  2  0  0  0  0
 29 48  1  0  0  0  0
 30 31  2  0  0  0  0
 30 49  1  0  0  0  0
 31 32  1  0  0  0  0
 31 50  1  0  0  0  0
 32 51  1  0  0  0  0
M  CHG  1  16  -1
M  END
