2p0d_ligand
 OpenBabel08222323343D

 33 33  0  0  1  0  0  0  0  0999 V2000
   -9.0730  -16.6550   -0.5780 C   0  0  2  0  0  0  0  0  0  0  0  0
   -8.7130  -16.6340   -2.0400 C   0  0  1  0  0  0  0  0  0  0  0  0
   -7.2130  -16.8260   -2.2070 C   0  0  1  0  0  0  0  0  0  0  0  0
   -6.8070  -18.1640   -1.5160 C   0  0  2  0  0  0  0  0  0  0  0  0
   -7.2310  -18.2050   -0.0530 C   0  0  1  0  0  0  0  0  0  0  0  0
   -8.7530  -17.9900    0.1300 C   0  0  1  0  0  0  0  0  0  0  0  0
  -10.4510  -16.3270   -0.5670 O   0  0  0  0  0  0  0  0  0  0  0  0
   -9.4580  -17.6610   -2.7340 O   0  0  0  0  0  0  0  0  0  0  0  0
   -6.9170  -16.9390   -3.6070 O   0  0  0  0  0  0  0  0  0  0  0  0
   -5.3610  -18.3370   -1.6240 O   0  0  0  0  0  0  0  0  0  0  0  0
   -6.8640  -19.4350    0.5490 O   0  0  0  0  0  0  0  0  0  0  0  0
   -8.9780  -17.7550    1.5090 O   0  0  0  0  0  0  0  0  0  0  0  0
  -10.9500  -14.8550   -0.1500 P   0  0  0  0  0  0  0  0  0  0  0  0
  -10.4100  -14.4330    1.1600 O   0  0  0  0  0  1  0  0  0  0  0  0
  -12.4770  -15.0820    0.0030 O   0  0  0  0  0  1  0  0  0  0  0  0
  -10.6150  -14.0910   -1.4030 O   0  0  0  0  0  0  0  0  0  0  0  0
   -4.6010  -19.1520   -2.7680 P   0  0  0  0  0  0  0  0  0  0  0  0
   -4.8830  -20.6170   -2.6710 O   0  0  0  0  0  1  0  0  0  0  0  0
   -5.0410  -18.6300   -4.1030 O   0  0  0  0  0  1  0  0  0  0  0  0
   -3.1610  -18.8100   -2.4500 O   0  0  0  0  0  0  0  0  0  0  0  0
   -6.2130  -19.5690    2.0030 P   0  0  0  0  0  0  0  0  0  0  0  0
   -6.1900  -21.0690    2.1610 O   0  0  0  0  0  1  0  0  0  0  0  0
   -7.0920  -18.8590    2.9830 O   0  0  0  0  0  1  0  0  0  0  0  0
   -4.8660  -18.9000    1.9170 O   0  0  0  0  0  0  0  0  0  0  0  0
   -8.5091  -15.8671   -0.0572 H   0  0  0  0  0  0  0  0  0  0  0  0
   -8.9887  -15.6558   -2.4609 H   0  0  0  0  0  0  0  0  0  0  0  0
   -6.6656  -15.9808   -1.7643 H   0  0  0  0  0  0  0  0  0  0  0  0
   -7.3042  -18.9923   -2.0420 H   0  0  0  0  0  0  0  0  0  0  0  0
   -6.7058  -17.3922    0.4701 H   0  0  0  0  0  0  0  0  0  0  0  0
   -9.3470  -18.8313   -0.2565 H   0  0  0  0  0  0  0  0  0  0  0  0
  -10.3884  -17.5136   -2.6109 H   0  0  0  0  0  0  0  0  0  0  0  0
   -5.9874  -17.0979   -3.7212 H   0  0  0  0  0  0  0  0  0  0  0  0
   -8.6830  -18.5066    2.0094 H   0  0  0  0  0  0  0  0  0  0  0  0
  1  2  1  0  0  0  0
  1  6  1  0  0  0  0
  1  7  1  0  0  0  0
  1 25  1  1  0  0  0
  2  3  1  0  0  0  0
  2  8  1  0  0  0  0
  2 26  1  6  0  0  0
  3  4  1  0  0  0  0
  3  9  1  0  0  0  0
  3 27  1  1  0  0  0
  4  5  1  0  0  0  0
  4 10  1  0  0  0  0
  4 28  1  6  0  0  0
  5  6  1  0  0  0  0
  5 11  1  0  0  0  0
  5 29  1  1  0  0  0
  6 12  1  0  0  0  0
  6 30  1  6  0  0  0
  7 13  1  0  0  0  0
  8 31  1  0  0  0  0
  9 32  1  0  0  0  0
 10 17  1  0  0  0  0
 11 21  1  0  0  0  0
 12 33  1  0  0  0  0
 13 14  1  0  0  0  0
 13 15  1  0  0  0  0
 13 16  2  0  0  0  0
 17 18  1  0  0  0  0
 17 19  1  0  0  0  0
 17 20  2  0  0  0  0
 21 22  1  0  0  0  0
 21 23  1  0  0  0  0
 21 24  2  0  0  0  0
M  END
