2p1c_ligand
 OpenBabel08222323343D

 46 46  0  0  1  0  0  0  0  0999 V2000
   70.2990   36.9170    0.6930 C   0  0  0  0  0  0  0  0  0  0  0  0
   71.4470   37.7870   -1.2770 C   0  0  0  0  0  0  0  0  0  0  0  0
   70.8280   35.8090    1.6510 C   0  0  0  0  0  0  0  0  0  0  0  0
   71.4490   34.6920    0.7790 C   0  0  0  0  0  0  0  0  0  0  0  0
   71.2690   32.7360    2.7170 O   0  0  0  0  0  1  0  0  0  0  0  0
   70.8370   33.0770    1.3150 P   0  0  0  0  0  0  0  0  0  0  0  0
   71.3170   32.1430    0.2630 O   0  0  0  0  0  1  0  0  0  0  0  0
   69.3140   33.2720    1.2510 O   0  0  0  0  0  0  0  0  0  0  0  0
   73.2990   34.7380    0.8190 P   0  0  0  0  0  0  0  0  0  0  0  0
   73.6200   34.3700    2.2510 O   0  0  0  0  0  1  0  0  0  0  0  0
   73.8220   33.6220   -0.0860 O   0  0  0  0  0  1  0  0  0  0  0  0
   73.6200   36.1430    0.3890 O   0  0  0  0  0  0  0  0  0  0  0  0
   70.9320   34.8000   -0.5820 O   0  0  0  0  0  0  0  0  0  0  0  0
   71.3710   37.8260    0.2190 N   0  3  1  0  0  0  0  0  0  0  0  0
   71.1500   39.1790    0.7560 C   0  0  0  0  0  0  0  0  0  0  0  0
   70.7410   38.8750   -2.0820 C   0  0  0  0  0  0  0  0  0  0  0  0
   71.0090   38.5320   -3.5370 C   0  0  0  0  0  0  0  0  0  0  0  0
   71.2980   39.8110   -4.2670 C   0  0  0  0  0  0  0  0  0  0  0  0
   71.5740   39.6100   -5.7500 C   0  0  0  0  0  0  0  0  0  0  0  0
   71.8720   40.7690   -6.5220 C   0  0  0  0  0  0  0  0  0  0  0  0
   72.1240   40.6580   -7.9130 C   0  0  0  0  0  0  0  0  0  0  0  0
   72.0840   39.3800   -8.5300 C   0  0  0  0  0  0  0  0  0  0  0  0
   71.7990   38.2190   -7.7700 C   0  0  0  0  0  0  0  0  0  0  0  0
   71.5500   38.3180   -6.3830 C   0  0  0  0  0  0  0  0  0  0  0  0
   69.5439   37.5124    1.2271 H   0  0  0  0  0  0  0  0  0  0  0  0
   69.8354   36.4348   -0.1802 H   0  0  0  0  0  0  0  0  0  0  0  0
   71.0233   36.8234   -1.5964 H   0  0  0  0  0  0  0  0  0  0  0  0
   72.5126   37.8265   -1.5469 H   0  0  0  0  0  0  0  0  0  0  0  0
   69.9983   35.4014    2.2472 H   0  0  0  0  0  0  0  0  0  0  0  0
   71.5914   36.2278    2.3232 H   0  0  0  0  0  0  0  0  0  0  0  0
   71.2738   34.0858   -1.1070 H   0  0  0  0  0  0  0  0  0  0  0  0
   72.2519   37.4936    0.5790 H   0  0  0  0  0  0  0  0  0  0  0  0
   71.1048   39.1347    1.8542 H   0  0  0  0  0  0  0  0  0  0  0  0
   70.2021   39.5781    0.3658 H   0  0  0  0  0  0  0  0  0  0  0  0
   71.9780   39.8350    0.4493 H   0  0  0  0  0  0  0  0  0  0  0  0
   71.1533   39.8649   -1.8370 H   0  0  0  0  0  0  0  0  0  0  0  0
   69.6604   38.8668   -1.8767 H   0  0  0  0  0  0  0  0  0  0  0  0
   70.1260   38.0434   -3.9745 H   0  0  0  0  0  0  0  0  0  0  0  0
   71.8747   37.8571   -3.6085 H   0  0  0  0  0  0  0  0  0  0  0  0
   72.1798   40.2827   -3.8088 H   0  0  0  0  0  0  0  0  0  0  0  0
   70.4292   40.4772   -4.1610 H   0  0  0  0  0  0  0  0  0  0  0  0
   71.9064   41.7412   -6.0437 H   0  0  0  0  0  0  0  0  0  0  0  0
   72.3454   41.5417   -8.5005 H   0  0  0  0  0  0  0  0  0  0  0  0
   72.2735   39.2917   -9.5937 H   0  0  0  0  0  0  0  0  0  0  0  0
   71.7719   37.2500   -8.2551 H   0  0  0  0  0  0  0  0  0  0  0  0
   71.3425   37.4278   -5.8002 H   0  0  0  0  0  0  0  0  0  0  0  0
  1  3  1  0  0  0  0
  1 14  1  0  0  0  0
  1 25  1  0  0  0  0
  1 26  1  0  0  0  0
  2 16  1  0  0  0  0
  2 27  1  0  0  0  0
  2 28  1  0  0  0  0
  3  4  1  0  0  0  0
  3 29  1  0  0  0  0
  3 30  1  0  0  0  0
  4  6  1  0  0  0  0
  4  9  1  0  0  0  0
  4 13  1  0  0  0  0
  6  5  1  0  0  0  0
  6  7  1  0  0  0  0
  6  8  2  0  0  0  0
  9 10  1  0  0  0  0
  9 11  1  0  0  0  0
  9 12  2  0  0  0  0
 13 31  1  0  0  0  0
 14  2  1  0  0  0  0
 14 15  1  0  0  0  0
 14 32  1  1  0  0  0
 15 33  1  0  0  0  0
 15 34  1  0  0  0  0
 15 35  1  0  0  0  0
 16 17  1  0  0  0  0
 16 36  1  0  0  0  0
 16 37  1  0  0  0  0
 17 18  1  0  0  0  0
 17 38  1  0  0  0  0
 17 39  1  0  0  0  0
 18 19  1  0  0  0  0
 18 40  1  0  0  0  0
 18 41  1  0  0  0  0
 19 20  2  0  0  0  0
 19 24  1  0  0  0  0
 20 21  1  0  0  0  0
 20 42  1  0  0  0  0
 21 22  2  0  0  0  0
 21 43  1  0  0  0  0
 22 23  1  0  0  0  0
 22 44  1  0  0  0  0
 23 24  2  0  0  0  0
 23 45  1  0  0  0  0
 24 46  1  0  0  0  0
M  CHG  1  14   1
M  END
