2p2h_ligand
 OpenBabel08222323343D

 54 57  0  0  0  0  0  0  0  0999 V2000
   11.2070   18.0550   41.2510 C   0  0  0  0  0  0  0  0  0  0  0  0
   10.5650   19.0310   42.0780 C   0  0  0  0  0  0  0  0  0  0  0  0
    9.2250   18.7980   42.4990 C   0  0  0  0  0  0  0  0  0  0  0  0
    8.5120   17.6090   42.1120 C   0  0  0  0  0  0  0  0  0  0  0  0
    9.1750   16.6600   41.2920 C   0  0  0  0  0  0  0  0  0  0  0  0
   10.5070   16.8580   40.8540 C   0  0  0  0  0  0  0  0  0  0  0  0
    7.2000   17.2980   42.4690 N   0  0  0  0  0  0  0  0  0  0  0  0
    6.4540   17.7350   43.5410 C   0  0  0  0  0  0  0  0  0  0  0  0
    6.9550   18.6170   44.4240 N   0  0  0  0  0  0  0  0  0  0  0  0
    6.2110   19.0520   45.5060 C   0  0  0  0  0  0  0  0  0  0  0  0
    4.9450   18.5160   45.5900 N   0  0  0  0  0  0  0  0  0  0  0  0
    4.5250   17.6450   44.6640 C   0  0  0  0  0  0  0  0  0  0  0  0
    5.2350   17.2120   43.6150 N   0  0  0  0  0  0  0  0  0  0  0  0
   11.0760   15.8530   40.0470 O   0  0  0  0  0  0  0  0  0  0  0  0
   11.0390   16.1480   38.6610 C   0  0  0  0  0  0  0  0  0  0  0  0
   12.5140   18.2690   40.8410 O   0  0  0  0  0  0  0  0  0  0  0  0
   13.4330   17.7260   41.7940 C   0  0  0  0  0  0  0  0  0  0  0  0
   11.2800   20.2040   42.4630 O   0  0  0  0  0  0  0  0  0  0  0  0
   10.4860   21.3920   42.6220 C   0  0  0  0  0  0  0  0  0  0  0  0
    6.8040   20.0490   46.4950 C   0  0  0  0  0  0  0  0  0  0  0  0
    8.1210   20.5080   46.2680 C   0  0  0  0  0  0  0  0  0  0  0  0
    8.7540   21.4340   47.1260 C   0  0  0  0  0  0  0  0  0  0  0  0
    8.0410   21.9060   48.2370 C   0  0  0  0  0  0  0  0  0  0  0  0
    6.7810   21.4880   48.4910 N   0  0  0  0  0  0  0  0  0  0  0  0
    6.1490   20.5770   47.6580 C   0  0  0  0  0  0  0  0  0  0  0  0
    4.8730   20.1930   47.9810 N   0  0  0  0  0  0  0  0  0  0  0  0
    4.3180   20.2880   49.2270 C   0  0  0  0  0  0  0  0  0  0  0  0
    3.5190   21.4000   49.6120 C   0  0  0  0  0  0  0  0  0  0  0  0
    2.9630   21.4660   50.9160 C   0  0  0  0  0  0  0  0  0  0  0  0
    3.2090   20.4150   51.8380 C   0  0  0  0  0  0  0  0  0  0  0  0
    4.0070   19.3050   51.4560 C   0  0  0  0  0  0  0  0  0  0  0  0
    4.5590   19.2430   50.1570 C   0  0  0  0  0  0  0  0  0  0  0  0
    8.7308   19.5323   43.1248 H   0  0  0  0  0  0  0  0  0  0  0  0
    8.6487   15.7607   40.9932 H   0  0  0  0  0  0  0  0  0  0  0  0
    6.7171   16.6440   41.8366 H   0  0  0  0  0  0  0  0  0  0  0  0
    3.5194   17.2553   44.7736 H   0  0  0  0  0  0  0  0  0  0  0  0
   11.4985   15.3222   38.0980 H   0  0  0  0  0  0  0  0  0  0  0  0
   11.5956   17.0771   38.4689 H   0  0  0  0  0  0  0  0  0  0  0  0
    9.9942   16.2735   38.3406 H   0  0  0  0  0  0  0  0  0  0  0  0
   14.4633   17.9048   41.4528 H   0  0  0  0  0  0  0  0  0  0  0  0
   13.2621   16.6439   41.8929 H   0  0  0  0  0  0  0  0  0  0  0  0
   13.2801   18.2120   42.7689 H   0  0  0  0  0  0  0  0  0  0  0  0
   11.1347   22.2296   42.9179 H   0  0  0  0  0  0  0  0  0  0  0  0
    9.7264   21.2240   43.3997 H   0  0  0  0  0  0  0  0  0  0  0  0
    9.9895   21.6314   41.6701 H   0  0  0  0  0  0  0  0  0  0  0  0
    8.6637   20.1368   45.4062 H   0  0  0  0  0  0  0  0  0  0  0  0
    9.7655   21.7713   46.9305 H   0  0  0  0  0  0  0  0  0  0  0  0
    8.5092   22.6198   48.9051 H   0  0  0  0  0  0  0  0  0  0  0  0
    4.2882   19.8034   47.2279 H   0  0  0  0  0  0  0  0  0  0  0  0
    3.3338   22.2012   48.9057 H   0  0  0  0  0  0  0  0  0  0  0  0
    2.3538   22.3143   51.2064 H   0  0  0  0  0  0  0  0  0  0  0  0
    2.7868   20.4602   52.8354 H   0  0  0  0  0  0  0  0  0  0  0  0
    4.1931   18.5037   52.1620 H   0  0  0  0  0  0  0  0  0  0  0  0
    5.1689   18.3942   49.8694 H   0  0  0  0  0  0  0  0  0  0  0  0
  1  2  2  0  0  0  0
  1  6  1  0  0  0  0
  1 16  1  0  0  0  0
  2  3  1  0  0  0  0
  2 18  1  0  0  0  0
  3  4  2  0  0  0  0
  3 33  1  0  0  0  0
  4  5  1  0  0  0  0
  4  7  1  0  0  0  0
  5  6  2  0  0  0  0
  5 34  1  0  0  0  0
  6 14  1  0  0  0  0
  7  8  1  0  0  0  0
  7 35  1  0  0  0  0
  8  9  2  0  0  0  0
  8 13  1  0  0  0  0
  9 10  1  0  0  0  0
 10 11  2  0  0  0  0
 10 20  1  0  0  0  0
 11 12  1  0  0  0  0
 12 13  2  0  0  0  0
 12 36  1  0  0  0  0
 14 15  1  0  0  0  0
 15 37  1  0  0  0  0
 15 38  1  0  0  0  0
 15 39  1  0  0  0  0
 16 17  1  0  0  0  0
 17 40  1  0  0  0  0
 17 41  1  0  0  0  0
 17 42  1  0  0  0  0
 18 19  1  0  0  0  0
 19 43  1  0  0  0  0
 19 44  1  0  0  0  0
 19 45  1  0  0  0  0
 20 21  2  0  0  0  0
 20 25  1  0  0  0  0
 21 22  1  0  0  0  0
 21 46  1  0  0  0  0
 22 23  2  0  0  0  0
 22 47  1  0  0  0  0
 23 24  1  0  0  0  0
 23 48  1  0  0  0  0
 24 25  2  0  0  0  0
 25 26  1  0  0  0  0
 26 27  1  0  0  0  0
 26 49  1  0  0  0  0
 27 28  2  0  0  0  0
 27 32  1  0  0  0  0
 28 29  1  0  0  0  0
 28 50  1  0  0  0  0
 29 30  2  0  0  0  0
 29 51  1  0  0  0  0
 30 31  1  0  0  0  0
 30 52  1  0  0  0  0
 31 32  2  0  0  0  0
 31 53  1  0  0  0  0
 32 54  1  0  0  0  0
M  END
