2p3g_ligand
 OpenBabel08222323343D

 37 40  0  0  0  0  0  0  0  0999 V2000
   87.7620  260.1570  111.6410 N   0  0  0  0  0  0  0  0  0  0  0  0
   88.5970  260.7450  109.5390 O   0  0  0  0  0  0  0  0  0  0  0  0
   79.0800  262.6050  106.2230 C   0  0  0  0  0  0  0  0  0  0  0  0
   81.9920  261.2230  107.9860 C   0  0  0  0  0  0  0  0  0  0  0  0
   77.7060  262.6780  106.1980 C   0  0  0  0  0  0  0  0  0  0  0  0
   85.7050  260.9450  108.6950 C   0  0  0  0  0  0  0  0  0  0  0  0
   86.6550  260.2380  112.5800 C   0  0  0  0  0  0  0  0  0  0  0  0
   85.3990  259.5690  112.0610 C   0  0  0  0  0  0  0  0  0  0  0  0
   86.2930  260.4980  109.8980 C   0  0  0  0  0  0  0  0  0  0  0  0
   87.6680  260.4790  110.3000 C   0  0  0  0  0  0  0  0  0  0  0  0
   83.8470  261.5410  106.5510 C   0  0  0  0  0  0  0  0  0  0  0  0
   82.9710  261.9010  105.5620 C   0  0  0  0  0  0  0  0  0  0  0  0
   85.2640  260.0900  110.7060 C   0  0  0  0  0  0  0  0  0  0  0  0
   83.3580  261.1890  107.7880 C   0  0  0  0  0  0  0  0  0  0  0  0
   84.3350  260.8050  108.7880 C   0  0  0  0  0  0  0  0  0  0  0  0
   81.1820  261.5950  106.9290 C   0  0  0  0  0  0  0  0  0  0  0  0
   79.7360  261.6530  106.9730 C   0  0  0  0  0  0  0  0  0  0  0  0
   78.9540  260.7770  107.6960 C   0  0  0  0  0  0  0  0  0  0  0  0
   77.5790  260.8360  107.6910 C   0  0  0  0  0  0  0  0  0  0  0  0
   76.9480  261.7910  106.9300 C   0  0  0  0  0  0  0  0  0  0  0  0
   79.5220  259.8280  108.4410 F   0  0  0  0  0  0  0  0  0  0  0  0
   84.0890  260.2640  110.0260 N   0  0  0  0  0  0  0  0  0  0  0  0
   81.6500  261.9320  105.7220 N   0  0  0  0  0  0  0  0  0  0  0  0
   88.6480  259.8487  111.9874 H   0  0  0  0  0  0  0  0  0  0  0  0
   79.6591  263.3119  105.6399 H   0  0  0  0  0  0  0  0  0  0  0  0
   81.5645  260.9640  108.9479 H   0  0  0  0  0  0  0  0  0  0  0  0
   77.2175  263.4379  105.5988 H   0  0  0  0  0  0  0  0  0  0  0  0
   86.2444  261.3365  107.8338 H   0  0  0  0  0  0  0  0  0  0  0  0
   86.4347  261.2981  112.7739 H   0  0  0  0  0  0  0  0  0  0  0  0
   86.9528  259.7477  113.5185 H   0  0  0  0  0  0  0  0  0  0  0  0
   84.5275  259.8413  112.6744 H   0  0  0  0  0  0  0  0  0  0  0  0
   85.5129  258.4750  112.0509 H   0  0  0  0  0  0  0  0  0  0  0  0
   84.9143  261.5334  106.3614 H   0  0  0  0  0  0  0  0  0  0  0  0
   83.3760  262.1761  104.5948 H   0  0  0  0  0  0  0  0  0  0  0  0
   76.9991  260.1360  108.2816 H   0  0  0  0  0  0  0  0  0  0  0  0
   75.8656  261.8455  106.9062 H   0  0  0  0  0  0  0  0  0  0  0  0
   83.1558  260.0240  110.3900 H   0  0  0  0  0  0  0  0  0  0  0  0
  1 24  1  0  0  0  0
  3  5  2  0  0  0  0
  3 25  1  0  0  0  0
  4 14  2  0  0  0  0
  4 26  1  0  0  0  0
  5 20  1  0  0  0  0
  5 27  1  0  0  0  0
  6  9  1  0  0  0  0
  6 28  1  0  0  0  0
  7  1  1  0  0  0  0
  7 29  1  0  0  0  0
  7 30  1  0  0  0  0
  8  7  1  0  0  0  0
  8 31  1  0  0  0  0
  8 32  1  0  0  0  0
  9 10  1  0  0  0  0
 10  1  1  0  0  0  0
 10  2  2  0  0  0  0
 11 12  2  0  0  0  0
 11 33  1  0  0  0  0
 12 23  1  0  0  0  0
 12 34  1  0  0  0  0
 13  8  1  0  0  0  0
 13  9  2  0  0  0  0
 14 11  1  0  0  0  0
 14 15  1  0  0  0  0
 15  6  2  0  0  0  0
 15 22  1  0  0  0  0
 16  4  1  0  0  0  0
 16 17  1  0  0  0  0
 16 23  2  0  0  0  0
 17  3  1  0  0  0  0
 17 18  2  0  0  0  0
 18 19  1  0  0  0  0
 18 21  1  0  0  0  0
 19 20  2  0  0  0  0
 19 35  1  0  0  0  0
 20 36  1  0  0  0  0
 22 13  1  0  0  0  0
 22 37  1  0  0  0  0
M  END
