2p3o_ligand
 OpenBabel08222323343D

 79 84  0  0  1  0  0  0  0  0999 V2000
   16.0310   52.7420  -11.8090 N   0  0  0  0  0  0  0  0  0  0  0  0
   19.0260   54.1840   -8.5550 O   0  0  0  0  0  0  0  0  0  0  0  0
   18.1180   53.3930   -8.9270 C   0  0  0  0  0  0  0  0  0  0  0  0
   17.6460   52.4000   -8.0420 C   0  0  0  0  0  0  0  0  0  0  0  0
   17.9500   52.0310   -6.7660 N   0  0  0  0  0  4  0  0  0  0  0  0
   18.8150   52.5830   -5.7280 C   0  0  0  0  0  0  0  0  0  0  0  0
   17.1270   50.9870   -6.4890 C   0  0  0  0  0  0  0  0  0  0  0  0
   16.3130   50.7040   -7.5380 N   0  0  0  0  0  0  0  0  0  0  0  0
   16.6300   51.5660   -8.4960 C   0  0  0  0  0  0  0  0  0  0  0  0
   16.1310   51.7210   -9.7350 N   0  0  0  0  0  0  0  0  0  0  0  0
   16.5940   52.6640  -10.5740 C   0  0  2  0  0  3  0  0  0  0  0  0
   17.5860   53.5040  -10.1810 N   0  0  0  0  0  0  0  0  0  0  0  0
   14.8300   46.2790   -6.9960 O   0  0  0  0  0  0  0  0  0  0  0  0
   15.2190   49.6840   -7.7060 C   0  0  1  0  0  0  0  0  0  0  0  0
   15.6940   48.2600   -7.8910 C   0  0  1  0  0  0  0  0  0  0  0  0
   15.3480   47.5480   -6.6190 C   0  0  1  0  0  0  0  0  0  0  0  0
   14.2400   48.3680   -6.0010 C   0  0  1  0  0  0  0  0  0  0  0  0
   14.4590   48.4940   -4.5070 C   0  0  0  0  0  0  0  0  0  0  0  0
   14.2770   49.6630   -6.6310 O   0  0  0  0  0  0  0  0  0  0  0  0
   14.8880   47.7000   -8.9410 O   0  0  0  0  0  0  0  0  0  0  0  0
   15.6540   50.3130   -2.9500 P   0  0  1  0  0  0  0  0  0  0  0  0
   14.4850   49.9820   -2.0540 O   0  0  0  0  0  1  0  0  0  0  0  0
   16.0750   51.7560   -3.1470 O   0  0  0  0  0  0  0  0  0  0  0  0
   16.9620   49.5010   -2.5080 O   0  0  0  0  0  0  0  0  0  0  0  0
   15.4230   49.5350   -4.3430 O   0  0  0  0  0  0  0  0  0  0  0  0
   16.9990   48.3850   -1.3370 P   0  0  2  0  0  0  0  0  0  0  0  0
   17.2280   47.0090   -1.9500 O   0  0  0  0  0  1  0  0  0  0  0  0
   15.8400   48.6910   -0.4170 O   0  0  0  0  0  0  0  0  0  0  0  0
   18.3960   48.7480   -0.5940 O   0  0  0  0  0  0  0  0  0  0  0  0
   19.6800   49.4540   -1.3100 P   0  0  2  0  0  0  0  0  0  0  0  0
   20.8630   49.2210   -0.3880 O   0  0  0  0  0  1  0  0  0  0  0  0
   19.3400   50.8940   -1.7360 O   0  0  0  0  0  0  0  0  0  0  0  0
   19.9620   48.5430   -2.6100 O   0  0  0  0  0  0  0  0  0  0  0  0
   19.9310   49.1730   -3.8730 C   0  0  0  0  0  0  0  0  0  0  0  0
   19.6430   48.0880   -4.8720 C   0  0  1  0  0  0  0  0  0  0  0  0
   19.2070   48.7070   -6.0860 O   0  0  0  0  0  0  0  0  0  0  0  0
   20.9340   47.3390   -5.1540 C   0  0  1  0  0  0  0  0  0  0  0  0
   20.6720   45.9290   -5.2450 O   0  0  0  0  0  0  0  0  0  0  0  0
   21.3820   47.9060   -6.4860 C   0  0  1  0  0  0  0  0  0  0  0  0
   22.1210   46.9550   -7.2810 O   0  0  0  0  0  0  0  0  0  0  0  0
   20.0610   48.2920   -7.1410 C   0  0  2  0  0  0  0  0  0  0  0  0
   20.2600   49.4160   -8.0610 N   0  0  0  0  0  0  0  0  0  0  0  0
   21.0570   50.4820   -7.8520 C   0  0  0  0  0  0  0  0  0  0  0  0
   20.9890   51.2880   -8.9150 N   0  0  0  0  0  0  0  0  0  0  0  0
   20.1530   50.7030   -9.7690 C   0  0  0  0  0  0  0  0  0  0  0  0
   19.7540   51.1540  -11.0150 C   0  0  0  0  0  0  0  0  0  0  0  0
   20.2010   52.2360  -11.4400 N   0  0  0  0  0  0  0  0  0  0  0  0
   18.8950   50.4040  -11.7300 N   0  0  0  0  0  0  0  0  0  0  0  0
   18.4360   49.2430  -11.2130 C   0  0  0  0  0  0  0  0  0  0  0  0
   18.8090   48.7850   -9.9800 N   0  0  0  0  0  0  0  0  0  0  0  0
   19.6840   49.5210   -9.2500 C   0  0  0  0  0  0  0  0  0  0  0  0
   15.2802   52.0889  -12.0749 H   0  0  0  0  0  0  0  0  0  0  0  0
   16.3553   53.4542  -12.4788 H   0  0  0  0  0  0  0  0  0  0  0  0
   18.7591   51.9507   -4.8296 H   0  0  0  0  0  0  0  0  0  0  0  0
   18.4853   53.6026   -5.4798 H   0  0  0  0  0  0  0  0  0  0  0  0
   19.8526   52.6116   -6.0922 H   0  0  0  0  0  0  0  0  0  0  0  0
   17.1207   50.4451   -5.5444 H   0  0  0  0  0  0  0  0  0  0  0  0
   15.3725   51.0996  -10.0503 H   0  0  0  0  0  0  0  0  0  0  0  0
   17.9271   54.2035  -10.8089 H   0  0  0  0  0  0  0  0  0  0  0  0
   14.0594   46.4011   -7.5381 H   0  0  0  0  0  0  0  0  0  0  0  0
   14.6759   49.9703   -8.6187 H   0  0  0  0  0  0  0  0  0  0  0  0
   16.7684   48.2017   -8.1198 H   0  0  0  0  0  0  0  0  0  0  0  0
   16.2113   47.4495   -5.9444 H   0  0  0  0  0  0  0  0  0  0  0  0
   13.2675   47.8886   -6.1866 H   0  0  0  0  0  0  0  0  0  0  0  0
   14.8417   47.5488   -4.0946 H   0  0  0  0  0  0  0  0  0  0  0  0
   13.5183   48.7599   -4.0027 H   0  0  0  0  0  0  0  0  0  0  0  0
   15.0897   48.1364   -9.7605 H   0  0  0  0  0  0  0  0  0  0  0  0
   20.9016   49.6433   -4.0892 H   0  0  0  0  0  0  0  0  0  0  0  0
   19.1396   49.9365   -3.8997 H   0  0  0  0  0  0  0  0  0  0  0  0
   18.8738   47.4018   -4.4882 H   0  0  0  0  0  0  0  0  0  0  0  0
   21.6849   47.5273   -4.3725 H   0  0  0  0  0  0  0  0  0  0  0  0
   21.4837   45.4680   -5.4214 H   0  0  0  0  0  0  0  0  0  0  0  0
   22.0107   48.7953   -6.3314 H   0  0  0  0  0  0  0  0  0  0  0  0
   21.5741   46.1984   -7.4571 H   0  0  0  0  0  0  0  0  0  0  0  0
   19.6309   47.4351   -7.6801 H   0  0  0  0  0  0  0  0  0  0  0  0
   21.6586   50.6579   -6.9615 H   0  0  0  0  0  0  0  0  0  0  0  0
   19.9129   52.5843  -12.3655 H   0  0  0  0  0  0  0  0  0  0  0  0
   20.8587   52.7826  -10.8659 H   0  0  0  0  0  0  0  0  0  0  0  0
   17.7436   48.6504  -11.8000 H   0  0  0  0  0  0  0  0  0  0  0  0
  1 52  1  0  0  0  0
  1 53  1  0  0  0  0
  3  2  2  0  0  0  0
  3 12  1  0  0  0  0
  4  3  1  0  0  0  0
  4  5  1  0  0  0  0
  5  6  1  0  0  0  0
  6 54  1  0  0  0  0
  6 55  1  0  0  0  0
  6 56  1  0  0  0  0
  7  5  2  0  0  0  0
  7 57  1  0  0  0  0
  8  7  1  0  0  0  0
  8  9  1  0  0  0  0
  9  4  2  0  0  0  0
  9 10  1  0  0  0  0
 10 11  1  0  0  0  0
 10 58  1  0  0  0  0
 11  1  1  1  0  0  0
 11 12  1  0  0  0  0
 12 59  1  0  0  0  0
 13 60  1  0  0  0  0
 14  8  1  0  0  0  0
 14 15  1  0  0  0  0
 14 61  1  6  0  0  0
 15 20  1  0  0  0  0
 15 62  1  6  0  0  0
 16 13  1  0  0  0  0
 16 15  1  0  0  0  0
 16 63  1  1  0  0  0
 17 16  1  0  0  0  0
 17 19  1  0  0  0  0
 17 64  1  6  0  0  0
 18 17  1  0  0  0  0
 18 65  1  0  0  0  0
 18 66  1  0  0  0  0
 19 14  1  0  0  0  0
 20 67  1  0  0  0  0
 21 22  1  1  0  0  0
 21 23  2  0  0  0  0
 21 24  1  0  0  0  0
 21 25  1  0  0  0  0
 24 26  1  0  0  0  0
 25 18  1  0  0  0  0
 26 27  1  6  0  0  0
 26 28  2  0  0  0  0
 26 29  1  0  0  0  0
 29 30  1  0  0  0  0
 30 31  1  1  0  0  0
 30 32  2  0  0  0  0
 30 33  1  0  0  0  0
 33 34  1  0  0  0  0
 34 35  1  0  0  0  0
 34 68  1  0  0  0  0
 34 69  1  0  0  0  0
 35 36  1  0  0  0  0
 35 37  1  0  0  0  0
 35 70  1  1  0  0  0
 36 41  1  0  0  0  0
 37 38  1  0  0  0  0
 37 39  1  0  0  0  0
 37 71  1  1  0  0  0
 38 72  1  0  0  0  0
 39 40  1  0  0  0  0
 39 41  1  0  0  0  0
 39 73  1  1  0  0  0
 40 74  1  0  0  0  0
 41 42  1  0  0  0  0
 41 75  1  6  0  0  0
 42 43  1  0  0  0  0
 42 51  1  0  0  0  0
 43 44  2  0  0  0  0
 43 76  1  0  0  0  0
 44 45  1  0  0  0  0
 45 46  2  0  0  0  0
 45 51  1  0  0  0  0
 46 47  1  0  0  0  0
 46 48  1  0  0  0  0
 47 77  1  0  0  0  0
 47 78  1  0  0  0  0
 48 49  2  0  0  0  0
 49 50  1  0  0  0  0
 49 79  1  0  0  0  0
 50 51  2  0  0  0  0
M  END
