2p59_ligand
 OpenBabel08222323343D

107111  0  0  1  0  0  0  0  0999 V2000
   84.4040   76.1350   48.9260 C   0  0  2  0  0  0  0  0  0  0  0  0
   83.6740   76.0340   50.3010 C   0  0  2  0  0  0  0  0  0  0  0  0
   76.1180   75.6710   49.7570 C   0  0  0  0  0  0  0  0  0  0  0  0
   90.3060   68.6870   49.8650 C   0  0  2  0  0  0  0  0  0  0  0  0
   76.7550   75.7760   51.1550 C   0  0  0  0  0  0  0  0  0  0  0  0
   79.1460   75.7660   49.9960 C   0  0  0  0  0  0  0  0  0  0  0  0
   78.5130   80.5220   58.6130 O   0  0  0  0  0  0  0  0  0  0  0  0
   91.2530   69.7900   50.5010 C   0  0  0  0  0  0  0  0  0  0  0  0
   78.8800   75.7390   52.5170 C   0  0  2  0  0  0  0  0  0  0  0  0
   82.3810   74.3900   52.5990 C   0  0  2  0  0  0  0  0  0  0  0  0
   84.5070   73.6370   49.3030 C   0  0  2  0  0  0  0  0  0  0  0  0
   85.9630   70.0460   50.0160 C   0  0  1  0  0  0  0  0  0  0  0  0
   78.4450   75.7150   48.6310 C   0  0  0  0  0  0  0  0  0  0  0  0
   80.3980   75.9340   52.5000 C   0  0  0  0  0  0  0  0  0  0  0  0
   87.6160   70.8710   48.2210 O   0  0  0  0  0  0  0  0  0  0  0  0
   78.5940   81.0000   56.3020 O   0  0  0  0  0  0  0  0  0  0  0  0
   83.1230   73.5110   51.5860 C   0  0  0  0  0  0  0  0  0  0  0  0
   89.1830   69.2100   49.0520 N   0  0  0  0  0  0  0  0  0  0  0  0
   85.5330   72.6260   49.8790 C   0  0  0  0  0  0  0  0  0  0  0  0
   77.0630   75.0140   48.7230 C   0  0  0  0  0  0  0  0  0  0  0  0
   80.9210   77.0130   52.8220 O   0  0  0  0  0  0  0  0  0  0  0  0
   78.2450   76.1710   51.1770 C   0  0  0  0  0  0  0  0  0  0  0  0
   82.7000   74.2760   54.1770 C   0  0  0  0  0  0  0  0  0  0  0  0
   85.1920   74.8530   48.6620 C   0  0  0  0  0  0  0  0  0  0  0  0
   85.1510   68.8490   50.5370 C   0  0  0  0  0  0  0  0  0  0  0  0
   82.4240   75.6350   54.9300 C   0  0  0  0  0  0  0  0  0  0  0  0
   81.0500   74.8100   52.1050 N   0  0  0  0  0  0  0  0  0  0  0  0
   83.2280   72.2820   51.7470 O   0  0  0  0  0  0  0  0  0  0  0  0
   86.6260   73.0130   50.3610 O   0  0  0  0  0  0  0  0  0  0  0  0
   77.9760   76.3970   57.3610 N   0  0  0  0  0  0  0  0  0  0  0  0
   84.2580   73.9930   54.3440 C   0  0  0  0  0  0  0  0  0  0  0  0
   81.7710   73.1060   54.8210 C   0  0  0  0  0  0  0  0  0  0  0  0
   84.1000   69.2030   51.5750 C   0  0  0  0  0  0  0  0  0  0  0  0
   85.0160   77.5350   48.6840 C   0  0  0  0  0  0  0  0  0  0  0  0
   86.8650   69.6570   48.7370 C   0  0  1  0  0  0  0  0  0  0  0  0
   84.6120   76.4140   51.4640 C   0  0  0  0  0  0  0  0  0  0  0  0
   90.4530   69.4040   51.2790 C   0  0  0  0  0  0  0  0  0  0  0  0
   78.2160   76.2740   53.7120 N   0  0  0  0  0  0  0  0  0  0  0  0
   87.6070   67.6810   49.7150 O   0  0  0  0  0  0  0  0  0  0  0  0
   83.6700   74.3810   50.3910 N   0  0  0  0  0  0  0  0  0  0  0  0
   85.1090   71.2710   49.8070 N   0  0  0  0  0  0  0  0  0  0  0  0
   87.9180   68.7560   49.2130 C   0  0  0  0  0  0  0  0  0  0  0  0
   84.7820   69.1510   52.9260 C   0  0  0  0  0  0  0  0  0  0  0  0
   78.7660   74.5420   55.1950 O   0  0  0  0  0  0  0  0  0  0  0  0
   78.4770   75.7330   54.9740 C   0  0  0  0  0  0  0  0  0  0  0  0
   85.7120   77.4720   51.1440 C   0  0  0  0  0  0  0  0  0  0  0  0
   85.3360   78.3720   49.9480 C   0  0  0  0  0  0  0  0  0  0  0  0
   78.0050   77.6380   58.0400 C   0  0  0  0  0  0  0  0  0  0  0  0
   78.3800   76.6720   56.0200 C   0  0  0  0  0  0  0  0  0  0  0  0
   78.6920   78.0790   55.7830 C   0  0  0  0  0  0  0  0  0  0  0  0
   78.4380   78.6800   57.0880 C   0  0  0  0  0  0  0  0  0  0  0  0
   78.5280   80.1810   57.3320 N   0  0  0  0  0  0  0  0  0  0  0  0
   83.6012   76.0919   48.1752 H   0  0  0  0  0  0  0  0  0  0  0  0
   82.6959   76.5357   50.3405 H   0  0  0  0  0  0  0  0  0  0  0  0
   75.8629   76.6827   49.4087 H   0  0  0  0  0  0  0  0  0  0  0  0
   75.2018   75.0668   49.8313 H   0  0  0  0  0  0  0  0  0  0  0  0
   90.5937   67.6539   49.6204 H   0  0  0  0  0  0  0  0  0  0  0  0
   76.6566   74.7970   51.6468 H   0  0  0  0  0  0  0  0  0  0  0  0
   76.1957   76.5313   51.7265 H   0  0  0  0  0  0  0  0  0  0  0  0
   79.9687   76.4931   49.9299 H   0  0  0  0  0  0  0  0  0  0  0  0
   79.5555   74.7670   50.2066 H   0  0  0  0  0  0  0  0  0  0  0  0
   92.0921   70.4630   50.3311 H   0  0  0  0  0  0  0  0  0  0  0  0
   78.7256   74.6514   52.5745 H   0  0  0  0  0  0  0  0  0  0  0  0
   82.9212   75.3323   52.4251 H   0  0  0  0  0  0  0  0  0  0  0  0
   83.8566   73.1121   48.5878 H   0  0  0  0  0  0  0  0  0  0  0  0
   86.6715   70.3069   50.8160 H   0  0  0  0  0  0  0  0  0  0  0  0
   79.0799   75.1605   47.9243 H   0  0  0  0  0  0  0  0  0  0  0  0
   78.3003   76.7424   48.2656 H   0  0  0  0  0  0  0  0  0  0  0  0
   86.9938   71.5421   47.9659 H   0  0  0  0  0  0  0  0  0  0  0  0
   89.3642   69.9160   48.3673 H   0  0  0  0  0  0  0  0  0  0  0  0
   76.5830   75.0550   47.7341 H   0  0  0  0  0  0  0  0  0  0  0  0
   77.2213   73.9641   49.0106 H   0  0  0  0  0  0  0  0  0  0  0  0
   78.2470   77.2709   51.1674 H   0  0  0  0  0  0  0  0  0  0  0  0
   86.2021   74.9595   49.0843 H   0  0  0  0  0  0  0  0  0  0  0  0
   85.2635   74.6932   47.5760 H   0  0  0  0  0  0  0  0  0  0  0  0
   85.8505   68.1299   50.9882 H   0  0  0  0  0  0  0  0  0  0  0  0
   84.6438   68.3796   49.6812 H   0  0  0  0  0  0  0  0  0  0  0  0
   82.6531   75.5149   55.9991 H   0  0  0  0  0  0  0  0  0  0  0  0
   81.3662   75.9121   54.8106 H   0  0  0  0  0  0  0  0  0  0  0  0
   83.0603   76.4254   54.5052 H   0  0  0  0  0  0  0  0  0  0  0  0
   80.5986   74.2239   51.4321 H   0  0  0  0  0  0  0  0  0  0  0  0
   77.7162   75.4813   57.7545 H   0  0  0  0  0  0  0  0  0  0  0  0
   84.5161   73.0516   53.8368 H   0  0  0  0  0  0  0  0  0  0  0  0
   84.5036   73.9127   55.4132 H   0  0  0  0  0  0  0  0  0  0  0  0
   84.8307   74.8191   53.8973 H   0  0  0  0  0  0  0  0  0  0  0  0
   80.7103   73.3578   54.6745 H   0  0  0  0  0  0  0  0  0  0  0  0
   81.9823   73.0207   55.8971 H   0  0  0  0  0  0  0  0  0  0  0  0
   81.9922   72.1485   54.3268 H   0  0  0  0  0  0  0  0  0  0  0  0
   83.2741   68.4773   51.5400 H   0  0  0  0  0  0  0  0  0  0  0  0
   83.7084   70.2137   51.3875 H   0  0  0  0  0  0  0  0  0  0  0  0
   84.3055   78.1102   48.0722 H   0  0  0  0  0  0  0  0  0  0  0  0
   85.9541   77.3988   48.1259 H   0  0  0  0  0  0  0  0  0  0  0  0
   86.2507   69.1986   47.9480 H   0  0  0  0  0  0  0  0  0  0  0  0
   85.1167   75.4968   51.8015 H   0  0  0  0  0  0  0  0  0  0  0  0
   83.9908   76.8121   52.2798 H   0  0  0  0  0  0  0  0  0  0  0  0
   90.0688   69.4850   52.2947 H   0  0  0  0  0  0  0  0  0  0  0  0
   77.5708   77.0327   53.6222 H   0  0  0  0  0  0  0  0  0  0  0  0
   84.1442   71.1140   49.5958 H   0  0  0  0  0  0  0  0  0  0  0  0
   84.0558   69.4018   53.7132 H   0  0  0  0  0  0  0  0  0  0  0  0
   85.6099   69.8749   52.9469 H   0  0  0  0  0  0  0  0  0  0  0  0
   85.1756   68.1386   53.0993 H   0  0  0  0  0  0  0  0  0  0  0  0
   86.6493   76.9464   50.9090 H   0  0  0  0  0  0  0  0  0  0  0  0
   85.8597   78.1066   52.0303 H   0  0  0  0  0  0  0  0  0  0  0  0
   84.4513   78.9689   50.2145 H   0  0  0  0  0  0  0  0  0  0  0  0
   86.1788   79.0437   49.7277 H   0  0  0  0  0  0  0  0  0  0  0  0
   77.7511   77.7974   59.0869 H   0  0  0  0  0  0  0  0  0  0  0  0
   79.0289   78.5581   54.8649 H   0  0  0  0  0  0  0  0  0  0  0  0
  1 34  1  0  0  0  0
  1 53  1  6  0  0  0
  2  1  1  0  0  0  0
  2 36  1  0  0  0  0
  2 54  1  1  0  0  0
  3 20  1  0  0  0  0
  3 55  1  0  0  0  0
  3 56  1  0  0  0  0
  4  8  1  0  0  0  0
  4 37  1  0  0  0  0
  4 57  1  6  0  0  0
  5  3  1  0  0  0  0
  5 58  1  0  0  0  0
  5 59  1  0  0  0  0
  6 13  1  0  0  0  0
  6 60  1  0  0  0  0
  6 61  1  0  0  0  0
  8 62  1  0  0  0  0
  9 14  1  0  0  0  0
  9 22  1  0  0  0  0
  9 63  1  1  0  0  0
 10 17  1  0  0  0  0
 10 23  1  0  0  0  0
 10 64  1  6  0  0  0
 11 19  1  0  0  0  0
 11 24  1  0  0  0  0
 11 65  1  6  0  0  0
 12 25  1  0  0  0  0
 12 35  1  0  0  0  0
 12 66  1  1  0  0  0
 13 20  1  0  0  0  0
 13 67  1  0  0  0  0
 13 68  1  0  0  0  0
 14 21  2  0  0  0  0
 14 27  1  0  0  0  0
 15 69  1  0  0  0  0
 17 28  2  0  0  0  0
 17 40  1  0  0  0  0
 18  4  1  0  0  0  0
 18 70  1  0  0  0  0
 19 29  2  0  0  0  0
 19 41  1  0  0  0  0
 20 71  1  0  0  0  0
 20 72  1  0  0  0  0
 22  5  1  0  0  0  0
 22  6  1  0  0  0  0
 22 73  1  0  0  0  0
 23 26  1  0  0  0  0
 23 31  1  0  0  0  0
 23 32  1  0  0  0  0
 24  1  1  0  0  0  0
 24 74  1  0  0  0  0
 24 75  1  0  0  0  0
 25 33  1  0  0  0  0
 25 76  1  0  0  0  0
 25 77  1  0  0  0  0
 26 78  1  0  0  0  0
 26 79  1  0  0  0  0
 26 80  1  0  0  0  0
 27 10  1  0  0  0  0
 27 81  1  0  0  0  0
 30 82  1  0  0  0  0
 31 83  1  0  0  0  0
 31 84  1  0  0  0  0
 31 85  1  0  0  0  0
 32 86  1  0  0  0  0
 32 87  1  0  0  0  0
 32 88  1  0  0  0  0
 33 43  1  0  0  0  0
 33 89  1  0  0  0  0
 33 90  1  0  0  0  0
 34 47  1  0  0  0  0
 34 91  1  0  0  0  0
 34 92  1  0  0  0  0
 35 15  1  0  0  0  0
 35 42  1  0  0  0  0
 35 93  1  6  0  0  0
 36 46  1  0  0  0  0
 36 94  1  0  0  0  0
 36 95  1  0  0  0  0
 37  8  2  0  0  0  0
 37 96  1  0  0  0  0
 38  9  1  0  0  0  0
 38 97  1  0  0  0  0
 40  2  1  0  0  0  0
 40 11  1  0  0  0  0
 41 12  1  0  0  0  0
 41 98  1  0  0  0  0
 42 18  1  0  0  0  0
 42 39  2  0  0  0  0
 43 99  1  0  0  0  0
 43100  1  0  0  0  0
 43101  1  0  0  0  0
 45 38  1  0  0  0  0
 45 44  2  0  0  0  0
 46 47  1  0  0  0  0
 46102  1  0  0  0  0
 46103  1  0  0  0  0
 47104  1  0  0  0  0
 47105  1  0  0  0  0
 48 30  1  0  0  0  0
 48106  1  0  0  0  0
 49 30  1  0  0  0  0
 49 45  1  0  0  0  0
 50 49  2  0  0  0  0
 50107  1  0  0  0  0
 51 48  2  0  0  0  0
 51 50  1  0  0  0  0
 51 52  1  0  0  0  0
 52  7  2  0  0  0  0
 52 16  2  0  0  0  0
M  END
