2p93_ligand
 OpenBabel08222323343D

 43 45  0  0  0  0  0  0  0  0999 V2000
   12.1880   44.0860   65.6920 C   0  0  0  0  0  0  0  0  0  0  0  0
   12.2030   44.8360   64.5730 C   0  0  0  0  0  0  0  0  0  0  0  0
   10.9840   45.1580   64.1010 C   0  0  0  0  0  0  0  0  0  0  0  0
    6.4100   45.0930   63.9840 C   0  0  0  0  0  0  0  0  0  0  0  0
    5.6210   43.9450   63.3580 C   0  0  0  0  0  0  0  0  0  0  0  0
    6.4980   43.2330   61.2100 C   0  0  0  0  0  0  0  0  0  0  0  0
    6.9290   42.1070   60.3620 C   0  0  0  0  0  0  0  0  0  0  0  0
    7.7020   42.4420   59.1650 C   0  0  0  0  0  0  0  0  0  0  0  0
    8.1980   41.3650   58.3210 C   0  0  0  0  0  0  0  0  0  0  0  0
    6.6130   40.7140   60.7110 C   0  0  0  0  0  0  0  0  0  0  0  0
    9.5950   38.3380   58.0100 C   0  0  0  0  0  0  0  0  0  0  0  0
   10.1040   37.4970   56.9640 C   0  0  0  0  0  0  0  0  0  0  0  0
    8.1610   37.9370   55.4650 C   0  0  0  0  0  0  0  0  0  0  0  0
    9.9540   44.6390   64.8580 C   0  0  0  0  0  0  0  0  0  0  0  0
   10.5520   43.7480   66.2200 S   0  0  0  0  0  0  0  0  0  0  0  0
    8.7100   44.9440   64.2580 C   0  0  0  0  0  0  0  0  0  0  0  0
    8.7280   45.4950   63.1450 O   0  0  0  0  0  0  0  0  0  0  0  0
    7.5270   44.6590   64.8450 N   0  0  0  0  0  0  0  0  0  0  0  0
    6.3340   42.9630   62.5290 N   0  0  0  0  0  0  0  0  0  0  0  0
    6.3020   44.3550   60.7460 O   0  0  0  0  0  0  0  0  0  0  0  0
    7.9240   39.9590   58.6740 C   0  0  0  0  0  0  0  0  0  0  0  0
    7.1140   39.6290   59.8680 C   0  0  0  0  0  0  0  0  0  0  0  0
    8.3700   38.9770   57.7730 N   0  0  0  0  0  0  0  0  0  0  0  0
    9.4330   37.3130   55.7070 C   0  0  0  0  0  0  0  0  0  0  0  0
    7.5930   38.7850   56.5540 C   0  0  0  0  0  0  0  0  0  0  0  0
    6.4810   39.2980   56.4060 O   0  0  0  0  0  0  0  0  0  0  0  0
   13.8500   43.6750   66.1630 Cl  0  0  0  0  0  0  0  0  0  0  0  0
   13.1253   45.1555   64.0900 H   0  0  0  0  0  0  0  0  0  0  0  0
   10.8269   45.7665   63.2117 H   0  0  0  0  0  0  0  0  0  0  0  0
    5.7192   45.6953   64.5923 H   0  0  0  0  0  0  0  0  0  0  0  0
    6.8200   45.7127   63.1729 H   0  0  0  0  0  0  0  0  0  0  0  0
    4.8415   44.3957   62.7262 H   0  0  0  0  0  0  0  0  0  0  0  0
    5.1494   43.3900   64.1823 H   0  0  0  0  0  0  0  0  0  0  0  0
    7.9020   43.4767   58.9110 H   0  0  0  0  0  0  0  0  0  0  0  0
    8.7706   41.5967   57.4302 H   0  0  0  0  0  0  0  0  0  0  0  0
    6.0132   40.4929   61.5865 H   0  0  0  0  0  0  0  0  0  0  0  0
   10.1360   38.4735   58.9454 H   0  0  0  0  0  0  0  0  0  0  0  0
   11.0440   36.9732   57.1313 H   0  0  0  0  0  0  0  0  0  0  0  0
    7.6321   37.7965   54.5235 H   0  0  0  0  0  0  0  0  0  0  0  0
    7.4232   44.2169   65.7360 H   0  0  0  0  0  0  0  0  0  0  0  0
    6.6892   42.1173   62.9273 H   0  0  0  0  0  0  0  0  0  0  0  0
    6.8949   38.5964   60.1145 H   0  0  0  0  0  0  0  0  0  0  0  0
    9.8904   36.6977   54.9337 H   0  0  0  0  0  0  0  0  0  0  0  0
  1  2  2  0  0  0  0
  1 27  1  0  0  0  0
  2 28  1  0  0  0  0
  3  2  1  0  0  0  0
  3 29  1  0  0  0  0
  4 18  1  0  0  0  0
  4 30  1  0  0  0  0
  4 31  1  0  0  0  0
  5  4  1  0  0  0  0
  5 32  1  0  0  0  0
  5 33  1  0  0  0  0
  6 19  1  0  0  0  0
  6 20  2  0  0  0  0
  7  6  1  0  0  0  0
  8  7  2  0  0  0  0
  8 34  1  0  0  0  0
  9  8  1  0  0  0  0
  9 35  1  0  0  0  0
 10  7  1  0  0  0  0
 10 36  1  0  0  0  0
 11 12  2  0  0  0  0
 11 37  1  0  0  0  0
 12 24  1  0  0  0  0
 12 38  1  0  0  0  0
 13 25  1  0  0  0  0
 13 39  1  0  0  0  0
 14  3  2  0  0  0  0
 14 15  1  0  0  0  0
 15  1  1  0  0  0  0
 16 14  1  0  0  0  0
 16 17  2  0  0  0  0
 18 16  1  0  0  0  0
 18 40  1  0  0  0  0
 19  5  1  0  0  0  0
 19 41  1  0  0  0  0
 21  9  2  0  0  0  0
 21 22  1  0  0  0  0
 21 23  1  0  0  0  0
 22 10  2  0  0  0  0
 22 42  1  0  0  0  0
 23 11  1  0  0  0  0
 23 25  1  0  0  0  0
 24 13  2  0  0  0  0
 24 43  1  0  0  0  0
 25 26  2  0  0  0  0
M  END
