2p98_ligand
 OpenBabel08222323343D

 28 30  0  0  0  0  0  0  0  0999 V2000
   -1.4350    0.7620   10.3750 C   0  0  0  0  0  0  0  0  0  0  0  0
   -2.7440    0.5730   10.2310 N   0  0  0  0  0  0  0  0  0  0  0  0
   -3.8490    0.9390   11.0090 C   0  0  0  0  0  0  0  0  0  0  0  0
   -5.1300    0.6010   10.5880 C   0  0  0  0  0  0  0  0  0  0  0  0
   -5.3150   -0.0980    9.3990 C   0  0  0  0  0  0  0  0  0  0  0  0
   -6.5990   -0.4280    8.9820 C   0  0  0  0  0  0  0  0  0  0  0  0
   -6.7920   -1.1240    7.7940 C   0  0  0  0  0  0  0  0  0  0  0  0
   -5.6960   -1.4910    7.0190 C   0  0  0  0  0  0  0  0  0  0  0  0
   -4.4110   -1.1620    7.4340 C   0  0  0  0  0  0  0  0  0  0  0  0
   -4.2190   -0.4650    8.6230 C   0  0  0  0  0  0  0  0  0  0  0  0
   -2.9350   -0.1310    9.0360 C   0  0  0  0  0  0  0  0  0  0  0  0
   -1.7340   -0.3400    8.5050 N   0  0  0  0  0  0  0  0  0  0  0  0
   -0.8390    0.2080    9.3240 C   0  0  0  0  0  0  0  0  0  0  0  0
    0.6680    0.1970    9.0700 C   0  0  0  0  0  0  0  0  0  0  0  0
    1.0990    0.0330    7.9310 O   0  0  0  0  0  0  0  0  0  0  0  0
    1.4400    0.3330   10.1450 N   0  0  0  0  0  0  0  0  0  0  0  0
    2.2740    1.3960   10.3100 N   0  3  0  0  0  0  0  0  0  0  0  0
   -0.9434    1.2750   11.2002 H   0  0  0  0  0  0  0  0  0  0  0  0
   -3.7056    1.4860   11.9397 H   0  0  0  0  0  0  0  0  0  0  0  0
   -5.9917    0.8842   11.1907 H   0  0  0  0  0  0  0  0  0  0  0  0
   -7.4530   -0.1417    9.5851 H   0  0  0  0  0  0  0  0  0  0  0  0
   -7.7948   -1.3804    7.4719 H   0  0  0  0  0  0  0  0  0  0  0  0
   -5.8444   -2.0332    6.0921 H   0  0  0  0  0  0  0  0  0  0  0  0
   -3.5573   -1.4487    6.8307 H   0  0  0  0  0  0  0  0  0  0  0  0
    1.4064   -0.3695   10.8559 H   0  0  0  0  0  0  0  0  0  0  0  0
    2.7646    1.3053   11.1858 H   0  0  0  0  0  0  0  0  0  0  0  0
    1.7356    2.2482   10.3132 H   0  0  0  0  0  0  0  0  0  0  0  0
    2.9394    1.4217    9.5533 H   0  0  0  0  0  0  0  0  0  0  0  0
  1  2  1  0  0  0  0
  1 13  2  0  0  0  0
  1 18  1  0  0  0  0
  2  3  1  0  0  0  0
  2 11  1  0  0  0  0
  3  4  2  0  0  0  0
  3 19  1  0  0  0  0
  4  5  1  0  0  0  0
  4 20  1  0  0  0  0
  5  6  2  0  0  0  0
  5 10  1  0  0  0  0
  6  7  1  0  0  0  0
  6 21  1  0  0  0  0
  7  8  2  0  0  0  0
  7 22  1  0  0  0  0
  8  9  1  0  0  0  0
  8 23  1  0  0  0  0
  9 10  2  0  0  0  0
  9 24  1  0  0  0  0
 10 11  1  0  0  0  0
 11 12  2  0  0  0  0
 12 13  1  0  0  0  0
 13 14  1  0  0  0  0
 14 15  2  0  0  0  0
 14 16  1  0  0  0  0
 16 17  1  0  0  0  0
 16 25  1  0  0  0  0
 17 26  1  0  0  0  0
 17 27  1  0  0  0  0
 17 28  1  0  0  0  0
M  CHG  1  17   1
M  END
