2pg2_ligand
 OpenBabel08222323343D

 46 48  0  0  0  0  0  0  0  0999 V2000
   30.7710   14.1460   13.4240 O   0  0  0  0  0  0  0  0  0  0  0  0
   30.3480   13.5460   14.3590 C   0  0  0  0  0  0  0  0  0  0  0  0
   31.0580   12.8710   15.4850 C   0  0  0  0  0  0  0  0  0  0  0  0
   32.7830   12.9520   15.3570 S   0  0  0  0  0  0  0  0  0  0  0  0
   33.0400   12.0200   16.7840 C   0  0  0  0  0  0  0  0  0  0  0  0
   31.7890   11.6950   17.3150 C   0  0  0  0  0  0  0  0  0  0  0  0
   30.6510   12.1390   16.6230 C   0  0  0  0  0  0  0  0  0  0  0  0
   29.0820   13.6140   14.4480 N   0  0  0  0  0  0  0  0  0  0  0  0
   28.1390   14.0770   13.5770 C   0  0  0  0  0  0  0  0  0  0  0  0
   27.8830   13.4590   12.0100 S   0  0  0  0  0  0  0  0  0  0  0  0
   26.5550   14.5530   11.7220 C   0  0  0  0  0  0  0  0  0  0  0  0
   26.3240   15.3400   12.8480 C   0  0  0  0  0  0  0  0  0  0  0  0
   25.2260   16.3690   12.8850 C   0  0  0  0  0  0  0  0  0  0  0  0
   24.7240   16.6640   11.4420 C   0  0  0  0  0  0  0  0  0  0  0  0
   25.3540   15.9960   10.2040 C   0  0  0  0  0  0  0  0  0  0  0  0
   25.7720   14.5160   10.4290 C   0  0  0  0  0  0  0  0  0  0  0  0
   27.2460   15.0980   13.8800 C   0  0  0  0  0  0  0  0  0  0  0  0
   26.9620   15.8310   15.1570 C   0  0  0  0  0  0  0  0  0  0  0  0
   26.0490   16.5220   15.1490 O   0  0  0  0  0  0  0  0  0  0  0  0
   27.6240   16.2330   16.1880 N   0  0  0  0  0  0  0  0  0  0  0  0
   28.7520   15.6290   15.8900 C   0  0  0  0  0  0  0  0  0  0  0  0
   29.3760   17.1010   15.1840 C   0  0  0  0  0  0  0  0  0  0  0  0
   27.7060   16.7560   17.5290 C   0  0  0  0  0  0  0  0  0  0  0  0
   28.3940   15.6740   18.3140 C   0  0  0  0  0  0  0  0  0  0  0  0
   34.0060   11.7350   17.1983 H   0  0  0  0  0  0  0  0  0  0  0  0
   31.6999   11.1173   18.2338 H   0  0  0  0  0  0  0  0  0  0  0  0
   29.6195   11.9495   16.9164 H   0  0  0  0  0  0  0  0  0  0  0  0
   28.7110   13.2665   15.3092 H   0  0  0  0  0  0  0  0  0  0  0  0
   25.6111   17.2967   13.3334 H   0  0  0  0  0  0  0  0  0  0  0  0
   24.3903   15.9884   13.4906 H   0  0  0  0  0  0  0  0  0  0  0  0
   24.8318   17.7487   11.2945 H   0  0  0  0  0  0  0  0  0  0  0  0
   23.6572   16.3961   11.4266 H   0  0  0  0  0  0  0  0  0  0  0  0
   26.2489   16.5688    9.9195 H   0  0  0  0  0  0  0  0  0  0  0  0
   24.6221   16.0279    9.3835 H   0  0  0  0  0  0  0  0  0  0  0  0
   24.8872   13.8696   10.5254 H   0  0  0  0  0  0  0  0  0  0  0  0
   26.4004   14.1564    9.6009 H   0  0  0  0  0  0  0  0  0  0  0  0
   28.6401   14.8023   15.1730 H   0  0  0  0  0  0  0  0  0  0  0  0
   29.3169   15.2799   16.7669 H   0  0  0  0  0  0  0  0  0  0  0  0
   30.3933   16.9234   14.8052 H   0  0  0  0  0  0  0  0  0  0  0  0
   29.4022   17.8918   15.9481 H   0  0  0  0  0  0  0  0  0  0  0  0
   28.7253   17.4142   14.3542 H   0  0  0  0  0  0  0  0  0  0  0  0
   26.7013   16.9501   17.9327 H   0  0  0  0  0  0  0  0  0  0  0  0
   28.2949   17.6849   17.5487 H   0  0  0  0  0  0  0  0  0  0  0  0
   28.4998   15.9920   19.3617 H   0  0  0  0  0  0  0  0  0  0  0  0
   29.3896   15.4866   17.8854 H   0  0  0  0  0  0  0  0  0  0  0  0
   27.7960   14.7518   18.2694 H   0  0  0  0  0  0  0  0  0  0  0  0
  1  2  2  0  0  0  0
  2  3  1  0  0  0  0
  2  8  1  0  0  0  0
  3  4  1  0  0  0  0
  3  7  2  0  0  0  0
  4  5  1  0  0  0  0
  5  6  2  0  0  0  0
  5 25  1  0  0  0  0
  6  7  1  0  0  0  0
  6 26  1  0  0  0  0
  7 27  1  0  0  0  0
  8  9  1  0  0  0  0
  8 28  1  0  0  0  0
  9 10  1  0  0  0  0
  9 17  2  0  0  0  0
 10 11  1  0  0  0  0
 11 12  2  0  0  0  0
 11 16  1  0  0  0  0
 12 13  1  0  0  0  0
 12 17  1  0  0  0  0
 13 14  1  0  0  0  0
 13 29  1  0  0  0  0
 13 30  1  0  0  0  0
 14 15  1  0  0  0  0
 14 31  1  0  0  0  0
 14 32  1  0  0  0  0
 15 16  1  0  0  0  0
 15 33  1  0  0  0  0
 15 34  1  0  0  0  0
 16 35  1  0  0  0  0
 16 36  1  0  0  0  0
 17 18  1  0  0  0  0
 18 19  2  0  0  0  0
 18 20  1  0  0  0  0
 20 21  1  0  0  0  0
 20 23  1  0  0  0  0
 21 22  1  0  0  0  0
 21 37  1  0  0  0  0
 21 38  1  0  0  0  0
 22 39  1  0  0  0  0
 22 40  1  0  0  0  0
 22 41  1  0  0  0  0
 23 24  1  0  0  0  0
 23 42  1  0  0  0  0
 23 43  1  0  0  0  0
 24 44  1  0  0  0  0
 24 45  1  0  0  0  0
 24 46  1  0  0  0  0
M  END
