2ph9_ligand
 OpenBabel08222323343D

 43 46  0  0  1  0  0  0  0  0999 V2000
    6.3140   37.9710   -8.0020 C   0  0  0  0  0  0  0  0  0  0  0  0
    5.8590   39.1680   -8.3800 C   0  0  0  0  0  0  0  0  0  0  0  0
    4.8680   39.3640   -9.5210 C   0  0  1  0  0  0  0  0  0  0  0  0
    4.8830   38.1940  -10.5010 C   0  0  0  0  0  0  0  0  0  0  0  0
    4.7920   36.8620   -9.7510 C   0  0  1  0  0  0  0  0  0  0  0  0
    5.8740   36.6420   -8.6330 C   0  0  1  0  0  0  0  0  0  0  0  0
    3.4910   36.7070   -9.1420 O   0  0  0  0  0  0  0  0  0  0  0  0
    2.6650   35.5210   -7.0120 C   0  0  0  0  0  0  0  0  0  0  0  0
    3.0860   34.9210   -5.8240 C   0  0  0  0  0  0  0  0  0  0  0  0
    4.4410   34.8210   -5.4770 C   0  0  0  0  0  0  0  0  0  0  0  0
    6.9050   35.2140   -5.8770 C   0  0  0  0  0  0  0  0  0  0  0  0
    7.5300   34.5420   -7.0290 N   0  3  1  0  0  0  0  0  0  0  0  0
    8.1100   35.4970   -8.0000 C   0  0  0  0  0  0  0  0  0  0  0  0
    7.0670   35.7650   -9.0970 C   0  0  0  0  0  0  0  0  0  0  0  0
    3.6570   36.0870   -7.9330 C   0  0  0  0  0  0  0  0  0  0  0  0
    5.0620   35.9800   -7.5710 C   0  0  0  0  0  0  0  0  0  0  0  0
    5.4580   35.3410   -6.2820 C   0  0  0  0  0  0  0  0  0  0  0  0
    0.6040   36.6660   -6.7040 C   0  0  0  0  0  0  0  0  0  0  0  0
    1.3580   35.6290   -7.3370 O   0  0  0  0  0  0  0  0  0  0  0  0
    3.5390   39.5230   -9.0190 O   0  0  0  0  0  0  0  0  0  0  0  0
    8.5600   33.6220   -6.5560 C   0  0  0  0  0  0  0  0  0  0  0  0
    7.0438   37.9349   -7.1946 H   0  0  0  0  0  0  0  0  0  0  0  0
    6.2139   40.0484   -7.8462 H   0  0  0  0  0  0  0  0  0  0  0  0
    5.1512   40.2773  -10.0647 H   0  0  0  0  0  0  0  0  0  0  0  0
    5.8177   38.2196  -11.0804 H   0  0  0  0  0  0  0  0  0  0  0  0
    4.0255   38.2835  -11.1842 H   0  0  0  0  0  0  0  0  0  0  0  0
    4.9229   36.0652  -10.4979 H   0  0  0  0  0  0  0  0  0  0  0  0
    2.3407   34.5190   -5.1472 H   0  0  0  0  0  0  0  0  0  0  0  0
    4.7088   34.3230   -4.5522 H   0  0  0  0  0  0  0  0  0  0  0  0
    7.3540   36.2040   -5.7089 H   0  0  0  0  0  0  0  0  0  0  0  0
    7.0057   34.6062   -4.9658 H   0  0  0  0  0  0  0  0  0  0  0  0
    6.8180   34.0098   -7.5043 H   0  0  0  0  0  0  0  0  0  0  0  0
    9.0180   35.0667   -8.4476 H   0  0  0  0  0  0  0  0  0  0  0  0
    8.3632   36.4381   -7.4899 H   0  0  0  0  0  0  0  0  0  0  0  0
    7.5675   36.2760   -9.9327 H   0  0  0  0  0  0  0  0  0  0  0  0
    6.6719   34.7982   -9.4422 H   0  0  0  0  0  0  0  0  0  0  0  0
   -0.4357   36.6340   -7.0618 H   0  0  0  0  0  0  0  0  0  0  0  0
    1.0462   37.6429   -6.9493 H   0  0  0  0  0  0  0  0  0  0  0  0
    0.6213   36.5189   -5.6140 H   0  0  0  0  0  0  0  0  0  0  0  0
    3.2716   38.7263   -8.5759 H   0  0  0  0  0  0  0  0  0  0  0  0
    8.1192   32.9171   -5.8356 H   0  0  0  0  0  0  0  0  0  0  0  0
    9.3638   34.1916   -6.0667 H   0  0  0  0  0  0  0  0  0  0  0  0
    8.9730   33.0639   -7.4092 H   0  0  0  0  0  0  0  0  0  0  0  0
  1  2  2  0  0  0  0
  1 22  1  0  0  0  0
  2 23  1  0  0  0  0
  3  2  1  0  0  0  0
  3 20  1  0  0  0  0
  3 24  1  6  0  0  0
  4  3  1  0  0  0  0
  4 25  1  0  0  0  0
  4 26  1  0  0  0  0
  5  4  1  0  0  0  0
  5  6  1  0  0  0  0
  5 27  1  6  0  0  0
  6  1  1  1  0  0  0
  6 14  1  0  0  0  0
  6 16  1  0  0  0  0
  7  5  1  0  0  0  0
  8 15  1  0  0  0  0
  8 19  1  0  0  0  0
  9  8  2  0  0  0  0
  9 28  1  0  0  0  0
 10  9  1  0  0  0  0
 10 29  1  0  0  0  0
 11 12  1  0  0  0  0
 11 17  1  0  0  0  0
 11 30  1  0  0  0  0
 11 31  1  0  0  0  0
 12 13  1  0  0  0  0
 12 21  1  0  0  0  0
 12 32  1  6  0  0  0
 13 14  1  0  0  0  0
 13 33  1  0  0  0  0
 13 34  1  0  0  0  0
 14 35  1  0  0  0  0
 14 36  1  0  0  0  0
 15  7  1  0  0  0  0
 15 16  2  0  0  0  0
 16 17  1  0  0  0  0
 17 10  2  0  0  0  0
 18 37  1  0  0  0  0
 18 38  1  0  0  0  0
 18 39  1  0  0  0  0
 19 18  1  0  0  0  0
 20 40  1  0  0  0  0
 21 41  1  0  0  0  0
 21 42  1  0  0  0  0
 21 43  1  0  0  0  0
M  CHG  1  12   1
M  END
