2phb_ligand
 OpenBabel08222323343D

 56 59  0  0  1  0  0  0  0  0999 V2000
    6.5270    6.1360   21.5750 N   0  0  0  0  0  0  0  0  0  0  0  0
    8.3000    2.0760   18.0270 N   0  0  0  0  0  0  0  0  0  0  0  0
    6.9730    5.1760   20.6890 C   0  0  0  0  0  0  0  0  0  0  0  0
    6.6390    3.7850   20.9350 C   0  0  0  0  0  0  0  0  0  0  0  0
    7.0670    2.7360   20.0680 C   0  0  0  0  0  0  0  0  0  0  0  0
    5.6440    7.1310   21.3250 C   0  0  0  0  0  0  0  0  0  0  0  0
   12.1040    7.6850   26.2630 C   0  0  0  0  0  0  0  0  0  0  0  0
   10.3780    8.5550   24.7690 C   0  0  0  0  0  0  0  0  0  0  0  0
   11.1180    6.9580   27.0330 C   0  0  0  0  0  0  0  0  0  0  0  0
    7.6030    1.7700   16.8190 C   0  0  0  0  0  0  0  0  0  0  0  0
    9.3290    0.0260   16.3210 C   0  0  0  0  0  0  0  0  0  0  0  0
    3.8860    7.6070   22.8710 C   0  0  0  0  0  0  0  0  0  0  0  0
    5.3210    8.0630   22.5350 C   0  0  1  0  0  0  0  0  0  0  0  0
    5.2100    7.2410   24.8960 C   0  0  0  0  0  0  0  0  0  0  0  0
    3.0660    4.7630   24.0100 C   0  0  0  0  0  0  0  0  0  0  0  0
    7.8580    3.0660   18.9030 C   0  0  0  0  0  0  0  0  0  0  0  0
    8.1970    4.4510   18.6440 C   0  0  0  0  0  0  0  0  0  0  0  0
    7.7650    5.4950   19.5180 C   0  0  0  0  0  0  0  0  0  0  0  0
    5.9080    3.4560   22.0070 F   0  0  0  0  0  0  0  0  0  0  0  0
    5.1000    7.3310   20.2510 O   0  0  0  0  0  0  0  0  0  0  0  0
   11.7420    8.4750   25.1490 C   0  0  0  0  0  0  0  0  0  0  0  0
    9.3380    7.8270   25.5160 C   0  0  0  0  0  0  0  0  0  0  0  0
    9.7310    7.0390   26.6460 C   0  0  0  0  0  0  0  0  0  0  0  0
   13.7600    7.5970   26.6860 Cl  0  0  0  0  0  0  0  0  0  0  0  0
    7.9800    7.8340   25.2050 N   0  0  0  0  0  0  0  0  0  0  0  0
    9.5730    1.3240   18.4090 C   0  0  0  0  0  0  0  0  0  0  0  0
    8.1680    0.6820   15.9360 C   0  0  0  0  0  0  0  0  0  0  0  0
   10.0650    0.3390   17.5860 C   0  0  0  0  0  0  0  0  0  0  0  0
    6.5680    2.3200   16.4220 O   0  0  0  0  0  0  0  0  0  0  0  0
    3.8250    7.0970   24.3170 C   0  0  2  0  0  0  0  0  0  0  0  0
    6.0320    7.8010   23.8250 N   0  0  0  0  0  0  0  0  0  0  0  0
    3.6140    5.7110   24.1050 O   0  0  0  0  0  0  0  0  0  0  0  0
    7.3900    8.0910   23.9660 C   0  0  0  0  0  0  0  0  0  0  0  0
    8.0160    8.5670   23.0010 O   0  0  0  0  0  0  0  0  0  0  0  0
    6.8967    6.0915   22.5031 H   0  0  0  0  0  0  0  0  0  0  0  0
    6.8031    1.7061   20.2794 H   0  0  0  0  0  0  0  0  0  0  0  0
   10.0965    9.1613   23.9156 H   0  0  0  0  0  0  0  0  0  0  0  0
   11.4171    6.3617   27.8874 H   0  0  0  0  0  0  0  0  0  0  0  0
    9.7234   -0.7540   15.6713 H   0  0  0  0  0  0  0  0  0  0  0  0
    3.5905    6.7983   22.1863 H   0  0  0  0  0  0  0  0  0  0  0  0
    3.1967    8.4563   22.7545 H   0  0  0  0  0  0  0  0  0  0  0  0
    5.4068    9.1220   22.2502 H   0  0  0  0  0  0  0  0  0  0  0  0
    5.6000    6.2601   25.2053 H   0  0  0  0  0  0  0  0  0  0  0  0
    5.1948    7.9192   25.7619 H   0  0  0  0  0  0  0  0  0  0  0  0
    3.7734    3.9518   23.7830 H   0  0  0  0  0  0  0  0  0  0  0  0
    2.3293    4.8452   23.1973 H   0  0  0  0  0  0  0  0  0  0  0  0
    2.5470    4.5432   24.9546 H   0  0  0  0  0  0  0  0  0  0  0  0
    8.7894    4.6993   17.7708 H   0  0  0  0  0  0  0  0  0  0  0  0
    8.0293    6.5246   19.3056 H   0  0  0  0  0  0  0  0  0  0  0  0
   12.4987    9.0142   24.5907 H   0  0  0  0  0  0  0  0  0  0  0  0
    8.9811    6.5002   27.2138 H   0  0  0  0  0  0  0  0  0  0  0  0
    7.3540    7.6310   25.9580 H   0  0  0  0  0  0  0  0  0  0  0  0
   10.0918    1.5684   19.3348 H   0  0  0  0  0  0  0  0  0  0  0  0
    7.6688    0.4149   15.0058 H   0  0  0  0  0  0  0  0  0  0  0  0
   10.9722   -0.2028   17.8492 H   0  0  0  0  0  0  0  0  0  0  0  0
    3.0516    7.5812   24.9314 H   0  0  0  0  0  0  0  0  0  0  0  0
  1  3  1  0  0  0  0
  1 35  1  0  0  0  0
  2 10  1  0  0  0  0
  2 26  1  0  0  0  0
  3  4  2  0  0  0  0
  3 18  1  0  0  0  0
  4  5  1  0  0  0  0
  4 19  1  0  0  0  0
  5 16  2  0  0  0  0
  5 36  1  0  0  0  0
  6  1  1  0  0  0  0
  6 20  2  0  0  0  0
  7 24  1  0  0  0  0
  8 21  2  0  0  0  0
  8 37  1  0  0  0  0
  9  7  2  0  0  0  0
  9 38  1  0  0  0  0
 10 27  1  0  0  0  0
 10 29  2  0  0  0  0
 11 39  1  0  0  0  0
 12 40  1  0  0  0  0
 12 41  1  0  0  0  0
 13  6  1  0  0  0  0
 13 12  1  0  0  0  0
 13 42  1  6  0  0  0
 14 30  1  0  0  0  0
 14 43  1  0  0  0  0
 14 44  1  0  0  0  0
 15 45  1  0  0  0  0
 15 46  1  0  0  0  0
 15 47  1  0  0  0  0
 16  2  1  0  0  0  0
 17 16  1  0  0  0  0
 17 48  1  0  0  0  0
 18 17  2  0  0  0  0
 18 49  1  0  0  0  0
 21  7  1  0  0  0  0
 21 50  1  0  0  0  0
 22  8  1  0  0  0  0
 22 23  2  0  0  0  0
 23  9  1  0  0  0  0
 23 51  1  0  0  0  0
 25 22  1  0  0  0  0
 25 52  1  0  0  0  0
 26 28  2  0  0  0  0
 26 53  1  0  0  0  0
 27 11  2  0  0  0  0
 27 54  1  0  0  0  0
 28 11  1  0  0  0  0
 28 55  1  0  0  0  0
 30 12  1  0  0  0  0
 30 32  1  0  0  0  0
 30 56  1  1  0  0  0
 31 13  1  0  0  0  0
 31 14  1  0  0  0  0
 31 33  1  0  0  0  0
 32 15  1  0  0  0  0
 33 25  1  0  0  0  0
 33 34  2  0  0  0  0
M  END
