2piz_ligand
 OpenBabel08222323343D

 50 51  0  0  1  0  0  0  0  0999 V2000
   35.5980   18.5350   63.3690 C   0  0  0  0  0  0  0  0  0  0  0  0
   36.3650   19.4500   64.1340 C   0  0  0  0  0  0  0  0  0  0  0  0
   37.3160   20.2890   63.4910 C   0  0  0  0  0  0  0  0  0  0  0  0
   37.4970   20.2130   62.0860 C   0  0  0  0  0  0  0  0  0  0  0  0
   36.7290   19.2980   61.3210 C   0  0  0  0  0  0  0  0  0  0  0  0
   35.7800   18.4590   61.9600 C   0  0  0  0  0  0  0  0  0  0  0  0
   34.9430   17.4830   61.1210 C   0  0  0  0  0  0  0  0  0  0  0  0
   35.4510   16.0480   61.2680 C   0  0  0  0  0  0  0  0  0  0  0  0
   34.6780   15.0870   60.3590 C   0  0  0  0  0  0  0  0  0  0  0  0
   35.1990   13.3660   60.6110 P   0  0  2  0  0  0  0  0  0  0  0  0
   34.4640   12.5380   59.6320 O   0  0  0  0  0  1  0  0  0  0  0  0
   35.0350   13.0660   62.0440 O   0  0  0  0  0  0  0  0  0  0  0  0
   36.9470   13.3740   60.1230 C   0  0  0  0  0  0  0  0  0  0  0  0
   37.5990   12.0100   60.4580 C   0  0  2  0  0  0  0  0  0  0  0  0
   37.9090   11.8860   61.9770 C   0  0  0  0  0  0  0  0  0  0  0  0
   37.7350   10.7690   62.4900 O   0  5  0  0  0  0  0  0  0  0  0  0
   38.3360   12.9090   62.5830 O   0  0  0  0  0  0  0  0  0  0  0  0
   38.9200   11.8050   59.6840 C   0  0  0  0  0  0  0  0  0  0  0  0
   39.2110   10.5120   59.1750 C   0  0  0  0  0  0  0  0  0  0  0  0
   39.8950   12.8430   59.5750 C   0  0  0  0  0  0  0  0  0  0  0  0
   41.1480   12.5730   58.9690 C   0  0  0  0  0  0  0  0  0  0  0  0
   41.4360   11.2760   58.4710 C   0  0  0  0  0  0  0  0  0  0  0  0
   40.4680   10.2450   58.5780 C   0  0  0  0  0  0  0  0  0  0  0  0
   40.7780    8.9930   58.1990 N   0  0  0  0  0  0  0  0  0  0  0  0
   40.4850    8.4880   56.9870 C   0  0  0  0  0  3  0  0  0  0  0  0
   39.8920    9.2310   56.0480 N   0  0  0  0  0  0  0  0  0  0  0  0
   40.8210    7.2290   56.7200 N   0  0  0  0  0  0  0  0  0  0  0  0
   34.8733   17.8937   63.8575 H   0  0  0  0  0  0  0  0  0  0  0  0
   36.2265   19.5098   65.2075 H   0  0  0  0  0  0  0  0  0  0  0  0
   37.9036   20.9878   64.0753 H   0  0  0  0  0  0  0  0  0  0  0  0
   38.2219   20.8539   61.5972 H   0  0  0  0  0  0  0  0  0  0  0  0
   36.8673   19.2398   60.2474 H   0  0  0  0  0  0  0  0  0  0  0  0
   35.0025   17.7776   60.0629 H   0  0  0  0  0  0  0  0  0  0  0  0
   33.8963   17.5287   61.4561 H   0  0  0  0  0  0  0  0  0  0  0  0
   35.3272   15.7295   62.3136 H   0  0  0  0  0  0  0  0  0  0  0  0
   36.5171   16.0161   60.9988 H   0  0  0  0  0  0  0  0  0  0  0  0
   34.8583   15.3647   59.3100 H   0  0  0  0  0  0  0  0  0  0  0  0
   33.6040   15.1712   60.5813 H   0  0  0  0  0  0  0  0  0  0  0  0
   37.4731   14.1722   60.6672 H   0  0  0  0  0  0  0  0  0  0  0  0
   37.0219   13.5571   59.0409 H   0  0  0  0  0  0  0  0  0  0  0  0
   36.8943   11.2149   60.1732 H   0  0  0  0  0  0  0  0  0  0  0  0
   38.4682    9.7255   59.2434 H   0  0  0  0  0  0  0  0  0  0  0  0
   39.6775   13.8348   59.9547 H   0  0  0  0  0  0  0  0  0  0  0  0
   41.8886   13.3602   58.8859 H   0  0  0  0  0  0  0  0  0  0  0  0
   42.3954   11.0732   58.0090 H   0  0  0  0  0  0  0  0  0  0  0  0
   41.2667    8.3871   58.8736 H   0  0  0  0  0  0  0  0  0  0  0  0
   39.6775    8.8223   55.1272 H   0  0  0  0  0  0  0  0  0  0  0  0
   39.6494   10.2125   56.2450 H   0  0  0  0  0  0  0  0  0  0  0  0
   41.2782    6.6538   57.4418 H   0  0  0  0  0  0  0  0  0  0  0  0
   40.6240    6.8292   55.7914 H   0  0  0  0  0  0  0  0  0  0  0  0
  1  2  2  0  0  0  0
  1  6  1  0  0  0  0
  1 28  1  0  0  0  0
  2  3  1  0  0  0  0
  2 29  1  0  0  0  0
  3  4  2  0  0  0  0
  3 30  1  0  0  0  0
  4  5  1  0  0  0  0
  4 31  1  0  0  0  0
  5  6  2  0  0  0  0
  5 32  1  0  0  0  0
  6  7  1  0  0  0  0
  7  8  1  0  0  0  0
  7 33  1  0  0  0  0
  7 34  1  0  0  0  0
  8  9  1  0  0  0  0
  8 35  1  0  0  0  0
  8 36  1  0  0  0  0
  9 10  1  0  0  0  0
  9 37  1  0  0  0  0
  9 38  1  0  0  0  0
 10 11  1  6  0  0  0
 10 12  2  0  0  0  0
 10 13  1  0  0  0  0
 13 14  1  0  0  0  0
 13 39  1  0  0  0  0
 13 40  1  0  0  0  0
 14 15  1  0  0  0  0
 14 18  1  0  0  0  0
 14 41  1  6  0  0  0
 15 16  1  0  0  0  0
 15 17  2  0  0  0  0
 18 19  2  0  0  0  0
 18 20  1  0  0  0  0
 19 23  1  0  0  0  0
 19 42  1  0  0  0  0
 20 21  2  0  0  0  0
 20 43  1  0  0  0  0
 21 22  1  0  0  0  0
 21 44  1  0  0  0  0
 22 23  2  0  0  0  0
 22 45  1  0  0  0  0
 23 24  1  0  0  0  0
 24 25  1  0  0  0  0
 24 46  1  0  0  0  0
 25 26  1  0  0  0  0
 25 27  1  0  0  0  0
 26 47  1  0  0  0  0
 26 48  1  0  0  0  0
 27 49  1  0  0  0  0
 27 50  1  0  0  0  0
M  CHG  1  16  -1
M  END
