2pj1_ligand
 OpenBabel08222323343D

 57 58  0  0  1  0  0  0  0  0999 V2000
   37.1300   13.9940   68.2270 C   0  0  0  0  0  0  0  0  0  0  0  0
   38.2410   13.7790   69.0820 C   0  0  0  0  0  0  0  0  0  0  0  0
   39.5270   13.5420   68.5330 C   0  0  0  0  0  0  0  0  0  0  0  0
   39.7050   13.5180   67.1270 C   0  0  0  0  0  0  0  0  0  0  0  0
   38.5970   13.7300   66.2720 C   0  0  0  0  0  0  0  0  0  0  0  0
   37.3050   13.9720   66.8210 C   0  0  0  0  0  0  0  0  0  0  0  0
   36.2190   14.2060   65.9730 C   0  0  0  0  0  0  0  0  0  0  0  0
   36.4920   14.4890   64.5840 O   0  0  0  0  0  0  0  0  0  0  0  0
   35.4280   14.4610   63.7320 C   0  0  0  0  0  0  0  0  0  0  0  0
   34.2600   14.3610   64.1550 O   0  0  0  0  0  0  0  0  0  0  0  0
   35.7330   14.6320   62.4460 N   0  0  0  0  0  0  0  0  0  0  0  0
   34.7380   14.5980   61.3710 C   0  0  1  0  0  0  0  0  0  0  0  0
   34.8130   15.8500   60.4730 C   0  0  0  0  0  0  0  0  0  0  0  0
   34.3290   17.0910   61.2340 C   0  0  0  0  0  0  0  0  0  0  0  0
   36.2030   16.0850   59.9080 C   0  0  0  0  0  0  0  0  0  0  0  0
   34.9330   13.0080   60.4730 P   0  0  2  0  0  0  0  0  0  0  0  0
   34.0740   12.9980   59.2740 O   0  0  0  0  0  1  0  0  0  0  0  0
   34.7230   11.9800   61.5200 O   0  0  0  0  0  0  0  0  0  0  0  0
   36.4850   12.8930   60.0060 O   0  0  0  0  0  0  0  0  0  0  0  0
   36.9680   11.5790   59.6210 C   0  0  2  0  0  0  0  0  0  0  0  0
   37.2800   10.7090   60.8490 C   0  0  0  0  0  0  0  0  0  0  0  0
   37.0430    9.4900   60.7430 O   0  5  0  0  0  0  0  0  0  0  0  0
   37.7540   11.2840   61.8520 O   0  0  0  0  0  0  0  0  0  0  0  0
   38.2310   11.6470   58.7620 C   0  0  0  0  0  0  0  0  0  0  0  0
   38.3740   10.7410   57.6840 C   0  0  0  0  0  0  0  0  0  0  0  0
   39.3080   12.4920   59.1280 C   0  0  0  0  0  0  0  0  0  0  0  0
   40.5320   12.4170   58.4250 C   0  0  0  0  0  0  0  0  0  0  0  0
   40.6810   11.5060   57.3510 C   0  0  0  0  0  0  0  0  0  0  0  0
   39.5980   10.6690   56.9800 C   0  0  0  0  0  0  0  0  0  0  0  0
   39.7540    9.6830   55.8280 C   0  0  0  0  0  0  0  0  0  0  0  0
   40.3870    8.4490   56.3170 N   0  3  0  0  0  0  0  0  0  0  0  0
   36.1479   14.1750   68.6487 H   0  0  0  0  0  0  0  0  0  0  0  0
   38.1069   13.7959   70.1575 H   0  0  0  0  0  0  0  0  0  0  0  0
   40.3744   13.3791   69.1891 H   0  0  0  0  0  0  0  0  0  0  0  0
   40.6880   13.3376   66.7072 H   0  0  0  0  0  0  0  0  0  0  0  0
   38.7320   13.7081   65.1967 H   0  0  0  0  0  0  0  0  0  0  0  0
   35.6661   15.0657   66.3793 H   0  0  0  0  0  0  0  0  0  0  0  0
   35.5803   13.3110   66.0049 H   0  0  0  0  0  0  0  0  0  0  0  0
   36.6896   14.7916   62.2023 H   0  0  0  0  0  0  0  0  0  0  0  0
   33.7392   14.5981   61.8318 H   0  0  0  0  0  0  0  0  0  0  0  0
   34.1336   15.6877   59.6232 H   0  0  0  0  0  0  0  0  0  0  0  0
   34.3904   17.9711   60.5770 H   0  0  0  0  0  0  0  0  0  0  0  0
   34.9631   17.2490   62.1188 H   0  0  0  0  0  0  0  0  0  0  0  0
   33.2864   16.9428   61.5518 H   0  0  0  0  0  0  0  0  0  0  0  0
   36.5351   15.1872   59.3661 H   0  0  0  0  0  0  0  0  0  0  0  0
   36.9022   16.2964   60.7304 H   0  0  0  0  0  0  0  0  0  0  0  0
   36.1785   16.9415   59.2182 H   0  0  0  0  0  0  0  0  0  0  0  0
   36.1755   11.0896   59.0359 H   0  0  0  0  0  0  0  0  0  0  0  0
   37.5457   10.1028   57.3984 H   0  0  0  0  0  0  0  0  0  0  0  0
   39.1935   13.1946   59.9455 H   0  0  0  0  0  0  0  0  0  0  0  0
   41.3586   13.0583   58.7086 H   0  0  0  0  0  0  0  0  0  0  0  0
   41.6207   11.4486   56.8137 H   0  0  0  0  0  0  0  0  0  0  0  0
   40.3830   10.1315   55.0449 H   0  0  0  0  0  0  0  0  0  0  0  0
   38.7636    9.4463   55.4121 H   0  0  0  0  0  0  0  0  0  0  0  0
   40.4892    7.7986   55.5537 H   0  0  0  0  0  0  0  0  0  0  0  0
   39.8109    8.0373   57.0344 H   0  0  0  0  0  0  0  0  0  0  0  0
   41.2948    8.6652   56.6979 H   0  0  0  0  0  0  0  0  0  0  0  0
  1  2  2  0  0  0  0
  1  6  1  0  0  0  0
  1 32  1  0  0  0  0
  2  3  1  0  0  0  0
  2 33  1  0  0  0  0
  3  4  2  0  0  0  0
  3 34  1  0  0  0  0
  4  5  1  0  0  0  0
  4 35  1  0  0  0  0
  5  6  2  0  0  0  0
  5 36  1  0  0  0  0
  6  7  1  0  0  0  0
  7  8  1  0  0  0  0
  7 37  1  0  0  0  0
  7 38  1  0  0  0  0
  8  9  1  0  0  0  0
  9 10  2  0  0  0  0
  9 11  1  0  0  0  0
 11 12  1  0  0  0  0
 11 39  1  0  0  0  0
 12 13  1  0  0  0  0
 12 16  1  0  0  0  0
 12 40  1  1  0  0  0
 13 14  1  0  0  0  0
 13 15  1  0  0  0  0
 13 41  1  0  0  0  0
 14 42  1  0  0  0  0
 14 43  1  0  0  0  0
 14 44  1  0  0  0  0
 15 45  1  0  0  0  0
 15 46  1  0  0  0  0
 15 47  1  0  0  0  0
 16 17  1  6  0  0  0
 16 18  2  0  0  0  0
 16 19  1  0  0  0  0
 19 20  1  0  0  0  0
 20 21  1  0  0  0  0
 20 24  1  0  0  0  0
 20 48  1  6  0  0  0
 21 22  1  0  0  0  0
 21 23  2  0  0  0  0
 24 25  2  0  0  0  0
 24 26  1  0  0  0  0
 25 29  1  0  0  0  0
 25 49  1  0  0  0  0
 26 27  2  0  0  0  0
 26 50  1  0  0  0  0
 27 28  1  0  0  0  0
 27 51  1  0  0  0  0
 28 29  2  0  0  0  0
 28 52  1  0  0  0  0
 29 30  1  0  0  0  0
 30 31  1  0  0  0  0
 30 53  1  0  0  0  0
 30 54  1  0  0  0  0
 31 55  1  0  0  0  0
 31 56  1  0  0  0  0
 31 57  1  0  0  0  0
M  CHG  2  22  -1  31   1
M  END
