2pj8_ligand
 OpenBabel08222323343D

 66 68  0  0  1  0  0  0  0  0999 V2000
   37.9700   20.7890   67.0120 C   0  0  0  0  0  0  0  0  0  0  0  0
   38.2610   22.1410   67.3150 C   0  0  0  0  0  0  0  0  0  0  0  0
   37.3650   23.1660   66.9150 C   0  0  0  0  0  0  0  0  0  0  0  0
   36.1760   22.8430   66.2140 C   0  0  0  0  0  0  0  0  0  0  0  0
   35.8780   21.4910   65.9110 C   0  0  0  0  0  0  0  0  0  0  0  0
   36.7720   20.4420   66.3030 C   0  0  0  0  0  0  0  0  0  0  0  0
   36.5350   19.0920   65.8900 C   0  0  0  0  0  0  0  0  0  0  0  0
   37.6270   18.1870   65.7000 C   0  0  0  0  0  0  0  0  0  0  0  0
   37.4030   16.8830   65.1930 C   0  0  0  0  0  0  0  0  0  0  0  0
   35.2130   18.6490   65.5610 C   0  0  0  0  0  0  0  0  0  0  0  0
   34.9950   17.3440   65.0590 C   0  0  0  0  0  0  0  0  0  0  0  0
   36.0880   16.4610   64.8730 C   0  0  0  0  0  0  0  0  0  0  0  0
   35.8260   14.8600   64.2220 S   0  0  0  0  0  0  0  0  0  0  0  0
   34.4730   14.4310   64.4930 O   0  0  0  0  0  0  0  0  0  0  0  0
   36.7910   13.8970   64.8550 O   0  0  0  0  0  0  0  0  0  0  0  0
   36.0960   14.8830   62.5540 N   0  0  0  0  0  0  0  0  0  0  0  0
   35.1050   14.6150   61.6080 C   0  0  1  0  0  0  0  0  0  0  0  0
   34.9730   15.7960   60.6120 C   0  0  0  0  0  0  0  0  0  0  0  0
   36.2980   16.1720   59.9370 C   0  0  0  0  0  0  0  0  0  0  0  0
   34.4130   17.0280   61.3310 C   0  0  0  0  0  0  0  0  0  0  0  0
   35.4090   12.9730   60.8180 P   0  0  2  0  0  0  0  0  0  0  0  0
   34.4720   12.8420   59.6940 O   0  0  0  0  0  1  0  0  0  0  0  0
   35.2840   12.0120   61.9370 O   0  0  0  0  0  0  0  0  0  0  0  0
   37.0920   12.8170   60.1310 C   0  0  0  0  0  0  0  0  0  0  0  0
   37.4830   11.3520   59.8260 C   0  0  2  0  0  0  0  0  0  0  0  0
   37.6630   10.5060   61.1070 C   0  0  0  0  0  0  0  0  0  0  0  0
   37.4150    9.2870   61.0100 O   0  5  0  0  0  0  0  0  0  0  0  0
   38.0700   11.0950   62.1370 O   0  0  0  0  0  0  0  0  0  0  0  0
   38.8130   11.3210   59.0480 C   0  0  0  0  0  0  0  0  0  0  0  0
   38.8790   10.6190   57.8270 C   0  0  0  0  0  0  0  0  0  0  0  0
   39.9840   11.9380   59.5740 C   0  0  0  0  0  0  0  0  0  0  0  0
   41.2090   11.8450   58.8780 C   0  0  0  0  0  0  0  0  0  0  0  0
   41.2730   11.1380   57.6570 C   0  0  0  0  0  0  0  0  0  0  0  0
   40.1080   10.5210   57.1340 C   0  0  0  0  0  0  0  0  0  0  0  0
   40.1930    9.6890   55.8660 C   0  0  0  0  0  0  0  0  0  0  0  0
   40.3000    8.2700   56.2430 N   0  3  0  0  0  0  0  0  0  0  0  0
   38.6582   20.0094   67.3183 H   0  0  0  0  0  0  0  0  0  0  0  0
   39.1680   22.3931   67.8524 H   0  0  0  0  0  0  0  0  0  0  0  0
   37.5907   24.2007   67.1465 H   0  0  0  0  0  0  0  0  0  0  0  0
   35.4951   23.6297   65.9099 H   0  0  0  0  0  0  0  0  0  0  0  0
   34.9658   21.2483   65.3780 H   0  0  0  0  0  0  0  0  0  0  0  0
   38.6346   18.5019   65.9462 H   0  0  0  0  0  0  0  0  0  0  0  0
   38.2383   16.2071   65.0496 H   0  0  0  0  0  0  0  0  0  0  0  0
   34.3722   19.3194   65.6978 H   0  0  0  0  0  0  0  0  0  0  0  0
   33.9898   17.0189   64.8162 H   0  0  0  0  0  0  0  0  0  0  0  0
   37.0156   15.1004   62.2268 H   0  0  0  0  0  0  0  0  0  0  0  0
   34.1457   14.5399   62.1410 H   0  0  0  0  0  0  0  0  0  0  0  0
   34.2647   15.4952   59.8260 H   0  0  0  0  0  0  0  0  0  0  0  0
   36.1324   17.0125   59.2469 H   0  0  0  0  0  0  0  0  0  0  0  0
   36.6821   15.3073   59.3760 H   0  0  0  0  0  0  0  0  0  0  0  0
   37.0297   16.4660   60.7039 H   0  0  0  0  0  0  0  0  0  0  0  0
   33.4619   16.7673   61.8184 H   0  0  0  0  0  0  0  0  0  0  0  0
   34.2422   17.8327   60.6007 H   0  0  0  0  0  0  0  0  0  0  0  0
   35.1327   17.3683   62.0900 H   0  0  0  0  0  0  0  0  0  0  0  0
   37.8078   13.2273   60.8586 H   0  0  0  0  0  0  0  0  0  0  0  0
   37.1454   13.3963   59.1974 H   0  0  0  0  0  0  0  0  0  0  0  0
   36.6899   10.9007   59.2117 H   0  0  0  0  0  0  0  0  0  0  0  0
   37.9882   10.1546   57.4196 H   0  0  0  0  0  0  0  0  0  0  0  0
   39.9346   12.4805   60.5112 H   0  0  0  0  0  0  0  0  0  0  0  0
   42.0989   12.3155   59.2802 H   0  0  0  0  0  0  0  0  0  0  0  0
   42.2119   11.0670   57.1200 H   0  0  0  0  0  0  0  0  0  0  0  0
   41.0791    9.9864   55.2861 H   0  0  0  0  0  0  0  0  0  0  0  0
   39.2887    9.8442   55.2593 H   0  0  0  0  0  0  0  0  0  0  0  0
   40.3573    7.7046   55.4105 H   0  0  0  0  0  0  0  0  0  0  0  0
   39.4876    8.0017   56.7760 H   0  0  0  0  0  0  0  0  0  0  0  0
   41.1283    8.1320   56.8005 H   0  0  0  0  0  0  0  0  0  0  0  0
  1  2  2  0  0  0  0
  1  6  1  0  0  0  0
  1 37  1  0  0  0  0
  2  3  1  0  0  0  0
  2 38  1  0  0  0  0
  3  4  2  0  0  0  0
  3 39  1  0  0  0  0
  4  5  1  0  0  0  0
  4 40  1  0  0  0  0
  5  6  2  0  0  0  0
  5 41  1  0  0  0  0
  6  7  1  0  0  0  0
  7  8  2  0  0  0  0
  7 10  1  0  0  0  0
  8  9  1  0  0  0  0
  8 42  1  0  0  0  0
  9 12  2  0  0  0  0
  9 43  1  0  0  0  0
 10 11  2  0  0  0  0
 10 44  1  0  0  0  0
 11 12  1  0  0  0  0
 11 45  1  0  0  0  0
 12 13  1  0  0  0  0
 13 14  2  0  0  0  0
 13 15  2  0  0  0  0
 13 16  1  0  0  0  0
 16 17  1  0  0  0  0
 16 46  1  0  0  0  0
 17 18  1  0  0  0  0
 17 21  1  0  0  0  0
 17 47  1  1  0  0  0
 18 19  1  0  0  0  0
 18 20  1  0  0  0  0
 18 48  1  0  0  0  0
 19 49  1  0  0  0  0
 19 50  1  0  0  0  0
 19 51  1  0  0  0  0
 20 52  1  0  0  0  0
 20 53  1  0  0  0  0
 20 54  1  0  0  0  0
 21 22  1  6  0  0  0
 21 23  2  0  0  0  0
 21 24  1  0  0  0  0
 24 25  1  0  0  0  0
 24 55  1  0  0  0  0
 24 56  1  0  0  0  0
 25 26  1  0  0  0  0
 25 29  1  0  0  0  0
 25 57  1  6  0  0  0
 26 27  1  0  0  0  0
 26 28  2  0  0  0  0
 29 30  2  0  0  0  0
 29 31  1  0  0  0  0
 30 34  1  0  0  0  0
 30 58  1  0  0  0  0
 31 32  2  0  0  0  0
 31 59  1  0  0  0  0
 32 33  1  0  0  0  0
 32 60  1  0  0  0  0
 33 34  2  0  0  0  0
 33 61  1  0  0  0  0
 34 35  1  0  0  0  0
 35 36  1  0  0  0  0
 35 62  1  0  0  0  0
 35 63  1  0  0  0  0
 36 64  1  0  0  0  0
 36 65  1  0  0  0  0
 36 66  1  0  0  0  0
M  CHG  2  27  -1  36   1
M  END
