2pjl_ligand
 OpenBabel08222323343D

 54 57  0  0  0  0  0  0  0  0999 V2000
  -10.7060   -8.1570    7.7670 N   0  0  0  0  0  0  0  0  0  0  0  0
  -11.4770   -7.3940    8.5860 C   0  0  0  0  0  0  0  0  0  0  0  0
  -12.7810   -7.8860    8.5740 C   0  0  0  0  0  0  0  0  0  0  0  0
  -12.6940   -9.0680    7.6420 C   0  0  0  0  0  0  0  0  0  0  0  0
  -11.4160   -9.1330    7.2320 C   0  0  0  0  0  0  0  0  0  0  0  0
  -13.8280   -9.9920    7.2580 C   0  0  0  0  0  0  0  0  0  0  0  0
  -14.8930   -9.3050    6.4870 N   0  3  0  0  0  0  0  0  0  0  0  0
  -14.5360   -8.8910    5.1120 C   0  0  0  0  0  0  0  0  0  0  0  0
  -15.3780   -7.6800    4.6040 C   0  0  0  0  0  0  0  0  0  0  0  0
  -16.8840   -8.0390    4.3870 C   0  0  0  0  0  0  0  0  0  0  0  0
  -17.6740   -6.8420    3.7910 C   0  0  0  0  0  0  0  0  0  0  0  0
  -17.4510   -5.5250    4.5910 C   0  0  0  0  0  0  0  0  0  0  0  0
  -15.9300   -5.2290    4.8000 C   0  0  0  0  0  0  0  0  0  0  0  0
  -15.2500   -6.4300    5.5240 C   0  0  0  0  0  0  0  0  0  0  0  0
  -13.8120   -7.3010    9.3180 C   0  0  0  0  0  0  0  0  0  0  0  0
  -13.4690   -6.1870   10.0890 C   0  0  0  0  0  0  0  0  0  0  0  0
  -12.1600   -5.6780   10.1020 C   0  0  0  0  0  0  0  0  0  0  0  0
  -11.1390   -6.2790    9.3600 C   0  0  0  0  0  0  0  0  0  0  0  0
   -9.3690   -8.0080    7.5380 C   0  0  0  0  0  0  0  0  0  0  0  0
   -8.5690   -9.1470    7.6630 C   0  0  0  0  0  0  0  0  0  0  0  0
   -7.1920   -9.0840    7.4430 C   0  0  0  0  0  0  0  0  0  0  0  0
   -6.5890   -7.8740    7.0880 C   0  0  0  0  0  0  0  0  0  0  0  0
   -7.3820   -6.7210    6.9490 C   0  0  0  0  0  0  0  0  0  0  0  0
   -8.7680   -6.7900    7.1700 C   0  0  0  0  0  0  0  0  0  0  0  0
   -5.0710   -7.8710    6.8660 C   0  0  0  0  0  0  0  0  0  0  0  0
  -11.0206   -9.8865    6.5524 H   0  0  0  0  0  0  0  0  0  0  0  0
  -14.2702  -10.4061    8.1761 H   0  0  0  0  0  0  0  0  0  0  0  0
  -13.4224  -10.8103    6.6449 H   0  0  0  0  0  0  0  0  0  0  0  0
  -15.1591   -8.4781    6.9984 H   0  0  0  0  0  0  0  0  0  0  0  0
  -15.6812   -9.9303    6.4256 H   0  0  0  0  0  0  0  0  0  0  0  0
  -14.7017   -9.7421    4.4351 H   0  0  0  0  0  0  0  0  0  0  0  0
  -13.4725   -8.6106    5.0950 H   0  0  0  0  0  0  0  0  0  0  0  0
  -14.9675   -7.4019    3.6221 H   0  0  0  0  0  0  0  0  0  0  0  0
  -17.3288   -8.3146    5.3545 H   0  0  0  0  0  0  0  0  0  0  0  0
  -16.9522   -8.8920    3.6958 H   0  0  0  0  0  0  0  0  0  0  0  0
  -18.7466   -7.0855    3.8037 H   0  0  0  0  0  0  0  0  0  0  0  0
  -17.3461   -6.6843    2.7529 H   0  0  0  0  0  0  0  0  0  0  0  0
  -17.9349   -5.6184    5.5744 H   0  0  0  0  0  0  0  0  0  0  0  0
  -17.9043   -4.6897    4.0371 H   0  0  0  0  0  0  0  0  0  0  0  0
  -15.8157   -4.3222    5.4120 H   0  0  0  0  0  0  0  0  0  0  0  0
  -15.4509   -5.0741    3.8220 H   0  0  0  0  0  0  0  0  0  0  0  0
  -14.1882   -6.2054    5.7033 H   0  0  0  0  0  0  0  0  0  0  0  0
  -15.7519   -6.6200    6.4842 H   0  0  0  0  0  0  0  0  0  0  0  0
  -14.8231   -7.6913    9.2973 H   0  0  0  0  0  0  0  0  0  0  0  0
  -14.2307   -5.7047   10.6908 H   0  0  0  0  0  0  0  0  0  0  0  0
  -11.9370   -4.8014   10.6995 H   0  0  0  0  0  0  0  0  0  0  0  0
  -10.1252   -5.8960    9.3835 H   0  0  0  0  0  0  0  0  0  0  0  0
   -9.0241  -10.0926    7.9346 H   0  0  0  0  0  0  0  0  0  0  0  0
   -6.5875   -9.9776    7.5480 H   0  0  0  0  0  0  0  0  0  0  0  0
   -6.9239   -5.7786    6.6713 H   0  0  0  0  0  0  0  0  0  0  0  0
   -9.3772   -5.9006    7.0564 H   0  0  0  0  0  0  0  0  0  0  0  0
   -4.6742   -8.8835    7.0317 H   0  0  0  0  0  0  0  0  0  0  0  0
   -4.5986   -7.1720    7.5718 H   0  0  0  0  0  0  0  0  0  0  0  0
   -4.8518   -7.5555    5.8353 H   0  0  0  0  0  0  0  0  0  0  0  0
  1  2  1  0  0  0  0
  1  5  1  0  0  0  0
  1 19  1  0  0  0  0
  2  3  2  0  0  0  0
  2 18  1  0  0  0  0
  3  4  1  0  0  0  0
  3 15  1  0  0  0  0
  4  5  2  0  0  0  0
  4  6  1  0  0  0  0
  5 26  1  0  0  0  0
  6  7  1  0  0  0  0
  6 27  1  0  0  0  0
  6 28  1  0  0  0  0
  7  8  1  0  0  0  0
  7 29  1  0  0  0  0
  7 30  1  0  0  0  0
  8  9  1  0  0  0  0
  8 31  1  0  0  0  0
  8 32  1  0  0  0  0
  9 10  1  0  0  0  0
  9 14  1  0  0  0  0
  9 33  1  0  0  0  0
 10 11  1  0  0  0  0
 10 34  1  0  0  0  0
 10 35  1  0  0  0  0
 11 12  1  0  0  0  0
 11 36  1  0  0  0  0
 11 37  1  0  0  0  0
 12 13  1  0  0  0  0
 12 38  1  0  0  0  0
 12 39  1  0  0  0  0
 13 14  1  0  0  0  0
 13 40  1  0  0  0  0
 13 41  1  0  0  0  0
 14 42  1  0  0  0  0
 14 43  1  0  0  0  0
 15 16  2  0  0  0  0
 15 44  1  0  0  0  0
 16 17  1  0  0  0  0
 16 45  1  0  0  0  0
 17 18  2  0  0  0  0
 17 46  1  0  0  0  0
 18 47  1  0  0  0  0
 19 20  2  0  0  0  0
 19 24  1  0  0  0  0
 20 21  1  0  0  0  0
 20 48  1  0  0  0  0
 21 22  2  0  0  0  0
 21 49  1  0  0  0  0
 22 23  1  0  0  0  0
 22 25  1  0  0  0  0
 23 24  2  0  0  0  0
 23 50  1  0  0  0  0
 24 51  1  0  0  0  0
 25 52  1  0  0  0  0
 25 53  1  0  0  0  0
 25 54  1  0  0  0  0
M  CHG  1   7   1
M  END
