2pks_ligand
 OpenBabel08222323343D

 47 49  0  0  0  0  0  0  0  0999 V2000
   22.0150  -16.8170   25.3410 C   0  0  0  0  0  0  0  0  0  0  0  0
   20.9810  -15.7310   25.1810 C   0  0  0  0  0  0  0  0  0  0  0  0
   21.2030  -14.5120   25.7950 C   0  0  0  0  0  0  0  0  0  0  0  0
   20.2950  -13.4690   25.6770 C   0  0  0  0  0  0  0  0  0  0  0  0
   19.1560  -13.6290   24.9310 C   0  0  0  0  0  0  0  0  0  0  0  0
   18.9040  -14.8360   24.2890 C   0  0  0  0  0  0  0  0  0  0  0  0
   19.8460  -15.8960   24.4080 C   0  0  0  0  0  0  0  0  0  0  0  0
   17.7730  -14.9360   23.3280 C   0  0  0  0  0  0  0  0  0  0  0  0
   17.0110  -15.8760   23.2620 O   0  0  0  0  0  0  0  0  0  0  0  0
   17.7900  -13.9210   22.2090 C   0  0  0  0  0  0  0  0  0  0  0  0
   19.0200  -13.8330   21.5050 C   0  0  0  0  0  0  0  0  0  0  0  0
   19.1680  -12.9380   20.4520 C   0  0  0  0  0  0  0  0  0  0  0  0
   18.1160  -12.1930   20.0650 N   0  0  0  0  0  0  0  0  0  0  0  0
   16.8820  -12.2300   20.5930 C   0  0  0  0  0  0  0  0  0  0  0  0
   15.9380  -11.3030   20.0160 N   0  0  0  0  0  0  0  0  0  0  0  0
   14.4800  -11.3670   19.5900 C   0  0  0  0  0  0  0  0  0  0  0  0
   13.5440  -11.0210   20.7270 C   0  0  0  0  0  0  0  0  0  0  0  0
   13.0530  -12.1060   21.3700 C   0  0  0  0  0  0  0  0  0  0  0  0
   12.2680  -11.9940   22.4790 C   0  0  0  0  0  0  0  0  0  0  0  0
   11.9900  -10.7340   22.9680 C   0  0  0  0  0  0  0  0  0  0  0  0
   12.4470   -9.5790   22.3270 C   0  0  0  0  0  0  0  0  0  0  0  0
   13.2390   -9.7420   21.1740 C   0  0  0  0  0  0  0  0  0  0  0  0
   11.1130  -10.7450   24.1410 C   0  0  0  0  0  3  0  0  0  0  0  0
   10.6740  -11.8900   24.5390 N   0  0  0  0  0  0  0  0  0  0  0  0
   10.7470   -9.6140   24.8540 N   0  0  0  0  0  0  0  0  0  0  0  0
   16.7140  -13.0930   21.7440 C   0  0  0  0  0  0  0  0  0  0  0  0
   22.8230  -16.4602   25.9966 H   0  0  0  0  0  0  0  0  0  0  0  0
   22.4298  -17.0764   24.3558 H   0  0  0  0  0  0  0  0  0  0  0  0
   21.5465  -17.7065   25.7873 H   0  0  0  0  0  0  0  0  0  0  0  0
   22.1041  -14.3682   26.3801 H   0  0  0  0  0  0  0  0  0  0  0  0
   20.4868  -12.5259   26.1758 H   0  0  0  0  0  0  0  0  0  0  0  0
   18.4496  -12.8117   24.8415 H   0  0  0  0  0  0  0  0  0  0  0  0
   19.6738  -16.8338   23.8923 H   0  0  0  0  0  0  0  0  0  0  0  0
   19.8500  -14.4688   21.7911 H   0  0  0  0  0  0  0  0  0  0  0  0
   20.1222  -12.8408   19.9469 H   0  0  0  0  0  0  0  0  0  0  0  0
   16.3521  -10.3740   19.8537 H   0  0  0  0  0  0  0  0  0  0  0  0
   14.2555  -12.3862   19.2424 H   0  0  0  0  0  0  0  0  0  0  0  0
   14.3184  -10.6550   18.7673 H   0  0  0  0  0  0  0  0  0  0  0  0
   13.2910  -13.0936   20.9919 H   0  0  0  0  0  0  0  0  0  0  0  0
   11.8704  -12.8767   22.9666 H   0  0  0  0  0  0  0  0  0  0  0  0
   12.2006   -8.5930   22.7040 H   0  0  0  0  0  0  0  0  0  0  0  0
   13.6082   -8.8746   20.6388 H   0  0  0  0  0  0  0  0  0  0  0  0
   10.0543  -11.9470   25.3597 H   0  0  0  0  0  0  0  0  0  0  0  0
   10.9430  -12.7478   24.0362 H   0  0  0  0  0  0  0  0  0  0  0  0
   11.0838   -8.6869   24.5575 H   0  0  0  0  0  0  0  0  0  0  0  0
   10.1382   -9.7007   25.6803 H   0  0  0  0  0  0  0  0  0  0  0  0
   15.7618  -13.1138   22.2617 H   0  0  0  0  0  0  0  0  0  0  0  0
  1  2  1  0  0  0  0
  1 27  1  0  0  0  0
  1 28  1  0  0  0  0
  1 29  1  0  0  0  0
  2  3  2  0  0  0  0
  2  7  1  0  0  0  0
  3  4  1  0  0  0  0
  3 30  1  0  0  0  0
  4  5  2  0  0  0  0
  4 31  1  0  0  0  0
  5  6  1  0  0  0  0
  5 32  1  0  0  0  0
  6  7  2  0  0  0  0
  6  8  1  0  0  0  0
  7 33  1  0  0  0  0
  8  9  2  0  0  0  0
  8 10  1  0  0  0  0
 10 11  2  0  0  0  0
 10 26  1  0  0  0  0
 11 12  1  0  0  0  0
 11 34  1  0  0  0  0
 12 13  2  0  0  0  0
 12 35  1  0  0  0  0
 13 14  1  0  0  0  0
 14 15  1  0  0  0  0
 14 26  2  0  0  0  0
 15 16  1  0  0  0  0
 15 36  1  0  0  0  0
 16 17  1  0  0  0  0
 16 37  1  0  0  0  0
 16 38  1  0  0  0  0
 17 18  2  0  0  0  0
 17 22  1  0  0  0  0
 18 19  1  0  0  0  0
 18 39  1  0  0  0  0
 19 20  2  0  0  0  0
 19 40  1  0  0  0  0
 20 21  1  0  0  0  0
 20 23  1  0  0  0  0
 21 22  2  0  0  0  0
 21 41  1  0  0  0  0
 22 42  1  0  0  0  0
 23 24  1  0  0  0  0
 23 25  1  0  0  0  0
 24 43  1  0  0  0  0
 24 44  1  0  0  0  0
 25 45  1  0  0  0  0
 25 46  1  0  0  0  0
 26 47  1  0  0  0  0
M  END
