2pqj_ligand
 OpenBabel08222323343D

 15 16  0  0  0  0  0  0  0  0999 V2000
  -33.7460   30.4290  -16.5350 N   0  0  0  0  0  0  0  0  0  0  0  0
  -32.4380   30.8020  -16.5640 C   0  0  0  0  0  0  0  0  0  0  0  0
  -32.3290   32.0060  -17.0410 N   0  0  0  0  0  0  0  0  0  0  0  0
  -33.5570   32.4920  -17.3380 C   0  0  0  0  0  0  0  0  0  0  0  0
  -34.0710   33.7140  -17.8900 C   0  0  0  0  0  0  0  0  0  0  0  0
  -33.2270   34.7630  -18.2290 N   0  0  0  0  0  0  0  0  0  0  0  0
  -35.4030   33.8350  -18.0550 N   0  0  0  0  0  0  0  0  0  0  0  0
  -36.2370   32.8470  -17.7370 C   0  0  0  0  0  0  0  0  0  0  0  0
  -35.8030   31.6940  -17.2330 N   0  0  0  0  0  0  0  0  0  0  0  0
  -34.4890   31.4740  -17.0250 C   0  0  0  0  0  0  0  0  0  0  0  0
  -34.1128   29.5250  -16.2047 H   0  0  0  0  0  0  0  0  0  0  0  0
  -31.6046   30.1826  -16.2357 H   0  0  0  0  0  0  0  0  0  0  0  0
  -33.6169   35.6308  -18.6236 H   0  0  0  0  0  0  0  0  0  0  0  0
  -32.2109   34.6734  -18.0859 H   0  0  0  0  0  0  0  0  0  0  0  0
  -37.3007   32.9857  -17.8931 H   0  0  0  0  0  0  0  0  0  0  0  0
  1  2  1  0  0  0  0
  1 10  1  0  0  0  0
  1 11  1  0  0  0  0
  2  3  2  0  0  0  0
  2 12  1  0  0  0  0
  3  4  1  0  0  0  0
  4  5  2  0  0  0  0
  4 10  1  0  0  0  0
  5  6  1  0  0  0  0
  5  7  1  0  0  0  0
  6 13  1  0  0  0  0
  6 14  1  0  0  0  0
  7  8  2  0  0  0  0
  8  9  1  0  0  0  0
  8 15  1  0  0  0  0
  9 10  2  0  0  0  0
M  END
