2pri_ligand
 OpenBabel08222323343D

 26 26  0  0  1  0  0  0  0  0999 V2000
   25.0610    5.5700   50.7420 C   0  0  1  0  0  0  0  0  0  0  0  0
   23.8000    4.6460   50.9740 C   0  0  0  0  0  0  0  0  0  0  0  0
   24.0260    3.6410   52.1390 C   0  0  2  0  0  0  0  0  0  0  0  0
   25.3430    2.8390   51.9490 C   0  0  1  0  0  0  0  0  0  0  0  0
   26.5730    3.8370   51.7010 C   0  0  1  0  0  0  0  0  0  0  0  0
   27.8140    3.0880   51.2980 C   0  0  0  0  0  0  0  0  0  0  0  0
   25.2540    6.5610   51.7570 O   0  0  0  0  0  0  0  0  0  0  0  0
   22.9590    2.7130   52.2730 O   0  0  0  0  0  0  0  0  0  0  0  0
   25.5400    2.0550   53.1290 O   0  0  0  0  0  0  0  0  0  0  0  0
   26.2690    4.7480   50.6160 O   0  0  0  0  0  0  0  0  0  0  0  0
   28.9460    3.9110   51.4130 O   0  0  0  0  0  0  0  0  0  0  0  0
   30.4890    3.3820   51.3260 P   0  0  0  0  0  0  0  0  0  0  0  0
   30.6510    2.4330   52.4850 O   0  0  0  0  0  1  0  0  0  0  0  0
   31.4090    4.5450   51.5030 O   0  0  0  0  0  1  0  0  0  0  0  0
   30.5510    2.8050   49.9090 O   0  0  0  0  0  0  0  0  0  0  0  0
   24.9069    6.1006   49.7909 H   0  0  0  0  0  0  0  0  0  0  0  0
   23.5975    4.0819   50.0516 H   0  0  0  0  0  0  0  0  0  0  0  0
   22.9336    5.2798   51.2138 H   0  0  0  0  0  0  0  0  0  0  0  0
   24.0999    4.2205   53.0711 H   0  0  0  0  0  0  0  0  0  0  0  0
   25.2465    2.1722   51.0795 H   0  0  0  0  0  0  0  0  0  0  0  0
   26.7653    4.4040   52.6238 H   0  0  0  0  0  0  0  0  0  0  0  0
   27.7130    2.7556   50.2543 H   0  0  0  0  0  0  0  0  0  0  0  0
   27.9360    2.2118   51.9517 H   0  0  0  0  0  0  0  0  0  0  0  0
   25.9889    7.1150   51.5215 H   0  0  0  0  0  0  0  0  0  0  0  0
   23.1164    2.1580   53.0277 H   0  0  0  0  0  0  0  0  0  0  0  0
   24.7975    1.4748   53.2500 H   0  0  0  0  0  0  0  0  0  0  0  0
  1  2  1  0  0  0  0
  1  7  1  0  0  0  0
  1 10  1  0  0  0  0
  1 16  1  6  0  0  0
  2  3  1  0  0  0  0
  2 17  1  0  0  0  0
  2 18  1  0  0  0  0
  3  4  1  0  0  0  0
  3  8  1  0  0  0  0
  3 19  1  1  0  0  0
  4  5  1  0  0  0  0
  4  9  1  0  0  0  0
  4 20  1  6  0  0  0
  5  6  1  0  0  0  0
  5 10  1  0  0  0  0
  5 21  1  1  0  0  0
  6 11  1  0  0  0  0
  6 22  1  0  0  0  0
  6 23  1  0  0  0  0
  7 24  1  0  0  0  0
  8 25  1  0  0  0  0
  9 26  1  0  0  0  0
 11 12  1  0  0  0  0
 12 13  1  0  0  0  0
 12 14  1  0  0  0  0
 12 15  2  0  0  0  0
M  END
