2psj_ligand
 OpenBabel08222323343D

 52 55  0  0  0  0  0  0  0  0999 V2000
  -17.6830    1.3380   39.5290 O   0  0  0  0  0  0  0  0  0  0  0  0
  -17.8210    1.3980   38.3150 C   0  0  0  0  0  0  0  0  0  0  0  0
  -18.6620    2.4950   37.7130 C   0  0  0  0  0  0  0  0  0  0  0  0
  -17.8320    3.6980   37.3250 C   0  0  0  0  0  0  0  0  0  0  0  0
  -16.9980    4.3290   38.2490 C   0  0  0  0  0  0  0  0  0  0  0  0
  -16.2550    5.4440   37.8710 C   0  0  0  0  0  0  0  0  0  0  0  0
  -16.3440    5.9350   36.5700 C   0  0  0  0  0  0  0  0  0  0  0  0
  -15.6220    7.0250   36.1870 O   0  0  0  0  0  0  0  0  0  0  0  0
  -17.1750    5.3060   35.6500 C   0  0  0  0  0  0  0  0  0  0  0  0
  -17.9190    4.1910   36.0260 C   0  0  0  0  0  0  0  0  0  0  0  0
  -17.2710    0.5330   37.4590 N   0  0  0  0  0  0  0  0  0  0  0  0
  -16.4930   -0.5170   37.9540 C   0  0  0  0  0  0  0  0  0  0  0  0
  -15.1050   -0.4460   37.9800 C   0  0  0  0  0  0  0  0  0  0  0  0
  -14.3580    0.7660   37.4700 C   0  0  0  0  0  0  0  0  0  0  0  0
  -14.2760    0.7090   35.9660 C   0  0  0  0  0  0  0  0  0  0  0  0
  -14.8060    1.7480   35.2000 C   0  0  0  0  0  0  0  0  0  0  0  0
  -14.7290    1.6890   33.8090 C   0  0  0  0  0  0  0  0  0  0  0  0
  -14.1290    0.5930   33.1880 C   0  0  0  0  0  0  0  0  0  0  0  0
  -13.5990   -0.4450   33.9530 C   0  0  0  0  0  0  0  0  0  0  0  0
  -13.6730   -0.3870   35.3430 C   0  0  0  0  0  0  0  0  0  0  0  0
  -14.3910   -1.4850   38.4630 N   0  0  0  0  0  0  0  0  0  0  0  0
  -15.0210   -2.5870   38.9290 C   0  0  0  0  0  0  0  0  0  0  0  0
  -16.4150   -2.6490   38.9090 C   0  0  0  0  0  0  0  0  0  0  0  0
  -17.1270   -1.6210   38.4230 N   0  0  0  0  0  0  0  0  0  0  0  0
  -14.2150   -3.7160   39.4750 C   0  0  0  0  0  0  0  0  0  0  0  0
  -13.0790   -3.4350   40.2320 C   0  0  0  0  0  0  0  0  0  0  0  0
  -12.3210   -4.4790   40.7580 C   0  0  0  0  0  0  0  0  0  0  0  0
  -12.7010   -5.8010   40.5310 C   0  0  0  0  0  0  0  0  0  0  0  0
  -11.9570   -6.8140   41.0460 O   0  0  0  0  0  0  0  0  0  0  0  0
  -13.8390   -6.0870   39.7800 C   0  0  0  0  0  0  0  0  0  0  0  0
  -14.5940   -5.0430   39.2500 C   0  0  0  0  0  0  0  0  0  0  0  0
  -19.4176    2.8075   38.4488 H   0  0  0  0  0  0  0  0  0  0  0  0
  -19.1638    2.1054   36.8150 H   0  0  0  0  0  0  0  0  0  0  0  0
  -16.9286    3.9505   39.2624 H   0  0  0  0  0  0  0  0  0  0  0  0
  -15.6062    5.9310   38.5900 H   0  0  0  0  0  0  0  0  0  0  0  0
  -15.8033    7.2190   35.2748 H   0  0  0  0  0  0  0  0  0  0  0  0
  -17.2439    5.6849   34.6367 H   0  0  0  0  0  0  0  0  0  0  0  0
  -18.5675    3.7056   35.3057 H   0  0  0  0  0  0  0  0  0  0  0  0
  -17.4143    0.6355   36.4746 H   0  0  0  0  0  0  0  0  0  0  0  0
  -13.3424    0.7755   37.8925 H   0  0  0  0  0  0  0  0  0  0  0  0
  -14.8902    1.6795   37.7739 H   0  0  0  0  0  0  0  0  0  0  0  0
  -15.2753    2.5969   35.6840 H   0  0  0  0  0  0  0  0  0  0  0  0
  -15.1357    2.4954   33.2095 H   0  0  0  0  0  0  0  0  0  0  0  0
  -14.0747    0.5484   32.1063 H   0  0  0  0  0  0  0  0  0  0  0  0
  -13.1310   -1.2941   33.4681 H   0  0  0  0  0  0  0  0  0  0  0  0
  -13.2627   -1.1923   35.9415 H   0  0  0  0  0  0  0  0  0  0  0  0
  -16.9232   -3.5289   39.2866 H   0  0  0  0  0  0  0  0  0  0  0  0
  -12.7860   -2.4068   40.4111 H   0  0  0  0  0  0  0  0  0  0  0  0
  -11.4351   -4.2632   41.3442 H   0  0  0  0  0  0  0  0  0  0  0  0
  -12.3459   -7.6461   40.8035 H   0  0  0  0  0  0  0  0  0  0  0  0
  -14.1352   -7.1156   39.6091 H   0  0  0  0  0  0  0  0  0  0  0  0
  -15.4780   -5.2601   38.6614 H   0  0  0  0  0  0  0  0  0  0  0  0
  1  2  2  0  0  0  0
  2  3  1  0  0  0  0
  2 11  1  0  0  0  0
  3  4  1  0  0  0  0
  3 32  1  0  0  0  0
  3 33  1  0  0  0  0
  4  5  2  0  0  0  0
  4 10  1  0  0  0  0
  5  6  1  0  0  0  0
  5 34  1  0  0  0  0
  6  7  2  0  0  0  0
  6 35  1  0  0  0  0
  7  8  1  0  0  0  0
  7  9  1  0  0  0  0
  8 36  1  0  0  0  0
  9 10  2  0  0  0  0
  9 37  1  0  0  0  0
 10 38  1  0  0  0  0
 11 12  1  0  0  0  0
 11 39  1  0  0  0  0
 12 13  2  0  0  0  0
 12 24  1  0  0  0  0
 13 14  1  0  0  0  0
 13 21  1  0  0  0  0
 14 15  1  0  0  0  0
 14 40  1  0  0  0  0
 14 41  1  0  0  0  0
 15 16  2  0  0  0  0
 15 20  1  0  0  0  0
 16 17  1  0  0  0  0
 16 42  1  0  0  0  0
 17 18  2  0  0  0  0
 17 43  1  0  0  0  0
 18 19  1  0  0  0  0
 18 44  1  0  0  0  0
 19 20  2  0  0  0  0
 19 45  1  0  0  0  0
 20 46  1  0  0  0  0
 21 22  2  0  0  0  0
 22 23  1  0  0  0  0
 22 25  1  0  0  0  0
 23 24  2  0  0  0  0
 23 47  1  0  0  0  0
 25 26  2  0  0  0  0
 25 31  1  0  0  0  0
 26 27  1  0  0  0  0
 26 48  1  0  0  0  0
 27 28  2  0  0  0  0
 27 49  1  0  0  0  0
 28 29  1  0  0  0  0
 28 30  1  0  0  0  0
 29 50  1  0  0  0  0
 30 31  2  0  0  0  0
 30 51  1  0  0  0  0
 31 52  1  0  0  0  0
M  END
