2psx_ligand
 OpenBabel08222323343D

 65 64  0  0  1  0  0  0  0  0999 V2000
    2.8550   -1.3130   21.4000 N   0  3  0  0  0  0  0  0  0  0  0  0
    2.9100   -2.7570   21.1130 C   0  0  2  0  0  0  0  0  0  0  0  0
    4.3580   -3.2230   20.9540 C   0  0  0  0  0  0  0  0  0  0  0  0
    5.2260   -2.4800   20.4840 O   0  0  0  0  0  0  0  0  0  0  0  0
    2.1870   -3.0370   19.7960 C   0  0  0  0  0  0  0  0  0  0  0  0
    0.6750   -2.9590   20.0030 C   0  0  0  0  0  0  0  0  0  0  0  0
   -0.0490   -3.1810   18.6740 C   0  0  0  0  0  0  0  0  0  0  0  0
    0.2310   -4.0020   21.0310 C   0  0  0  0  0  0  0  0  0  0  0  0
    4.5710   -4.4730   21.3310 N   0  0  0  0  0  0  0  0  0  0  0  0
    5.8980   -5.1050   21.2260 C   0  0  2  0  0  0  0  0  0  0  0  0
    6.1780   -5.3780   19.7460 C   0  0  0  0  0  0  0  0  0  0  0  0
    5.2780   -5.7270   18.9860 O   0  0  0  0  0  0  0  0  0  0  0  0
    5.9180   -6.4240   21.9990 C   0  0  0  0  0  0  0  0  0  0  0  0
    5.7310   -6.1620   23.4960 C   0  0  0  0  0  0  0  0  0  0  0  0
    5.6630   -7.4860   24.2600 C   0  0  0  0  0  0  0  0  0  0  0  0
    6.8630   -5.2930   24.0480 C   0  0  0  0  0  0  0  0  0  0  0  0
    7.4380   -5.1940   19.3680 N   0  0  0  0  0  0  0  0  0  0  0  0
    7.8590   -5.4130   17.9760 C   0  0  2  0  0  0  0  0  0  0  0  0
    8.7990   -6.6180   17.9210 C   0  0  0  0  0  0  0  0  0  0  0  0
    9.1730   -6.8680   16.5640 O   0  0  0  0  0  0  0  0  0  0  0  0
    8.5640   -4.1550   17.4660 C   0  0  0  0  0  0  0  0  0  0  0  0
    7.5850   -2.9800   17.4350 C   0  0  0  0  0  0  0  0  0  0  0  0
    8.2640   -1.6860   16.9860 C   0  0  0  0  0  0  0  0  0  0  0  0
    7.2340   -0.6480   16.8260 N   0  0  0  0  0  0  0  0  0  0  0  0
    7.5540    0.6020   16.5150 C   0  0  0  0  0  3  0  0  0  0  0  0
    6.5920    1.5040   16.3410 N   0  0  0  0  0  0  0  0  0  0  0  0
    8.8280    0.9530   16.3470 N   0  0  0  0  0  0  0  0  0  0  0  0
    9.1318   -7.1959   18.7819 H   0  0  0  0  0  0  0  0  0  0  0  0
    1.8937   -1.0269   21.5010 H   0  0  0  0  0  0  0  0  0  0  0  0
    3.2793   -0.8031   20.6410 H   0  0  0  0  0  0  0  0  0  0  0  0
    3.3542   -1.1210   22.2544 H   0  0  0  0  0  0  0  0  0  0  0  0
    2.4291   -3.3113   21.9324 H   0  0  0  0  0  0  0  0  0  0  0  0
    2.4545   -4.0429   19.4403 H   0  0  0  0  0  0  0  0  0  0  0  0
    2.4911   -2.2905   19.0476 H   0  0  0  0  0  0  0  0  0  0  0  0
    0.4201   -1.9583   20.3818 H   0  0  0  0  0  0  0  0  0  0  0  0
   -1.1357   -3.1228   18.8343 H   0  0  0  0  0  0  0  0  0  0  0  0
    0.2104   -4.1733   18.2764 H   0  0  0  0  0  0  0  0  0  0  0  0
    0.2576   -2.4065   17.9556 H   0  0  0  0  0  0  0  0  0  0  0  0
    0.7596   -3.8295   21.9801 H   0  0  0  0  0  0  0  0  0  0  0  0
    0.4677   -5.0091   20.6573 H   0  0  0  0  0  0  0  0  0  0  0  0
   -0.8534   -3.9171   21.1946 H   0  0  0  0  0  0  0  0  0  0  0  0
    3.8083   -5.0052   21.6984 H   0  0  0  0  0  0  0  0  0  0  0  0
    6.6645   -4.4296   21.6337 H   0  0  0  0  0  0  0  0  0  0  0  0
    6.8829   -6.9263   21.8358 H   0  0  0  0  0  0  0  0  0  0  0  0
    5.1032   -7.0690   21.6384 H   0  0  0  0  0  0  0  0  0  0  0  0
    4.7810   -5.6262   23.6384 H   0  0  0  0  0  0  0  0  0  0  0  0
    5.5287   -7.2837   25.3329 H   0  0  0  0  0  0  0  0  0  0  0  0
    6.5971   -8.0462   24.1067 H   0  0  0  0  0  0  0  0  0  0  0  0
    4.8143   -8.0798   23.8898 H   0  0  0  0  0  0  0  0  0  0  0  0
    6.9021   -4.3449   23.4916 H   0  0  0  0  0  0  0  0  0  0  0  0
    7.8202   -5.8233   23.9364 H   0  0  0  0  0  0  0  0  0  0  0  0
    6.6805   -5.0859   25.1128 H   0  0  0  0  0  0  0  0  0  0  0  0
    8.1142   -4.9006   20.0438 H   0  0  0  0  0  0  0  0  0  0  0  0
    6.9762   -5.6130   17.3510 H   0  0  0  0  0  0  0  0  0  0  0  0
    8.9452   -4.3379   16.4505 H   0  0  0  0  0  0  0  0  0  0  0  0
    9.4031   -3.9119   18.1344 H   0  0  0  0  0  0  0  0  0  0  0  0
    7.1724   -2.8338   18.4441 H   0  0  0  0  0  0  0  0  0  0  0  0
    6.7690   -3.2149   16.7357 H   0  0  0  0  0  0  0  0  0  0  0  0
    8.7772   -1.8500   16.0270 H   0  0  0  0  0  0  0  0  0  0  0  0
    8.9955   -1.3688   17.7438 H   0  0  0  0  0  0  0  0  0  0  0  0
    6.2432   -0.8966   16.9582 H   0  0  0  0  0  0  0  0  0  0  0  0
    6.8345    2.4755   16.0996 H   0  0  0  0  0  0  0  0  0  0  0  0
    5.6046    1.2310   16.4477 H   0  0  0  0  0  0  0  0  0  0  0  0
    9.5758    0.2574   16.4808 H   0  0  0  0  0  0  0  0  0  0  0  0
    9.0653    1.9200   16.0833 H   0  0  0  0  0  0  0  0  0  0  0  0
  1  2  1  0  0  0  0
  1 29  1  0  0  0  0
  1 30  1  0  0  0  0
  1 31  1  0  0  0  0
  2  3  1  0  0  0  0
  2  5  1  0  0  0  0
  2 32  1  1  0  0  0
  3  4  2  0  0  0  0
  3  9  1  0  0  0  0
  5  6  1  0  0  0  0
  5 33  1  0  0  0  0
  5 34  1  0  0  0  0
  6  7  1  0  0  0  0
  6  8  1  0  0  0  0
  6 35  1  0  0  0  0
  7 36  1  0  0  0  0
  7 37  1  0  0  0  0
  7 38  1  0  0  0  0
  8 39  1  0  0  0  0
  8 40  1  0  0  0  0
  8 41  1  0  0  0  0
  9 10  1  0  0  0  0
  9 42  1  0  0  0  0
 10 11  1  0  0  0  0
 10 13  1  0  0  0  0
 10 43  1  1  0  0  0
 11 12  2  0  0  0  0
 11 17  1  0  0  0  0
 13 14  1  0  0  0  0
 13 44  1  0  0  0  0
 13 45  1  0  0  0  0
 14 15  1  0  0  0  0
 14 16  1  0  0  0  0
 14 46  1  0  0  0  0
 15 47  1  0  0  0  0
 15 48  1  0  0  0  0
 15 49  1  0  0  0  0
 16 50  1  0  0  0  0
 16 51  1  0  0  0  0
 16 52  1  0  0  0  0
 17 18  1  0  0  0  0
 17 53  1  0  0  0  0
 18 19  1  0  0  0  0
 18 21  1  0  0  0  0
 18 54  1  6  0  0  0
 19 20  2  0  0  0  0
 19 28  1  0  0  0  0
 21 22  1  0  0  0  0
 21 55  1  0  0  0  0
 21 56  1  0  0  0  0
 22 23  1  0  0  0  0
 22 57  1  0  0  0  0
 22 58  1  0  0  0  0
 23 24  1  0  0  0  0
 23 59  1  0  0  0  0
 23 60  1  0  0  0  0
 24 25  1  0  0  0  0
 24 61  1  0  0  0  0
 25 26  1  0  0  0  0
 25 27  1  0  0  0  0
 26 62  1  0  0  0  0
 26 63  1  0  0  0  0
 27 64  1  0  0  0  0
 27 65  1  0  0  0  0
M  CHG  1   1   1
M  END
