2pu0_ligand
 OpenBabel08222323343D

 13 12  0  0  0  0  0  0  0  0999 V2000
   11.8400   28.9600   36.5570 C   0  0  0  0  0  0  0  0  0  0  0  0
   13.3670   28.9830   36.6590 C   0  0  0  0  0  0  0  0  0  0  0  0
   13.9040   29.8530   35.8440 N   0  0  0  0  0  0  0  0  0  0  0  0
   15.2630   29.9750   35.8400 O   0  0  0  0  0  0  0  0  0  0  0  0
   14.0730   28.2610   37.3980 O   0  0  0  0  0  0  0  0  0  0  0  0
   10.4050   31.0110   37.5640 O   0  0  0  0  0  1  0  0  0  0  0  0
   11.9900   29.6360   39.0320 O   0  0  0  0  0  1  0  0  0  0  0  0
    9.7870   28.6860   38.1700 O   0  0  0  0  0  0  0  0  0  0  0  0
   10.9150   29.6630   37.9630 P   0  0  0  0  0  0  0  0  0  0  0  0
   11.5291   27.9109   36.4446 H   0  0  0  0  0  0  0  0  0  0  0  0
   11.5574   29.5247   35.6563 H   0  0  0  0  0  0  0  0  0  0  0  0
   13.3353   30.4127   35.2412 H   0  0  0  0  0  0  0  0  0  0  0  0
   15.6539   29.1419   35.6044 H   0  0  0  0  0  0  0  0  0  0  0  0
  1  2  1  0  0  0  0
  1  9  1  0  0  0  0
  1 10  1  0  0  0  0
  1 11  1  0  0  0  0
  2  3  1  0  0  0  0
  2  5  2  0  0  0  0
  3  4  1  0  0  0  0
  3 12  1  0  0  0  0
  4 13  1  0  0  0  0
  9  6  1  0  0  0  0
  9  7  1  0  0  0  0
  9  8  2  0  0  0  0
M  END
