2pv2_ligand
 OpenBabel08222323343D

233237  0  0  1  0  0  0  0  0999 V2000
   -1.3510  -13.0270   16.2630 N   0  3  0  0  0  0  0  0  0  0  0  0
   -1.1080  -14.0650   17.3070 C   0  0  2  0  0  0  0  0  0  0  0  0
   -0.7450  -13.3880   18.6240 C   0  0  0  0  0  0  0  0  0  0  0  0
   -0.0330  -12.3830   18.6300 O   0  0  0  0  0  0  0  0  0  0  0  0
    0.0050  -15.0060   16.8520 C   0  0  0  0  0  0  0  0  0  0  0  0
    0.3590  -16.0310   17.9040 C   0  0  0  0  0  0  0  0  0  0  0  0
    1.2730  -15.8250   18.7050 O   0  0  0  0  0  0  0  0  0  0  0  0
   -0.3820  -17.1320   17.9310 N   0  0  0  0  0  0  0  0  0  0  0  0
   -1.2050  -13.9520   19.7400 N   0  0  0  0  0  0  0  0  0  0  0  0
   -0.9770  -13.3230   21.0380 C   0  0  2  0  0  0  0  0  0  0  0  0
    0.2480  -13.6680   21.8680 C   0  0  0  0  0  0  0  0  0  0  0  0
    0.3910  -13.1630   22.9760 O   0  0  0  0  0  0  0  0  0  0  0  0
   -2.2440  -13.4610   21.9140 C   0  0  0  0  0  0  0  0  0  0  0  0
   -2.6470  -14.8950   22.2770 C   0  0  0  0  0  0  0  0  0  0  0  0
   -3.9950  -15.2680   22.2170 C   0  0  0  0  0  0  0  0  0  0  0  0
   -1.7300  -15.8200   22.7820 C   0  0  0  0  0  0  0  0  0  0  0  0
   -4.4230  -16.5120   22.6490 C   0  0  0  0  0  0  0  0  0  0  0  0
   -2.1540  -17.0780   23.2230 C   0  0  0  0  0  0  0  0  0  0  0  0
   -3.5080  -17.4210   23.1550 C   0  0  0  0  0  0  0  0  0  0  0  0
    1.1480  -14.4840   21.3340 N   0  0  0  0  0  0  0  0  0  0  0  0
    2.3090  -14.9150   22.1060 C   0  0  2  0  0  0  0  0  0  0  0  0
    3.1040  -13.7930   22.7610 C   0  0  0  0  0  0  0  0  0  0  0  0
    3.3080  -13.7980   23.9760 O   0  0  0  0  0  0  0  0  0  0  0  0
    3.2550  -15.7760   21.2390 C   0  0  2  0  0  0  0  0  0  0  0  0
    2.5520  -16.9430   20.7930 O   0  0  0  0  0  0  0  0  0  0  0  0
    4.4640  -16.2320   22.0480 C   0  0  0  0  0  0  0  0  0  0  0  0
    3.5560  -12.8340   21.9600 N   0  0  0  0  0  0  0  0  0  0  0  0
    4.3420  -11.7290   22.4910 C   0  0  2  0  0  0  0  0  0  0  0  0
    3.4870  -10.6130   23.0980 C   0  0  0  0  0  0  0  0  0  0  0  0
    3.9540   -9.8920   23.9800 O   0  0  0  0  0  0  0  0  0  0  0  0
    5.2680  -11.1830   21.4060 C   0  0  0  0  0  0  0  0  0  0  0  0
    6.3200  -12.1820   20.9080 C   0  0  0  0  0  0  0  0  0  0  0  0
    7.2170  -11.4790   19.9050 C   0  0  0  0  0  0  0  0  0  0  0  0
    7.1410  -12.7340   22.0640 C   0  0  0  0  0  0  0  0  0  0  0  0
    2.2410  -10.4780   22.6520 N   0  0  0  0  0  0  0  0  0  0  0  0
    1.3500   -9.4620   23.2160 C   0  0  2  0  0  0  0  0  0  0  0  0
    1.1550   -9.7690   24.6950 C   0  0  0  0  0  0  0  0  0  0  0  0
    1.1120   -8.8660   25.5250 O   0  0  0  0  0  0  0  0  0  0  0  0
   -0.0060   -9.4630   22.5140 C   0  0  0  0  0  0  0  0  0  0  0  0
    0.0280   -8.9530   21.0850 C   0  0  0  0  0  0  0  0  0  0  0  0
   -1.3840   -8.8420   20.5300 C   0  0  0  0  0  0  0  0  0  0  0  0
   -1.4040   -8.2480   19.1280 C   0  0  0  0  0  0  0  0  0  0  0  0
   -0.7570   -9.1400   18.1290 N   0  3  0  0  0  0  0  0  0  0  0  0
    1.0250  -11.0500   25.0390 N   0  0  0  0  0  0  0  0  0  0  0  0
    0.8860  -11.4080   26.4440 C   0  0  2  0  0  0  0  0  0  0  0  0
    2.2160  -11.2530   27.1880 C   0  0  0  0  0  0  0  0  0  0  0  0
    2.2480  -10.7220   28.2920 O   0  0  0  0  0  0  0  0  0  0  0  0
    0.3870  -12.8530   26.6100 C   0  0  0  0  0  0  0  0  0  0  0  0
   -1.1120  -12.9830   26.6280 C   0  0  0  0  0  0  0  0  0  0  0  0
   -1.8620  -12.4340   27.6640 C   0  0  0  0  0  0  0  0  0  0  0  0
   -1.7720  -13.6480   25.6070 C   0  0  0  0  0  0  0  0  0  0  0  0
   -3.2540  -12.5500   27.6740 C   0  0  0  0  0  0  0  0  0  0  0  0
   -3.1610  -13.7670   25.6070 C   0  0  0  0  0  0  0  0  0  0  0  0
   -3.8990  -13.2130   26.6470 C   0  0  0  0  0  0  0  0  0  0  0  0
    3.3170  -11.7130   26.5970 N   0  0  0  0  0  0  0  0  0  0  0  0
    4.5890  -11.6150   27.2970 C   0  0  2  0  0  0  0  0  0  0  0  0
    4.9340  -10.1640   27.6280 C   0  0  0  0  0  0  0  0  0  0  0  0
    5.4240   -9.8800   28.7160 O   0  0  0  0  0  0  0  0  0  0  0  0
    5.7080  -12.2870   26.4840 C   0  0  0  0  0  0  0  0  0  0  0  0
    6.9680  -12.5350   27.2740 C   0  0  0  0  0  0  0  0  0  0  0  0
    7.1160  -12.4720   28.6290 C   0  0  0  0  0  0  0  0  0  0  0  0
    8.2470  -12.9120   26.7490 C   0  0  0  0  0  0  0  0  0  0  0  0
    8.4140  -12.7870   28.9810 N   0  0  0  0  0  0  0  0  0  0  0  0
    9.1240  -13.0600   27.8430 C   0  0  0  0  0  0  0  0  0  0  0  0
    8.7340  -13.1430   25.4580 C   0  0  0  0  0  0  0  0  0  0  0  0
   10.4670  -13.4280   27.6850 C   0  0  0  0  0  0  0  0  0  0  0  0
   10.0700  -13.5130   25.3020 C   0  0  0  0  0  0  0  0  0  0  0  0
   10.9170  -13.6500   26.4110 C   0  0  0  0  0  0  0  0  0  0  0  0
    4.6360   -9.2550   26.7040 N   0  0  0  0  0  0  0  0  0  0  0  0
    4.9250   -7.8360   26.9020 C   0  0  2  0  0  0  0  0  0  0  0  0
    4.2810   -7.2580   28.1550 C   0  0  0  0  0  0  0  0  0  0  0  0
    4.8090   -6.3150   28.7370 O   0  0  0  0  0  0  0  0  0  0  0  0
    4.4740   -7.0140   25.6880 C   0  0  0  0  0  0  0  0  0  0  0  0
    5.3960   -7.1770   24.4860 C   0  0  0  0  0  0  0  0  0  0  0  0
    6.5350   -7.6620   24.6560 O   0  5  0  0  0  0  0  0  0  0  0  0
    4.9800   -6.7990   23.3680 O   0  0  0  0  0  0  0  0  0  0  0  0
    3.1600   -7.8280   28.5760 N   0  0  0  0  0  0  0  0  0  0  0  0
    2.4640   -7.3410   29.7590 C   0  0  2  0  0  0  0  0  0  0  0  0
    3.2640   -7.5260   31.0420 C   0  0  0  0  0  0  0  0  0  0  0  0
    3.1730   -6.7130   31.9710 O   0  0  0  0  0  0  0  0  0  0  0  0
    1.1270   -8.0660   29.9090 C   0  0  2  0  0  0  0  0  0  0  0  0
    0.2600   -7.7760   28.6890 C   0  0  0  0  0  0  0  0  0  0  0  0
    0.4300   -7.6380   31.1950 C   0  0  0  0  0  0  0  0  0  0  0  0
   -1.0060   -8.6100   28.6350 C   0  0  0  0  0  0  0  0  0  0  0  0
    4.0720   -8.5790   31.0790 N   0  0  0  0  0  0  0  0  0  0  0  0
    4.8490   -8.9240   32.2650 C   0  0  2  0  0  0  0  0  0  0  0  0
    6.2520   -8.3690   32.3290 C   0  0  0  0  0  0  0  0  0  0  0  0
    6.9030   -8.4750   33.3660 O   0  0  0  0  0  0  0  0  0  0  0  0
    4.9160  -10.4490   32.3880 C   0  0  0  0  0  0  0  0  0  0  0  0
    3.5770  -11.0980   32.4310 C   0  0  0  0  0  0  0  0  0  0  0  0
    2.8140  -11.0760   33.5960 C   0  0  0  0  0  0  0  0  0  0  0  0
    3.0440  -11.6870   31.2910 C   0  0  0  0  0  0  0  0  0  0  0  0
    1.5440  -11.6240   33.6250 C   0  0  0  0  0  0  0  0  0  0  0  0
    1.7760  -12.2380   31.3100 C   0  0  0  0  0  0  0  0  0  0  0  0
    1.0200  -12.2060   32.4820 C   0  0  0  0  0  0  0  0  0  0  0  0
    6.7200   -7.7750   31.2410 N   0  0  0  0  0  0  0  0  0  0  0  0
    8.0800   -7.2410   31.1970 C   0  0  2  0  0  0  0  0  0  0  0  0
    8.3150   -6.0440   32.1160 C   0  0  0  0  0  0  0  0  0  0  0  0
    7.5080   -5.1150   32.1680 O   0  0  0  0  0  0  0  0  0  0  0  0
    8.4470   -6.8620   29.7580 C   0  0  0  0  0  0  0  0  0  0  0  0
    9.9080   -6.4660   29.5760 C   0  0  0  0  0  0  0  0  0  0  0  0
   10.2360   -6.1930   28.1130 C   0  0  0  0  0  0  0  0  0  0  0  0
    9.4860   -5.0580   27.5800 N   0  0  0  0  0  0  0  0  0  0  0  0
    9.6560   -3.7960   27.9650 C   0  0  0  0  0  3  0  0  0  0  0  0
   10.5560   -3.4940   28.8920 N   0  0  0  0  0  0  0  0  0  0  0  0
    8.9240   -2.8320   27.4210 N   0  0  0  0  0  0  0  0  0  0  0  0
    9.4360   -6.0800   32.8330 N   0  0  0  0  0  0  0  0  0  0  0  0
    9.8170   -5.0120   33.7510 C   0  0  2  0  0  0  0  0  0  0  0  0
   11.2980   -4.6790   33.5760 C   0  0  0  0  0  0  0  0  0  0  0  0
   11.6330   -3.4770   33.5620 O   0  5  0  0  0  0  0  0  0  0  0  0
    9.5480   -5.4290   35.2010 C   0  0  0  0  0  0  0  0  0  0  0  0
   10.3830   -6.6090   35.6690 C   0  0  0  0  0  0  0  0  0  0  0  0
   10.1410   -6.9300   37.1340 C   0  0  0  0  0  0  0  0  0  0  0  0
   10.9920   -8.1090   37.5740 C   0  0  0  0  0  0  0  0  0  0  0  0
   10.7900   -8.4490   39.0100 N   0  3  0  0  0  0  0  0  0  0  0  0
   12.1090   -5.6240   33.4670 O   0  0  0  0  0  0  0  0  0  0  0  0
   -1.5909  -13.4755   15.3927 H   0  0  0  0  0  0  0  0  0  0  0  0
   -0.5171  -12.4748   16.1377 H   0  0  0  0  0  0  0  0  0  0  0  0
   -2.1092  -12.4295   16.5532 H   0  0  0  0  0  0  0  0  0  0  0  0
   -2.0281  -14.6502   17.4514 H   0  0  0  0  0  0  0  0  0  0  0  0
    0.9008  -14.4096   16.6245 H   0  0  0  0  0  0  0  0  0  0  0  0
   -0.3259  -15.5316   15.9441 H   0  0  0  0  0  0  0  0  0  0  0  0
   -0.1934  -17.8452   18.6062 H   0  0  0  0  0  0  0  0  0  0  0  0
   -1.1288  -17.2483   17.2762 H   0  0  0  0  0  0  0  0  0  0  0  0
   -1.7106  -14.8132   19.6883 H   0  0  0  0  0  0  0  0  0  0  0  0
   -0.8637  -12.2530   20.8093 H   0  0  0  0  0  0  0  0  0  0  0  0
   -3.0826  -13.0014   21.3705 H   0  0  0  0  0  0  0  0  0  0  0  0
   -2.0690  -12.9116   22.8507 H   0  0  0  0  0  0  0  0  0  0  0  0
   -4.7211  -14.5662   21.8229 H   0  0  0  0  0  0  0  0  0  0  0  0
   -0.6788  -15.5602   22.8327 H   0  0  0  0  0  0  0  0  0  0  0  0
   -5.4732  -16.7745   22.5913 H   0  0  0  0  0  0  0  0  0  0  0  0
   -1.4339  -17.7861   23.6169 H   0  0  0  0  0  0  0  0  0  0  0  0
   -3.8404  -18.3945   23.4969 H   0  0  0  0  0  0  0  0  0  0  0  0
    1.0297  -14.8063   20.3948 H   0  0  0  0  0  0  0  0  0  0  0  0
    1.9273  -15.5513   22.9180 H   0  0  0  0  0  0  0  0  0  0  0  0
    3.5920  -15.1880   20.3726 H   0  0  0  0  0  0  0  0  0  0  0  0
    1.7979  -16.6798   20.2787 H   0  0  0  0  0  0  0  0  0  0  0  0
    5.1220  -16.8421   21.4117 H   0  0  0  0  0  0  0  0  0  0  0  0
    4.1260  -16.8309   22.9065 H   0  0  0  0  0  0  0  0  0  0  0  0
    5.0164  -15.3521   22.4094 H   0  0  0  0  0  0  0  0  0  0  0  0
    3.3541  -12.8715   20.9813 H   0  0  0  0  0  0  0  0  0  0  0  0
    4.9707  -12.1315   23.2989 H   0  0  0  0  0  0  0  0  0  0  0  0
    5.7923  -10.3050   21.8112 H   0  0  0  0  0  0  0  0  0  0  0  0
    4.6505  -10.8779   20.5484 H   0  0  0  0  0  0  0  0  0  0  0  0
    5.8101  -13.0194   20.4092 H   0  0  0  0  0  0  0  0  0  0  0  0
    7.9783  -12.1829   19.5375 H   0  0  0  0  0  0  0  0  0  0  0  0
    7.7114  -10.6249   20.3908 H   0  0  0  0  0  0  0  0  0  0  0  0
    6.6113  -11.1200   19.0599 H   0  0  0  0  0  0  0  0  0  0  0  0
    6.4745  -13.2388   22.7788 H   0  0  0  0  0  0  0  0  0  0  0  0
    7.6634  -11.9086   22.5698 H   0  0  0  0  0  0  0  0  0  0  0  0
    7.8785  -13.4537   21.6792 H   0  0  0  0  0  0  0  0  0  0  0  0
    1.9091  -11.0771   21.9234 H   0  0  0  0  0  0  0  0  0  0  0  0
    1.8120   -8.4703   23.1020 H   0  0  0  0  0  0  0  0  0  0  0  0
   -0.6925   -8.8256   23.0906 H   0  0  0  0  0  0  0  0  0  0  0  0
   -0.3866  -10.4950   22.5021 H   0  0  0  0  0  0  0  0  0  0  0  0
    0.6080   -9.6517   20.4641 H   0  0  0  0  0  0  0  0  0  0  0  0
    0.5047   -7.9619   21.0647 H   0  0  0  0  0  0  0  0  0  0  0  0
   -1.9773   -8.1984   21.1962 H   0  0  0  0  0  0  0  0  0  0  0  0
   -1.8316   -9.8462   20.4960 H   0  0  0  0  0  0  0  0  0  0  0  0
   -0.8692   -7.2869   19.1431 H   0  0  0  0  0  0  0  0  0  0  0  0
   -2.4494   -8.0813   18.8291 H   0  0  0  0  0  0  0  0  0  0  0  0
   -0.7935   -8.7077   17.2191 H   0  0  0  0  0  0  0  0  0  0  0  0
   -1.2435  -10.0224   18.1015 H   0  0  0  0  0  0  0  0  0  0  0  0
    0.2045   -9.2944   18.3893 H   0  0  0  0  0  0  0  0  0  0  0  0
    1.0229  -11.7615   24.3363 H   0  0  0  0  0  0  0  0  0  0  0  0
    0.1489  -10.7294   26.8981 H   0  0  0  0  0  0  0  0  0  0  0  0
    0.7801  -13.2482   27.5583 H   0  0  0  0  0  0  0  0  0  0  0  0
    0.7764  -13.4520   25.7736 H   0  0  0  0  0  0  0  0  0  0  0  0
   -1.3611  -11.9114   28.4709 H   0  0  0  0  0  0  0  0  0  0  0  0
   -1.1993  -14.0825   24.7956 H   0  0  0  0  0  0  0  0  0  0  0  0
   -3.8281  -12.1202   28.4869 H   0  0  0  0  0  0  0  0  0  0  0  0
   -3.6631  -14.2888   24.8003 H   0  0  0  0  0  0  0  0  0  0  0  0
   -4.9794  -13.3010   26.6524 H   0  0  0  0  0  0  0  0  0  0  0  0
    3.2704  -12.1201   25.6848 H   0  0  0  0  0  0  0  0  0  0  0  0
    4.4917  -12.1593   28.2479 H   0  0  0  0  0  0  0  0  0  0  0  0
    5.9553  -11.6376   25.6313 H   0  0  0  0  0  0  0  0  0  0  0  0
    5.3352  -13.2532   26.1131 H   0  0  0  0  0  0  0  0  0  0  0  0
    6.3254  -12.2112   29.3311 H   0  0  0  0  0  0  0  0  0  0  0  0
    8.7861  -12.8123   29.9411 H   0  0  0  0  0  0  0  0  0  0  0  0
    8.0858  -13.0366   24.5957 H   0  0  0  0  0  0  0  0  0  0  0  0
   11.1253  -13.5330   28.5398 H   0  0  0  0  0  0  0  0  0  0  0  0
   10.4596  -13.6976   24.3074 H   0  0  0  0  0  0  0  0  0  0  0  0
   11.9506  -13.9379   26.2564 H   0  0  0  0  0  0  0  0  0  0  0  0
    4.2032   -9.5499   25.8521 H   0  0  0  0  0  0  0  0  0  0  0  0
    6.0152   -7.7322   27.0049 H   0  0  0  0  0  0  0  0  0  0  0  0
    4.4521   -5.9515   25.9720 H   0  0  0  0  0  0  0  0  0  0  0  0
    3.4627   -7.3377   25.4010 H   0  0  0  0  0  0  0  0  0  0  0  0
    2.7858   -8.6064   28.0720 H   0  0  0  0  0  0  0  0  0  0  0  0
    2.2736   -6.2661   29.6235 H   0  0  0  0  0  0  0  0  0  0  0  0
    1.3140   -9.1488   29.9588 H   0  0  0  0  0  0  0  0  0  0  0  0
    0.8514   -7.9817   27.7846 H   0  0  0  0  0  0  0  0  0  0  0  0
   -0.0236   -6.7134   28.7079 H   0  0  0  0  0  0  0  0  0  0  0  0
    1.0790   -7.8597   32.0550 H   0  0  0  0  0  0  0  0  0  0  0  0
   -0.5171   -8.1876   31.2992 H   0  0  0  0  0  0  0  0  0  0  0  0
    0.2251   -6.5579   31.1591 H   0  0  0  0  0  0  0  0  0  0  0  0
   -1.5790   -8.3487   27.7331 H   0  0  0  0  0  0  0  0  0  0  0  0
   -1.6160   -8.4088   29.5280 H   0  0  0  0  0  0  0  0  0  0  0  0
   -0.7411   -9.6772   28.6047 H   0  0  0  0  0  0  0  0  0  0  0  0
    4.1508   -9.1557   30.2658 H   0  0  0  0  0  0  0  0  0  0  0  0
    4.3045   -8.5265   33.1342 H   0  0  0  0  0  0  0  0  0  0  0  0
    5.4554  -10.7009   33.3130 H   0  0  0  0  0  0  0  0  0  0  0  0
    5.4676  -10.8447   31.5225 H   0  0  0  0  0  0  0  0  0  0  0  0
    3.2210  -10.6230   34.4928 H   0  0  0  0  0  0  0  0  0  0  0  0
    3.6278  -11.7148   30.3781 H   0  0  0  0  0  0  0  0  0  0  0  0
    0.9611  -11.5981   34.5385 H   0  0  0  0  0  0  0  0  0  0  0  0
    1.3696  -12.6946   30.4148 H   0  0  0  0  0  0  0  0  0  0  0  0
    0.0248  -12.6355   32.4984 H   0  0  0  0  0  0  0  0  0  0  0  0
    6.1327   -7.6906   30.4361 H   0  0  0  0  0  0  0  0  0  0  0  0
    8.7569   -8.0439   31.5244 H   0  0  0  0  0  0  0  0  0  0  0  0
    7.8177   -6.0132   29.4523 H   0  0  0  0  0  0  0  0  0  0  0  0
    8.2389   -7.7253   29.1088 H   0  0  0  0  0  0  0  0  0  0  0  0
   10.5477   -7.2840   29.9388 H   0  0  0  0  0  0  0  0  0  0  0  0
   10.1074   -5.5569   30.1624 H   0  0  0  0  0  0  0  0  0  0  0  0
    9.9908   -7.0880   27.5223 H   0  0  0  0  0  0  0  0  0  0  0  0
   11.3114   -5.9791   28.0253 H   0  0  0  0  0  0  0  0  0  0  0  0
    8.7774   -5.2479   26.8570 H   0  0  0  0  0  0  0  0  0  0  0  0
   10.6836   -2.5153   29.1864 H   0  0  0  0  0  0  0  0  0  0  0  0
   11.1271   -4.2383   29.3172 H   0  0  0  0  0  0  0  0  0  0  0  0
    8.2240   -3.0609   26.7010 H   0  0  0  0  0  0  0  0  0  0  0  0
    9.0559   -1.8548   27.7188 H   0  0  0  0  0  0  0  0  0  0  0  0
   10.0411   -6.8706   32.7386 H   0  0  0  0  0  0  0  0  0  0  0  0
    9.2197   -4.1172   33.5219 H   0  0  0  0  0  0  0  0  0  0  0  0
    8.4856   -5.6992   35.2920 H   0  0  0  0  0  0  0  0  0  0  0  0
    9.7653   -4.5708   35.8539 H   0  0  0  0  0  0  0  0  0  0  0  0
   11.4473   -6.3691   35.5289 H   0  0  0  0  0  0  0  0  0  0  0  0
   10.1231   -7.4904   35.0644 H   0  0  0  0  0  0  0  0  0  0  0  0
    9.0790   -7.1776   37.2786 H   0  0  0  0  0  0  0  0  0  0  0  0
   10.3990   -6.0514   37.7434 H   0  0  0  0  0  0  0  0  0  0  0  0
   12.0514   -7.8589   37.4157 H   0  0  0  0  0  0  0  0  0  0  0  0
   10.7265   -8.9842   36.9628 H   0  0  0  0  0  0  0  0  0  0  0  0
   11.3731   -9.2340   39.2546 H   0  0  0  0  0  0  0  0  0  0  0  0
    9.8231   -8.6872   39.1661 H   0  0  0  0  0  0  0  0  0  0  0  0
   11.0372   -7.6560   39.5811 H   0  0  0  0  0  0  0  0  0  0  0  0
  1  2  1  0  0  0  0
  1117  1  0  0  0  0
  1118  1  0  0  0  0
  1119  1  0  0  0  0
  2  3  1  0  0  0  0
  2  5  1  0  0  0  0
  2120  1  1  0  0  0
  3  4  2  0  0  0  0
  3  9  1  0  0  0  0
  5  6  1  0  0  0  0
  5121  1  0  0  0  0
  5122  1  0  0  0  0
  6  7  2  0  0  0  0
  6  8  1  0  0  0  0
  8123  1  0  0  0  0
  8124  1  0  0  0  0
  9 10  1  0  0  0  0
  9125  1  0  0  0  0
 10 11  1  0  0  0  0
 10 13  1  0  0  0  0
 10126  1  6  0  0  0
 11 12  2  0  0  0  0
 11 20  1  0  0  0  0
 13 14  1  0  0  0  0
 13127  1  0  0  0  0
 13128  1  0  0  0  0
 14 15  2  0  0  0  0
 14 16  1  0  0  0  0
 15 17  1  0  0  0  0
 15129  1  0  0  0  0
 16 18  2  0  0  0  0
 16130  1  0  0  0  0
 17 19  2  0  0  0  0
 17131  1  0  0  0  0
 18 19  1  0  0  0  0
 18132  1  0  0  0  0
 19133  1  0  0  0  0
 20 21  1  0  0  0  0
 20134  1  0  0  0  0
 21 22  1  0  0  0  0
 21 24  1  0  0  0  0
 21135  1  1  0  0  0
 22 23  2  0  0  0  0
 22 27  1  0  0  0  0
 24 25  1  0  0  0  0
 24 26  1  0  0  0  0
 24136  1  6  0  0  0
 25137  1  0  0  0  0
 26138  1  0  0  0  0
 26139  1  0  0  0  0
 26140  1  0  0  0  0
 27 28  1  0  0  0  0
 27141  1  0  0  0  0
 28 29  1  0  0  0  0
 28 31  1  0  0  0  0
 28142  1  1  0  0  0
 29 30  2  0  0  0  0
 29 35  1  0  0  0  0
 31 32  1  0  0  0  0
 31143  1  0  0  0  0
 31144  1  0  0  0  0
 32 33  1  0  0  0  0
 32 34  1  0  0  0  0
 32145  1  0  0  0  0
 33146  1  0  0  0  0
 33147  1  0  0  0  0
 33148  1  0  0  0  0
 34149  1  0  0  0  0
 34150  1  0  0  0  0
 34151  1  0  0  0  0
 35 36  1  0  0  0  0
 35152  1  0  0  0  0
 36 37  1  0  0  0  0
 36 39  1  0  0  0  0
 36153  1  6  0  0  0
 37 38  2  0  0  0  0
 37 44  1  0  0  0  0
 39 40  1  0  0  0  0
 39154  1  0  0  0  0
 39155  1  0  0  0  0
 40 41  1  0  0  0  0
 40156  1  0  0  0  0
 40157  1  0  0  0  0
 41 42  1  0  0  0  0
 41158  1  0  0  0  0
 41159  1  0  0  0  0
 42 43  1  0  0  0  0
 42160  1  0  0  0  0
 42161  1  0  0  0  0
 43162  1  0  0  0  0
 43163  1  0  0  0  0
 43164  1  0  0  0  0
 44 45  1  0  0  0  0
 44165  1  0  0  0  0
 45 46  1  0  0  0  0
 45 48  1  0  0  0  0
 45166  1  1  0  0  0
 46 47  2  0  0  0  0
 46 55  1  0  0  0  0
 48 49  1  0  0  0  0
 48167  1  0  0  0  0
 48168  1  0  0  0  0
 49 50  2  0  0  0  0
 49 51  1  0  0  0  0
 50 52  1  0  0  0  0
 50169  1  0  0  0  0
 51 53  2  0  0  0  0
 51170  1  0  0  0  0
 52 54  2  0  0  0  0
 52171  1  0  0  0  0
 53 54  1  0  0  0  0
 53172  1  0  0  0  0
 54173  1  0  0  0  0
 55 56  1  0  0  0  0
 55174  1  0  0  0  0
 56 57  1  0  0  0  0
 56 59  1  0  0  0  0
 56175  1  1  0  0  0
 57 58  2  0  0  0  0
 57 69  1  0  0  0  0
 59 60  1  0  0  0  0
 59176  1  0  0  0  0
 59177  1  0  0  0  0
 60 61  2  0  0  0  0
 60 62  1  0  0  0  0
 61 63  1  0  0  0  0
 61178  1  0  0  0  0
 62 64  2  0  0  0  0
 62 65  1  0  0  0  0
 63 64  1  0  0  0  0
 63179  1  0  0  0  0
 64 66  1  0  0  0  0
 65 67  2  0  0  0  0
 65180  1  0  0  0  0
 66 68  2  0  0  0  0
 66181  1  0  0  0  0
 67 68  1  0  0  0  0
 67182  1  0  0  0  0
 68183  1  0  0  0  0
 69 70  1  0  0  0  0
 69184  1  0  0  0  0
 70 71  1  0  0  0  0
 70 73  1  0  0  0  0
 70185  1  1  0  0  0
 71 72  2  0  0  0  0
 71 77  1  0  0  0  0
 73 74  1  0  0  0  0
 73186  1  0  0  0  0
 73187  1  0  0  0  0
 74 75  1  0  0  0  0
 74 76  2  0  0  0  0
 77 78  1  0  0  0  0
 77188  1  0  0  0  0
 78 79  1  0  0  0  0
 78 81  1  0  0  0  0
 78189  1  6  0  0  0
 79 80  2  0  0  0  0
 79 85  1  0  0  0  0
 81 82  1  0  0  0  0
 81 83  1  0  0  0  0
 81190  1  1  0  0  0
 82 84  1  0  0  0  0
 82191  1  0  0  0  0
 82192  1  0  0  0  0
 83193  1  0  0  0  0
 83194  1  0  0  0  0
 83195  1  0  0  0  0
 84196  1  0  0  0  0
 84197  1  0  0  0  0
 84198  1  0  0  0  0
 85 86  1  0  0  0  0
 85199  1  0  0  0  0
 86 87  1  0  0  0  0
 86 89  1  0  0  0  0
 86200  1  1  0  0  0
 87 88  2  0  0  0  0
 87 96  1  0  0  0  0
 89 90  1  0  0  0  0
 89201  1  0  0  0  0
 89202  1  0  0  0  0
 90 91  2  0  0  0  0
 90 92  1  0  0  0  0
 91 93  1  0  0  0  0
 91203  1  0  0  0  0
 92 94  2  0  0  0  0
 92204  1  0  0  0  0
 93 95  2  0  0  0  0
 93205  1  0  0  0  0
 94 95  1  0  0  0  0
 94206  1  0  0  0  0
 95207  1  0  0  0  0
 96 97  1  0  0  0  0
 96208  1  0  0  0  0
 97 98  1  0  0  0  0
 97100  1  0  0  0  0
 97209  1  1  0  0  0
 98 99  2  0  0  0  0
 98107  1  0  0  0  0
100101  1  0  0  0  0
100210  1  0  0  0  0
100211  1  0  0  0  0
101102  1  0  0  0  0
101212  1  0  0  0  0
101213  1  0  0  0  0
102103  1  0  0  0  0
102214  1  0  0  0  0
102215  1  0  0  0  0
103104  1  0  0  0  0
103216  1  0  0  0  0
104105  1  0  0  0  0
104106  1  0  0  0  0
105217  1  0  0  0  0
105218  1  0  0  0  0
106219  1  0  0  0  0
106220  1  0  0  0  0
107108  1  0  0  0  0
107221  1  0  0  0  0
108109  1  0  0  0  0
108111  1  0  0  0  0
108222  1  6  0  0  0
109110  1  0  0  0  0
109116  2  0  0  0  0
111112  1  0  0  0  0
111223  1  0  0  0  0
111224  1  0  0  0  0
112113  1  0  0  0  0
112225  1  0  0  0  0
112226  1  0  0  0  0
113114  1  0  0  0  0
113227  1  0  0  0  0
113228  1  0  0  0  0
114115  1  0  0  0  0
114229  1  0  0  0  0
114230  1  0  0  0  0
115231  1  0  0  0  0
115232  1  0  0  0  0
115233  1  0  0  0  0
M  CHG  5   1   1  43   1  75  -1 110  -1 115   1
M  END
