2pv3_ligand
 OpenBabel08222323343D

188192  0  0  1  0  0  0  0  0999 V2000
   77.1250   41.9920  -36.4230 N   0  3  0  0  0  0  0  0  0  0  0  0
   75.7100   42.1090  -36.8930 C   0  0  2  0  0  0  0  0  0  0  0  0
   75.4070   43.5370  -37.3450 C   0  0  0  0  0  0  0  0  0  0  0  0
   74.9920   43.7740  -38.4850 O   0  0  0  0  0  0  0  0  0  0  0  0
   74.7350   41.6870  -35.7840 C   0  0  0  0  0  0  0  0  0  0  0  0
   74.9440   40.2500  -35.3190 C   0  0  0  0  0  0  0  0  0  0  0  0
   75.3660   39.3850  -36.0870 O   0  0  0  0  0  0  0  0  0  0  0  0
   74.6340   39.9920  -34.0530 N   0  0  0  0  0  0  0  0  0  0  0  0
   75.6150   44.4780  -36.4290 N   0  0  0  0  0  0  0  0  0  0  0  0
   75.5580   45.8980  -36.7550 C   0  0  2  0  0  0  0  0  0  0  0  0
   76.9090   46.6120  -36.5970 C   0  0  0  0  0  0  0  0  0  0  0  0
   77.0190   47.7850  -36.9540 O   0  0  0  0  0  0  0  0  0  0  0  0
   74.4360   46.6300  -35.9720 C   0  0  0  0  0  0  0  0  0  0  0  0
   74.4770   46.4740  -34.4410 C   0  0  0  0  0  0  0  0  0  0  0  0
   73.2820   46.4300  -33.7250 C   0  0  0  0  0  0  0  0  0  0  0  0
   75.6690   46.4190  -33.7180 C   0  0  0  0  0  0  0  0  0  0  0  0
   73.2720   46.3150  -32.3370 C   0  0  0  0  0  0  0  0  0  0  0  0
   75.6590   46.3000  -32.3270 C   0  0  0  0  0  0  0  0  0  0  0  0
   74.4600   46.2500  -31.6410 C   0  0  0  0  0  0  0  0  0  0  0  0
   77.9290   45.9090  -36.0880 N   0  0  0  0  0  0  0  0  0  0  0  0
   79.2470   46.5080  -35.7860 C   0  0  2  0  0  0  0  0  0  0  0  0
   79.5440   47.6590  -36.7650 C   0  0  0  0  0  0  0  0  0  0  0  0
   79.8970   48.7750  -36.3510 O   0  0  0  0  0  0  0  0  0  0  0  0
   80.3950   45.4020  -35.7380 C   0  0  2  0  0  0  0  0  0  0  0  0
   81.6840   45.9900  -35.5030 O   0  0  0  0  0  0  0  0  0  0  0  0
   80.4480   44.5820  -37.0110 C   0  0  0  0  0  0  0  0  0  0  0  0
   79.3140   47.3910  -38.0530 N   0  0  0  0  0  0  0  0  0  0  0  0
   79.6030   48.3410  -39.1240 C   0  0  2  0  0  0  0  0  0  0  0  0
   78.5770   49.4590  -39.2400 C   0  0  0  0  0  0  0  0  0  0  0  0
   78.9100   50.6100  -38.9630 O   0  0  0  0  0  0  0  0  0  0  0  0
   79.7520   47.6050  -40.4560 C   0  0  0  0  0  0  0  0  0  0  0  0
   81.2230   47.2930  -40.7170 C   0  0  0  0  0  0  0  0  0  0  0  0
   81.3460   46.2190  -41.7700 C   0  0  0  0  0  0  0  0  0  0  0  0
   82.0020   48.5640  -41.1100 C   0  0  0  0  0  0  0  0  0  0  0  0
   77.3520   49.1140  -39.6560 N   0  0  0  0  0  0  0  0  0  0  0  0
   76.2010   50.0460  -39.6960 C   0  0  2  0  0  0  0  0  0  0  0  0
   76.3530   51.1620  -38.6660 C   0  0  0  0  0  0  0  0  0  0  0  0
   76.0280   52.3260  -38.9230 O   0  0  0  0  0  0  0  0  0  0  0  0
   74.8830   49.3170  -39.3760 C   0  0  0  0  0  0  0  0  0  0  0  0
   74.5750   48.0530  -40.1790 C   0  0  0  0  0  0  0  0  0  0  0  0
   73.4410   47.2520  -39.5360 C   0  0  0  0  0  0  0  0  0  0  0  0
   73.3730   45.8340  -40.0850 C   0  0  0  0  0  0  0  0  0  0  0  0
   72.6980   44.8980  -39.1470 N   0  3  0  0  0  0  0  0  0  0  0  0
   76.8310   50.7550  -37.4900 N   0  0  0  0  0  0  0  0  0  0  0  0
   77.0380   51.6130  -36.3270 C   0  0  2  0  0  0  0  0  0  0  0  0
   78.3480   52.4190  -36.3510 C   0  0  0  0  0  0  0  0  0  0  0  0
   78.3440   53.6390  -36.0720 O   0  0  0  0  0  0  0  0  0  0  0  0
   77.0350   50.7400  -35.0730 C   0  0  0  0  0  0  0  0  0  0  0  0
   75.8240   50.9060  -34.2100 C   0  0  0  0  0  0  0  0  0  0  0  0
   75.4840   52.1650  -33.7060 C   0  0  0  0  0  0  0  0  0  0  0  0
   75.0660   49.7960  -33.8430 C   0  0  0  0  0  0  0  0  0  0  0  0
   74.3830   52.3270  -32.8660 C   0  0  0  0  0  0  0  0  0  0  0  0
   73.9620   49.9310  -33.0080 C   0  0  0  0  0  0  0  0  0  0  0  0
   73.6160   51.2080  -32.5110 C   0  0  0  0  0  0  0  0  0  0  0  0
   79.4650   51.7360  -36.6400 N   0  0  0  0  0  0  0  0  0  0  0  0
   80.7550   52.4240  -36.8010 C   0  0  2  0  0  0  0  0  0  0  0  0
   80.5640   53.5740  -37.7740 C   0  0  0  0  0  0  0  0  0  0  0  0
   80.8650   54.7290  -37.4490 O   0  0  0  0  0  0  0  0  0  0  0  0
   81.8600   51.4930  -37.3110 C   0  0  0  0  0  0  0  0  0  0  0  0
   83.2290   52.1690  -37.3820 C   0  0  0  0  0  0  0  0  0  0  0  0
   83.5740   53.4110  -36.9010 C   0  0  0  0  0  0  0  0  0  0  0  0
   84.4280   51.6150  -37.9290 C   0  0  0  0  0  0  0  0  0  0  0  0
   84.9000   53.6620  -37.1390 N   0  0  0  0  0  0  0  0  0  0  0  0
   85.4490   52.5730  -37.7620 C   0  0  0  0  0  0  0  0  0  0  0  0
   84.7390   50.4040  -38.5520 C   0  0  0  0  0  0  0  0  0  0  0  0
   86.7570   52.3510  -38.1940 C   0  0  0  0  0  0  0  0  0  0  0  0
   86.0400   50.1880  -38.9810 C   0  0  0  0  0  0  0  0  0  0  0  0
   87.0300   51.1540  -38.8000 C   0  0  0  0  0  0  0  0  0  0  0  0
   80.0240   53.2500  -38.9470 N   0  0  0  0  0  0  0  0  0  0  0  0
   79.5690   54.2550  -39.8950 C   0  0  2  0  0  0  0  0  0  0  0  0
   78.5150   55.1730  -39.2430 C   0  0  0  0  0  0  0  0  0  0  0  0
   77.4220   55.3490  -39.7750 O   0  0  0  0  0  0  0  0  0  0  0  0
   78.9950   53.5920  -41.1590 C   0  0  0  0  0  0  0  0  0  0  0  0
   79.9630   52.6170  -41.8090 C   0  0  0  0  0  0  0  0  0  0  0  0
   81.0310   52.3510  -41.2230 O   0  5  0  0  0  0  0  0  0  0  0  0
   79.6480   52.1050  -42.9040 O   0  0  0  0  0  0  0  0  0  0  0  0
   78.8300   55.6900  -38.0530 N   0  0  0  0  0  0  0  0  0  0  0  0
   78.2720   56.9460  -37.5450 C   0  0  2  0  0  0  0  0  0  0  0  0
   79.4070   57.8470  -36.9840 C   0  0  0  0  0  0  0  0  0  0  0  0
   79.1660   59.0020  -36.6240 O   0  0  0  0  0  0  0  0  0  0  0  0
   77.1510   56.7030  -36.4760 C   0  0  2  0  0  0  0  0  0  0  0  0
   75.9700   55.9700  -37.1020 C   0  0  0  0  0  0  0  0  0  0  0  0
   76.6420   58.0320  -35.8600 C   0  0  0  0  0  0  0  0  0  0  0  0
   74.6920   55.9650  -36.2410 C   0  0  0  0  0  0  0  0  0  0  0  0
   80.6470   57.3490  -36.9610 N   0  0  0  0  0  0  0  0  0  0  0  0
   81.7260   58.0100  -36.2220 C   0  0  2  0  0  0  0  0  0  0  0  0
   83.0300   58.1490  -37.0090 C   0  0  0  0  0  0  0  0  0  0  0  0
   84.0060   57.4070  -36.8220 O   0  0  0  0  0  0  0  0  0  0  0  0
   81.9740   57.2470  -34.9300 C   0  0  0  0  0  0  0  0  0  0  0  0
   80.7570   57.1240  -34.0660 C   0  0  0  0  0  0  0  0  0  0  0  0
   80.4720   58.0890  -33.1000 C   0  0  0  0  0  0  0  0  0  0  0  0
   79.8900   56.0510  -34.2220 C   0  0  0  0  0  0  0  0  0  0  0  0
   79.3500   57.9800  -32.2950 C   0  0  0  0  0  0  0  0  0  0  0  0
   78.7670   55.9350  -33.4230 C   0  0  0  0  0  0  0  0  0  0  0  0
   78.4940   56.9070  -32.4560 C   0  0  0  0  0  0  0  0  0  0  0  0
   83.1209   59.1036  -37.9306 O   0  0  0  0  0  0  0  0  0  0  0  0
   77.3044   41.0444  -36.1298 H   0  0  0  0  0  0  0  0  0  0  0  0
   77.2741   42.6177  -35.6469 H   0  0  0  0  0  0  0  0  0  0  0  0
   77.7502   42.2349  -37.1754 H   0  0  0  0  0  0  0  0  0  0  0  0
   75.5734   41.4356  -37.7520 H   0  0  0  0  0  0  0  0  0  0  0  0
   73.7077   41.7859  -36.1647 H   0  0  0  0  0  0  0  0  0  0  0  0
   74.8730   42.3572  -34.9228 H   0  0  0  0  0  0  0  0  0  0  0  0
   74.7491   39.0680  -33.6884 H   0  0  0  0  0  0  0  0  0  0  0  0
   74.2856   40.7218  -33.4648 H   0  0  0  0  0  0  0  0  0  0  0  0
   75.8165   44.2037  -35.4887 H   0  0  0  0  0  0  0  0  0  0  0  0
   75.2939   45.9613  -37.8209 H   0  0  0  0  0  0  0  0  0  0  0  0
   73.4693   46.2417  -36.3251 H   0  0  0  0  0  0  0  0  0  0  0  0
   74.5071   47.7029  -36.2040 H   0  0  0  0  0  0  0  0  0  0  0  0
   72.3407   46.4865  -34.2596 H   0  0  0  0  0  0  0  0  0  0  0  0
   76.6158   46.4694  -34.2435 H   0  0  0  0  0  0  0  0  0  0  0  0
   72.3291   46.2766  -31.8036 H   0  0  0  0  0  0  0  0  0  0  0  0
   76.5950   46.2466  -31.7829 H   0  0  0  0  0  0  0  0  0  0  0  0
   74.4540   46.1601  -30.5607 H   0  0  0  0  0  0  0  0  0  0  0  0
   77.7933   44.9355  -35.9039 H   0  0  0  0  0  0  0  0  0  0  0  0
   79.1868   46.9478  -34.7795 H   0  0  0  0  0  0  0  0  0  0  0  0
   80.1692   44.7229  -34.9026 H   0  0  0  0  0  0  0  0  0  0  0  0
   81.6551   46.5052  -34.7054 H   0  0  0  0  0  0  0  0  0  0  0  0
   81.2515   43.8349  -36.9327 H   0  0  0  0  0  0  0  0  0  0  0  0
   80.6459   45.2449  -37.8662 H   0  0  0  0  0  0  0  0  0  0  0  0
   79.4852   44.0709  -37.1583 H   0  0  0  0  0  0  0  0  0  0  0  0
   78.9271   46.5011  -38.2946 H   0  0  0  0  0  0  0  0  0  0  0  0
   80.5694   48.8114  -38.8899 H   0  0  0  0  0  0  0  0  0  0  0  0
   79.3642   48.2381  -41.2676 H   0  0  0  0  0  0  0  0  0  0  0  0
   79.1812   46.6654  -40.4191 H   0  0  0  0  0  0  0  0  0  0  0  0
   81.6602   46.9063  -39.7846 H   0  0  0  0  0  0  0  0  0  0  0  0
   82.4093   46.0022  -41.9501 H   0  0  0  0  0  0  0  0  0  0  0  0
   80.8793   46.5658  -42.7037 H   0  0  0  0  0  0  0  0  0  0  0  0
   80.8392   45.3062  -41.4237 H   0  0  0  0  0  0  0  0  0  0  0  0
   81.8892   49.3219  -40.3208 H   0  0  0  0  0  0  0  0  0  0  0  0
   81.6055   48.9590  -42.0570 H   0  0  0  0  0  0  0  0  0  0  0  0
   83.0671   48.3181  -41.2326 H   0  0  0  0  0  0  0  0  0  0  0  0
   77.2053   48.1719  -39.9574 H   0  0  0  0  0  0  0  0  0  0  0  0
   76.1410   50.4846  -40.7030 H   0  0  0  0  0  0  0  0  0  0  0  0
   74.0609   50.0274  -39.5477 H   0  0  0  0  0  0  0  0  0  0  0  0
   74.9090   49.0362  -38.3128 H   0  0  0  0  0  0  0  0  0  0  0  0
   75.4778   47.4260  -40.2216 H   0  0  0  0  0  0  0  0  0  0  0  0
   74.2787   48.3391  -41.1990 H   0  0  0  0  0  0  0  0  0  0  0  0
   72.4863   47.7592  -39.7391 H   0  0  0  0  0  0  0  0  0  0  0  0
   73.6080   47.2062  -38.4497 H   0  0  0  0  0  0  0  0  0  0  0  0
   74.3969   45.4755  -40.2669 H   0  0  0  0  0  0  0  0  0  0  0  0
   72.8155   45.8480  -41.0331 H   0  0  0  0  0  0  0  0  0  0  0  0
   72.6764   43.9748  -39.5511 H   0  0  0  0  0  0  0  0  0  0  0  0
   71.7555   45.2130  -38.9782 H   0  0  0  0  0  0  0  0  0  0  0  0
   73.2046   44.8717  -38.2760 H   0  0  0  0  0  0  0  0  0  0  0  0
   77.0659   49.7874  -37.3973 H   0  0  0  0  0  0  0  0  0  0  0  0
   76.2008   52.3247  -36.2761 H   0  0  0  0  0  0  0  0  0  0  0  0
   77.9221   50.9940  -34.4742 H   0  0  0  0  0  0  0  0  0  0  0  0
   77.0931   49.6871  -35.3861 H   0  0  0  0  0  0  0  0  0  0  0  0
   76.0847   53.0272  -33.9720 H   0  0  0  0  0  0  0  0  0  0  0  0
   75.3403   48.8147  -34.2130 H   0  0  0  0  0  0  0  0  0  0  0  0
   74.1221   53.3098  -32.4905 H   0  0  0  0  0  0  0  0  0  0  0  0
   73.3709   49.0627  -32.7402 H   0  0  0  0  0  0  0  0  0  0  0  0
   72.7594   51.3222  -31.8566 H   0  0  0  0  0  0  0  0  0  0  0  0
   79.4203   50.7428  -36.7478 H   0  0  0  0  0  0  0  0  0  0  0  0
   81.0636   52.8244  -35.8241 H   0  0  0  0  0  0  0  0  0  0  0  0
   81.5882   51.1465  -38.3190 H   0  0  0  0  0  0  0  0  0  0  0  0
   81.9308   50.6296  -36.6331 H   0  0  0  0  0  0  0  0  0  0  0  0
   82.8907   54.0968  -36.4023 H   0  0  0  0  0  0  0  0  0  0  0  0
   85.4010   54.5269  -36.8904 H   0  0  0  0  0  0  0  0  0  0  0  0
   83.9771   49.6467  -38.6975 H   0  0  0  0  0  0  0  0  0  0  0  0
   87.5291   53.0991  -38.0549 H   0  0  0  0  0  0  0  0  0  0  0  0
   86.2921   49.2517  -39.4657 H   0  0  0  0  0  0  0  0  0  0  0  0
   88.0372   50.9526  -39.1466 H   0  0  0  0  0  0  0  0  0  0  0  0
   79.9280   52.2833  -39.1843 H   0  0  0  0  0  0  0  0  0  0  0  0
   80.4322   54.8705  -40.1882 H   0  0  0  0  0  0  0  0  0  0  0  0
   78.7486   54.3791  -41.8868 H   0  0  0  0  0  0  0  0  0  0  0  0
   78.0799   53.0469  -40.8844 H   0  0  0  0  0  0  0  0  0  0  0  0
   79.4809   55.1940  -37.4783 H   0  0  0  0  0  0  0  0  0  0  0  0
   77.8106   57.4741  -38.3925 H   0  0  0  0  0  0  0  0  0  0  0  0
   77.5705   56.0812  -35.6714 H   0  0  0  0  0  0  0  0  0  0  0  0
   76.2685   54.9263  -37.2798 H   0  0  0  0  0  0  0  0  0  0  0  0
   75.7355   56.4530  -38.0620 H   0  0  0  0  0  0  0  0  0  0  0  0
   77.4853   58.5716  -35.4043 H   0  0  0  0  0  0  0  0  0  0  0  0
   75.8873   57.8139  -35.0901 H   0  0  0  0  0  0  0  0  0  0  0  0
   76.1925   58.6532  -36.6486 H   0  0  0  0  0  0  0  0  0  0  0  0
   73.8969   55.4174  -36.7682 H   0  0  0  0  0  0  0  0  0  0  0  0
   74.3669   57.0004  -36.0612 H   0  0  0  0  0  0  0  0  0  0  0  0
   74.8998   55.4737  -35.2790 H   0  0  0  0  0  0  0  0  0  0  0  0
   80.8432   56.5050  -37.4601 H   0  0  0  0  0  0  0  0  0  0  0  0
   81.3846   59.0244  -35.9683 H   0  0  0  0  0  0  0  0  0  0  0  0
   82.7542   57.7723  -34.3597 H   0  0  0  0  0  0  0  0  0  0  0  0
   82.3239   56.2357  -35.1845 H   0  0  0  0  0  0  0  0  0  0  0  0
   81.1376   58.9358  -32.9776 H   0  0  0  0  0  0  0  0  0  0  0  0
   80.0946   55.2988  -34.9753 H   0  0  0  0  0  0  0  0  0  0  0  0
   79.1444   58.7326  -31.5424 H   0  0  0  0  0  0  0  0  0  0  0  0
   78.0987   55.0905  -33.5466 H   0  0  0  0  0  0  0  0  0  0  0  0
   77.6114   56.8191  -31.8328 H   0  0  0  0  0  0  0  0  0  0  0  0
   83.8322   59.6921  -37.7063 H   0  0  0  0  0  0  0  0  0  0  0  0
  1 97  1  0  0  0  0
  1 98  1  0  0  0  0
  1 99  1  0  0  0  0
  2  1  1  0  0  0  0
  2  5  1  0  0  0  0
  2100  1  6  0  0  0
  3  2  1  0  0  0  0
  3  4  2  0  0  0  0
  5  6  1  0  0  0  0
  5101  1  0  0  0  0
  5102  1  0  0  0  0
  6  8  1  0  0  0  0
  6  7  2  0  0  0  0
  8103  1  0  0  0  0
  8104  1  0  0  0  0
  9  3  1  0  0  0  0
  9105  1  0  0  0  0
 10  9  1  0  0  0  0
 10 13  1  0  0  0  0
 10106  1  6  0  0  0
 11 10  1  0  0  0  0
 11 12  2  0  0  0  0
 13 14  1  0  0  0  0
 13107  1  0  0  0  0
 13108  1  0  0  0  0
 14 15  2  0  0  0  0
 14 16  1  0  0  0  0
 15 17  1  0  0  0  0
 15109  1  0  0  0  0
 16 18  2  0  0  0  0
 16110  1  0  0  0  0
 17 19  2  0  0  0  0
 17111  1  0  0  0  0
 18 19  1  0  0  0  0
 18112  1  0  0  0  0
 19113  1  0  0  0  0
 20 11  1  0  0  0  0
 20114  1  0  0  0  0
 21 20  1  0  0  0  0
 21 24  1  0  0  0  0
 21115  1  1  0  0  0
 22 21  1  0  0  0  0
 22 23  2  0  0  0  0
 24 26  1  0  0  0  0
 24 25  1  0  0  0  0
 24116  1  1  0  0  0
 25117  1  0  0  0  0
 26118  1  0  0  0  0
 26119  1  0  0  0  0
 26120  1  0  0  0  0
 27 22  1  0  0  0  0
 27121  1  0  0  0  0
 28 27  1  0  0  0  0
 28 31  1  0  0  0  0
 28122  1  1  0  0  0
 29 28  1  0  0  0  0
 29 30  2  0  0  0  0
 31 32  1  0  0  0  0
 31123  1  0  0  0  0
 31124  1  0  0  0  0
 32 33  1  0  0  0  0
 32 34  1  0  0  0  0
 32125  1  0  0  0  0
 33126  1  0  0  0  0
 33127  1  0  0  0  0
 33128  1  0  0  0  0
 34129  1  0  0  0  0
 34130  1  0  0  0  0
 34131  1  0  0  0  0
 35 29  1  0  0  0  0
 35132  1  0  0  0  0
 36 35  1  0  0  0  0
 36 39  1  0  0  0  0
 36133  1  6  0  0  0
 37 36  1  0  0  0  0
 37 38  2  0  0  0  0
 39 40  1  0  0  0  0
 39134  1  0  0  0  0
 39135  1  0  0  0  0
 40 41  1  0  0  0  0
 40136  1  0  0  0  0
 40137  1  0  0  0  0
 41 42  1  0  0  0  0
 41138  1  0  0  0  0
 41139  1  0  0  0  0
 42 43  1  0  0  0  0
 42140  1  0  0  0  0
 42141  1  0  0  0  0
 43142  1  0  0  0  0
 43143  1  0  0  0  0
 43144  1  0  0  0  0
 44 37  1  0  0  0  0
 44145  1  0  0  0  0
 45 44  1  0  0  0  0
 45 48  1  0  0  0  0
 45146  1  1  0  0  0
 46 45  1  0  0  0  0
 46 47  2  0  0  0  0
 48 49  1  0  0  0  0
 48147  1  0  0  0  0
 48148  1  0  0  0  0
 49 50  2  0  0  0  0
 49 51  1  0  0  0  0
 50 52  1  0  0  0  0
 50149  1  0  0  0  0
 51 53  2  0  0  0  0
 51150  1  0  0  0  0
 52 54  2  0  0  0  0
 52151  1  0  0  0  0
 53 54  1  0  0  0  0
 53152  1  0  0  0  0
 54153  1  0  0  0  0
 55 46  1  0  0  0  0
 55154  1  0  0  0  0
 56 55  1  0  0  0  0
 56 59  1  0  0  0  0
 56155  1  1  0  0  0
 57 56  1  0  0  0  0
 57 58  2  0  0  0  0
 59 60  1  0  0  0  0
 59156  1  0  0  0  0
 59157  1  0  0  0  0
 60 61  2  0  0  0  0
 60 62  1  0  0  0  0
 61 63  1  0  0  0  0
 61158  1  0  0  0  0
 62 65  2  0  0  0  0
 62 64  1  0  0  0  0
 63159  1  0  0  0  0
 64 66  2  0  0  0  0
 64 63  1  0  0  0  0
 65 67  1  0  0  0  0
 65160  1  0  0  0  0
 66 68  1  0  0  0  0
 66161  1  0  0  0  0
 67 68  2  0  0  0  0
 67162  1  0  0  0  0
 68163  1  0  0  0  0
 69 57  1  0  0  0  0
 69164  1  0  0  0  0
 70 69  1  0  0  0  0
 70 73  1  0  0  0  0
 70165  1  6  0  0  0
 71 70  1  0  0  0  0
 71 72  2  0  0  0  0
 73 74  1  0  0  0  0
 73166  1  0  0  0  0
 73167  1  0  0  0  0
 74 75  1  0  0  0  0
 74 76  2  0  0  0  0
 77 71  1  0  0  0  0
 77168  1  0  0  0  0
 78 77  1  0  0  0  0
 78 81  1  0  0  0  0
 78169  1  6  0  0  0
 79 78  1  0  0  0  0
 79 80  2  0  0  0  0
 79 85  1  0  0  0  0
 81 83  1  0  0  0  0
 81 82  1  0  0  0  0
 81170  1  1  0  0  0
 82 84  1  0  0  0  0
 82171  1  0  0  0  0
 82172  1  0  0  0  0
 83173  1  0  0  0  0
 83174  1  0  0  0  0
 83175  1  0  0  0  0
 84176  1  0  0  0  0
 84177  1  0  0  0  0
 84178  1  0  0  0  0
 85 86  1  0  0  0  0
 85179  1  0  0  0  0
 86 89  1  0  0  0  0
 86 87  1  0  0  0  0
 86180  1  1  0  0  0
 87 88  2  0  0  0  0
 87 96  1  0  0  0  0
 89 90  1  0  0  0  0
 89181  1  0  0  0  0
 89182  1  0  0  0  0
 90 91  2  0  0  0  0
 90 92  1  0  0  0  0
 91 93  1  0  0  0  0
 91183  1  0  0  0  0
 92 94  2  0  0  0  0
 92184  1  0  0  0  0
 93 95  2  0  0  0  0
 93185  1  0  0  0  0
 94 95  1  0  0  0  0
 94186  1  0  0  0  0
 95187  1  0  0  0  0
 96188  1  0  0  0  0
M  CHG  3   1   1  43   1  75  -1
M  END
