2pvn_ligand
 OpenBabel08222323343D

 45 48  0  0  0  0  0  0  0  0999 V2000
   19.9640    9.4690   20.1230 N   0  0  0  0  0  0  0  0  0  0  0  0
   20.2290    9.7760   18.8260 C   0  0  0  0  0  0  0  0  0  0  0  0
   21.2050    8.8890   18.3320 C   0  0  0  0  0  0  0  0  0  0  0  0
   21.5130    8.0160   19.4430 C   0  0  0  0  0  0  0  0  0  0  0  0
   20.7400    8.4130   20.4930 N   0  0  0  0  0  0  0  0  0  0  0  0
   22.3460    6.9740   19.6120 N   0  0  0  0  0  0  0  0  0  0  0  0
   22.3820    6.3670   20.7930 C   0  0  0  0  0  0  0  0  0  0  0  0
   21.6300    6.7470   21.8220 N   0  0  0  0  0  0  0  0  0  0  0  0
   20.8180    7.7860   21.6460 C   0  0  0  0  0  0  0  0  0  0  0  0
   20.0670    8.3110   22.6410 N   0  0  0  0  0  0  0  0  0  0  0  0
   20.1080    7.9500   23.9510 C   0  0  0  0  0  0  0  0  0  0  0  0
   19.7570    8.9250   24.8880 C   0  0  0  0  0  0  0  0  0  0  0  0
   19.5390    8.5230   26.2070 C   0  0  0  0  0  0  0  0  0  0  0  0
   19.6980    7.1900   26.6020 C   0  0  0  0  0  0  0  0  0  0  0  0
   20.1950    6.2520   25.6930 C   0  0  0  0  0  0  0  0  0  0  0  0
   20.3980    6.6490   24.3700 C   0  0  0  0  0  0  0  0  0  0  0  0
   23.2150    5.3100   21.0060 N   0  0  0  0  0  0  0  0  0  0  0  0
   23.9520    4.5870   20.1190 C   0  0  0  0  0  0  0  0  0  0  0  0
   24.1570    4.9410   18.7870 C   0  0  0  0  0  0  0  0  0  0  0  0
   24.9930    4.2220   17.9350 C   0  0  0  0  0  0  0  0  0  0  0  0
   25.6580    3.1110   18.4400 C   0  0  0  0  0  0  0  0  0  0  0  0
   25.4490    2.7140   19.7580 C   0  0  0  0  0  0  0  0  0  0  0  0
   24.5930    3.4410   20.5850 C   0  0  0  0  0  0  0  0  0  0  0  0
   21.7240    8.8570   16.9970 C   0  0  0  0  0  0  0  0  0  0  0  0
   22.1280    8.9010   15.9110 N   0  0  0  0  0  0  0  0  0  0  0  0
   24.9960    4.4090   16.5910 N   0  0  0  0  0  0  0  0  0  0  0  0
   25.1270    5.5610   15.8950 C   0  0  0  0  0  0  0  0  0  0  0  0
   25.2420    5.5670   14.6750 O   0  0  0  0  0  0  0  0  0  0  0  0
   25.1380    6.8880   16.6530 C   0  0  0  0  0  0  0  0  0  0  0  0
   19.7613   10.5796   18.2591 H   0  0  0  0  0  0  0  0  0  0  0  0
   19.4020    9.0536   22.3819 H   0  0  0  0  0  0  0  0  0  0  0  0
   19.6567    9.9649   24.5988 H   0  0  0  0  0  0  0  0  0  0  0  0
   19.2395    9.2608   26.9425 H   0  0  0  0  0  0  0  0  0  0  0  0
   19.4367    6.8861   27.6092 H   0  0  0  0  0  0  0  0  0  0  0  0
   20.4179    5.2390   26.0081 H   0  0  0  0  0  0  0  0  0  0  0  0
   20.7880    5.9344   23.6543 H   0  0  0  0  0  0  0  0  0  0  0  0
   23.3000    5.0126   21.9885 H   0  0  0  0  0  0  0  0  0  0  0  0
   23.6443    5.8128   18.3969 H   0  0  0  0  0  0  0  0  0  0  0  0
   26.3395    2.5535   17.8076 H   0  0  0  0  0  0  0  0  0  0  0  0
   25.9540    1.8356   20.1433 H   0  0  0  0  0  0  0  0  0  0  0  0
   24.4242    3.1102   21.6034 H   0  0  0  0  0  0  0  0  0  0  0  0
   24.8863    3.5818   16.0399 H   0  0  0  0  0  0  0  0  0  0  0  0
   25.2514    7.7171   15.9391 H   0  0  0  0  0  0  0  0  0  0  0  0
   25.9783    6.8979   17.3628 H   0  0  0  0  0  0  0  0  0  0  0  0
   24.1923    7.0042   17.2026 H   0  0  0  0  0  0  0  0  0  0  0  0
  1  2  2  0  0  0  0
  1  5  1  0  0  0  0
  2  3  1  0  0  0  0
  2 30  1  0  0  0  0
  3  4  2  0  0  0  0
  3 24  1  0  0  0  0
  4  5  1  0  0  0  0
  4  6  1  0  0  0  0
  5  9  1  0  0  0  0
  6  7  2  0  0  0  0
  7  8  1  0  0  0  0
  7 17  1  0  0  0  0
  8  9  2  0  0  0  0
  9 10  1  0  0  0  0
 10 11  1  0  0  0  0
 10 31  1  0  0  0  0
 11 12  2  0  0  0  0
 11 16  1  0  0  0  0
 12 13  1  0  0  0  0
 12 32  1  0  0  0  0
 13 14  2  0  0  0  0
 13 33  1  0  0  0  0
 14 15  1  0  0  0  0
 14 34  1  0  0  0  0
 15 16  2  0  0  0  0
 15 35  1  0  0  0  0
 16 36  1  0  0  0  0
 17 18  1  0  0  0  0
 17 37  1  0  0  0  0
 18 19  2  0  0  0  0
 18 23  1  0  0  0  0
 19 20  1  0  0  0  0
 19 38  1  0  0  0  0
 20 21  2  0  0  0  0
 20 26  1  0  0  0  0
 21 22  1  0  0  0  0
 21 39  1  0  0  0  0
 22 23  2  0  0  0  0
 22 40  1  0  0  0  0
 23 41  1  0  0  0  0
 24 25  3  0  0  0  0
 26 27  1  0  0  0  0
 26 42  1  0  0  0  0
 27 28  2  0  0  0  0
 27 29  1  0  0  0  0
 29 43  1  0  0  0  0
 29 44  1  0  0  0  0
 29 45  1  0  0  0  0
M  END
