2q2y_ligand
 OpenBabel08222323343D

 68 72  0  0  1  0  0  0  0  0999 V2000
   21.9000   16.5170  106.1240 C   0  0  0  0  0  0  0  0  0  0  0  0
   20.6630   16.6840  106.8450 C   0  0  0  0  0  0  0  0  0  0  0  0
   20.3150   15.5360  107.6560 C   0  0  0  0  0  0  0  0  0  0  0  0
   21.1400   14.3930  107.6850 C   0  0  0  0  0  0  0  0  0  0  0  0
   22.3140   14.2460  106.9980 C   0  0  0  0  0  0  0  0  0  0  0  0
   22.6750   15.3540  106.1700 C   0  0  0  0  0  0  0  0  0  0  0  0
   19.1170   15.4520  108.4270 N   0  0  0  0  0  4  0  0  0  0  0  0
   18.5790   16.4330  109.0100 N   0  0  0  0  0  0  0  0  0  0  0  0
   17.6140   16.1840  109.8890 C   0  0  1  0  0  0  0  0  0  0  0  0
   17.4540   14.5950  109.9210 C   0  0  1  0  0  0  0  0  0  0  0  0
   18.4700   14.1970  108.8090 C   0  0  2  0  0  0  0  0  0  0  0  0
   17.6410   14.0660  111.3530 C   0  0  0  0  0  0  0  0  0  0  0  0
   16.8730   17.2660  110.6740 C   0  0  0  0  0  0  0  0  0  0  0  0
   17.4730   18.6260  110.6720 C   0  0  0  0  0  0  0  0  0  0  0  0
   15.7920   17.0400  111.2440 O   0  0  0  0  0  0  0  0  0  0  0  0
   18.6610   14.6870  112.1340 C   0  0  0  0  0  0  0  0  0  0  0  0
   18.9970   14.3450  113.4740 C   0  0  0  0  0  0  0  0  0  0  0  0
   18.2150   13.3290  114.0090 C   0  0  0  0  0  0  0  0  0  0  0  0
   17.1740   12.6650  113.2940 C   0  0  0  0  0  0  0  0  0  0  0  0
   16.8900   13.0590  111.9240 C   0  0  0  0  0  0  0  0  0  0  0  0
   20.7560   13.2880  108.4210 O   0  0  0  0  0  0  0  0  0  0  0  0
   22.3890   17.5020  105.3880 F   0  0  0  0  0  0  0  0  0  0  0  0
   19.6320   13.3380  109.2680 C   0  0  0  0  0  0  0  0  0  0  0  0
   16.0120   14.3640  109.4640 C   0  0  0  0  0  0  0  0  0  0  0  0
   15.6410   14.2560  107.9870 C   0  0  0  0  0  0  0  0  0  0  0  0
   14.3280   15.0800  107.6970 C   0  0  0  0  0  0  0  0  0  0  0  0
   13.9080   15.0860  106.2690 N   0  3  0  0  0  0  0  0  0  0  0  0
   13.9750   16.3670  105.5640 C   0  0  0  0  0  0  0  0  0  0  0  0
   13.1720   14.0160  105.6240 C   0  0  0  0  0  0  0  0  0  0  0  0
   12.5210   16.8970  105.7600 C   0  0  0  0  0  0  0  0  0  0  0  0
   11.6500   14.3800  105.6820 C   0  0  0  0  0  0  0  0  0  0  0  0
   11.4400   15.8630  105.3840 N   0  0  0  0  0  0  0  0  0  0  0  0
   10.3150   16.3480  104.8040 C   0  0  0  0  0  0  0  0  0  0  0  0
    9.6020   15.2390  103.9500 C   0  0  0  0  0  0  0  0  0  0  0  0
    9.9870   17.5290  104.9460 O   0  0  0  0  0  0  0  0  0  0  0  0
   20.0544   17.5791  106.7860 H   0  0  0  0  0  0  0  0  0  0  0  0
   22.9257   13.3545  107.0759 H   0  0  0  0  0  0  0  0  0  0  0  0
   23.5711   15.2911  105.5632 H   0  0  0  0  0  0  0  0  0  0  0  0
   16.8296   16.2685  109.1225 H   0  0  0  0  0  0  0  0  0  0  0  0
   17.9448   13.7175  107.9698 H   0  0  0  0  0  0  0  0  0  0  0  0
   16.8458   19.3043  111.2691 H   0  0  0  0  0  0  0  0  0  0  0  0
   17.5346   18.9981  109.6387 H   0  0  0  0  0  0  0  0  0  0  0  0
   18.4825   18.5821  111.1068 H   0  0  0  0  0  0  0  0  0  0  0  0
   19.2269   15.4855  111.6680 H   0  0  0  0  0  0  0  0  0  0  0  0
   19.7912   14.8331  114.0272 H   0  0  0  0  0  0  0  0  0  0  0  0
   18.4072   13.0223  115.0308 H   0  0  0  0  0  0  0  0  0  0  0  0
   16.6013   11.8756  113.7672 H   0  0  0  0  0  0  0  0  0  0  0  0
   16.1027   12.5707  111.3612 H   0  0  0  0  0  0  0  0  0  0  0  0
   19.2594   12.3100  109.3880 H   0  0  0  0  0  0  0  0  0  0  0  0
   19.9663   13.7230  110.2427 H   0  0  0  0  0  0  0  0  0  0  0  0
   15.4224   15.1993  109.8697 H   0  0  0  0  0  0  0  0  0  0  0  0
   15.6867   13.4237  109.9331 H   0  0  0  0  0  0  0  0  0  0  0  0
   15.4718   13.1998  107.7305 H   0  0  0  0  0  0  0  0  0  0  0  0
   16.4635   14.6548  107.3751 H   0  0  0  0  0  0  0  0  0  0  0  0
   14.4990   16.1207  108.0095 H   0  0  0  0  0  0  0  0  0  0  0  0
   13.5115   14.6473  108.2938 H   0  0  0  0  0  0  0  0  0  0  0  0
   14.8013   14.7555  105.9389 H   0  0  0  0  0  0  0  0  0  0  0  0
   14.2136   16.2291  104.4991 H   0  0  0  0  0  0  0  0  0  0  0  0
   14.7146   17.0406  106.0213 H   0  0  0  0  0  0  0  0  0  0  0  0
   13.3504   13.0677  106.1521 H   0  0  0  0  0  0  0  0  0  0  0  0
   13.4939   13.9187  104.5767 H   0  0  0  0  0  0  0  0  0  0  0  0
   12.3861   17.7883  105.1296 H   0  0  0  0  0  0  0  0  0  0  0  0
   12.3888   17.1719  106.8169 H   0  0  0  0  0  0  0  0  0  0  0  0
   11.2625   14.1548  106.6865 H   0  0  0  0  0  0  0  0  0  0  0  0
   11.1064   13.7811  104.9365 H   0  0  0  0  0  0  0  0  0  0  0  0
    8.6939   15.6570  103.4910 H   0  0  0  0  0  0  0  0  0  0  0  0
    9.3289   14.3947  104.6000 H   0  0  0  0  0  0  0  0  0  0  0  0
   10.2838   14.8888  103.1610 H   0  0  0  0  0  0  0  0  0  0  0  0
  1  2  2  0  0  0  0
  1  6  1  0  0  0  0
  1 22  1  0  0  0  0
  2  3  1  0  0  0  0
  2 36  1  0  0  0  0
  3  4  2  0  0  0  0
  3  7  1  0  0  0  0
  4  5  1  0  0  0  0
  4 21  1  0  0  0  0
  5  6  2  0  0  0  0
  5 37  1  0  0  0  0
  6 38  1  0  0  0  0
  7  8  2  0  0  0  0
  7 11  1  0  0  0  0
  8  9  1  0  0  0  0
  9 10  1  0  0  0  0
  9 13  1  0  0  0  0
  9 39  1  6  0  0  0
 10 11  1  0  0  0  0
 10 12  1  0  0  0  0
 10 24  1  6  0  0  0
 11 23  1  0  0  0  0
 11 40  1  6  0  0  0
 12 16  2  0  0  0  0
 12 20  1  0  0  0  0
 13 14  1  0  0  0  0
 13 15  2  0  0  0  0
 14 41  1  0  0  0  0
 14 42  1  0  0  0  0
 14 43  1  0  0  0  0
 16 17  1  0  0  0  0
 16 44  1  0  0  0  0
 17 18  2  0  0  0  0
 17 45  1  0  0  0  0
 18 19  1  0  0  0  0
 18 46  1  0  0  0  0
 19 20  2  0  0  0  0
 19 47  1  0  0  0  0
 20 48  1  0  0  0  0
 21 23  1  0  0  0  0
 23 49  1  0  0  0  0
 23 50  1  0  0  0  0
 24 25  1  0  0  0  0
 24 51  1  0  0  0  0
 24 52  1  0  0  0  0
 25 26  1  0  0  0  0
 25 53  1  0  0  0  0
 25 54  1  0  0  0  0
 26 27  1  0  0  0  0
 26 55  1  0  0  0  0
 26 56  1  0  0  0  0
 27 28  1  0  0  0  0
 27 29  1  0  0  0  0
 27 57  1  0  0  0  0
 28 30  1  0  0  0  0
 28 58  1  0  0  0  0
 28 59  1  0  0  0  0
 29 31  1  0  0  0  0
 29 60  1  0  0  0  0
 29 61  1  0  0  0  0
 30 32  1  0  0  0  0
 30 62  1  0  0  0  0
 30 63  1  0  0  0  0
 31 32  1  0  0  0  0
 31 64  1  0  0  0  0
 31 65  1  0  0  0  0
 32 33  1  0  0  0  0
 33 34  1  0  0  0  0
 33 35  2  0  0  0  0
 34 66  1  0  0  0  0
 34 67  1  0  0  0  0
 34 68  1  0  0  0  0
M  CHG  1  27   1
M  END
