2q6b_ligand
 OpenBabel08222323343D

 72 75  0  0  1  0  0  0  0  0999 V2000
   32.5800   -7.5890   -2.8380 N   0  0  0  0  0  0  0  0  0  0  0  0
   34.2530   -8.9710   -3.4720 C   0  0  0  0  0  0  0  0  0  0  0  0
   34.7390   -7.8300   -2.8750 C   0  0  0  0  0  0  0  0  0  0  0  0
   34.9740  -10.1610   -4.0570 C   0  0  0  0  0  0  0  0  0  0  0  0
   38.8840   -6.9570   -2.2590 C   0  0  0  0  0  0  0  0  0  0  0  0
   37.0010   -7.2270   -3.7460 C   0  0  0  0  0  0  0  0  0  0  0  0
   31.2110   -7.0300   -2.6180 C   0  0  0  0  0  0  0  0  0  0  0  0
   31.9970   -9.8290   -3.9990 C   0  0  0  0  0  0  0  0  0  0  0  0
   38.3490   -6.9410   -3.5420 C   0  0  0  0  0  0  0  0  0  0  0  0
   31.7070  -11.5610   -5.5210 C   0  0  0  0  0  0  0  0  0  0  0  0
   33.4080   -5.7760   -0.3590 C   0  0  0  0  0  0  0  0  0  0  0  0
   33.5340   -4.4570    0.3940 C   0  0  2  0  0  0  0  0  0  0  0  0
   33.5860   -4.7220    1.8950 C   0  0  0  0  0  0  0  0  0  0  0  0
   34.9420   -5.5240    3.8210 C   0  0  0  0  0  0  0  0  0  0  0  0
   30.3850  -11.5130   -5.9670 C   0  0  0  0  0  0  0  0  0  0  0  0
   40.1880   -6.6770   -2.0840 F   0  0  0  0  0  0  0  0  0  0  0  0
   36.1840   -7.5320   -2.6630 C   0  0  0  0  0  0  0  0  0  0  0  0
   36.7160   -7.5440   -1.3730 C   0  0  0  0  0  0  0  0  0  0  0  0
   38.0680   -7.2590   -1.1700 C   0  0  0  0  0  0  0  0  0  0  0  0
   33.7280   -6.9740   -2.4850 C   0  0  0  0  0  0  0  0  0  0  0  0
   33.8780   -5.6350   -1.7980 C   0  0  0  0  0  0  0  0  0  0  0  0
   32.4080   -3.6450    0.1130 O   0  0  0  0  0  0  0  0  0  0  0  0
   34.9240   -5.3130    2.3140 C   0  0  2  0  0  0  0  0  0  0  0  0
   35.9690   -4.4380    1.9380 O   0  0  0  0  0  0  0  0  0  0  0  0
   36.1180   -6.4010    4.1710 C   0  0  0  0  0  0  0  0  0  0  0  0
   36.1270   -7.6820    3.8050 O   0  5  0  0  0  0  0  0  0  0  0  0
   37.0650   -5.9340    4.7780 O   0  0  0  0  0  0  0  0  0  0  0  0
   30.4680   -6.9740   -3.9470 C   0  0  0  0  0  0  0  0  0  0  0  0
   30.4610   -7.8300   -1.5540 C   0  0  0  0  0  0  0  0  0  0  0  0
   34.7620  -10.2030   -5.5750 C   0  0  0  0  0  0  0  0  0  0  0  0
   33.3480   -9.8740   -6.0740 C   0  0  0  0  0  0  0  0  0  0  0  0
   32.3570  -10.4190   -5.1470 N   0  0  0  0  0  0  0  0  0  0  0  0
   31.1440  -10.3010   -3.2640 O   0  0  0  0  0  0  0  0  0  0  0  0
   32.8810   -8.7700   -3.4280 C   0  0  0  0  0  0  0  0  0  0  0  0
   29.7200  -12.6790   -6.3440 C   0  0  0  0  0  0  0  0  0  0  0  0
   30.3790  -13.9030   -6.2840 C   0  0  0  0  0  0  0  0  0  0  0  0
   31.7010  -13.9550   -5.8460 C   0  0  0  0  0  0  0  0  0  0  0  0
   32.3680  -12.7890   -5.4680 C   0  0  0  0  0  0  0  0  0  0  0  0
   34.5792  -11.0841   -3.6077 H   0  0  0  0  0  0  0  0  0  0  0  0
   36.0494  -10.0787   -3.8408 H   0  0  0  0  0  0  0  0  0  0  0  0
   36.5891   -7.2118   -4.7486 H   0  0  0  0  0  0  0  0  0  0  0  0
   31.3154   -6.0000   -2.2464 H   0  0  0  0  0  0  0  0  0  0  0  0
   38.9841   -6.7047   -4.3881 H   0  0  0  0  0  0  0  0  0  0  0  0
   32.3544   -6.0921   -0.3551 H   0  0  0  0  0  0  0  0  0  0  0  0
   34.0211   -6.5372    0.1456 H   0  0  0  0  0  0  0  0  0  0  0  0
   34.4521   -3.9400    0.0780 H   0  0  0  0  0  0  0  0  0  0  0  0
   32.7853   -5.4278    2.1607 H   0  0  0  0  0  0  0  0  0  0  0  0
   33.4315   -3.7736    2.4304 H   0  0  0  0  0  0  0  0  0  0  0  0
   34.0086   -6.0122    4.1379 H   0  0  0  0  0  0  0  0  0  0  0  0
   35.0393   -4.5536    4.3298 H   0  0  0  0  0  0  0  0  0  0  0  0
   29.8707  -10.5603   -6.0207 H   0  0  0  0  0  0  0  0  0  0  0  0
   36.0788   -7.7749   -0.5270 H   0  0  0  0  0  0  0  0  0  0  0  0
   38.4818   -7.2726   -0.1682 H   0  0  0  0  0  0  0  0  0  0  0  0
   34.9334   -5.3254   -1.8151 H   0  0  0  0  0  0  0  0  0  0  0  0
   33.2664   -4.8816   -2.3160 H   0  0  0  0  0  0  0  0  0  0  0  0
   32.3671   -3.4743   -0.8207 H   0  0  0  0  0  0  0  0  0  0  0  0
   35.0653   -6.2814    1.8119 H   0  0  0  0  0  0  0  0  0  0  0  0
   35.8524   -3.6017    2.3734 H   0  0  0  0  0  0  0  0  0  0  0  0
   29.4604   -6.5628   -3.7867 H   0  0  0  0  0  0  0  0  0  0  0  0
   30.3878   -7.9882   -4.3653 H   0  0  0  0  0  0  0  0  0  0  0  0
   31.0192   -6.3305   -4.6485 H   0  0  0  0  0  0  0  0  0  0  0  0
   29.4587   -7.4000   -1.4107 H   0  0  0  0  0  0  0  0  0  0  0  0
   31.0164   -7.7895   -0.6054 H   0  0  0  0  0  0  0  0  0  0  0  0
   30.3678   -8.8764   -1.8799 H   0  0  0  0  0  0  0  0  0  0  0  0
   35.0116  -11.2171   -5.9203 H   0  0  0  0  0  0  0  0  0  0  0  0
   35.4546   -9.4798   -6.0302 H   0  0  0  0  0  0  0  0  0  0  0  0
   33.1995  -10.3175   -7.0696 H   0  0  0  0  0  0  0  0  0  0  0  0
   33.2276   -8.7824   -6.1371 H   0  0  0  0  0  0  0  0  0  0  0  0
   28.6915  -12.6321   -6.6832 H   0  0  0  0  0  0  0  0  0  0  0  0
   29.8663  -14.8122   -6.5767 H   0  0  0  0  0  0  0  0  0  0  0  0
   32.2150  -14.9082   -5.7986 H   0  0  0  0  0  0  0  0  0  0  0  0
   33.3980  -12.8370   -5.1337 H   0  0  0  0  0  0  0  0  0  0  0  0
  1  7  1  0  0  0  0
  1 34  1  0  0  0  0
  2  4  1  0  0  0  0
  2 34  2  0  0  0  0
  3  2  1  0  0  0  0
  3 17  1  0  0  0  0
  4 30  1  0  0  0  0
  4 39  1  0  0  0  0
  4 40  1  0  0  0  0
  5 16  1  0  0  0  0
  6  9  1  0  0  0  0
  6 41  1  0  0  0  0
  7 28  1  0  0  0  0
  7 29  1  0  0  0  0
  7 42  1  0  0  0  0
  8 32  1  0  0  0  0
  8 33  2  0  0  0  0
  9  5  2  0  0  0  0
  9 43  1  0  0  0  0
 10 15  2  0  0  0  0
 10 38  1  0  0  0  0
 11 12  1  0  0  0  0
 11 44  1  0  0  0  0
 11 45  1  0  0  0  0
 12 13  1  0  0  0  0
 12 22  1  0  0  0  0
 12 46  1  6  0  0  0
 13 23  1  0  0  0  0
 13 47  1  0  0  0  0
 13 48  1  0  0  0  0
 14 25  1  0  0  0  0
 14 49  1  0  0  0  0
 14 50  1  0  0  0  0
 15 35  1  0  0  0  0
 15 51  1  0  0  0  0
 17  6  2  0  0  0  0
 17 18  1  0  0  0  0
 18 19  2  0  0  0  0
 18 52  1  0  0  0  0
 19  5  1  0  0  0  0
 19 53  1  0  0  0  0
 20  1  1  0  0  0  0
 20  3  2  0  0  0  0
 20 21  1  0  0  0  0
 21 11  1  0  0  0  0
 21 54  1  0  0  0  0
 21 55  1  0  0  0  0
 22 56  1  0  0  0  0
 23 14  1  0  0  0  0
 23 24  1  0  0  0  0
 23 57  1  6  0  0  0
 24 58  1  0  0  0  0
 25 26  1  0  0  0  0
 25 27  2  0  0  0  0
 28 59  1  0  0  0  0
 28 60  1  0  0  0  0
 28 61  1  0  0  0  0
 29 62  1  0  0  0  0
 29 63  1  0  0  0  0
 29 64  1  0  0  0  0
 30 31  1  0  0  0  0
 30 65  1  0  0  0  0
 30 66  1  0  0  0  0
 31 32  1  0  0  0  0
 31 67  1  0  0  0  0
 31 68  1  0  0  0  0
 32 10  1  0  0  0  0
 34  8  1  0  0  0  0
 35 36  2  0  0  0  0
 35 69  1  0  0  0  0
 36 37  1  0  0  0  0
 36 70  1  0  0  0  0
 37 38  2  0  0  0  0
 37 71  1  0  0  0  0
 38 72  1  0  0  0  0
M  CHG  1  26  -1
M  END
