2q6c_ligand
 OpenBabel08222323343D

 73 77  0  0  1  0  0  0  0  0999 V2000
   98.9790   -9.0980   16.7000 N   0  0  0  0  0  0  0  0  0  0  0  0
  103.8140  -14.1070   17.6240 C   0  0  0  0  0  0  0  0  0  0  0  0
   98.7830   -8.3170   18.8750 C   0  0  0  0  0  0  0  0  0  0  0  0
   98.8750   -9.2600   15.2140 C   0  0  0  0  0  0  0  0  0  0  0  0
   97.6160   -6.9040   16.9910 C   0  0  0  0  0  0  0  0  0  0  0  0
   96.1280   -7.1460   16.9120 C   0  0  0  0  0  0  0  0  0  0  0  0
   93.9800   -5.9010   16.9520 C   0  0  0  0  0  0  0  0  0  0  0  0
   99.3400   -8.0220   14.4520 C   0  0  0  0  0  0  0  0  0  0  0  0
   98.7570   -5.8870   21.8020 C   0  0  0  0  0  0  0  0  0  0  0  0
  101.0240  -14.1650   17.6110 C   0  0  0  0  0  0  0  0  0  0  0  0
  101.6920  -12.9990   17.9770 C   0  0  0  0  0  0  0  0  0  0  0  0
   97.0520   -7.6440   20.4980 C   0  0  0  0  0  0  0  0  0  0  0  0
  100.7310  -10.6310   22.3260 C   0  0  0  0  0  0  0  0  0  0  0  0
   96.5880   -6.9200   21.5890 C   0  0  0  0  0  0  0  0  0  0  0  0
  103.0890  -12.9710   17.9760 C   0  0  0  0  0  0  0  0  0  0  0  0
  101.4310  -11.7770   21.9820 C   0  0  0  0  0  0  0  0  0  0  0  0
  100.5150  -11.5860   16.1550 O   0  0  0  0  0  0  0  0  0  0  0  0
  100.3900  -11.1480   17.3180 C   0  0  0  0  0  0  0  0  0  0  0  0
   99.6540   -9.9730   17.5010 C   0  0  0  0  0  0  0  0  0  0  0  0
   97.4550   -9.6910   14.8390 C   0  0  0  0  0  0  0  0  0  0  0  0
   99.5600   -9.5470   18.8970 C   0  0  0  0  0  0  0  0  0  0  0  0
  100.2030  -10.2970   20.0010 C   0  0  0  0  0  0  0  0  0  0  0  0
  100.1140   -9.8880   21.3310 C   0  0  0  0  0  0  0  0  0  0  0  0
  100.9010  -11.4470   19.6390 C   0  0  0  0  0  0  0  0  0  0  0  0
  101.5200  -12.1860   20.6570 C   0  0  0  0  0  0  0  0  0  0  0  0
  100.9710  -11.8320   18.3350 N   0  0  0  0  0  0  0  0  0  0  0  0
  103.1440  -15.2730   17.2600 C   0  0  0  0  0  0  0  0  0  0  0  0
  101.7510  -15.2990   17.2540 C   0  0  0  0  0  0  0  0  0  0  0  0
   98.3630   -7.4920   20.0460 C   0  0  0  0  0  0  0  0  0  0  0  0
   97.4420   -6.0420   22.2450 C   0  0  0  0  0  0  0  0  0  0  0  0
   99.2220   -6.6130   20.7010 C   0  0  0  0  0  0  0  0  0  0  0  0
   96.9800   -5.3450   23.3010 F   0  0  0  0  0  0  0  0  0  0  0  0
   98.4120   -8.0940   17.4550 C   0  0  0  0  0  0  0  0  0  0  0  0
   95.4680   -5.7900   16.6850 C   0  0  2  0  0  0  0  0  0  0  0  0
   95.7000   -5.3790   15.3460 O   0  0  0  0  0  0  0  0  0  0  0  0
   93.6880   -5.9130   18.4490 C   0  0  1  0  0  0  0  0  0  0  0  0
   94.0020   -4.6550   19.0290 O   0  0  0  0  0  0  0  0  0  0  0  0
   92.2160   -6.2330   18.6440 C   0  0  0  0  0  0  0  0  0  0  0  0
   91.9660   -6.5690   20.0890 C   0  0  0  0  0  0  0  0  0  0  0  0
   91.3720   -5.7200   20.7850 O   0  5  0  0  0  0  0  0  0  0  0  0
   92.3630   -7.6760   20.5210 O   0  0  0  0  0  0  0  0  0  0  0  0
  104.8977  -14.0839   17.6333 H   0  0  0  0  0  0  0  0  0  0  0  0
   99.5507  -10.0791   14.9268 H   0  0  0  0  0  0  0  0  0  0  0  0
   97.7938   -6.0756   17.6925 H   0  0  0  0  0  0  0  0  0  0  0  0
   97.9727   -6.6198   15.9900 H   0  0  0  0  0  0  0  0  0  0  0  0
   95.7668   -7.5895   17.8516 H   0  0  0  0  0  0  0  0  0  0  0  0
   95.8990   -7.8225   16.0754 H   0  0  0  0  0  0  0  0  0  0  0  0
   93.6038   -6.8333   16.5056 H   0  0  0  0  0  0  0  0  0  0  0  0
   93.4680   -5.0422   16.4934 H   0  0  0  0  0  0  0  0  0  0  0  0
   99.2413   -8.1985   13.3707 H   0  0  0  0  0  0  0  0  0  0  0  0
  100.3927   -7.8156   14.6952 H   0  0  0  0  0  0  0  0  0  0  0  0
   98.7211   -7.1597   14.7407 H   0  0  0  0  0  0  0  0  0  0  0  0
   99.4210   -5.2002   22.3143 H   0  0  0  0  0  0  0  0  0  0  0  0
   99.9403  -14.1904   17.6038 H   0  0  0  0  0  0  0  0  0  0  0  0
   96.3876   -8.3351   19.9920 H   0  0  0  0  0  0  0  0  0  0  0  0
  100.6666  -10.3189   23.3621 H   0  0  0  0  0  0  0  0  0  0  0  0
   95.5649   -7.0394   21.9268 H   0  0  0  0  0  0  0  0  0  0  0  0
  103.6108  -12.0613   18.2503 H   0  0  0  0  0  0  0  0  0  0  0  0
  101.9149  -12.3613   22.7562 H   0  0  0  0  0  0  0  0  0  0  0  0
   97.3837   -9.8086   13.7476 H   0  0  0  0  0  0  0  0  0  0  0  0
   96.7392   -8.9254   15.1728 H   0  0  0  0  0  0  0  0  0  0  0  0
   97.2216  -10.6488   15.3269 H   0  0  0  0  0  0  0  0  0  0  0  0
   99.5631   -8.9902   21.5869 H   0  0  0  0  0  0  0  0  0  0  0  0
  102.0730  -13.0845   20.4082 H   0  0  0  0  0  0  0  0  0  0  0  0
  103.7051  -16.1579   16.9821 H   0  0  0  0  0  0  0  0  0  0  0  0
  101.2299  -16.2062   16.9701 H   0  0  0  0  0  0  0  0  0  0  0  0
  100.2438   -6.4925   20.3598 H   0  0  0  0  0  0  0  0  0  0  0  0
   95.9046   -5.0506   17.3725 H   0  0  0  0  0  0  0  0  0  0  0  0
   96.6354   -5.3139   15.1935 H   0  0  0  0  0  0  0  0  0  0  0  0
   94.2975   -6.6906   18.9326 H   0  0  0  0  0  0  0  0  0  0  0  0
   93.4774   -3.9781   18.6177 H   0  0  0  0  0  0  0  0  0  0  0  0
   91.9403   -7.0918   18.0144 H   0  0  0  0  0  0  0  0  0  0  0  0
   91.6097   -5.3603   18.3598 H   0  0  0  0  0  0  0  0  0  0  0  0
  1  4  1  0  0  0  0
  1 33  1  0  0  0  0
  2 27  1  0  0  0  0
  2 42  1  0  0  0  0
  3 29  1  0  0  0  0
  3 33  2  0  0  0  0
  4  8  1  0  0  0  0
  4 20  1  0  0  0  0
  4 43  1  0  0  0  0
  5  6  1  0  0  0  0
  5 44  1  0  0  0  0
  5 45  1  0  0  0  0
  6 34  1  0  0  0  0
  6 46  1  0  0  0  0
  6 47  1  0  0  0  0
  7 36  1  0  0  0  0
  7 48  1  0  0  0  0
  7 49  1  0  0  0  0
  8 50  1  0  0  0  0
  8 51  1  0  0  0  0
  8 52  1  0  0  0  0
  9 31  1  0  0  0  0
  9 53  1  0  0  0  0
 10 28  1  0  0  0  0
 10 54  1  0  0  0  0
 11 10  2  0  0  0  0
 11 15  1  0  0  0  0
 12 14  2  0  0  0  0
 12 55  1  0  0  0  0
 13 16  2  0  0  0  0
 13 56  1  0  0  0  0
 14 30  1  0  0  0  0
 14 57  1  0  0  0  0
 15  2  2  0  0  0  0
 15 58  1  0  0  0  0
 16 25  1  0  0  0  0
 16 59  1  0  0  0  0
 18 17  2  0  0  0  0
 18 26  1  0  0  0  0
 19  1  1  0  0  0  0
 19 18  1  0  0  0  0
 20 60  1  0  0  0  0
 20 61  1  0  0  0  0
 20 62  1  0  0  0  0
 21  3  1  0  0  0  0
 21 19  2  0  0  0  0
 22 21  1  0  0  0  0
 22 23  2  0  0  0  0
 22 24  1  0  0  0  0
 23 13  1  0  0  0  0
 23 63  1  0  0  0  0
 24 25  2  0  0  0  0
 24 26  1  0  0  0  0
 25 64  1  0  0  0  0
 26 11  1  0  0  0  0
 27 28  2  0  0  0  0
 27 65  1  0  0  0  0
 28 66  1  0  0  0  0
 29 12  1  0  0  0  0
 29 31  2  0  0  0  0
 30  9  2  0  0  0  0
 30 32  1  0  0  0  0
 31 67  1  0  0  0  0
 33  5  1  0  0  0  0
 34  7  1  0  0  0  0
 34 35  1  0  0  0  0
 34 68  1  1  0  0  0
 35 69  1  0  0  0  0
 36 37  1  0  0  0  0
 36 38  1  0  0  0  0
 36 70  1  1  0  0  0
 37 71  1  0  0  0  0
 38 39  1  0  0  0  0
 38 72  1  0  0  0  0
 38 73  1  0  0  0  0
 39 40  1  0  0  0  0
 39 41  2  0  0  0  0
M  CHG  1  40  -1
M  END
