2q70_ligand
 OpenBabel08222323343D

 39 42  0  0  1  0  0  0  0  0999 V2000
   12.2810   50.2890   59.1620 C   0  0  0  0  0  0  0  0  0  0  0  0
   10.5620   51.6960   59.9340 C   0  0  1  0  0  0  0  0  0  0  0  0
   11.4110   52.1380   61.1760 C   0  0  1  0  0  0  0  0  0  0  0  0
   11.2730   51.1800   62.3790 C   0  0  0  0  0  0  0  0  0  0  0  0
   12.9320   52.1570   60.8180 C   0  0  2  0  0  0  0  0  0  0  0  0
   13.2840   51.0830   59.7740 C   0  0  0  0  0  0  0  0  0  0  0  0
    8.3050   50.5220   60.0900 C   0  0  0  0  0  0  0  0  0  0  0  0
    6.9350   50.5270   60.3570 C   0  0  0  0  0  0  0  0  0  0  0  0
    6.3100   51.7130   60.7780 C   0  0  0  0  0  0  0  0  0  0  0  0
    7.0620   52.9010   60.9240 C   0  0  0  0  0  0  0  0  0  0  0  0
   14.9850   49.9060   58.4410 C   0  0  0  0  0  0  0  0  0  0  0  0
   13.9750   49.1260   57.8400 C   0  0  0  0  0  0  0  0  0  0  0  0
   12.6390   49.3120   58.1980 C   0  0  0  0  0  0  0  0  0  0  0  0
   10.9470   50.3950   59.4550 O   0  0  0  0  0  0  0  0  0  0  0  0
   12.5430   51.4310   63.1950 C   0  0  0  0  0  0  0  0  0  0  0  0
   12.3120   52.4470   64.1220 F   0  0  0  0  0  0  0  0  0  0  0  0
   12.9280   50.2730   63.8650 F   0  0  0  0  0  0  0  0  0  0  0  0
   13.6470   51.8440   62.1880 C   0  0  0  0  0  0  0  0  0  0  0  0
   14.6420   50.8900   59.4060 C   0  0  0  0  0  0  0  0  0  0  0  0
    9.0630   51.7050   60.2350 C   0  0  0  0  0  0  0  0  0  0  0  0
    4.9970   51.7140   61.0400 O   0  0  0  0  0  0  0  0  0  0  0  0
    8.4330   52.8970   60.6540 C   0  0  0  0  0  0  0  0  0  0  0  0
   16.2800   49.7080   58.0850 O   0  0  0  0  0  0  0  0  0  0  0  0
   10.7505   52.4226   59.1299 H   0  0  0  0  0  0  0  0  0  0  0  0
   11.0865   53.1453   61.4761 H   0  0  0  0  0  0  0  0  0  0  0  0
   11.2239   50.1338   62.0429 H   0  0  0  0  0  0  0  0  0  0  0  0
   10.3754   51.4183   62.9684 H   0  0  0  0  0  0  0  0  0  0  0  0
   13.2281   53.1458   60.4378 H   0  0  0  0  0  0  0  0  0  0  0  0
    8.7892   49.6065   59.7700 H   0  0  0  0  0  0  0  0  0  0  0  0
    6.3550   49.6187   60.2399 H   0  0  0  0  0  0  0  0  0  0  0  0
    6.5753   53.8148   61.2453 H   0  0  0  0  0  0  0  0  0  0  0  0
   14.2372   48.3803   57.0982 H   0  0  0  0  0  0  0  0  0  0  0  0
   11.8689   48.7051   57.7358 H   0  0  0  0  0  0  0  0  0  0  0  0
   14.1737   52.7386   62.5517 H   0  0  0  0  0  0  0  0  0  0  0  0
   14.3664   51.0220   62.0589 H   0  0  0  0  0  0  0  0  0  0  0  0
   15.4177   51.4944   59.8622 H   0  0  0  0  0  0  0  0  0  0  0  0
    4.8561   51.9653   61.9452 H   0  0  0  0  0  0  0  0  0  0  0  0
    9.0115   53.8069   60.7660 H   0  0  0  0  0  0  0  0  0  0  0  0
   16.7829   49.4566   58.8507 H   0  0  0  0  0  0  0  0  0  0  0  0
  1 13  1  0  0  0  0
  1 14  1  0  0  0  0
  2 20  1  0  0  0  0
  2 24  1  6  0  0  0
  3  2  1  0  0  0  0
  3  4  1  0  0  0  0
  3 25  1  1  0  0  0
  4 15  1  0  0  0  0
  4 26  1  0  0  0  0
  4 27  1  0  0  0  0
  5  3  1  0  0  0  0
  5 18  1  0  0  0  0
  5 28  1  6  0  0  0
  6  1  2  0  0  0  0
  6  5  1  0  0  0  0
  7  8  2  0  0  0  0
  7 29  1  0  0  0  0
  8  9  1  0  0  0  0
  8 30  1  0  0  0  0
  9 10  2  0  0  0  0
  9 21  1  0  0  0  0
 10 22  1  0  0  0  0
 10 31  1  0  0  0  0
 11 12  1  0  0  0  0
 11 19  2  0  0  0  0
 11 23  1  0  0  0  0
 12 13  2  0  0  0  0
 12 32  1  0  0  0  0
 13 33  1  0  0  0  0
 14  2  1  0  0  0  0
 15 16  1  0  0  0  0
 15 17  1  0  0  0  0
 15 18  1  0  0  0  0
 18 34  1  0  0  0  0
 18 35  1  0  0  0  0
 19  6  1  0  0  0  0
 19 36  1  0  0  0  0
 20  7  1  0  0  0  0
 20 22  2  0  0  0  0
 21 37  1  0  0  0  0
 22 38  1  0  0  0  0
 23 39  1  0  0  0  0
M  END
