2q72_ligand
 OpenBabel08222323343D

 46 48  0  0  0  0  0  0  0  0999 V2000
   28.0570   22.6820   22.0300 C   0  0  0  0  0  0  0  0  0  0  0  0
   28.4390   23.8920   22.6870 C   0  0  0  0  0  0  0  0  0  0  0  0
   28.9100   25.0100   21.9700 C   0  0  0  0  0  0  0  0  0  0  0  0
   29.0100   24.9490   20.5780 C   0  0  0  0  0  0  0  0  0  0  0  0
   28.6500   23.7870   19.8950 C   0  0  0  0  0  0  0  0  0  0  0  0
   23.9350   20.3950   22.9450 C   0  0  0  0  0  0  0  0  0  0  0  0
   27.8050   21.3990   19.6590 C   0  0  0  0  0  0  0  0  0  0  0  0
   27.3790   20.1170   20.3540 C   0  0  0  0  0  0  0  0  0  0  0  0
   27.5730   21.5670   22.8480 N   0  0  0  0  0  0  0  0  0  0  0  0
   23.8880   19.7000   21.7310 C   0  0  0  0  0  0  0  0  0  0  0  0
   28.6990   17.6650   25.1850 N   0  3  0  0  0  0  0  0  0  0  0  0
   25.0120   19.6310   20.9280 C   0  0  0  0  0  0  0  0  0  0  0  0
   25.1470   21.0270   23.3410 C   0  0  0  0  0  0  0  0  0  0  0  0
   28.1710   22.6260   20.5470 C   0  0  0  0  0  0  0  0  0  0  0  0
   26.2310   20.2430   21.2890 C   0  0  0  0  0  0  0  0  0  0  0  0
   26.3100   20.9490   22.5070 C   0  0  0  0  0  0  0  0  0  0  0  0
   28.2000   21.3890   24.2140 C   0  0  0  0  0  0  0  0  0  0  0  0
   27.9200   20.0600   24.9640 C   0  0  0  0  0  0  0  0  0  0  0  0
   28.6080   18.8840   24.3110 C   0  0  0  0  0  0  0  0  0  0  0  0
   29.6650   16.6810   24.6660 C   0  0  0  0  0  0  0  0  0  0  0  0
   27.3550   17.0210   25.3210 C   0  0  0  0  0  0  0  0  0  0  0  0
   28.3644   23.9516   23.7668 H   0  0  0  0  0  0  0  0  0  0  0  0
   29.1937   25.9140   22.4967 H   0  0  0  0  0  0  0  0  0  0  0  0
   29.3694   25.8095   20.0253 H   0  0  0  0  0  0  0  0  0  0  0  0
   28.7414   23.7728   18.8150 H   0  0  0  0  0  0  0  0  0  0  0  0
   23.0565   20.4513   23.5776 H   0  0  0  0  0  0  0  0  0  0  0  0
   26.9774   21.7057   19.0025 H   0  0  0  0  0  0  0  0  0  0  0  0
   28.6888   21.1619   19.0485 H   0  0  0  0  0  0  0  0  0  0  0  0
   28.2402   19.7395   20.9249 H   0  0  0  0  0  0  0  0  0  0  0  0
   27.1048   19.3869   19.5783 H   0  0  0  0  0  0  0  0  0  0  0  0
   22.9697   19.2153   21.4198 H   0  0  0  0  0  0  0  0  0  0  0  0
   29.0082   17.9583   26.0985 H   0  0  0  0  0  0  0  0  0  0  0  0
   24.9546   19.0892   19.9909 H   0  0  0  0  0  0  0  0  0  0  0  0
   25.1908   21.5701   24.2781 H   0  0  0  0  0  0  0  0  0  0  0  0
   27.8387   22.2093   24.8516 H   0  0  0  0  0  0  0  0  0  0  0  0
   29.2897   21.4737   24.0898 H   0  0  0  0  0  0  0  0  0  0  0  0
   26.8352   19.8778   24.9702 H   0  0  0  0  0  0  0  0  0  0  0  0
   28.2821   20.1532   25.9985 H   0  0  0  0  0  0  0  0  0  0  0  0
   28.0482   18.6170   23.4025 H   0  0  0  0  0  0  0  0  0  0  0  0
   29.6284   19.1894   24.0365 H   0  0  0  0  0  0  0  0  0  0  0  0
   29.6967   15.8096   25.3365 H   0  0  0  0  0  0  0  0  0  0  0  0
   30.6634   17.1398   24.6135 H   0  0  0  0  0  0  0  0  0  0  0  0
   29.3561   16.3590   23.6606 H   0  0  0  0  0  0  0  0  0  0  0  0
   26.6339   17.7558   25.7085 H   0  0  0  0  0  0  0  0  0  0  0  0
   27.4238   16.1724   26.0175 H   0  0  0  0  0  0  0  0  0  0  0  0
   27.0193   16.6616   24.3371 H   0  0  0  0  0  0  0  0  0  0  0  0
  1  2  2  0  0  0  0
  1 14  1  0  0  0  0
  2  3  1  0  0  0  0
  2 22  1  0  0  0  0
  3  4  2  0  0  0  0
  3 23  1  0  0  0  0
  4 24  1  0  0  0  0
  5  4  1  0  0  0  0
  5 25  1  0  0  0  0
  6 10  2  0  0  0  0
  6 26  1  0  0  0  0
  7 27  1  0  0  0  0
  7 28  1  0  0  0  0
  8  7  1  0  0  0  0
  8 29  1  0  0  0  0
  8 30  1  0  0  0  0
  9  1  1  0  0  0  0
  9 16  1  0  0  0  0
 10 31  1  0  0  0  0
 11 20  1  0  0  0  0
 11 21  1  0  0  0  0
 11 32  1  0  0  0  0
 12 10  1  0  0  0  0
 12 33  1  0  0  0  0
 13  6  1  0  0  0  0
 13 34  1  0  0  0  0
 14  5  2  0  0  0  0
 14  7  1  0  0  0  0
 15  8  1  0  0  0  0
 15 12  2  0  0  0  0
 16 13  2  0  0  0  0
 16 15  1  0  0  0  0
 17  9  1  0  0  0  0
 17 35  1  0  0  0  0
 17 36  1  0  0  0  0
 18 17  1  0  0  0  0
 18 19  1  0  0  0  0
 18 37  1  0  0  0  0
 18 38  1  0  0  0  0
 19 11  1  0  0  0  0
 19 39  1  0  0  0  0
 19 40  1  0  0  0  0
 20 41  1  0  0  0  0
 20 42  1  0  0  0  0
 20 43  1  0  0  0  0
 21 44  1  0  0  0  0
 21 45  1  0  0  0  0
 21 46  1  0  0  0  0
M  CHG  1  11   1
M  END
