2q7o_ligand
 OpenBabel08222323343D

 34 36  0  0  1  0  0  0  0  0999 V2000
   15.6070   10.1350   59.1990 O   0  0  0  0  0  0  0  0  0  0  0  0
   16.0170   11.3330   59.8650 C   0  0  0  0  0  0  0  0  0  0  0  0
   14.7600   12.1410   59.8960 C   0  0  2  0  0  0  0  0  0  0  0  0
   13.7720   11.8250   58.8620 N   0  3  0  0  0  0  0  0  0  0  0  0
   15.2390   13.4920   59.5480 C   0  0  2  0  0  0  0  0  0  0  0  0
   14.9920   14.2230   60.7600 O   0  0  0  0  0  0  0  0  0  0  0  0
   14.4270   13.9530   58.3060 C   0  0  2  0  0  0  0  0  0  0  0  0
   13.6090   15.1090   58.6080 O   0  0  0  0  0  0  0  0  0  0  0  0
   13.5700   12.8090   57.8030 C   0  0  1  0  0  0  0  0  0  0  0  0
   14.1190   12.2240   56.5740 C   0  0  0  0  0  0  0  0  0  0  0  0
   15.0960   12.7470   55.7730 C   0  0  0  0  0  0  0  0  0  0  0  0
   15.3390   11.8460   54.7690 N   0  0  0  0  0  0  0  0  0  0  0  0
   14.5790   10.7690   54.8850 C   0  0  0  0  0  0  0  0  0  0  0  0
   14.4100    9.5290   54.1450 C   0  0  0  0  0  0  0  0  0  0  0  0
   15.1740    9.3100   53.0380 O   0  0  0  0  0  0  0  0  0  0  0  0
   13.4930    8.6490   54.6020 N   0  0  0  0  0  0  0  0  0  0  0  0
   12.7650    8.8830   55.7080 C   0  0  0  0  0  0  0  0  0  0  0  0
   12.8570    9.9910   56.4660 N   0  0  0  0  0  0  0  0  0  0  0  0
   13.7420   10.9120   56.0590 C   0  0  0  0  0  0  0  0  0  0  0  0
   16.3476    9.5443   59.1277 H   0  0  0  0  0  0  0  0  0  0  0  0
   16.8066   11.8501   59.3001 H   0  0  0  0  0  0  0  0  0  0  0  0
   16.3750   11.1180   60.8826 H   0  0  0  0  0  0  0  0  0  0  0  0
   14.2953   12.0941   60.8919 H   0  0  0  0  0  0  0  0  0  0  0  0
   12.8854   11.6898   59.3221 H   0  0  0  0  0  0  0  0  0  0  0  0
   14.0580   10.9635   58.4237 H   0  0  0  0  0  0  0  0  0  0  0  0
   16.3123   13.5027   59.3076 H   0  0  0  0  0  0  0  0  0  0  0  0
   14.0636   14.1982   60.9598 H   0  0  0  0  0  0  0  0  0  0  0  0
   15.1362   14.2327   57.5130 H   0  0  0  0  0  0  0  0  0  0  0  0
   13.1264   15.3657   57.8310 H   0  0  0  0  0  0  0  0  0  0  0  0
   12.5175   13.1001   57.6709 H   0  0  0  0  0  0  0  0  0  0  0  0
   15.5920   13.7070   55.9084 H   0  0  0  0  0  0  0  0  0  0  0  0
   16.0281   11.9896   54.0171 H   0  0  0  0  0  0  0  0  0  0  0  0
   13.3508    7.7952   54.1013 H   0  0  0  0  0  0  0  0  0  0  0  0
   12.0492    8.1208   56.0123 H   0  0  0  0  0  0  0  0  0  0  0  0
  1  2  1  0  0  0  0
  1 20  1  0  0  0  0
  2  3  1  0  0  0  0
  2 21  1  0  0  0  0
  2 22  1  0  0  0  0
  3  4  1  0  0  0  0
  3  5  1  0  0  0  0
  3 23  1  1  0  0  0
  4  9  1  0  0  0  0
  4 24  1  0  0  0  0
  4 25  1  0  0  0  0
  5  6  1  0  0  0  0
  5  7  1  0  0  0  0
  5 26  1  6  0  0  0
  6 27  1  0  0  0  0
  7  8  1  0  0  0  0
  7  9  1  0  0  0  0
  7 28  1  6  0  0  0
  8 29  1  0  0  0  0
  9 10  1  0  0  0  0
  9 30  1  6  0  0  0
 10 11  2  0  0  0  0
 10 19  1  0  0  0  0
 11 12  1  0  0  0  0
 11 31  1  0  0  0  0
 12 13  1  0  0  0  0
 12 32  1  0  0  0  0
 13 14  1  0  0  0  0
 13 19  2  0  0  0  0
 14 15  2  0  0  0  0
 14 16  1  0  0  0  0
 16 17  1  0  0  0  0
 16 33  1  0  0  0  0
 17 18  2  0  0  0  0
 17 34  1  0  0  0  0
 18 19  1  0  0  0  0
M  CHG  1   4   1
M  END
