2q7u_ligand
 OpenBabel08222323343D

 34 35  0  0  1  0  0  0  0  0999 V2000
    1.1620   15.7620    8.9180 P   0  0  2  0  0  0  0  0  0  0  0  0
    0.4890   15.6610   10.2280 O   0  0  0  0  0  1  0  0  0  0  0  0
    0.5820   15.0670    7.7280 O   0  0  0  0  0  0  0  0  0  0  0  0
    2.6850   15.3190    9.1170 O   0  0  0  0  0  0  0  0  0  0  0  0
    3.8100   16.2260    9.1240 C   0  0  0  0  0  0  0  0  0  0  0  0
    4.7330   15.9130   10.2810 C   0  0  1  0  0  0  0  0  0  0  0  0
    6.0780   16.4310   10.0740 O   0  0  0  0  0  0  0  0  0  0  0  0
    4.4160   16.1150   11.7670 C   0  0  1  0  0  0  0  0  0  0  0  0
    3.8910   14.9340   12.3660 O   0  0  0  0  0  0  0  0  0  0  0  0
    5.7620   16.4820   12.3870 C   0  0  0  0  0  0  0  0  0  0  0  0
    6.4700   17.1620   11.2170 C   0  0  2  0  0  0  0  0  0  0  0  0
    6.6970   18.6340   11.2090 N   0  0  0  0  0  0  0  0  0  0  0  0
    5.8090   19.4810   11.8540 C   0  0  0  0  0  0  0  0  0  0  0  0
    4.8060   19.0930   12.4380 O   0  0  0  0  0  0  0  0  0  0  0  0
    6.1360   20.8130   11.7810 N   0  0  0  0  0  0  0  0  0  0  0  0
    7.2190   21.3780   11.1300 C   0  0  0  0  0  0  0  0  0  0  0  0
    7.3180   22.6000   11.0610 O   0  0  0  0  0  0  0  0  0  0  0  0
    8.1040   20.4360   10.4780 C   0  0  0  0  0  0  0  0  0  0  0  0
    9.3410   20.9420    9.8030 C   0  0  0  0  0  0  0  0  0  0  0  0
    7.7990   19.1320   10.5470 C   0  0  0  0  0  0  0  0  0  0  0  0
    1.1559   16.7422    8.6829 H   0  0  0  0  0  0  0  0  0  0  0  0
    3.4427   17.2582    9.2225 H   0  0  0  0  0  0  0  0  0  0  0  0
    4.3647   16.1227    8.1798 H   0  0  0  0  0  0  0  0  0  0  0  0
    4.8249   14.8198   10.2005 H   0  0  0  0  0  0  0  0  0  0  0  0
    3.6938   16.9346   11.8961 H   0  0  0  0  0  0  0  0  0  0  0  0
    3.7079   15.0988   13.2835 H   0  0  0  0  0  0  0  0  0  0  0  0
    6.3074   15.5864   12.7193 H   0  0  0  0  0  0  0  0  0  0  0  0
    5.6377   17.1713   13.2351 H   0  0  0  0  0  0  0  0  0  0  0  0
    7.5107   16.8311   11.3494 H   0  0  0  0  0  0  0  0  0  0  0  0
    5.5219   21.4466   12.2516 H   0  0  0  0  0  0  0  0  0  0  0  0
    9.8911   20.0966    9.3640 H   0  0  0  0  0  0  0  0  0  0  0  0
    9.9789   21.4512   10.5404 H   0  0  0  0  0  0  0  0  0  0  0  0
    9.0618   21.6498    9.0086 H   0  0  0  0  0  0  0  0  0  0  0  0
    8.4612   18.4242   10.0505 H   0  0  0  0  0  0  0  0  0  0  0  0
  1  2  1  0  0  0  0
  1  3  2  0  0  0  0
  1  4  1  0  0  0  0
  1 21  1  6  0  0  0
  4  5  1  0  0  0  0
  5  6  1  0  0  0  0
  5 22  1  0  0  0  0
  5 23  1  0  0  0  0
  6  7  1  0  0  0  0
  6  8  1  0  0  0  0
  6 24  1  6  0  0  0
  7 11  1  0  0  0  0
  8  9  1  0  0  0  0
  8 10  1  0  0  0  0
  8 25  1  1  0  0  0
  9 26  1  0  0  0  0
 10 11  1  0  0  0  0
 10 27  1  0  0  0  0
 10 28  1  0  0  0  0
 11 12  1  0  0  0  0
 11 29  1  1  0  0  0
 12 13  1  0  0  0  0
 12 20  1  0  0  0  0
 13 14  2  0  0  0  0
 13 15  1  0  0  0  0
 15 16  1  0  0  0  0
 15 30  1  0  0  0  0
 16 17  2  0  0  0  0
 16 18  1  0  0  0  0
 18 19  1  0  0  0  0
 18 20  2  0  0  0  0
 19 31  1  0  0  0  0
 19 32  1  0  0  0  0
 19 33  1  0  0  0  0
 20 34  1  0  0  0  0
M  END
