2q8g_ligand
 OpenBabel08222323343D

 49 50  0  0  1  0  0  0  0  0999 V2000
   -4.4200   40.8940    0.7420 F   0  0  0  0  0  0  0  0  0  0  0  0
   -4.3670   40.3270    1.9280 C   0  0  0  0  0  0  0  0  0  0  0  0
   -4.7200   39.0570    1.8500 F   0  0  0  0  0  0  0  0  0  0  0  0
   -3.1450   40.3520    2.4670 F   0  0  0  0  0  0  0  0  0  0  0  0
   -5.2520   41.1730    2.8510 C   0  0  1  0  0  0  0  0  0  0  0  0
   -4.7350   42.5210    2.7380 O   0  0  0  0  0  0  0  0  0  0  0  0
   -6.7180   41.2080    2.4590 C   0  0  0  0  0  0  0  0  0  0  0  0
   -5.0650   40.7130    4.2850 C   0  0  0  0  0  0  0  0  0  0  0  0
   -5.4560   39.6220    4.6620 O   0  0  0  0  0  0  0  0  0  0  0  0
   -4.4610   41.5610    5.1010 N   0  0  0  0  0  0  0  0  0  0  0  0
   -4.0520   41.2630    6.3720 C   0  0  0  0  0  0  0  0  0  0  0  0
   -4.0290   39.9800    6.9500 C   0  0  0  0  0  0  0  0  0  0  0  0
   -3.5560   39.8390    8.2760 C   0  0  0  0  0  0  0  0  0  0  0  0
   -3.5630   42.4100    7.1950 C   0  0  0  0  0  0  0  0  0  0  0  0
   -3.6280   44.0430    6.4730 Cl  0  0  0  0  0  0  0  0  0  0  0  0
   -3.1110   42.2210    8.5090 C   0  0  0  0  0  0  0  0  0  0  0  0
   -3.0900   40.9230    9.0560 C   0  0  0  0  0  0  0  0  0  0  0  0
   -2.5880   40.7410   10.6140 S   0  0  0  0  0  0  0  0  0  0  0  0
   -1.8160   39.5570   10.8740 O   0  0  0  0  0  0  0  0  0  0  0  0
   -1.7850   41.8860   10.9640 O   0  0  0  0  0  0  0  0  0  0  0  0
   -3.9490   40.7310   11.4200 C   0  0  0  0  0  0  0  0  0  0  0  0
   -4.4990   41.9290   11.8930 C   0  0  0  0  0  0  0  0  0  0  0  0
   -5.7020   41.9280   12.5980 C   0  0  0  0  0  0  0  0  0  0  0  0
   -4.5890   39.5250   11.6030 C   0  0  0  0  0  0  0  0  0  0  0  0
   -5.7940   39.5050   12.2910 C   0  0  0  0  0  0  0  0  0  0  0  0
   -6.3500   40.7020   12.7880 C   0  0  0  0  0  0  0  0  0  0  0  0
   -7.6650   40.5970   13.5370 C   0  0  0  0  0  0  0  0  0  0  0  0
   -7.7350   39.6930   14.3860 O   0  0  0  0  0  0  0  0  0  0  0  0
   -8.7020   41.4370   13.2660 N   0  0  0  0  0  0  0  0  0  0  0  0
   -8.8390   42.2310   12.0440 C   0  0  0  0  0  0  0  0  0  0  0  0
   -9.8320   41.6260   14.1860 C   0  0  0  0  0  0  0  0  0  0  0  0
   -5.2444   43.1017    3.2909 H   0  0  0  0  0  0  0  0  0  0  0  0
   -7.2734   41.8344    3.1725 H   0  0  0  0  0  0  0  0  0  0  0  0
   -7.1258   40.1865    2.4731 H   0  0  0  0  0  0  0  0  0  0  0  0
   -6.8171   41.6285    1.4474 H   0  0  0  0  0  0  0  0  0  0  0  0
   -4.2910   42.4872    4.7644 H   0  0  0  0  0  0  0  0  0  0  0  0
   -4.3674   39.1159    6.3897 H   0  0  0  0  0  0  0  0  0  0  0  0
   -3.5505   38.8488    8.7170 H   0  0  0  0  0  0  0  0  0  0  0  0
   -2.7801   43.0677    9.0996 H   0  0  0  0  0  0  0  0  0  0  0  0
   -3.9848   42.8655   11.7094 H   0  0  0  0  0  0  0  0  0  0  0  0
   -6.1224   42.8483   12.9869 H   0  0  0  0  0  0  0  0  0  0  0  0
   -4.1591   38.6080   11.2165 H   0  0  0  0  0  0  0  0  0  0  0  0
   -6.3104   38.5648   12.4472 H   0  0  0  0  0  0  0  0  0  0  0  0
   -9.7685   42.8175   12.0901 H   0  0  0  0  0  0  0  0  0  0  0  0
   -8.8715   41.5604   11.1727 H   0  0  0  0  0  0  0  0  0  0  0  0
   -7.9801   42.9119   11.9509 H   0  0  0  0  0  0  0  0  0  0  0  0
   -9.6803   41.0097   15.0844 H   0  0  0  0  0  0  0  0  0  0  0  0
  -10.7650   41.3242   13.6876 H   0  0  0  0  0  0  0  0  0  0  0  0
   -9.8965   42.6855   14.4747 H   0  0  0  0  0  0  0  0  0  0  0  0
  1  2  1  0  0  0  0
  2  3  1  0  0  0  0
  2  4  1  0  0  0  0
  2  5  1  0  0  0  0
  5  6  1  6  0  0  0
  5  7  1  0  0  0  0
  5  8  1  0  0  0  0
  6 32  1  0  0  0  0
  7 33  1  0  0  0  0
  7 34  1  0  0  0  0
  7 35  1  0  0  0  0
  8  9  2  0  0  0  0
  8 10  1  0  0  0  0
 10 11  1  0  0  0  0
 10 36  1  0  0  0  0
 11 12  2  0  0  0  0
 11 14  1  0  0  0  0
 12 13  1  0  0  0  0
 12 37  1  0  0  0  0
 13 17  2  0  0  0  0
 13 38  1  0  0  0  0
 14 15  1  0  0  0  0
 14 16  2  0  0  0  0
 16 17  1  0  0  0  0
 16 39  1  0  0  0  0
 17 18  1  0  0  0  0
 18 19  2  0  0  0  0
 18 20  2  0  0  0  0
 18 21  1  0  0  0  0
 21 22  2  0  0  0  0
 21 24  1  0  0  0  0
 22 23  1  0  0  0  0
 22 40  1  0  0  0  0
 23 26  2  0  0  0  0
 23 41  1  0  0  0  0
 24 25  2  0  0  0  0
 24 42  1  0  0  0  0
 25 26  1  0  0  0  0
 25 43  1  0  0  0  0
 26 27  1  0  0  0  0
 27 28  2  0  0  0  0
 27 29  1  0  0  0  0
 29 30  1  0  0  0  0
 29 31  1  0  0  0  0
 30 44  1  0  0  0  0
 30 45  1  0  0  0  0
 30 46  1  0  0  0  0
 31 47  1  0  0  0  0
 31 48  1  0  0  0  0
 31 49  1  0  0  0  0
M  END
