2q8s_ligand
 OpenBabel08222323343D

 56 59  0  0  1  0  0  0  0  0999 V2000
   18.3630   63.1370   20.2510 O   0  5  0  0  0  0  0  0  0  0  0  0
   19.1270   62.5230   19.4730 C   0  0  0  0  0  0  0  0  0  0  0  0
   20.0590   61.7950   19.8760 O   0  0  0  0  0  0  0  0  0  0  0  0
   18.9180   62.7010   17.9940 C   0  0  1  0  0  0  0  0  0  0  0  0
   19.9660   63.6310   17.4860 N   0  0  0  0  0  0  0  0  0  0  0  0
   20.9530   63.3840   16.6100 C   0  0  0  0  0  0  0  0  0  0  0  0
   21.6800   64.5350   16.4230 C   0  0  0  0  0  0  0  0  0  0  0  0
   21.1060   65.5040   17.2110 C   0  0  0  0  0  0  0  0  0  0  0  0
   20.0420   64.9150   17.8590 C   0  0  0  0  0  0  0  0  0  0  0  0
   18.8670   61.3650   17.2230 C   0  0  0  0  0  0  0  0  0  0  0  0
   18.2230   61.6380   15.8770 C   0  0  0  0  0  0  0  0  0  0  0  0
   18.9360   61.6460   14.6720 C   0  0  0  0  0  0  0  0  0  0  0  0
   18.2850   61.9270   13.4600 C   0  0  0  0  0  0  0  0  0  0  0  0
   16.9170   62.1930   13.4490 C   0  0  0  0  0  0  0  0  0  0  0  0
   16.2230   62.1920   14.6590 C   0  0  0  0  0  0  0  0  0  0  0  0
   16.8640   61.9110   15.8560 C   0  0  0  0  0  0  0  0  0  0  0  0
   16.1170   62.5290   12.1990 C   0  0  0  0  0  0  0  0  0  0  0  0
   16.3360   61.6510   10.9780 C   0  0  0  0  0  0  0  0  0  0  0  0
   17.5580   62.0520   10.2080 C   0  0  0  0  0  0  0  0  0  0  0  0
   17.7700   63.3980    9.6150 C   0  0  0  0  0  0  0  0  0  0  0  0
   18.8820   63.7720    8.9250 C   0  0  0  0  0  0  0  0  0  0  0  0
   20.0820   62.9770    8.5960 C   0  0  0  0  0  0  0  0  0  0  0  0
   18.7590   65.0600    8.5280 O   0  0  0  0  0  0  0  0  0  0  0  0
   17.5340   65.4760    8.9990 C   0  0  0  0  0  0  0  0  0  0  0  0
   16.9150   64.4470    9.6740 N   0  0  0  0  0  0  0  0  0  0  0  0
   17.0660   66.7670    8.7760 C   0  0  0  0  0  0  0  0  0  0  0  0
   15.8290   67.1810    9.2570 C   0  0  0  0  0  0  0  0  0  0  0  0
   15.3850   68.4820    9.0180 C   0  0  0  0  0  0  0  0  0  0  0  0
   16.1800   69.3710    8.3000 C   0  0  0  0  0  0  0  0  0  0  0  0
   17.4170   68.9590    7.8160 C   0  0  0  0  0  0  0  0  0  0  0  0
   17.8580   67.6630    8.0560 C   0  0  0  0  0  0  0  0  0  0  0  0
   17.9416   63.1868   17.8503 H   0  0  0  0  0  0  0  0  0  0  0  0
   21.1460   62.4275   16.1265 H   0  0  0  0  0  0  0  0  0  0  0  0
   22.5460   64.6564   15.7740 H   0  0  0  0  0  0  0  0  0  0  0  0
   21.4302   66.5394   17.3052 H   0  0  0  0  0  0  0  0  0  0  0  0
   19.3727   65.4121   18.5596 H   0  0  0  0  0  0  0  0  0  0  0  0
   18.2691   60.6310   17.7831 H   0  0  0  0  0  0  0  0  0  0  0  0
   19.8856   60.9753   17.0795 H   0  0  0  0  0  0  0  0  0  0  0  0
   19.9990   61.4336   14.6748 H   0  0  0  0  0  0  0  0  0  0  0  0
   18.8465   61.9370   12.5328 H   0  0  0  0  0  0  0  0  0  0  0  0
   15.1622   62.4152   14.6636 H   0  0  0  0  0  0  0  0  0  0  0  0
   16.2990   61.9048   16.7811 H   0  0  0  0  0  0  0  0  0  0  0  0
   16.3671   63.5614   11.9134 H   0  0  0  0  0  0  0  0  0  0  0  0
   15.0507   62.4695   12.4625 H   0  0  0  0  0  0  0  0  0  0  0  0
   15.4588   61.7336   10.3195 H   0  0  0  0  0  0  0  0  0  0  0  0
   16.4505   60.6077   11.3071 H   0  0  0  0  0  0  0  0  0  0  0  0
   17.6254   61.3442    9.3687 H   0  0  0  0  0  0  0  0  0  0  0  0
   18.4050   61.8922   10.8914 H   0  0  0  0  0  0  0  0  0  0  0  0
   20.7880   63.5979    8.0250 H   0  0  0  0  0  0  0  0  0  0  0  0
   19.7900   62.1048    7.9927 H   0  0  0  0  0  0  0  0  0  0  0  0
   20.5621   62.6361    9.5251 H   0  0  0  0  0  0  0  0  0  0  0  0
   15.2085   66.4920    9.8186 H   0  0  0  0  0  0  0  0  0  0  0  0
   14.4190   68.8011    9.3922 H   0  0  0  0  0  0  0  0  0  0  0  0
   15.8355   70.3826    8.1185 H   0  0  0  0  0  0  0  0  0  0  0  0
   18.0362   69.6475    7.2525 H   0  0  0  0  0  0  0  0  0  0  0  0
   18.8244   67.3456    7.6812 H   0  0  0  0  0  0  0  0  0  0  0  0
  1  2  1  0  0  0  0
  2  3  2  0  0  0  0
  2  4  1  0  0  0  0
  4  5  1  0  0  0  0
  4 10  1  0  0  0  0
  4 32  1  6  0  0  0
  5  6  1  0  0  0  0
  5  9  1  0  0  0  0
  6  7  2  0  0  0  0
  6 33  1  0  0  0  0
  7  8  1  0  0  0  0
  7 34  1  0  0  0  0
  8  9  2  0  0  0  0
  8 35  1  0  0  0  0
  9 36  1  0  0  0  0
 10 11  1  0  0  0  0
 10 37  1  0  0  0  0
 10 38  1  0  0  0  0
 11 12  2  0  0  0  0
 11 16  1  0  0  0  0
 12 13  1  0  0  0  0
 12 39  1  0  0  0  0
 13 14  2  0  0  0  0
 13 40  1  0  0  0  0
 14 15  1  0  0  0  0
 14 17  1  0  0  0  0
 15 16  2  0  0  0  0
 15 41  1  0  0  0  0
 16 42  1  0  0  0  0
 17 18  1  0  0  0  0
 17 43  1  0  0  0  0
 17 44  1  0  0  0  0
 18 19  1  0  0  0  0
 18 45  1  0  0  0  0
 18 46  1  0  0  0  0
 19 20  1  0  0  0  0
 19 47  1  0  0  0  0
 19 48  1  0  0  0  0
 20 21  2  0  0  0  0
 20 25  1  0  0  0  0
 21 22  1  0  0  0  0
 21 23  1  0  0  0  0
 22 49  1  0  0  0  0
 22 50  1  0  0  0  0
 22 51  1  0  0  0  0
 23 24  1  0  0  0  0
 24 25  2  0  0  0  0
 24 26  1  0  0  0  0
 26 27  2  0  0  0  0
 26 31  1  0  0  0  0
 27 28  1  0  0  0  0
 27 52  1  0  0  0  0
 28 29  2  0  0  0  0
 28 53  1  0  0  0  0
 29 30  1  0  0  0  0
 29 54  1  0  0  0  0
 30 31  2  0  0  0  0
 30 55  1  0  0  0  0
 31 56  1  0  0  0  0
M  CHG  1   1  -1
M  END
