2q8y_ligand
 OpenBabel08222323343D

151153  0  0  1  0  0  0  0  0999 V2000
   -1.5220   -3.6150   -0.2810 N   0  3  0  0  0  0  0  0  0  0  0  0
   -0.5670   -4.3340    0.6070 C   0  0  2  0  0  0  0  0  0  0  0  0
    0.0040   -5.5800   -0.0800 C   0  0  0  0  0  0  0  0  0  0  0  0
    1.2170   -5.7910   -0.0670 O   0  0  0  0  0  0  0  0  0  0  0  0
   -1.2590   -4.7050    1.9240 C   0  0  0  0  0  0  0  0  0  0  0  0
   -0.3430   -5.2690    3.0140 C   0  0  0  0  0  0  0  0  0  0  0  0
   -1.1240   -5.9110    4.1540 C   0  0  0  0  0  0  0  0  0  0  0  0
   -0.5720   -6.6720    4.9560 O   0  0  0  0  0  0  0  0  0  0  0  0
   -2.4160   -5.6160    4.2250 N   0  0  0  0  0  0  0  0  0  0  0  0
   -0.8690   -6.3920   -0.6770 N   0  0  0  0  0  0  0  0  0  0  0  0
   -0.4760   -7.6840   -1.2620 C   0  0  2  0  0  0  0  0  0  0  0  0
   -0.1180   -7.6460   -2.7560 C   0  0  0  0  0  0  0  0  0  0  0  0
    0.4740   -8.5960   -3.2800 O   0  0  0  0  0  0  0  0  0  0  0  0
   -1.5870   -8.7250   -1.0490 C   0  0  0  0  0  0  0  0  0  0  0  0
   -1.8650   -9.0990    0.3970 C   0  0  0  0  0  0  0  0  0  0  0  0
   -0.8470   -9.5680    1.2300 C   0  0  0  0  0  0  0  0  0  0  0  0
   -3.1560   -9.0170    0.9220 C   0  0  0  0  0  0  0  0  0  0  0  0
   -1.1030   -9.9220    2.5530 C   0  0  0  0  0  0  0  0  0  0  0  0
   -3.4220   -9.3730    2.2490 C   0  0  0  0  0  0  0  0  0  0  0  0
   -2.3930   -9.8230    3.0550 C   0  0  0  0  0  0  0  0  0  0  0  0
   -2.6420  -10.1790    4.3640 O   0  0  0  0  0  0  0  0  0  0  0  0
   -0.4670   -6.5570   -3.4390 N   0  0  0  0  0  0  0  0  0  0  0  0
   -0.4580   -6.5460   -4.9070 C   0  0  2  0  0  0  0  0  0  0  0  0
    0.5400   -5.5790   -5.5450 C   0  0  0  0  0  0  0  0  0  0  0  0
    0.5200   -5.3700   -6.7620 O   0  0  0  0  0  0  0  0  0  0  0  0
   -1.8750   -6.2840   -5.4360 C   0  0  0  0  0  0  0  0  0  0  0  0
   -2.9340   -7.0890   -4.7400 C   0  0  0  0  0  0  0  0  0  0  0  0
   -3.6460   -6.5460   -3.6700 C   0  0  0  0  0  0  0  0  0  0  0  0
   -3.2090   -8.3910   -5.1420 C   0  0  0  0  0  0  0  0  0  0  0  0
   -4.6190   -7.2880   -3.0130 C   0  0  0  0  0  0  0  0  0  0  0  0
   -4.1820   -9.1400   -4.4960 C   0  0  0  0  0  0  0  0  0  0  0  0
   -4.8930   -8.5900   -3.4290 C   0  0  0  0  0  0  0  0  0  0  0  0
    1.4070   -5.0020   -4.7180 N   0  0  0  0  0  0  0  0  0  0  0  0
    2.3790   -4.0140   -5.1670 C   0  0  2  0  0  0  0  0  0  0  0  0
    3.5990   -4.6860   -5.7880 C   0  0  0  0  0  0  0  0  0  0  0  0
    4.1930   -5.5840   -5.1920 O   0  0  0  0  0  0  0  0  0  0  0  0
    2.8020   -3.1090   -4.0030 C   0  0  0  0  0  0  0  0  0  0  0  0
    1.6430   -2.3310   -3.3580 C   0  0  0  0  0  0  0  0  0  0  0  0
    2.1590   -1.2230   -2.0270 S   0  0  0  0  0  0  0  0  0  0  0  0
    2.6220   -2.3900   -0.7420 C   0  0  0  0  0  0  0  0  0  0  0  0
    3.9680   -4.2400   -6.9870 N   0  0  0  0  0  0  0  0  0  0  0  0
    5.2020   -4.7060   -7.6380 C   0  0  1  0  0  0  0  0  0  0  0  0
    5.0690   -4.8080   -9.1720 C   0  0  1  0  0  0  0  0  0  0  0  0
    3.8540   -5.6310   -9.6160 C   0  0  0  0  0  0  0  0  0  0  0  0
    5.1350   -3.5470   -9.8670 O   0  0  0  0  0  0  0  0  0  0  0  0
    4.2920   -2.1880   -9.5910 P   0  0  0  0  0  0  0  0  0  0  0  0
    5.1340   -1.3990   -8.6220 O   0  0  0  0  0  1  0  0  0  0  0  0
    4.1760   -1.5620  -10.9530 O   0  0  0  0  0  1  0  0  0  0  0  0
    2.9530   -2.5940   -9.0080 O   0  0  0  0  0  0  0  0  0  0  0  0
    6.4020   -3.8860   -7.2220 C   0  0  0  0  0  0  0  0  0  0  0  0
    7.4420   -3.9110   -7.8790 O   0  0  0  0  0  0  0  0  0  0  0  0
    6.2630   -3.1580   -6.1150 N   0  0  0  0  0  0  0  0  0  0  0  0
    7.3340   -2.3110   -5.5880 C   0  0  2  0  0  0  0  0  0  0  0  0
    8.5730   -3.1340   -5.2190 C   0  0  0  0  0  0  0  0  0  0  0  0
    8.4610   -4.2640   -4.7330 O   0  0  0  0  0  0  0  0  0  0  0  0
    6.8340   -1.5230   -4.3670 C   0  0  0  0  0  0  0  0  0  0  0  0
    7.6500   -0.2720   -4.0270 C   0  0  0  0  0  0  0  0  0  0  0  0
    7.1230    1.0150   -4.6730 C   0  0  0  0  0  0  0  0  0  0  0  0
    7.4760    2.1060   -4.1720 O   0  5  0  0  0  0  0  0  0  0  0  0
    6.3630    0.9520   -5.6660 O   0  0  0  0  0  0  0  0  0  0  0  0
    9.7540   -2.6000   -5.4800 N   0  0  0  0  0  0  0  0  0  0  0  0
   11.0310   -3.2050   -5.0740 C   0  0  2  0  0  0  0  0  0  0  0  0
   11.0970   -3.2410   -3.5570 C   0  0  0  0  0  0  0  0  0  0  0  0
   11.0620   -2.2530   -2.9370 O   0  0  0  0  0  0  0  0  0  0  0  0
   12.1680   -2.3100   -5.5340 C   0  0  0  0  0  0  0  0  0  0  0  0
   13.5590   -2.8030   -5.2970 C   0  0  0  0  0  0  0  0  0  0  0  0
   14.2090   -3.5180   -6.2560 C   0  0  0  0  0  0  0  0  0  0  0  0
   14.2510   -2.5220   -4.1340 C   0  0  0  0  0  0  0  0  0  0  0  0
   15.4780   -3.9860   -6.0630 C   0  0  0  0  0  0  0  0  0  0  0  0
   15.5460   -2.9560   -3.9500 C   0  0  0  0  0  0  0  0  0  0  0  0
   16.1630   -3.7130   -4.9190 C   0  0  0  0  0  0  0  0  0  0  0  0
   17.3170   -4.1320   -4.8580 O   0  0  0  0  0  0  0  0  0  0  0  0
   18.1250   -4.7110   -3.6260 P   0  0  0  0  0  0  0  0  0  0  0  0
   18.2270   -3.7250   -2.6960 O   0  0  0  0  0  1  0  0  0  0  0  0
   17.3840   -5.7710   -2.9990 O   0  0  0  0  0  1  0  0  0  0  0  0
   19.4200   -5.2130   -4.0480 O   0  0  0  0  0  0  0  0  0  0  0  0
   11.1770   -4.3920   -2.9690 N   0  0  0  0  0  0  0  0  0  0  0  0
   11.4110   -4.4680   -1.5480 C   0  0  0  0  0  0  0  0  0  0  0  0
   12.8040   -4.9990   -1.2540 C   0  0  0  0  0  0  0  0  0  0  0  0
   13.2080   -5.9850   -1.8190 O   0  0  0  0  0  0  0  0  0  0  0  0
   13.5140   -4.3530   -0.3470 N   0  0  0  0  0  0  0  0  0  0  0  0
   14.8800   -4.7320   -0.0120 C   0  0  2  0  0  0  0  0  0  0  0  0
   15.1020   -6.0380    0.6850 C   0  0  0  0  0  0  0  0  0  0  0  0
   14.2140   -6.6480    1.1950 O   0  0  0  0  0  0  0  0  0  0  0  0
   15.5830   -3.6630    0.6720 C   0  0  0  0  0  0  0  0  0  0  0  0
   -1.8793   -2.8029    0.1974 H   0  0  0  0  0  0  0  0  0  0  0  0
   -2.2860   -4.2279   -0.5190 H   0  0  0  0  0  0  0  0  0  0  0  0
   -1.0472   -3.3275   -1.1224 H   0  0  0  0  0  0  0  0  0  0  0  0
    0.2693   -3.6565    0.8341 H   0  0  0  0  0  0  0  0  0  0  0  0
   -2.0269   -5.4607    1.7022 H   0  0  0  0  0  0  0  0  0  0  0  0
   -1.7401   -3.7990    2.3210 H   0  0  0  0  0  0  0  0  0  0  0  0
    0.2673   -4.4496    3.4215 H   0  0  0  0  0  0  0  0  0  0  0  0
    0.3147   -6.0279    2.5650 H   0  0  0  0  0  0  0  0  0  0  0  0
   -2.9792   -6.0081    4.9524 H   0  0  0  0  0  0  0  0  0  0  0  0
   -2.8263   -5.0016    3.5511 H   0  0  0  0  0  0  0  0  0  0  0  0
   -1.8277   -6.1123   -0.7293 H   0  0  0  0  0  0  0  0  0  0  0  0
    0.4202   -8.0213   -0.7206 H   0  0  0  0  0  0  0  0  0  0  0  0
   -1.3008   -9.6409   -1.5868 H   0  0  0  0  0  0  0  0  0  0  0  0
   -2.5158   -8.3222   -1.4793 H   0  0  0  0  0  0  0  0  0  0  0  0
    0.1605   -9.6583    0.8403 H   0  0  0  0  0  0  0  0  0  0  0  0
   -3.9666   -8.6715    0.2907 H   0  0  0  0  0  0  0  0  0  0  0  0
   -0.2976  -10.2734    3.1878 H   0  0  0  0  0  0  0  0  0  0  0  0
   -4.4291   -9.2963    2.6426 H   0  0  0  0  0  0  0  0  0  0  0  0
   -1.8331  -10.4633    4.7730 H   0  0  0  0  0  0  0  0  0  0  0  0
   -0.7399   -5.7326   -2.9432 H   0  0  0  0  0  0  0  0  0  0  0  0
   -0.1645   -7.5562   -5.2283 H   0  0  0  0  0  0  0  0  0  0  0  0
   -1.8977   -6.5318   -6.5075 H   0  0  0  0  0  0  0  0  0  0  0  0
   -2.1048   -5.2167   -5.3015 H   0  0  0  0  0  0  0  0  0  0  0  0
   -3.4372   -5.5324   -3.3475 H   0  0  0  0  0  0  0  0  0  0  0  0
   -2.6579   -8.8253   -5.9682 H   0  0  0  0  0  0  0  0  0  0  0  0
   -5.1629   -6.8566   -2.1805 H   0  0  0  0  0  0  0  0  0  0  0  0
   -4.3899  -10.1532   -4.8205 H   0  0  0  0  0  0  0  0  0  0  0  0
   -5.6556   -9.1729   -2.9253 H   0  0  0  0  0  0  0  0  0  0  0  0
    1.3912   -5.2560   -3.7509 H   0  0  0  0  0  0  0  0  0  0  0  0
    1.9025   -3.3884   -5.9361 H   0  0  0  0  0  0  0  0  0  0  0  0
    3.5376   -2.3831   -4.3797 H   0  0  0  0  0  0  0  0  0  0  0  0
    3.2690   -3.7366   -3.2297 H   0  0  0  0  0  0  0  0  0  0  0  0
    0.9251   -3.0560   -2.9468 H   0  0  0  0  0  0  0  0  0  0  0  0
    1.1519   -1.7307   -4.1380 H   0  0  0  0  0  0  0  0  0  0  0  0
    2.9637   -1.8398    0.1471 H   0  0  0  0  0  0  0  0  0  0  0  0
    3.4339   -3.0356   -1.1081 H   0  0  0  0  0  0  0  0  0  0  0  0
    1.7519   -3.0091   -0.4781 H   0  0  0  0  0  0  0  0  0  0  0  0
    3.3917   -3.5713   -7.4568 H   0  0  0  0  0  0  0  0  0  0  0  0
    5.3792   -5.7286   -7.2735 H   0  0  0  0  0  0  0  0  0  0  0  0
    5.9527   -5.3736   -9.5023 H   0  0  0  0  0  0  0  0  0  0  0  0
    3.8161   -5.6653  -10.7148 H   0  0  0  0  0  0  0  0  0  0  0  0
    2.9349   -5.1645   -9.2319 H   0  0  0  0  0  0  0  0  0  0  0  0
    3.9393   -6.6537   -9.2200 H   0  0  0  0  0  0  0  0  0  0  0  0
    5.3922   -3.1916   -5.6245 H   0  0  0  0  0  0  0  0  0  0  0  0
    7.6204   -1.5934   -6.3710 H   0  0  0  0  0  0  0  0  0  0  0  0
    6.8573   -2.1932   -3.4951 H   0  0  0  0  0  0  0  0  0  0  0  0
    5.7973   -1.2117   -4.5626 H   0  0  0  0  0  0  0  0  0  0  0  0
    8.6838   -0.4310   -4.3676 H   0  0  0  0  0  0  0  0  0  0  0  0
    7.6399   -0.1394   -2.9351 H   0  0  0  0  0  0  0  0  0  0  0  0
    9.7802   -1.7356   -5.9820 H   0  0  0  0  0  0  0  0  0  0  0  0
   11.1300   -4.2157   -5.4966 H   0  0  0  0  0  0  0  0  0  0  0  0
   12.0640   -1.3471   -5.0125 H   0  0  0  0  0  0  0  0  0  0  0  0
   12.0510   -2.1551   -6.6167 H   0  0  0  0  0  0  0  0  0  0  0  0
   13.7076   -3.7209   -7.1954 H   0  0  0  0  0  0  0  0  0  0  0  0
   13.7659   -1.9494   -3.3518 H   0  0  0  0  0  0  0  0  0  0  0  0
   15.9476   -4.5853   -6.8346 H   0  0  0  0  0  0  0  0  0  0  0  0
   16.0788   -2.7007   -3.0411 H   0  0  0  0  0  0  0  0  0  0  0  0
   11.0761   -5.2317   -3.5026 H   0  0  0  0  0  0  0  0  0  0  0  0
   10.6668   -5.1404   -1.0962 H   0  0  0  0  0  0  0  0  0  0  0  0
   11.3096   -3.4631   -1.1123 H   0  0  0  0  0  0  0  0  0  0  0  0
   13.0991   -3.5761    0.1266 H   0  0  0  0  0  0  0  0  0  0  0  0
   15.3791   -4.8475   -0.9854 H   0  0  0  0  0  0  0  0  0  0  0  0
   16.1110   -6.4454    0.7276 H   0  0  0  0  0  0  0  0  0  0  0  0
   16.6072   -3.9889    0.9063 H   0  0  0  0  0  0  0  0  0  0  0  0
   15.0549   -3.4147    1.6044 H   0  0  0  0  0  0  0  0  0  0  0  0
   15.6200   -2.7750    0.0239 H   0  0  0  0  0  0  0  0  0  0  0  0
  1  2  1  0  0  0  0
  1 86  1  0  0  0  0
  1 87  1  0  0  0  0
  1 88  1  0  0  0  0
  2  3  1  0  0  0  0
  2  5  1  0  0  0  0
  2 89  1  1  0  0  0
  3  4  2  0  0  0  0
  3 10  1  0  0  0  0
  5  6  1  0  0  0  0
  5 90  1  0  0  0  0
  5 91  1  0  0  0  0
  6  7  1  0  0  0  0
  6 92  1  0  0  0  0
  6 93  1  0  0  0  0
  7  8  2  0  0  0  0
  7  9  1  0  0  0  0
  9 94  1  0  0  0  0
  9 95  1  0  0  0  0
 10 11  1  0  0  0  0
 10 96  1  0  0  0  0
 11 12  1  0  0  0  0
 11 14  1  0  0  0  0
 11 97  1  1  0  0  0
 12 13  2  0  0  0  0
 12 22  1  0  0  0  0
 14 15  1  0  0  0  0
 14 98  1  0  0  0  0
 14 99  1  0  0  0  0
 15 16  2  0  0  0  0
 15 17  1  0  0  0  0
 16 18  1  0  0  0  0
 16100  1  0  0  0  0
 17 19  2  0  0  0  0
 17101  1  0  0  0  0
 18 20  2  0  0  0  0
 18102  1  0  0  0  0
 19 20  1  0  0  0  0
 19103  1  0  0  0  0
 20 21  1  0  0  0  0
 21104  1  0  0  0  0
 22 23  1  0  0  0  0
 22105  1  0  0  0  0
 23 24  1  0  0  0  0
 23 26  1  0  0  0  0
 23106  1  6  0  0  0
 24 25  2  0  0  0  0
 24 33  1  0  0  0  0
 26 27  1  0  0  0  0
 26107  1  0  0  0  0
 26108  1  0  0  0  0
 27 28  2  0  0  0  0
 27 29  1  0  0  0  0
 28 30  1  0  0  0  0
 28109  1  0  0  0  0
 29 31  2  0  0  0  0
 29110  1  0  0  0  0
 30 32  2  0  0  0  0
 30111  1  0  0  0  0
 31 32  1  0  0  0  0
 31112  1  0  0  0  0
 32113  1  0  0  0  0
 33 34  1  0  0  0  0
 33114  1  0  0  0  0
 34 35  1  0  0  0  0
 34 37  1  0  0  0  0
 34115  1  6  0  0  0
 35 36  2  0  0  0  0
 35 41  1  0  0  0  0
 37 38  1  0  0  0  0
 37116  1  0  0  0  0
 37117  1  0  0  0  0
 38 39  1  0  0  0  0
 38118  1  0  0  0  0
 38119  1  0  0  0  0
 39 40  1  0  0  0  0
 40120  1  0  0  0  0
 40121  1  0  0  0  0
 40122  1  0  0  0  0
 41 42  1  0  0  0  0
 41123  1  0  0  0  0
 42 43  1  0  0  0  0
 42 50  1  0  0  0  0
 42124  1  1  0  0  0
 43 44  1  0  0  0  0
 43 45  1  0  0  0  0
 43125  1  6  0  0  0
 44126  1  0  0  0  0
 44127  1  0  0  0  0
 44128  1  0  0  0  0
 45 46  1  0  0  0  0
 46 47  1  0  0  0  0
 46 48  1  0  0  0  0
 46 49  2  0  0  0  0
 50 51  2  0  0  0  0
 50 52  1  0  0  0  0
 52 53  1  0  0  0  0
 52129  1  0  0  0  0
 53 54  1  0  0  0  0
 53 56  1  0  0  0  0
 53130  1  6  0  0  0
 54 55  2  0  0  0  0
 54 61  1  0  0  0  0
 56 57  1  0  0  0  0
 56131  1  0  0  0  0
 56132  1  0  0  0  0
 57 58  1  0  0  0  0
 57133  1  0  0  0  0
 57134  1  0  0  0  0
 58 59  1  0  0  0  0
 58 60  2  0  0  0  0
 61 62  1  0  0  0  0
 61135  1  0  0  0  0
 62 63  1  0  0  0  0
 62 65  1  0  0  0  0
 62136  1  6  0  0  0
 63 64  2  0  0  0  0
 63 77  1  0  0  0  0
 65 66  1  0  0  0  0
 65137  1  0  0  0  0
 65138  1  0  0  0  0
 66 67  2  0  0  0  0
 66 68  1  0  0  0  0
 67 69  1  0  0  0  0
 67139  1  0  0  0  0
 68 70  2  0  0  0  0
 68140  1  0  0  0  0
 69 71  2  0  0  0  0
 69141  1  0  0  0  0
 70 71  1  0  0  0  0
 70142  1  0  0  0  0
 71 72  1  0  0  0  0
 72 73  1  0  0  0  0
 73 74  1  0  0  0  0
 73 75  1  0  0  0  0
 73 76  2  0  0  0  0
 77 78  1  0  0  0  0
 77143  1  0  0  0  0
 78 79  1  0  0  0  0
 78144  1  0  0  0  0
 78145  1  0  0  0  0
 79 80  2  0  0  0  0
 79 81  1  0  0  0  0
 81 82  1  0  0  0  0
 81146  1  0  0  0  0
 82 83  1  0  0  0  0
 82 85  1  0  0  0  0
 82147  1  6  0  0  0
 83 84  2  0  0  0  0
 83148  1  0  0  0  0
 85149  1  0  0  0  0
 85150  1  0  0  0  0
 85151  1  0  0  0  0
M  CHG  2   1   1  59  -1
M  END
