2q93_ligand
 OpenBabel08222323343D

 25 26  0  0  0  0  0  0  0  0999 V2000
   -6.7130    0.5580   10.3940 C   0  0  0  0  0  0  0  0  0  0  0  0
   -5.5430   -0.2640   10.3320 O   0  0  0  0  0  0  0  0  0  0  0  0
   -5.5330   -0.9980    9.1910 C   0  0  0  0  0  0  0  0  0  0  0  0
   -6.7030   -1.5420    8.6880 C   0  0  0  0  0  0  0  0  0  0  0  0
   -6.6890   -2.3080    7.5280 C   0  0  0  0  0  0  0  0  0  0  0  0
   -5.4820   -2.5300    6.8590 C   0  0  0  0  0  0  0  0  0  0  0  0
   -4.3140   -1.9880    7.3590 C   0  0  0  0  0  0  0  0  0  0  0  0
   -4.3260   -1.2260    8.5200 C   0  0  0  0  0  0  0  0  0  0  0  0
   -3.1240   -0.7230    9.0120 C   0  0  0  0  0  0  0  0  0  0  0  0
   -2.0230   -0.6610    8.2080 O   0  0  0  0  0  0  0  0  0  0  0  0
   -2.7990   -0.3240   10.2330 C   0  0  0  0  0  0  0  0  0  0  0  0
   -1.5040   -0.0070   10.2550 C   0  0  0  0  0  0  0  0  0  0  0  0
   -1.0270   -0.2130    9.0240 C   0  0  0  0  0  0  0  0  0  0  0  0
    0.4210   -0.0290    8.5760 C   0  0  0  0  0  0  0  0  0  0  0  0
    0.6760   -0.2470    7.3690 O   0  5  0  0  0  0  0  0  0  0  0  0
    1.2720    0.3200    9.4250 O   0  0  0  0  0  0  0  0  0  0  0  0
   -6.7008    1.1434   11.3252 H   0  0  0  0  0  0  0  0  0  0  0  0
   -7.6099   -0.0785   10.3728 H   0  0  0  0  0  0  0  0  0  0  0  0
   -6.7275    1.2409    9.5318 H   0  0  0  0  0  0  0  0  0  0  0  0
   -7.6401   -1.3686    9.2045 H   0  0  0  0  0  0  0  0  0  0  0  0
   -7.6101   -2.7313    7.1440 H   0  0  0  0  0  0  0  0  0  0  0  0
   -5.4626   -3.1243    5.9526 H   0  0  0  0  0  0  0  0  0  0  0  0
   -3.3780   -2.1593    6.8396 H   0  0  0  0  0  0  0  0  0  0  0  0
   -3.4794   -0.2646   11.0812 H   0  0  0  0  0  0  0  0  0  0  0  0
   -0.9408    0.3524   11.1150 H   0  0  0  0  0  0  0  0  0  0  0  0
  1  2  1  0  0  0  0
  1 17  1  0  0  0  0
  1 18  1  0  0  0  0
  1 19  1  0  0  0  0
  2  3  1  0  0  0  0
  3  4  2  0  0  0  0
  3  8  1  0  0  0  0
  4  5  1  0  0  0  0
  4 20  1  0  0  0  0
  5  6  2  0  0  0  0
  5 21  1  0  0  0  0
  6  7  1  0  0  0  0
  6 22  1  0  0  0  0
  7  8  2  0  0  0  0
  7 23  1  0  0  0  0
  8  9  1  0  0  0  0
  9 10  1  0  0  0  0
  9 11  2  0  0  0  0
 10 13  1  0  0  0  0
 11 12  1  0  0  0  0
 11 24  1  0  0  0  0
 12 13  2  0  0  0  0
 12 25  1  0  0  0  0
 13 14  1  0  0  0  0
 14 15  1  0  0  0  0
 14 16  2  0  0  0  0
M  CHG  1  15  -1
M  END
