2qaf_ligand
 OpenBabel08222323343D

 32 33  0  0  1  0  0  0  0  0999 V2000
   23.8020  -31.9150  -31.3760 N   0  0  0  0  0  0  0  0  0  0  0  0
   23.7300  -33.1870  -31.7920 C   0  0  0  0  0  0  0  0  0  0  0  0
   22.6930  -33.6280  -32.5120 N   0  0  0  0  0  0  0  0  0  0  0  0
   21.7190  -32.7760  -32.8460 C   0  0  0  0  0  0  0  0  0  0  0  0
   21.7050  -31.4650  -32.4190 C   0  0  0  0  0  0  0  0  0  0  0  0
   22.7990  -31.0610  -31.6700 C   0  0  0  0  0  0  0  0  0  0  0  0
   24.5970  -34.0320  -31.5010 O   0  0  0  0  0  0  0  0  0  0  0  0
   20.7890  -33.1930  -33.5190 O   0  0  0  0  0  0  0  0  0  0  0  0
   24.9990  -31.4630  -30.6650 C   0  0  1  0  0  0  0  0  0  0  0  0
   25.5080  -32.0950  -29.3890 C   0  0  2  0  0  0  0  0  0  0  0  0
   24.9780  -31.1900  -28.4020 O   0  0  0  0  0  0  0  0  0  0  0  0
   27.0030  -31.8810  -29.5780 C   0  0  1  0  0  0  0  0  0  0  0  0
   27.2580  -32.0670  -31.0660 C   0  0  2  0  0  0  0  0  0  0  0  0
   27.3500  -30.5020  -29.3350 O   0  0  0  0  0  0  0  0  0  0  0  0
   26.0310  -31.6040  -31.6510 O   0  0  0  0  0  0  0  0  0  0  0  0
   27.5930  -33.5280  -31.3950 C   0  0  0  0  0  0  0  0  0  0  0  0
   28.9420  -33.7680  -30.9910 O   0  0  0  0  0  0  0  0  0  0  0  0
   29.6440  -35.2220  -30.9500 P   0  0  0  0  0  0  0  0  0  0  0  0
   30.5380  -35.1180  -29.7520 O   0  0  0  0  0  1  0  0  0  0  0  0
   28.6010  -36.2660  -30.7780 O   0  0  0  0  0  1  0  0  0  0  0  0
   30.4060  -35.3400  -32.2500 O   0  0  0  0  0  0  0  0  0  0  0  0
   22.6468  -34.5853  -32.7975 H   0  0  0  0  0  0  0  0  0  0  0  0
   20.8849  -30.7887  -32.6557 H   0  0  0  0  0  0  0  0  0  0  0  0
   22.8503  -30.0340  -31.3115 H   0  0  0  0  0  0  0  0  0  0  0  0
   24.8432  -30.3994  -30.4316 H   0  0  0  0  0  0  0  0  0  0  0  0
   25.2249  -33.1448  -29.2225 H   0  0  0  0  0  0  0  0  0  0  0  0
   24.0303  -31.1738  -28.4653 H   0  0  0  0  0  0  0  0  0  0  0  0
   27.5922  -32.5684  -28.9533 H   0  0  0  0  0  0  0  0  0  0  0  0
   28.0959  -31.4362  -31.3976 H   0  0  0  0  0  0  0  0  0  0  0  0
   28.2614  -30.3610  -29.5631 H   0  0  0  0  0  0  0  0  0  0  0  0
   27.4898  -33.7013  -32.4763 H   0  0  0  0  0  0  0  0  0  0  0  0
   26.9139  -34.1997  -30.8495 H   0  0  0  0  0  0  0  0  0  0  0  0
  1  2  1  0  0  0  0
  1  6  1  0  0  0  0
  1  9  1  0  0  0  0
  2  3  1  0  0  0  0
  2  7  2  0  0  0  0
  3  4  1  0  0  0  0
  3 22  1  0  0  0  0
  4  5  1  0  0  0  0
  4  8  2  0  0  0  0
  5  6  2  0  0  0  0
  5 23  1  0  0  0  0
  6 24  1  0  0  0  0
  9 10  1  0  0  0  0
  9 15  1  0  0  0  0
  9 25  1  1  0  0  0
 10 11  1  0  0  0  0
 10 12  1  0  0  0  0
 10 26  1  1  0  0  0
 11 27  1  0  0  0  0
 12 13  1  0  0  0  0
 12 14  1  0  0  0  0
 12 28  1  1  0  0  0
 13 15  1  0  0  0  0
 13 16  1  0  0  0  0
 13 29  1  6  0  0  0
 14 30  1  0  0  0  0
 16 17  1  0  0  0  0
 16 31  1  0  0  0  0
 16 32  1  0  0  0  0
 17 18  1  0  0  0  0
 18 19  1  0  0  0  0
 18 20  1  0  0  0  0
 18 21  2  0  0  0  0
M  END
