2qcg_ligand
 OpenBabel08222323343D

 32 33  0  0  1  0  0  0  0  0999 V2000
    3.7020   13.3990   29.8730 P   0  0  0  0  0  0  0  0  0  0  0  0
    4.5670   14.1280   30.8970 O   0  0  0  0  0  1  0  0  0  0  0  0
    3.7400   14.1180   28.5130 O   0  0  0  0  0  1  0  0  0  0  0  0
    2.3300   13.1380   30.3440 O   0  0  0  0  0  0  0  0  0  0  0  0
    4.4390   11.9460   29.7280 O   0  0  0  0  0  0  0  0  0  0  0  0
    4.0100   10.9210   28.7840 C   0  0  0  0  0  0  0  0  0  0  0  0
    4.9730    9.6690   28.8810 C   0  0  1  0  0  0  0  0  0  0  0  0
    4.5350    8.7520   27.8940 O   0  0  0  0  0  0  0  0  0  0  0  0
    6.4700    9.9660   28.6340 C   0  0  1  0  0  0  0  0  0  0  0  0
    7.3430    9.2230   29.5220 O   0  0  0  0  0  0  0  0  0  0  0  0
    6.6990    9.5020   27.2300 C   0  0  1  0  0  0  0  0  0  0  0  0
    8.0300    9.0690   26.9530 O   0  0  0  0  0  0  0  0  0  0  0  0
    5.6830    8.4430   27.0230 C   0  0  2  0  0  0  0  0  0  0  0  0
    5.1920    8.3840   25.6570 N   0  0  0  0  0  0  0  0  0  0  0  0
    4.4250    9.4100   25.0670 C   0  0  0  0  0  0  0  0  0  0  0  0
    4.1200   10.5070   25.7090 O   0  0  0  0  0  0  0  0  0  0  0  0
    3.9620    9.2240   23.7700 N   0  0  0  0  0  0  0  0  0  0  0  0
    4.2740    8.0900   23.0710 C   0  0  0  0  0  0  0  0  0  0  0  0
    3.7840    8.0350   21.8660 O   0  0  0  0  0  0  0  0  0  0  0  0
    5.1010    7.0890   23.7020 C   0  0  0  0  0  0  0  0  0  0  0  0
    5.5280    7.2770   24.9800 C   0  0  0  0  0  0  0  0  0  0  0  0
    5.7240    5.4100   22.9170 Br  0  0  0  0  0  0  0  0  0  0  0  0
    4.0418   11.3283   27.7627 H   0  0  0  0  0  0  0  0  0  0  0  0
    2.9821   10.6109   29.0233 H   0  0  0  0  0  0  0  0  0  0  0  0
    4.8706    9.2239   29.8817 H   0  0  0  0  0  0  0  0  0  0  0  0
    6.6713   11.0425   28.7370 H   0  0  0  0  0  0  0  0  0  0  0  0
    7.1455    9.4516   30.4228 H   0  0  0  0  0  0  0  0  0  0  0  0
    6.4868   10.3371   26.5462 H   0  0  0  0  0  0  0  0  0  0  0  0
    8.0896    8.7927   26.0460 H   0  0  0  0  0  0  0  0  0  0  0  0
    6.1162    7.4688   27.2937 H   0  0  0  0  0  0  0  0  0  0  0  0
    3.3940    9.9273   23.3425 H   0  0  0  0  0  0  0  0  0  0  0  0
    6.1489    6.5206   25.4577 H   0  0  0  0  0  0  0  0  0  0  0  0
  1  2  1  0  0  0  0
  1  3  1  0  0  0  0
  1  4  2  0  0  0  0
  1  5  1  0  0  0  0
  5  6  1  0  0  0  0
  6  7  1  0  0  0  0
  6 23  1  0  0  0  0
  6 24  1  0  0  0  0
  7  8  1  0  0  0  0
  7  9  1  0  0  0  0
  7 25  1  1  0  0  0
  8 13  1  0  0  0  0
  9 10  1  0  0  0  0
  9 11  1  0  0  0  0
  9 26  1  1  0  0  0
 10 27  1  0  0  0  0
 11 12  1  0  0  0  0
 11 13  1  0  0  0  0
 11 28  1  6  0  0  0
 12 29  1  0  0  0  0
 13 14  1  0  0  0  0
 13 30  1  1  0  0  0
 14 15  1  0  0  0  0
 14 21  1  0  0  0  0
 15 16  2  0  0  0  0
 15 17  1  0  0  0  0
 17 18  1  0  0  0  0
 17 31  1  0  0  0  0
 18 19  2  0  0  0  0
 18 20  1  0  0  0  0
 20 21  2  0  0  0  0
 20 22  1  0  0  0  0
 21 32  1  0  0  0  0
M  END
