2qd9_ligand
 OpenBabel08222323343D

 64 69  0  0  1  0  0  0  0  0999 V2000
   -5.1970    0.8110   16.0660 C   0  0  0  0  0  0  0  0  0  0  0  0
   -1.1390   -1.6720   24.8540 C   0  0  0  0  0  0  0  0  0  0  0  0
   -1.6310   -2.2060   23.4880 C   0  0  0  0  0  0  0  0  0  0  0  0
   -3.1990    1.7070   17.1910 C   0  0  0  0  0  0  0  0  0  0  0  0
   -1.9510   -1.8190   25.9190 C   0  0  0  0  0  0  0  0  0  0  0  0
    0.1860   -0.9190   24.9690 C   0  0  0  0  0  0  0  0  0  0  0  0
   -0.2310   -0.6320   27.1240 C   0  0  0  0  0  0  0  0  0  0  0  0
   -1.3700   -1.2650   27.1320 C   0  0  0  0  0  0  0  0  0  0  0  0
   -1.9240   -1.2560   28.5060 C   0  0  0  0  0  0  0  0  0  0  0  0
   -5.1530    0.8710   18.3680 C   0  0  0  0  0  0  0  0  0  0  0  0
   -5.8630    0.5360   17.1740 C   0  0  0  0  0  0  0  0  0  0  0  0
   -3.1870   -1.8730   29.0110 C   0  0  0  0  0  0  0  0  0  0  0  0
   -5.7360    0.3790   14.9510 F   0  0  0  0  0  0  0  0  0  0  0  0
   -3.9000    1.3950   16.0670 C   0  0  0  0  0  0  0  0  0  0  0  0
   -5.7910    0.5110   19.5240 F   0  0  0  0  0  0  0  0  0  0  0  0
   -3.8760    1.3600   18.4250 C   0  0  0  0  0  0  0  0  0  0  0  0
   -3.2220    1.5840   19.7610 C   0  0  0  0  0  0  0  0  0  0  0  0
   -2.7010    2.6700   20.2160 N   0  0  0  0  0  0  0  0  0  0  0  0
   -2.8910    0.5150   20.6160 N   0  0  0  0  0  0  0  0  0  0  0  0
   -2.2000    1.0350   21.6110 C   0  0  0  0  0  0  0  0  0  0  0  0
   -2.0610    2.3530   21.4570 C   0  0  0  0  0  0  0  0  0  0  0  0
   -1.6440    0.2260   22.6970 C   0  0  0  0  0  0  0  0  0  0  0  0
   -1.9080   -1.1750   22.4590 N   0  0  0  0  0  0  0  0  0  0  0  0
   -2.0920   -1.7360   21.0890 C   0  0  0  0  0  0  0  0  0  0  0  0
   -3.2270   -0.9140   20.4330 C   0  0  0  0  0  0  0  0  0  0  0  0
   -1.7520   -3.3570   23.1670 O   0  0  0  0  0  0  0  0  0  0  0  0
    0.0150   -0.2090   28.3880 N   0  0  0  0  0  0  0  0  0  0  0  0
   -1.0250   -0.5800   29.2420 C   0  0  0  0  0  0  0  0  0  0  0  0
    0.5780   -0.4660   26.0620 N   0  0  0  0  0  0  0  0  0  0  0  0
    0.9070   -0.7750   23.8330 O   0  0  0  0  0  0  0  0  0  0  0  0
    2.1800   -0.0500   23.9140 C   0  0  0  0  0  0  0  0  0  0  0  0
   -3.8580   -2.6410   28.3010 O   0  0  0  0  0  0  0  0  0  0  0  0
   -3.6340   -1.6020   30.4450 C   0  0  0  0  0  0  0  0  0  0  0  0
   -3.4460   -0.4910   30.9570 O   0  0  0  0  0  0  0  0  0  0  0  0
   -4.2140   -2.5750   31.2580 N   0  0  0  0  0  0  0  0  0  0  0  0
   -3.6840   -3.8920   31.4860 C   0  0  0  0  0  0  0  0  0  0  0  0
   -5.0400   -4.5980   31.4630 C   0  0  2  0  0  0  0  0  0  0  0  0
   -5.5640   -4.6960   30.1400 O   0  0  0  0  0  0  0  0  0  0  0  0
   -5.8970   -3.7630   32.4010 C   0  0  0  0  0  0  0  0  0  0  0  0
   -5.4650   -2.3350   31.9840 C   0  0  0  0  0  0  0  0  0  0  0  0
   -2.2209    2.1737   17.1658 H   0  0  0  0  0  0  0  0  0  0  0  0
   -2.9241   -2.2948   25.8768 H   0  0  0  0  0  0  0  0  0  0  0  0
   -6.8544    0.0976   17.1767 H   0  0  0  0  0  0  0  0  0  0  0  0
   -3.4392    1.6056   15.1087 H   0  0  0  0  0  0  0  0  0  0  0  0
   -1.5635    3.0448   22.1351 H   0  0  0  0  0  0  0  0  0  0  0  0
   -2.1070    0.5268   23.6484 H   0  0  0  0  0  0  0  0  0  0  0  0
   -0.5572    0.3872   22.7510 H   0  0  0  0  0  0  0  0  0  0  0  0
   -2.3747   -2.7975   21.1467 H   0  0  0  0  0  0  0  0  0  0  0  0
   -1.1635   -1.6348   20.5079 H   0  0  0  0  0  0  0  0  0  0  0  0
   -3.2938   -1.1516   19.3611 H   0  0  0  0  0  0  0  0  0  0  0  0
   -4.1870   -1.1412   20.9195 H   0  0  0  0  0  0  0  0  0  0  0  0
    0.8535    0.3140   28.6783 H   0  0  0  0  0  0  0  0  0  0  0  0
   -1.0950   -0.3622   30.3067 H   0  0  0  0  0  0  0  0  0  0  0  0
    2.6464   -0.0157   22.9184 H   0  0  0  0  0  0  0  0  0  0  0  0
    2.8517   -0.5658   24.6159 H   0  0  0  0  0  0  0  0  0  0  0  0
    1.9963    0.9750   24.2683 H   0  0  0  0  0  0  0  0  0  0  0  0
   -3.1703   -3.9844   32.4543 H   0  0  0  0  0  0  0  0  0  0  0  0
   -3.0133   -4.2281   30.6815 H   0  0  0  0  0  0  0  0  0  0  0  0
   -4.9398   -5.6170   31.8650 H   0  0  0  0  0  0  0  0  0  0  0  0
   -6.4042   -5.1387   30.1653 H   0  0  0  0  0  0  0  0  0  0  0  0
   -5.6610   -3.9666   33.4559 H   0  0  0  0  0  0  0  0  0  0  0  0
   -6.9702   -3.9295   32.2266 H   0  0  0  0  0  0  0  0  0  0  0  0
   -6.2180   -1.8673   31.3327 H   0  0  0  0  0  0  0  0  0  0  0  0
   -5.2963   -1.6986   32.8652 H   0  0  0  0  0  0  0  0  0  0  0  0
  1 13  1  0  0  0  0
  2  5  2  0  0  0  0
  2  6  1  0  0  0  0
  3  2  1  0  0  0  0
  3 26  2  0  0  0  0
  4 14  2  0  0  0  0
  4 41  1  0  0  0  0
  5  8  1  0  0  0  0
  5 42  1  0  0  0  0
  6 29  2  0  0  0  0
  6 30  1  0  0  0  0
  7 27  1  0  0  0  0
  8  7  2  0  0  0  0
  8  9  1  0  0  0  0
  9 12  1  0  0  0  0
  9 28  2  0  0  0  0
 10 11  1  0  0  0  0
 10 15  1  0  0  0  0
 11  1  2  0  0  0  0
 11 43  1  0  0  0  0
 12 32  2  0  0  0  0
 12 33  1  0  0  0  0
 14  1  1  0  0  0  0
 14 44  1  0  0  0  0
 16  4  1  0  0  0  0
 16 10  2  0  0  0  0
 17 16  1  0  0  0  0
 18 17  2  0  0  0  0
 19 17  1  0  0  0  0
 19 25  1  0  0  0  0
 20 19  1  0  0  0  0
 20 21  2  0  0  0  0
 21 18  1  0  0  0  0
 21 45  1  0  0  0  0
 22 20  1  0  0  0  0
 22 23  1  0  0  0  0
 22 46  1  0  0  0  0
 22 47  1  0  0  0  0
 23  3  1  0  0  0  0
 23 24  1  0  0  0  0
 24 25  1  0  0  0  0
 24 48  1  0  0  0  0
 24 49  1  0  0  0  0
 25 50  1  0  0  0  0
 25 51  1  0  0  0  0
 27 28  1  0  0  0  0
 27 52  1  0  0  0  0
 28 53  1  0  0  0  0
 29  7  1  0  0  0  0
 30 31  1  0  0  0  0
 31 54  1  0  0  0  0
 31 55  1  0  0  0  0
 31 56  1  0  0  0  0
 33 34  2  0  0  0  0
 33 35  1  0  0  0  0
 35 36  1  0  0  0  0
 35 40  1  0  0  0  0
 36 37  1  0  0  0  0
 36 57  1  0  0  0  0
 36 58  1  0  0  0  0
 37 38  1  0  0  0  0
 37 39  1  0  0  0  0
 37 59  1  1  0  0  0
 38 60  1  0  0  0  0
 39 40  1  0  0  0  0
 39 61  1  0  0  0  0
 39 62  1  0  0  0  0
 40 63  1  0  0  0  0
 40 64  1  0  0  0  0
M  END
