2qhc_ligand
 OpenBabel08222323343D

 94 97  0  0  1  0  0  0  0  0999 V2000
  -14.6170   58.9170   10.9060 C   0  0  0  0  0  0  0  0  0  0  0  0
  -14.9180   56.6930    9.6780 C   0  0  0  0  0  0  0  0  0  0  0  0
  -13.4650   56.7080    9.4710 N   0  0  0  0  0  0  0  0  0  0  0  0
  -12.6670   57.6800    9.8870 C   0  0  0  0  0  0  0  0  0  0  0  0
  -13.2170   58.6980   10.5600 N   0  0  0  0  0  0  0  0  0  0  0  0
  -12.9540   51.0240    3.7080 C   0  0  0  0  0  0  0  0  0  0  0  0
  -12.5850   50.0330    2.7930 C   0  0  0  0  0  0  0  0  0  0  0  0
  -13.5170   49.0920    2.3400 C   0  0  0  0  0  0  0  0  0  0  0  0
  -14.8260   49.1410    2.8020 C   0  0  0  0  0  0  0  0  0  0  0  0
  -15.1930   50.1230    3.7250 C   0  0  0  0  0  0  0  0  0  0  0  0
  -14.2710   51.0660    4.1780 C   0  0  0  0  0  0  0  0  0  0  0  0
  -11.4670   57.6290    9.6740 O   0  0  0  0  0  0  0  0  0  0  0  0
  -12.9170   55.5820    8.6970 C   0  0  2  0  0  0  0  0  0  0  0  0
  -13.3970   55.7490    7.2770 C   0  0  0  0  0  0  0  0  0  0  0  0
  -12.5230   56.3260    6.4370 N   0  0  0  0  0  0  0  0  0  0  0  0
  -12.8350   56.5810    5.0280 C   0  0  1  0  0  0  0  0  0  0  0  0
  -13.3000   54.2100    9.2810 C   0  0  0  0  0  0  0  0  0  0  0  0
  -12.8490   53.0460    8.4060 C   0  0  0  0  0  0  0  0  0  0  0  0
  -12.7500   53.9950   10.6880 C   0  0  0  0  0  0  0  0  0  0  0  0
  -14.5330   55.3970    6.9640 O   0  0  0  0  0  0  0  0  0  0  0  0
  -16.0270   59.5560    6.2880 C   0  0  0  0  0  0  0  0  0  0  0  0
  -15.5640   60.3360    7.3470 C   0  0  0  0  0  0  0  0  0  0  0  0
  -14.1970   60.3960    7.6000 C   0  0  0  0  0  0  0  0  0  0  0  0
  -13.3150   59.6720    6.7890 C   0  0  0  0  0  0  0  0  0  0  0  0
  -13.7810   58.8810    5.7300 C   0  0  0  0  0  0  0  0  0  0  0  0
  -15.1520   58.8360    5.4780 C   0  0  0  0  0  0  0  0  0  0  0  0
  -12.7890   58.1080    4.8660 C   0  0  0  0  0  0  0  0  0  0  0  0
  -11.7220   55.9580    4.1660 C   0  0  0  0  0  0  0  0  0  0  0  0
  -11.3400   54.4980    4.4610 C   0  0  1  0  0  0  0  0  0  0  0  0
  -12.3670   53.4660    3.9830 C   0  0  1  0  0  0  0  0  0  0  0  0
  -12.5260   53.5790    2.5330 N   0  0  0  0  0  0  0  0  0  0  0  0
  -13.6880   54.0170    2.0320 C   0  0  0  0  0  0  0  0  0  0  0  0
  -13.8340   54.1130    0.5290 C   0  0  0  0  0  0  0  0  0  0  0  0
  -12.6990   53.5740   -0.1450 O   0  0  0  0  0  0  0  0  0  0  0  0
  -12.8110   53.1830   -1.4520 C   0  0  0  0  0  0  0  0  0  0  0  0
  -10.0960   54.2220    3.8470 O   0  0  0  0  0  0  0  0  0  0  0  0
  -11.9130   52.0240    4.1880 C   0  0  0  0  0  0  0  0  0  0  0  0
  -14.6300   54.3510    2.7390 O   0  0  0  0  0  0  0  0  0  0  0  0
  -12.9250   54.1510   -2.4480 C   0  0  0  0  0  0  0  0  0  0  0  0
  -13.0420   53.7690   -3.7890 C   0  0  0  0  0  0  0  0  0  0  0  0
  -13.0500   52.4230   -4.1400 C   0  0  0  0  0  0  0  0  0  0  0  0
  -12.9320   51.4590   -3.1360 C   0  0  0  0  0  0  0  0  0  0  0  0
  -12.8120   51.8340   -1.7970 C   0  0  0  0  0  0  0  0  0  0  0  0
  -12.6960   50.7570   -0.7500 C   0  0  0  0  0  0  0  0  0  0  0  0
  -12.9210   55.6170   -2.0870 C   0  0  0  0  0  0  0  0  0  0  0  0
  -15.2250   57.5110   10.9490 C   0  0  0  0  0  0  0  0  0  0  0  0
  -15.1147   59.5328   10.1424 H   0  0  0  0  0  0  0  0  0  0  0  0
  -14.7032   59.4082   11.8865 H   0  0  0  0  0  0  0  0  0  0  0  0
  -15.2664   55.6576    9.8069 H   0  0  0  0  0  0  0  0  0  0  0  0
  -15.4235   57.1448    8.8118 H   0  0  0  0  0  0  0  0  0  0  0  0
  -12.5808   59.4055   10.8678 H   0  0  0  0  0  0  0  0  0  0  0  0
  -11.5644   49.9930    2.4300 H   0  0  0  0  0  0  0  0  0  0  0  0
  -13.2183   48.3280    1.6314 H   0  0  0  0  0  0  0  0  0  0  0  0
  -15.5571   48.4227    2.4490 H   0  0  0  0  0  0  0  0  0  0  0  0
  -16.2114   50.1526    4.0953 H   0  0  0  0  0  0  0  0  0  0  0  0
  -14.5726   51.8263    4.8894 H   0  0  0  0  0  0  0  0  0  0  0  0
  -11.8193   55.6517    8.7083 H   0  0  0  0  0  0  0  0  0  0  0  0
  -11.6245   56.5920    6.7862 H   0  0  0  0  0  0  0  0  0  0  0  0
  -13.8196   56.1758    4.7517 H   0  0  0  0  0  0  0  0  0  0  0  0
  -14.3980   54.1812    9.3399 H   0  0  0  0  0  0  0  0  0  0  0  0
  -13.1502   52.0972    8.8741 H   0  0  0  0  0  0  0  0  0  0  0  0
  -11.7545   53.0706    8.2986 H   0  0  0  0  0  0  0  0  0  0  0  0
  -13.3168   53.1302    7.4140 H   0  0  0  0  0  0  0  0  0  0  0  0
  -13.0652   54.8262   11.3359 H   0  0  0  0  0  0  0  0  0  0  0  0
  -11.6514   53.9559   10.6502 H   0  0  0  0  0  0  0  0  0  0  0  0
  -13.1370   53.0480   11.0922 H   0  0  0  0  0  0  0  0  0  0  0  0
  -17.0918   59.5089    6.0907 H   0  0  0  0  0  0  0  0  0  0  0  0
  -16.2609   60.8893    7.9661 H   0  0  0  0  0  0  0  0  0  0  0  0
  -13.8183   60.9981    8.4180 H   0  0  0  0  0  0  0  0  0  0  0  0
  -12.2500   59.7242    6.9841 H   0  0  0  0  0  0  0  0  0  0  0  0
  -15.5350   58.2432    4.6552 H   0  0  0  0  0  0  0  0  0  0  0  0
  -12.9978   58.3453    3.8124 H   0  0  0  0  0  0  0  0  0  0  0  0
  -11.7752   58.4477    5.1245 H   0  0  0  0  0  0  0  0  0  0  0  0
  -10.8179   56.5702    4.2995 H   0  0  0  0  0  0  0  0  0  0  0  0
  -12.0480   56.0094    3.1167 H   0  0  0  0  0  0  0  0  0  0  0  0
  -11.2341   54.3896    5.5505 H   0  0  0  0  0  0  0  0  0  0  0  0
  -13.3220   53.6409    4.5001 H   0  0  0  0  0  0  0  0  0  0  0  0
  -11.7741   53.3315    1.9219 H   0  0  0  0  0  0  0  0  0  0  0  0
  -13.9466   55.1706    0.2483 H   0  0  0  0  0  0  0  0  0  0  0  0
  -14.7302   53.5544    0.2212 H   0  0  0  0  0  0  0  0  0  0  0  0
   -9.8116   53.3484    4.0889 H   0  0  0  0  0  0  0  0  0  0  0  0
  -10.9805   51.8624    3.6273 H   0  0  0  0  0  0  0  0  0  0  0  0
  -11.7297   51.8586    5.2599 H   0  0  0  0  0  0  0  0  0  0  0  0
  -13.1270   54.5269   -4.5594 H   0  0  0  0  0  0  0  0  0  0  0  0
  -13.1465   52.1263   -5.1781 H   0  0  0  0  0  0  0  0  0  0  0  0
  -12.9336   50.4076   -3.3999 H   0  0  0  0  0  0  0  0  0  0  0  0
  -12.6099   51.2199    0.2441 H   0  0  0  0  0  0  0  0  0  0  0  0
  -11.8026   50.1469   -0.9490 H   0  0  0  0  0  0  0  0  0  0  0  0
  -13.5908   50.1179   -0.7806 H   0  0  0  0  0  0  0  0  0  0  0  0
  -12.8218   55.7259   -0.9969 H   0  0  0  0  0  0  0  0  0  0  0  0
  -13.8632   56.0786   -2.4173 H   0  0  0  0  0  0  0  0  0  0  0  0
  -12.0750   56.1146   -2.5836 H   0  0  0  0  0  0  0  0  0  0  0  0
  -16.3161   57.6020   11.0543 H   0  0  0  0  0  0  0  0  0  0  0  0
  -14.8159   56.9767   11.8191 H   0  0  0  0  0  0  0  0  0  0  0  0
  1 47  1  0  0  0  0
  1 48  1  0  0  0  0
  2 46  1  0  0  0  0
  2 49  1  0  0  0  0
  2 50  1  0  0  0  0
  3  2  1  0  0  0  0
  3  4  1  0  0  0  0
  4  5  1  0  0  0  0
  4 12  2  0  0  0  0
  5  1  1  0  0  0  0
  5 51  1  0  0  0  0
  6  7  2  0  0  0  0
  6 11  1  0  0  0  0
  7  8  1  0  0  0  0
  7 52  1  0  0  0  0
  8  9  2  0  0  0  0
  8 53  1  0  0  0  0
  9 54  1  0  0  0  0
 10  9  1  0  0  0  0
 10 55  1  0  0  0  0
 11 10  2  0  0  0  0
 11 56  1  0  0  0  0
 13  3  1  0  0  0  0
 13 17  1  0  0  0  0
 13 57  1  1  0  0  0
 14 13  1  0  0  0  0
 14 20  2  0  0  0  0
 15 14  1  0  0  0  0
 15 58  1  0  0  0  0
 16 15  1  0  0  0  0
 16 27  1  0  0  0  0
 16 59  1  6  0  0  0
 17 18  1  0  0  0  0
 17 19  1  0  0  0  0
 17 60  1  0  0  0  0
 18 61  1  0  0  0  0
 18 62  1  0  0  0  0
 18 63  1  0  0  0  0
 19 64  1  0  0  0  0
 19 65  1  0  0  0  0
 19 66  1  0  0  0  0
 21 22  2  0  0  0  0
 21 67  1  0  0  0  0
 22 68  1  0  0  0  0
 23 22  1  0  0  0  0
 23 69  1  0  0  0  0
 24 23  2  0  0  0  0
 24 70  1  0  0  0  0
 25 24  1  0  0  0  0
 25 26  2  0  0  0  0
 26 21  1  0  0  0  0
 26 71  1  0  0  0  0
 27 25  1  0  0  0  0
 27 72  1  0  0  0  0
 27 73  1  0  0  0  0
 28 16  1  0  0  0  0
 28 74  1  0  0  0  0
 28 75  1  0  0  0  0
 29 28  1  0  0  0  0
 29 36  1  0  0  0  0
 29 76  1  1  0  0  0
 30 29  1  0  0  0  0
 30 31  1  0  0  0  0
 30 37  1  0  0  0  0
 30 77  1  1  0  0  0
 31 32  1  0  0  0  0
 31 78  1  0  0  0  0
 32 33  1  0  0  0  0
 32 38  2  0  0  0  0
 33 34  1  0  0  0  0
 33 79  1  0  0  0  0
 33 80  1  0  0  0  0
 34 35  1  0  0  0  0
 35 39  2  0  0  0  0
 35 43  1  0  0  0  0
 36 81  1  0  0  0  0
 37  6  1  0  0  0  0
 37 82  1  0  0  0  0
 37 83  1  0  0  0  0
 39 40  1  0  0  0  0
 39 45  1  0  0  0  0
 40 41  2  0  0  0  0
 40 84  1  0  0  0  0
 41 42  1  0  0  0  0
 41 85  1  0  0  0  0
 42 43  2  0  0  0  0
 42 86  1  0  0  0  0
 43 44  1  0  0  0  0
 44 87  1  0  0  0  0
 44 88  1  0  0  0  0
 44 89  1  0  0  0  0
 45 90  1  0  0  0  0
 45 91  1  0  0  0  0
 45 92  1  0  0  0  0
 46  1  1  0  0  0  0
 46 93  1  0  0  0  0
 46 94  1  0  0  0  0
M  END
