2qhm_ligand
 OpenBabel08222323343D

 41 44  0  0  1  0  0  0  0  0999 V2000
   13.8370   -1.3160   10.8560 C   0  0  0  0  0  0  0  0  0  0  0  0
   12.2160   -2.3190   12.1620 O   0  0  0  0  0  0  0  0  0  0  0  0
   16.4680   -5.4170   16.3680 C   0  0  0  0  0  0  0  0  0  0  0  0
   13.3400   -2.2880   11.7160 C   0  0  0  0  0  0  0  0  0  0  0  0
   13.1870   -0.2350   10.3460 C   0  0  0  0  0  0  0  0  0  0  0  0
   14.2450   -3.2380   12.0760 O   0  0  0  0  0  0  0  0  0  0  0  0
   16.1430   -2.9440   14.3900 C   0  0  0  0  0  0  0  0  0  0  0  0
   16.8130   -4.0020   13.5420 C   0  0  0  0  0  0  0  0  0  0  0  0
   15.6680   -4.9830   15.1890 N   0  3  2  0  0  0  0  0  0  0  0  0
   16.1490   -5.3540   13.7870 C   0  0  1  0  0  0  0  0  0  0  0  0
   14.9060   -5.4910   12.9380 C   0  0  0  0  0  0  0  0  0  0  0  0
   15.0470   -3.5920   15.2380 C   0  0  2  0  0  0  0  0  0  0  0  0
   13.7200   -3.6970   14.5090 C   0  0  0  0  0  0  0  0  0  0  0  0
   13.8970   -4.3220   13.0530 C   0  0  1  0  0  0  0  0  0  0  0  0
   17.6560   -0.3570    8.8730 C   0  0  0  0  0  0  0  0  0  0  0  0
   16.4400    0.4320    8.8490 N   0  0  0  0  0  0  0  0  0  0  0  0
   15.2540   -0.0220    9.5040 C   0  0  0  0  0  0  0  0  0  0  0  0
   15.1770   -1.2220   10.3020 C   0  0  0  0  0  0  0  0  0  0  0  0
   16.4230   -2.0040   10.3650 C   0  0  0  0  0  0  0  0  0  0  0  0
   17.6850   -1.6040    9.6250 C   0  0  0  0  0  0  0  0  0  0  0  0
   14.0100    0.5880    9.5780 N   0  0  0  0  0  0  0  0  0  0  0  0
   16.8526   -6.4331   16.1962 H   0  0  0  0  0  0  0  0  0  0  0  0
   15.8312   -5.4128   17.2649 H   0  0  0  0  0  0  0  0  0  0  0  0
   17.3111   -4.7257   16.5137 H   0  0  0  0  0  0  0  0  0  0  0  0
   12.1311   -0.0330   10.5199 H   0  0  0  0  0  0  0  0  0  0  0  0
   15.6978   -2.1783   13.7377 H   0  0  0  0  0  0  0  0  0  0  0  0
   16.8885   -2.4756   15.0494 H   0  0  0  0  0  0  0  0  0  0  0  0
   17.8783   -4.0641   13.8090 H   0  0  0  0  0  0  0  0  0  0  0  0
   16.7163   -3.7344   12.4795 H   0  0  0  0  0  0  0  0  0  0  0  0
   14.8581   -5.5750   15.2872 H   0  0  0  0  0  0  0  0  0  0  0  0
   16.8156   -6.2260   13.7152 H   0  0  0  0  0  0  0  0  0  0  0  0
   14.3906   -6.4159   13.2360 H   0  0  0  0  0  0  0  0  0  0  0  0
   15.2190   -5.5681   11.8863 H   0  0  0  0  0  0  0  0  0  0  0  0
   14.9328   -3.1538   16.2404 H   0  0  0  0  0  0  0  0  0  0  0  0
   13.2840   -2.6915   14.4150 H   0  0  0  0  0  0  0  0  0  0  0  0
   13.0422   -4.3376   15.0922 H   0  0  0  0  0  0  0  0  0  0  0  0
   12.9160   -4.7281   12.7653 H   0  0  0  0  0  0  0  0  0  0  0  0
   18.5359   -0.0218    8.3360 H   0  0  0  0  0  0  0  0  0  0  0  0
   16.4390   -2.9054   10.9669 H   0  0  0  0  0  0  0  0  0  0  0  0
   18.5747   -2.2226    9.6547 H   0  0  0  0  0  0  0  0  0  0  0  0
   13.7435    1.4839    9.1453 H   0  0  0  0  0  0  0  0  0  0  0  0
  1  4  1  0  0  0  0
  1  5  2  0  0  0  0
  3 22  1  0  0  0  0
  3 23  1  0  0  0  0
  3 24  1  0  0  0  0
  4  2  2  0  0  0  0
  4  6  1  0  0  0  0
  5 21  1  0  0  0  0
  5 25  1  0  0  0  0
  6 14  1  0  0  0  0
  7  8  1  0  0  0  0
  7 26  1  0  0  0  0
  7 27  1  0  0  0  0
  8 28  1  0  0  0  0
  8 29  1  0  0  0  0
  9  3  1  0  0  0  0
  9 30  1  1  0  0  0
 10  8  1  0  0  0  0
 10  9  1  0  0  0  0
 10 31  1  6  0  0  0
 11 10  1  0  0  0  0
 11 32  1  0  0  0  0
 11 33  1  0  0  0  0
 12  7  1  0  0  0  0
 12  9  1  0  0  0  0
 12 34  1  1  0  0  0
 13 12  1  0  0  0  0
 13 35  1  0  0  0  0
 13 36  1  0  0  0  0
 14 11  1  0  0  0  0
 14 13  1  0  0  0  0
 14 37  1  6  0  0  0
 15 20  1  0  0  0  0
 15 38  1  0  0  0  0
 16 15  2  0  0  0  0
 17 16  1  0  0  0  0
 17 18  2  0  0  0  0
 17 21  1  0  0  0  0
 18  1  1  0  0  0  0
 18 19  1  0  0  0  0
 19 20  2  0  0  0  0
 19 39  1  0  0  0  0
 20 40  1  0  0  0  0
 21 41  1  0  0  0  0
M  CHG  1   9   1
M  END
