2qhr_ligand
 OpenBabel08222323343D

185186  0  0  1  0  0  0  0  0999 V2000
   71.0930  -27.1170   48.6220 N   0  3  0  0  0  0  0  0  0  0  0  0
   71.9450  -25.9880   48.9640 C   0  0  2  0  0  0  0  0  0  0  0  0
   73.3220  -26.5110   49.4150 C   0  0  0  0  0  0  0  0  0  0  0  0
   73.4210  -27.5020   50.1530 O   0  0  0  0  0  0  0  0  0  0  0  0
   71.3000  -25.1660   50.1120 C   0  0  0  0  0  0  0  0  0  0  0  0
   72.0940  -23.9670   50.4260 C   0  0  0  0  0  0  0  0  0  0  0  0
   69.8930  -24.7580   49.7410 C   0  0  0  0  0  0  0  0  0  0  0  0
   74.3740  -25.8220   49.0030 N   0  0  0  0  0  0  0  0  0  0  0  0
   75.7260  -26.1220   49.4780 C   0  0  2  0  0  0  0  0  0  0  0  0
   76.2130  -25.1810   50.6020 C   0  0  0  0  0  0  0  0  0  0  0  0
   76.1690  -23.9440   50.4780 O   0  0  0  0  0  0  0  0  0  0  0  0
   76.7190  -26.1490   48.2920 C   0  0  0  0  0  0  0  0  0  0  0  0
   78.1790  -25.9440   48.7270 C   0  0  0  0  0  0  0  0  0  0  0  0
   79.1590  -25.8760   47.5520 C   0  0  0  0  0  0  0  0  0  0  0  0
   78.8250  -26.4500   46.4830 O   0  5  0  0  0  0  0  0  0  0  0  0
   80.2510  -25.2520   47.7020 O   0  0  0  0  0  0  0  0  0  0  0  0
   76.6710  -25.7710   51.7050 N   0  0  0  0  0  0  0  0  0  0  0  0
   77.2550  -25.0020   52.8140 C   0  0  2  0  0  0  0  0  0  0  0  0
   78.4960  -24.1710   52.4060 C   0  0  0  0  0  0  0  0  0  0  0  0
   79.3800  -24.6470   51.6790 O   0  0  0  0  0  0  0  0  0  0  0  0
   77.5840  -25.9660   53.9310 C   0  0  0  0  0  0  0  0  0  0  0  0
   78.0140  -25.3270   55.2670 C   0  0  0  0  0  0  0  0  0  0  0  0
   78.2420  -26.4110   56.2720 C   0  0  0  0  0  0  0  0  0  0  0  0
   78.6770  -27.4830   55.8940 O   0  0  0  0  0  0  0  0  0  0  0  0
   77.9130  -26.1750   57.5340 N   0  0  0  0  0  0  0  0  0  0  0  0
   78.5550  -22.9090   52.8300 N   0  0  0  0  0  0  0  0  0  0  0  0
   79.7400  -22.0540   52.5540 C   0  0  2  0  0  0  0  0  0  0  0  0
   80.6540  -22.0320   53.7760 C   0  0  0  0  0  0  0  0  0  0  0  0
   80.1630  -22.1450   54.8930 O   0  0  0  0  0  0  0  0  0  0  0  0
   79.3240  -20.5970   52.4010 C   0  0  0  0  0  0  0  0  0  0  0  0
   78.5360  -20.3100   51.1680 C   0  0  0  0  0  0  0  0  0  0  0  0
   77.1840  -20.5850   51.0620 N   0  0  0  0  0  0  0  0  0  0  0  0
   78.8990  -19.7410   49.9920 C   0  0  0  0  0  0  0  0  0  0  0  0
   76.7540  -20.2070   49.8690 C   0  0  0  0  0  0  0  0  0  0  0  0
   77.7760  -19.6960   49.1980 N   0  0  0  0  0  0  0  0  0  0  0  0
   81.9520  -21.7930   53.5720 N   0  0  0  0  0  0  0  0  0  0  0  0
   82.8870  -21.5420   54.6920 C   0  0  2  0  0  0  0  0  0  0  0  0
   82.5280  -20.2410   55.4100 C   0  0  0  0  0  0  0  0  0  0  0  0
   81.9390  -19.3700   54.7990 O   0  0  0  0  0  0  0  0  0  0  0  0
   84.3330  -21.3670   54.1800 C   0  0  0  0  0  0  0  0  0  0  0  0
   84.8600  -22.5380   53.4060 C   0  0  0  0  0  0  0  0  0  0  0  0
   85.8090  -22.3990   52.4190 N   0  0  0  0  0  0  0  0  0  0  0  0
   84.5850  -23.8640   53.4800 C   0  0  0  0  0  0  0  0  0  0  0  0
   86.0970  -23.5900   51.9170 C   0  0  0  0  0  0  0  0  0  0  0  0
   85.3580  -24.4940   52.5340 N   0  0  0  0  0  0  0  0  0  0  0  0
   82.9550  -20.0820   56.6720 N   0  0  0  0  0  0  0  0  0  0  0  0
   82.8830  -18.7810   57.3610 C   0  0  2  0  0  0  0  0  0  0  0  0
   83.9580  -17.9090   56.7040 C   0  0  0  0  0  0  0  0  0  0  0  0
   84.8810  -18.4490   56.1010 O   0  0  0  0  0  0  0  0  0  0  0  0
   83.0660  -18.9180   58.8960 C   0  0  0  0  0  0  0  0  0  0  0  0
   84.5310  -19.1570   59.4000 C   0  0  0  0  0  0  0  0  0  0  0  0
   84.5130  -19.3080   60.8940 C   0  0  0  0  0  0  0  0  0  0  0  0
   85.8620  -19.2610   61.4850 N   0  0  0  0  0  0  0  0  0  0  0  0
   86.6360  -20.3260   61.6560 C   0  0  0  0  0  3  0  0  0  0  0  0
   87.8540  -20.2120   62.2270 N   0  0  0  0  0  0  0  0  0  0  0  0
   86.1850  -21.5070   61.2230 N   0  0  0  0  0  0  0  0  0  0  0  0
   83.7960  -16.5880   56.7750 N   0  0  0  0  0  0  0  0  0  0  0  0
   84.7410  -15.6270   56.2400 C   0  0  2  0  0  0  0  0  0  0  0  0
   85.5860  -15.2110   57.4110 C   0  0  0  0  0  0  0  0  0  0  0  0
   85.0810  -15.1170   58.5260 O   0  0  0  0  0  0  0  0  0  0  0  0
   84.0130  -14.3660   55.7580 C   0  0  0  0  0  0  0  0  0  0  0  0
   82.9810  -14.5650   54.6410 C   0  0  0  0  0  0  0  0  0  0  0  0
   83.6050  -15.2960   53.4460 C   0  0  0  0  0  0  0  0  0  0  0  0
   84.9600  -14.8250   53.0830 N   0  0  0  0  0  0  0  0  0  0  0  0
   85.1630  -13.8710   52.1740 C   0  0  0  0  0  3  0  0  0  0  0  0
   86.3900  -13.4640   51.8510 N   0  0  0  0  0  0  0  0  0  0  0  0
   84.1020  -13.3150   51.5900 N   0  0  0  0  0  0  0  0  0  0  0  0
   86.8680  -14.9860   57.1640 N   0  0  0  0  0  0  0  0  0  0  0  0
   87.7660  -14.4530   58.1600 C   0  0  2  0  0  0  0  0  0  0  0  0
   88.7510  -13.5850   57.3510 C   0  0  0  0  0  0  0  0  0  0  0  0
   88.8530  -13.7310   56.1370 O   0  0  0  0  0  0  0  0  0  0  0  0
   88.4940  -15.5690   58.9330 C   0  0  2  0  0  0  0  0  0  0  0  0
   89.3290  -14.9560   59.9420 O   0  0  0  0  0  0  0  0  0  0  0  0
   89.4310  -16.3960   57.9830 C   0  0  0  0  0  0  0  0  0  0  0  0
   89.4090  -12.6490   58.0030 N   0  0  0  0  0  0  0  0  0  0  0  0
   90.4230  -11.7810   57.3920 C   0  0  2  0  0  0  0  0  0  0  0  0
   91.5340  -12.6440   56.7550 C   0  0  0  0  0  0  0  0  0  0  0  0
   91.9670  -13.6490   57.3390 O   0  0  0  0  0  0  0  0  0  0  0  0
   91.0640  -10.8910   58.4720 C   0  0  0  0  0  0  0  0  0  0  0  0
   90.0450  -10.2350   59.3750 C   0  0  0  0  0  0  0  0  0  0  0  0
   89.6740   -9.1090   59.0650 O   0  5  0  0  0  0  0  0  0  0  0  0
   89.5700  -10.8250   60.3800 O   0  0  0  0  0  0  0  0  0  0  0  0
   92.0100  -12.2360   55.5940 N   0  0  0  0  0  0  0  0  0  0  0  0
   93.0950  -12.9560   54.8310 C   0  0  2  0  0  0  0  0  0  0  0  0
   92.8530  -14.4550   54.5770 C   0  0  0  0  0  0  0  0  0  0  0  0
   93.7850  -15.2440   54.7950 O   0  0  0  0  0  0  0  0  0  0  0  0
   94.4620  -12.8450   55.5130 C   0  0  0  0  0  0  0  0  0  0  0  0
   94.8500  -11.4150   55.8170 C   0  0  0  0  0  0  0  0  0  0  0  0
   95.1550  -11.0690   56.9640 O   0  0  0  0  0  0  0  0  0  0  0  0
   94.8200  -10.5680   54.7980 N   0  0  0  0  0  0  0  0  0  0  0  0
   91.6300  -14.8400   54.1610 N   0  0  0  0  0  0  0  0  0  0  0  0
   91.2780  -16.2460   53.8650 C   0  0  2  0  0  0  0  0  0  0  0  0
   91.4450  -16.6250   52.3720 C   0  0  0  0  0  0  0  0  0  0  0  0
   92.0790  -15.8330   51.6400 O   0  5  0  0  0  0  0  0  0  0  0  0
   89.8930  -16.5970   54.3940 C   0  0  0  0  0  0  0  0  0  0  0  0
   88.7490  -15.7690   53.7360 C   0  0  0  0  0  0  0  0  0  0  0  0
   89.0570  -14.8600   52.9230 O   0  5  0  0  0  0  0  0  0  0  0  0
   87.5530  -16.0200   54.0530 O   0  0  0  0  0  0  0  0  0  0  0  0
   91.0070  -17.6740   51.8310 O   0  0  0  0  0  0  0  0  0  0  0  0
   71.5185  -27.6453   47.8764 H   0  0  0  0  0  0  0  0  0  0  0  0
   70.1917  -26.7792   48.3225 H   0  0  0  0  0  0  0  0  0  0  0  0
   70.9786  -27.7086   49.4301 H   0  0  0  0  0  0  0  0  0  0  0  0
   72.0690  -25.3439   48.0810 H   0  0  0  0  0  0  0  0  0  0  0  0
   71.2574  -25.8005   51.0095 H   0  0  0  0  0  0  0  0  0  0  0  0
   71.6096  -23.4096   51.2413 H   0  0  0  0  0  0  0  0  0  0  0  0
   72.1607  -23.3273   49.5336 H   0  0  0  0  0  0  0  0  0  0  0  0
   73.1050  -24.2680   50.7378 H   0  0  0  0  0  0  0  0  0  0  0  0
   69.3009  -25.6549   49.5066 H   0  0  0  0  0  0  0  0  0  0  0  0
   69.9224  -24.0980   48.8615 H   0  0  0  0  0  0  0  0  0  0  0  0
   69.4315  -24.2242   50.5848 H   0  0  0  0  0  0  0  0  0  0  0  0
   74.2420  -25.0765   48.3497 H   0  0  0  0  0  0  0  0  0  0  0  0
   75.6974  -27.1354   49.9049 H   0  0  0  0  0  0  0  0  0  0  0  0
   76.4470  -25.3482   47.5886 H   0  0  0  0  0  0  0  0  0  0  0  0
   76.6369  -27.1233   47.7880 H   0  0  0  0  0  0  0  0  0  0  0  0
   78.4706  -26.7827   49.3763 H   0  0  0  0  0  0  0  0  0  0  0  0
   78.2458  -25.0025   49.2918 H   0  0  0  0  0  0  0  0  0  0  0  0
   76.6160  -26.7666   51.7811 H   0  0  0  0  0  0  0  0  0  0  0  0
   76.4926  -24.2967   53.1764 H   0  0  0  0  0  0  0  0  0  0  0  0
   78.4046  -26.6129   53.5873 H   0  0  0  0  0  0  0  0  0  0  0  0
   76.6902  -26.5780   54.1223 H   0  0  0  0  0  0  0  0  0  0  0  0
   77.2225  -24.6522   55.6251 H   0  0  0  0  0  0  0  0  0  0  0  0
   78.9436  -24.7572   55.1214 H   0  0  0  0  0  0  0  0  0  0  0  0
   78.0541  -26.8811   58.2279 H   0  0  0  0  0  0  0  0  0  0  0  0
   77.5237  -25.2908   57.7923 H   0  0  0  0  0  0  0  0  0  0  0  0
   77.7863  -22.5290   53.3445 H   0  0  0  0  0  0  0  0  0  0  0  0
   80.2685  -22.4164   51.6600 H   0  0  0  0  0  0  0  0  0  0  0  0
   80.2339  -19.9793   52.3798 H   0  0  0  0  0  0  0  0  0  0  0  0
   78.7129  -20.3199   53.2726 H   0  0  0  0  0  0  0  0  0  0  0  0
   79.8934  -19.3860   49.7256 H   0  0  0  0  0  0  0  0  0  0  0  0
   75.7333  -20.3001   49.5010 H   0  0  0  0  0  0  0  0  0  0  0  0
   77.7363  -19.3253   48.2379 H   0  0  0  0  0  0  0  0  0  0  0  0
   82.3025  -21.7833   52.6355 H   0  0  0  0  0  0  0  0  0  0  0  0
   82.8387  -22.3860   55.3958 H   0  0  0  0  0  0  0  0  0  0  0  0
   84.9886  -21.2050   55.0483 H   0  0  0  0  0  0  0  0  0  0  0  0
   84.3627  -20.4817   53.5278 H   0  0  0  0  0  0  0  0  0  0  0  0
   83.8825  -24.3408   54.1620 H   0  0  0  0  0  0  0  0  0  0  0  0
   86.8210  -23.7902   51.1285 H   0  0  0  0  0  0  0  0  0  0  0  0
   85.3605  -25.5053   52.3384 H   0  0  0  0  0  0  0  0  0  0  0  0
   83.3331  -20.8691   57.1593 H   0  0  0  0  0  0  0  0  0  0  0  0
   81.8959  -18.3303   57.1805 H   0  0  0  0  0  0  0  0  0  0  0  0
   82.4527  -19.7668   59.2326 H   0  0  0  0  0  0  0  0  0  0  0  0
   82.6978  -17.9920   59.3618 H   0  0  0  0  0  0  0  0  0  0  0  0
   85.1613  -18.2990   59.1232 H   0  0  0  0  0  0  0  0  0  0  0  0
   84.9347  -20.0717   58.9413 H   0  0  0  0  0  0  0  0  0  0  0  0
   84.0521  -20.2748   61.1448 H   0  0  0  0  0  0  0  0  0  0  0  0
   83.9119  -18.4929   61.3232 H   0  0  0  0  0  0  0  0  0  0  0  0
   86.2270  -18.3454   61.7839 H   0  0  0  0  0  0  0  0  0  0  0  0
   88.4437  -21.0470   62.3533 H   0  0  0  0  0  0  0  0  0  0  0  0
   88.1935  -19.2901   62.5363 H   0  0  0  0  0  0  0  0  0  0  0  0
   85.2530  -21.5750   60.7898 H   0  0  0  0  0  0  0  0  0  0  0  0
   86.7694  -22.3493   61.3224 H   0  0  0  0  0  0  0  0  0  0  0  0
   82.9736  -16.2387   57.2241 H   0  0  0  0  0  0  0  0  0  0  0  0
   85.3429  -16.0676   55.4315 H   0  0  0  0  0  0  0  0  0  0  0  0
   84.7723  -13.6596   55.3913 H   0  0  0  0  0  0  0  0  0  0  0  0
   83.4919  -13.9283   56.6222 H   0  0  0  0  0  0  0  0  0  0  0  0
   82.6134  -13.5823   54.3105 H   0  0  0  0  0  0  0  0  0  0  0  0
   82.1405  -15.1596   55.0284 H   0  0  0  0  0  0  0  0  0  0  0  0
   82.9473  -15.1566   52.5754 H   0  0  0  0  0  0  0  0  0  0  0  0
   83.6668  -16.3665   53.6912 H   0  0  0  0  0  0  0  0  0  0  0  0
   85.7749  -15.2490   53.5489 H   0  0  0  0  0  0  0  0  0  0  0  0
   86.5183  -12.7249   51.1452 H   0  0  0  0  0  0  0  0  0  0  0  0
   87.2102  -13.8885   52.3072 H   0  0  0  0  0  0  0  0  0  0  0  0
   83.1533  -13.6292   51.8393 H   0  0  0  0  0  0  0  0  0  0  0  0
   84.2307  -12.5711   50.8893 H   0  0  0  0  0  0  0  0  0  0  0  0
   87.2266  -15.1932   56.2538 H   0  0  0  0  0  0  0  0  0  0  0  0
   87.2112  -13.8308   58.8777 H   0  0  0  0  0  0  0  0  0  0  0  0
   87.7555  -16.2363   59.4013 H   0  0  0  0  0  0  0  0  0  0  0  0
   89.7853  -15.6329   60.4279 H   0  0  0  0  0  0  0  0  0  0  0  0
   89.9363  -17.1836   58.5612 H   0  0  0  0  0  0  0  0  0  0  0  0
   90.1832  -15.7283   57.5377 H   0  0  0  0  0  0  0  0  0  0  0  0
   88.8301  -16.8556   57.1845 H   0  0  0  0  0  0  0  0  0  0  0  0
   89.2055  -12.5217   58.9738 H   0  0  0  0  0  0  0  0  0  0  0  0
   89.9523  -11.1521   56.6220 H   0  0  0  0  0  0  0  0  0  0  0  0
   91.6509  -10.1042   57.9755 H   0  0  0  0  0  0  0  0  0  0  0  0
   91.7307  -11.5121   59.0883 H   0  0  0  0  0  0  0  0  0  0  0  0
   91.6296  -11.4010   55.1964 H   0  0  0  0  0  0  0  0  0  0  0  0
   93.1616  -12.4625   53.8502 H   0  0  0  0  0  0  0  0  0  0  0  0
   95.2226  -13.2822   54.8494 H   0  0  0  0  0  0  0  0  0  0  0  0
   94.4309  -13.4091   56.4568 H   0  0  0  0  0  0  0  0  0  0  0  0
   95.0663   -9.6089   54.9376 H   0  0  0  0  0  0  0  0  0  0  0  0
   94.5511  -10.8880   53.8896 H   0  0  0  0  0  0  0  0  0  0  0  0
   90.9251  -14.1399   54.0467 H   0  0  0  0  0  0  0  0  0  0  0  0
   91.9943  -16.8680   54.4217 H   0  0  0  0  0  0  0  0  0  0  0  0
   89.8772  -16.4125   55.4783 H   0  0  0  0  0  0  0  0  0  0  0  0
   89.7064  -17.6637   54.2008 H   0  0  0  0  0  0  0  0  0  0  0  0
  1  2  1  0  0  0  0
  1100  1  0  0  0  0
  1101  1  0  0  0  0
  1102  1  0  0  0  0
  2  3  1  0  0  0  0
  2  5  1  0  0  0  0
  2103  1  6  0  0  0
  3  4  2  0  0  0  0
  3  8  1  0  0  0  0
  5  6  1  0  0  0  0
  5  7  1  0  0  0  0
  5104  1  0  0  0  0
  6105  1  0  0  0  0
  6106  1  0  0  0  0
  6107  1  0  0  0  0
  7108  1  0  0  0  0
  7109  1  0  0  0  0
  7110  1  0  0  0  0
  8  9  1  0  0  0  0
  8111  1  0  0  0  0
  9 10  1  0  0  0  0
  9 12  1  0  0  0  0
  9112  1  1  0  0  0
 10 11  2  0  0  0  0
 10 17  1  0  0  0  0
 12 13  1  0  0  0  0
 12113  1  0  0  0  0
 12114  1  0  0  0  0
 13 14  1  0  0  0  0
 13115  1  0  0  0  0
 13116  1  0  0  0  0
 14 15  1  0  0  0  0
 14 16  2  0  0  0  0
 17 18  1  0  0  0  0
 17117  1  0  0  0  0
 18 19  1  0  0  0  0
 18 21  1  0  0  0  0
 18118  1  1  0  0  0
 19 20  2  0  0  0  0
 19 26  1  0  0  0  0
 21 22  1  0  0  0  0
 21119  1  0  0  0  0
 21120  1  0  0  0  0
 22 23  1  0  0  0  0
 22121  1  0  0  0  0
 22122  1  0  0  0  0
 23 24  2  0  0  0  0
 23 25  1  0  0  0  0
 25123  1  0  0  0  0
 25124  1  0  0  0  0
 26 27  1  0  0  0  0
 26125  1  0  0  0  0
 27 28  1  0  0  0  0
 27 30  1  0  0  0  0
 27126  1  6  0  0  0
 28 29  2  0  0  0  0
 28 36  1  0  0  0  0
 30 31  1  0  0  0  0
 30127  1  0  0  0  0
 30128  1  0  0  0  0
 31 32  1  0  0  0  0
 31 33  2  0  0  0  0
 32 34  2  0  0  0  0
 33 35  1  0  0  0  0
 33129  1  0  0  0  0
 34 35  1  0  0  0  0
 34130  1  0  0  0  0
 35131  1  0  0  0  0
 36 37  1  0  0  0  0
 36132  1  0  0  0  0
 37 38  1  0  0  0  0
 37 40  1  0  0  0  0
 37133  1  1  0  0  0
 38 39  2  0  0  0  0
 38 46  1  0  0  0  0
 40 41  1  0  0  0  0
 40134  1  0  0  0  0
 40135  1  0  0  0  0
 41 42  1  0  0  0  0
 41 43  2  0  0  0  0
 42 44  2  0  0  0  0
 43 45  1  0  0  0  0
 43136  1  0  0  0  0
 44 45  1  0  0  0  0
 44137  1  0  0  0  0
 45138  1  0  0  0  0
 46 47  1  0  0  0  0
 46139  1  0  0  0  0
 47 48  1  0  0  0  0
 47 50  1  0  0  0  0
 47140  1  6  0  0  0
 48 49  2  0  0  0  0
 48 57  1  0  0  0  0
 50 51  1  0  0  0  0
 50141  1  0  0  0  0
 50142  1  0  0  0  0
 51 52  1  0  0  0  0
 51143  1  0  0  0  0
 51144  1  0  0  0  0
 52 53  1  0  0  0  0
 52145  1  0  0  0  0
 52146  1  0  0  0  0
 53 54  1  0  0  0  0
 53147  1  0  0  0  0
 54 55  1  0  0  0  0
 54 56  1  0  0  0  0
 55148  1  0  0  0  0
 55149  1  0  0  0  0
 56150  1  0  0  0  0
 56151  1  0  0  0  0
 57 58  1  0  0  0  0
 57152  1  0  0  0  0
 58 59  1  0  0  0  0
 58 61  1  0  0  0  0
 58153  1  6  0  0  0
 59 60  2  0  0  0  0
 59 68  1  0  0  0  0
 61 62  1  0  0  0  0
 61154  1  0  0  0  0
 61155  1  0  0  0  0
 62 63  1  0  0  0  0
 62156  1  0  0  0  0
 62157  1  0  0  0  0
 63 64  1  0  0  0  0
 63158  1  0  0  0  0
 63159  1  0  0  0  0
 64 65  1  0  0  0  0
 64160  1  0  0  0  0
 65 66  1  0  0  0  0
 65 67  1  0  0  0  0
 66161  1  0  0  0  0
 66162  1  0  0  0  0
 67163  1  0  0  0  0
 67164  1  0  0  0  0
 68 69  1  0  0  0  0
 68165  1  0  0  0  0
 69 70  1  0  0  0  0
 69 72  1  0  0  0  0
 69166  1  1  0  0  0
 70 71  2  0  0  0  0
 70 75  1  0  0  0  0
 72 73  1  0  0  0  0
 72 74  1  0  0  0  0
 72167  1  1  0  0  0
 73168  1  0  0  0  0
 74169  1  0  0  0  0
 74170  1  0  0  0  0
 74171  1  0  0  0  0
 75 76  1  0  0  0  0
 75172  1  0  0  0  0
 76 77  1  0  0  0  0
 76 79  1  0  0  0  0
 76173  1  6  0  0  0
 77 78  2  0  0  0  0
 77 83  1  0  0  0  0
 79 80  1  0  0  0  0
 79174  1  0  0  0  0
 79175  1  0  0  0  0
 80 81  1  0  0  0  0
 80 82  2  0  0  0  0
 83 84  1  0  0  0  0
 83176  1  0  0  0  0
 84 85  1  0  0  0  0
 84 87  1  0  0  0  0
 84177  1  6  0  0  0
 85 86  2  0  0  0  0
 85 91  1  0  0  0  0
 87 88  1  0  0  0  0
 87178  1  0  0  0  0
 87179  1  0  0  0  0
 88 89  2  0  0  0  0
 88 90  1  0  0  0  0
 90180  1  0  0  0  0
 90181  1  0  0  0  0
 91 92  1  0  0  0  0
 91182  1  0  0  0  0
 92 93  1  0  0  0  0
 92 95  1  0  0  0  0
 92183  1  1  0  0  0
 93 94  1  0  0  0  0
 93 99  2  0  0  0  0
 95 96  1  0  0  0  0
 95184  1  0  0  0  0
 95185  1  0  0  0  0
 96 97  1  0  0  0  0
 96 98  2  0  0  0  0
M  CHG  5   1   1  15  -1  81  -1  94  -1  97  -1
M  END
