2qic_ligand
 OpenBabel08222323343D

148147  0  0  1  0  0  0  0  0999 V2000
   -8.4160   35.9910   13.6410 N   0  3  0  0  0  0  0  0  0  0  0  0
   -7.1250   36.7280   13.7180 C   0  0  2  0  0  0  0  0  0  0  0  0
   -6.2870   36.4530   12.4720 C   0  0  0  0  0  0  0  0  0  0  0  0
   -6.6540   35.6270   11.6390 O   0  0  0  0  0  0  0  0  0  0  0  0
   -6.3580   36.3040   14.9710 C   0  0  0  0  0  0  0  0  0  0  0  0
   -5.1700   37.1620   12.3440 N   0  0  0  0  0  0  0  0  0  0  0  0
   -4.2750   36.9770   11.2010 C   0  0  2  0  0  0  0  0  0  0  0  0
   -3.0780   36.1570   11.6840 C   0  0  0  0  0  0  0  0  0  0  0  0
   -2.4060   36.5360   12.6360 O   0  0  0  0  0  0  0  0  0  0  0  0
   -3.7840   38.3280   10.6670 C   0  0  0  0  0  0  0  0  0  0  0  0
   -4.8880   39.2630   10.1640 C   0  0  0  0  0  0  0  0  0  0  0  0
   -4.3000   40.5640    9.5980 C   0  0  0  0  0  0  0  0  0  0  0  0
   -3.4580   41.2630   10.5690 N   0  0  0  0  0  0  0  0  0  0  0  0
   -2.1390   41.4070   10.4630 C   0  0  0  0  0  3  0  0  0  0  0  0
   -1.4900   40.9030    9.4240 N   0  0  0  0  0  0  0  0  0  0  0  0
   -1.4620   42.0520   11.4030 N   0  0  0  0  0  0  0  0  0  0  0  0
   -2.8300   35.0260   11.0320 N   0  0  0  0  0  0  0  0  0  0  0  0
   -1.7030   34.1730   11.3970 C   0  0  2  0  0  0  0  0  0  0  0  0
   -1.0810   33.6390   10.1200 C   0  0  0  0  0  0  0  0  0  0  0  0
   -1.7250   33.5920    9.0760 O   0  0  0  0  0  0  0  0  0  0  0  0
   -2.1420   32.9560   12.2400 C   0  0  2  0  0  0  0  0  0  0  0  0
   -3.0100   32.1250   11.4610 O   0  0  0  0  0  0  0  0  0  0  0  0
   -2.8680   33.4100   13.4970 C   0  0  0  0  0  0  0  0  0  0  0  0
    0.1800   33.2330   10.2180 N   0  0  0  0  0  0  0  0  0  0  0  0
    0.8860   32.6630    9.0850 C   0  0  1  0  0  0  0  0  0  0  0  0
    1.5900   33.7240    8.2180 C   0  0  0  0  0  0  0  0  0  0  0  0
    2.7970   34.4080    8.8800 C   0  0  0  0  0  0  0  0  0  0  0  0
    3.4640   35.4450    7.9670 C   0  0  0  0  0  0  0  0  0  0  0  0
    4.5410   36.2720    8.6890 C   0  0  0  0  0  0  0  0  0  0  0  0
    5.3640   37.1610    7.7630 N   0  3  0  0  0  0  0  0  0  0  0  0
    1.8850   31.6420    9.6140 C   0  0  0  0  0  0  0  0  0  0  0  0
    2.3830   31.7700   10.7360 O   0  0  0  0  0  0  0  0  0  0  0  0
    4.5250   38.2500    7.1840 C   0  0  0  0  0  0  0  0  0  0  0  0
    5.9880   36.5220    6.5570 C   0  0  0  0  0  0  0  0  0  0  0  0
    6.4580   37.8120    8.5430 C   0  0  0  0  0  0  0  0  0  0  0  0
    2.1490   30.6220    8.8060 N   0  0  0  0  0  0  0  0  0  0  0  0
    3.0940   29.5660    9.1660 C   0  0  2  0  0  0  0  0  0  0  0  0
    4.4590   29.9790    8.6450 C   0  0  0  0  0  0  0  0  0  0  0  0
    4.5720   30.5320    7.5580 O   0  0  0  0  0  0  0  0  0  0  0  0
    2.6830   28.2410    8.5200 C   0  0  0  0  0  0  0  0  0  0  0  0
    1.4760   27.5750    9.1520 C   0  0  0  0  0  0  0  0  0  0  0  0
    1.7850   26.9820   10.5150 C   0  0  0  0  0  0  0  0  0  0  0  0
    2.1760   27.6900   11.4410 O   0  0  0  0  0  0  0  0  0  0  0  0
    1.6110   25.6710   10.6410 N   0  0  0  0  0  0  0  0  0  0  0  0
    5.5000   29.7190    9.4220 N   0  0  0  0  0  0  0  0  0  0  0  0
    6.8470   30.0690    8.9900 C   0  0  2  0  0  0  0  0  0  0  0  0
    7.1660   29.2430    7.7330 C   0  0  0  0  0  0  0  0  0  0  0  0
    6.8450   28.0560    7.6670 O   0  0  0  0  0  0  0  0  0  0  0  0
    7.8720   29.7660   10.1000 C   0  0  2  0  0  0  0  0  0  0  0  0
    7.6150   30.6180   11.2230 O   0  0  0  0  0  0  0  0  0  0  0  0
    9.2880   30.0020    9.6070 C   0  0  0  0  0  0  0  0  0  0  0  0
    7.7800   29.8810    6.7400 N   0  0  0  0  0  0  0  0  0  0  0  0
    8.1470   29.2050    5.4840 C   0  0  2  0  0  0  0  0  0  0  0  0
    9.6230   29.4940    5.2070 C   0  0  0  0  0  0  0  0  0  0  0  0
   10.1020   30.6000    5.4610 O   0  0  0  0  0  0  0  0  0  0  0  0
    7.2820   29.7220    4.3360 C   0  0  0  0  0  0  0  0  0  0  0  0
   10.3400   28.5040    4.6850 N   0  0  0  0  0  0  0  0  0  0  0  0
   11.7680   28.6690    4.3950 C   0  0  2  0  0  0  0  0  0  0  0  0
   11.9400   29.7620    3.3390 C   0  0  0  0  0  0  0  0  0  0  0  0
   10.9150   30.2170    2.7880 O   0  0  0  0  0  0  0  0  0  0  0  0
   12.3650   27.3530    3.8830 C   0  0  0  0  0  0  0  0  0  0  0  0
   12.1540   27.0850    2.3970 C   0  0  0  0  0  0  0  0  0  0  0  0
   10.6850   27.0870    2.0070 C   0  0  0  0  0  0  0  0  0  0  0  0
   10.5050   26.8700    0.5730 N   0  0  0  0  0  0  0  0  0  0  0  0
   10.9790   27.6750   -0.3750 C   0  0  0  0  0  3  0  0  0  0  0  0
   11.6680   28.7610   -0.0490 N   0  0  0  0  0  0  0  0  0  0  0  0
   10.7650   27.3920   -1.6530 N   0  0  0  0  0  0  0  0  0  0  0  0
   -8.9605   36.1798   14.4680 H   0  0  0  0  0  0  0  0  0  0  0  0
   -8.2347   35.0015   13.5767 H   0  0  0  0  0  0  0  0  0  0  0  0
   -8.9270   36.2926   12.8262 H   0  0  0  0  0  0  0  0  0  0  0  0
   -7.3333   37.8066   13.7755 H   0  0  0  0  0  0  0  0  0  0  0  0
   -5.4058   36.8524   15.0211 H   0  0  0  0  0  0  0  0  0  0  0  0
   -6.1570   35.2233   14.9298 H   0  0  0  0  0  0  0  0  0  0  0  0
   -6.9594   36.5313   15.8635 H   0  0  0  0  0  0  0  0  0  0  0  0
   -4.9361   37.8366   13.0441 H   0  0  0  0  0  0  0  0  0  0  0  0
   -4.8022   36.4383   10.3998 H   0  0  0  0  0  0  0  0  0  0  0  0
   -3.0935   38.1351    9.8328 H   0  0  0  0  0  0  0  0  0  0  0  0
   -3.2455   38.8405   11.4778 H   0  0  0  0  0  0  0  0  0  0  0  0
   -5.5598   39.5071   11.0001 H   0  0  0  0  0  0  0  0  0  0  0  0
   -5.4573   38.7529    9.3730 H   0  0  0  0  0  0  0  0  0  0  0  0
   -5.1269   41.2275    9.3049 H   0  0  0  0  0  0  0  0  0  0  0  0
   -3.6929   40.3220    8.7133 H   0  0  0  0  0  0  0  0  0  0  0  0
   -3.9189   41.6731   11.3938 H   0  0  0  0  0  0  0  0  0  0  0  0
   -0.4693   41.0185    9.3490 H   0  0  0  0  0  0  0  0  0  0  0  0
   -2.0061   40.3956    8.6911 H   0  0  0  0  0  0  0  0  0  0  0  0
   -1.9574   42.4475   12.2148 H   0  0  0  0  0  0  0  0  0  0  0  0
   -0.4407   42.1575   11.3214 H   0  0  0  0  0  0  0  0  0  0  0  0
   -3.4267   34.7541   10.2770 H   0  0  0  0  0  0  0  0  0  0  0  0
   -0.9670   34.7641   11.9618 H   0  0  0  0  0  0  0  0  0  0  0  0
   -1.2509   32.3795   12.5290 H   0  0  0  0  0  0  0  0  0  0  0  0
   -2.5486   31.8251   10.6867 H   0  0  0  0  0  0  0  0  0  0  0  0
   -3.1720   32.5300   14.0829 H   0  0  0  0  0  0  0  0  0  0  0  0
   -3.7598   33.9895   13.2163 H   0  0  0  0  0  0  0  0  0  0  0  0
   -2.1973   34.0387   14.1010 H   0  0  0  0  0  0  0  0  0  0  0  0
    0.6545   33.3222   11.0937 H   0  0  0  0  0  0  0  0  0  0  0  0
    0.1543   32.1431    8.4491 H   0  0  0  0  0  0  0  0  0  0  0  0
    0.8538   34.5012    7.9652 H   0  0  0  0  0  0  0  0  0  0  0  0
    1.9382   33.2351    7.2962 H   0  0  0  0  0  0  0  0  0  0  0  0
    3.5390   33.6385    9.1394 H   0  0  0  0  0  0  0  0  0  0  0  0
    2.4567   34.9129    9.7961 H   0  0  0  0  0  0  0  0  0  0  0  0
    2.6903   36.1295    7.5892 H   0  0  0  0  0  0  0  0  0  0  0  0
    3.9328   34.9192    7.1221 H   0  0  0  0  0  0  0  0  0  0  0  0
    5.2247   35.5785    9.2005 H   0  0  0  0  0  0  0  0  0  0  0  0
    4.0446   36.9128    9.4326 H   0  0  0  0  0  0  0  0  0  0  0  0
    5.1417   38.8751    6.5215 H   0  0  0  0  0  0  0  0  0  0  0  0
    4.1161   38.8690    7.9961 H   0  0  0  0  0  0  0  0  0  0  0  0
    3.6986   37.8090    6.6074 H   0  0  0  0  0  0  0  0  0  0  0  0
    6.6370   35.6931    6.8758 H   0  0  0  0  0  0  0  0  0  0  0  0
    6.5867   37.2687    6.0148 H   0  0  0  0  0  0  0  0  0  0  0  0
    5.1978   36.1357    5.8965 H   0  0  0  0  0  0  0  0  0  0  0  0
    6.0348   38.2923    9.4375 H   0  0  0  0  0  0  0  0  0  0  0  0
    6.9521   38.5709    7.9185 H   0  0  0  0  0  0  0  0  0  0  0  0
    7.1931   37.0526    8.8477 H   0  0  0  0  0  0  0  0  0  0  0  0
    1.6857   30.5744    7.9211 H   0  0  0  0  0  0  0  0  0  0  0  0
    3.1260   29.4481   10.2592 H   0  0  0  0  0  0  0  0  0  0  0  0
    3.5334   27.5470    8.5909 H   0  0  0  0  0  0  0  0  0  0  0  0
    2.4533   28.4326    7.4615 H   0  0  0  0  0  0  0  0  0  0  0  0
    1.1295   26.7697    8.4876 H   0  0  0  0  0  0  0  0  0  0  0  0
    0.6792   28.3247    9.2662 H   0  0  0  0  0  0  0  0  0  0  0  0
    1.7984   25.2235   11.5154 H   0  0  0  0  0  0  0  0  0  0  0  0
    1.2926   25.1317    9.8614 H   0  0  0  0  0  0  0  0  0  0  0  0
    5.3607   29.2802   10.3097 H   0  0  0  0  0  0  0  0  0  0  0  0
    6.8879   31.1411    8.7474 H   0  0  0  0  0  0  0  0  0  0  0  0
    7.7690   28.7149   10.4075 H   0  0  0  0  0  0  0  0  0  0  0  0
    7.6935   31.5259   10.9547 H   0  0  0  0  0  0  0  0  0  0  0  0
    9.9997   29.7793   10.4157 H   0  0  0  0  0  0  0  0  0  0  0  0
    9.3990   31.0524    9.2998 H   0  0  0  0  0  0  0  0  0  0  0  0
    9.4916   29.3453    8.7484 H   0  0  0  0  0  0  0  0  0  0  0  0
    7.9993   30.8504    6.8499 H   0  0  0  0  0  0  0  0  0  0  0  0
    7.9965   28.1205    5.5900 H   0  0  0  0  0  0  0  0  0  0  0  0
    7.5651   29.2103    3.4044 H   0  0  0  0  0  0  0  0  0  0  0  0
    7.4351   30.8051    4.2205 H   0  0  0  0  0  0  0  0  0  0  0  0
    6.2229   29.5228    4.5564 H   0  0  0  0  0  0  0  0  0  0  0  0
    9.8971   27.6297    4.4862 H   0  0  0  0  0  0  0  0  0  0  0  0
   12.2919   28.9666    5.3153 H   0  0  0  0  0  0  0  0  0  0  0  0
   13.1477   30.2158    3.0160 O   0  0  0  0  0  0  0  0  0  0  0  0
   11.9060   26.5277    4.4471 H   0  0  0  0  0  0  0  0  0  0  0  0
   13.4478   27.3715    4.0760 H   0  0  0  0  0  0  0  0  0  0  0  0
   12.5825   26.1021    2.1517 H   0  0  0  0  0  0  0  0  0  0  0  0
   12.6727   27.8653    1.8208 H   0  0  0  0  0  0  0  0  0  0  0  0
   10.2457   28.0583    2.2782 H   0  0  0  0  0  0  0  0  0  0  0  0
   10.1695   26.2853    2.5561 H   0  0  0  0  0  0  0  0  0  0  0  0
    9.9756   26.0379    0.2759 H   0  0  0  0  0  0  0  0  0  0  0  0
   12.0325   29.3804   -0.7868 H   0  0  0  0  0  0  0  0  0  0  0  0
   11.8384   28.9846    0.9419 H   0  0  0  0  0  0  0  0  0  0  0  0
   10.2308   26.5502   -1.9116 H   0  0  0  0  0  0  0  0  0  0  0  0
   11.1330   28.0140   -2.3869 H   0  0  0  0  0  0  0  0  0  0  0  0
   13.3055   30.0628    2.0917 H   0  0  0  0  0  0  0  0  0  0  0  0
  1  2  1  0  0  0  0
  1 68  1  0  0  0  0
  1 69  1  0  0  0  0
  1 70  1  0  0  0  0
  2  3  1  0  0  0  0
  2  5  1  0  0  0  0
  2 71  1  1  0  0  0
  3  4  2  0  0  0  0
  3  6  1  0  0  0  0
  5 72  1  0  0  0  0
  5 73  1  0  0  0  0
  5 74  1  0  0  0  0
  6  7  1  0  0  0  0
  6 75  1  0  0  0  0
  7  8  1  0  0  0  0
  7 10  1  0  0  0  0
  7 76  1  6  0  0  0
  8  9  2  0  0  0  0
  8 17  1  0  0  0  0
 10 11  1  0  0  0  0
 10 77  1  0  0  0  0
 10 78  1  0  0  0  0
 11 12  1  0  0  0  0
 11 79  1  0  0  0  0
 11 80  1  0  0  0  0
 12 13  1  0  0  0  0
 12 81  1  0  0  0  0
 12 82  1  0  0  0  0
 13 14  1  0  0  0  0
 13 83  1  0  0  0  0
 14 15  1  0  0  0  0
 14 16  1  0  0  0  0
 15 84  1  0  0  0  0
 15 85  1  0  0  0  0
 16 86  1  0  0  0  0
 16 87  1  0  0  0  0
 17 18  1  0  0  0  0
 17 88  1  0  0  0  0
 18 19  1  0  0  0  0
 18 21  1  0  0  0  0
 18 89  1  1  0  0  0
 19 20  2  0  0  0  0
 19 24  1  0  0  0  0
 21 22  1  0  0  0  0
 21 23  1  0  0  0  0
 21 90  1  1  0  0  0
 22 91  1  0  0  0  0
 23 92  1  0  0  0  0
 23 93  1  0  0  0  0
 23 94  1  0  0  0  0
 24 25  1  0  0  0  0
 24 95  1  0  0  0  0
 25 26  1  0  0  0  0
 25 31  1  0  0  0  0
 25 96  1  6  0  0  0
 26 27  1  0  0  0  0
 26 97  1  0  0  0  0
 26 98  1  0  0  0  0
 27 28  1  0  0  0  0
 27 99  1  0  0  0  0
 27100  1  0  0  0  0
 28 29  1  0  0  0  0
 28101  1  0  0  0  0
 28102  1  0  0  0  0
 29 30  1  0  0  0  0
 29103  1  0  0  0  0
 29104  1  0  0  0  0
 30 33  1  0  0  0  0
 30 34  1  0  0  0  0
 30 35  1  0  0  0  0
 31 32  2  0  0  0  0
 31 36  1  0  0  0  0
 33105  1  0  0  0  0
 33106  1  0  0  0  0
 33107  1  0  0  0  0
 34108  1  0  0  0  0
 34109  1  0  0  0  0
 34110  1  0  0  0  0
 35111  1  0  0  0  0
 35112  1  0  0  0  0
 35113  1  0  0  0  0
 36 37  1  0  0  0  0
 36114  1  0  0  0  0
 37 38  1  0  0  0  0
 37 40  1  0  0  0  0
 37115  1  1  0  0  0
 38 39  2  0  0  0  0
 38 45  1  0  0  0  0
 40 41  1  0  0  0  0
 40116  1  0  0  0  0
 40117  1  0  0  0  0
 41 42  1  0  0  0  0
 41118  1  0  0  0  0
 41119  1  0  0  0  0
 42 43  2  0  0  0  0
 42 44  1  0  0  0  0
 44120  1  0  0  0  0
 44121  1  0  0  0  0
 45 46  1  0  0  0  0
 45122  1  0  0  0  0
 46 47  1  0  0  0  0
 46 49  1  0  0  0  0
 46123  1  6  0  0  0
 47 48  2  0  0  0  0
 47 52  1  0  0  0  0
 49 50  1  0  0  0  0
 49 51  1  0  0  0  0
 49124  1  1  0  0  0
 50125  1  0  0  0  0
 51126  1  0  0  0  0
 51127  1  0  0  0  0
 51128  1  0  0  0  0
 52 53  1  0  0  0  0
 52129  1  0  0  0  0
 53 54  1  0  0  0  0
 53 56  1  0  0  0  0
 53130  1  1  0  0  0
 54 55  2  0  0  0  0
 54 57  1  0  0  0  0
 56131  1  0  0  0  0
 56132  1  0  0  0  0
 56133  1  0  0  0  0
 57 58  1  0  0  0  0
 57134  1  0  0  0  0
 58 59  1  0  0  0  0
 58 61  1  0  0  0  0
 58135  1  1  0  0  0
 59 60  2  0  0  0  0
 59136  1  0  0  0  0
 61 62  1  0  0  0  0
 61137  1  0  0  0  0
 61138  1  0  0  0  0
 62 63  1  0  0  0  0
 62139  1  0  0  0  0
 62140  1  0  0  0  0
 63 64  1  0  0  0  0
 63141  1  0  0  0  0
 63142  1  0  0  0  0
 64 65  1  0  0  0  0
 64143  1  0  0  0  0
 65 66  1  0  0  0  0
 65 67  1  0  0  0  0
 66144  1  0  0  0  0
 66145  1  0  0  0  0
 67146  1  0  0  0  0
 67147  1  0  0  0  0
136148  1  0  0  0  0
M  CHG  2   1   1  30   1
M  END
