2qju_ligand
 OpenBabel08222323343D

 43 45  0  0  0  0  0  0  0  0999 V2000
   17.7390  -15.3290  -26.0670 C   0  0  0  0  0  0  0  0  0  0  0  0
   16.4430  -14.5350  -25.9120 N   0  3  0  0  0  0  0  0  0  0  0  0
   15.7990  -13.7810  -24.7460 C   0  0  0  0  0  0  0  0  0  0  0  0
   15.9540  -12.2340  -25.0660 C   0  0  0  0  0  0  0  0  0  0  0  0
   15.4550  -11.0860  -24.1950 C   0  0  0  0  0  0  0  0  0  0  0  0
   16.2700  -10.6330  -23.0100 N   0  0  0  0  0  0  0  0  0  0  0  0
   15.8780   -9.5300  -22.1190 C   0  0  0  0  0  0  0  0  0  0  0  0
   15.5080   -8.2760  -22.7010 C   0  0  0  0  0  0  0  0  0  0  0  0
   15.1210   -7.1410  -21.9360 C   0  0  0  0  0  0  0  0  0  0  0  0
   15.1100   -7.1420  -20.5390 C   0  0  0  0  0  0  0  0  0  0  0  0
   15.5030   -8.4530  -19.9130 C   0  0  0  0  0  0  0  0  0  0  0  0
   15.8850   -9.5540  -20.6610 C   0  0  0  0  0  0  0  0  0  0  0  0
   16.2050  -10.7030  -19.7490 C   0  0  0  0  0  0  0  0  0  0  0  0
   16.5990  -12.0140  -20.4100 C   0  0  0  0  0  0  0  0  0  0  0  0
   17.7620  -11.8620  -21.3850 C   0  0  0  0  0  0  0  0  0  0  0  0
   17.5260  -11.1940  -22.6040 C   0  0  0  0  0  0  0  0  0  0  0  0
   19.0150  -12.3730  -21.0740 C   0  0  0  0  0  0  0  0  0  0  0  0
   20.2000  -12.2440  -22.0350 C   0  0  0  0  0  0  0  0  0  0  0  0
   19.9460  -11.5770  -23.2430 C   0  0  0  0  0  0  0  0  0  0  0  0
   18.6370  -11.0950  -23.4600 C   0  0  0  0  0  0  0  0  0  0  0  0
   17.8139  -15.7114  -27.0957 H   0  0  0  0  0  0  0  0  0  0  0  0
   17.7388  -16.1727  -25.3613 H   0  0  0  0  0  0  0  0  0  0  0  0
   18.5975  -14.6745  -25.8558 H   0  0  0  0  0  0  0  0  0  0  0  0
   15.7334  -15.2014  -26.1736 H   0  0  0  0  0  0  0  0  0  0  0  0
   16.5203  -13.8285  -26.6268 H   0  0  0  0  0  0  0  0  0  0  0  0
   16.3124  -14.0272  -23.8049 H   0  0  0  0  0  0  0  0  0  0  0  0
   14.7348  -14.0468  -24.6636 H   0  0  0  0  0  0  0  0  0  0  0  0
   15.4651  -12.0904  -26.0409 H   0  0  0  0  0  0  0  0  0  0  0  0
   17.0363  -12.0678  -25.1705 H   0  0  0  0  0  0  0  0  0  0  0  0
   14.4699  -11.3854  -23.8078 H   0  0  0  0  0  0  0  0  0  0  0  0
   15.3400  -10.2131  -24.8544 H   0  0  0  0  0  0  0  0  0  0  0  0
   15.5235   -8.1865  -23.7812 H   0  0  0  0  0  0  0  0  0  0  0  0
   14.8226   -6.2390  -22.4579 H   0  0  0  0  0  0  0  0  0  0  0  0
   14.8405   -6.2701  -19.9540 H   0  0  0  0  0  0  0  0  0  0  0  0
   15.4864   -8.5389  -18.8325 H   0  0  0  0  0  0  0  0  0  0  0  0
   15.3151  -10.8959  -19.1319 H   0  0  0  0  0  0  0  0  0  0  0  0
   17.0391  -10.3925  -19.1027 H   0  0  0  0  0  0  0  0  0  0  0  0
   15.7298  -12.4052  -20.9590 H   0  0  0  0  0  0  0  0  0  0  0  0
   16.8896  -12.7288  -19.6260 H   0  0  0  0  0  0  0  0  0  0  0  0
   19.1582  -12.8770  -20.1250 H   0  0  0  0  0  0  0  0  0  0  0  0
   21.1784  -12.6447  -21.7959 H   0  0  0  0  0  0  0  0  0  0  0  0
   20.7262  -11.4370  -23.9824 H   0  0  0  0  0  0  0  0  0  0  0  0
   18.4677  -10.5862  -24.4021 H   0  0  0  0  0  0  0  0  0  0  0  0
  1  2  1  0  0  0  0
  1 21  1  0  0  0  0
  1 22  1  0  0  0  0
  1 23  1  0  0  0  0
  2  3  1  0  0  0  0
  2 24  1  0  0  0  0
  2 25  1  0  0  0  0
  3  4  1  0  0  0  0
  3 26  1  0  0  0  0
  3 27  1  0  0  0  0
  4  5  1  0  0  0  0
  4 28  1  0  0  0  0
  4 29  1  0  0  0  0
  5  6  1  0  0  0  0
  5 30  1  0  0  0  0
  5 31  1  0  0  0  0
  6  7  1  0  0  0  0
  6 16  1  0  0  0  0
  7  8  2  0  0  0  0
  7 12  1  0  0  0  0
  8  9  1  0  0  0  0
  8 32  1  0  0  0  0
  9 10  2  0  0  0  0
  9 33  1  0  0  0  0
 10 11  1  0  0  0  0
 10 34  1  0  0  0  0
 11 12  2  0  0  0  0
 11 35  1  0  0  0  0
 12 13  1  0  0  0  0
 13 14  1  0  0  0  0
 13 36  1  0  0  0  0
 13 37  1  0  0  0  0
 14 15  1  0  0  0  0
 14 38  1  0  0  0  0
 14 39  1  0  0  0  0
 15 16  2  0  0  0  0
 15 17  1  0  0  0  0
 16 20  1  0  0  0  0
 17 18  2  0  0  0  0
 17 40  1  0  0  0  0
 18 19  1  0  0  0  0
 18 41  1  0  0  0  0
 19 20  2  0  0  0  0
 19 42  1  0  0  0  0
 20 43  1  0  0  0  0
M  CHG  1   2   1
M  END
