2qlb_ligand
 OpenBabel08222323343D

 58 57  0  0  1  0  0  0  0  0999 V2000
  -34.2870   35.6270  -31.2990 N   0  3  0  0  0  0  0  0  0  0  0  0
  -35.3520   34.6600  -31.5980 C   0  0  2  0  0  0  0  0  0  0  0  0
  -36.4830   35.1930  -32.4680 C   0  0  0  0  0  0  0  0  0  0  0  0
  -36.7700   36.3910  -32.4660 O   0  0  0  0  0  0  0  0  0  0  0  0
  -35.8590   34.2430  -30.2190 C   0  0  0  0  0  0  0  0  0  0  0  0
  -35.0850   33.1000  -29.5910 C   0  0  0  0  0  0  0  0  0  0  0  0
  -34.5790   33.4370  -28.2070 C   0  0  0  0  0  0  0  0  0  0  0  0
  -34.0180   32.5370  -27.5440 O   0  5  0  0  0  0  0  0  0  0  0  0
  -34.7380   34.6040  -27.7860 O   0  0  0  0  0  0  0  0  0  0  0  0
  -37.1130   34.2870  -33.2140 N   0  0  0  0  0  0  0  0  0  0  0  0
  -38.2370   34.6280  -34.0810 C   0  0  2  0  0  0  0  0  0  0  0  0
  -39.4920   33.9120  -33.5780 C   0  0  0  0  0  0  0  0  0  0  0  0
  -39.4170   33.0770  -32.6760 O   0  0  0  0  0  0  0  0  0  0  0  0
  -37.9390   34.2430  -35.5350 C   0  0  0  0  0  0  0  0  0  0  0  0
  -37.5270   32.8950  -35.6390 O   0  0  0  0  0  0  0  0  0  0  0  0
  -40.6400   34.2340  -34.1650 N   0  0  0  0  0  0  0  0  0  0  0  0
  -41.9050   33.6470  -33.7370 C   0  0  2  0  0  0  0  0  0  0  0  0
  -42.5900   32.7550  -34.7700 C   0  0  0  0  0  0  0  0  0  0  0  0
  -42.4040   32.9250  -35.9780 O   0  0  0  0  0  0  0  0  0  0  0  0
  -42.8480   34.7710  -33.3090 C   0  0  0  0  0  0  0  0  0  0  0  0
  -42.2890   35.6050  -32.1670 C   0  0  0  0  0  0  0  0  0  0  0  0
  -42.8500   37.3140  -32.1990 S   0  0  0  0  0  0  0  0  0  0  0  0
  -41.5660   38.0640  -33.2050 C   0  0  0  0  0  0  0  0  0  0  0  0
  -43.3900   31.8080  -34.2740 N   0  0  0  0  0  0  0  0  0  0  0  0
  -44.1230   30.8560  -35.1110 C   0  0  2  0  0  0  0  0  0  0  0  0
  -45.6270   31.0220  -35.0070 C   0  0  0  0  0  0  0  0  0  0  0  0
  -46.1940   31.4220  -36.2600 O   0  0  0  0  0  0  0  0  0  0  0  0
  -43.8030   29.4200  -34.6990 C   0  0  0  0  0  0  0  0  0  0  0  0
  -42.5320   28.9050  -35.3190 C   0  0  0  0  0  0  0  0  0  0  0  0
  -41.9080   28.0050  -34.7170 O   0  5  0  0  0  0  0  0  0  0  0  0
  -42.1600   29.4010  -36.4050 O   0  0  0  0  0  0  0  0  0  0  0  0
  -33.5869   35.1879  -30.7218 H   0  0  0  0  0  0  0  0  0  0  0  0
  -34.6781   36.4171  -30.8103 H   0  0  0  0  0  0  0  0  0  0  0  0
  -33.8653   35.9393  -32.1597 H   0  0  0  0  0  0  0  0  0  0  0  0
  -34.9156   33.7921  -32.1140 H   0  0  0  0  0  0  0  0  0  0  0  0
  -36.9104   33.9348  -30.3168 H   0  0  0  0  0  0  0  0  0  0  0  0
  -35.7927   35.1133  -29.5495 H   0  0  0  0  0  0  0  0  0  0  0  0
  -34.2243   32.8615  -30.2332 H   0  0  0  0  0  0  0  0  0  0  0  0
  -35.7450   32.2227  -29.5216 H   0  0  0  0  0  0  0  0  0  0  0  0
  -36.8041   33.3365  -33.1788 H   0  0  0  0  0  0  0  0  0  0  0  0
  -38.4047   35.7141  -34.0346 H   0  0  0  0  0  0  0  0  0  0  0  0
  -37.1388   34.8922  -35.9200 H   0  0  0  0  0  0  0  0  0  0  0  0
  -38.8487   34.3862  -36.1365 H   0  0  0  0  0  0  0  0  0  0  0  0
  -37.3506   32.6883  -36.5493 H   0  0  0  0  0  0  0  0  0  0  0  0
  -40.6366   34.8934  -34.9168 H   0  0  0  0  0  0  0  0  0  0  0  0
  -41.6937   33.0195  -32.8586 H   0  0  0  0  0  0  0  0  0  0  0  0
  -43.8010   34.3267  -32.9861 H   0  0  0  0  0  0  0  0  0  0  0  0
  -43.0243   35.4299  -34.1720 H   0  0  0  0  0  0  0  0  0  0  0  0
  -41.1910   35.5960  -32.2320 H   0  0  0  0  0  0  0  0  0  0  0  0
  -42.6038   35.1513  -31.2157 H   0  0  0  0  0  0  0  0  0  0  0  0
  -41.7715   39.1384  -33.3205 H   0  0  0  0  0  0  0  0  0  0  0  0
  -41.5495   37.5853  -34.1952 H   0  0  0  0  0  0  0  0  0  0  0  0
  -40.5903   37.9279  -32.7156 H   0  0  0  0  0  0  0  0  0  0  0  0
  -43.4938   31.7458  -33.2813 H   0  0  0  0  0  0  0  0  0  0  0  0
  -43.8183   31.0117  -36.1564 H   0  0  0  0  0  0  0  0  0  0  0  0
  -46.2019   30.8581  -34.0967 H   0  0  0  0  0  0  0  0  0  0  0  0
  -44.6345   28.7711  -35.0114 H   0  0  0  0  0  0  0  0  0  0  0  0
  -43.7002   29.3830  -33.6045 H   0  0  0  0  0  0  0  0  0  0  0  0
  1  2  1  0  0  0  0
  1 32  1  0  0  0  0
  1 33  1  0  0  0  0
  1 34  1  0  0  0  0
  2  3  1  0  0  0  0
  2  5  1  0  0  0  0
  2 35  1  6  0  0  0
  3  4  2  0  0  0  0
  3 10  1  0  0  0  0
  5  6  1  0  0  0  0
  5 36  1  0  0  0  0
  5 37  1  0  0  0  0
  6  7  1  0  0  0  0
  6 38  1  0  0  0  0
  6 39  1  0  0  0  0
  7  8  1  0  0  0  0
  7  9  2  0  0  0  0
 10 11  1  0  0  0  0
 10 40  1  0  0  0  0
 11 12  1  0  0  0  0
 11 14  1  0  0  0  0
 11 41  1  1  0  0  0
 12 13  2  0  0  0  0
 12 16  1  0  0  0  0
 14 15  1  0  0  0  0
 14 42  1  0  0  0  0
 14 43  1  0  0  0  0
 15 44  1  0  0  0  0
 16 17  1  0  0  0  0
 16 45  1  0  0  0  0
 17 18  1  0  0  0  0
 17 20  1  0  0  0  0
 17 46  1  1  0  0  0
 18 19  2  0  0  0  0
 18 24  1  0  0  0  0
 20 21  1  0  0  0  0
 20 47  1  0  0  0  0
 20 48  1  0  0  0  0
 21 22  1  0  0  0  0
 21 49  1  0  0  0  0
 21 50  1  0  0  0  0
 22 23  1  0  0  0  0
 23 51  1  0  0  0  0
 23 52  1  0  0  0  0
 23 53  1  0  0  0  0
 24 25  1  0  0  0  0
 24 54  1  0  0  0  0
 25 26  1  0  0  0  0
 25 28  1  0  0  0  0
 25 55  1  6  0  0  0
 26 27  2  0  0  0  0
 26 56  1  0  0  0  0
 28 29  1  0  0  0  0
 28 57  1  0  0  0  0
 28 58  1  0  0  0  0
 29 30  1  0  0  0  0
 29 31  2  0  0  0  0
M  CHG  3   1   1   8  -1  30  -1
M  END
