2qlf_ligand
 OpenBabel08222323343D

 60 59  0  0  1  0  0  0  0  0999 V2000
  -47.6810   11.7670   30.8280 N   0  3  0  0  0  0  0  0  0  0  0  0
  -47.2950   13.1760   30.9770 C   0  0  2  0  0  0  0  0  0  0  0  0
  -48.2020   13.9010   31.9720 C   0  0  0  0  0  0  0  0  0  0  0  0
  -49.3380   13.4740   32.2130 O   0  0  0  0  0  0  0  0  0  0  0  0
  -47.4220   13.7420   29.5570 C   0  0  0  0  0  0  0  0  0  0  0  0
  -46.3980   13.1540   28.5880 C   0  0  0  0  0  0  0  0  0  0  0  0
  -45.1820   13.2570   28.8640 O   0  5  0  0  0  0  0  0  0  0  0  0
  -46.8040   12.5980   27.5440 O   0  0  0  0  0  0  0  0  0  0  0  0
  -47.6870   14.9870   32.5490 N   0  0  0  0  0  0  0  0  0  0  0  0
  -48.4290   15.7870   33.5230 C   0  0  2  0  0  0  0  0  0  0  0  0
  -48.7350   17.1640   32.9560 C   0  0  0  0  0  0  0  0  0  0  0  0
  -48.2260   17.5320   31.9000 O   0  0  0  0  0  0  0  0  0  0  0  0
  -47.6130   15.9490   34.8030 C   0  0  0  0  0  0  0  0  0  0  0  0
  -47.3310   14.6290   35.4880 C   0  0  0  0  0  0  0  0  0  0  0  0
  -46.6180   14.5840   36.4900 O   0  0  0  0  0  0  0  0  0  0  0  0
  -47.8900   13.5460   34.9570 N   0  0  0  0  0  0  0  0  0  0  0  0
  -49.5650   17.9230   33.6650 N   0  0  0  0  0  0  0  0  0  0  0  0
  -49.9300   19.2670   33.2310 C   0  0  2  0  0  0  0  0  0  0  0  0
  -49.4230   20.3220   34.2200 C   0  0  0  0  0  0  0  0  0  0  0  0
  -49.4770   20.1190   35.4370 O   0  0  0  0  0  0  0  0  0  0  0  0
  -51.4480   19.3780   33.0820 C   0  0  0  0  0  0  0  0  0  0  0  0
  -52.1330   18.4090   32.1130 C   0  0  0  0  0  0  0  0  0  0  0  0
  -53.6310   18.6620   32.1410 C   0  0  0  0  0  0  0  0  0  0  0  0
  -51.5950   18.5930   30.7060 C   0  0  0  0  0  0  0  0  0  0  0  0
  -48.9420   21.4470   33.6860 N   0  0  0  0  0  0  0  0  0  0  0  0
  -48.3990   22.5440   34.4910 C   0  0  2  0  0  0  0  0  0  0  0  0
  -49.2630   23.7960   34.4730 C   0  0  0  0  0  0  0  0  0  0  0  0
  -49.8620   24.0430   35.7460 O   0  0  0  0  0  0  0  0  0  0  0  0
  -47.0130   22.9360   33.9800 C   0  0  0  0  0  0  0  0  0  0  0  0
  -45.8990   22.2330   34.7190 C   0  0  0  0  0  0  0  0  0  0  0  0
  -44.8230   22.0230   34.1170 O   0  5  0  0  0  0  0  0  0  0  0  0
  -46.1030   21.8910   35.9050 O   0  0  0  0  0  0  0  0  0  0  0  0
  -47.0659   11.3182   30.1675 H   0  0  0  0  0  0  0  0  0  0  0  0
  -48.6304   11.7122   30.4938 H   0  0  0  0  0  0  0  0  0  0  0  0
  -47.6116   11.3034   31.7204 H   0  0  0  0  0  0  0  0  0  0  0  0
  -46.2546   13.2537   31.3257 H   0  0  0  0  0  0  0  0  0  0  0  0
  -47.2791   14.8318   29.5996 H   0  0  0  0  0  0  0  0  0  0  0  0
  -48.4307   13.5189   29.1793 H   0  0  0  0  0  0  0  0  0  0  0  0
  -46.7576   15.2653   32.3065 H   0  0  0  0  0  0  0  0  0  0  0  0
  -49.3739   15.2754   33.7586 H   0  0  0  0  0  0  0  0  0  0  0  0
  -48.1722   16.5932   35.4975 H   0  0  0  0  0  0  0  0  0  0  0  0
  -46.6545   16.4263   34.5511 H   0  0  0  0  0  0  0  0  0  0  0  0
  -47.7353   12.6492   35.3714 H   0  0  0  0  0  0  0  0  0  0  0  0
  -48.4652   13.6282   34.1431 H   0  0  0  0  0  0  0  0  0  0  0  0
  -49.9482   17.5640   34.5160 H   0  0  0  0  0  0  0  0  0  0  0  0
  -49.4654   19.4549   32.2518 H   0  0  0  0  0  0  0  0  0  0  0  0
  -51.6725   20.3995   32.7411 H   0  0  0  0  0  0  0  0  0  0  0  0
  -51.8900   19.2178   34.0765 H   0  0  0  0  0  0  0  0  0  0  0  0
  -51.9351   17.3764   32.4365 H   0  0  0  0  0  0  0  0  0  0  0  0
  -54.1326   17.9706   31.4479 H   0  0  0  0  0  0  0  0  0  0  0  0
  -53.8335   19.6990   31.8350 H   0  0  0  0  0  0  0  0  0  0  0  0
  -54.0114   18.4995   33.1603 H   0  0  0  0  0  0  0  0  0  0  0  0
  -50.5109   18.4069   30.7008 H   0  0  0  0  0  0  0  0  0  0  0  0
  -51.7921   19.6216   30.3696 H   0  0  0  0  0  0  0  0  0  0  0  0
  -52.0920   17.8838   30.0277 H   0  0  0  0  0  0  0  0  0  0  0  0
  -48.9528   21.5454   32.6909 H   0  0  0  0  0  0  0  0  0  0  0  0
  -48.3150   22.1931   35.5301 H   0  0  0  0  0  0  0  0  0  0  0  0
  -49.4071   24.4266   33.5970 H   0  0  0  0  0  0  0  0  0  0  0  0
  -46.8866   24.0217   34.1031 H   0  0  0  0  0  0  0  0  0  0  0  0
  -46.9453   22.6776   32.9129 H   0  0  0  0  0  0  0  0  0  0  0  0
  1  2  1  0  0  0  0
  1 33  1  0  0  0  0
  1 34  1  0  0  0  0
  1 35  1  0  0  0  0
  2  3  1  0  0  0  0
  2  5  1  0  0  0  0
  2 36  1  1  0  0  0
  3  4  2  0  0  0  0
  3  9  1  0  0  0  0
  5  6  1  0  0  0  0
  5 37  1  0  0  0  0
  5 38  1  0  0  0  0
  6  7  1  0  0  0  0
  6  8  2  0  0  0  0
  9 10  1  0  0  0  0
  9 39  1  0  0  0  0
 10 11  1  0  0  0  0
 10 13  1  0  0  0  0
 10 40  1  1  0  0  0
 11 12  2  0  0  0  0
 11 17  1  0  0  0  0
 13 14  1  0  0  0  0
 13 41  1  0  0  0  0
 13 42  1  0  0  0  0
 14 15  2  0  0  0  0
 14 16  1  0  0  0  0
 16 43  1  0  0  0  0
 16 44  1  0  0  0  0
 17 18  1  0  0  0  0
 17 45  1  0  0  0  0
 18 19  1  0  0  0  0
 18 21  1  0  0  0  0
 18 46  1  6  0  0  0
 19 20  2  0  0  0  0
 19 25  1  0  0  0  0
 21 22  1  0  0  0  0
 21 47  1  0  0  0  0
 21 48  1  0  0  0  0
 22 23  1  0  0  0  0
 22 24  1  0  0  0  0
 22 49  1  0  0  0  0
 23 50  1  0  0  0  0
 23 51  1  0  0  0  0
 23 52  1  0  0  0  0
 24 53  1  0  0  0  0
 24 54  1  0  0  0  0
 24 55  1  0  0  0  0
 25 26  1  0  0  0  0
 25 56  1  0  0  0  0
 26 27  1  0  0  0  0
 26 29  1  0  0  0  0
 26 57  1  1  0  0  0
 27 28  2  0  0  0  0
 27 58  1  0  0  0  0
 29 30  1  0  0  0  0
 29 59  1  0  0  0  0
 29 60  1  0  0  0  0
 30 31  1  0  0  0  0
 30 32  2  0  0  0  0
M  CHG  3   1   1   7  -1  31  -1
M  END
