2qlj_ligand
 OpenBabel08222323343D

 71 73  0  0  1  0  0  0  0  0999 V2000
  -34.0400   35.0190  -31.9180 N   0  3  0  0  0  0  0  0  0  0  0  0
  -35.2830   34.5350  -31.3940 C   0  0  2  0  0  0  0  0  0  0  0  0
  -36.4330   35.1350  -32.2950 C   0  0  0  0  0  0  0  0  0  0  0  0
  -36.6870   36.3260  -32.2650 O   0  0  0  0  0  0  0  0  0  0  0  0
  -35.5670   34.9220  -29.9180 C   0  0  0  0  0  0  0  0  0  0  0  0
  -34.8090   33.9980  -29.0010 C   0  0  0  0  0  0  0  0  0  0  0  0
  -35.1770   32.7220  -28.7100 C   0  0  0  0  0  0  0  0  0  0  0  0
  -33.6150   34.2700  -28.2320 C   0  0  0  0  0  0  0  0  0  0  0  0
  -34.3030   32.1870  -27.7890 N   0  0  0  0  0  0  0  0  0  0  0  0
  -33.3520   33.1060  -27.4800 C   0  0  0  0  0  0  0  0  0  0  0  0
  -32.7340   35.3540  -28.0420 C   0  0  0  0  0  0  0  0  0  0  0  0
  -32.2850   32.9990  -26.5820 C   0  0  0  0  0  0  0  0  0  0  0  0
  -31.6810   35.2420  -27.1620 C   0  0  0  0  0  0  0  0  0  0  0  0
  -31.4650   34.0850  -26.4320 C   0  0  0  0  0  0  0  0  0  0  0  0
  -37.1470   34.2960  -33.0930 N   0  0  0  0  0  0  0  0  0  0  0  0
  -38.2640   34.7480  -33.9650 C   0  0  2  0  0  0  0  0  0  0  0  0
  -39.5300   34.0790  -33.4500 C   0  0  0  0  0  0  0  0  0  0  0  0
  -39.5350   33.5940  -32.3270 O   0  0  0  0  0  0  0  0  0  0  0  0
  -38.0230   34.3030  -35.4120 C   0  0  0  0  0  0  0  0  0  0  0  0
  -36.5600   34.3200  -35.8300 C   0  0  0  0  0  0  0  0  0  0  0  0
  -36.3530   33.8190  -37.2480 C   0  0  0  0  0  0  0  0  0  0  0  0
  -35.1810   33.6540  -37.6590 O   0  5  0  0  0  0  0  0  0  0  0  0
  -37.3640   33.5930  -37.9500 O   0  0  0  0  0  0  0  0  0  0  0  0
  -40.5920   34.0320  -34.2500 N   0  0  0  0  0  0  0  0  0  0  0  0
  -41.8140   33.3760  -33.7950 C   0  0  2  0  0  0  0  0  0  0  0  0
  -42.5860   32.6540  -34.8990 C   0  0  0  0  0  0  0  0  0  0  0  0
  -42.4080   32.9350  -36.0860 O   0  0  0  0  0  0  0  0  0  0  0  0
  -42.7350   34.3780  -33.0780 C   0  0  0  0  0  0  0  0  0  0  0  0
  -43.1600   35.5360  -33.9280 C   0  0  0  0  0  0  0  0  0  0  0  0
  -42.3160   36.5790  -34.2440 N   0  0  0  0  0  0  0  0  0  0  0  0
  -44.3420   35.8130  -34.5280 C   0  0  0  0  0  0  0  0  0  0  0  0
  -42.9600   37.4500  -35.0010 C   0  0  0  0  0  0  0  0  0  0  0  0
  -44.1910   37.0090  -35.1890 N   0  0  0  0  0  0  0  0  0  0  0  0
  -43.4360   31.7130  -34.4880 N   0  0  0  0  0  0  0  0  0  0  0  0
  -44.2540   30.9250  -35.4090 C   0  0  2  0  0  0  0  0  0  0  0  0
  -45.7440   31.1880  -35.2250 C   0  0  0  0  0  0  0  0  0  0  0  0
  -46.2980   31.7960  -36.4070 O   0  0  0  0  0  0  0  0  0  0  0  0
  -44.0180   29.4240  -35.2040 C   0  0  0  0  0  0  0  0  0  0  0  0
  -42.5820   29.0090  -35.4630 C   0  0  0  0  0  0  0  0  0  0  0  0
  -42.0580   28.1770  -34.6960 O   0  5  0  0  0  0  0  0  0  0  0  0
  -41.9780   29.5070  -36.4340 O   0  0  0  0  0  0  0  0  0  0  0  0
  -33.2786   34.6557  -31.3663 H   0  0  0  0  0  0  0  0  0  0  0  0
  -34.0298   36.0263  -31.8825 H   0  0  0  0  0  0  0  0  0  0  0  0
  -33.9372   34.7154  -32.8737 H   0  0  0  0  0  0  0  0  0  0  0  0
  -35.2872   33.4375  -31.4678 H   0  0  0  0  0  0  0  0  0  0  0  0
  -36.6449   34.8346  -29.7171 H   0  0  0  0  0  0  0  0  0  0  0  0
  -35.2441   35.9587  -29.7423 H   0  0  0  0  0  0  0  0  0  0  0  0
  -36.0321   32.2021  -29.1394 H   0  0  0  0  0  0  0  0  0  0  0  0
  -34.3618   31.2369  -27.3956 H   0  0  0  0  0  0  0  0  0  0  0  0
  -32.8858   36.2771  -28.5896 H   0  0  0  0  0  0  0  0  0  0  0  0
  -32.1130   32.0862  -26.0232 H   0  0  0  0  0  0  0  0  0  0  0  0
  -31.0045   36.0798  -27.0375 H   0  0  0  0  0  0  0  0  0  0  0  0
  -30.6371   34.0388  -25.7338 H   0  0  0  0  0  0  0  0  0  0  0  0
  -36.9085   33.3249  -33.0934 H   0  0  0  0  0  0  0  0  0  0  0  0
  -38.3612   35.8428  -33.9218 H   0  0  0  0  0  0  0  0  0  0  0  0
  -38.5808   34.9772  -36.0786 H   0  0  0  0  0  0  0  0  0  0  0  0
  -38.4033   33.2772  -35.5262 H   0  0  0  0  0  0  0  0  0  0  0  0
  -35.9895   33.6781  -35.1426 H   0  0  0  0  0  0  0  0  0  0  0  0
  -36.1862   35.3524  -35.7629 H   0  0  0  0  0  0  0  0  0  0  0  0
  -40.5532   34.4447  -35.1600 H   0  0  0  0  0  0  0  0  0  0  0  0
  -41.5131   32.6138  -33.0612 H   0  0  0  0  0  0  0  0  0  0  0  0
  -42.2007   34.7715  -32.2007 H   0  0  0  0  0  0  0  0  0  0  0  0
  -43.6374   33.8425  -32.7480 H   0  0  0  0  0  0  0  0  0  0  0  0
  -45.2433   35.2027  -34.4934 H   0  0  0  0  0  0  0  0  0  0  0  0
  -42.5462   38.3742  -35.4017 H   0  0  0  0  0  0  0  0  0  0  0  0
  -44.9193   37.4840  -35.7411 H   0  0  0  0  0  0  0  0  0  0  0  0
  -43.5179   31.5383  -33.5068 H   0  0  0  0  0  0  0  0  0  0  0  0
  -43.9705   31.1959  -36.4367 H   0  0  0  0  0  0  0  0  0  0  0  0
  -46.3102   30.9496  -34.3258 H   0  0  0  0  0  0  0  0  0  0  0  0
  -44.6727   28.8690  -35.8920 H   0  0  0  0  0  0  0  0  0  0  0  0
  -44.2752   29.1673  -34.1658 H   0  0  0  0  0  0  0  0  0  0  0  0
  1  2  1  0  0  0  0
  1 42  1  0  0  0  0
  1 43  1  0  0  0  0
  1 44  1  0  0  0  0
  2  3  1  0  0  0  0
  2  5  1  0  0  0  0
  2 45  1  6  0  0  0
  3  4  2  0  0  0  0
  3 15  1  0  0  0  0
  5  6  1  0  0  0  0
  5 46  1  0  0  0  0
  5 47  1  0  0  0  0
  6  7  2  0  0  0  0
  6  8  1  0  0  0  0
  7  9  1  0  0  0  0
  7 48  1  0  0  0  0
  8 10  2  0  0  0  0
  8 11  1  0  0  0  0
  9 10  1  0  0  0  0
  9 49  1  0  0  0  0
 10 12  1  0  0  0  0
 11 13  2  0  0  0  0
 11 50  1  0  0  0  0
 12 14  2  0  0  0  0
 12 51  1  0  0  0  0
 13 14  1  0  0  0  0
 13 52  1  0  0  0  0
 14 53  1  0  0  0  0
 15 16  1  0  0  0  0
 15 54  1  0  0  0  0
 16 17  1  0  0  0  0
 16 19  1  0  0  0  0
 16 55  1  1  0  0  0
 17 18  2  0  0  0  0
 17 24  1  0  0  0  0
 19 20  1  0  0  0  0
 19 56  1  0  0  0  0
 19 57  1  0  0  0  0
 20 21  1  0  0  0  0
 20 58  1  0  0  0  0
 20 59  1  0  0  0  0
 21 22  1  0  0  0  0
 21 23  2  0  0  0  0
 24 25  1  0  0  0  0
 24 60  1  0  0  0  0
 25 26  1  0  0  0  0
 25 28  1  0  0  0  0
 25 61  1  1  0  0  0
 26 27  2  0  0  0  0
 26 34  1  0  0  0  0
 28 29  1  0  0  0  0
 28 62  1  0  0  0  0
 28 63  1  0  0  0  0
 29 30  1  0  0  0  0
 29 31  2  0  0  0  0
 30 32  2  0  0  0  0
 31 33  1  0  0  0  0
 31 64  1  0  0  0  0
 32 33  1  0  0  0  0
 32 65  1  0  0  0  0
 33 66  1  0  0  0  0
 34 35  1  0  0  0  0
 34 67  1  0  0  0  0
 35 36  1  0  0  0  0
 35 38  1  0  0  0  0
 35 68  1  6  0  0  0
 36 37  2  0  0  0  0
 36 69  1  0  0  0  0
 38 39  1  0  0  0  0
 38 70  1  0  0  0  0
 38 71  1  0  0  0  0
 39 40  1  0  0  0  0
 39 41  2  0  0  0  0
M  CHG  3   1   1  22  -1  40  -1
M  END
