2qlm_ligand
 OpenBabel08222323343D

 44 45  0  0  1  0  0  0  0  0999 V2000
   36.7110   26.3810   31.9780 C   0  0  0  0  0  0  0  0  0  0  0  0
   37.8460   26.9110   32.5900 C   0  0  0  0  0  0  0  0  0  0  0  0
   37.9400   26.9330   33.9840 C   0  0  0  0  0  0  0  0  0  0  0  0
   39.1890   27.5220   34.6450 C   0  0  0  0  0  0  0  0  0  0  0  0
   36.8980   26.4310   34.7680 C   0  0  0  0  0  0  0  0  0  0  0  0
   35.7640   25.8990   34.1500 C   0  0  0  0  0  0  0  0  0  0  0  0
   35.6720   25.8650   32.7550 C   0  0  0  0  0  0  0  0  0  0  0  0
   34.4150   25.2890   32.0730 C   0  0  0  0  0  0  0  0  0  0  0  0
   33.3110   25.4100   32.6110 O   0  0  0  0  0  0  0  0  0  0  0  0
   34.6390   24.6880   30.8890 N   0  0  0  0  0  0  0  0  0  0  0  0
   33.7040   24.1170   30.1060 C   0  0  0  0  0  0  0  0  0  0  0  0
   32.5060   24.0960   30.4020 O   0  0  0  0  0  0  0  0  0  0  0  0
   34.1460   23.5700   28.9700 N   0  0  0  0  0  0  0  0  0  0  0  0
   33.2130   22.9080   28.0170 C   0  0  2  0  0  0  0  0  0  0  0  0
   33.1530   21.4650   28.2550 O   0  0  0  0  0  0  0  0  0  0  0  0
   32.1170   20.8330   27.4860 C   0  0  2  0  0  0  0  0  0  0  0  0
   32.0460   19.3570   27.9170 C   0  0  0  0  0  0  0  0  0  0  0  0
   33.1600   18.6250   27.3900 O   0  0  0  0  0  0  0  0  0  0  0  0
   32.3390   21.0300   25.9640 C   0  0  1  0  0  0  0  0  0  0  0  0
   31.1890   20.5620   25.2540 O   0  0  0  0  0  0  0  0  0  0  0  0
   32.5810   22.5140   25.6210 C   0  0  2  0  0  0  0  0  0  0  0  0
   32.9820   22.6380   24.2530 O   0  0  0  0  0  0  0  0  0  0  0  0
   33.6330   23.1360   26.5570 C   0  0  1  0  0  0  0  0  0  0  0  0
   33.8100   24.5400   26.2990 O   0  0  0  0  0  0  0  0  0  0  0  0
   36.6350   26.3695   30.8967 H   0  0  0  0  0  0  0  0  0  0  0  0
   38.6545   27.3055   31.9852 H   0  0  0  0  0  0  0  0  0  0  0  0
   39.0905   27.4565   35.7386 H   0  0  0  0  0  0  0  0  0  0  0  0
   39.2981   28.5758   34.3492 H   0  0  0  0  0  0  0  0  0  0  0  0
   40.0758   26.9568   34.3223 H   0  0  0  0  0  0  0  0  0  0  0  0
   36.9693   26.4543   35.8494 H   0  0  0  0  0  0  0  0  0  0  0  0
   34.9519   25.5109   34.7542 H   0  0  0  0  0  0  0  0  0  0  0  0
   35.5837   24.6635   30.5621 H   0  0  0  0  0  0  0  0  0  0  0  0
   35.1221   23.6059   28.7557 H   0  0  0  0  0  0  0  0  0  0  0  0
   32.2104   23.3350   28.1667 H   0  0  0  0  0  0  0  0  0  0  0  0
   31.1573   21.3070   27.7396 H   0  0  0  0  0  0  0  0  0  0  0  0
   31.1118   18.9147   27.5406 H   0  0  0  0  0  0  0  0  0  0  0  0
   32.0624   19.2996   29.0154 H   0  0  0  0  0  0  0  0  0  0  0  0
   33.9685   19.0032   27.7154 H   0  0  0  0  0  0  0  0  0  0  0  0
   33.2184   20.4460   25.6547 H   0  0  0  0  0  0  0  0  0  0  0  0
   30.4252   21.0544   25.5309 H   0  0  0  0  0  0  0  0  0  0  0  0
   31.6356   23.0595   25.7570 H   0  0  0  0  0  0  0  0  0  0  0  0
   33.1292   23.5541   24.0491 H   0  0  0  0  0  0  0  0  0  0  0  0
   34.5946   22.6307   26.3840 H   0  0  0  0  0  0  0  0  0  0  0  0
   32.9851   24.9919   26.4328 H   0  0  0  0  0  0  0  0  0  0  0  0
  1  2  2  0  0  0  0
  1  7  1  0  0  0  0
  1 25  1  0  0  0  0
  2  3  1  0  0  0  0
  2 26  1  0  0  0  0
  3  4  1  0  0  0  0
  3  5  2  0  0  0  0
  4 27  1  0  0  0  0
  4 28  1  0  0  0  0
  4 29  1  0  0  0  0
  5  6  1  0  0  0  0
  5 30  1  0  0  0  0
  6  7  2  0  0  0  0
  6 31  1  0  0  0  0
  7  8  1  0  0  0  0
  8  9  2  0  0  0  0
  8 10  1  0  0  0  0
 10 11  1  0  0  0  0
 10 32  1  0  0  0  0
 11 12  2  0  0  0  0
 11 13  1  0  0  0  0
 13 14  1  0  0  0  0
 13 33  1  0  0  0  0
 14 15  1  0  0  0  0
 14 23  1  0  0  0  0
 14 34  1  1  0  0  0
 15 16  1  0  0  0  0
 16 17  1  0  0  0  0
 16 19  1  0  0  0  0
 16 35  1  1  0  0  0
 17 18  1  0  0  0  0
 17 36  1  0  0  0  0
 17 37  1  0  0  0  0
 18 38  1  0  0  0  0
 19 20  1  0  0  0  0
 19 21  1  0  0  0  0
 19 39  1  6  0  0  0
 20 40  1  0  0  0  0
 21 22  1  0  0  0  0
 21 23  1  0  0  0  0
 21 41  1  1  0  0  0
 22 42  1  0  0  0  0
 23 24  1  0  0  0  0
 23 43  1  6  0  0  0
 24 44  1  0  0  0  0
M  END
