2qln_ligand
 OpenBabel08222323343D

 51 53  0  0  1  0  0  0  0  0999 V2000
   39.6340   26.5090   35.8000 C   0  0  0  0  0  0  0  0  0  0  0  0
   40.5880   26.9130   36.7400 C   0  0  0  0  0  0  0  0  0  0  0  0
   40.2200   27.7400   37.8020 C   0  0  0  0  0  0  0  0  0  0  0  0
   38.8970   28.1630   37.9280 C   0  0  0  0  0  0  0  0  0  0  0  0
   37.9450   27.7610   36.9920 C   0  0  0  0  0  0  0  0  0  0  0  0
   38.3060   26.9390   35.9150 C   0  0  0  0  0  0  0  0  0  0  0  0
   37.3350   26.5360   34.9860 C   0  0  0  0  0  0  0  0  0  0  0  0
   36.0480   26.2420   35.4390 C   0  0  0  0  0  0  0  0  0  0  0  0
   35.0560   25.8360   34.5400 C   0  0  0  0  0  0  0  0  0  0  0  0
   37.6190   26.4110   33.6170 C   0  0  0  0  0  0  0  0  0  0  0  0
   36.6190   26.0020   32.7180 C   0  0  0  0  0  0  0  0  0  0  0  0
   35.3270   25.7110   33.1770 C   0  0  0  0  0  0  0  0  0  0  0  0
   34.1730   25.2500   32.2500 C   0  0  0  0  0  0  0  0  0  0  0  0
   33.0050   25.4600   32.5830 O   0  0  0  0  0  0  0  0  0  0  0  0
   34.5300   24.6130   31.1210 N   0  0  0  0  0  0  0  0  0  0  0  0
   33.6470   24.1340   30.2190 C   0  0  0  0  0  0  0  0  0  0  0  0
   32.4250   24.2340   30.3620 O   0  0  0  0  0  0  0  0  0  0  0  0
   34.1600   23.5340   29.1390 N   0  0  0  0  0  0  0  0  0  0  0  0
   33.2480   22.9700   28.1060 C   0  0  2  0  0  0  0  0  0  0  0  0
   33.1620   21.5350   28.3350 O   0  0  0  0  0  0  0  0  0  0  0  0
   32.1390   20.9050   27.5490 C   0  0  2  0  0  0  0  0  0  0  0  0
   32.0640   19.4350   27.9830 C   0  0  0  0  0  0  0  0  0  0  0  0
   33.1480   18.6860   27.4220 O   0  0  0  0  0  0  0  0  0  0  0  0
   32.3980   21.1140   26.0370 C   0  0  1  0  0  0  0  0  0  0  0  0
   31.2710   20.6590   25.3090 O   0  0  0  0  0  0  0  0  0  0  0  0
   32.6360   22.5990   25.7070 C   0  0  2  0  0  0  0  0  0  0  0  0
   33.0470   22.7210   24.3470 O   0  0  0  0  0  0  0  0  0  0  0  0
   33.6930   23.2070   26.6550 C   0  0  1  0  0  0  0  0  0  0  0  0
   33.8820   24.6080   26.4120 O   0  0  0  0  0  0  0  0  0  0  0  0
   39.9234   25.8613   34.9803 H   0  0  0  0  0  0  0  0  0  0  0  0
   41.6159   26.5827   36.6431 H   0  0  0  0  0  0  0  0  0  0  0  0
   40.9614   28.0532   38.5281 H   0  0  0  0  0  0  0  0  0  0  0  0
   38.6090   28.8041   38.7533 H   0  0  0  0  0  0  0  0  0  0  0  0
   36.9166   28.0869   37.0979 H   0  0  0  0  0  0  0  0  0  0  0  0
   35.8156   26.3288   36.4942 H   0  0  0  0  0  0  0  0  0  0  0  0
   34.0607   25.6149   34.9083 H   0  0  0  0  0  0  0  0  0  0  0  0
   38.6153   26.6312   33.2510 H   0  0  0  0  0  0  0  0  0  0  0  0
   36.8485   25.9110   31.6625 H   0  0  0  0  0  0  0  0  0  0  0  0
   35.5052   24.4868   30.9390 H   0  0  0  0  0  0  0  0  0  0  0  0
   35.1512   23.4646   29.0260 H   0  0  0  0  0  0  0  0  0  0  0  0
   32.2548   23.4242   28.2372 H   0  0  0  0  0  0  0  0  0  0  0  0
   31.1737   21.3773   27.7836 H   0  0  0  0  0  0  0  0  0  0  0  0
   31.1118   19.0050   27.6390 H   0  0  0  0  0  0  0  0  0  0  0  0
   32.1163   19.3793   29.0803 H   0  0  0  0  0  0  0  0  0  0  0  0
   33.9723   19.0529   27.7193 H   0  0  0  0  0  0  0  0  0  0  0  0
   33.2850   20.5342   25.7419 H   0  0  0  0  0  0  0  0  0  0  0  0
   30.5037   21.1523   25.5744 H   0  0  0  0  0  0  0  0  0  0  0  0
   31.6916   23.1467   25.8412 H   0  0  0  0  0  0  0  0  0  0  0  0
   33.1940   23.6371   24.1427 H   0  0  0  0  0  0  0  0  0  0  0  0
   34.6519   22.6947   26.4877 H   0  0  0  0  0  0  0  0  0  0  0  0
   33.0604   25.0654   26.5473 H   0  0  0  0  0  0  0  0  0  0  0  0
  1  2  2  0  0  0  0
  1  6  1  0  0  0  0
  1 30  1  0  0  0  0
  2  3  1  0  0  0  0
  2 31  1  0  0  0  0
  3  4  2  0  0  0  0
  3 32  1  0  0  0  0
  4  5  1  0  0  0  0
  4 33  1  0  0  0  0
  5  6  2  0  0  0  0
  5 34  1  0  0  0  0
  6  7  1  0  0  0  0
  7  8  2  0  0  0  0
  7 10  1  0  0  0  0
  8  9  1  0  0  0  0
  8 35  1  0  0  0  0
  9 12  2  0  0  0  0
  9 36  1  0  0  0  0
 10 11  2  0  0  0  0
 10 37  1  0  0  0  0
 11 12  1  0  0  0  0
 11 38  1  0  0  0  0
 12 13  1  0  0  0  0
 13 14  2  0  0  0  0
 13 15  1  0  0  0  0
 15 16  1  0  0  0  0
 15 39  1  0  0  0  0
 16 17  2  0  0  0  0
 16 18  1  0  0  0  0
 18 19  1  0  0  0  0
 18 40  1  0  0  0  0
 19 20  1  0  0  0  0
 19 28  1  0  0  0  0
 19 41  1  1  0  0  0
 20 21  1  0  0  0  0
 21 22  1  0  0  0  0
 21 24  1  0  0  0  0
 21 42  1  1  0  0  0
 22 23  1  0  0  0  0
 22 43  1  0  0  0  0
 22 44  1  0  0  0  0
 23 45  1  0  0  0  0
 24 25  1  0  0  0  0
 24 26  1  0  0  0  0
 24 46  1  6  0  0  0
 25 47  1  0  0  0  0
 26 27  1  0  0  0  0
 26 28  1  0  0  0  0
 26 48  1  1  0  0  0
 27 49  1  0  0  0  0
 28 29  1  0  0  0  0
 28 50  1  6  0  0  0
 29 51  1  0  0  0  0
M  END
