2qmf_ligand
 OpenBabel08222323343D

 85 88  0  0  1  0  0  0  0  0999 V2000
   26.9660   15.4650   24.4540 C   0  0  0  0  0  0  0  0  0  0  0  0
   25.6910   15.8920   24.8960 C   0  0  0  0  0  0  0  0  0  0  0  0
   24.5420   15.0930   24.5950 C   0  0  0  0  0  0  0  0  0  0  0  0
   24.6700   13.8780   23.8590 C   0  0  0  0  0  0  0  0  0  0  0  0
   25.9520   13.4760   23.4300 C   0  0  0  0  0  0  0  0  0  0  0  0
   27.1080   14.2640   23.7190 C   0  0  0  0  0  0  0  0  0  0  0  0
   28.4460   13.8110   23.2680 C   0  0  0  0  0  0  0  0  0  0  0  0
   28.7600   13.6120   21.9020 N   0  0  0  0  0  0  0  0  0  0  0  0
   29.2900   13.5930   24.1280 O   0  0  0  0  0  0  0  0  0  0  0  0
   27.8460   13.8410   20.7410 C   0  0  0  0  0  0  0  0  0  0  0  0
   28.3380   14.9910   19.8340 C   0  0  0  0  0  0  0  0  0  0  0  0
   28.6820   16.2760   20.6100 C   0  0  0  0  0  0  0  0  0  0  0  0
   30.1370   13.1380   21.5920 C   0  0  0  0  0  0  0  0  0  0  0  0
   30.1420   11.6760   21.0550 C   0  0  0  0  0  0  0  0  0  0  0  0
   29.3500   10.6670   21.9170 C   0  0  0  0  0  0  0  0  0  0  0  0
   25.5610   17.1790   25.6760 C   0  0  0  0  0  0  0  0  0  0  0  0
   23.4650   13.0710   23.5510 C   0  0  0  0  0  0  0  0  0  0  0  0
   23.6660   11.7170   23.4310 N   0  0  0  0  0  0  0  0  0  0  0  0
   22.3450   13.5710   23.4020 O   0  0  0  0  0  0  0  0  0  0  0  0
   22.5760   10.7620   23.1090 C   0  0  2  0  0  0  0  0  0  0  0  0
   22.1620    9.9200   24.3330 C   0  0  2  0  0  0  0  0  0  0  0  0
   23.0630    9.8610   21.9360 C   0  0  0  0  0  0  0  0  0  0  0  0
   21.1060    9.0640   23.9540 O   0  0  0  0  0  0  0  0  0  0  0  0
   23.6920   10.6500   20.8050 C   0  0  0  0  0  0  0  0  0  0  0  0
   25.0300   10.3790   20.4130 C   0  0  0  0  0  0  0  0  0  0  0  0
   25.6110   11.1200   19.3560 C   0  0  0  0  0  0  0  0  0  0  0  0
   24.9100   12.1310   18.6680 C   0  0  0  0  0  0  0  0  0  0  0  0
   23.5810   12.3880   19.0730 C   0  0  0  0  0  0  0  0  0  0  0  0
   22.9650   11.6700   20.1210 C   0  0  0  0  0  0  0  0  0  0  0  0
   26.8620   10.8520   19.0050 F   0  0  0  0  0  0  0  0  0  0  0  0
   22.8880   13.3380   18.4440 F   0  0  0  0  0  0  0  0  0  0  0  0
   19.5270   11.4560   26.5140 C   0  0  1  0  0  0  0  0  0  0  0  0
   20.4640   10.7800   27.5110 C   0  0  0  0  0  0  0  0  0  0  0  0
   21.2560    9.8830   26.6650 N   0  3  0  0  0  0  0  0  0  0  0  0
   20.4410   11.6420   25.2790 C   0  0  0  0  0  0  0  0  0  0  0  0
   21.6690   10.7450   25.5520 C   0  0  2  0  0  0  0  0  0  0  0  0
   18.4550   10.5210   26.3000 O   0  0  0  0  0  0  0  0  0  0  0  0
   17.4720   10.8120   25.3380 C   0  0  0  0  0  0  0  0  0  0  0  0
   17.0020   12.1230   24.9740 C   0  0  0  0  0  0  0  0  0  0  0  0
   16.0070   12.2680   23.9850 C   0  0  0  0  0  0  0  0  0  0  0  0
   15.4670   11.1270   23.3460 C   0  0  0  0  0  0  0  0  0  0  0  0
   15.9230    9.8300   23.6980 C   0  0  0  0  0  0  0  0  0  0  0  0
   16.9200    9.6780   24.6880 C   0  0  0  0  0  0  0  0  0  0  0  0
   27.8413   16.0631   24.6804 H   0  0  0  0  0  0  0  0  0  0  0  0
   23.5629   15.4152   24.9305 H   0  0  0  0  0  0  0  0  0  0  0  0
   26.0620   12.5535   22.8715 H   0  0  0  0  0  0  0  0  0  0  0  0
   26.8450   14.0924   21.1214 H   0  0  0  0  0  0  0  0  0  0  0  0
   27.7907   12.9180   20.1453 H   0  0  0  0  0  0  0  0  0  0  0  0
   27.5469   15.2242   19.1062 H   0  0  0  0  0  0  0  0  0  0  0  0
   29.2390   14.6537   19.3007 H   0  0  0  0  0  0  0  0  0  0  0  0
   29.0236   17.0491   19.9060 H   0  0  0  0  0  0  0  0  0  0  0  0
   29.4802   16.0632   21.3364 H   0  0  0  0  0  0  0  0  0  0  0  0
   27.7880   16.6336   21.1418 H   0  0  0  0  0  0  0  0  0  0  0  0
   30.7429   13.1818   22.5090 H   0  0  0  0  0  0  0  0  0  0  0  0
   30.5770   13.7980   20.8299 H   0  0  0  0  0  0  0  0  0  0  0  0
   31.1863   11.3346   21.0012 H   0  0  0  0  0  0  0  0  0  0  0  0
   29.7052   11.6806   20.0454 H   0  0  0  0  0  0  0  0  0  0  0  0
   29.4110    9.6679   21.4608 H   0  0  0  0  0  0  0  0  0  0  0  0
   28.2971   10.9804   21.9739 H   0  0  0  0  0  0  0  0  0  0  0  0
   29.7782   10.6344   22.9297 H   0  0  0  0  0  0  0  0  0  0  0  0
   26.5542   17.6357   25.7979 H   0  0  0  0  0  0  0  0  0  0  0  0
   25.1314   16.9660   26.6660 H   0  0  0  0  0  0  0  0  0  0  0  0
   24.9028   17.8725   25.1321 H   0  0  0  0  0  0  0  0  0  0  0  0
   24.5895   11.3582   23.5669 H   0  0  0  0  0  0  0  0  0  0  0  0
   21.6958   11.3317   22.7762 H   0  0  0  0  0  0  0  0  0  0  0  0
   23.0298    9.3212   24.6465 H   0  0  0  0  0  0  0  0  0  0  0  0
   22.2004    9.3060   21.5388 H   0  0  0  0  0  0  0  0  0  0  0  0
   23.8080    9.1514   22.3250 H   0  0  0  0  0  0  0  0  0  0  0  0
   21.3982    8.4940   23.2525 H   0  0  0  0  0  0  0  0  0  0  0  0
   25.6022    9.6102   20.9196 H   0  0  0  0  0  0  0  0  0  0  0  0
   25.3717   12.6886   17.8611 H   0  0  0  0  0  0  0  0  0  0  0  0
   21.9429   11.8928   20.4053 H   0  0  0  0  0  0  0  0  0  0  0  0
   19.1375   12.4199   26.8734 H   0  0  0  0  0  0  0  0  0  0  0  0
   19.8971   10.2140   28.2648 H   0  0  0  0  0  0  0  0  0  0  0  0
   21.1060   11.5186   28.0133 H   0  0  0  0  0  0  0  0  0  0  0  0
   20.6978    9.1109   26.3357 H   0  0  0  0  0  0  0  0  0  0  0  0
   22.0571    9.5296   27.1643 H   0  0  0  0  0  0  0  0  0  0  0  0
   20.7455   12.6942   25.1783 H   0  0  0  0  0  0  0  0  0  0  0  0
   19.9235   11.3207   24.3631 H   0  0  0  0  0  0  0  0  0  0  0  0
   22.5056   11.3817   25.8756 H   0  0  0  0  0  0  0  0  0  0  0  0
   17.4133   12.9999   25.4607 H   0  0  0  0  0  0  0  0  0  0  0  0
   15.6549   13.2567   23.7136 H   0  0  0  0  0  0  0  0  0  0  0  0
   14.7032   11.2438   22.5858 H   0  0  0  0  0  0  0  0  0  0  0  0
   15.5071    8.9570   23.2081 H   0  0  0  0  0  0  0  0  0  0  0  0
   17.2663    8.6856   24.9533 H   0  0  0  0  0  0  0  0  0  0  0  0
  1 44  1  0  0  0  0
  2  1  2  0  0  0  0
  2 16  1  0  0  0  0
  3  2  1  0  0  0  0
  3 45  1  0  0  0  0
  4  3  2  0  0  0  0
  4  5  1  0  0  0  0
  5  6  2  0  0  0  0
  5 46  1  0  0  0  0
  6  1  1  0  0  0  0
  6  7  1  0  0  0  0
  7  8  1  0  0  0  0
  7  9  2  0  0  0  0
  8 10  1  0  0  0  0
  8 13  1  0  0  0  0
 10 11  1  0  0  0  0
 10 47  1  0  0  0  0
 10 48  1  0  0  0  0
 11 12  1  0  0  0  0
 11 49  1  0  0  0  0
 11 50  1  0  0  0  0
 12 51  1  0  0  0  0
 12 52  1  0  0  0  0
 12 53  1  0  0  0  0
 13 14  1  0  0  0  0
 13 54  1  0  0  0  0
 13 55  1  0  0  0  0
 14 15  1  0  0  0  0
 14 56  1  0  0  0  0
 14 57  1  0  0  0  0
 15 58  1  0  0  0  0
 15 59  1  0  0  0  0
 15 60  1  0  0  0  0
 16 61  1  0  0  0  0
 16 62  1  0  0  0  0
 16 63  1  0  0  0  0
 17  4  1  0  0  0  0
 17 19  2  0  0  0  0
 18 17  1  0  0  0  0
 18 64  1  0  0  0  0
 20 18  1  0  0  0  0
 20 22  1  0  0  0  0
 20 65  1  6  0  0  0
 21 20  1  0  0  0  0
 21 23  1  0  0  0  0
 21 66  1  1  0  0  0
 22 24  1  0  0  0  0
 22 67  1  0  0  0  0
 22 68  1  0  0  0  0
 23 69  1  0  0  0  0
 24 25  2  0  0  0  0
 24 29  1  0  0  0  0
 25 26  1  0  0  0  0
 25 70  1  0  0  0  0
 26 27  2  0  0  0  0
 26 30  1  0  0  0  0
 27 71  1  0  0  0  0
 28 27  1  0  0  0  0
 28 31  1  0  0  0  0
 29 28  2  0  0  0  0
 29 72  1  0  0  0  0
 32 35  1  0  0  0  0
 32 37  1  0  0  0  0
 32 73  1  1  0  0  0
 33 32  1  0  0  0  0
 33 74  1  0  0  0  0
 33 75  1  0  0  0  0
 34 33  1  0  0  0  0
 34 36  1  0  0  0  0
 34 76  1  0  0  0  0
 34 77  1  0  0  0  0
 35 36  1  0  0  0  0
 35 78  1  0  0  0  0
 35 79  1  0  0  0  0
 36 21  1  0  0  0  0
 36 80  1  1  0  0  0
 37 38  1  0  0  0  0
 38 39  2  0  0  0  0
 38 43  1  0  0  0  0
 39 40  1  0  0  0  0
 39 81  1  0  0  0  0
 40 41  2  0  0  0  0
 40 82  1  0  0  0  0
 41 42  1  0  0  0  0
 41 83  1  0  0  0  0
 42 43  2  0  0  0  0
 42 84  1  0  0  0  0
 43 85  1  0  0  0  0
M  CHG  1  34   1
M  END
