2qoh_ligand
 OpenBabel08222323343D

 48 51  0  0  0  0  0  0  0  0999 V2000
   -4.3300    9.2820   24.2840 N   0  0  0  0  0  0  0  0  0  0  0  0
   -3.6810    8.4920   25.1910 C   0  0  0  0  0  0  0  0  0  0  0  0
   -2.6480    7.6050   24.7920 C   0  0  0  0  0  0  0  0  0  0  0  0
   -2.3220    7.5860   23.4120 C   0  0  0  0  0  0  0  0  0  0  0  0
   -3.0230    8.4280   22.4740 C   0  0  0  0  0  0  0  0  0  0  0  0
   -4.0160    9.2540   22.9490 C   0  0  0  0  0  0  0  0  0  0  0  0
   -2.9290    8.6200   21.0500 C   0  0  0  0  0  0  0  0  0  0  0  0
   -3.9350    9.5940   20.8170 C   0  0  0  0  0  0  0  0  0  0  0  0
   -4.6030    9.9910   21.9510 N   0  0  0  0  0  0  0  0  0  0  0  0
   -2.0240    7.9930   20.0120 C   0  0  0  0  0  0  0  0  0  0  0  0
   -1.7860    6.5760   19.9090 C   0  0  0  0  0  0  0  0  0  0  0  0
   -0.9080    6.0890   18.8770 C   0  0  0  0  0  0  0  0  0  0  0  0
   -0.2940    6.9720   17.9750 C   0  0  0  0  0  0  0  0  0  0  0  0
   -0.5290    8.3520   18.0760 C   0  0  0  0  0  0  0  0  0  0  0  0
   -1.3860    8.8520   19.0840 C   0  0  0  0  0  0  0  0  0  0  0  0
   -2.4310    5.7350   20.8330 O   0  0  0  0  0  0  0  0  0  0  0  0
   -1.9340    6.7220   25.7790 C   0  0  0  0  0  0  0  0  0  0  0  0
   -1.7690    5.3190   25.5640 C   0  0  0  0  0  0  0  0  0  0  0  0
   -1.1130    4.5020   26.4570 N   0  0  0  0  0  0  0  0  0  0  0  0
   -0.5920    5.0430   27.6060 C   0  0  0  0  0  0  0  0  0  0  0  0
   -0.7230    6.4300   27.8850 C   0  0  0  0  0  0  0  0  0  0  0  0
   -1.3990    7.2480   26.9530 C   0  0  0  0  0  0  0  0  0  0  0  0
   -0.1550    7.0020   29.1110 C   0  0  0  0  0  0  0  0  0  0  0  0
    1.0560    6.9700   29.2950 O   0  0  0  0  0  0  0  0  0  0  0  0
   -1.0060    7.6070   30.0220 N   0  0  0  0  0  0  0  0  0  0  0  0
   -2.2980    7.0490   30.4830 C   0  0  0  0  0  0  0  0  0  0  0  0
   -0.5140    8.8570   30.6420 C   0  0  0  0  0  0  0  0  0  0  0  0
   -2.5830    4.3260   20.5700 C   0  0  0  0  0  0  0  0  0  0  0  0
   -3.9613    8.5442   26.2368 H   0  0  0  0  0  0  0  0  0  0  0  0
   -1.5354    6.9298   23.0574 H   0  0  0  0  0  0  0  0  0  0  0  0
   -4.1578    9.9914   19.8279 H   0  0  0  0  0  0  0  0  0  0  0  0
   -5.3647   10.6795   22.0325 H   0  0  0  0  0  0  0  0  0  0  0  0
   -0.7184    5.0248   18.7954 H   0  0  0  0  0  0  0  0  0  0  0  0
    0.3610    6.5884   17.2011 H   0  0  0  0  0  0  0  0  0  0  0  0
   -0.0535    9.0349   17.3812 H   0  0  0  0  0  0  0  0  0  0  0  0
   -1.5590    9.9202   19.1480 H   0  0  0  0  0  0  0  0  0  0  0  0
   -2.1771    4.8800   24.6608 H   0  0  0  0  0  0  0  0  0  0  0  0
   -0.0733    4.4029   28.3105 H   0  0  0  0  0  0  0  0  0  0  0  0
   -1.5038    8.3078   27.1554 H   0  0  0  0  0  0  0  0  0  0  0  0
   -2.7595    7.7400   31.2037 H   0  0  0  0  0  0  0  0  0  0  0  0
   -2.1256    6.0762   30.9666 H   0  0  0  0  0  0  0  0  0  0  0  0
   -2.9686    6.9164   29.6212 H   0  0  0  0  0  0  0  0  0  0  0  0
    0.4503    9.1348   30.1916 H   0  0  0  0  0  0  0  0  0  0  0  0
   -0.3828    8.7031   31.7232 H   0  0  0  0  0  0  0  0  0  0  0  0
   -1.2436    9.6625   30.4721 H   0  0  0  0  0  0  0  0  0  0  0  0
   -3.1106    3.8510   21.4103 H   0  0  0  0  0  0  0  0  0  0  0  0
   -1.5908    3.8657   20.4528 H   0  0  0  0  0  0  0  0  0  0  0  0
   -3.1637    4.1859   19.6463 H   0  0  0  0  0  0  0  0  0  0  0  0
  1  2  2  0  0  0  0
  1  6  1  0  0  0  0
  2  3  1  0  0  0  0
  2 29  1  0  0  0  0
  3  4  2  0  0  0  0
  3 17  1  0  0  0  0
  4  5  1  0  0  0  0
  4 30  1  0  0  0  0
  5  6  2  0  0  0  0
  5  7  1  0  0  0  0
  6  9  1  0  0  0  0
  7  8  2  0  0  0  0
  7 10  1  0  0  0  0
  8  9  1  0  0  0  0
  8 31  1  0  0  0  0
  9 32  1  0  0  0  0
 10 11  2  0  0  0  0
 10 15  1  0  0  0  0
 11 12  1  0  0  0  0
 11 16  1  0  0  0  0
 12 13  2  0  0  0  0
 12 33  1  0  0  0  0
 13 14  1  0  0  0  0
 13 34  1  0  0  0  0
 14 15  2  0  0  0  0
 14 35  1  0  0  0  0
 15 36  1  0  0  0  0
 16 28  1  0  0  0  0
 17 18  2  0  0  0  0
 17 22  1  0  0  0  0
 18 19  1  0  0  0  0
 18 37  1  0  0  0  0
 19 20  2  0  0  0  0
 20 21  1  0  0  0  0
 20 38  1  0  0  0  0
 21 22  2  0  0  0  0
 21 23  1  0  0  0  0
 22 39  1  0  0  0  0
 23 24  2  0  0  0  0
 23 25  1  0  0  0  0
 25 26  1  0  0  0  0
 25 27  1  0  0  0  0
 26 40  1  0  0  0  0
 26 41  1  0  0  0  0
 26 42  1  0  0  0  0
 27 43  1  0  0  0  0
 27 44  1  0  0  0  0
 27 45  1  0  0  0  0
 28 46  1  0  0  0  0
 28 47  1  0  0  0  0
 28 48  1  0  0  0  0
M  END
