2qp8_ligand
 OpenBabel08222323343D

 84 86  0  0  1  0  0  0  0  0999 V2000
   26.7980   11.1020   18.9300 F   0  0  0  0  0  0  0  0  0  0  0  0
   22.6980   13.4690   18.4630 F   0  0  0  0  0  0  0  0  0  0  0  0
   26.8900   15.5380   24.5010 C   0  0  0  0  0  0  0  0  0  0  0  0
   27.0410   14.3580   23.7240 C   0  0  0  0  0  0  0  0  0  0  0  0
   25.8960   13.5540   23.4110 C   0  0  0  0  0  0  0  0  0  0  0  0
   24.6080   13.9450   23.8700 C   0  0  0  0  0  0  0  0  0  0  0  0
   24.4570   15.1350   24.6360 C   0  0  0  0  0  0  0  0  0  0  0  0
   25.5980   15.9260   24.9520 C   0  0  0  0  0  0  0  0  0  0  0  0
   28.3720   13.9440   23.2960 C   0  0  0  0  0  0  0  0  0  0  0  0
   28.6340   13.7350   21.9750 N   0  0  0  0  0  0  0  0  0  0  0  0
   29.2470   13.7730   24.1410 O   0  0  0  0  0  0  0  0  0  0  0  0
   29.9800   13.2970   21.6310 C   0  0  0  0  0  0  0  0  0  0  0  0
   27.6810   13.9310   20.8860 C   0  0  0  0  0  0  0  0  0  0  0  0
   28.2480   15.0030   19.9460 C   0  0  0  0  0  0  0  0  0  0  0  0
   28.8740   16.2060   20.7110 C   0  0  0  0  0  0  0  0  0  0  0  0
   29.9330   11.8140   21.1640 C   0  0  0  0  0  0  0  0  0  0  0  0
   29.0850   10.8990   22.0660 C   0  0  0  0  0  0  0  0  0  0  0  0
   25.4250   17.1550   25.7530 C   0  0  0  0  0  0  0  0  0  0  0  0
   23.4280   13.1540   23.5430 C   0  0  0  0  0  0  0  0  0  0  0  0
   22.3200   13.6550   23.4000 O   0  0  0  0  0  0  0  0  0  0  0  0
   23.6590   11.8240   23.4120 N   0  0  0  0  0  0  0  0  0  0  0  0
   22.5540   10.9140   23.0530 C   0  0  2  0  0  0  0  0  0  0  0  0
   22.0350   10.0930   24.2620 C   0  0  2  0  0  0  0  0  0  0  0  0
   21.0190    9.1660   23.8190 O   0  0  0  0  0  0  0  0  0  0  0  0
   23.0400    9.9800   21.9220 C   0  0  0  0  0  0  0  0  0  0  0  0
   23.6410   10.7890   20.7880 C   0  0  0  0  0  0  0  0  0  0  0  0
   24.9840   10.5600   20.3790 C   0  0  0  0  0  0  0  0  0  0  0  0
   25.5450   11.3190   19.3110 C   0  0  0  0  0  0  0  0  0  0  0  0
   24.7680   12.3100   18.6570 C   0  0  0  0  0  0  0  0  0  0  0  0
   23.4300   12.5370   19.0710 C   0  0  0  0  0  0  0  0  0  0  0  0
   22.8630   11.7820   20.1300 C   0  0  0  0  0  0  0  0  0  0  0  0
   21.4040   10.9750   25.3310 C   0  0  1  0  0  0  0  0  0  0  0  0
   20.1920   11.7470   24.7670 C   0  0  0  0  0  0  0  0  0  0  0  0
   19.3930   12.4410   25.8540 C   0  0  2  0  0  0  0  0  0  0  0  0
   19.0170   11.4570   26.9580 C   0  0  0  0  0  0  0  0  0  0  0  0
   20.2560   10.7860   27.5320 C   0  0  0  0  0  0  0  0  0  0  0  0
   20.9960   10.0930   26.4420 N   0  3  0  0  0  0  0  0  0  0  0  0
   18.2350   12.9880   25.2360 O   0  0  0  0  0  0  0  0  0  0  0  0
   17.4450   13.6970   26.1740 C   0  0  0  0  0  0  0  0  0  0  0  0
   16.4120   14.5050   25.3830 C   0  0  0  0  0  0  0  0  0  0  0  0
   27.7564   16.1404   24.7492 H   0  0  0  0  0  0  0  0  0  0  0  0
   26.0119   12.6493   22.8253 H   0  0  0  0  0  0  0  0  0  0  0  0
   23.4744   15.4388   24.9785 H   0  0  0  0  0  0  0  0  0  0  0  0
   30.6317   13.3843   22.5128 H   0  0  0  0  0  0  0  0  0  0  0  0
   30.3751   13.9257   20.8194 H   0  0  0  0  0  0  0  0  0  0  0  0
   26.7142   14.2639   21.2915 H   0  0  0  0  0  0  0  0  0  0  0  0
   27.5431   12.9881   20.3365 H   0  0  0  0  0  0  0  0  0  0  0  0
   27.4338   15.3774   19.3081 H   0  0  0  0  0  0  0  0  0  0  0  0
   29.0249   14.5438   19.3171 H   0  0  0  0  0  0  0  0  0  0  0  0
   29.2619   16.9385   19.9879 H   0  0  0  0  0  0  0  0  0  0  0  0
   29.6967   15.8479   21.3473 H   0  0  0  0  0  0  0  0  0  0  0  0
   28.1056   16.6816   21.3383 H   0  0  0  0  0  0  0  0  0  0  0  0
   30.9616   11.4245   21.1459 H   0  0  0  0  0  0  0  0  0  0  0  0
   29.5118   11.7846   20.1483 H   0  0  0  0  0  0  0  0  0  0  0  0
   29.1036    9.8734   21.6688 H   0  0  0  0  0  0  0  0  0  0  0  0
   28.0479   11.2649   22.0880 H   0  0  0  0  0  0  0  0  0  0  0  0
   29.4976   10.9048   23.0857 H   0  0  0  0  0  0  0  0  0  0  0  0
   26.4027   17.6371   25.9006 H   0  0  0  0  0  0  0  0  0  0  0  0
   24.9918   16.8975   26.7308 H   0  0  0  0  0  0  0  0  0  0  0  0
   24.7518   17.8457   25.2241 H   0  0  0  0  0  0  0  0  0  0  0  0
   24.5787   11.4597   23.5588 H   0  0  0  0  0  0  0  0  0  0  0  0
   21.7176   11.5197   22.6742 H   0  0  0  0  0  0  0  0  0  0  0  0
   22.8779    9.5390   24.7009 H   0  0  0  0  0  0  0  0  0  0  0  0
   21.3897    8.5767   23.1727 H   0  0  0  0  0  0  0  0  0  0  0  0
   22.1874    9.3992   21.5403 H   0  0  0  0  0  0  0  0  0  0  0  0
   23.8018    9.2940   22.3209 H   0  0  0  0  0  0  0  0  0  0  0  0
   25.5816    9.8072   20.8803 H   0  0  0  0  0  0  0  0  0  0  0  0
   25.1939   12.8899   17.8463 H   0  0  0  0  0  0  0  0  0  0  0  0
   21.8390   11.9614   20.4372 H   0  0  0  0  0  0  0  0  0  0  0  0
   22.1474   11.7004   25.6930 H   0  0  0  0  0  0  0  0  0  0  0  0
   19.5342   11.0381   24.2428 H   0  0  0  0  0  0  0  0  0  0  0  0
   20.5548   12.5046   24.0568 H   0  0  0  0  0  0  0  0  0  0  0  0
   19.9930   13.2522   26.2920 H   0  0  0  0  0  0  0  0  0  0  0  0
   18.3503   10.6871   26.5425 H   0  0  0  0  0  0  0  0  0  0  0  0
   18.4960   11.9987   27.7612 H   0  0  0  0  0  0  0  0  0  0  0  0
   19.9555   10.0526   28.2948 H   0  0  0  0  0  0  0  0  0  0  0  0
   20.9056   11.5463   27.9901 H   0  0  0  0  0  0  0  0  0  0  0  0
   21.8254    9.6783   26.8372 H   0  0  0  0  0  0  0  0  0  0  0  0
   20.4031    9.3683   26.0688 H   0  0  0  0  0  0  0  0  0  0  0  0
   18.0795   14.3738   26.7650 H   0  0  0  0  0  0  0  0  0  0  0  0
   16.9356   12.9912   26.8466 H   0  0  0  0  0  0  0  0  0  0  0  0
   15.7773   15.0713   26.0805 H   0  0  0  0  0  0  0  0  0  0  0  0
   15.7864   13.8208   24.7911 H   0  0  0  0  0  0  0  0  0  0  0  0
   16.9303   15.2033   24.7094 H   0  0  0  0  0  0  0  0  0  0  0  0
  3 41  1  0  0  0  0
  4  3  2  0  0  0  0
  4  9  1  0  0  0  0
  5  4  1  0  0  0  0
  5 42  1  0  0  0  0
  6  5  2  0  0  0  0
  6  7  1  0  0  0  0
  7  8  2  0  0  0  0
  7 43  1  0  0  0  0
  8  3  1  0  0  0  0
  8 18  1  0  0  0  0
  9 10  1  0  0  0  0
  9 11  2  0  0  0  0
 10 12  1  0  0  0  0
 10 13  1  0  0  0  0
 12 16  1  0  0  0  0
 12 44  1  0  0  0  0
 12 45  1  0  0  0  0
 13 14  1  0  0  0  0
 13 46  1  0  0  0  0
 13 47  1  0  0  0  0
 14 15  1  0  0  0  0
 14 48  1  0  0  0  0
 14 49  1  0  0  0  0
 15 50  1  0  0  0  0
 15 51  1  0  0  0  0
 15 52  1  0  0  0  0
 16 17  1  0  0  0  0
 16 53  1  0  0  0  0
 16 54  1  0  0  0  0
 17 55  1  0  0  0  0
 17 56  1  0  0  0  0
 17 57  1  0  0  0  0
 18 58  1  0  0  0  0
 18 59  1  0  0  0  0
 18 60  1  0  0  0  0
 19  6  1  0  0  0  0
 19 20  2  0  0  0  0
 21 19  1  0  0  0  0
 21 61  1  0  0  0  0
 22 21  1  0  0  0  0
 22 23  1  0  0  0  0
 22 62  1  6  0  0  0
 23 24  1  0  0  0  0
 23 32  1  0  0  0  0
 23 63  1  1  0  0  0
 24 64  1  0  0  0  0
 25 22  1  0  0  0  0
 25 65  1  0  0  0  0
 25 66  1  0  0  0  0
 26 25  1  0  0  0  0
 26 31  1  0  0  0  0
 27 26  2  0  0  0  0
 27 67  1  0  0  0  0
 28  1  1  0  0  0  0
 28 27  1  0  0  0  0
 29 28  2  0  0  0  0
 29 30  1  0  0  0  0
 29 68  1  0  0  0  0
 30  2  1  0  0  0  0
 30 31  2  0  0  0  0
 31 69  1  0  0  0  0
 32 33  1  0  0  0  0
 32 37  1  0  0  0  0
 32 70  1  1  0  0  0
 33 34  1  0  0  0  0
 33 71  1  0  0  0  0
 33 72  1  0  0  0  0
 34 35  1  0  0  0  0
 34 38  1  0  0  0  0
 34 73  1  1  0  0  0
 35 36  1  0  0  0  0
 35 74  1  0  0  0  0
 35 75  1  0  0  0  0
 36 37  1  0  0  0  0
 36 76  1  0  0  0  0
 36 77  1  0  0  0  0
 37 78  1  0  0  0  0
 37 79  1  0  0  0  0
 38 39  1  0  0  0  0
 39 40  1  0  0  0  0
 39 80  1  0  0  0  0
 39 81  1  0  0  0  0
 40 82  1  0  0  0  0
 40 83  1  0  0  0  0
 40 84  1  0  0  0  0
M  CHG  1  37   1
M  END
