2qrg_ligand
 OpenBabel08222323343D

 42 44  0  0  1  0  0  0  0  0999 V2000
   37.2640   26.6140   35.0690 C   0  0  0  0  0  0  0  0  0  0  0  0
   37.9810   26.0510   33.9560 O   0  0  0  0  0  0  0  0  0  0  0  0
   37.1670   25.5740   32.9600 C   0  0  0  0  0  0  0  0  0  0  0  0
   37.7550   25.0240   31.8220 C   0  0  0  0  0  0  0  0  0  0  0  0
   36.9620   24.5260   30.7830 C   0  0  0  0  0  0  0  0  0  0  0  0
   35.7670   25.6230   33.0530 C   0  0  0  0  0  0  0  0  0  0  0  0
   34.9750   25.1210   32.0150 C   0  0  0  0  0  0  0  0  0  0  0  0
   35.5710   24.5660   30.8780 C   0  0  0  0  0  0  0  0  0  0  0  0
   34.7850   24.0860   29.8200 C   0  0  0  0  0  0  0  0  0  0  0  0
   35.2840   23.3430   28.5820 C   0  0  0  0  0  0  0  0  0  0  0  0
   33.4700   24.2530   29.6950 N   0  0  0  0  0  0  0  0  0  0  0  0
   32.9520   23.6970   28.4860 O   0  0  0  0  0  0  0  0  0  0  0  0
   33.9930   22.9180   27.8760 C   0  0  2  0  0  0  0  0  0  0  0  0
   33.7750   21.5110   28.1170 O   0  0  0  0  0  0  0  0  0  0  0  0
   32.5500   20.9950   27.5300 C   0  0  2  0  0  0  0  0  0  0  0  0
   32.4080   19.5330   27.9740 C   0  0  0  0  0  0  0  0  0  0  0  0
   33.4000   18.7350   27.3090 O   0  0  0  0  0  0  0  0  0  0  0  0
   32.5900   21.1640   25.9950 C   0  0  1  0  0  0  0  0  0  0  0  0
   31.3630   20.6960   25.4160 O   0  0  0  0  0  0  0  0  0  0  0  0
   32.8400   22.6280   25.6070 C   0  0  2  0  0  0  0  0  0  0  0  0
   33.0610   22.7310   24.1940 O   0  0  0  0  0  0  0  0  0  0  0  0
   34.0610   23.1980   26.3570 C   0  0  1  0  0  0  0  0  0  0  0  0
   34.1640   24.6070   26.1110 O   0  0  0  0  0  0  0  0  0  0  0  0
   37.9802   26.9731   35.8227 H   0  0  0  0  0  0  0  0  0  0  0  0
   36.6170   25.8445   35.5154 H   0  0  0  0  0  0  0  0  0  0  0  0
   36.6466   27.4548   34.7200 H   0  0  0  0  0  0  0  0  0  0  0  0
   38.8352   24.9819   31.7417 H   0  0  0  0  0  0  0  0  0  0  0  0
   37.4306   24.1070   29.8999 H   0  0  0  0  0  0  0  0  0  0  0  0
   35.2984   26.0511   33.9318 H   0  0  0  0  0  0  0  0  0  0  0  0
   33.8945   25.1623   32.0922 H   0  0  0  0  0  0  0  0  0  0  0  0
   35.8844   22.4659   28.8651 H   0  0  0  0  0  0  0  0  0  0  0  0
   35.8831   24.0059   27.9404 H   0  0  0  0  0  0  0  0  0  0  0  0
   31.6924   21.5654   27.9161 H   0  0  0  0  0  0  0  0  0  0  0  0
   31.4050   19.1654   27.7118 H   0  0  0  0  0  0  0  0  0  0  0  0
   32.5508   19.4643   29.0625 H   0  0  0  0  0  0  0  0  0  0  0  0
   34.2656   19.0538   27.5361 H   0  0  0  0  0  0  0  0  0  0  0  0
   33.4171   20.5556   25.6004 H   0  0  0  0  0  0  0  0  0  0  0  0
   30.6368   21.1980   25.7669 H   0  0  0  0  0  0  0  0  0  0  0  0
   31.9520   23.2195   25.8745 H   0  0  0  0  0  0  0  0  0  0  0  0
   33.2146   23.6399   23.9640 H   0  0  0  0  0  0  0  0  0  0  0  0
   34.9638   22.7091   25.9621 H   0  0  0  0  0  0  0  0  0  0  0  0
   34.2675   24.7578   25.1788 H   0  0  0  0  0  0  0  0  0  0  0  0
  1  2  1  0  0  0  0
  1 24  1  0  0  0  0
  1 25  1  0  0  0  0
  1 26  1  0  0  0  0
  2  3  1  0  0  0  0
  3  4  2  0  0  0  0
  3  6  1  0  0  0  0
  4  5  1  0  0  0  0
  4 27  1  0  0  0  0
  5  8  2  0  0  0  0
  5 28  1  0  0  0  0
  6  7  2  0  0  0  0
  6 29  1  0  0  0  0
  7  8  1  0  0  0  0
  7 30  1  0  0  0  0
  8  9  1  0  0  0  0
  9 10  1  0  0  0  0
  9 11  2  0  0  0  0
 10 13  1  0  0  0  0
 10 31  1  0  0  0  0
 10 32  1  0  0  0  0
 11 12  1  0  0  0  0
 13 12  1  1  0  0  0
 13 14  1  0  0  0  0
 13 22  1  0  0  0  0
 14 15  1  0  0  0  0
 15 16  1  0  0  0  0
 15 18  1  0  0  0  0
 15 33  1  1  0  0  0
 16 17  1  0  0  0  0
 16 34  1  0  0  0  0
 16 35  1  0  0  0  0
 17 36  1  0  0  0  0
 18 19  1  0  0  0  0
 18 20  1  0  0  0  0
 18 37  1  6  0  0  0
 19 38  1  0  0  0  0
 20 21  1  0  0  0  0
 20 22  1  0  0  0  0
 20 39  1  1  0  0  0
 21 40  1  0  0  0  0
 22 23  1  0  0  0  0
 22 41  1  6  0  0  0
 23 42  1  0  0  0  0
M  END
