2qt9_ligand
 OpenBabel08222323343D

 63 66  0  0  1  0  0  0  0  0999 V2000
   47.8790   52.6120   33.5670 C   0  0  0  0  0  0  0  0  0  0  0  0
   45.4160   52.4660   33.1680 C   0  0  0  0  0  0  0  0  0  0  0  0
   45.1830   51.9390   34.4340 C   0  0  0  0  0  0  0  0  0  0  0  0
   47.6300   52.0450   34.9130 C   0  0  0  0  0  0  0  0  0  0  0  0
   46.8000   52.8040   32.7380 C   0  0  0  0  0  0  0  0  0  0  0  0
   46.3710   51.7390   35.3100 N   0  0  0  0  0  0  0  0  0  0  0  0
   46.3820   51.2820   36.4620 N   0  0  0  0  0  0  0  0  0  0  0  0
   47.6660   51.2870   36.8440 C   0  0  0  0  0  0  0  0  0  0  0  0
   48.4960   51.7650   35.8930 N   0  0  0  0  0  0  0  0  0  0  0  0
   39.4910   51.7900   36.1070 C   0  0  1  0  0  0  0  0  0  0  0  0
   38.3680   51.3080   35.1480 C   0  0  1  0  0  0  0  0  0  0  0  0
   36.9530   51.2460   35.7540 C   0  0  0  0  0  0  0  0  0  0  0  0
   36.1580   50.1610   35.7020 N   0  0  0  0  0  0  0  0  0  0  0  0
   39.6940   50.6780   37.2370 C   0  0  0  0  0  0  0  0  0  0  0  0
   38.2000   52.2210   34.0330 N   0  3  0  0  0  0  0  0  0  0  0  0
   36.5350   52.2770   36.2890 O   0  0  0  0  0  0  0  0  0  0  0  0
   39.7550   49.4960   36.8020 O   0  0  0  0  0  0  0  0  0  0  0  0
   39.8250   50.9160   38.6240 N   0  0  0  0  0  0  0  0  0  0  0  0
   39.7900   52.1870   39.3540 C   0  0  0  0  0  0  0  0  0  0  0  0
   40.0340   49.7090   39.4580 C   0  0  0  0  0  0  0  0  0  0  0  0
   36.4860   48.8670   35.1370 C   0  0  0  0  0  0  0  0  0  0  0  0
   35.2080   48.0510   35.3840 C   0  0  2  0  0  0  0  0  0  0  0  0
   34.1150   48.9220   36.0450 C   0  0  0  0  0  0  0  0  0  0  0  0
   34.8540   50.2980   36.2400 C   0  0  0  0  0  0  0  0  0  0  0  0
   35.4950   47.2440   36.4790 F   0  0  0  0  0  0  0  0  0  0  0  0
   43.8540   51.5620   35.0070 C   0  0  1  0  0  0  0  0  0  0  0  0
   43.3240   52.7760   35.7830 C   0  0  0  0  0  0  0  0  0  0  0  0
   41.9530   52.5130   36.4380 C   0  0  0  0  0  0  0  0  0  0  0  0
   40.8750   52.0130   35.4060 C   0  0  1  0  0  0  0  0  0  0  0  0
   41.4640   50.7840   34.6140 C   0  0  0  0  0  0  0  0  0  0  0  0
   42.7960   51.1480   33.9470 C   0  0  0  0  0  0  0  0  0  0  0  0
   48.8869   52.8689   33.2443 H   0  0  0  0  0  0  0  0  0  0  0  0
   44.5816   52.6321   32.4882 H   0  0  0  0  0  0  0  0  0  0  0  0
   46.9617   53.2135   31.7420 H   0  0  0  0  0  0  0  0  0  0  0  0
   48.0047   50.9416   37.8197 H   0  0  0  0  0  0  0  0  0  0  0  0
   39.1741   52.7369   36.5685 H   0  0  0  0  0  0  0  0  0  0  0  0
   38.6492   50.3097   34.7814 H   0  0  0  0  0  0  0  0  0  0  0  0
   37.4667   51.8831   33.4296 H   0  0  0  0  0  0  0  0  0  0  0  0
   39.0620   52.2795   33.5138 H   0  0  0  0  0  0  0  0  0  0  0  0
   37.9545   53.1347   34.3809 H   0  0  0  0  0  0  0  0  0  0  0  0
   39.9255   51.9963   40.4288 H   0  0  0  0  0  0  0  0  0  0  0  0
   38.8199   52.6784   39.1883 H   0  0  0  0  0  0  0  0  0  0  0  0
   40.5983   52.8398   38.9927 H   0  0  0  0  0  0  0  0  0  0  0  0
   40.0436   48.8164   38.8152 H   0  0  0  0  0  0  0  0  0  0  0  0
   39.2183   49.6241   40.1911 H   0  0  0  0  0  0  0  0  0  0  0  0
   40.9952   49.7905   39.9866 H   0  0  0  0  0  0  0  0  0  0  0  0
   37.3481   48.4175   35.6515 H   0  0  0  0  0  0  0  0  0  0  0  0
   36.7021   48.9480   34.0615 H   0  0  0  0  0  0  0  0  0  0  0  0
   34.8695   47.5165   34.4842 H   0  0  0  0  0  0  0  0  0  0  0  0
   33.7987   48.4996   37.0101 H   0  0  0  0  0  0  0  0  0  0  0  0
   33.2398   49.0297   35.3874 H   0  0  0  0  0  0  0  0  0  0  0  0
   34.3108   51.0944   35.7102 H   0  0  0  0  0  0  0  0  0  0  0  0
   34.9133   50.5441   37.3105 H   0  0  0  0  0  0  0  0  0  0  0  0
   43.9988   50.7176   35.6969 H   0  0  0  0  0  0  0  0  0  0  0  0
   43.2247   53.6222   35.0872 H   0  0  0  0  0  0  0  0  0  0  0  0
   44.0469   53.0324   36.5714 H   0  0  0  0  0  0  0  0  0  0  0  0
   41.5960   53.4475   36.8953 H   0  0  0  0  0  0  0  0  0  0  0  0
   42.0762   51.7469   37.2177 H   0  0  0  0  0  0  0  0  0  0  0  0
   40.7198   52.8155   34.6699 H   0  0  0  0  0  0  0  0  0  0  0  0
   40.7457   50.4774   33.8394 H   0  0  0  0  0  0  0  0  0  0  0  0
   41.6276   49.9505   35.3129 H   0  0  0  0  0  0  0  0  0  0  0  0
   43.1684   50.2769   33.3881 H   0  0  0  0  0  0  0  0  0  0  0  0
   42.6339   51.9865   33.2538 H   0  0  0  0  0  0  0  0  0  0  0  0
  1 32  1  0  0  0  0
  2  5  1  0  0  0  0
  2 33  1  0  0  0  0
  3  2  2  0  0  0  0
  3  6  1  0  0  0  0
  4  1  1  0  0  0  0
  4  9  2  0  0  0  0
  5  1  2  0  0  0  0
  5 34  1  0  0  0  0
  6  4  1  0  0  0  0
  6  7  1  0  0  0  0
  7  8  2  0  0  0  0
  8  9  1  0  0  0  0
  8 35  1  0  0  0  0
 10 11  1  0  0  0  0
 10 14  1  0  0  0  0
 10 36  1  1  0  0  0
 11 12  1  0  0  0  0
 11 15  1  0  0  0  0
 11 37  1  6  0  0  0
 12 13  1  0  0  0  0
 12 16  2  0  0  0  0
 13 21  1  0  0  0  0
 13 24  1  0  0  0  0
 14 17  2  0  0  0  0
 14 18  1  0  0  0  0
 15 38  1  0  0  0  0
 15 39  1  0  0  0  0
 15 40  1  0  0  0  0
 18 19  1  0  0  0  0
 18 20  1  0  0  0  0
 19 41  1  0  0  0  0
 19 42  1  0  0  0  0
 19 43  1  0  0  0  0
 20 44  1  0  0  0  0
 20 45  1  0  0  0  0
 20 46  1  0  0  0  0
 21 22  1  0  0  0  0
 21 47  1  0  0  0  0
 21 48  1  0  0  0  0
 22 25  1  0  0  0  0
 22 49  1  6  0  0  0
 23 22  1  0  0  0  0
 23 50  1  0  0  0  0
 23 51  1  0  0  0  0
 24 23  1  0  0  0  0
 24 52  1  0  0  0  0
 24 53  1  0  0  0  0
 26  3  1  0  0  0  0
 26 31  1  0  0  0  0
 26 54  1  1  0  0  0
 27 26  1  0  0  0  0
 27 55  1  0  0  0  0
 27 56  1  0  0  0  0
 28 27  1  0  0  0  0
 28 29  1  0  0  0  0
 28 57  1  0  0  0  0
 28 58  1  0  0  0  0
 29 10  1  0  0  0  0
 29 30  1  0  0  0  0
 29 59  1  6  0  0  0
 30 31  1  0  0  0  0
 30 60  1  0  0  0  0
 30 61  1  0  0  0  0
 31 62  1  0  0  0  0
 31 63  1  0  0  0  0
M  CHG  1  15   1
M  END
