2qu3_ligand
 OpenBabel08222323343D

 52 54  0  0  0  0  0  0  0  0999 V2000
    8.8600   -2.0220   13.9810 C   0  0  0  0  0  0  0  0  0  0  0  0
    8.5370   -3.2560   14.7620 C   0  0  0  0  0  0  0  0  0  0  0  0
    9.6450   -4.2670   14.7850 C   0  0  0  0  0  0  0  0  0  0  0  0
    9.1350   -5.4170   15.4240 O   0  0  0  0  0  0  0  0  0  0  0  0
    9.9380   -6.3600   15.9930 C   0  0  0  0  0  0  0  0  0  0  0  0
    9.5660   -7.7070   16.2220 C   0  0  0  0  0  0  0  0  0  0  0  0
   10.4550   -8.6200   16.8300 C   0  0  0  0  0  0  0  0  0  0  0  0
   11.7580   -8.2410   17.1800 C   0  0  0  0  0  0  0  0  0  0  0  0
   12.1190   -6.8710   16.9410 C   0  0  0  0  0  0  0  0  0  0  0  0
   11.2500   -5.9650   16.3420 C   0  0  0  0  0  0  0  0  0  0  0  0
   12.6740   -9.2070   17.8060 C   0  0  0  0  0  0  0  0  0  0  0  0
   12.3170  -10.0170   18.9300 C   0  0  0  0  0  0  0  0  0  0  0  0
   13.5460  -11.0820   19.4240 S   0  0  0  0  0  0  0  0  0  0  0  0
   14.5830  -10.5440   18.2130 C   0  0  0  0  0  0  0  0  0  0  0  0
   13.9960   -9.5600   17.3730 C   0  0  0  0  0  0  0  0  0  0  0  0
   14.7640   -8.9120   16.2320 C   0  0  0  0  0  0  0  0  0  0  0  0
   15.4510   -7.6670   16.7550 C   0  0  0  0  0  0  0  0  0  0  0  0
   15.7470   -7.6040   17.9260 O   0  0  0  0  0  0  0  0  0  0  0  0
   15.7340   -6.8080   15.7290 N   0  0  0  0  0  0  0  0  0  0  0  0
   16.2580   -5.6490   15.8760 C   0  0  0  0  0  3  0  0  0  0  0  0
   16.7670   -5.1010   16.9950 N   0  0  0  0  0  0  0  0  0  0  0  0
   16.4490   -4.8470   14.8020 N   0  0  0  0  0  0  0  0  0  0  0  0
   15.8980  -11.0980   18.0410 C   0  0  0  0  0  0  0  0  0  0  0  0
   16.9250  -10.7100   18.9880 C   0  0  0  0  0  0  0  0  0  0  0  0
   18.2290  -11.2180   18.8530 C   0  0  0  0  0  0  0  0  0  0  0  0
   18.5600  -12.0590   17.7680 C   0  0  0  0  0  0  0  0  0  0  0  0
   17.5740  -12.4410   16.8330 C   0  0  0  0  0  0  0  0  0  0  0  0
   16.2540  -11.9470   16.9430 C   0  0  0  0  0  0  0  0  0  0  0  0
   15.1300  -12.4800   15.7320 Cl  0  0  0  0  0  0  0  0  0  0  0  0
    8.0025   -1.3337   14.0117 H   0  0  0  0  0  0  0  0  0  0  0  0
    9.0743   -2.2944   12.9370 H   0  0  0  0  0  0  0  0  0  0  0  0
    9.7407   -1.5303   14.4199 H   0  0  0  0  0  0  0  0  0  0  0  0
    7.6483   -3.7260   14.3155 H   0  0  0  0  0  0  0  0  0  0  0  0
    8.3147   -2.9619   15.7984 H   0  0  0  0  0  0  0  0  0  0  0  0
   10.5056   -3.8729   15.3453 H   0  0  0  0  0  0  0  0  0  0  0  0
    9.9563   -4.5109   13.7586 H   0  0  0  0  0  0  0  0  0  0  0  0
    8.5795   -8.0438   15.9247 H   0  0  0  0  0  0  0  0  0  0  0  0
   10.1236   -9.6326   17.0297 H   0  0  0  0  0  0  0  0  0  0  0  0
   13.1045   -6.5311   17.2383 H   0  0  0  0  0  0  0  0  0  0  0  0
   11.5800   -4.9520   16.1419 H   0  0  0  0  0  0  0  0  0  0  0  0
   11.3479   -9.9568   19.4232 H   0  0  0  0  0  0  0  0  0  0  0  0
   14.0680   -8.6395   15.4249 H   0  0  0  0  0  0  0  0  0  0  0  0
   15.5163   -9.6153   15.8456 H   0  0  0  0  0  0  0  0  0  0  0  0
   15.5166   -7.1058   14.7995 H   0  0  0  0  0  0  0  0  0  0  0  0
   17.1607   -4.1496   16.9694 H   0  0  0  0  0  0  0  0  0  0  0  0
   16.7628   -5.6331   17.8769 H   0  0  0  0  0  0  0  0  0  0  0  0
   16.1100   -5.1392   13.8743 H   0  0  0  0  0  0  0  0  0  0  0  0
   16.9333   -3.9447   14.9127 H   0  0  0  0  0  0  0  0  0  0  0  0
   16.6880  -10.0299   19.7982 H   0  0  0  0  0  0  0  0  0  0  0  0
   18.9851  -10.9624   19.5865 H   0  0  0  0  0  0  0  0  0  0  0  0
   19.5779  -12.4135   17.6524 H   0  0  0  0  0  0  0  0  0  0  0  0
   17.8305  -13.1173   16.0256 H   0  0  0  0  0  0  0  0  0  0  0  0
  1  2  1  0  0  0  0
  1 30  1  0  0  0  0
  1 31  1  0  0  0  0
  1 32  1  0  0  0  0
  2  3  1  0  0  0  0
  2 33  1  0  0  0  0
  2 34  1  0  0  0  0
  3  4  1  0  0  0  0
  3 35  1  0  0  0  0
  3 36  1  0  0  0  0
  4  5  1  0  0  0  0
  5  6  2  0  0  0  0
  5 10  1  0  0  0  0
  6  7  1  0  0  0  0
  6 37  1  0  0  0  0
  7  8  2  0  0  0  0
  7 38  1  0  0  0  0
  8  9  1  0  0  0  0
  8 11  1  0  0  0  0
  9 10  2  0  0  0  0
  9 39  1  0  0  0  0
 10 40  1  0  0  0  0
 11 12  2  0  0  0  0
 11 15  1  0  0  0  0
 12 13  1  0  0  0  0
 12 41  1  0  0  0  0
 13 14  1  0  0  0  0
 14 15  2  0  0  0  0
 14 23  1  0  0  0  0
 15 16  1  0  0  0  0
 16 17  1  0  0  0  0
 16 42  1  0  0  0  0
 16 43  1  0  0  0  0
 17 18  2  0  0  0  0
 17 19  1  0  0  0  0
 19 20  1  0  0  0  0
 19 44  1  0  0  0  0
 20 21  1  0  0  0  0
 20 22  1  0  0  0  0
 21 45  1  0  0  0  0
 21 46  1  0  0  0  0
 22 47  1  0  0  0  0
 22 48  1  0  0  0  0
 23 24  2  0  0  0  0
 23 28  1  0  0  0  0
 24 25  1  0  0  0  0
 24 49  1  0  0  0  0
 25 26  2  0  0  0  0
 25 50  1  0  0  0  0
 26 27  1  0  0  0  0
 26 51  1  0  0  0  0
 27 28  2  0  0  0  0
 27 52  1  0  0  0  0
 28 29  1  0  0  0  0
M  END
