2qwg_ligand
 OpenBabel08222323343D

 42 42  0  0  1  0  0  0  0  0999 V2000
   23.4500   19.6580   64.7580 C   0  0  0  0  0  0  0  0  0  0  0  0
   24.1630   20.6230   65.0690 O   0  5  0  0  0  0  0  0  0  0  0  0
   22.2240   19.6710   64.9850 O   0  0  0  0  0  0  0  0  0  0  0  0
   24.0880   18.5950   64.0810 C   0  0  0  0  0  0  0  0  0  0  0  0
   23.3800   17.5400   63.5650 C   0  0  0  0  0  0  0  0  0  0  0  0
   24.0390   16.4860   62.6690 C   0  0  1  0  0  0  0  0  0  0  0  0
   25.5350   16.4960   62.8190 C   0  0  1  0  0  0  0  0  0  0  0  0
   26.1550   15.7860   61.6720 N   0  0  0  0  0  0  0  0  0  0  0  0
   26.8950   14.7050   61.8820 C   0  0  0  0  0  0  0  0  0  0  0  0
   27.0700   14.2590   63.0090 O   0  0  0  0  0  0  0  0  0  0  0  0
   27.4990   14.0410   60.6580 C   0  0  0  0  0  0  0  0  0  0  0  0
   26.0570   17.9380   62.8380 C   0  0  1  0  0  0  0  0  0  0  0  0
   25.4940   18.6490   63.8950 O   0  0  0  0  0  0  0  0  0  0  0  0
   27.5590   17.9210   63.0960 C   0  0  0  0  0  0  0  0  0  0  0  0
   27.9090   17.5890   64.2260 O   0  0  0  0  0  0  0  0  0  0  0  0
   28.4510   18.2570   62.1550 N   0  0  0  0  0  0  0  0  0  0  0  0
   29.8330   18.1900   62.6340 C   0  0  0  0  0  0  0  0  0  0  0  0
   30.3980   16.8090   62.3030 C   0  0  0  0  0  0  0  0  0  0  0  0
   28.0510   18.6840   60.8200 C   0  0  0  0  0  0  0  0  0  0  0  0
   28.1350   20.1720   60.7760 C   0  0  0  0  0  0  0  0  0  0  0  0
   23.5780   15.2040   63.0750 N   0  3  0  0  0  0  0  0  0  0  0  0
   22.3202   17.4488   63.7984 H   0  0  0  0  0  0  0  0  0  0  0  0
   23.7699   16.6746   61.6192 H   0  0  0  0  0  0  0  0  0  0  0  0
   25.8098   15.9930   63.7579 H   0  0  0  0  0  0  0  0  0  0  0  0
   26.0148   16.1226   60.7409 H   0  0  0  0  0  0  0  0  0  0  0  0
   28.0845   13.1631   60.9685 H   0  0  0  0  0  0  0  0  0  0  0  0
   28.1559   14.7552   60.1400 H   0  0  0  0  0  0  0  0  0  0  0  0
   26.6944   13.7234   59.9785 H   0  0  0  0  0  0  0  0  0  0  0  0
   25.8312   18.4297   61.8803 H   0  0  0  0  0  0  0  0  0  0  0  0
   29.8560   18.3485   63.7223 H   0  0  0  0  0  0  0  0  0  0  0  0
   30.4351   18.9653   62.1377 H   0  0  0  0  0  0  0  0  0  0  0  0
   31.4373   16.7435   62.6573 H   0  0  0  0  0  0  0  0  0  0  0  0
   30.3713   16.6531   61.2144 H   0  0  0  0  0  0  0  0  0  0  0  0
   29.7922   16.0364   62.7990 H   0  0  0  0  0  0  0  0  0  0  0  0
   27.0194   18.3608   60.6166 H   0  0  0  0  0  0  0  0  0  0  0  0
   28.7265   18.2483   60.0691 H   0  0  0  0  0  0  0  0  0  0  0  0
   27.8383   20.5266   59.7779 H   0  0  0  0  0  0  0  0  0  0  0  0
   29.1679   20.4873   60.9850 H   0  0  0  0  0  0  0  0  0  0  0  0
   27.4608   20.5999   61.5325 H   0  0  0  0  0  0  0  0  0  0  0  0
   22.5747   15.1641   62.9861 H   0  0  0  0  0  0  0  0  0  0  0  0
   23.8369   15.0425   64.0357 H   0  0  0  0  0  0  0  0  0  0  0  0
   23.9954   14.4963   62.4910 H   0  0  0  0  0  0  0  0  0  0  0  0
  1  4  1  0  0  0  0
  1  3  2  0  0  0  0
  1  2  1  0  0  0  0
  4 13  1  0  0  0  0
  4  5  2  0  0  0  0
  5  6  1  0  0  0  0
  5 22  1  0  0  0  0
  6 21  1  0  0  0  0
  6  7  1  0  0  0  0
  6 23  1  6  0  0  0
  7 12  1  0  0  0  0
  7  8  1  0  0  0  0
  7 24  1  1  0  0  0
  8  9  1  0  0  0  0
  8 25  1  0  0  0  0
  9 11  1  0  0  0  0
  9 10  2  0  0  0  0
 11 26  1  0  0  0  0
 11 27  1  0  0  0  0
 11 28  1  0  0  0  0
 12 14  1  0  0  0  0
 12 13  1  0  0  0  0
 12 29  1  6  0  0  0
 14 16  1  0  0  0  0
 14 15  2  0  0  0  0
 16 19  1  0  0  0  0
 16 17  1  0  0  0  0
 17 18  1  0  0  0  0
 17 30  1  0  0  0  0
 17 31  1  0  0  0  0
 18 32  1  0  0  0  0
 18 33  1  0  0  0  0
 18 34  1  0  0  0  0
 19 20  1  0  0  0  0
 19 35  1  0  0  0  0
 19 36  1  0  0  0  0
 20 37  1  0  0  0  0
 20 38  1  0  0  0  0
 20 39  1  0  0  0  0
 21 40  1  0  0  0  0
 21 41  1  0  0  0  0
 21 42  1  0  0  0  0
M  CHG  2   2  -1  21   1
M  END
