2qyl_ligand
 OpenBabel08222323343D

 40 43  0  0  0  0  0  0  0  0999 V2000
   38.7750   31.0060   -5.3300 C   0  0  0  0  0  0  0  0  0  0  0  0
   39.5680   30.5550   -4.2790 C   0  0  0  0  0  0  0  0  0  0  0  0
   39.5690   31.2310   -3.0630 C   0  0  0  0  0  0  0  0  0  0  0  0
   38.7730   32.3590   -2.8940 C   0  0  0  0  0  0  0  0  0  0  0  0
   37.9830   32.1360   -5.1630 C   0  0  0  0  0  0  0  0  0  0  0  0
   38.7190   33.0430   -1.6850 C   0  0  0  0  0  0  0  0  0  0  0  0
   39.3540   35.1490    2.7220 C   0  0  0  0  0  0  0  0  0  0  0  0
   39.7040   32.8910   -0.7140 C   0  0  0  0  0  0  0  0  0  0  0  0
   39.6140   33.6360    0.4560 C   0  0  0  0  0  0  0  0  0  0  0  0
   40.5750   33.5200    1.4530 C   0  0  0  0  0  0  0  0  0  0  0  0
   38.7530   30.3360   -6.5370 C   0  0  0  0  0  0  0  0  0  0  0  0
   38.0530   30.8140   -7.4570 O   0  5  0  0  0  0  0  0  0  0  0  0
   39.4250   29.2880   -6.6440 O   0  0  0  0  0  0  0  0  0  0  0  0
   37.9840   32.8100   -3.9470 C   0  0  0  0  0  0  0  0  0  0  0  0
   37.7020   33.8940   -1.4820 N   0  0  0  0  0  0  0  0  0  0  0  0
   40.4390   34.2890    2.6030 C   0  0  0  0  0  0  0  0  0  0  0  0
   38.4540   35.2420    1.7580 N   0  0  0  0  0  0  0  0  0  0  0  0
   38.5510   34.5150    0.6360 C   0  0  0  0  0  0  0  0  0  0  0  0
   37.5920   34.6250   -0.3650 C   0  0  0  0  0  0  0  0  0  0  0  0
   36.5100   35.4900   -0.2410 C   0  0  0  0  0  0  0  0  0  0  0  0
   35.2330   35.0290   -0.5360 C   0  0  0  0  0  0  0  0  0  0  0  0
   36.7060   36.8250    0.0980 C   0  0  0  0  0  0  0  0  0  0  0  0
   35.6240   37.6960    0.1340 C   0  0  0  0  0  0  0  0  0  0  0  0
   34.3460   37.2340   -0.1670 C   0  0  0  0  0  0  0  0  0  0  0  0
   34.1490   35.9010   -0.5040 C   0  0  0  0  0  0  0  0  0  0  0  0
   32.9320   35.4590   -0.8120 N   0  0  0  0  0  0  0  0  0  0  0  0
   31.9870   36.2130   -0.7920 O   0  0  0  0  0  0  0  0  0  0  0  0
   32.7640   34.2980   -1.1070 O   0  0  0  0  0  0  0  0  0  0  0  0
   40.1868   29.6744   -4.4082 H   0  0  0  0  0  0  0  0  0  0  0  0
   40.1901   30.8786   -2.2474 H   0  0  0  0  0  0  0  0  0  0  0  0
   37.3653   32.4913   -5.9799 H   0  0  0  0  0  0  0  0  0  0  0  0
   39.2441   35.7513    3.6166 H   0  0  0  0  0  0  0  0  0  0  0  0
   40.5277   32.2032   -0.8674 H   0  0  0  0  0  0  0  0  0  0  0  0
   41.4139   32.8434    1.3363 H   0  0  0  0  0  0  0  0  0  0  0  0
   37.3666   33.6917   -3.8188 H   0  0  0  0  0  0  0  0  0  0  0  0
   41.1718   34.2185    3.3987 H   0  0  0  0  0  0  0  0  0  0  0  0
   35.0806   33.9867   -0.7919 H   0  0  0  0  0  0  0  0  0  0  0  0
   37.7010   37.1850    0.3336 H   0  0  0  0  0  0  0  0  0  0  0  0
   35.7754   38.7367    0.3969 H   0  0  0  0  0  0  0  0  0  0  0  0
   33.5034   37.9154   -0.1384 H   0  0  0  0  0  0  0  0  0  0  0  0
  1 11  1  0  0  0  0
  2  1  2  0  0  0  0
  2 29  1  0  0  0  0
  3  2  1  0  0  0  0
  3 30  1  0  0  0  0
  4  3  2  0  0  0  0
  4 14  1  0  0  0  0
  5  1  1  0  0  0  0
  5 31  1  0  0  0  0
  6  4  1  0  0  0  0
  6 15  1  0  0  0  0
  7 17  1  0  0  0  0
  7 32  1  0  0  0  0
  8  6  2  0  0  0  0
  8 33  1  0  0  0  0
  9  8  1  0  0  0  0
  9 18  1  0  0  0  0
 10  9  2  0  0  0  0
 10 16  1  0  0  0  0
 10 34  1  0  0  0  0
 11 12  1  0  0  0  0
 11 13  2  0  0  0  0
 14  5  2  0  0  0  0
 14 35  1  0  0  0  0
 15 19  2  0  0  0  0
 16  7  2  0  0  0  0
 16 36  1  0  0  0  0
 17 18  2  0  0  0  0
 18 19  1  0  0  0  0
 19 20  1  0  0  0  0
 20 21  2  0  0  0  0
 20 22  1  0  0  0  0
 21 25  1  0  0  0  0
 21 37  1  0  0  0  0
 22 23  2  0  0  0  0
 22 38  1  0  0  0  0
 23 24  1  0  0  0  0
 23 39  1  0  0  0  0
 24 25  2  0  0  0  0
 24 40  1  0  0  0  0
 25 26  1  0  0  0  0
 26 27  2  0  0  0  0
 26 28  2  0  0  0  0
M  CHG  1  12  -1
M  END
