2qzl_ligand
 OpenBabel08222323343D

 91 93  0  0  1  0  0  0  0  0999 V2000
   26.6530   45.2250    2.4670 O   0  0  0  0  0  0  0  0  0  0  0  0
   26.1400   44.9570    1.1600 S   0  0  0  0  0  0  0  0  0  0  0  0
   24.7310   44.7160    1.1860 O   0  0  0  0  0  0  0  0  0  0  0  0
   26.4340   46.3350    0.2570 C   0  0  0  0  0  0  0  0  0  0  0  0
   26.8700   43.7580    0.5120 N   0  0  0  0  0  0  0  0  0  0  0  0
   26.2110   43.0260   -0.5700 C   0  0  0  0  0  0  0  0  0  0  0  0
   28.1620   43.3310    0.9110 C   0  0  0  0  0  0  0  0  0  0  0  0
   29.1470   44.2500    1.3000 C   0  0  0  0  0  0  0  0  0  0  0  0
   30.4110   43.8110    1.6960 C   0  0  0  0  0  0  0  0  0  0  0  0
   31.4740   44.7740    2.1410 C   0  0  0  0  0  0  0  0  0  0  0  0
   31.6230   45.8520    1.5700 O   0  0  0  0  0  0  0  0  0  0  0  0
   32.2110   44.3900    3.1900 N   0  0  0  0  0  0  0  0  0  0  0  0
   33.2370   45.2040    3.8300 C   0  0  2  0  0  0  0  0  0  0  0  0
   34.5580   44.4320    3.8770 C   0  0  0  0  0  0  0  0  0  0  0  0
   32.8090   45.6510    5.1850 C   0  0  0  0  0  0  0  0  0  0  0  0
   32.4640   44.7360    6.1820 C   0  0  0  0  0  0  0  0  0  0  0  0
   32.0650   45.1850    7.4430 C   0  0  0  0  0  0  0  0  0  0  0  0
   32.7520   47.0220    5.4660 C   0  0  0  0  0  0  0  0  0  0  0  0
   32.3590   47.4720    6.7280 C   0  0  0  0  0  0  0  0  0  0  0  0
   32.0130   46.5520    7.7120 C   0  0  0  0  0  0  0  0  0  0  0  0
   31.6340   46.9780    8.9320 F   0  0  0  0  0  0  0  0  0  0  0  0
   28.4620   41.9590    0.9160 C   0  0  0  0  0  0  0  0  0  0  0  0
   29.7250   41.5140    1.3090 C   0  0  0  0  0  0  0  0  0  0  0  0
   30.6940   42.4420    1.6930 C   0  0  0  0  0  0  0  0  0  0  0  0
   30.0580   40.0520    1.3360 C   0  0  0  0  0  0  0  0  0  0  0  0
   29.6430   39.2960    0.4740 O   0  0  0  0  0  0  0  0  0  0  0  0
   30.8090   39.6210    2.3450 N   0  0  0  0  0  0  0  0  0  0  0  0
   31.4980   38.3480    2.3120 C   0  0  1  0  0  0  0  0  0  0  0  0
   32.9660   38.4960    2.7200 C   0  0  0  0  0  0  0  0  0  0  0  0
   33.7130   39.5920    1.9740 C   0  0  0  0  0  0  0  0  0  0  0  0
   33.4940   39.8480    0.6160 C   0  0  0  0  0  0  0  0  0  0  0  0
   34.1970   40.8670   -0.0380 C   0  0  0  0  0  0  0  0  0  0  0  0
   35.1280   41.6340    0.6590 C   0  0  0  0  0  0  0  0  0  0  0  0
   35.3500   41.3900    2.0140 C   0  0  0  0  0  0  0  0  0  0  0  0
   34.6450   40.3650    2.6640 C   0  0  0  0  0  0  0  0  0  0  0  0
   30.8160   37.4040    3.2960 C   0  0  0  0  0  0  0  0  0  0  0  0
   29.4180   37.2110    2.9330 N   0  3  0  0  0  0  0  0  0  0  0  0
   28.9300   35.8400    2.8050 C   0  0  1  0  0  0  0  0  0  0  0  0
   27.4130   35.8410    2.6540 C   0  0  0  0  0  0  0  0  0  0  0  0
   29.5730   35.1370    1.6370 C   0  0  0  0  0  0  0  0  0  0  0  0
   29.6580   35.7180    0.5620 O   0  0  0  0  0  0  0  0  0  0  0  0
   30.0330   33.8960    1.8120 N   0  0  0  0  0  0  0  0  0  0  0  0
   30.5110   33.1110    0.6710 C   0  0  0  0  0  0  0  0  0  0  0  0
   31.2770   31.8400    1.0420 C   0  0  0  0  0  0  0  0  0  0  0  0
   30.4680   30.9060    1.9350 C   0  0  0  0  0  0  0  0  0  0  0  0
   31.7490   31.0980   -0.2040 C   0  0  0  0  0  0  0  0  0  0  0  0
   27.5160   46.5313    0.2294 H   0  0  0  0  0  0  0  0  0  0  0  0
   25.9176   47.1911    0.7157 H   0  0  0  0  0  0  0  0  0  0  0  0
   26.0618   46.1883   -0.7676 H   0  0  0  0  0  0  0  0  0  0  0  0
   26.8651   42.2107   -0.9126 H   0  0  0  0  0  0  0  0  0  0  0  0
   26.0099   43.7110   -1.4068 H   0  0  0  0  0  0  0  0  0  0  0  0
   25.2626   42.6059   -0.2040 H   0  0  0  0  0  0  0  0  0  0  0  0
   28.9246   45.3109    1.2930 H   0  0  0  0  0  0  0  0  0  0  0  0
   32.0456   43.4768    3.5625 H   0  0  0  0  0  0  0  0  0  0  0  0
   33.3912   46.1031    3.2154 H   0  0  0  0  0  0  0  0  0  0  0  0
   35.3276   45.0514    4.3608 H   0  0  0  0  0  0  0  0  0  0  0  0
   34.8756   44.1861    2.8530 H   0  0  0  0  0  0  0  0  0  0  0  0
   34.4201   43.5039    4.4510 H   0  0  0  0  0  0  0  0  0  0  0  0
   32.5061   43.6725    5.9763 H   0  0  0  0  0  0  0  0  0  0  0  0
   31.7958   44.4706    8.2125 H   0  0  0  0  0  0  0  0  0  0  0  0
   33.0152   47.7396    4.6974 H   0  0  0  0  0  0  0  0  0  0  0  0
   32.3237   48.5345    6.9400 H   0  0  0  0  0  0  0  0  0  0  0  0
   27.7081   41.2415    0.6128 H   0  0  0  0  0  0  0  0  0  0  0  0
   31.6772   42.0974    1.9923 H   0  0  0  0  0  0  0  0  0  0  0  0
   30.9014   40.1975    3.1569 H   0  0  0  0  0  0  0  0  0  0  0  0
   31.4436   37.9316    1.2953 H   0  0  0  0  0  0  0  0  0  0  0  0
   33.4753   37.5399    2.5290 H   0  0  0  0  0  0  0  0  0  0  0  0
   33.0040   38.7233    3.7956 H   0  0  0  0  0  0  0  0  0  0  0  0
   32.7743   39.2526    0.0659 H   0  0  0  0  0  0  0  0  0  0  0  0
   34.0164   41.0596   -1.0894 H   0  0  0  0  0  0  0  0  0  0  0  0
   35.6777   42.4175    0.1500 H   0  0  0  0  0  0  0  0  0  0  0  0
   36.0654   41.9906    2.5640 H   0  0  0  0  0  0  0  0  0  0  0  0
   34.8276   40.1724    3.7150 H   0  0  0  0  0  0  0  0  0  0  0  0
   30.8714   37.8334    4.3072 H   0  0  0  0  0  0  0  0  0  0  0  0
   31.3311   36.4322    3.2816 H   0  0  0  0  0  0  0  0  0  0  0  0
   29.2724   37.6659    2.0454 H   0  0  0  0  0  0  0  0  0  0  0  0
   28.8589   37.6643    3.6386 H   0  0  0  0  0  0  0  0  0  0  0  0
   29.1900   35.2924    3.7229 H   0  0  0  0  0  0  0  0  0  0  0  0
   27.0534   34.8059    2.5582 H   0  0  0  0  0  0  0  0  0  0  0  0
   27.1343   36.4106    1.7551 H   0  0  0  0  0  0  0  0  0  0  0  0
   26.9566   36.3072    3.5396 H   0  0  0  0  0  0  0  0  0  0  0  0
   30.0515   33.4989    2.7296 H   0  0  0  0  0  0  0  0  0  0  0  0
   31.1770   33.7491    0.0717 H   0  0  0  0  0  0  0  0  0  0  0  0
   29.6393   32.8207    0.0662 H   0  0  0  0  0  0  0  0  0  0  0  0
   32.1686   32.1485    1.6076 H   0  0  0  0  0  0  0  0  0  0  0  0
   31.0661   30.0129    2.1686 H   0  0  0  0  0  0  0  0  0  0  0  0
   29.5480   30.6048    1.4126 H   0  0  0  0  0  0  0  0  0  0  0  0
   30.2062   31.4263    2.8681 H   0  0  0  0  0  0  0  0  0  0  0  0
   32.3309   31.7818   -0.8395 H   0  0  0  0  0  0  0  0  0  0  0  0
   30.8767   30.7299   -0.7641 H   0  0  0  0  0  0  0  0  0  0  0  0
   32.3799   30.2472    0.0928 H   0  0  0  0  0  0  0  0  0  0  0  0
  1  2  2  0  0  0  0
  2  3  2  0  0  0  0
  2  4  1  0  0  0  0
  2  5  1  0  0  0  0
  4 47  1  0  0  0  0
  4 48  1  0  0  0  0
  4 49  1  0  0  0  0
  5  6  1  0  0  0  0
  5  7  1  0  0  0  0
  6 50  1  0  0  0  0
  6 51  1  0  0  0  0
  6 52  1  0  0  0  0
  7  8  2  0  0  0  0
  7 22  1  0  0  0  0
  8  9  1  0  0  0  0
  8 53  1  0  0  0  0
  9 10  1  0  0  0  0
  9 24  2  0  0  0  0
 10 11  2  0  0  0  0
 10 12  1  0  0  0  0
 12 13  1  0  0  0  0
 12 54  1  0  0  0  0
 13 14  1  0  0  0  0
 13 15  1  0  0  0  0
 13 55  1  6  0  0  0
 14 56  1  0  0  0  0
 14 57  1  0  0  0  0
 14 58  1  0  0  0  0
 15 16  2  0  0  0  0
 15 18  1  0  0  0  0
 16 17  1  0  0  0  0
 16 59  1  0  0  0  0
 17 20  2  0  0  0  0
 17 60  1  0  0  0  0
 18 19  2  0  0  0  0
 18 61  1  0  0  0  0
 19 20  1  0  0  0  0
 19 62  1  0  0  0  0
 20 21  1  0  0  0  0
 22 23  2  0  0  0  0
 22 63  1  0  0  0  0
 23 24  1  0  0  0  0
 23 25  1  0  0  0  0
 24 64  1  0  0  0  0
 25 26  2  0  0  0  0
 25 27  1  0  0  0  0
 27 28  1  0  0  0  0
 27 65  1  0  0  0  0
 28 29  1  0  0  0  0
 28 36  1  0  0  0  0
 28 66  1  6  0  0  0
 29 30  1  0  0  0  0
 29 67  1  0  0  0  0
 29 68  1  0  0  0  0
 30 31  2  0  0  0  0
 30 35  1  0  0  0  0
 31 32  1  0  0  0  0
 31 69  1  0  0  0  0
 32 33  2  0  0  0  0
 32 70  1  0  0  0  0
 33 34  1  0  0  0  0
 33 71  1  0  0  0  0
 34 35  2  0  0  0  0
 34 72  1  0  0  0  0
 35 73  1  0  0  0  0
 36 37  1  0  0  0  0
 36 74  1  0  0  0  0
 36 75  1  0  0  0  0
 37 38  1  0  0  0  0
 37 76  1  0  0  0  0
 37 77  1  0  0  0  0
 38 39  1  0  0  0  0
 38 40  1  0  0  0  0
 38 78  1  1  0  0  0
 39 79  1  0  0  0  0
 39 80  1  0  0  0  0
 39 81  1  0  0  0  0
 40 41  2  0  0  0  0
 40 42  1  0  0  0  0
 42 43  1  0  0  0  0
 42 82  1  0  0  0  0
 43 44  1  0  0  0  0
 43 83  1  0  0  0  0
 43 84  1  0  0  0  0
 44 45  1  0  0  0  0
 44 46  1  0  0  0  0
 44 85  1  0  0  0  0
 45 86  1  0  0  0  0
 45 87  1  0  0  0  0
 45 88  1  0  0  0  0
 46 89  1  0  0  0  0
 46 90  1  0  0  0  0
 46 91  1  0  0  0  0
M  CHG  1  37   1
M  END
