2qzx_ligand
 OpenBabel08222323343D

110109  0  0  1  0  0  0  0  0999 V2000
   -0.6010   34.1550   22.5200 C   0  0  0  0  0  0  0  0  0  0  0  0
   -1.2310   34.3460   23.5830 O   0  5  0  0  0  0  0  0  0  0  0  0
   -0.4240   33.0520   21.9620 O   0  0  0  0  0  0  0  0  0  0  0  0
    0.0520   35.3770   21.8650 C   0  0  0  0  0  0  0  0  0  0  0  0
    0.5590   36.3850   22.9000 C   0  0  2  0  0  0  0  0  0  0  0  0
    1.4290   37.2990   22.2270 O   0  0  0  0  0  0  0  0  0  0  0  0
    1.3530   35.6370   23.9730 C   0  0  1  0  0  0  0  0  0  0  0  0
    2.5910   35.0840   23.4110 N   0  0  0  0  0  0  0  0  0  0  0  0
    2.7720   33.7590   23.3900 C   0  0  0  0  0  0  0  0  0  0  0  0
    1.9980   32.9740   23.9110 O   0  0  0  0  0  0  0  0  0  0  0  0
    4.0440   33.2500   22.7040 C   0  0  1  0  0  0  0  0  0  0  0  0
    4.6940   32.1640   23.4530 N   0  0  0  0  0  0  0  0  0  0  0  0
    5.5770   32.3900   24.4220 C   0  0  0  0  0  0  0  0  0  0  0  0
    5.8860   33.5150   24.8110 O   0  0  0  0  0  0  0  0  0  0  0  0
    6.1850   31.1490   25.0810 C   0  0  0  0  0  0  0  0  0  0  0  0
    7.4740   30.7190   24.3740 C   0  0  2  0  0  0  0  0  0  0  0  0
    7.9470   29.4770   24.9030 O   0  0  0  0  0  0  0  0  0  0  0  0
    8.6080   31.7430   24.4500 C   0  0  2  0  0  0  0  0  0  0  0  0
    9.7000   31.2770   23.4830 C   0  0  0  0  0  0  0  0  0  0  0  0
    9.1330   31.8200   25.8230 N   0  0  0  0  0  0  0  0  0  0  0  0
    9.2570   32.9750   26.4750 C   0  0  0  0  0  0  0  0  0  0  0  0
    8.9850   34.0730   25.9930 O   0  0  0  0  0  0  0  0  0  0  0  0
    9.8590   32.8760   27.8780 C   0  0  1  0  0  0  0  0  0  0  0  0
   11.2360   33.3550   27.6900 N   0  0  0  0  0  0  0  0  0  0  0  0
   12.3180   32.8300   28.2560 C   0  0  0  0  0  0  0  0  0  0  0  0
   12.3100   31.9200   29.0840 O   0  0  0  0  0  0  0  0  0  0  0  0
   13.6160   33.5080   27.8110 C   0  0  1  0  0  0  0  0  0  0  0  0
   14.7300   33.2460   28.7310 N   0  0  0  0  0  0  0  0  0  0  0  0
   15.3000   34.2000   29.4600 C   0  0  0  0  0  0  0  0  0  0  0  0
   14.9360   35.3760   29.4720 O   0  0  0  0  0  0  0  0  0  0  0  0
   16.4710   33.6900   30.3040 C   0  0  0  0  0  0  0  0  0  0  0  0
   16.4820   34.1190   31.7720 C   0  0  0  0  0  0  0  0  0  0  0  0
   15.1870   33.7410   32.4940 C   0  0  0  0  0  0  0  0  0  0  0  0
    1.4610   36.3240   25.3420 C   0  0  0  0  0  0  0  0  0  0  0  0
    2.4760   37.4620   25.4670 C   0  0  0  0  0  0  0  0  0  0  0  0
    3.5130   37.4730   24.3430 C   0  0  0  0  0  0  0  0  0  0  0  0
    1.8170   38.8310   25.6430 C   0  0  0  0  0  0  0  0  0  0  0  0
    3.6410   32.7060   21.3320 C   0  0  0  0  0  0  0  0  0  0  0  0
   11.0160   32.0540   23.5780 C   0  0  0  0  0  0  0  0  0  0  0  0
   10.9210   33.4640   22.9920 C   0  0  0  0  0  0  0  0  0  0  0  0
   12.1150   31.2530   22.8750 C   0  0  0  0  0  0  0  0  0  0  0  0
    9.0790   33.7590   28.8570 C   0  0  0  0  0  0  0  0  0  0  0  0
    7.6660   33.2090   29.0620 C   0  0  0  0  0  0  0  0  0  0  0  0
    9.7930   33.8830   30.2040 C   0  0  0  0  0  0  0  0  0  0  0  0
   14.0180   33.0330   26.4110 C   0  0  0  0  0  0  0  0  0  0  0  0
   15.2590   33.7830   25.9250 C   0  0  0  0  0  0  0  0  0  0  0  0
   14.2680   31.5240   26.3390 C   0  0  0  0  0  0  0  0  0  0  0  0
   17.6760   33.4530   32.4610 C   0  0  0  0  0  0  0  0  0  0  0  0
   -0.6895   35.8727   21.2212 H   0  0  0  0  0  0  0  0  0  0  0  0
    0.9016   35.0396   21.2532 H   0  0  0  0  0  0  0  0  0  0  0  0
   -0.2840   36.9234   23.3577 H   0  0  0  0  0  0  0  0  0  0  0  0
    0.9480   37.7444   21.5395 H   0  0  0  0  0  0  0  0  0  0  0  0
    0.7399   34.7500   24.1905 H   0  0  0  0  0  0  0  0  0  0  0  0
    3.2945   35.6939   23.0462 H   0  0  0  0  0  0  0  0  0  0  0  0
    4.7526   34.0834   22.5886 H   0  0  0  0  0  0  0  0  0  0  0  0
    4.4631   31.2182   23.2248 H   0  0  0  0  0  0  0  0  0  0  0  0
    5.4579   30.3250   25.0329 H   0  0  0  0  0  0  0  0  0  0  0  0
    6.4121   31.3767   26.1329 H   0  0  0  0  0  0  0  0  0  0  0  0
    7.2290   30.5724   23.3117 H   0  0  0  0  0  0  0  0  0  0  0  0
    8.1225   29.5758   25.8314 H   0  0  0  0  0  0  0  0  0  0  0  0
    8.2389   32.7340   24.1472 H   0  0  0  0  0  0  0  0  0  0  0  0
    9.3155   31.3794   22.4575 H   0  0  0  0  0  0  0  0  0  0  0  0
    9.9122   30.2179   23.6911 H   0  0  0  0  0  0  0  0  0  0  0  0
    9.4064   30.9751   26.2827 H   0  0  0  0  0  0  0  0  0  0  0  0
    9.8529   31.8369   28.2388 H   0  0  0  0  0  0  0  0  0  0  0  0
   11.3698   34.1409   27.0863 H   0  0  0  0  0  0  0  0  0  0  0  0
   13.4394   34.5933   27.7797 H   0  0  0  0  0  0  0  0  0  0  0  0
   15.0742   32.3106   28.8125 H   0  0  0  0  0  0  0  0  0  0  0  0
   17.4010   34.0522   29.8415 H   0  0  0  0  0  0  0  0  0  0  0  0
   16.4514   32.5905   30.2758 H   0  0  0  0  0  0  0  0  0  0  0  0
   16.6005   35.2115   31.8197 H   0  0  0  0  0  0  0  0  0  0  0  0
   15.2426   34.0690   33.5425 H   0  0  0  0  0  0  0  0  0  0  0  0
   15.0521   32.6499   32.4579 H   0  0  0  0  0  0  0  0  0  0  0  0
   14.3353   34.2323   32.0008 H   0  0  0  0  0  0  0  0  0  0  0  0
    1.7322   35.5544   26.0796 H   0  0  0  0  0  0  0  0  0  0  0  0
    0.4702   36.7340   25.5872 H   0  0  0  0  0  0  0  0  0  0  0  0
    3.0334   37.2681   26.3953 H   0  0  0  0  0  0  0  0  0  0  0  0
    4.2081   38.3122   24.4936 H   0  0  0  0  0  0  0  0  0  0  0  0
    3.0034   37.5883   23.3750 H   0  0  0  0  0  0  0  0  0  0  0  0
    4.0735   36.5266   24.3519 H   0  0  0  0  0  0  0  0  0  0  0  0
    1.0801   38.7811   26.4582 H   0  0  0  0  0  0  0  0  0  0  0  0
    1.3116   39.1175   24.7089 H   0  0  0  0  0  0  0  0  0  0  0  0
    2.5853   39.5790   25.8886 H   0  0  0  0  0  0  0  0  0  0  0  0
    3.1515   33.5018   20.7514 H   0  0  0  0  0  0  0  0  0  0  0  0
    2.9441   31.8648   21.4613 H   0  0  0  0  0  0  0  0  0  0  0  0
    4.5377   32.3603   20.7968 H   0  0  0  0  0  0  0  0  0  0  0  0
   11.2792   32.1503   24.6417 H   0  0  0  0  0  0  0  0  0  0  0  0
   11.8938   33.9681   23.0900 H   0  0  0  0  0  0  0  0  0  0  0  0
   10.1551   34.0363   23.5359 H   0  0  0  0  0  0  0  0  0  0  0  0
   10.6459   33.4015   21.9288 H   0  0  0  0  0  0  0  0  0  0  0  0
   12.1680   30.2438   23.3093 H   0  0  0  0  0  0  0  0  0  0  0  0
   13.0815   31.7609   23.0087 H   0  0  0  0  0  0  0  0  0  0  0  0
   11.8852   31.1787   21.8019 H   0  0  0  0  0  0  0  0  0  0  0  0
    8.9994   34.7648   28.4188 H   0  0  0  0  0  0  0  0  0  0  0  0
    7.1203   33.8537   29.7666 H   0  0  0  0  0  0  0  0  0  0  0  0
    7.7251   32.1888   29.4689 H   0  0  0  0  0  0  0  0  0  0  0  0
    7.1368   33.1892   28.0979 H   0  0  0  0  0  0  0  0  0  0  0  0
   10.8071   34.2789   30.0463 H   0  0  0  0  0  0  0  0  0  0  0  0
    9.8557   32.8925   30.6783 H   0  0  0  0  0  0  0  0  0  0  0  0
    9.2298   34.5668   30.8560 H   0  0  0  0  0  0  0  0  0  0  0  0
   13.1864   33.2672   25.7302 H   0  0  0  0  0  0  0  0  0  0  0  0
   15.5314   33.4286   24.9199 H   0  0  0  0  0  0  0  0  0  0  0  0
   16.0935   33.5986   26.6175 H   0  0  0  0  0  0  0  0  0  0  0  0
   15.0447   34.8613   25.8879 H   0  0  0  0  0  0  0  0  0  0  0  0
   13.3740   30.9871   26.6891 H   0  0  0  0  0  0  0  0  0  0  0  0
   15.1254   31.2635   26.9770 H   0  0  0  0  0  0  0  0  0  0  0  0
   14.4841   31.2373   25.2993 H   0  0  0  0  0  0  0  0  0  0  0  0
   18.6027   33.7292   31.9367 H   0  0  0  0  0  0  0  0  0  0  0  0
   17.5518   32.3604   32.4350 H   0  0  0  0  0  0  0  0  0  0  0  0
   17.7315   33.7909   33.5063 H   0  0  0  0  0  0  0  0  0  0  0  0
  1  2  1  0  0  0  0
  1  3  2  0  0  0  0
  1  4  1  0  0  0  0
  4  5  1  0  0  0  0
  4 49  1  0  0  0  0
  4 50  1  0  0  0  0
  5  6  1  0  0  0  0
  5  7  1  0  0  0  0
  5 51  1  1  0  0  0
  6 52  1  0  0  0  0
  7  8  1  0  0  0  0
  7 34  1  0  0  0  0
  7 53  1  1  0  0  0
  8  9  1  0  0  0  0
  8 54  1  0  0  0  0
  9 10  2  0  0  0  0
  9 11  1  0  0  0  0
 11 12  1  0  0  0  0
 11 38  1  0  0  0  0
 11 55  1  6  0  0  0
 12 13  1  0  0  0  0
 12 56  1  0  0  0  0
 13 14  2  0  0  0  0
 13 15  1  0  0  0  0
 15 16  1  0  0  0  0
 15 57  1  0  0  0  0
 15 58  1  0  0  0  0
 16 17  1  0  0  0  0
 16 18  1  0  0  0  0
 16 59  1  6  0  0  0
 17 60  1  0  0  0  0
 18 19  1  0  0  0  0
 18 20  1  0  0  0  0
 18 61  1  6  0  0  0
 19 39  1  0  0  0  0
 19 62  1  0  0  0  0
 19 63  1  0  0  0  0
 20 21  1  0  0  0  0
 20 64  1  0  0  0  0
 21 22  2  0  0  0  0
 21 23  1  0  0  0  0
 23 24  1  0  0  0  0
 23 42  1  0  0  0  0
 23 65  1  1  0  0  0
 24 25  1  0  0  0  0
 24 66  1  0  0  0  0
 25 26  2  0  0  0  0
 25 27  1  0  0  0  0
 27 28  1  0  0  0  0
 27 45  1  0  0  0  0
 27 67  1  6  0  0  0
 28 29  1  0  0  0  0
 28 68  1  0  0  0  0
 29 30  2  0  0  0  0
 29 31  1  0  0  0  0
 31 32  1  0  0  0  0
 31 69  1  0  0  0  0
 31 70  1  0  0  0  0
 32 33  1  0  0  0  0
 32 48  1  0  0  0  0
 32 71  1  0  0  0  0
 33 72  1  0  0  0  0
 33 73  1  0  0  0  0
 33 74  1  0  0  0  0
 34 35  1  0  0  0  0
 34 75  1  0  0  0  0
 34 76  1  0  0  0  0
 35 36  1  0  0  0  0
 35 37  1  0  0  0  0
 35 77  1  0  0  0  0
 36 78  1  0  0  0  0
 36 79  1  0  0  0  0
 36 80  1  0  0  0  0
 37 81  1  0  0  0  0
 37 82  1  0  0  0  0
 37 83  1  0  0  0  0
 38 84  1  0  0  0  0
 38 85  1  0  0  0  0
 38 86  1  0  0  0  0
 39 40  1  0  0  0  0
 39 41  1  0  0  0  0
 39 87  1  0  0  0  0
 40 88  1  0  0  0  0
 40 89  1  0  0  0  0
 40 90  1  0  0  0  0
 41 91  1  0  0  0  0
 41 92  1  0  0  0  0
 41 93  1  0  0  0  0
 42 43  1  0  0  0  0
 42 44  1  0  0  0  0
 42 94  1  0  0  0  0
 43 95  1  0  0  0  0
 43 96  1  0  0  0  0
 43 97  1  0  0  0  0
 44 98  1  0  0  0  0
 44 99  1  0  0  0  0
 44100  1  0  0  0  0
 45 46  1  0  0  0  0
 45 47  1  0  0  0  0
 45101  1  0  0  0  0
 46102  1  0  0  0  0
 46103  1  0  0  0  0
 46104  1  0  0  0  0
 47105  1  0  0  0  0
 47106  1  0  0  0  0
 47107  1  0  0  0  0
 48108  1  0  0  0  0
 48109  1  0  0  0  0
 48110  1  0  0  0  0
M  CHG  1   2  -1
M  END
