2r1x_ligand
 OpenBabel08222323343D

 58 59  0  0  1  0  0  0  0  0999 V2000
  -12.2250    2.0270   70.8140 O   0  5  0  0  0  0  0  0  0  0  0  0
  -11.3090    1.9490   71.6860 C   0  0  0  0  0  0  0  0  0  0  0  0
  -11.2900    1.1380   72.6410 O   0  0  0  0  0  0  0  0  0  0  0  0
  -10.0790    2.8640   71.6490 C   0  0  0  0  0  0  0  0  0  0  0  0
   -9.0430    2.4710   72.4770 O   0  0  0  0  0  0  0  0  0  0  0  0
   -7.6830    2.9420   72.2300 C   0  0  2  0  0  0  0  0  0  0  0  0
   -6.7490    2.5240   73.3790 C   0  0  1  0  0  0  0  0  0  0  0  0
   -7.2700    2.8510   74.7850 C   0  0  0  0  0  0  0  0  0  0  0  0
   -6.1750    3.0990   75.6640 O   0  0  0  0  0  0  0  0  0  0  0  0
   -6.5950    1.1160   73.2760 O   0  0  0  0  0  0  0  0  0  0  0  0
   -7.6530    4.4430   71.8530 C   0  0  0  0  0  0  0  0  0  0  0  0
   -9.9810    4.0210   70.8520 C   0  0  0  0  0  0  0  0  0  0  0  0
   -8.6660    4.4700   70.7060 C   0  0  2  0  0  0  0  0  0  0  0  0
   -9.6650    0.7790   65.8130 C   0  0  0  0  0  0  0  0  0  0  0  0
  -10.6770    1.4220   65.4060 O   0  5  0  0  0  0  0  0  0  0  0  0
   -9.5760   -0.4450   65.9350 O   0  0  0  0  0  0  0  0  0  0  0  0
   -8.4420    1.5950   66.1190 C   0  0  1  0  0  0  0  0  0  0  0  0
   -7.4220    1.4510   64.9490 C   0  0  0  0  0  0  0  0  0  0  0  0
   -6.2640    2.4530   65.1180 C   0  0  1  0  0  0  0  0  0  0  0  0
   -5.4620    2.4850   63.9080 O   0  0  0  0  0  0  0  0  0  0  0  0
   -6.7350    3.8660   65.4330 C   0  0  1  0  0  0  0  0  0  0  0  0
   -7.5330    4.3380   64.3330 O   0  0  0  0  0  0  0  0  0  0  0  0
   -7.6710    3.8730   66.6750 C   0  0  2  0  0  0  0  0  0  0  0  0
   -8.8220    3.0190   66.4130 O   0  0  0  0  0  0  0  0  0  0  0  0
   -8.1730    5.2750   67.0390 C   0  0  2  0  0  0  0  0  0  0  0  0
   -6.9990    6.0230   67.2990 O   0  0  0  0  0  0  0  0  0  0  0  0
   -9.0510    5.2120   68.3060 C   0  0  0  0  0  0  0  0  0  0  0  0
   -8.1760    4.7630   69.3590 O   0  0  0  0  0  0  0  0  0  0  0  0
   -7.8170    1.0870   67.3830 O   0  0  0  0  0  0  0  0  0  0  0  0
   -8.6230    1.1100   68.5580 C   0  0  0  0  0  0  0  0  0  0  0  0
   -8.7470    0.0280   69.3690 C   0  0  0  0  0  0  0  0  0  0  0  0
   -7.6790   -0.4010   70.1200 C   0  0  0  0  0  0  0  0  0  0  0  0
   -7.3218    2.4064   71.3397 H   0  0  0  0  0  0  0  0  0  0  0  0
   -5.7773    3.0216   73.2444 H   0  0  0  0  0  0  0  0  0  0  0  0
   -7.8559    2.0005   75.1636 H   0  0  0  0  0  0  0  0  0  0  0  0
   -7.9094    3.7448   74.7381 H   0  0  0  0  0  0  0  0  0  0  0  0
   -6.5060    3.3004   76.5314 H   0  0  0  0  0  0  0  0  0  0  0  0
   -7.4349    0.6954   73.4185 H   0  0  0  0  0  0  0  0  0  0  0  0
   -6.6533    4.7565   71.5178 H   0  0  0  0  0  0  0  0  0  0  0  0
   -7.9742    5.0778   72.6920 H   0  0  0  0  0  0  0  0  0  0  0  0
  -10.8394    4.5136   70.3976 H   0  0  0  0  0  0  0  0  0  0  0  0
   -8.9453    5.5149   70.9066 H   0  0  0  0  0  0  0  0  0  0  0  0
   -7.9343    1.6471   63.9956 H   0  0  0  0  0  0  0  0  0  0  0  0
   -7.0179    0.4279   64.9445 H   0  0  0  0  0  0  0  0  0  0  0  0
   -5.6353    2.1076   65.9519 H   0  0  0  0  0  0  0  0  0  0  0  0
   -4.7498    3.1041   64.0177 H   0  0  0  0  0  0  0  0  0  0  0  0
   -5.8684    4.5225   65.6005 H   0  0  0  0  0  0  0  0  0  0  0  0
   -8.2816    3.7646   64.2174 H   0  0  0  0  0  0  0  0  0  0  0  0
   -7.1107    3.4713   67.5321 H   0  0  0  0  0  0  0  0  0  0  0  0
   -8.7447    5.7157   66.2090 H   0  0  0  0  0  0  0  0  0  0  0  0
   -6.5217    5.6221   68.0160 H   0  0  0  0  0  0  0  0  0  0  0  0
   -9.8789    4.5015   68.1651 H   0  0  0  0  0  0  0  0  0  0  0  0
   -9.4574    6.2066   68.5419 H   0  0  0  0  0  0  0  0  0  0  0  0
   -9.6408    1.3649   68.2278 H   0  0  0  0  0  0  0  0  0  0  0  0
   -8.2274    1.9215   69.1864 H   0  0  0  0  0  0  0  0  0  0  0  0
   -9.6967   -0.5020   69.4245 H   0  0  0  0  0  0  0  0  0  0  0  0
   -7.7834   -1.2693   70.7689 H   0  0  0  0  0  0  0  0  0  0  0  0
   -6.7283    0.1273   70.0662 H   0  0  0  0  0  0  0  0  0  0  0  0
  2  1  1  0  0  0  0
  2  3  2  0  0  0  0
  4  2  1  0  0  0  0
  4 12  2  0  0  0  0
  5  4  1  0  0  0  0
  6  5  1  0  0  0  0
  6  7  1  0  0  0  0
  6 33  1  6  0  0  0
  7  8  1  0  0  0  0
  7 10  1  0  0  0  0
  7 34  1  6  0  0  0
  8  9  1  0  0  0  0
  8 35  1  0  0  0  0
  8 36  1  0  0  0  0
  9 37  1  0  0  0  0
 10 38  1  0  0  0  0
 11  6  1  0  0  0  0
 11 39  1  0  0  0  0
 11 40  1  0  0  0  0
 12 13  1  0  0  0  0
 12 41  1  0  0  0  0
 13 11  1  0  0  0  0
 13 42  1  1  0  0  0
 14 15  1  0  0  0  0
 14 16  2  0  0  0  0
 17 14  1  6  0  0  0
 17 18  1  0  0  0  0
 17 24  1  0  0  0  0
 18 19  1  0  0  0  0
 18 43  1  0  0  0  0
 18 44  1  0  0  0  0
 19 20  1  0  0  0  0
 19 21  1  0  0  0  0
 19 45  1  1  0  0  0
 20 46  1  0  0  0  0
 21 22  1  0  0  0  0
 21 47  1  1  0  0  0
 22 48  1  0  0  0  0
 23 21  1  0  0  0  0
 23 25  1  0  0  0  0
 23 49  1  1  0  0  0
 24 23  1  0  0  0  0
 25 26  1  0  0  0  0
 25 27  1  0  0  0  0
 25 50  1  6  0  0  0
 26 51  1  0  0  0  0
 27 28  1  0  0  0  0
 27 52  1  0  0  0  0
 27 53  1  0  0  0  0
 28 13  1  0  0  0  0
 29 17  1  0  0  0  0
 30 29  1  0  0  0  0
 30 54  1  0  0  0  0
 30 55  1  0  0  0  0
 31 30  1  0  0  0  0
 31 56  1  0  0  0  0
 32 31  2  0  0  0  0
 32 57  1  0  0  0  0
 32 58  1  0  0  0  0
M  CHG  2   1  -1  15  -1
M  END
