2r3f_ligand
 OpenBabel08222323343D

 38 41  0  0  0  0  0  0  0  0999 V2000
   -0.5430   31.2880    8.0500 C   0  0  0  0  0  0  0  0  0  0  0  0
    0.0220   30.0200    8.3790 C   0  0  0  0  0  0  0  0  0  0  0  0
    1.2750   29.9830    7.6510 N   0  0  0  0  0  0  0  0  0  0  0  0
    1.4750   31.1120    6.9180 N   0  0  0  0  0  0  0  0  0  0  0  0
    0.4140   31.9190    7.1880 C   0  0  0  0  0  0  0  0  0  0  0  0
   -0.4140   28.9930    9.1660 N   0  0  0  0  0  0  0  0  0  0  0  0
    0.3850   27.9270    9.2360 C   0  0  0  0  0  0  0  0  0  0  0  0
    1.6690   27.8320    8.5880 C   0  0  0  0  0  0  0  0  0  0  0  0
    2.1090   28.8990    7.7780 C   0  0  0  0  0  0  0  0  0  0  0  0
    3.3240   28.9410    7.1360 N   0  0  0  0  0  0  0  0  0  0  0  0
   -0.0330   26.8450   10.1610 C   0  0  0  0  0  0  0  0  0  0  0  0
    4.3450   27.9960    7.5410 C   0  0  0  0  0  0  0  0  0  0  0  0
    4.4690   26.8600    6.5880 C   0  0  0  0  0  0  0  0  0  0  0  0
    4.3760   25.5440    7.0440 C   0  0  0  0  0  0  0  0  0  0  0  0
    4.4810   24.5020    6.1000 C   0  0  0  0  0  0  0  0  0  0  0  0
    4.6460   24.7110    4.7810 N   0  0  0  0  0  0  0  0  0  0  0  0
    4.7570   25.9950    4.3600 C   0  0  0  0  0  0  0  0  0  0  0  0
    4.6540   27.0980    5.2270 C   0  0  0  0  0  0  0  0  0  0  0  0
   -0.2800   27.2010   11.4940 C   0  0  0  0  0  0  0  0  0  0  0  0
   -0.7300   26.2580   12.4020 C   0  0  0  0  0  0  0  0  0  0  0  0
   -0.9080   24.9430   12.0010 C   0  0  0  0  0  0  0  0  0  0  0  0
   -0.6710   24.5830   10.6740 C   0  0  0  0  0  0  0  0  0  0  0  0
   -0.2370   25.5210    9.7470 C   0  0  0  0  0  0  0  0  0  0  0  0
    0.0400   25.0550    8.1620 Cl  0  0  0  0  0  0  0  0  0  0  0  0
   -0.9480   22.9790   10.2060 Cl  0  0  0  0  0  0  0  0  0  0  0  0
   -1.4983   31.6913    8.3828 H   0  0  0  0  0  0  0  0  0  0  0  0
    0.3038   32.9285    6.7948 H   0  0  0  0  0  0  0  0  0  0  0  0
    2.2908   26.9481    8.7222 H   0  0  0  0  0  0  0  0  0  0  0  0
    3.5036   29.6255    6.3876 H   0  0  0  0  0  0  0  0  0  0  0  0
    4.0865   27.5990    8.5337 H   0  0  0  0  0  0  0  0  0  0  0  0
    5.3108   28.5196    7.5956 H   0  0  0  0  0  0  0  0  0  0  0  0
    4.2270   25.3289    8.0959 H   0  0  0  0  0  0  0  0  0  0  0  0
    4.4259   23.4793    6.4553 H   0  0  0  0  0  0  0  0  0  0  0  0
    4.9333   26.1802    3.3066 H   0  0  0  0  0  0  0  0  0  0  0  0
    4.7171   28.1106    4.8452 H   0  0  0  0  0  0  0  0  0  0  0  0
   -0.1173   28.2231   11.8165 H   0  0  0  0  0  0  0  0  0  0  0  0
   -0.9428   26.5473   13.4248 H   0  0  0  0  0  0  0  0  0  0  0  0
   -1.2307   24.1959   12.7170 H   0  0  0  0  0  0  0  0  0  0  0  0
  1  2  2  0  0  0  0
  1  5  1  0  0  0  0
  1 26  1  0  0  0  0
  2  3  1  0  0  0  0
  2  6  1  0  0  0  0
  3  4  1  0  0  0  0
  3  9  1  0  0  0  0
  4  5  2  0  0  0  0
  5 27  1  0  0  0  0
  6  7  2  0  0  0  0
  7  8  1  0  0  0  0
  7 11  1  0  0  0  0
  8  9  2  0  0  0  0
  8 28  1  0  0  0  0
  9 10  1  0  0  0  0
 10 12  1  0  0  0  0
 10 29  1  0  0  0  0
 11 19  2  0  0  0  0
 11 23  1  0  0  0  0
 12 13  1  0  0  0  0
 12 30  1  0  0  0  0
 12 31  1  0  0  0  0
 13 14  2  0  0  0  0
 13 18  1  0  0  0  0
 14 15  1  0  0  0  0
 14 32  1  0  0  0  0
 15 16  2  0  0  0  0
 15 33  1  0  0  0  0
 16 17  1  0  0  0  0
 17 18  2  0  0  0  0
 17 34  1  0  0  0  0
 18 35  1  0  0  0  0
 19 20  1  0  0  0  0
 19 36  1  0  0  0  0
 20 21  2  0  0  0  0
 20 37  1  0  0  0  0
 21 22  1  0  0  0  0
 21 38  1  0  0  0  0
 22 23  2  0  0  0  0
 22 25  1  0  0  0  0
 23 24  1  0  0  0  0
M  END
