2r3h_ligand
 OpenBabel08222323343D

 31 33  0  0  0  0  0  0  0  0999 V2000
   -0.2280   30.4830    7.8410 C   0  0  0  0  0  0  0  0  0  0  0  0
    0.4500   29.2650    8.0110 N   0  0  0  0  0  0  0  0  0  0  0  0
    1.6890   29.3660    7.2990 C   0  0  0  0  0  0  0  0  0  0  0  0
    1.7920   30.5860    6.6620 N   0  0  0  0  0  0  0  0  0  0  0  0
    0.6420   31.2990    7.0400 C   0  0  0  0  0  0  0  0  0  0  0  0
    0.1480   28.1080    8.7120 C   0  0  0  0  0  0  0  0  0  0  0  0
    1.0660   27.0600    8.6860 C   0  0  0  0  0  0  0  0  0  0  0  0
    2.2670   27.0760    8.0280 N   0  0  0  0  0  0  0  0  0  0  0  0
    2.6020   28.2010    7.3410 C   0  0  0  0  0  0  0  0  0  0  0  0
    3.7900   28.3030    6.6450 N   0  0  0  0  0  0  0  0  0  0  0  0
    4.8130   27.2760    6.7850 C   0  0  0  0  0  0  0  0  0  0  0  0
    4.8740   26.3270    5.6150 C   0  0  0  0  0  0  0  0  0  0  0  0
    4.7030   24.9460    5.8130 C   0  0  0  0  0  0  0  0  0  0  0  0
    4.7650   24.0920    4.6930 C   0  0  0  0  0  0  0  0  0  0  0  0
    4.9920   24.5330    3.4300 N   0  0  0  0  0  0  0  0  0  0  0  0
    5.1530   25.8610    3.2610 C   0  0  0  0  0  0  0  0  0  0  0  0
    5.0980   26.7910    4.3180 C   0  0  0  0  0  0  0  0  0  0  0  0
   -1.5460   30.7980    8.4130 C   0  0  0  0  0  0  0  0  0  0  0  0
    0.4373   32.3321    6.7629 H   0  0  0  0  0  0  0  0  0  0  0  0
   -0.7835   28.0202    9.2692 H   0  0  0  0  0  0  0  0  0  0  0  0
    0.8074   26.1547    9.2333 H   0  0  0  0  0  0  0  0  0  0  0  0
    3.9534   29.1086    6.0243 H   0  0  0  0  0  0  0  0  0  0  0  0
    4.6011   26.6947    7.6945 H   0  0  0  0  0  0  0  0  0  0  0  0
    5.7910   27.7695    6.8847 H   0  0  0  0  0  0  0  0  0  0  0  0
    4.5273   24.5463    6.8052 H   0  0  0  0  0  0  0  0  0  0  0  0
    4.6241   23.0285    4.8488 H   0  0  0  0  0  0  0  0  0  0  0  0
    5.3343   26.2328    2.2590 H   0  0  0  0  0  0  0  0  0  0  0  0
    5.2276   27.8501    4.1268 H   0  0  0  0  0  0  0  0  0  0  0  0
   -1.8378   31.8179    8.1219 H   0  0  0  0  0  0  0  0  0  0  0  0
   -1.4955   30.7301    9.5097 H   0  0  0  0  0  0  0  0  0  0  0  0
   -2.2904   30.0818    8.0351 H   0  0  0  0  0  0  0  0  0  0  0  0
  1  2  1  0  0  0  0
  1  5  2  0  0  0  0
  1 18  1  0  0  0  0
  2  3  1  0  0  0  0
  2  6  1  0  0  0  0
  3  4  2  0  0  0  0
  3  9  1  0  0  0  0
  4  5  1  0  0  0  0
  5 19  1  0  0  0  0
  6  7  2  0  0  0  0
  6 20  1  0  0  0  0
  7  8  1  0  0  0  0
  7 21  1  0  0  0  0
  8  9  2  0  0  0  0
  9 10  1  0  0  0  0
 10 11  1  0  0  0  0
 10 22  1  0  0  0  0
 11 12  1  0  0  0  0
 11 23  1  0  0  0  0
 11 24  1  0  0  0  0
 12 13  2  0  0  0  0
 12 17  1  0  0  0  0
 13 14  1  0  0  0  0
 13 25  1  0  0  0  0
 14 15  2  0  0  0  0
 14 26  1  0  0  0  0
 15 16  1  0  0  0  0
 16 17  2  0  0  0  0
 16 27  1  0  0  0  0
 17 28  1  0  0  0  0
 18 29  1  0  0  0  0
 18 30  1  0  0  0  0
 18 31  1  0  0  0  0
M  END
