2r3i_ligand
 OpenBabel08222323343D

 38 41  0  0  0  0  0  0  0  0999 V2000
   -0.4540   31.5250    8.0940 C   0  0  0  0  0  0  0  0  0  0  0  0
    0.0870   30.2500    8.2840 C   0  0  0  0  0  0  0  0  0  0  0  0
    1.2260   30.1960    7.4700 N   0  0  0  0  0  0  0  0  0  0  0  0
    1.4580   31.3630    6.8360 N   0  0  0  0  0  0  0  0  0  0  0  0
    0.4510   32.1780    7.2150 C   0  0  0  0  0  0  0  0  0  0  0  0
   -0.3280   29.2050    9.0170 N   0  0  0  0  0  0  0  0  0  0  0  0
    0.4500   28.1340    8.9830 C   0  0  0  0  0  0  0  0  0  0  0  0
    1.6660   28.0510    8.2540 C   0  0  0  0  0  0  0  0  0  0  0  0
    2.0470   29.1240    7.4950 C   0  0  0  0  0  0  0  0  0  0  0  0
    3.1980   29.2270    6.7960 N   0  0  0  0  0  0  0  0  0  0  0  0
    0.0700   26.9870    9.8140 C   0  0  0  0  0  0  0  0  0  0  0  0
    4.3530   28.4500    7.1930 C   0  0  0  0  0  0  0  0  0  0  0  0
    4.5950   27.3370    6.2500 C   0  0  0  0  0  0  0  0  0  0  0  0
    4.5140   26.0190    6.6900 C   0  0  0  0  0  0  0  0  0  0  0  0
    4.7570   24.9860    5.7550 C   0  0  0  0  0  0  0  0  0  0  0  0
    5.0310   25.2190    4.4510 N   0  0  0  0  0  0  0  0  0  0  0  0
    5.0990   26.5090    4.0500 C   0  0  0  0  0  0  0  0  0  0  0  0
    4.8550   27.5940    4.9100 C   0  0  0  0  0  0  0  0  0  0  0  0
    0.0210   25.6890    9.2610 C   0  0  0  0  0  0  0  0  0  0  0  0
   -0.3660   24.5800   10.0230 C   0  0  0  0  0  0  0  0  0  0  0  0
   -0.7010   24.7620   11.3620 C   0  0  0  0  0  0  0  0  0  0  0  0
   -0.6320   26.0240   11.9530 C   0  0  0  0  0  0  0  0  0  0  0  0
   -0.2700   27.1600   11.1820 C   0  0  0  0  0  0  0  0  0  0  0  0
   -0.2260   28.4050   11.8130 F   0  0  0  0  0  0  0  0  0  0  0  0
   -1.3687   31.9290    8.5253 H   0  0  0  0  0  0  0  0  0  0  0  0
    0.3451   33.2109    6.8867 H   0  0  0  0  0  0  0  0  0  0  0  0
    2.2814   27.1536    8.2980 H   0  0  0  0  0  0  0  0  0  0  0  0
    3.2538   29.8566    5.9828 H   0  0  0  0  0  0  0  0  0  0  0  0
    4.1808   28.0381    8.1983 H   0  0  0  0  0  0  0  0  0  0  0  0
    5.2372   29.1041    7.2112 H   0  0  0  0  0  0  0  0  0  0  0  0
    4.2712   25.7904    7.7214 H   0  0  0  0  0  0  0  0  0  0  0  0
    4.7220   23.9589    6.0997 H   0  0  0  0  0  0  0  0  0  0  0  0
    5.3536   26.7160    3.0169 H   0  0  0  0  0  0  0  0  0  0  0  0
    4.8695   28.6109    4.5348 H   0  0  0  0  0  0  0  0  0  0  0  0
    0.2897   25.5474    8.2204 H   0  0  0  0  0  0  0  0  0  0  0  0
   -0.4043   23.5930    9.5764 H   0  0  0  0  0  0  0  0  0  0  0  0
   -1.0199   23.9115   11.9536 H   0  0  0  0  0  0  0  0  0  0  0  0
   -0.8562   26.1379   13.0074 H   0  0  0  0  0  0  0  0  0  0  0  0
  1  2  2  0  0  0  0
  1  5  1  0  0  0  0
  1 25  1  0  0  0  0
  2  3  1  0  0  0  0
  2  6  1  0  0  0  0
  3  4  1  0  0  0  0
  3  9  1  0  0  0  0
  4  5  2  0  0  0  0
  5 26  1  0  0  0  0
  6  7  2  0  0  0  0
  7  8  1  0  0  0  0
  7 11  1  0  0  0  0
  8  9  2  0  0  0  0
  8 27  1  0  0  0  0
  9 10  1  0  0  0  0
 10 12  1  0  0  0  0
 10 28  1  0  0  0  0
 11 19  2  0  0  0  0
 11 23  1  0  0  0  0
 12 13  1  0  0  0  0
 12 29  1  0  0  0  0
 12 30  1  0  0  0  0
 13 14  2  0  0  0  0
 13 18  1  0  0  0  0
 14 15  1  0  0  0  0
 14 31  1  0  0  0  0
 15 16  2  0  0  0  0
 15 32  1  0  0  0  0
 16 17  1  0  0  0  0
 17 18  2  0  0  0  0
 17 33  1  0  0  0  0
 18 34  1  0  0  0  0
 19 20  1  0  0  0  0
 19 35  1  0  0  0  0
 20 21  2  0  0  0  0
 20 36  1  0  0  0  0
 21 22  1  0  0  0  0
 21 37  1  0  0  0  0
 22 23  2  0  0  0  0
 22 38  1  0  0  0  0
 23 24  1  0  0  0  0
M  END
