2r3j_ligand
 OpenBabel08222323343D

 38 41  0  0  0  0  0  0  0  0999 V2000
   -0.2650   32.0710    8.5400 C   0  0  0  0  0  0  0  0  0  0  0  0
    0.2890   30.8530    8.8530 C   0  0  0  0  0  0  0  0  0  0  0  0
    1.4490   30.7730    8.1420 N   0  0  0  0  0  0  0  0  0  0  0  0
    1.6550   31.9170    7.3860 N   0  0  0  0  0  0  0  0  0  0  0  0
    0.6190   32.7020    7.6570 C   0  0  0  0  0  0  0  0  0  0  0  0
   -0.1960   29.8790    9.6960 N   0  0  0  0  0  0  0  0  0  0  0  0
    0.5330   28.7870    9.8010 C   0  0  0  0  0  0  0  0  0  0  0  0
    1.7580   28.6500    9.0780 C   0  0  0  0  0  0  0  0  0  0  0  0
    2.2420   29.6580    8.2470 C   0  0  0  0  0  0  0  0  0  0  0  0
    3.4080   29.6340    7.5070 N   0  0  0  0  0  0  0  0  0  0  0  0
    0.0480   27.7290   10.6980 C   0  0  0  0  0  0  0  0  0  0  0  0
    4.4700   28.6680    7.8500 C   0  0  0  0  0  0  0  0  0  0  0  0
    4.6130   27.6790    6.7200 C   0  0  0  0  0  0  0  0  0  0  0  0
    4.5850   26.2910    6.9300 C   0  0  0  0  0  0  0  0  0  0  0  0
    4.7050   25.3750    5.9610 N   0  0  0  0  0  0  0  0  0  0  0  0
    4.8670   25.8290    4.7140 C   0  0  0  0  0  0  0  0  0  0  0  0
    4.9280   27.1820    4.3920 C   0  0  0  0  0  0  0  0  0  0  0  0
    4.7860   28.1190    5.4110 C   0  0  0  0  0  0  0  0  0  0  0  0
   -0.4940   28.0580   11.9460 C   0  0  0  0  0  0  0  0  0  0  0  0
   -0.9570   27.0610   12.8220 C   0  0  0  0  0  0  0  0  0  0  0  0
   -0.8640   25.7210   12.4640 C   0  0  0  0  0  0  0  0  0  0  0  0
   -0.3000   25.3730   11.2320 C   0  0  0  0  0  0  0  0  0  0  0  0
    0.1480   26.3680   10.3580 C   0  0  0  0  0  0  0  0  0  0  0  0
   -1.8400   32.7670    9.2150 Br  0  0  0  0  0  0  0  0  0  0  0  0
    0.4764   33.7011    7.2479 H   0  0  0  0  0  0  0  0  0  0  0  0
    2.3308   27.7294    9.1797 H   0  0  0  0  0  0  0  0  0  0  0  0
    3.5357   30.2865    6.7203 H   0  0  0  0  0  0  0  0  0  0  0  0
    4.2011   28.1362    8.7746 H   0  0  0  0  0  0  0  0  0  0  0  0
    5.4209   29.2011    7.9969 H   0  0  0  0  0  0  0  0  0  0  0  0
    4.4575   25.9367    7.9465 H   0  0  0  0  0  0  0  0  0  0  0  0
    4.9555   25.1056    3.9115 H   0  0  0  0  0  0  0  0  0  0  0  0
    5.0831   27.4995    3.3672 H   0  0  0  0  0  0  0  0  0  0  0  0
    4.8099   29.1795    5.1878 H   0  0  0  0  0  0  0  0  0  0  0  0
   -0.5577   29.0989   12.2418 H   0  0  0  0  0  0  0  0  0  0  0  0
   -1.3871   27.3374   13.7779 H   0  0  0  0  0  0  0  0  0  0  0  0
   -1.2262   24.9507   13.1352 H   0  0  0  0  0  0  0  0  0  0  0  0
   -0.2101   24.3290   10.9543 H   0  0  0  0  0  0  0  0  0  0  0  0
    0.5789   26.0863    9.4040 H   0  0  0  0  0  0  0  0  0  0  0  0
  1  2  2  0  0  0  0
  1  5  1  0  0  0  0
  1 24  1  0  0  0  0
  2  3  1  0  0  0  0
  2  6  1  0  0  0  0
  3  4  1  0  0  0  0
  3  9  1  0  0  0  0
  4  5  2  0  0  0  0
  5 25  1  0  0  0  0
  6  7  2  0  0  0  0
  7  8  1  0  0  0  0
  7 11  1  0  0  0  0
  8  9  2  0  0  0  0
  8 26  1  0  0  0  0
  9 10  1  0  0  0  0
 10 12  1  0  0  0  0
 10 27  1  0  0  0  0
 11 19  2  0  0  0  0
 11 23  1  0  0  0  0
 12 13  1  0  0  0  0
 12 28  1  0  0  0  0
 12 29  1  0  0  0  0
 13 14  2  0  0  0  0
 13 18  1  0  0  0  0
 14 15  1  0  0  0  0
 14 30  1  0  0  0  0
 15 16  2  0  0  0  0
 16 17  1  0  0  0  0
 16 31  1  0  0  0  0
 17 18  2  0  0  0  0
 17 32  1  0  0  0  0
 18 33  1  0  0  0  0
 19 20  1  0  0  0  0
 19 34  1  0  0  0  0
 20 21  2  0  0  0  0
 20 35  1  0  0  0  0
 21 22  1  0  0  0  0
 21 36  1  0  0  0  0
 22 23  2  0  0  0  0
 22 37  1  0  0  0  0
 23 38  1  0  0  0  0
M  END
