2r3l_ligand
 OpenBabel08222323343D

 38 41  0  0  0  0  0  0  0  0999 V2000
   -0.2380   32.4840    8.9900 C   0  0  0  0  0  0  0  0  0  0  0  0
    0.3290   31.2830    9.2310 N   0  0  0  0  0  0  0  0  0  0  0  0
    1.4830   31.2310    8.5100 C   0  0  0  0  0  0  0  0  0  0  0  0
    1.6860   32.3760    7.7960 N   0  0  0  0  0  0  0  0  0  0  0  0
    0.6140   33.1620    8.1100 C   0  0  0  0  0  0  0  0  0  0  0  0
   -0.1050   30.2270   10.0320 C   0  0  0  0  0  0  0  0  0  0  0  0
    0.6450   29.0810   10.1100 C   0  0  0  0  0  0  0  0  0  0  0  0
    1.8580   28.9920    9.3700 C   0  0  0  0  0  0  0  0  0  0  0  0
    2.3060   30.0460    8.5660 C   0  0  0  0  0  0  0  0  0  0  0  0
    3.4780   30.0760    7.8630 N   0  0  0  0  0  0  0  0  0  0  0  0
    0.2280   27.9800   11.0170 C   0  0  0  0  0  0  0  0  0  0  0  0
    4.5170   29.0810    8.1980 C   0  0  0  0  0  0  0  0  0  0  0  0
    4.5630   28.0330    7.1280 C   0  0  0  0  0  0  0  0  0  0  0  0
    4.4060   26.6620    7.4060 C   0  0  0  0  0  0  0  0  0  0  0  0
    4.4410   25.7230    6.4390 N   0  0  0  0  0  0  0  0  0  0  0  0
    4.6710   26.1820    5.1890 C   0  0  0  0  0  0  0  0  0  0  0  0
    4.8420   27.4550    4.8090 N   0  0  0  0  0  0  0  0  0  0  0  0
    4.7840   28.3680    5.7850 C   0  0  0  0  0  0  0  0  0  0  0  0
   -0.3740   28.2700   12.2510 C   0  0  0  0  0  0  0  0  0  0  0  0
   -0.7540   27.2360   13.1210 C   0  0  0  0  0  0  0  0  0  0  0  0
   -0.5090   25.9080   12.7800 C   0  0  0  0  0  0  0  0  0  0  0  0
    0.1190   25.6050   11.5630 C   0  0  0  0  0  0  0  0  0  0  0  0
    0.4850   26.6340   10.6880 C   0  0  0  0  0  0  0  0  0  0  0  0
   -1.8380   33.0930    9.6980 Br  0  0  0  0  0  0  0  0  0  0  0  0
    0.4465   34.1691    7.7311 H   0  0  0  0  0  0  0  0  0  0  0  0
   -1.0347   30.3118   10.5928 H   0  0  0  0  0  0  0  0  0  0  0  0
    2.4518   28.0812    9.4312 H   0  0  0  0  0  0  0  0  0  0  0  0
    3.6322   30.7730    7.1205 H   0  0  0  0  0  0  0  0  0  0  0  0
    4.2775   28.6104    9.1630 H   0  0  0  0  0  0  0  0  0  0  0  0
    5.4951   29.5798    8.2659 H   0  0  0  0  0  0  0  0  0  0  0  0
    4.2517   26.3505    8.4327 H   0  0  0  0  0  0  0  0  0  0  0  0
    4.7230   25.4353    4.4049 H   0  0  0  0  0  0  0  0  0  0  0  0
    4.9136   29.4126    5.5259 H   0  0  0  0  0  0  0  0  0  0  0  0
   -0.5471   29.3017   12.5349 H   0  0  0  0  0  0  0  0  0  0  0  0
   -1.2396   27.4718   14.0610 H   0  0  0  0  0  0  0  0  0  0  0  0
   -0.8028   25.1109   13.4533 H   0  0  0  0  0  0  0  0  0  0  0  0
    0.3210   24.5730   11.3000 H   0  0  0  0  0  0  0  0  0  0  0  0
    0.9704   26.3936    9.7490 H   0  0  0  0  0  0  0  0  0  0  0  0
  1  2  1  0  0  0  0
  1  5  2  0  0  0  0
  1 24  1  0  0  0  0
  2  3  1  0  0  0  0
  2  6  1  0  0  0  0
  3  4  2  0  0  0  0
  3  9  1  0  0  0  0
  4  5  1  0  0  0  0
  5 25  1  0  0  0  0
  6  7  2  0  0  0  0
  6 26  1  0  0  0  0
  7  8  1  0  0  0  0
  7 11  1  0  0  0  0
  8  9  2  0  0  0  0
  8 27  1  0  0  0  0
  9 10  1  0  0  0  0
 10 12  1  0  0  0  0
 10 28  1  0  0  0  0
 11 19  2  0  0  0  0
 11 23  1  0  0  0  0
 12 13  1  0  0  0  0
 12 29  1  0  0  0  0
 12 30  1  0  0  0  0
 13 14  2  0  0  0  0
 13 18  1  0  0  0  0
 14 15  1  0  0  0  0
 14 31  1  0  0  0  0
 15 16  2  0  0  0  0
 16 17  1  0  0  0  0
 16 32  1  0  0  0  0
 17 18  2  0  0  0  0
 18 33  1  0  0  0  0
 19 20  1  0  0  0  0
 19 34  1  0  0  0  0
 20 21  2  0  0  0  0
 20 35  1  0  0  0  0
 21 22  1  0  0  0  0
 21 36  1  0  0  0  0
 22 23  2  0  0  0  0
 22 37  1  0  0  0  0
 23 38  1  0  0  0  0
M  END
