2r3m_ligand
 OpenBabel08222323343D

 45 48  0  0  0  0  0  0  0  0999 V2000
   -0.6750   31.1570    8.2220 C   0  0  0  0  0  0  0  0  0  0  0  0
   -0.1090   29.9570    8.6070 C   0  0  0  0  0  0  0  0  0  0  0  0
    1.1270   29.8800    7.9750 N   0  0  0  0  0  0  0  0  0  0  0  0
    1.3770   30.9910    7.1940 N   0  0  0  0  0  0  0  0  0  0  0  0
    0.2940   31.7540    7.3650 C   0  0  0  0  0  0  0  0  0  0  0  0
   -0.5640   28.9690    9.4520 N   0  0  0  0  0  0  0  0  0  0  0  0
    0.2110   27.9490    9.6250 C   0  0  0  0  0  0  0  0  0  0  0  0
    1.5520   27.7780    8.9910 C   0  0  0  0  0  0  0  0  0  0  0  0
    1.9960   28.7820    8.1990 C   0  0  0  0  0  0  0  0  0  0  0  0
    3.2400   28.8300    7.5860 N   0  0  0  0  0  0  0  0  0  0  0  0
   -0.2180   26.8670   10.5410 C   0  0  0  0  0  0  0  0  0  0  0  0
    4.4410   28.0740    7.8790 C   0  0  0  0  0  0  0  0  0  0  0  0
    4.5400   26.8800    7.0050 C   0  0  0  0  0  0  0  0  0  0  0  0
    4.5030   25.6060    7.5170 C   0  0  0  0  0  0  0  0  0  0  0  0
    4.5570   24.4960    6.7580 N   0  0  0  0  0  0  0  0  0  0  0  0
    4.6320   24.6840    5.4280 C   0  0  0  0  0  0  0  0  0  0  0  0
    4.6710   25.8800    4.8190 N   0  0  0  0  0  0  0  0  0  0  0  0
    4.6060   26.9530    5.6180 C   0  0  0  0  0  0  0  0  0  0  0  0
   -0.3360   27.1440   11.9000 C   0  0  0  0  0  0  0  0  0  0  0  0
   -0.7560   26.1690   12.8100 C   0  0  0  0  0  0  0  0  0  0  0  0
   -1.0380   24.8760   12.3640 C   0  0  0  0  0  0  0  0  0  0  0  0
   -0.9130   24.5770   11.0080 C   0  0  0  0  0  0  0  0  0  0  0  0
   -0.5110   25.5750   10.1050 C   0  0  0  0  0  0  0  0  0  0  0  0
   -1.9940   31.7000    8.6330 C   0  0  0  0  0  0  0  0  0  0  0  0
    4.6680   23.5820    4.6420 N   0  0  0  0  0  0  0  0  0  0  0  0
   -3.1350   30.7520    8.3120 C   0  0  0  0  0  0  0  0  0  0  0  0
   -0.0790   28.3540   12.3720 F   0  0  0  0  0  0  0  0  0  0  0  0
   -0.4140   25.2420    8.8070 F   0  0  0  0  0  0  0  0  0  0  0  0
    0.1653   32.7296    6.8985 H   0  0  0  0  0  0  0  0  0  0  0  0
    2.1483   26.8824    9.1589 H   0  0  0  0  0  0  0  0  0  0  0  0
    3.3216   29.5012    6.8090 H   0  0  0  0  0  0  0  0  0  0  0  0
    4.4155   27.7501    8.9299 H   0  0  0  0  0  0  0  0  0  0  0  0
    5.3195   28.7150    7.7141 H   0  0  0  0  0  0  0  0  0  0  0  0
    4.4261   25.4881    8.5918 H   0  0  0  0  0  0  0  0  0  0  0  0
    4.6048   27.9342    5.1571 H   0  0  0  0  0  0  0  0  0  0  0  0
   -0.8625   26.4164   13.8600 H   0  0  0  0  0  0  0  0  0  0  0  0
   -1.3513   24.1116   13.0659 H   0  0  0  0  0  0  0  0  0  0  0  0
   -1.1257   23.5758   10.6511 H   0  0  0  0  0  0  0  0  0  0  0  0
   -2.1650   32.6500    8.1055 H   0  0  0  0  0  0  0  0  0  0  0  0
   -1.9793   31.8805    9.7180 H   0  0  0  0  0  0  0  0  0  0  0  0
    4.6402   22.6446    5.0678 H   0  0  0  0  0  0  0  0  0  0  0  0
    4.7232   23.6812    3.6183 H   0  0  0  0  0  0  0  0  0  0  0  0
   -4.0861   31.2002    8.6354 H   0  0  0  0  0  0  0  0  0  0  0  0
   -2.9801   29.7997    8.8402 H   0  0  0  0  0  0  0  0  0  0  0  0
   -3.1658   30.5691    7.2278 H   0  0  0  0  0  0  0  0  0  0  0  0
  1  2  2  0  0  0  0
  1  5  1  0  0  0  0
  1 24  1  0  0  0  0
  2  3  1  0  0  0  0
  2  6  1  0  0  0  0
  3  4  1  0  0  0  0
  3  9  1  0  0  0  0
  4  5  2  0  0  0  0
  5 29  1  0  0  0  0
  6  7  2  0  0  0  0
  7  8  1  0  0  0  0
  7 11  1  0  0  0  0
  8  9  2  0  0  0  0
  8 30  1  0  0  0  0
  9 10  1  0  0  0  0
 10 12  1  0  0  0  0
 10 31  1  0  0  0  0
 11 19  2  0  0  0  0
 11 23  1  0  0  0  0
 12 13  1  0  0  0  0
 12 32  1  0  0  0  0
 12 33  1  0  0  0  0
 13 14  2  0  0  0  0
 13 18  1  0  0  0  0
 14 15  1  0  0  0  0
 14 34  1  0  0  0  0
 15 16  2  0  0  0  0
 16 17  1  0  0  0  0
 16 25  1  0  0  0  0
 17 18  2  0  0  0  0
 18 35  1  0  0  0  0
 19 20  1  0  0  0  0
 19 27  1  0  0  0  0
 20 21  2  0  0  0  0
 20 36  1  0  0  0  0
 21 22  1  0  0  0  0
 21 37  1  0  0  0  0
 22 23  2  0  0  0  0
 22 38  1  0  0  0  0
 23 28  1  0  0  0  0
 24 26  1  0  0  0  0
 24 39  1  0  0  0  0
 24 40  1  0  0  0  0
 25 41  1  0  0  0  0
 25 42  1  0  0  0  0
 26 43  1  0  0  0  0
 26 44  1  0  0  0  0
 26 45  1  0  0  0  0
M  END
