2r3n_ligand
 OpenBabel08222323343D

 45 49  0  0  0  0  0  0  0  0999 V2000
   -0.1700   30.5250    8.2710 C   0  0  0  0  0  0  0  0  0  0  0  0
    0.5290   29.3480    8.5070 C   0  0  0  0  0  0  0  0  0  0  0  0
    1.7200   29.4750    7.7820 N   0  0  0  0  0  0  0  0  0  0  0  0
    1.7760   30.6710    7.0870 N   0  0  0  0  0  0  0  0  0  0  0  0
    0.6430   31.2910    7.4170 C   0  0  0  0  0  0  0  0  0  0  0  0
    0.2670   28.2140    9.2250 N   0  0  0  0  0  0  0  0  0  0  0  0
    1.2050   27.2610    9.2090 C   0  0  0  0  0  0  0  0  0  0  0  0
    2.4650   27.3180    8.4680 C   0  0  0  0  0  0  0  0  0  0  0  0
    2.7000   28.4550    7.7780 C   0  0  0  0  0  0  0  0  0  0  0  0
    3.8180   28.6980    7.0510 N   0  0  0  0  0  0  0  0  0  0  0  0
    0.9730   26.0060    9.9700 C   0  0  0  0  0  0  0  0  0  0  0  0
    5.0880   27.9970    7.0580 C   0  0  0  0  0  0  0  0  0  0  0  0
    5.1230   26.8410    6.0960 C   0  0  0  0  0  0  0  0  0  0  0  0
    5.1070   27.0660    4.7330 C   0  0  0  0  0  0  0  0  0  0  0  0
    5.1780   26.0770    3.7970 N   0  0  0  0  0  0  0  0  0  0  0  0
    5.2540   24.8120    4.2580 C   0  0  0  0  0  0  0  0  0  0  0  0
    5.2490   24.4800    5.6030 C   0  0  0  0  0  0  0  0  0  0  0  0
    5.1790   25.5120    6.5360 C   0  0  0  0  0  0  0  0  0  0  0  0
   -0.3180   25.7130   10.3910 C   0  0  0  0  0  0  0  0  0  0  0  0
   -0.5890   24.5440   11.1080 C   0  0  0  0  0  0  0  0  0  0  0  0
    0.4480   23.6800   11.4450 C   0  0  0  0  0  0  0  0  0  0  0  0
    1.7570   23.9690   11.0290 C   0  0  0  0  0  0  0  0  0  0  0  0
    2.0210   25.1330   10.2880 C   0  0  0  0  0  0  0  0  0  0  0  0
   -1.5310   30.9660    8.7550 C   0  0  0  0  0  0  0  0  0  0  0  0
   -2.5240   29.9570    9.2420 C   0  0  0  0  0  0  0  0  0  0  0  0
   -1.8880   30.9270   10.2160 C   0  0  0  0  0  0  0  0  0  0  0  0
    0.3754   32.2854    7.0627 H   0  0  0  0  0  0  0  0  0  0  0  0
    3.1732   26.4907    8.4725 H   0  0  0  0  0  0  0  0  0  0  0  0
    3.7570   29.4943    6.4006 H   0  0  0  0  0  0  0  0  0  0  0  0
    5.2726   27.6149    8.0728 H   0  0  0  0  0  0  0  0  0  0  0  0
    5.8823   28.7066    6.7832 H   0  0  0  0  0  0  0  0  0  0  0  0
    5.0336   28.0906    4.3868 H   0  0  0  0  0  0  0  0  0  0  0  0
    5.3230   24.0081    3.5340 H   0  0  0  0  0  0  0  0  0  0  0  0
    5.2982   23.4448    5.9209 H   0  0  0  0  0  0  0  0  0  0  0  0
    5.1679   25.2881    7.5966 H   0  0  0  0  0  0  0  0  0  0  0  0
   -1.1250   26.3992   10.1607 H   0  0  0  0  0  0  0  0  0  0  0  0
   -1.6063   24.3109   11.4012 H   0  0  0  0  0  0  0  0  0  0  0  0
    0.2460   22.7876   12.0263 H   0  0  0  0  0  0  0  0  0  0  0  0
    2.5660   23.2926   11.2800 H   0  0  0  0  0  0  0  0  0  0  0  0
    3.0314   25.3545    9.9638 H   0  0  0  0  0  0  0  0  0  0  0  0
   -1.8726   31.8110    8.1391 H   0  0  0  0  0  0  0  0  0  0  0  0
   -2.2551   28.8908    9.2727 H   0  0  0  0  0  0  0  0  0  0  0  0
   -3.5870   30.0596    8.9784 H   0  0  0  0  0  0  0  0  0  0  0  0
   -2.4872   31.7361   10.6591 H   0  0  0  0  0  0  0  0  0  0  0  0
   -1.1553   30.5673   10.9534 H   0  0  0  0  0  0  0  0  0  0  0  0
  1  2  2  0  0  0  0
  1  5  1  0  0  0  0
  1 24  1  0  0  0  0
  2  3  1  0  0  0  0
  2  6  1  0  0  0  0
  3  4  1  0  0  0  0
  3  9  1  0  0  0  0
  4  5  2  0  0  0  0
  5 27  1  0  0  0  0
  6  7  2  0  0  0  0
  7  8  1  0  0  0  0
  7 11  1  0  0  0  0
  8  9  2  0  0  0  0
  8 28  1  0  0  0  0
  9 10  1  0  0  0  0
 10 12  1  0  0  0  0
 10 29  1  0  0  0  0
 11 19  2  0  0  0  0
 11 23  1  0  0  0  0
 12 13  1  0  0  0  0
 12 30  1  0  0  0  0
 12 31  1  0  0  0  0
 13 14  2  0  0  0  0
 13 18  1  0  0  0  0
 14 15  1  0  0  0  0
 14 32  1  0  0  0  0
 15 16  2  0  0  0  0
 16 17  1  0  0  0  0
 16 33  1  0  0  0  0
 17 18  2  0  0  0  0
 17 34  1  0  0  0  0
 18 35  1  0  0  0  0
 19 20  1  0  0  0  0
 19 36  1  0  0  0  0
 20 21  2  0  0  0  0
 20 37  1  0  0  0  0
 21 22  1  0  0  0  0
 21 38  1  0  0  0  0
 22 23  2  0  0  0  0
 22 39  1  0  0  0  0
 23 40  1  0  0  0  0
 24 25  1  0  0  0  0
 24 26  1  0  0  0  0
 24 41  1  0  0  0  0
 25 26  1  0  0  0  0
 25 42  1  0  0  0  0
 25 43  1  0  0  0  0
 26 44  1  0  0  0  0
 26 45  1  0  0  0  0
M  END
