2r3p_ligand
 OpenBabel08222323343D

 40 43  0  0  0  0  0  0  0  0999 V2000
   -0.5810   31.1270    8.0390 C   0  0  0  0  0  0  0  0  0  0  0  0
   -0.0020   29.9290    8.3680 C   0  0  0  0  0  0  0  0  0  0  0  0
    1.2540   29.9240    7.7520 N   0  0  0  0  0  0  0  0  0  0  0  0
    1.4920   31.0930    7.0480 N   0  0  0  0  0  0  0  0  0  0  0  0
    0.3720   31.8130    7.2310 C   0  0  0  0  0  0  0  0  0  0  0  0
   -0.4570   28.8830    9.1120 N   0  0  0  0  0  0  0  0  0  0  0  0
    0.3260   27.8810    9.2430 C   0  0  0  0  0  0  0  0  0  0  0  0
    1.6890   27.7740    8.6560 C   0  0  0  0  0  0  0  0  0  0  0  0
    2.1180   28.8340    7.9120 C   0  0  0  0  0  0  0  0  0  0  0  0
    3.3520   28.9230    7.2900 N   0  0  0  0  0  0  0  0  0  0  0  0
   -0.0920   26.7310   10.0770 C   0  0  0  0  0  0  0  0  0  0  0  0
    4.5130   28.1090    7.5410 C   0  0  0  0  0  0  0  0  0  0  0  0
    4.5340   26.9870    6.5510 C   0  0  0  0  0  0  0  0  0  0  0  0
    4.6210   27.2420    5.1860 C   0  0  0  0  0  0  0  0  0  0  0  0
    4.6350   26.1670    4.3250 C   0  0  0  0  0  0  0  0  0  0  0  0
    4.5740   24.8620    4.7160 N   0  0  0  0  0  0  0  0  0  0  0  0
    4.4890   24.6380    6.0300 C   0  0  0  0  0  0  0  0  0  0  0  0
    4.4700   25.6540    6.9830 C   0  0  0  0  0  0  0  0  0  0  0  0
   -0.3660   26.8890   11.4490 C   0  0  0  0  0  0  0  0  0  0  0  0
   -0.7420   25.7770   12.2100 C   0  0  0  0  0  0  0  0  0  0  0  0
   -0.8360   24.5290   11.6070 C   0  0  0  0  0  0  0  0  0  0  0  0
   -0.5690   24.3790   10.2520 C   0  0  0  0  0  0  0  0  0  0  0  0
   -0.1860   25.4750    9.4780 C   0  0  0  0  0  0  0  0  0  0  0  0
   -2.1600   31.7240    8.5020 S   0  0  0  0  0  0  0  0  0  0  0  0
   -2.8430   30.3170    9.2150 C   0  0  0  0  0  0  0  0  0  0  0  0
   -3.2780   29.3170    9.7170 N   0  0  0  0  0  0  0  0  0  0  0  0
   -0.2490   28.4220   12.1690 Cl  0  0  0  0  0  0  0  0  0  0  0  0
   -1.0860   25.8570   13.9010 Cl  0  0  0  0  0  0  0  0  0  0  0  0
    0.2113   32.8048    6.8110 H   0  0  0  0  0  0  0  0  0  0  0  0
    2.3122   26.8947    8.8122 H   0  0  0  0  0  0  0  0  0  0  0  0
    3.4502   29.6515    6.5685 H   0  0  0  0  0  0  0  0  0  0  0  0
    4.4660   27.7015    8.5616 H   0  0  0  0  0  0  0  0  0  0  0  0
    5.4228   28.7174    7.4306 H   0  0  0  0  0  0  0  0  0  0  0  0
    4.6762   28.2575    4.8109 H   0  0  0  0  0  0  0  0  0  0  0  0
    4.6990   26.3726    3.2626 H   0  0  0  0  0  0  0  0  0  0  0  0
    4.4318   23.6113    6.3730 H   0  0  0  0  0  0  0  0  0  0  0  0
    4.4069   25.4187    8.0393 H   0  0  0  0  0  0  0  0  0  0  0  0
   -1.1198   23.6659   12.1982 H   0  0  0  0  0  0  0  0  0  0  0  0
   -0.6590   23.4017    9.7918 H   0  0  0  0  0  0  0  0  0  0  0  0
    0.0358   25.3518    8.4241 H   0  0  0  0  0  0  0  0  0  0  0  0
  1  2  2  0  0  0  0
  1  5  1  0  0  0  0
  1 24  1  0  0  0  0
  2  3  1  0  0  0  0
  2  6  1  0  0  0  0
  3  4  1  0  0  0  0
  3  9  1  0  0  0  0
  4  5  2  0  0  0  0
  5 29  1  0  0  0  0
  6  7  2  0  0  0  0
  7  8  1  0  0  0  0
  7 11  1  0  0  0  0
  8  9  2  0  0  0  0
  8 30  1  0  0  0  0
  9 10  1  0  0  0  0
 10 12  1  0  0  0  0
 10 31  1  0  0  0  0
 11 19  2  0  0  0  0
 11 23  1  0  0  0  0
 12 13  1  0  0  0  0
 12 32  1  0  0  0  0
 12 33  1  0  0  0  0
 13 14  2  0  0  0  0
 13 18  1  0  0  0  0
 14 15  1  0  0  0  0
 14 34  1  0  0  0  0
 15 16  2  0  0  0  0
 15 35  1  0  0  0  0
 16 17  1  0  0  0  0
 17 18  2  0  0  0  0
 17 36  1  0  0  0  0
 18 37  1  0  0  0  0
 19 20  1  0  0  0  0
 19 27  1  0  0  0  0
 20 21  2  0  0  0  0
 20 28  1  0  0  0  0
 21 22  1  0  0  0  0
 21 38  1  0  0  0  0
 22 23  2  0  0  0  0
 22 39  1  0  0  0  0
 23 40  1  0  0  0  0
 24 25  1  0  0  0  0
 25 26  3  0  0  0  0
M  END
