2r5b_ligand
 OpenBabel08222323343D

229235  0  0  1  0  0  0  0  0999 V2000
  -20.0330  -12.3940   18.0430 N   0  3  0  0  0  0  0  0  0  0  0  0
  -20.5160  -11.4260   17.0220 C   0  0  1  0  0  0  0  0  0  0  0  0
  -20.1870  -11.9320   15.6180 C   0  0  0  0  0  0  0  0  0  0  0  0
  -19.0120  -12.0290   15.2550 O   0  0  0  0  0  0  0  0  0  0  0  0
  -22.0170  -11.2010   17.1760 C   0  0  0  0  0  0  0  0  0  0  0  0
  -22.4780   -9.7710   16.8950 C   0  0  0  0  0  0  0  0  0  0  0  0
  -23.8960   -9.5520   17.4100 C   0  0  0  0  0  0  0  0  0  0  0  0
  -24.2630   -8.0700   17.4730 C   0  0  0  0  0  0  0  0  0  0  0  0
  -25.7260   -7.8430   17.7060 N   0  3  0  0  0  0  0  0  0  0  0  0
  -21.2230  -12.2610   14.8450 N   0  0  0  0  0  0  0  0  0  0  0  0
  -21.0700  -12.7390   13.4700 C   0  0  0  0  0  0  0  0  0  0  0  0
  -21.9450  -13.9420   13.1770 C   0  0  0  0  0  0  0  0  0  0  0  0
  -22.8220  -14.2770   13.9760 O   0  0  0  0  0  0  0  0  0  0  0  0
  -21.7180  -14.5670   12.0240 N   0  0  0  0  0  0  0  0  0  0  0  0
  -22.3810  -15.8240   11.6530 C   0  0  2  0  0  0  0  0  0  0  0  0
  -22.0190  -16.2290   10.2180 C   0  0  0  0  0  0  0  0  0  0  0  0
  -23.8910  -15.7540   11.7960 C   0  0  0  0  0  0  0  0  0  0  0  0
  -24.5260  -16.7320   12.1800 O   0  0  0  0  0  0  0  0  0  0  0  0
  -24.4490  -14.5910   11.4750 N   0  0  0  0  0  0  0  0  0  0  0  0
  -25.8980  -14.4240   11.3710 C   0  0  1  0  0  0  0  0  0  0  0  0
  -26.5730  -14.5730   12.7240 C   0  0  0  0  0  0  0  0  0  0  0  0
  -27.7460  -14.9220   12.7930 O   0  0  0  0  0  0  0  0  0  0  0  0
  -26.2320  -13.0700   10.7370 C   0  0  0  0  0  0  0  0  0  0  0  0
  -25.8290  -13.0460    8.9690 S   0  0  0  0  0  0  0  0  0  0  0  0
  -25.8040  -14.3510   13.7900 N   0  0  0  0  0  0  0  0  0  0  0  0
  -26.3010  -14.4230   15.1630 C   0  0  1  0  0  0  0  0  0  0  0  0
  -26.4170  -15.8410   15.7140 C   0  0  0  0  0  0  0  0  0  0  0  0
  -27.0590  -16.0470   16.7460 O   0  0  0  0  0  0  0  0  0  0  0  0
  -25.4150  -13.5890   16.0980 C   0  0  0  0  0  0  0  0  0  0  0  0
  -25.3380  -12.1510   15.6850 C   0  0  0  0  0  0  0  0  0  0  0  0
  -24.2850  -11.7360   15.1610 O   0  5  0  0  0  0  0  0  0  0  0  0
  -26.3280  -11.4220   15.8700 O   0  0  0  0  0  0  0  0  0  0  0  0
  -25.8000  -16.8050   15.0310 N   0  0  0  0  0  0  0  0  0  0  0  0
  -25.6890  -18.1660   15.5500 C   0  0  1  0  0  0  0  0  0  0  0  0
  -26.5240  -19.1350   14.7390 C   0  0  0  0  0  0  0  0  0  0  0  0
  -26.3330  -19.2520   13.5280 O   0  0  0  0  0  0  0  0  0  0  0  0
  -24.2200  -18.6540   15.5320 C   0  0  0  0  0  0  0  0  0  0  0  0
  -23.2580  -17.8250   16.3460 C   0  0  0  0  0  0  0  0  0  0  0  0
  -22.6830  -18.3280   17.5210 C   0  0  0  0  0  0  0  0  0  0  0  0
  -22.9200  -16.5400   15.9450 C   0  0  0  0  0  0  0  0  0  0  0  0
  -21.7870  -17.5550   18.2730 C   0  0  0  0  0  0  0  0  0  0  0  0
  -22.0400  -15.7640   16.6660 C   0  0  0  0  0  0  0  0  0  0  0  0
  -21.4750  -16.2660   17.8400 C   0  0  0  0  0  0  0  0  0  0  0  0
  -20.6050  -15.4640   18.5470 O   0  0  0  0  0  0  0  0  0  0  0  0
  -27.4190  -19.8740   15.4050 N   0  0  0  0  0  0  0  0  0  0  0  0
  -28.1690  -20.9290   14.7210 C   0  0  2  0  0  0  0  0  0  0  0  0
  -28.9790  -21.5940   15.8500 C   0  0  0  0  0  0  0  0  0  0  0  0
  -28.4130  -21.0880   17.1060 C   0  0  0  0  0  0  0  0  0  0  0  0
  -27.8010  -19.7570   16.8210 C   0  0  0  0  0  0  0  0  0  0  0  0
  -27.2580  -21.9550   14.0250 C   0  0  0  0  0  0  0  0  0  0  0  0
  -27.5910  -22.4130   12.9410 O   0  0  0  0  0  0  0  0  0  0  0  0
  -26.1260  -22.3040   14.6430 N   0  0  0  0  0  0  0  0  0  0  0  0
  -25.1920  -23.2950   14.0750 C   0  0  1  0  0  0  0  0  0  0  0  0
  -24.5160  -22.8300   12.7750 C   0  0  0  0  0  0  0  0  0  0  0  0
  -23.9410  -23.6550   12.0420 O   0  0  0  0  0  0  0  0  0  0  0  0
  -24.1010  -23.6700   15.0990 C   0  0  0  0  0  0  0  0  0  0  0  0
  -24.5160  -23.5150   16.5670 C   0  0  0  0  0  0  0  0  0  0  0  0
  -24.0520  -22.2030   17.1720 C   0  0  0  0  0  0  0  0  0  0  0  0
  -24.9190  -21.3400   17.4250 O   0  5  0  0  0  0  0  0  0  0  0  0
  -22.8220  -22.0400   17.3930 O   0  0  0  0  0  0  0  0  0  0  0  0
  -24.5390  -21.5210   12.5120 N   0  0  0  0  0  0  0  0  0  0  0  0
  -23.7830  -20.9460   11.3880 C   0  0  2  0  0  0  0  0  0  0  0  0
  -22.8440  -19.8420   11.8680 C   0  0  0  0  0  0  0  0  0  0  0  0
  -21.7140  -20.3520   12.6880 C   0  0  0  0  0  0  0  0  0  0  0  0
  -21.6160  -20.3510   14.0450 C   0  0  0  0  0  0  0  0  0  0  0  0
  -20.4120  -20.9300   14.4310 N   0  0  0  0  0  0  0  0  0  0  0  0
  -19.7150  -21.2960   13.3070 C   0  0  0  0  0  0  0  0  0  0  0  0
  -18.4550  -21.8990   13.1760 C   0  0  0  0  0  0  0  0  0  0  0  0
  -18.0060  -22.1690   11.8990 C   0  0  0  0  0  0  0  0  0  0  0  0
  -18.7690  -21.8520   10.7730 C   0  0  0  0  0  0  0  0  0  0  0  0
  -20.0270  -21.2560   10.9000 C   0  0  0  0  0  0  0  0  0  0  0  0
  -20.5110  -20.9660   12.1910 C   0  0  0  0  0  0  0  0  0  0  0  0
  -24.7220  -20.3690   10.3190 C   0  0  0  0  0  0  0  0  0  0  0  0
  -24.2980  -19.5960    9.4710 O   0  0  0  0  0  0  0  0  0  0  0  0
  -25.9940  -20.7350   10.3820 N   0  0  0  0  0  0  0  0  0  0  0  0
  -26.9830  -20.1870    9.4340 C   0  0  1  0  0  0  0  0  0  0  0  0
  -26.6220  -20.5010    7.9840 C   0  0  0  0  0  0  0  0  0  0  0  0
  -26.8500  -19.6870    7.1020 O   0  0  0  0  0  0  0  0  0  0  0  0
  -28.3980  -20.6730    9.7770 C   0  0  0  0  0  0  0  0  0  0  0  0
  -28.9650  -20.0180   11.0430 C   0  0  0  0  0  0  0  0  0  0  0  0
  -28.7720  -18.5150   11.0270 C   0  0  0  0  0  0  0  0  0  0  0  0
  -29.2190  -17.8270   10.1110 O   0  0  0  0  0  0  0  0  0  0  0  0
  -28.0740  -18.0020   12.0210 N   0  0  0  0  0  0  0  0  0  0  0  0
  -26.0270  -21.6660    7.7470 N   0  0  0  0  0  0  0  0  0  0  0  0
  -25.6650  -22.0700    6.3910 C   0  0  2  0  0  0  0  0  0  0  0  0
  -25.1710  -23.5310    6.3750 C   0  0  0  0  0  0  0  0  0  0  0  0
  -23.9450  -23.7070    7.2460 C   0  0  0  0  0  0  0  0  0  0  0  0
  -23.9250  -24.0320    8.5670 C   0  0  0  0  0  0  0  0  0  0  0  0
  -22.6140  -24.0610    9.0280 N   0  0  0  0  0  0  0  0  0  0  0  0
  -21.7720  -23.7600    7.9940 C   0  0  0  0  0  0  0  0  0  0  0  0
  -20.3770  -23.6520    7.9740 C   0  0  0  0  0  0  0  0  0  0  0  0
  -19.7790  -23.3080    6.7740 C   0  0  0  0  0  0  0  0  0  0  0  0
  -20.5420  -23.0740    5.6220 C   0  0  0  0  0  0  0  0  0  0  0  0
  -21.9400  -23.1800    5.6450 C   0  0  0  0  0  0  0  0  0  0  0  0
  -22.5710  -23.5070    6.8560 C   0  0  0  0  0  0  0  0  0  0  0  0
  -24.6060  -21.0990    5.8130 C   0  0  0  0  0  0  0  0  0  0  0  0
  -24.5800  -20.8440    4.6030 O   0  0  0  0  0  0  0  0  0  0  0  0
  -23.7550  -20.5630    6.6880 N   0  0  0  0  0  0  0  0  0  0  0  0
  -22.6410  -19.7110    6.2840 C   0  0  2  0  0  0  0  0  0  0  0  0
  -21.5260  -19.7380    7.3420 C   0  0  0  0  0  0  0  0  0  0  0  0
  -20.3020  -18.8230    7.1470 C   0  0  0  0  0  0  0  0  0  0  0  0
  -19.5860  -19.0420    5.7740 C   0  0  0  0  0  0  0  0  0  0  0  0
  -19.3430  -19.0380    8.3240 C   0  0  0  0  0  0  0  0  0  0  0  0
  -23.1330  -18.2980    6.0520 C   0  0  0  0  0  0  0  0  0  0  0  0
  -22.7820  -17.6640    5.0790 O   0  0  0  0  0  0  0  0  0  0  0  0
  -23.9890  -17.8280    6.9470 N   0  0  0  0  0  0  0  0  0  0  0  0
  -24.6640  -16.5570    6.7880 C   0  0  1  0  0  0  0  0  0  0  0  0
  -25.4100  -16.5390    5.4440 C   0  0  0  0  0  0  0  0  0  0  0  0
  -25.3860  -15.5440    4.7070 O   0  0  0  0  0  0  0  0  0  0  0  0
  -25.6340  -16.3790    7.9700 C   0  0  0  0  0  0  0  0  0  0  0  0
  -26.4200  -14.7920    8.0370 S   0  0  0  0  0  0  0  0  0  0  0  0
  -26.0670  -17.6470    5.1270 N   0  0  0  0  0  0  0  0  0  0  0  0
  -26.8540  -17.7750    3.8880 C   0  0  2  0  0  0  0  0  0  0  0  0
  -27.7160  -19.0380    3.9290 C   0  0  0  0  0  0  0  0  0  0  0  0
  -25.9750  -17.7580    2.6340 C   0  0  0  0  0  0  0  0  0  0  0  0
  -26.3520  -17.1570    1.6260 O   0  0  0  0  0  0  0  0  0  0  0  0
  -24.8040  -18.3940    2.7190 N   0  0  0  0  0  0  0  0  0  0  0  0
  -23.8130  -18.4220    1.6400 C   0  0  2  0  0  0  0  0  0  0  0  0
  -22.6140  -19.3550    2.0250 C   0  0  0  0  0  0  0  0  0  0  0  0
  -23.2970  -17.0270    1.2650 C   0  0  0  0  0  0  0  0  0  0  0  0
  -22.8940  -16.7930    0.1250 O   0  0  0  0  0  0  0  0  0  0  0  0
  -20.2554  -12.0499   18.9640 H   0  0  0  0  0  0  0  0  0  0  0  0
  -19.0346  -12.5028   17.9571 H   0  0  0  0  0  0  0  0  0  0  0  0
  -20.4817  -13.2852   17.8999 H   0  0  0  0  0  0  0  0  0  0  0  0
  -20.0014  -10.4663   17.1770 H   0  0  0  0  0  0  0  0  0  0  0  0
  -22.2980  -11.4554   18.2086 H   0  0  0  0  0  0  0  0  0  0  0  0
  -22.5381  -11.8728   16.4781 H   0  0  0  0  0  0  0  0  0  0  0  0
  -22.4559   -9.5909   15.8101 H   0  0  0  0  0  0  0  0  0  0  0  0
  -21.7984   -9.0670   17.3975 H   0  0  0  0  0  0  0  0  0  0  0  0
  -23.9766   -9.9804   18.4199 H   0  0  0  0  0  0  0  0  0  0  0  0
  -24.6004  -10.0634   16.7375 H   0  0  0  0  0  0  0  0  0  0  0  0
  -23.9815   -7.5975   16.5204 H   0  0  0  0  0  0  0  0  0  0  0  0
  -23.6998   -7.6031   18.2945 H   0  0  0  0  0  0  0  0  0  0  0  0
  -25.9113   -6.8527   17.7386 H   0  0  0  0  0  0  0  0  0  0  0  0
  -25.9963   -8.2643   18.5809 H   0  0  0  0  0  0  0  0  0  0  0  0
  -26.2544   -8.2592   16.9552 H   0  0  0  0  0  0  0  0  0  0  0  0
  -22.1456  -12.1774   15.2217 H   0  0  0  0  0  0  0  0  0  0  0  0
  -20.0186  -13.0188   13.3079 H   0  0  0  0  0  0  0  0  0  0  0  0
  -21.3437  -11.9266   12.7808 H   0  0  0  0  0  0  0  0  0  0  0  0
  -21.0669  -14.1627   11.3816 H   0  0  0  0  0  0  0  0  0  0  0  0
  -22.0143  -16.6065   12.3336 H   0  0  0  0  0  0  0  0  0  0  0  0
  -22.5265  -17.1713    9.9639 H   0  0  0  0  0  0  0  0  0  0  0  0
  -20.9304  -16.3660   10.1392 H   0  0  0  0  0  0  0  0  0  0  0  0
  -22.3406  -15.4401    9.5221 H   0  0  0  0  0  0  0  0  0  0  0  0
  -23.8580  -13.8038   11.2987 H   0  0  0  0  0  0  0  0  0  0  0  0
  -26.2851  -15.2149   10.7117 H   0  0  0  0  0  0  0  0  0  0  0  0
  -25.6539  -12.2847   11.2460 H   0  0  0  0  0  0  0  0  0  0  0  0
  -27.3070  -12.8727   10.8612 H   0  0  0  0  0  0  0  0  0  0  0  0
  -24.8411  -14.1244   13.6435 H   0  0  0  0  0  0  0  0  0  0  0  0
  -27.3102  -13.9853   15.1662 H   0  0  0  0  0  0  0  0  0  0  0  0
  -24.3997  -14.0123   16.0923 H   0  0  0  0  0  0  0  0  0  0  0  0
  -25.8286  -13.6418   17.1159 H   0  0  0  0  0  0  0  0  0  0  0  0
  -25.4022  -16.5907   14.1389 H   0  0  0  0  0  0  0  0  0  0  0  0
  -26.0513  -18.1691   16.5886 H   0  0  0  0  0  0  0  0  0  0  0  0
  -23.8731  -18.6508   14.4882 H   0  0  0  0  0  0  0  0  0  0  0  0
  -24.1981  -19.6821   15.9226 H   0  0  0  0  0  0  0  0  0  0  0  0
  -22.9345  -19.3288   17.8531 H   0  0  0  0  0  0  0  0  0  0  0  0
  -23.3603  -16.1365   15.0404 H   0  0  0  0  0  0  0  0  0  0  0  0
  -21.3429  -17.9533   19.1781 H   0  0  0  0  0  0  0  0  0  0  0  0
  -21.7869  -14.7672   16.3234 H   0  0  0  0  0  0  0  0  0  0  0  0
  -20.3005  -15.9304   19.3166 H   0  0  0  0  0  0  0  0  0  0  0  0
  -28.8424  -20.4886   13.9710 H   0  0  0  0  0  0  0  0  0  0  0  0
  -28.8786  -22.6882   15.7990 H   0  0  0  0  0  0  0  0  0  0  0  0
  -30.0412  -21.3191   15.7714 H   0  0  0  0  0  0  0  0  0  0  0  0
  -27.6449  -21.7821   17.4779 H   0  0  0  0  0  0  0  0  0  0  0  0
  -29.2073  -20.9820   17.8596 H   0  0  0  0  0  0  0  0  0  0  0  0
  -28.5287  -18.9457   16.9699 H   0  0  0  0  0  0  0  0  0  0  0  0
  -26.9204  -19.5810   17.4563 H   0  0  0  0  0  0  0  0  0  0  0  0
  -25.9042  -21.8790   15.5206 H   0  0  0  0  0  0  0  0  0  0  0  0
  -25.7740  -24.1995   13.8445 H   0  0  0  0  0  0  0  0  0  0  0  0
  -23.2279  -23.0251   14.9204 H   0  0  0  0  0  0  0  0  0  0  0  0
  -23.8213  -24.7206   14.9317 H   0  0  0  0  0  0  0  0  0  0  0  0
  -24.0797  -24.3428   17.1452 H   0  0  0  0  0  0  0  0  0  0  0  0
  -25.6132  -23.5625   16.6293 H   0  0  0  0  0  0  0  0  0  0  0  0
  -25.0835  -20.9164   13.0933 H   0  0  0  0  0  0  0  0  0  0  0  0
  -23.1821  -21.7469   10.9325 H   0  0  0  0  0  0  0  0  0  0  0  0
  -23.4226  -19.1296   12.4743 H   0  0  0  0  0  0  0  0  0  0  0  0
  -22.4327  -19.3254   10.9883 H   0  0  0  0  0  0  0  0  0  0  0  0
  -22.3678  -19.9560   14.7267 H   0  0  0  0  0  0  0  0  0  0  0  0
  -20.0951  -21.0625   15.4020 H   0  0  0  0  0  0  0  0  0  0  0  0
  -17.8561  -22.1439   14.0457 H   0  0  0  0  0  0  0  0  0  0  0  0
  -17.0379  -22.6384   11.7669 H   0  0  0  0  0  0  0  0  0  0  0  0
  -18.3797  -22.0715    9.7854 H   0  0  0  0  0  0  0  0  0  0  0  0
  -20.6186  -21.0215   10.0224 H   0  0  0  0  0  0  0  0  0  0  0  0
  -26.2867  -21.3894   11.0792 H   0  0  0  0  0  0  0  0  0  0  0  0
  -26.9729  -19.0926    9.5440 H   0  0  0  0  0  0  0  0  0  0  0  0
  -28.3676  -21.7620    9.9291 H   0  0  0  0  0  0  0  0  0  0  0  0
  -29.0635  -20.4390    8.9330 H   0  0  0  0  0  0  0  0  0  0  0  0
  -28.4508  -20.4347   11.9216 H   0  0  0  0  0  0  0  0  0  0  0  0
  -30.0405  -20.2392   11.1085 H   0  0  0  0  0  0  0  0  0  0  0  0
  -27.9142  -17.0157   12.0630 H   0  0  0  0  0  0  0  0  0  0  0  0
  -27.7044  -18.5992   12.7329 H   0  0  0  0  0  0  0  0  0  0  0  0
  -25.8234  -22.2773    8.5118 H   0  0  0  0  0  0  0  0  0  0  0  0
  -26.5642  -22.0089    5.7604 H   0  0  0  0  0  0  0  0  0  0  0  0
  -24.9199  -23.8130    5.3419 H   0  0  0  0  0  0  0  0  0  0  0  0
  -25.9729  -24.1845    6.7490 H   0  0  0  0  0  0  0  0  0  0  0  0
  -24.8056  -24.2388    9.1733 H   0  0  0  0  0  0  0  0  0  0  0  0
  -22.3238  -24.2748    9.9929 H   0  0  0  0  0  0  0  0  0  0  0  0
  -19.7865  -23.8311    8.8653 H   0  0  0  0  0  0  0  0  0  0  0  0
  -18.6999  -23.2179    6.7243 H   0  0  0  0  0  0  0  0  0  0  0  0
  -20.0430  -22.8066    4.6976 H   0  0  0  0  0  0  0  0  0  0  0  0
  -22.5220  -23.0128    4.7459 H   0  0  0  0  0  0  0  0  0  0  0  0
  -23.8853  -20.7525    7.6612 H   0  0  0  0  0  0  0  0  0  0  0  0
  -22.2304  -20.0967    5.3392 H   0  0  0  0  0  0  0  0  0  0  0  0
  -21.1531  -20.7716    7.3938 H   0  0  0  0  0  0  0  0  0  0  0  0
  -21.9849  -19.4650    8.3037 H   0  0  0  0  0  0  0  0  0  0  0  0
  -20.6506  -17.7800    7.1726 H   0  0  0  0  0  0  0  0  0  0  0  0
  -18.7247  -18.3621    5.6971 H   0  0  0  0  0  0  0  0  0  0  0  0
  -20.2911  -18.8346    4.9556 H   0  0  0  0  0  0  0  0  0  0  0  0
  -19.2385  -20.0833    5.7036 H   0  0  0  0  0  0  0  0  0  0  0  0
  -19.8810  -18.8757    9.2696 H   0  0  0  0  0  0  0  0  0  0  0  0
  -18.5073  -18.3265    8.2508 H   0  0  0  0  0  0  0  0  0  0  0  0
  -18.9528  -20.0661    8.2960 H   0  0  0  0  0  0  0  0  0  0  0  0
  -24.1764  -18.3724    7.7646 H   0  0  0  0  0  0  0  0  0  0  0  0
  -23.9254  -15.7419    6.7988 H   0  0  0  0  0  0  0  0  0  0  0  0
  -25.0699  -16.5235    8.9032 H   0  0  0  0  0  0  0  0  0  0  0  0
  -26.4168  -17.1479    7.8919 H   0  0  0  0  0  0  0  0  0  0  0  0
  -26.0265  -18.4256    5.7533 H   0  0  0  0  0  0  0  0  0  0  0  0
  -27.5280  -16.9075    3.8316 H   0  0  0  0  0  0  0  0  0  0  0  0
  -28.2955  -19.1168    2.9974 H   0  0  0  0  0  0  0  0  0  0  0  0
  -28.4042  -18.9846    4.7855 H   0  0  0  0  0  0  0  0  0  0  0  0
  -27.0682  -19.9208    4.0336 H   0  0  0  0  0  0  0  0  0  0  0  0
  -24.5912  -18.8788    3.5673 H   0  0  0  0  0  0  0  0  0  0  0  0
  -24.3032  -18.8449    0.7507 H   0  0  0  0  0  0  0  0  0  0  0  0
  -21.8798  -19.3653    1.2060 H   0  0  0  0  0  0  0  0  0  0  0  0
  -22.9848  -20.3761    2.1979 H   0  0  0  0  0  0  0  0  0  0  0  0
  -22.1359  -18.9784    2.9413 H   0  0  0  0  0  0  0  0  0  0  0  0
  -23.2847  -16.0613    2.1794 O   0  0  0  0  0  0  0  0  0  0  0  0
  -23.6240  -16.3992    2.9998 H   0  0  0  0  0  0  0  0  0  0  0  0
  1  2  1  0  0  0  0
  1122  1  0  0  0  0
  1123  1  0  0  0  0
  1124  1  0  0  0  0
  2  3  1  0  0  0  0
  2  5  1  0  0  0  0
  2125  1  1  0  0  0
  3  4  2  0  0  0  0
  3 10  1  0  0  0  0
  5  6  1  0  0  0  0
  5126  1  0  0  0  0
  5127  1  0  0  0  0
  6  7  1  0  0  0  0
  6128  1  0  0  0  0
  6129  1  0  0  0  0
  7  8  1  0  0  0  0
  7130  1  0  0  0  0
  7131  1  0  0  0  0
  8  9  1  0  0  0  0
  8132  1  0  0  0  0
  8133  1  0  0  0  0
  9134  1  0  0  0  0
  9135  1  0  0  0  0
  9136  1  0  0  0  0
 10 11  1  0  0  0  0
 10137  1  0  0  0  0
 11 12  1  0  0  0  0
 11138  1  0  0  0  0
 11139  1  0  0  0  0
 12 13  2  0  0  0  0
 12 14  1  0  0  0  0
 14 15  1  0  0  0  0
 14140  1  0  0  0  0
 15 16  1  0  0  0  0
 15 17  1  0  0  0  0
 15141  1  1  0  0  0
 16142  1  0  0  0  0
 16143  1  0  0  0  0
 16144  1  0  0  0  0
 17 18  2  0  0  0  0
 17 19  1  0  0  0  0
 19 20  1  0  0  0  0
 19145  1  0  0  0  0
 20 21  1  0  0  0  0
 20 23  1  0  0  0  0
 20146  1  6  0  0  0
 21 22  2  0  0  0  0
 21 25  1  0  0  0  0
 23 24  1  0  0  0  0
 23147  1  0  0  0  0
 23148  1  0  0  0  0
 24111  1  0  0  0  0
 25 26  1  0  0  0  0
 25149  1  0  0  0  0
 26 27  1  0  0  0  0
 26 29  1  0  0  0  0
 26150  1  1  0  0  0
 27 28  2  0  0  0  0
 27 33  1  0  0  0  0
 29 30  1  0  0  0  0
 29151  1  0  0  0  0
 29152  1  0  0  0  0
 30 31  1  0  0  0  0
 30 32  2  0  0  0  0
 33 34  1  0  0  0  0
 33153  1  0  0  0  0
 34 35  1  0  0  0  0
 34 37  1  0  0  0  0
 34154  1  1  0  0  0
 35 36  2  0  0  0  0
 35 45  1  0  0  0  0
 37 38  1  0  0  0  0
 37155  1  0  0  0  0
 37156  1  0  0  0  0
 38 39  2  0  0  0  0
 38 40  1  0  0  0  0
 39 41  1  0  0  0  0
 39157  1  0  0  0  0
 40 42  2  0  0  0  0
 40158  1  0  0  0  0
 41 43  2  0  0  0  0
 41159  1  0  0  0  0
 42 43  1  0  0  0  0
 42160  1  0  0  0  0
 43 44  1  0  0  0  0
 44161  1  0  0  0  0
 45 46  1  0  0  0  0
 45 49  1  0  0  0  0
 46 47  1  0  0  0  0
 46 50  1  0  0  0  0
 46162  1  6  0  0  0
 47 48  1  0  0  0  0
 47163  1  0  0  0  0
 47164  1  0  0  0  0
 48 49  1  0  0  0  0
 48165  1  0  0  0  0
 48166  1  0  0  0  0
 49167  1  0  0  0  0
 49168  1  0  0  0  0
 50 51  2  0  0  0  0
 50 52  1  0  0  0  0
 52 53  1  0  0  0  0
 52169  1  0  0  0  0
 53 54  1  0  0  0  0
 53 56  1  0  0  0  0
 53170  1  6  0  0  0
 54 55  2  0  0  0  0
 54 61  1  0  0  0  0
 56 57  1  0  0  0  0
 56171  1  0  0  0  0
 56172  1  0  0  0  0
 57 58  1  0  0  0  0
 57173  1  0  0  0  0
 57174  1  0  0  0  0
 58 59  1  0  0  0  0
 58 60  2  0  0  0  0
 61 62  1  0  0  0  0
 61175  1  0  0  0  0
 62 63  1  0  0  0  0
 62 73  1  0  0  0  0
 62176  1  6  0  0  0
 63 64  1  0  0  0  0
 63177  1  0  0  0  0
 63178  1  0  0  0  0
 64 65  2  0  0  0  0
 64 72  1  0  0  0  0
 65 66  1  0  0  0  0
 65179  1  0  0  0  0
 66 67  1  0  0  0  0
 66180  1  0  0  0  0
 67 68  2  0  0  0  0
 67 72  1  0  0  0  0
 68 69  1  0  0  0  0
 68181  1  0  0  0  0
 69 70  2  0  0  0  0
 69182  1  0  0  0  0
 70 71  1  0  0  0  0
 70183  1  0  0  0  0
 71 72  2  0  0  0  0
 71184  1  0  0  0  0
 73 74  2  0  0  0  0
 73 75  1  0  0  0  0
 75 76  1  0  0  0  0
 75185  1  0  0  0  0
 76 77  1  0  0  0  0
 76 79  1  0  0  0  0
 76186  1  1  0  0  0
 77 78  2  0  0  0  0
 77 84  1  0  0  0  0
 79 80  1  0  0  0  0
 79187  1  0  0  0  0
 79188  1  0  0  0  0
 80 81  1  0  0  0  0
 80189  1  0  0  0  0
 80190  1  0  0  0  0
 81 82  2  0  0  0  0
 81 83  1  0  0  0  0
 83191  1  0  0  0  0
 83192  1  0  0  0  0
 84 85  1  0  0  0  0
 84193  1  0  0  0  0
 85 86  1  0  0  0  0
 85 96  1  0  0  0  0
 85194  1  6  0  0  0
 86 87  1  0  0  0  0
 86195  1  0  0  0  0
 86196  1  0  0  0  0
 87 88  2  0  0  0  0
 87 95  1  0  0  0  0
 88 89  1  0  0  0  0
 88197  1  0  0  0  0
 89 90  1  0  0  0  0
 89198  1  0  0  0  0
 90 91  2  0  0  0  0
 90 95  1  0  0  0  0
 91 92  1  0  0  0  0
 91199  1  0  0  0  0
 92 93  2  0  0  0  0
 92200  1  0  0  0  0
 93 94  1  0  0  0  0
 93201  1  0  0  0  0
 94 95  2  0  0  0  0
 94202  1  0  0  0  0
 96 97  2  0  0  0  0
 96 98  1  0  0  0  0
 98 99  1  0  0  0  0
 98203  1  0  0  0  0
 99100  1  0  0  0  0
 99104  1  0  0  0  0
 99204  1  6  0  0  0
100101  1  0  0  0  0
100205  1  0  0  0  0
100206  1  0  0  0  0
101102  1  0  0  0  0
101103  1  0  0  0  0
101207  1  0  0  0  0
102208  1  0  0  0  0
102209  1  0  0  0  0
102210  1  0  0  0  0
103211  1  0  0  0  0
103212  1  0  0  0  0
103213  1  0  0  0  0
104105  2  0  0  0  0
104106  1  0  0  0  0
106107  1  0  0  0  0
106214  1  0  0  0  0
107108  1  0  0  0  0
107110  1  0  0  0  0
107215  1  1  0  0  0
108109  2  0  0  0  0
108112  1  0  0  0  0
110111  1  0  0  0  0
110216  1  0  0  0  0
110217  1  0  0  0  0
112113  1  0  0  0  0
112218  1  0  0  0  0
113114  1  0  0  0  0
113115  1  0  0  0  0
113219  1  6  0  0  0
114220  1  0  0  0  0
114221  1  0  0  0  0
114222  1  0  0  0  0
115116  2  0  0  0  0
115117  1  0  0  0  0
117118  1  0  0  0  0
117223  1  0  0  0  0
118119  1  0  0  0  0
118120  1  0  0  0  0
118224  1  6  0  0  0
119225  1  0  0  0  0
119226  1  0  0  0  0
119227  1  0  0  0  0
120121  2  0  0  0  0
120228  1  0  0  0  0
228229  1  0  0  0  0
M  CHG  4   1   1   9   1  31  -1  59  -1
M  END
