2r64_ligand
 OpenBabel08222323343D

 59 63  0  0  0  0  0  0  0  0999 V2000
   21.7670   24.6660   31.7320 C   0  0  0  0  0  0  0  0  0  0  0  0
   22.0340   24.4640   30.3280 C   0  0  0  0  0  0  0  0  0  0  0  0
   22.0410   25.6070   29.4420 C   0  0  0  0  0  0  0  0  0  0  0  0
   21.7830   26.9100   29.9790 C   0  0  0  0  0  0  0  0  0  0  0  0
   21.5270   27.0670   31.3500 C   0  0  0  0  0  0  0  0  0  0  0  0
   21.5200   25.9660   32.2080 C   0  0  0  0  0  0  0  0  0  0  0  0
   21.7860   28.1370   29.1090 C   0  0  0  0  0  0  0  0  0  0  0  0
   23.2150   28.5100   28.6300 C   0  0  0  0  0  0  0  0  0  0  0  0
   23.5810   29.7760   29.0000 N   0  0  0  0  0  0  0  0  0  0  0  0
   24.7840   30.6260   28.7700 C   0  0  0  0  0  0  0  0  0  0  0  0
   24.9740   31.8610   29.2320 N   0  0  0  0  0  0  0  0  0  0  0  0
   26.1680   32.3580   28.8290 N   0  0  0  0  0  0  0  0  0  0  0  0
   26.8640   31.4720   28.0570 C   0  0  0  0  0  0  0  0  0  0  0  0
   28.1020   31.5090   27.4200 C   0  0  0  0  0  0  0  0  0  0  0  0
   28.5290   30.3880   26.6720 C   0  0  0  0  0  0  0  0  0  0  0  0
   27.6950   29.2180   26.5670 C   0  0  0  0  0  0  0  0  0  0  0  0
   26.4310   29.1860   27.2270 C   0  0  0  0  0  0  0  0  0  0  0  0
   25.9830   30.2860   27.9770 C   0  0  0  0  0  0  0  0  0  0  0  0
   28.1370   28.1460   25.8210 N   0  0  0  0  0  0  0  0  0  0  0  0
   28.0940   26.7420   26.2350 C   0  0  0  0  0  0  0  0  0  0  0  0
   23.8670   27.7140   27.9690 O   0  0  0  0  0  0  0  0  0  0  0  0
   28.7030   25.8780   25.0780 C   0  0  0  0  0  0  0  0  0  0  0  0
   28.7820   28.3250   24.3640 S   0  0  0  0  0  0  0  0  0  0  0  0
   28.6480   26.6540   23.7610 C   0  0  0  0  0  0  0  0  0  0  0  0
   27.9140   29.2550   23.5530 O   0  0  0  0  0  0  0  0  0  0  0  0
   30.1920   28.7150   24.6960 O   0  0  0  0  0  0  0  0  0  0  0  0
   22.6640   23.6190   33.8460 C   0  0  0  0  0  0  0  0  0  0  0  0
   21.7360   23.5880   32.6520 N   0  0  0  0  0  0  0  0  0  0  0  0
   20.7450   22.4980   32.4320 C   0  0  0  0  0  0  0  0  0  0  0  0
   20.9930   21.2160   33.2600 C   0  0  0  0  0  0  0  0  0  0  0  0
   21.3620   21.5880   34.7040 C   0  0  0  0  0  0  0  0  0  0  0  0
   22.7280   22.3020   34.6820 C   0  0  0  0  0  0  0  0  0  0  0  0
   22.2266   23.4692   29.9429 H   0  0  0  0  0  0  0  0  0  0  0  0
   22.2391   25.4794   28.3839 H   0  0  0  0  0  0  0  0  0  0  0  0
   21.3321   28.0564   31.7478 H   0  0  0  0  0  0  0  0  0  0  0  0
   21.3201   26.1161   33.2628 H   0  0  0  0  0  0  0  0  0  0  0  0
   21.3731   28.9797   29.6829 H   0  0  0  0  0  0  0  0  0  0  0  0
   21.1546   27.9488   28.2282 H   0  0  0  0  0  0  0  0  0  0  0  0
   22.8828   30.2350   29.5494 H   0  0  0  0  0  0  0  0  0  0  0  0
   24.3000   32.3720   29.8198 H   0  0  0  0  0  0  0  0  0  0  0  0
   28.7315   32.3881   27.4970 H   0  0  0  0  0  0  0  0  0  0  0  0
   29.4914   30.4089   26.1736 H   0  0  0  0  0  0  0  0  0  0  0  0
   25.8085   28.3020   27.1489 H   0  0  0  0  0  0  0  0  0  0  0  0
   27.0528   26.4387   26.4192 H   0  0  0  0  0  0  0  0  0  0  0  0
   28.6838   26.6052   27.1534 H   0  0  0  0  0  0  0  0  0  0  0  0
   28.1264   24.9468   24.9764 H   0  0  0  0  0  0  0  0  0  0  0  0
   29.7497   25.6371   25.3154 H   0  0  0  0  0  0  0  0  0  0  0  0
   27.6984   26.4883   23.2312 H   0  0  0  0  0  0  0  0  0  0  0  0
   29.4873   26.3922   23.0999 H   0  0  0  0  0  0  0  0  0  0  0  0
   22.3312   24.4279   34.5130 H   0  0  0  0  0  0  0  0  0  0  0  0
   23.6783   23.8384   33.4813 H   0  0  0  0  0  0  0  0  0  0  0  0
   20.7670   22.2261   31.3664 H   0  0  0  0  0  0  0  0  0  0  0  0
   19.7484   22.8847   32.6913 H   0  0  0  0  0  0  0  0  0  0  0  0
   21.8175   20.6445   32.8088 H   0  0  0  0  0  0  0  0  0  0  0  0
   20.0802   20.6021   33.2637 H   0  0  0  0  0  0  0  0  0  0  0  0
   21.4272   20.6778   35.3182 H   0  0  0  0  0  0  0  0  0  0  0  0
   20.5976   22.2590   35.1229 H   0  0  0  0  0  0  0  0  0  0  0  0
   23.0219   22.5459   35.7136 H   0  0  0  0  0  0  0  0  0  0  0  0
   23.4766   21.6304   34.2365 H   0  0  0  0  0  0  0  0  0  0  0  0
  1  2  2  0  0  0  0
  1  6  1  0  0  0  0
  1 28  1  0  0  0  0
  2  3  1  0  0  0  0
  2 33  1  0  0  0  0
  3  4  2  0  0  0  0
  3 34  1  0  0  0  0
  4  5  1  0  0  0  0
  4  7  1  0  0  0  0
  5  6  2  0  0  0  0
  5 35  1  0  0  0  0
  6 36  1  0  0  0  0
  7  8  1  0  0  0  0
  7 37  1  0  0  0  0
  7 38  1  0  0  0  0
  8  9  1  0  0  0  0
  8 21  2  0  0  0  0
  9 10  1  0  0  0  0
  9 39  1  0  0  0  0
 10 11  1  0  0  0  0
 10 18  2  0  0  0  0
 11 12  1  0  0  0  0
 11 40  1  0  0  0  0
 12 13  2  0  0  0  0
 13 14  1  0  0  0  0
 13 18  1  0  0  0  0
 14 15  2  0  0  0  0
 14 41  1  0  0  0  0
 15 16  1  0  0  0  0
 15 42  1  0  0  0  0
 16 17  2  0  0  0  0
 16 19  1  0  0  0  0
 17 18  1  0  0  0  0
 17 43  1  0  0  0  0
 19 20  1  0  0  0  0
 19 23  1  0  0  0  0
 20 22  1  0  0  0  0
 20 44  1  0  0  0  0
 20 45  1  0  0  0  0
 22 24  1  0  0  0  0
 22 46  1  0  0  0  0
 22 47  1  0  0  0  0
 23 24  1  0  0  0  0
 23 25  2  0  0  0  0
 23 26  2  0  0  0  0
 24 48  1  0  0  0  0
 24 49  1  0  0  0  0
 27 32  1  0  0  0  0
 27 50  1  0  0  0  0
 27 51  1  0  0  0  0
 28 27  1  0  0  0  0
 28 29  1  0  0  0  0
 29 30  1  0  0  0  0
 29 52  1  0  0  0  0
 29 53  1  0  0  0  0
 30 31  1  0  0  0  0
 30 54  1  0  0  0  0
 30 55  1  0  0  0  0
 31 32  1  0  0  0  0
 31 56  1  0  0  0  0
 31 57  1  0  0  0  0
 32 58  1  0  0  0  0
 32 59  1  0  0  0  0
M  END
