2r6y_ligand
 OpenBabel08222323343D

 59 63  0  0  0  0  0  0  0  0999 V2000
   12.1520   -0.5100   28.6560 C   0  0  0  0  0  0  0  0  0  0  0  0
   13.3830   -0.0040   29.0190 C   0  0  0  0  0  0  0  0  0  0  0  0
   14.4350    0.0280   28.0800 C   0  0  0  0  0  0  0  0  0  0  0  0
   14.2680   -0.4430   26.7780 C   0  0  0  0  0  0  0  0  0  0  0  0
    8.1750   -4.2560   25.9620 C   0  0  0  0  0  0  0  0  0  0  0  0
    6.0080   -3.1600   26.2430 C   0  0  0  0  0  0  0  0  0  0  0  0
   11.5270   -4.1330   24.8220 C   0  0  0  0  0  0  0  0  0  0  0  0
   10.9130   -3.3480   23.8520 C   0  0  0  0  0  0  0  0  0  0  0  0
   11.0730   -3.5860   22.5040 C   0  0  0  0  0  0  0  0  0  0  0  0
   13.0610   -5.9040   18.9130 C   0  0  0  0  0  0  0  0  0  0  0  0
   12.2090   -6.1380   16.6850 C   0  0  0  0  0  0  0  0  0  0  0  0
   12.0270   -4.2520   27.1140 O   0  0  0  0  0  0  0  0  0  0  0  0
   11.3070   -3.7800   26.2460 C   0  0  0  0  0  0  0  0  0  0  0  0
   12.3540   -5.2150   24.4220 C   0  0  0  0  0  0  0  0  0  0  0  0
   12.4960   -5.4500   23.0670 C   0  0  0  0  0  0  0  0  0  0  0  0
   11.8710   -4.6640   22.1070 C   0  0  0  0  0  0  0  0  0  0  0  0
   11.9720   -4.8700   20.7670 O   0  0  0  0  0  0  0  0  0  0  0  0
   12.7740   -6.0140   20.4290 C   0  0  0  0  0  0  0  0  0  0  0  0
   11.8240   -6.0700   18.1060 N   0  3  0  0  0  0  0  0  0  0  0  0
   10.9500   -4.8990   18.2650 C   0  0  0  0  0  0  0  0  0  0  0  0
   10.3840   -4.5120   16.8640 C   0  0  0  0  0  0  0  0  0  0  0  0
   11.0000   -5.5610   15.8950 C   0  0  0  0  0  0  0  0  0  0  0  0
   10.2560   -2.7790   26.5780 C   0  0  0  0  0  0  0  0  0  0  0  0
    8.8230   -3.0590   26.4270 C   0  0  0  0  0  0  0  0  0  0  0  0
    6.7840   -4.2440   25.8530 C   0  0  0  0  0  0  0  0  0  0  0  0
    4.6500   -3.1750   26.1640 O   0  0  0  0  0  0  0  0  0  0  0  0
    6.6170   -1.9870   26.7010 C   0  0  0  0  0  0  0  0  0  0  0  0
    7.9810   -1.9540   26.7760 C   0  0  0  0  0  0  0  0  0  0  0  0
    9.1040   -0.6720   27.3110 S   0  0  0  0  0  0  0  0  0  0  0  0
   10.6250   -1.5300   27.0440 C   0  0  0  0  0  0  0  0  0  0  0  0
   11.9670   -0.9910   27.3430 C   0  0  0  0  0  0  0  0  0  0  0  0
   13.0290   -0.9510   26.4060 C   0  0  0  0  0  0  0  0  0  0  0  0
   15.6340    0.5200   28.5000 O   0  0  0  0  0  0  0  0  0  0  0  0
   11.3374   -0.5376   29.3706 H   0  0  0  0  0  0  0  0  0  0  0  0
   13.5416    0.3685   30.0246 H   0  0  0  0  0  0  0  0  0  0  0  0
   15.0884   -0.4135   26.0701 H   0  0  0  0  0  0  0  0  0  0  0  0
    8.7488   -5.1389   25.7046 H   0  0  0  0  0  0  0  0  0  0  0  0
   10.2873   -2.5208   24.1669 H   0  0  0  0  0  0  0  0  0  0  0  0
   10.5914   -2.9522   21.7682 H   0  0  0  0  0  0  0  0  0  0  0  0
   13.7799   -6.6865   18.6285 H   0  0  0  0  0  0  0  0  0  0  0  0
   13.4936   -4.9147   18.7029 H   0  0  0  0  0  0  0  0  0  0  0  0
   12.3992   -7.1800   16.3883 H   0  0  0  0  0  0  0  0  0  0  0  0
   13.1102   -5.5343   16.5022 H   0  0  0  0  0  0  0  0  0  0  0  0
   12.8572   -5.8361   25.1542 H   0  0  0  0  0  0  0  0  0  0  0  0
   13.1171   -6.2769   22.7421 H   0  0  0  0  0  0  0  0  0  0  0  0
   13.7155   -6.0016   20.9977 H   0  0  0  0  0  0  0  0  0  0  0  0
   12.2259   -6.9424   20.6474 H   0  0  0  0  0  0  0  0  0  0  0  0
   11.3387   -6.9084   18.3845 H   0  0  0  0  0  0  0  0  0  0  0  0
   11.5270   -4.0582   18.6775 H   0  0  0  0  0  0  0  0  0  0  0  0
   10.1212   -5.1439   18.9455 H   0  0  0  0  0  0  0  0  0  0  0  0
   10.6959   -3.4946   16.5856 H   0  0  0  0  0  0  0  0  0  0  0  0
    9.2858   -4.5736   16.8572 H   0  0  0  0  0  0  0  0  0  0  0  0
   10.2723   -6.3520   15.6611 H   0  0  0  0  0  0  0  0  0  0  0  0
   11.3344   -5.0829   14.9625 H   0  0  0  0  0  0  0  0  0  0  0  0
    6.2878   -5.1179   25.4466 H   0  0  0  0  0  0  0  0  0  0  0  0
    4.3879   -3.3080   25.2606 H   0  0  0  0  0  0  0  0  0  0  0  0
    6.0228   -1.1272   26.9887 H   0  0  0  0  0  0  0  0  0  0  0  0
   12.8749   -1.3172   25.3974 H   0  0  0  0  0  0  0  0  0  0  0  0
   16.2971   -0.1558   28.4222 H   0  0  0  0  0  0  0  0  0  0  0  0
  1  2  2  0  0  0  0
  1 34  1  0  0  0  0
  2  3  1  0  0  0  0
  2 35  1  0  0  0  0
  3  4  2  0  0  0  0
  3 33  1  0  0  0  0
  4 32  1  0  0  0  0
  4 36  1  0  0  0  0
  5 25  1  0  0  0  0
  5 37  1  0  0  0  0
  6 25  2  0  0  0  0
  6 26  1  0  0  0  0
  7  8  2  0  0  0  0
  7 14  1  0  0  0  0
  8  9  1  0  0  0  0
  8 38  1  0  0  0  0
  9 16  2  0  0  0  0
  9 39  1  0  0  0  0
 10 19  1  0  0  0  0
 10 40  1  0  0  0  0
 10 41  1  0  0  0  0
 11 22  1  0  0  0  0
 11 42  1  0  0  0  0
 11 43  1  0  0  0  0
 13  7  1  0  0  0  0
 13 12  2  0  0  0  0
 14 15  2  0  0  0  0
 14 44  1  0  0  0  0
 15 16  1  0  0  0  0
 15 45  1  0  0  0  0
 16 17  1  0  0  0  0
 17 18  1  0  0  0  0
 18 10  1  0  0  0  0
 18 46  1  0  0  0  0
 18 47  1  0  0  0  0
 19 11  1  0  0  0  0
 19 20  1  0  0  0  0
 19 48  1  0  0  0  0
 20 21  1  0  0  0  0
 20 49  1  0  0  0  0
 20 50  1  0  0  0  0
 21 22  1  0  0  0  0
 21 51  1  0  0  0  0
 21 52  1  0  0  0  0
 22 53  1  0  0  0  0
 22 54  1  0  0  0  0
 23 13  1  0  0  0  0
 23 24  1  0  0  0  0
 24  5  2  0  0  0  0
 25 55  1  0  0  0  0
 26 56  1  0  0  0  0
 27  6  1  0  0  0  0
 27 57  1  0  0  0  0
 28 24  1  0  0  0  0
 28 27  2  0  0  0  0
 29 28  1  0  0  0  0
 30 23  2  0  0  0  0
 30 29  1  0  0  0  0
 30 31  1  0  0  0  0
 31  1  1  0  0  0  0
 31 32  2  0  0  0  0
 32 58  1  0  0  0  0
 33 59  1  0  0  0  0
M  CHG  1  19   1
M  END
