2r8q_ligand
 OpenBabel08222323343D

 30 31  0  0  0  0  0  0  0  0999 V2000
   32.4900   -1.6050   12.1320 N   0  0  0  0  0  0  0  0  0  0  0  0
   33.8010   -1.5470   11.7270 C   0  0  0  0  0  0  0  0  0  0  0  0
   34.4880   -0.5900   12.2990 N   0  0  0  0  0  0  0  0  0  0  0  0
   33.5670    0.0220   13.1370 C   0  0  0  0  0  0  0  0  0  0  0  0
   32.3360   -0.5890   13.0460 C   0  0  0  0  0  0  0  0  0  0  0  0
   31.2070   -0.2650   13.7140 N   0  0  0  0  0  0  0  0  0  0  0  0
   31.3340    0.7960   14.5650 C   0  0  0  0  0  0  0  0  0  0  0  0
   32.5460    1.4770   14.7220 N   0  0  0  0  0  0  0  0  0  0  0  0
   33.6580    1.0920   14.0130 C   0  0  0  0  0  0  0  0  0  0  0  0
   34.7180    1.6830   14.1510 O   0  0  0  0  0  0  0  0  0  0  0  0
   30.3570    1.1630   15.2090 O   0  0  0  0  0  0  0  0  0  0  0  0
   32.6300    2.6010   15.6430 C   0  0  0  0  0  0  0  0  0  0  0  0
   29.9610   -0.9930   13.5420 C   0  0  0  0  0  0  0  0  0  0  0  0
   30.1370   -2.4230   14.0610 C   0  0  0  0  0  0  0  0  0  0  0  0
   29.7710   -2.5140   15.5360 C   0  0  0  0  0  0  0  0  0  0  0  0
   29.3140   -3.4020   13.2360 C   0  0  0  0  0  0  0  0  0  0  0  0
   34.2295   -2.2331   10.9979 H   0  0  0  0  0  0  0  0  0  0  0  0
   35.4795   -0.3483   12.1595 H   0  0  0  0  0  0  0  0  0  0  0  0
   31.6501    2.7611   16.1164 H   0  0  0  0  0  0  0  0  0  0  0  0
   32.9228    3.5063   15.0910 H   0  0  0  0  0  0  0  0  0  0  0  0
   33.3805    2.3850   16.4177 H   0  0  0  0  0  0  0  0  0  0  0  0
   29.6945   -1.0192   12.4751 H   0  0  0  0  0  0  0  0  0  0  0  0
   29.1613   -0.4923   14.1075 H   0  0  0  0  0  0  0  0  0  0  0  0
   31.1974   -2.6959   13.9558 H   0  0  0  0  0  0  0  0  0  0  0  0
   29.9056   -3.5488   15.8840 H   0  0  0  0  0  0  0  0  0  0  0  0
   28.7213   -2.2149   15.6725 H   0  0  0  0  0  0  0  0  0  0  0  0
   30.4217   -1.8442   16.1173 H   0  0  0  0  0  0  0  0  0  0  0  0
   29.5968   -3.3167   12.1764 H   0  0  0  0  0  0  0  0  0  0  0  0
   28.2449   -3.1694   13.3500 H   0  0  0  0  0  0  0  0  0  0  0  0
   29.5055   -4.4274   13.5852 H   0  0  0  0  0  0  0  0  0  0  0  0
  1  2  2  0  0  0  0
  1  5  1  0  0  0  0
  2  3  1  0  0  0  0
  2 17  1  0  0  0  0
  3  4  1  0  0  0  0
  3 18  1  0  0  0  0
  4  5  2  0  0  0  0
  4  9  1  0  0  0  0
  5  6  1  0  0  0  0
  6  7  1  0  0  0  0
  6 13  1  0  0  0  0
  7  8  1  0  0  0  0
  7 11  2  0  0  0  0
  8  9  1  0  0  0  0
  8 12  1  0  0  0  0
  9 10  2  0  0  0  0
 12 19  1  0  0  0  0
 12 20  1  0  0  0  0
 12 21  1  0  0  0  0
 13 14  1  0  0  0  0
 13 22  1  0  0  0  0
 13 23  1  0  0  0  0
 14 15  1  0  0  0  0
 14 16  1  0  0  0  0
 14 24  1  0  0  0  0
 15 25  1  0  0  0  0
 15 26  1  0  0  0  0
 15 27  1  0  0  0  0
 16 28  1  0  0  0  0
 16 29  1  0  0  0  0
 16 30  1  0  0  0  0
M  END
