2r9m_ligand
 OpenBabel08222323343D

 67 69  0  0  1  0  0  0  0  0999 V2000
   61.3310   36.1020   62.8230 C   0  0  0  0  0  0  0  0  0  0  0  0
   59.2690   37.3430   62.3390 C   0  0  0  0  0  0  0  0  0  0  0  0
   58.8430   38.2930   61.2280 C   0  0  0  0  0  0  0  0  0  0  0  0
   59.7360   36.9080   59.5530 C   0  0  0  0  0  0  0  0  0  0  0  0
   60.2550   35.8810   60.5720 C   0  0  0  0  0  0  0  0  0  0  0  0
   61.2850   36.4360   64.0110 O   0  0  0  0  0  0  0  0  0  0  0  0
   58.5680   37.5640   60.0420 O   0  0  0  0  0  0  0  0  0  0  0  0
   60.3440   36.4300   61.9280 N   0  0  0  0  0  0  0  0  0  0  0  0
   62.3570   35.3790   62.3690 N   0  0  0  0  0  0  0  0  0  0  0  0
   63.4590   35.0310   63.2860 C   0  0  1  0  0  0  0  0  0  0  0  0
   64.4500   34.0740   62.6200 C   0  0  0  0  0  0  0  0  0  0  0  0
   63.7860   32.8280   62.0240 C   0  0  0  0  0  0  0  0  0  0  0  0
   64.8370   31.8880   61.4310 C   0  0  0  0  0  0  0  0  0  0  0  0
   64.2260   30.6440   60.7980 C   0  0  0  0  0  0  0  0  0  0  0  0
   63.3720   29.8580   61.8190 C   0  0  0  0  0  0  0  0  0  0  0  0
   62.3490   30.7690   62.5580 C   0  0  0  0  0  0  0  0  0  0  0  0
   63.0280   32.0520   63.1030 C   0  0  0  0  0  0  0  0  0  0  0  0
   64.1760   36.3170   63.7160 C   0  0  0  0  0  0  0  0  0  0  0  0
   64.4530   37.1700   62.8840 O   0  0  0  0  0  0  0  0  0  0  0  0
   64.4700   36.4330   65.0140 N   0  0  0  0  0  0  0  0  0  0  0  0
   64.3930   38.8910   65.1690 C   0  0  0  0  0  0  0  0  0  0  0  0
   62.9040   38.9060   65.4720 C   0  0  0  0  0  0  0  0  0  0  0  0
   63.3840   37.4030   67.4710 C   0  0  0  0  0  0  0  0  0  0  0  0
   64.8820   37.5390   67.1370 C   0  0  0  0  0  0  0  0  0  0  0  0
   62.5730   38.5260   66.8800 N   0  3  2  0  0  0  0  0  0  0  0  0
   61.1170   38.1810   66.9530 C   0  0  0  0  0  0  0  0  0  0  0  0
   66.6000   37.7470   65.3290 C   0  0  0  0  0  0  0  0  0  0  0  0
   67.3300   38.7740   65.7340 N   0  0  0  0  0  0  0  0  0  0  0  0
   65.1060   37.6190   65.6310 C   0  0  1  0  0  0  0  0  0  0  0  0
   58.3974   36.7449   62.6431 H   0  0  0  0  0  0  0  0  0  0  0  0
   59.6216   37.9383   63.1941 H   0  0  0  0  0  0  0  0  0  0  0  0
   59.6525   39.0119   61.0337 H   0  0  0  0  0  0  0  0  0  0  0  0
   57.9381   38.8351   61.5399 H   0  0  0  0  0  0  0  0  0  0  0  0
   59.4920   36.3913   58.6131 H   0  0  0  0  0  0  0  0  0  0  0  0
   60.5189   37.6579   59.3667 H   0  0  0  0  0  0  0  0  0  0  0  0
   61.2562   35.5493   60.2596 H   0  0  0  0  0  0  0  0  0  0  0  0
   59.5707   35.0199   60.5845 H   0  0  0  0  0  0  0  0  0  0  0  0
   62.3785   35.0761   61.4162 H   0  0  0  0  0  0  0  0  0  0  0  0
   63.0391   34.5391   64.1758 H   0  0  0  0  0  0  0  0  0  0  0  0
   65.1834   33.7514   63.3737 H   0  0  0  0  0  0  0  0  0  0  0  0
   64.9669   34.6135   61.8127 H   0  0  0  0  0  0  0  0  0  0  0  0
   63.0855   33.1401   61.2355 H   0  0  0  0  0  0  0  0  0  0  0  0
   65.5208   31.5743   62.2334 H   0  0  0  0  0  0  0  0  0  0  0  0
   65.4016   32.4333   60.6604 H   0  0  0  0  0  0  0  0  0  0  0  0
   65.0343   29.9944   60.4311 H   0  0  0  0  0  0  0  0  0  0  0  0
   63.5879   30.9472   59.9548 H   0  0  0  0  0  0  0  0  0  0  0  0
   64.0412   29.4014   62.5631 H   0  0  0  0  0  0  0  0  0  0  0  0
   62.8222   29.0679   61.2866 H   0  0  0  0  0  0  0  0  0  0  0  0
   61.9130   30.2096   63.3988 H   0  0  0  0  0  0  0  0  0  0  0  0
   61.5522   31.0559   61.8560 H   0  0  0  0  0  0  0  0  0  0  0  0
   62.2523   32.7067   63.5268 H   0  0  0  0  0  0  0  0  0  0  0  0
   63.7376   31.7651   63.8931 H   0  0  0  0  0  0  0  0  0  0  0  0
   64.2443   35.6636   65.6116 H   0  0  0  0  0  0  0  0  0  0  0  0
   64.8578   39.7512   65.6730 H   0  0  0  0  0  0  0  0  0  0  0  0
   64.5263   38.9873   64.0814 H   0  0  0  0  0  0  0  0  0  0  0  0
   62.4046   38.1976   64.7947 H   0  0  0  0  0  0  0  0  0  0  0  0
   62.5223   39.9210   65.2874 H   0  0  0  0  0  0  0  0  0  0  0  0
   63.2610   37.4125   68.5640 H   0  0  0  0  0  0  0  0  0  0  0  0
   63.0151   36.4480   67.0687 H   0  0  0  0  0  0  0  0  0  0  0  0
   65.4189   36.6647   67.5336 H   0  0  0  0  0  0  0  0  0  0  0  0
   65.2728   38.4535   67.6069 H   0  0  0  0  0  0  0  0  0  0  0  0
   62.7367   39.3393   67.4525 H   0  0  0  0  0  0  0  0  0  0  0  0
   60.5239   39.0008   66.5215 H   0  0  0  0  0  0  0  0  0  0  0  0
   60.8275   38.0327   68.0038 H   0  0  0  0  0  0  0  0  0  0  0  0
   60.9304   37.2563   66.3872 H   0  0  0  0  0  0  0  0  0  0  0  0
   67.0844   36.9582   64.7554 H   0  0  0  0  0  0  0  0  0  0  0  0
   68.3120   38.8138   65.5101 H   0  0  0  0  0  0  0  0  0  0  0  0
  1  6  2  0  0  0  0
  1  8  1  0  0  0  0
  2  3  1  0  0  0  0
  2 30  1  0  0  0  0
  2 31  1  0  0  0  0
  3  7  1  0  0  0  0
  3 32  1  0  0  0  0
  3 33  1  0  0  0  0
  4  7  1  0  0  0  0
  4 34  1  0  0  0  0
  4 35  1  0  0  0  0
  5  4  1  0  0  0  0
  5 36  1  0  0  0  0
  5 37  1  0  0  0  0
  8  2  1  0  0  0  0
  8  5  1  0  0  0  0
  9  1  1  0  0  0  0
  9 38  1  0  0  0  0
 10  9  1  0  0  0  0
 10 11  1  0  0  0  0
 10 39  1  1  0  0  0
 11 12  1  0  0  0  0
 11 40  1  0  0  0  0
 11 41  1  0  0  0  0
 12 13  1  0  0  0  0
 12 17  1  0  0  0  0
 12 42  1  0  0  0  0
 13 14  1  0  0  0  0
 13 43  1  0  0  0  0
 13 44  1  0  0  0  0
 14 15  1  0  0  0  0
 14 45  1  0  0  0  0
 14 46  1  0  0  0  0
 15 47  1  0  0  0  0
 15 48  1  0  0  0  0
 16 15  1  0  0  0  0
 16 49  1  0  0  0  0
 16 50  1  0  0  0  0
 17 16  1  0  0  0  0
 17 51  1  0  0  0  0
 17 52  1  0  0  0  0
 18 10  1  0  0  0  0
 18 19  2  0  0  0  0
 20 18  1  0  0  0  0
 20 53  1  0  0  0  0
 21 22  1  0  0  0  0
 21 54  1  0  0  0  0
 21 55  1  0  0  0  0
 22 25  1  0  0  0  0
 22 56  1  0  0  0  0
 22 57  1  0  0  0  0
 23 25  1  0  0  0  0
 23 58  1  0  0  0  0
 23 59  1  0  0  0  0
 24 23  1  0  0  0  0
 24 60  1  0  0  0  0
 24 61  1  0  0  0  0
 25 26  1  0  0  0  0
 25 62  1  1  0  0  0
 26 63  1  0  0  0  0
 26 64  1  0  0  0  0
 26 65  1  0  0  0  0
 27 28  2  0  0  0  0
 27 66  1  0  0  0  0
 28 67  1  0  0  0  0
 29 20  1  0  0  0  0
 29 21  1  0  0  0  0
 29 24  1  0  0  0  0
 29 27  1  6  0  0  0
M  CHG  1  25   1
M  END
