2rcu_ligand
 OpenBabel08222323343D

 74 73  0  0  1  0  0  0  0  0999 V2000
   37.7010  -21.6430   15.0640 O   0  5  0  0  0  0  0  0  0  0  0  0
   37.7080  -21.5990   16.3230 C   0  0  0  0  0  0  0  0  0  0  0  0
   36.8920  -22.2210   17.0390 O   0  0  0  0  0  0  0  0  0  0  0  0
   38.7660  -20.7450   16.9860 C   0  0  0  0  0  0  0  0  0  0  0  0
   38.6390  -20.7370   18.5120 C   0  0  2  0  0  0  0  0  0  0  0  0
   37.7210  -19.5580   18.8510 C   0  0  0  0  0  0  0  0  0  0  0  0
   37.1560  -19.4980   20.2260 N   0  3  0  0  0  0  0  0  0  0  0  0
   36.3540  -20.6820   20.5640 C   0  0  0  0  0  0  0  0  0  0  0  0
   36.2530  -18.3150   20.1950 C   0  0  0  0  0  0  0  0  0  0  0  0
   38.2340  -19.3780   21.2450 C   0  0  0  0  0  0  0  0  0  0  0  0
   40.0080  -20.4280   18.9110 N   0  0  0  0  0  0  0  0  0  0  0  0
   40.7270  -21.1410   19.7890 C   0  0  0  0  0  0  0  0  0  0  0  0
   40.2890  -22.1280   20.3860 O   0  0  0  0  0  0  0  0  0  0  0  0
   42.1580  -20.6460   19.9860 C   0  0  0  0  0  0  0  0  0  0  0  0
   42.7780  -21.0910   21.3060 C   0  0  0  0  0  0  0  0  0  0  0  0
   42.4280  -20.1140   22.4460 C   0  0  0  0  0  0  0  0  0  0  0  0
   43.2260  -20.3510   23.7220 C   0  0  0  0  0  0  0  0  0  0  0  0
   42.6150  -21.4300   24.5950 C   0  0  0  0  0  0  0  0  0  0  0  0
   43.4710  -21.6410   25.8450 C   0  0  0  0  0  0  0  0  0  0  0  0
   43.1080  -22.9470   26.5360 C   0  0  0  0  0  0  0  0  0  0  0  0
   44.0860  -23.3050   27.6540 C   0  0  0  0  0  0  0  0  0  0  0  0
   43.6040  -22.6990   28.9520 C   0  0  0  0  0  0  0  0  0  0  0  0
   44.0900  -23.4670   30.1670 C   0  0  0  0  0  0  0  0  0  0  0  0
   43.3150  -22.9560   31.3690 C   0  0  0  0  0  0  0  0  0  0  0  0
   44.0890  -23.2080   32.6490 C   0  0  0  0  0  0  0  0  0  0  0  0
   43.4880  -22.3940   33.7800 C   0  0  0  0  0  0  0  0  0  0  0  0
   43.8630  -22.9710   35.1370 C   0  0  0  0  0  0  0  0  0  0  0  0
   43.6020  -21.9400   36.2110 C   0  0  0  0  0  0  0  0  0  0  0  0
   38.6683  -19.7129   16.6182 H   0  0  0  0  0  0  0  0  0  0  0  0
   39.7573  -21.1382   16.7163 H   0  0  0  0  0  0  0  0  0  0  0  0
   38.2706  -21.6839   18.9335 H   0  0  0  0  0  0  0  0  0  0  0  0
   36.8750  -19.5871   18.1486 H   0  0  0  0  0  0  0  0  0  0  0  0
   38.2981  -18.6352   18.6919 H   0  0  0  0  0  0  0  0  0  0  0  0
   35.9645  -20.5809   21.5878 H   0  0  0  0  0  0  0  0  0  0  0  0
   36.9830  -21.5820   20.4982 H   0  0  0  0  0  0  0  0  0  0  0  0
   35.5140  -20.7694   19.8591 H   0  0  0  0  0  0  0  0  0  0  0  0
   36.8349  -17.4161   19.9432 H   0  0  0  0  0  0  0  0  0  0  0  0
   35.7855  -18.1846   21.1821 H   0  0  0  0  0  0  0  0  0  0  0  0
   35.4714  -18.4701   19.4367 H   0  0  0  0  0  0  0  0  0  0  0  0
   38.8649  -20.2787   21.2191 H   0  0  0  0  0  0  0  0  0  0  0  0
   37.7847  -19.2737   22.2436 H   0  0  0  0  0  0  0  0  0  0  0  0
   38.8493  -18.4930   21.0255 H   0  0  0  0  0  0  0  0  0  0  0  0
   40.4412  -19.6261   18.4995 H   0  0  0  0  0  0  0  0  0  0  0  0
   42.1535  -19.5464   19.9565 H   0  0  0  0  0  0  0  0  0  0  0  0
   42.7768  -21.0324   19.1627 H   0  0  0  0  0  0  0  0  0  0  0  0
   43.8713  -21.1325   21.1926 H   0  0  0  0  0  0  0  0  0  0  0  0
   42.3977  -22.0910   21.5616 H   0  0  0  0  0  0  0  0  0  0  0  0
   41.3586  -20.2221   22.6800 H   0  0  0  0  0  0  0  0  0  0  0  0
   42.6255  -19.0893   22.0982 H   0  0  0  0  0  0  0  0  0  0  0  0
   43.2632  -19.4126   24.2947 H   0  0  0  0  0  0  0  0  0  0  0  0
   44.2473  -20.6544   23.4485 H   0  0  0  0  0  0  0  0  0  0  0  0
   42.5618  -22.3707   24.0273 H   0  0  0  0  0  0  0  0  0  0  0  0
   41.6017  -21.1249   24.8951 H   0  0  0  0  0  0  0  0  0  0  0  0
   43.3037  -20.8062   26.5415 H   0  0  0  0  0  0  0  0  0  0  0  0
   44.5317  -21.6695   25.5549 H   0  0  0  0  0  0  0  0  0  0  0  0
   43.1133  -23.7551   25.7897 H   0  0  0  0  0  0  0  0  0  0  0  0
   42.0999  -22.8512   26.9656 H   0  0  0  0  0  0  0  0  0  0  0  0
   45.0829  -22.9085   27.4112 H   0  0  0  0  0  0  0  0  0  0  0  0
   44.1416  -24.3987   27.7574 H   0  0  0  0  0  0  0  0  0  0  0  0
   42.5040  -22.6962   28.9531 H   0  0  0  0  0  0  0  0  0  0  0  0
   43.9734  -21.6649   29.0173 H   0  0  0  0  0  0  0  0  0  0  0  0
   45.1666  -23.2959   30.3138 H   0  0  0  0  0  0  0  0  0  0  0  0
   43.9050  -24.5427   30.0303 H   0  0  0  0  0  0  0  0  0  0  0  0
   42.3473  -23.4763   31.4232 H   0  0  0  0  0  0  0  0  0  0  0  0
   43.1444  -21.8752   31.2565 H   0  0  0  0  0  0  0  0  0  0  0  0
   45.1391  -22.9139   32.5050 H   0  0  0  0  0  0  0  0  0  0  0  0
   44.0390  -24.2774   32.9018 H   0  0  0  0  0  0  0  0  0  0  0  0
   42.3926  -22.3962   33.6802 H   0  0  0  0  0  0  0  0  0  0  0  0
   43.8601  -21.3609   33.7149 H   0  0  0  0  0  0  0  0  0  0  0  0
   44.9294  -23.2409   35.1390 H   0  0  0  0  0  0  0  0  0  0  0  0
   43.2574  -23.8678   35.3344 H   0  0  0  0  0  0  0  0  0  0  0  0
   43.8729  -22.3563   37.1925 H   0  0  0  0  0  0  0  0  0  0  0  0
   42.5356  -21.6701   36.2089 H   0  0  0  0  0  0  0  0  0  0  0  0
   44.2076  -21.0432   36.0134 H   0  0  0  0  0  0  0  0  0  0  0  0
  1  2  1  0  0  0  0
  2  3  2  0  0  0  0
  2  4  1  0  0  0  0
  4  5  1  0  0  0  0
  4 29  1  0  0  0  0
  4 30  1  0  0  0  0
  5  6  1  0  0  0  0
  5 11  1  0  0  0  0
  5 31  1  1  0  0  0
  6  7  1  0  0  0  0
  6 32  1  0  0  0  0
  6 33  1  0  0  0  0
  7  8  1  0  0  0  0
  7  9  1  0  0  0  0
  7 10  1  0  0  0  0
  8 34  1  0  0  0  0
  8 35  1  0  0  0  0
  8 36  1  0  0  0  0
  9 37  1  0  0  0  0
  9 38  1  0  0  0  0
  9 39  1  0  0  0  0
 10 40  1  0  0  0  0
 10 41  1  0  0  0  0
 10 42  1  0  0  0  0
 11 12  1  0  0  0  0
 11 43  1  0  0  0  0
 12 13  2  0  0  0  0
 12 14  1  0  0  0  0
 14 15  1  0  0  0  0
 14 44  1  0  0  0  0
 14 45  1  0  0  0  0
 15 16  1  0  0  0  0
 15 46  1  0  0  0  0
 15 47  1  0  0  0  0
 16 17  1  0  0  0  0
 16 48  1  0  0  0  0
 16 49  1  0  0  0  0
 17 18  1  0  0  0  0
 17 50  1  0  0  0  0
 17 51  1  0  0  0  0
 18 19  1  0  0  0  0
 18 52  1  0  0  0  0
 18 53  1  0  0  0  0
 19 20  1  0  0  0  0
 19 54  1  0  0  0  0
 19 55  1  0  0  0  0
 20 21  1  0  0  0  0
 20 56  1  0  0  0  0
 20 57  1  0  0  0  0
 21 22  1  0  0  0  0
 21 58  1  0  0  0  0
 21 59  1  0  0  0  0
 22 23  1  0  0  0  0
 22 60  1  0  0  0  0
 22 61  1  0  0  0  0
 23 24  1  0  0  0  0
 23 62  1  0  0  0  0
 23 63  1  0  0  0  0
 24 25  1  0  0  0  0
 24 64  1  0  0  0  0
 24 65  1  0  0  0  0
 25 26  1  0  0  0  0
 25 66  1  0  0  0  0
 25 67  1  0  0  0  0
 26 27  1  0  0  0  0
 26 68  1  0  0  0  0
 26 69  1  0  0  0  0
 27 28  1  0  0  0  0
 27 70  1  0  0  0  0
 27 71  1  0  0  0  0
 28 72  1  0  0  0  0
 28 73  1  0  0  0  0
 28 74  1  0  0  0  0
M  CHG  2   1  -1   7   1
M  END
