2rf2_ligand
 OpenBabel08222323343D

 35 37  0  0  0  0  0  0  0  0999 V2000
    6.6800   10.2160   18.0890 Br  0  0  0  0  0  0  0  0  0  0  0  0
    7.4420   11.5910   16.9300 C   0  0  0  0  0  0  0  0  0  0  0  0
    8.7500   12.1020   17.0540 C   0  0  0  0  0  0  0  0  0  0  0  0
    6.6520   12.0880   15.8560 C   0  0  0  0  0  0  0  0  0  0  0  0
    7.1630   13.0090   14.9290 C   0  0  0  0  0  0  0  0  0  0  0  0
    8.4540   13.5170   15.1070 C   0  0  0  0  0  0  0  0  0  0  0  0
    9.1950   14.4610   14.3710 N   0  0  0  0  0  0  0  0  0  0  0  0
   10.4590   14.6970   14.8560 C   0  0  0  0  0  0  0  0  0  0  0  0
   11.2090   15.6740   14.1570 C   0  0  0  0  0  0  0  0  0  0  0  0
   12.5280   16.1410   14.4480 N   0  0  0  0  0  0  0  0  0  0  0  0
   10.6330   16.2420   13.1600 O   0  0  0  0  0  0  0  0  0  0  0  0
   10.5760   13.8330   15.9840 C   0  0  0  0  0  0  0  0  0  0  0  0
    9.2890   13.0740   16.1480 C   0  0  0  0  0  0  0  0  0  0  0  0
   11.9600   13.6750   17.0640 S   0  0  0  0  0  0  0  0  0  0  0  0
   13.0900   14.4320   16.4800 O   0  0  0  0  0  0  0  0  0  0  0  0
   11.8340   12.3280   17.5590 O   0  0  0  0  0  0  0  0  0  0  0  0
   11.6390   14.5860   18.5490 N   0  0  0  0  0  0  0  0  0  0  0  0
   11.5470   16.0860   18.5370 C   0  0  0  0  0  0  0  0  0  0  0  0
   10.9450   16.5560   19.8330 C   0  0  0  0  0  0  0  0  0  0  0  0
   10.6930   15.2130   20.5450 C   0  0  0  0  0  0  0  0  0  0  0  0
   10.4640   14.2360   19.3940 C   0  0  0  0  0  0  0  0  0  0  0  0
    9.3730   11.7460   17.8665 H   0  0  0  0  0  0  0  0  0  0  0  0
    5.6287   11.7462   15.7512 H   0  0  0  0  0  0  0  0  0  0  0  0
    6.5630   13.3239   14.0829 H   0  0  0  0  0  0  0  0  0  0  0  0
    8.8205   14.9359   13.5373 H   0  0  0  0  0  0  0  0  0  0  0  0
   12.9491   16.8411   13.8714 H   0  0  0  0  0  0  0  0  0  0  0  0
   13.0298   15.7676   15.2282 H   0  0  0  0  0  0  0  0  0  0  0  0
   10.9125   16.4088   17.6984 H   0  0  0  0  0  0  0  0  0  0  0  0
   12.5532   16.5152   18.4220 H   0  0  0  0  0  0  0  0  0  0  0  0
   10.0076   17.1069   19.6666 H   0  0  0  0  0  0  0  0  0  0  0  0
   11.6461   17.1875   20.3984 H   0  0  0  0  0  0  0  0  0  0  0  0
    9.8060   15.2719   21.1929 H   0  0  0  0  0  0  0  0  0  0  0  0
   11.5660   14.9161   21.1447 H   0  0  0  0  0  0  0  0  0  0  0  0
   10.4956   13.1891   19.7301 H   0  0  0  0  0  0  0  0  0  0  0  0
    9.5126   14.4261   18.8756 H   0  0  0  0  0  0  0  0  0  0  0  0
  1  2  1  0  0  0  0
  2  3  2  0  0  0  0
  2  4  1  0  0  0  0
  3 13  1  0  0  0  0
  3 22  1  0  0  0  0
  4  5  2  0  0  0  0
  4 23  1  0  0  0  0
  5  6  1  0  0  0  0
  5 24  1  0  0  0  0
  6  7  1  0  0  0  0
  6 13  2  0  0  0  0
  7  8  1  0  0  0  0
  7 25  1  0  0  0  0
  8  9  1  0  0  0  0
  8 12  2  0  0  0  0
  9 10  1  0  0  0  0
  9 11  2  0  0  0  0
 10 26  1  0  0  0  0
 10 27  1  0  0  0  0
 12 13  1  0  0  0  0
 12 14  1  0  0  0  0
 14 15  2  0  0  0  0
 14 16  2  0  0  0  0
 14 17  1  0  0  0  0
 17 18  1  0  0  0  0
 17 21  1  0  0  0  0
 18 19  1  0  0  0  0
 18 28  1  0  0  0  0
 18 29  1  0  0  0  0
 19 20  1  0  0  0  0
 19 30  1  0  0  0  0
 19 31  1  0  0  0  0
 20 21  1  0  0  0  0
 20 32  1  0  0  0  0
 20 33  1  0  0  0  0
 21 34  1  0  0  0  0
 21 35  1  0  0  0  0
M  END
