2rfn_ligand
 OpenBabel08222323343D

 81 86  0  0  0  0  0  0  0  0999 V2000
   58.2790    9.6300  127.1800 N   0  3  0  0  0  0  0  0  0  0  0  0
   63.4650   17.0740  111.4590 N   0  0  0  0  0  0  0  0  0  0  0  0
   58.1170   10.3360  128.4840 C   0  0  0  0  0  0  0  0  0  0  0  0
   64.5900   16.7850  108.2710 C   0  0  0  0  0  0  0  0  0  0  0  0
   65.7610   16.4710  108.9570 C   0  0  0  0  0  0  0  0  0  0  0  0
   66.8520   15.9530  108.2540 C   0  0  0  0  0  0  0  0  0  0  0  0
   66.7710   15.7430  106.8770 C   0  0  0  0  0  0  0  0  0  0  0  0
   64.5070   16.5800  106.8940 C   0  0  0  0  0  0  0  0  0  0  0  0
   63.0110   16.6030  110.2800 C   0  0  0  0  0  0  0  0  0  0  0  0
   61.5140   13.6160  116.4240 C   0  0  0  0  0  0  0  0  0  0  0  0
   62.1090   13.3590  114.0730 C   0  0  0  0  0  0  0  0  0  0  0  0
   61.4940   15.0060  116.2800 C   0  0  0  0  0  0  0  0  0  0  0  0
   61.5920   12.4350  119.9120 C   0  0  0  0  0  0  0  0  0  0  0  0
   60.2570   12.0540  120.0540 C   0  0  0  0  0  0  0  0  0  0  0  0
   60.6680   11.4880  122.3660 C   0  0  0  0  0  0  0  0  0  0  0  0
   62.4510   12.3510  121.0100 C   0  0  0  0  0  0  0  0  0  0  0  0
   63.4000   13.2980  118.6280 C   0  0  0  0  0  0  0  0  0  0  0  0
   57.0650    9.0140  126.5510 C   0  0  0  0  0  0  0  0  0  0  0  0
   55.8300    8.8870  127.4800 C   0  0  0  0  0  0  0  0  0  0  0  0
   55.7990    9.8720  128.5420 O   0  0  0  0  0  0  0  0  0  0  0  0
   56.9890    9.7360  129.3300 C   0  0  0  0  0  0  0  0  0  0  0  0
   58.8590   10.5960  126.2170 C   0  0  0  0  0  0  0  0  0  0  0  0
   60.2400   10.1090  125.7810 C   0  0  0  0  0  0  0  0  0  0  0  0
   60.9210   11.0250  124.7470 C   0  0  0  0  0  0  0  0  0  0  0  0
   60.1620   10.9950  123.5270 O   0  0  0  0  0  0  0  0  0  0  0  0
   61.9950   11.8690  122.2290 C   0  0  0  0  0  0  0  0  0  0  0  0
   59.7910   11.5700  121.2800 C   0  0  0  0  0  0  0  0  0  0  0  0
   58.4770   11.1870  121.4690 O   0  0  0  0  0  0  0  0  0  0  0  0
   57.8200   10.4470  120.4250 C   0  0  0  0  0  0  0  0  0  0  0  0
   63.7260   12.7300  120.9110 N   0  0  0  0  0  0  0  0  0  0  0  0
   64.2120   13.1850  119.7650 C   0  0  0  0  0  0  0  0  0  0  0  0
   62.0620   12.9230  118.6880 C   0  0  0  0  0  0  0  0  0  0  0  0
   61.2080   13.0110  117.6100 O   0  0  0  0  0  0  0  0  0  0  0  0
   61.8050   12.8160  115.3160 C   0  0  0  0  0  0  0  0  0  0  0  0
   61.8190   11.4840  115.4580 F   0  0  0  0  0  0  0  0  0  0  0  0
   61.7980   15.5540  115.0240 C   0  0  0  0  0  0  0  0  0  0  0  0
   62.1110   14.7460  113.9190 C   0  0  0  0  0  0  0  0  0  0  0  0
   62.3950   15.3320  112.6720 C   0  0  0  0  0  0  0  0  0  0  0  0
   61.8880   14.7980  111.4680 C   0  0  0  0  0  0  0  0  0  0  0  0
   61.1870   13.7770  111.4530 O   0  0  0  0  0  0  0  0  0  0  0  0
   62.1940   15.4410  110.2450 N   0  0  0  0  0  0  0  0  0  0  0  0
   61.6680   14.8790  108.9570 C   0  0  0  0  0  0  0  0  0  0  0  0
   63.1810   16.4820  112.6130 C   0  0  0  0  0  0  0  0  0  0  0  0
   63.3790   17.3660  109.0060 C   0  0  0  0  0  0  0  0  0  0  0  0
   65.5900   16.0540  106.2030 C   0  0  0  0  0  0  0  0  0  0  0  0
   58.9389    8.8832  127.3314 H   0  0  0  0  0  0  0  0  0  0  0  0
   57.8887   11.3941  128.2882 H   0  0  0  0  0  0  0  0  0  0  0  0
   59.0594   10.2622  129.0464 H   0  0  0  0  0  0  0  0  0  0  0  0
   65.8254   16.6272  110.0277 H   0  0  0  0  0  0  0  0  0  0  0  0
   67.7676   15.7127  108.7822 H   0  0  0  0  0  0  0  0  0  0  0  0
   67.6195   15.3412  106.3350 H   0  0  0  0  0  0  0  0  0  0  0  0
   63.5961   16.8316  106.3629 H   0  0  0  0  0  0  0  0  0  0  0  0
   62.3416   12.7133  113.2340 H   0  0  0  0  0  0  0  0  0  0  0  0
   61.2492   15.6466  117.1195 H   0  0  0  0  0  0  0  0  0  0  0  0
   59.5796   12.1335  119.2115 H   0  0  0  0  0  0  0  0  0  0  0  0
   63.8151   13.6779  117.7015 H   0  0  0  0  0  0  0  0  0  0  0  0
   57.3358    8.0053  126.2058 H   0  0  0  0  0  0  0  0  0  0  0  0
   56.7786    9.6325  125.6876 H   0  0  0  0  0  0  0  0  0  0  0  0
   55.8386    7.8855  127.9349 H   0  0  0  0  0  0  0  0  0  0  0  0
   54.9223    9.0049  126.8699 H   0  0  0  0  0  0  0  0  0  0  0  0
   56.8864   10.2852  130.2775 H   0  0  0  0  0  0  0  0  0  0  0  0
   57.1902    8.6753  129.5409 H   0  0  0  0  0  0  0  0  0  0  0  0
   58.9517   11.5817  126.6964 H   0  0  0  0  0  0  0  0  0  0  0  0
   58.2034   10.6762  125.3374 H   0  0  0  0  0  0  0  0  0  0  0  0
   60.1317    9.1073  125.3396 H   0  0  0  0  0  0  0  0  0  0  0  0
   60.8844   10.0501  126.6705 H   0  0  0  0  0  0  0  0  0  0  0  0
   61.9436   10.6683  124.5545 H   0  0  0  0  0  0  0  0  0  0  0  0
   60.9583   12.0542  125.1334 H   0  0  0  0  0  0  0  0  0  0  0  0
   62.6732   11.7905  123.0710 H   0  0  0  0  0  0  0  0  0  0  0  0
   56.7874   10.2213  120.7297 H   0  0  0  0  0  0  0  0  0  0  0  0
   58.3627    9.5074  120.2442 H   0  0  0  0  0  0  0  0  0  0  0  0
   57.8074   11.0464  119.5028 H   0  0  0  0  0  0  0  0  0  0  0  0
   65.2549   13.4746  119.7060 H   0  0  0  0  0  0  0  0  0  0  0  0
   61.7909   16.6313  114.9037 H   0  0  0  0  0  0  0  0  0  0  0  0
   62.0053   15.5061  108.1185 H   0  0  0  0  0  0  0  0  0  0  0  0
   60.5685   14.8648  108.9850 H   0  0  0  0  0  0  0  0  0  0  0  0
   62.0447   13.8542  108.8231 H   0  0  0  0  0  0  0  0  0  0  0  0
   63.5720   16.9055  113.5370 H   0  0  0  0  0  0  0  0  0  0  0  0
   62.5152   17.3430  108.3253 H   0  0  0  0  0  0  0  0  0  0  0  0
   63.6042   18.4079  109.2776 H   0  0  0  0  0  0  0  0  0  0  0  0
   65.5176   15.8842  105.1348 H   0  0  0  0  0  0  0  0  0  0  0  0
  1  3  1  0  0  0  0
  1 18  1  0  0  0  0
  1 46  1  0  0  0  0
  2  9  2  0  0  0  0
  3 21  1  0  0  0  0
  3 47  1  0  0  0  0
  3 48  1  0  0  0  0
  4  5  2  0  0  0  0
  4  8  1  0  0  0  0
  5  6  1  0  0  0  0
  5 49  1  0  0  0  0
  6  7  2  0  0  0  0
  6 50  1  0  0  0  0
  7 51  1  0  0  0  0
  8 45  2  0  0  0  0
  8 52  1  0  0  0  0
  9 41  1  0  0  0  0
  9 44  1  0  0  0  0
 10 33  1  0  0  0  0
 11 34  2  0  0  0  0
 11 53  1  0  0  0  0
 12 10  2  0  0  0  0
 12 54  1  0  0  0  0
 13 14  2  0  0  0  0
 13 16  1  0  0  0  0
 14 27  1  0  0  0  0
 14 55  1  0  0  0  0
 15 25  1  0  0  0  0
 16 26  2  0  0  0  0
 16 30  1  0  0  0  0
 17 31  1  0  0  0  0
 17 56  1  0  0  0  0
 18 19  1  0  0  0  0
 18 57  1  0  0  0  0
 18 58  1  0  0  0  0
 19 20  1  0  0  0  0
 19 59  1  0  0  0  0
 19 60  1  0  0  0  0
 21 20  1  0  0  0  0
 21 61  1  0  0  0  0
 21 62  1  0  0  0  0
 22  1  1  0  0  0  0
 22 63  1  0  0  0  0
 22 64  1  0  0  0  0
 23 22  1  0  0  0  0
 23 65  1  0  0  0  0
 23 66  1  0  0  0  0
 24 23  1  0  0  0  0
 24 67  1  0  0  0  0
 24 68  1  0  0  0  0
 25 24  1  0  0  0  0
 26 15  1  0  0  0  0
 26 69  1  0  0  0  0
 27 15  2  0  0  0  0
 27 28  1  0  0  0  0
 28 29  1  0  0  0  0
 29 70  1  0  0  0  0
 29 71  1  0  0  0  0
 29 72  1  0  0  0  0
 31 30  2  0  0  0  0
 31 73  1  0  0  0  0
 32 13  1  0  0  0  0
 32 17  2  0  0  0  0
 33 32  1  0  0  0  0
 34 10  1  0  0  0  0
 34 35  1  0  0  0  0
 36 12  1  0  0  0  0
 36 74  1  0  0  0  0
 37 11  1  0  0  0  0
 37 36  2  0  0  0  0
 38 37  1  0  0  0  0
 38 39  1  0  0  0  0
 38 43  2  0  0  0  0
 39 40  2  0  0  0  0
 39 41  1  0  0  0  0
 41 42  1  0  0  0  0
 42 75  1  0  0  0  0
 42 76  1  0  0  0  0
 42 77  1  0  0  0  0
 43  2  1  0  0  0  0
 43 78  1  0  0  0  0
 44  4  1  0  0  0  0
 44 79  1  0  0  0  0
 44 80  1  0  0  0  0
 45  7  1  0  0  0  0
 45 81  1  0  0  0  0
M  CHG  1   1   1
M  END
