2rg5_ligand
 OpenBabel08222323343D

 50 52  0  0  0  0  0  0  0  0999 V2000
   -3.8850   -0.0190   14.0800 C   0  0  0  0  0  0  0  0  0  0  0  0
   -4.9140   -0.4950   14.9190 C   0  0  0  0  0  0  0  0  0  0  0  0
   -2.2600   -1.1680   15.4190 C   0  0  0  0  0  0  0  0  0  0  0  0
   -1.4860   -3.3000   21.6710 C   0  0  0  0  0  0  0  0  0  0  0  0
   -2.5430   -0.3520   14.3350 C   0  0  0  0  0  0  0  0  0  0  0  0
   -1.6320   -4.5170   21.0300 C   0  0  0  0  0  0  0  0  0  0  0  0
   -4.6090   -1.3150   16.0190 C   0  0  0  0  0  0  0  0  0  0  0  0
   -2.0560   -4.2370   19.6850 C   0  0  0  0  0  0  0  0  0  0  0  0
   -3.2700   -1.6460   16.2550 C   0  0  0  0  0  0  0  0  0  0  0  0
   -2.1590   -2.8570   19.5990 C   0  0  0  0  0  0  0  0  0  0  0  0
   -2.1300   -0.2140   20.0540 C   0  0  0  0  0  0  0  0  0  0  0  0
   -2.5320   -1.9590   18.5480 C   0  0  0  0  0  0  0  0  0  0  0  0
   -1.3570    0.0700   13.5290 C   0  0  0  0  0  0  0  0  0  0  0  0
   -1.3530   -5.8080   21.6400 C   0  0  0  0  0  0  0  0  0  0  0  0
   -5.6800   -1.8450   16.9270 C   0  0  0  0  0  0  0  0  0  0  0  0
   -2.3500   -5.2380   18.6190 C   0  0  0  0  0  0  0  0  0  0  0  0
    1.1250   -7.4270   22.9230 C   0  0  0  0  0  0  0  0  0  0  0  0
    0.2780    1.3670   11.0850 C   0  0  0  0  0  0  0  0  0  0  0  0
   -0.1570   -6.8670   23.5180 C   0  0  0  0  0  0  0  0  0  0  0  0
   -1.7940   -0.9580   21.0640 N   0  0  0  0  0  0  0  0  0  0  0  0
   -2.4920   -0.6700   18.8050 N   0  0  0  0  0  0  0  0  0  0  0  0
   -1.8180   -2.3020   20.8000 N   0  0  0  0  0  0  0  0  0  0  0  0
   -2.9030   -2.4660   17.3270 N   0  0  0  0  0  0  0  0  0  0  0  0
   -0.5610   -5.7080   22.7640 N   0  0  0  0  0  0  0  0  0  0  0  0
   -1.5080    1.0530   12.5640 N   0  0  0  0  0  0  0  0  0  0  0  0
   -0.2850   -0.4870   13.7610 O   0  0  0  0  0  0  0  0  0  0  0  0
   -1.7670   -6.8690   21.1840 O   0  0  0  0  0  0  0  0  0  0  0  0
   -0.2810    1.7590   12.3370 O   0  0  0  0  0  0  0  0  0  0  0  0
   -4.1309    0.6089   13.2313 H   0  0  0  0  0  0  0  0  0  0  0  0
   -5.9443   -0.2273   14.7146 H   0  0  0  0  0  0  0  0  0  0  0  0
   -1.2308   -1.4411   15.6220 H   0  0  0  0  0  0  0  0  0  0  0  0
   -1.1600   -3.1607   22.7007 H   0  0  0  0  0  0  0  0  0  0  0  0
   -2.1253    0.8641   20.2075 H   0  0  0  0  0  0  0  0  0  0  0  0
   -6.6613   -1.4818   16.5876 H   0  0  0  0  0  0  0  0  0  0  0  0
   -5.4954   -1.4969   17.9540 H   0  0  0  0  0  0  0  0  0  0  0  0
   -5.6684   -2.9447   16.9049 H   0  0  0  0  0  0  0  0  0  0  0  0
   -2.1682   -6.2511   19.0071 H   0  0  0  0  0  0  0  0  0  0  0  0
   -1.6967   -5.0544   17.7533 H   0  0  0  0  0  0  0  0  0  0  0  0
   -3.4019   -5.1469   18.3105 H   0  0  0  0  0  0  0  0  0  0  0  0
    1.4384   -8.3127   23.4951 H   0  0  0  0  0  0  0  0  0  0  0  0
    1.9148   -6.6628   22.9686 H   0  0  0  0  0  0  0  0  0  0  0  0
    0.9494   -7.7108   21.8749 H   0  0  0  0  0  0  0  0  0  0  0  0
    1.2187    1.9119   10.9168 H   0  0  0  0  0  0  0  0  0  0  0  0
   -0.4310    1.6015   10.2773 H   0  0  0  0  0  0  0  0  0  0  0  0
    0.4776    0.2853   11.0951 H   0  0  0  0  0  0  0  0  0  0  0  0
    0.0174   -6.5819   24.5660 H   0  0  0  0  0  0  0  0  0  0  0  0
   -0.9481   -7.6300   23.4723 H   0  0  0  0  0  0  0  0  0  0  0  0
   -2.9113   -3.4876   17.1958 H   0  0  0  0  0  0  0  0  0  0  0  0
   -0.2579   -4.8038   23.0649 H   0  0  0  0  0  0  0  0  0  0  0  0
   -2.3650    1.2457   12.0861 H   0  0  0  0  0  0  0  0  0  0  0  0
  1  2  2  0  0  0  0
  1 29  1  0  0  0  0
  2  7  1  0  0  0  0
  2 30  1  0  0  0  0
  3  9  1  0  0  0  0
  3 31  1  0  0  0  0
  4  6  2  0  0  0  0
  4 32  1  0  0  0  0
  5  1  1  0  0  0  0
  5  3  2  0  0  0  0
  6 14  1  0  0  0  0
  7 15  1  0  0  0  0
  8  6  1  0  0  0  0
  8 16  1  0  0  0  0
  9  7  2  0  0  0  0
  9 23  1  0  0  0  0
 10  8  2  0  0  0  0
 10 22  1  0  0  0  0
 11 20  2  0  0  0  0
 11 33  1  0  0  0  0
 12 10  1  0  0  0  0
 12 21  2  0  0  0  0
 13  5  1  0  0  0  0
 13 26  2  0  0  0  0
 14 24  1  0  0  0  0
 14 27  2  0  0  0  0
 15 34  1  0  0  0  0
 15 35  1  0  0  0  0
 15 36  1  0  0  0  0
 16 37  1  0  0  0  0
 16 38  1  0  0  0  0
 16 39  1  0  0  0  0
 17 40  1  0  0  0  0
 17 41  1  0  0  0  0
 17 42  1  0  0  0  0
 18 43  1  0  0  0  0
 18 44  1  0  0  0  0
 18 45  1  0  0  0  0
 19 17  1  0  0  0  0
 19 46  1  0  0  0  0
 19 47  1  0  0  0  0
 21 11  1  0  0  0  0
 22  4  1  0  0  0  0
 22 20  1  0  0  0  0
 23 12  1  0  0  0  0
 23 48  1  0  0  0  0
 24 19  1  0  0  0  0
 24 49  1  0  0  0  0
 25 13  1  0  0  0  0
 25 28  1  0  0  0  0
 25 50  1  0  0  0  0
 28 18  1  0  0  0  0
M  END
