2rgu_ligand
 OpenBabel08222323343D

 64 68  0  0  1  0  0  0  0  0999 V2000
   69.0230   69.5870   69.8910 C   0  0  0  0  0  0  0  0  0  0  0  0
   68.5930   70.8800   69.4780 N   0  0  0  0  0  0  0  0  0  0  0  0
   68.6460   69.4700   71.2410 C   0  0  0  0  0  0  0  0  0  0  0  0
   69.6890   68.4790   69.3030 C   0  0  0  0  0  0  0  0  0  0  0  0
   67.9320   71.3720   70.6010 C   0  0  0  0  0  0  0  0  0  0  0  0
   68.7950   71.5900   68.1420 C   0  0  0  0  0  0  0  0  0  0  0  0
   68.0080   70.5350   71.5700 N   0  0  0  0  0  0  0  0  0  0  0  0
   68.9620   68.3370   71.9770 N   0  0  0  0  0  0  0  0  0  0  0  0
   69.9520   67.3480   70.0640 N   0  0  0  0  0  0  0  0  0  0  0  0
   70.0100   68.5270   68.1350 O   0  0  0  0  0  0  0  0  0  0  0  0
   67.2480   72.5290   70.7930 N   0  0  0  0  0  0  0  0  0  0  0  0
   68.0580   71.1430   66.9590 C   0  0  0  0  0  0  0  0  0  0  0  0
   69.5960   67.2990   71.3980 C   0  0  0  0  0  0  0  0  0  0  0  0
   68.5970   68.2960   73.4070 C   0  0  0  0  0  0  0  0  0  0  0  0
   70.6310   66.1760   69.4380 C   0  0  0  0  0  0  0  0  0  0  0  0
   66.3910   73.0560   69.7640 C   0  0  0  0  0  0  0  0  0  0  0  0
   67.5170   73.3980   71.8960 C   0  0  0  0  0  0  0  0  0  0  0  0
   67.5090   70.8750   65.9620 C   0  0  0  0  0  0  0  0  0  0  0  0
   69.8520   66.3150   72.0710 O   0  0  0  0  0  0  0  0  0  0  0  0
   69.7000   64.9760   69.5580 C   0  0  0  0  0  0  0  0  0  0  0  0
   65.0140   72.7450   70.3660 C   0  0  1  0  0  0  0  0  0  0  0  0
   66.1730   73.3450   72.7010 C   0  0  0  0  0  0  0  0  0  0  0  0
   66.8410   70.5880   64.6840 C   0  0  0  0  0  0  0  0  0  0  0  0
   68.4020   65.1560   69.3030 N   0  0  0  0  0  0  0  0  0  0  0  0
   70.2020   63.7850   69.9320 N   0  0  0  0  0  0  0  0  0  0  0  0
   64.8790   73.4740   71.7640 C   0  0  0  0  0  0  0  0  0  0  0  0
   63.9670   73.1820   69.4360 N   0  3  0  0  0  0  0  0  0  0  0  0
   67.5260   64.1350   69.4110 C   0  0  0  0  0  0  0  0  0  0  0  0
   69.4330   62.6890   70.0740 C   0  0  0  0  0  0  0  0  0  0  0  0
   68.0230   62.8080   69.8190 C   0  0  0  0  0  0  0  0  0  0  0  0
   66.1440   64.3100   69.1420 C   0  0  0  0  0  0  0  0  0  0  0  0
   70.0490   61.3740   70.4930 C   0  0  0  0  0  0  0  0  0  0  0  0
   67.1010   61.7110   69.9400 C   0  0  0  0  0  0  0  0  0  0  0  0
   65.2750   63.2230   69.2680 C   0  0  0  0  0  0  0  0  0  0  0  0
   65.7520   61.9260   69.6670 C   0  0  0  0  0  0  0  0  0  0  0  0
   69.8648   71.5112   67.8986 H   0  0  0  0  0  0  0  0  0  0  0  0
   68.5317   72.6462   68.3002 H   0  0  0  0  0  0  0  0  0  0  0  0
   68.0909   69.2328   73.6832 H   0  0  0  0  0  0  0  0  0  0  0  0
   69.5065   68.1777   74.0143 H   0  0  0  0  0  0  0  0  0  0  0  0
   67.9216   67.4470   73.5889 H   0  0  0  0  0  0  0  0  0  0  0  0
   71.5766   65.9690   69.9604 H   0  0  0  0  0  0  0  0  0  0  0  0
   70.8360   66.3853   68.3777 H   0  0  0  0  0  0  0  0  0  0  0  0
   66.5417   72.5390   68.8048 H   0  0  0  0  0  0  0  0  0  0  0  0
   66.5394   74.1371   69.6252 H   0  0  0  0  0  0  0  0  0  0  0  0
   67.7357   74.4201   71.5534 H   0  0  0  0  0  0  0  0  0  0  0  0
   68.3577   73.0260   72.5000 H   0  0  0  0  0  0  0  0  0  0  0  0
   64.9222   71.6597   70.5202 H   0  0  0  0  0  0  0  0  0  0  0  0
   66.1652   74.1723   73.4259 H   0  0  0  0  0  0  0  0  0  0  0  0
   66.1232   72.3863   73.2381 H   0  0  0  0  0  0  0  0  0  0  0  0
   66.2780   69.6467   64.7679 H   0  0  0  0  0  0  0  0  0  0  0  0
   67.5953   70.4944   63.8889 H   0  0  0  0  0  0  0  0  0  0  0  0
   66.1499   71.4080   64.4392 H   0  0  0  0  0  0  0  0  0  0  0  0
   64.0216   73.0389   72.2984 H   0  0  0  0  0  0  0  0  0  0  0  0
   64.6922   74.5422   71.5793 H   0  0  0  0  0  0  0  0  0  0  0  0
   64.0775   72.7025   68.5563 H   0  0  0  0  0  0  0  0  0  0  0  0
   64.0422   74.1763   69.2885 H   0  0  0  0  0  0  0  0  0  0  0  0
   63.0618   72.9674   69.8242 H   0  0  0  0  0  0  0  0  0  0  0  0
   65.7650   65.2799   68.8409 H   0  0  0  0  0  0  0  0  0  0  0  0
   69.2651   60.6046   70.5533 H   0  0  0  0  0  0  0  0  0  0  0  0
   70.5257   61.4896   71.4776 H   0  0  0  0  0  0  0  0  0  0  0  0
   70.8044   61.0707   69.7532 H   0  0  0  0  0  0  0  0  0  0  0  0
   67.4511   60.7298   70.2397 H   0  0  0  0  0  0  0  0  0  0  0  0
   64.2198   63.3600   69.0608 H   0  0  0  0  0  0  0  0  0  0  0  0
   65.0514   61.1037   69.7566 H   0  0  0  0  0  0  0  0  0  0  0  0
  1  2  1  0  0  0  0
  1  3  2  0  0  0  0
  1  4  1  0  0  0  0
  2  5  1  0  0  0  0
  2  6  1  0  0  0  0
  3  7  1  0  0  0  0
  3  8  1  0  0  0  0
  4  9  1  0  0  0  0
  4 10  2  0  0  0  0
  5  7  2  0  0  0  0
  5 11  1  0  0  0  0
  6 12  1  0  0  0  0
  6 36  1  0  0  0  0
  6 37  1  0  0  0  0
  8 13  1  0  0  0  0
  8 14  1  0  0  0  0
  9 13  1  0  0  0  0
  9 15  1  0  0  0  0
 11 16  1  0  0  0  0
 11 17  1  0  0  0  0
 12 18  3  0  0  0  0
 13 19  2  0  0  0  0
 14 38  1  0  0  0  0
 14 39  1  0  0  0  0
 14 40  1  0  0  0  0
 15 20  1  0  0  0  0
 15 41  1  0  0  0  0
 15 42  1  0  0  0  0
 16 21  1  0  0  0  0
 16 43  1  0  0  0  0
 16 44  1  0  0  0  0
 17 22  1  0  0  0  0
 17 45  1  0  0  0  0
 17 46  1  0  0  0  0
 18 23  1  0  0  0  0
 20 24  2  0  0  0  0
 20 25  1  0  0  0  0
 21 26  1  0  0  0  0
 21 27  1  0  0  0  0
 21 47  1  1  0  0  0
 22 26  1  0  0  0  0
 22 48  1  0  0  0  0
 22 49  1  0  0  0  0
 23 50  1  0  0  0  0
 23 51  1  0  0  0  0
 23 52  1  0  0  0  0
 24 28  1  0  0  0  0
 25 29  2  0  0  0  0
 26 53  1  0  0  0  0
 26 54  1  0  0  0  0
 27 55  1  0  0  0  0
 27 56  1  0  0  0  0
 27 57  1  0  0  0  0
 28 30  2  0  0  0  0
 28 31  1  0  0  0  0
 29 30  1  0  0  0  0
 29 32  1  0  0  0  0
 30 33  1  0  0  0  0
 31 34  2  0  0  0  0
 31 58  1  0  0  0  0
 32 59  1  0  0  0  0
 32 60  1  0  0  0  0
 32 61  1  0  0  0  0
 33 35  2  0  0  0  0
 33 62  1  0  0  0  0
 34 35  1  0  0  0  0
 34 63  1  0  0  0  0
 35 64  1  0  0  0  0
M  CHG  1  27   1
M  END
