2rk7_ligand
 OpenBabel08222323343D

  6  5  0  0  0  0  0  0  0  0999 V2000
   22.4900    2.1060    3.6980 C   0  0  0  0  0  0  0  0  0  0  0  0
   23.2220    3.0960    4.4840 C   0  0  0  0  0  0  0  0  0  0  0  0
   21.9090    2.4730    2.6560 O   0  5  0  0  0  0  0  0  0  0  0  0
   23.3410    4.2640    4.0490 O   0  5  0  0  0  0  0  0  0  0  0  0
   22.4810    0.9120    4.0830 O   0  0  0  0  0  0  0  0  0  0  0  0
   23.7360    2.7370    5.5700 O   0  0  0  0  0  0  0  0  0  0  0  0
  1  2  1  0  0  0  0
  1  3  1  0  0  0  0
  1  5  2  0  0  0  0
  2  4  1  0  0  0  0
  2  6  2  0  0  0  0
M  CHG  2   3  -1   4  -1
M  END
