2rk8_ligand
 OpenBabel08222323343D

  9  8  0  0  0  0  0  0  0  0999 V2000
   23.2760    3.1650    4.8940 C   0  0  0  0  0  0  0  0  0  0  0  0
   22.1050    2.8430    2.6190 O   0  0  0  0  0  0  0  0  0  0  0  0
   20.7720    3.1500    4.7080 O   0  0  0  0  0  0  0  0  0  0  0  0
   22.0950    0.9810    4.4010 O   0  0  0  0  0  0  0  0  0  0  0  0
   23.8690    2.4870    5.7740 O   0  5  0  0  0  0  0  0  0  0  0  0
   23.6060    4.3360    4.6120 O   0  0  0  0  0  0  0  0  0  0  0  0
   21.9530    2.4650    4.0690 P   0  0  0  0  0  0  0  0  0  0  0  0
   22.0275    3.7396    2.3580 H   0  0  0  0  0  0  0  0  0  0  0  0
   20.6178    4.0609    4.5518 H   0  0  0  0  0  0  0  0  0  0  0  0
  1  5  1  0  0  0  0
  1  6  2  0  0  0  0
  1  7  1  0  0  0  0
  2  8  1  0  0  0  0
  3  9  1  0  0  0  0
  7  2  1  0  0  0  0
  7  3  1  0  0  0  0
  7  4  2  0  0  0  0
M  CHG  1   5  -1
M  END
