2rkn_ligand
 OpenBabel08222323343D

 74 73  0  0  1  0  0  0  0  0999 V2000
    9.1570   12.2200   17.5350 O   0  0  0  0  0  0  0  0  0  0  0  0
    8.6180   11.7880   16.5330 C   0  0  0  0  0  0  0  0  0  0  0  0
    7.3550   11.4080   16.5960 O   0  0  0  0  0  0  0  0  0  0  0  0
    6.4920   12.3940   16.4780 C   0  0  0  0  0  0  0  0  0  0  0  0
    5.3560   12.2890   17.4290 C   0  0  1  0  0  0  0  0  0  0  0  0
    4.6910   13.4420   17.4380 O   0  0  0  0  0  0  0  0  0  0  0  0
    4.4350   11.2060   17.0110 C   0  0  0  0  0  0  0  0  0  0  0  0
    3.8260   10.5910   18.0390 O   0  0  0  0  0  0  0  0  0  0  0  0
    2.4430   10.0300   17.6710 P   0  0  1  0  0  0  0  0  0  0  0  0
    2.6290    8.5960   17.1450 O   0  0  0  0  0  1  0  0  0  0  0  0
    1.5620   10.1360   18.9370 O   0  0  0  0  0  0  0  0  0  0  0  0
    1.7960   10.8730   16.5650 O   0  0  0  0  0  0  0  0  0  0  0  0
    1.2670    8.9310   19.6400 C   0  0  0  0  0  0  0  0  0  0  0  0
    9.4330   11.6930   15.2550 C   0  0  0  0  0  0  0  0  0  0  0  0
    9.8000   10.2540   14.8960 C   0  0  0  0  0  0  0  0  0  0  0  0
   11.3120   10.0390   14.8860 C   0  0  0  0  0  0  0  0  0  0  0  0
   11.4850    8.5370   14.8480 C   0  0  0  0  0  0  0  0  0  0  0  0
   12.8510    8.0690   14.4140 C   0  0  0  0  0  0  0  0  0  0  0  0
   12.6420    6.9250   13.4330 C   0  0  0  0  0  0  0  0  0  0  0  0
   13.8270    6.7740   12.5100 C   0  0  0  0  0  0  0  0  0  0  0  0
   13.3750    6.0330   11.2610 C   0  0  0  0  0  0  0  0  0  0  0  0
   14.4780    5.8980   10.2590 C   0  0  0  0  0  0  0  0  0  0  0  0
   13.6770    5.6930    9.0000 C   0  0  0  0  0  0  0  0  0  0  0  0
   14.4250    4.9040    7.9570 C   0  0  0  0  0  0  0  0  0  0  0  0
   15.9230    5.0430    7.9470 C   0  0  0  0  0  0  0  0  0  0  0  0
   16.3660    4.4290    6.6420 C   0  0  0  0  0  0  0  0  0  0  0  0
   17.8530    4.5180    6.5370 C   0  0  0  0  0  0  0  0  0  0  0  0
   18.1560    4.6660    5.0680 C   0  0  0  0  0  0  0  0  0  0  0  0
   19.5820    4.3070    4.7770 C   0  0  0  0  0  0  0  0  0  0  0  0
   20.5250    5.4080    5.2200 C   0  0  0  0  0  0  0  0  0  0  0  0
    6.0925   12.3892   15.4531 H   0  0  0  0  0  0  0  0  0  0  0  0
    7.0168   13.3429   16.6626 H   0  0  0  0  0  0  0  0  0  0  0  0
    5.7406   12.0744   18.4370 H   0  0  0  0  0  0  0  0  0  0  0  0
    3.9625   13.3814   18.0448 H   0  0  0  0  0  0  0  0  0  0  0  0
    5.0118   10.4562   16.4497 H   0  0  0  0  0  0  0  0  0  0  0  0
    3.6629   11.6388   16.3580 H   0  0  0  0  0  0  0  0  0  0  0  0
    0.6364    9.1601   20.5117 H   0  0  0  0  0  0  0  0  0  0  0  0
    2.2042    8.4648   19.9779 H   0  0  0  0  0  0  0  0  0  0  0  0
    0.7327    8.2386   18.9728 H   0  0  0  0  0  0  0  0  0  0  0  0
   10.3600   12.2707   15.3849 H   0  0  0  0  0  0  0  0  0  0  0  0
    8.8457   12.1227   14.4302 H   0  0  0  0  0  0  0  0  0  0  0  0
    9.4012   10.0236   13.8971 H   0  0  0  0  0  0  0  0  0  0  0  0
    9.3491    9.5765   15.6361 H   0  0  0  0  0  0  0  0  0  0  0  0
   11.7698   10.4595   15.7935 H   0  0  0  0  0  0  0  0  0  0  0  0
   11.7643   10.5043   13.9978 H   0  0  0  0  0  0  0  0  0  0  0  0
   10.7436    8.1247   14.1479 H   0  0  0  0  0  0  0  0  0  0  0  0
   11.2937    8.1448   15.8577 H   0  0  0  0  0  0  0  0  0  0  0  0
   13.4242    7.7188   15.2851 H   0  0  0  0  0  0  0  0  0  0  0  0
   13.3935    8.8912   13.9245 H   0  0  0  0  0  0  0  0  0  0  0  0
   11.7429    7.1271   12.8324 H   0  0  0  0  0  0  0  0  0  0  0  0
   12.5044    5.9901   13.9960 H   0  0  0  0  0  0  0  0  0  0  0  0
   14.6196    6.2018   13.0144 H   0  0  0  0  0  0  0  0  0  0  0  0
   14.2109    7.7671   12.2336 H   0  0  0  0  0  0  0  0  0  0  0  0
   12.5433    6.5868   10.8010 H   0  0  0  0  0  0  0  0  0  0  0  0
   13.0319    5.0283   11.5488 H   0  0  0  0  0  0  0  0  0  0  0  0
   15.1216    5.0330   10.4768 H   0  0  0  0  0  0  0  0  0  0  0  0
   15.0929    6.8085   10.2060 H   0  0  0  0  0  0  0  0  0  0  0  0
   13.4222    6.6775    8.5808 H   0  0  0  0  0  0  0  0  0  0  0  0
   12.7533    5.1526    9.2546 H   0  0  0  0  0  0  0  0  0  0  0  0
   14.0548    5.2209    6.9709 H   0  0  0  0  0  0  0  0  0  0  0  0
   14.1905    3.8406    8.1124 H   0  0  0  0  0  0  0  0  0  0  0  0
   16.3665    4.5044    8.7974 H   0  0  0  0  0  0  0  0  0  0  0  0
   16.2128    6.1031    7.9930 H   0  0  0  0  0  0  0  0  0  0  0  0
   15.9049    4.9727    5.8043 H   0  0  0  0  0  0  0  0  0  0  0  0
   16.0574    3.3737    6.6084 H   0  0  0  0  0  0  0  0  0  0  0  0
   18.3198    3.6044    6.9336 H   0  0  0  0  0  0  0  0  0  0  0  0
   18.2242    5.3909    7.0939 H   0  0  0  0  0  0  0  0  0  0  0  0
   17.9787    5.7090    4.7670 H   0  0  0  0  0  0  0  0  0  0  0  0
   17.4931    4.0012    4.4948 H   0  0  0  0  0  0  0  0  0  0  0  0
   19.6986    4.1485    3.6948 H   0  0  0  0  0  0  0  0  0  0  0  0
   19.8354    3.3803    5.3127 H   0  0  0  0  0  0  0  0  0  0  0  0
   21.5612    5.1162    4.9939 H   0  0  0  0  0  0  0  0  0  0  0  0
   20.4175    5.5693    6.3028 H   0  0  0  0  0  0  0  0  0  0  0  0
   20.2807    6.3374    4.6848 H   0  0  0  0  0  0  0  0  0  0  0  0
  1  2  2  0  0  0  0
  2  3  1  0  0  0  0
  2 14  1  0  0  0  0
  3  4  1  0  0  0  0
  4  5  1  0  0  0  0
  4 31  1  0  0  0  0
  4 32  1  0  0  0  0
  5  6  1  0  0  0  0
  5  7  1  0  0  0  0
  5 33  1  1  0  0  0
  6 34  1  0  0  0  0
  7  8  1  0  0  0  0
  7 35  1  0  0  0  0
  7 36  1  0  0  0  0
  8  9  1  0  0  0  0
  9 10  1  6  0  0  0
  9 11  1  0  0  0  0
  9 12  2  0  0  0  0
 11 13  1  0  0  0  0
 13 37  1  0  0  0  0
 13 38  1  0  0  0  0
 13 39  1  0  0  0  0
 14 15  1  0  0  0  0
 14 40  1  0  0  0  0
 14 41  1  0  0  0  0
 15 16  1  0  0  0  0
 15 42  1  0  0  0  0
 15 43  1  0  0  0  0
 16 17  1  0  0  0  0
 16 44  1  0  0  0  0
 16 45  1  0  0  0  0
 17 18  1  0  0  0  0
 17 46  1  0  0  0  0
 17 47  1  0  0  0  0
 18 19  1  0  0  0  0
 18 48  1  0  0  0  0
 18 49  1  0  0  0  0
 19 20  1  0  0  0  0
 19 50  1  0  0  0  0
 19 51  1  0  0  0  0
 20 21  1  0  0  0  0
 20 52  1  0  0  0  0
 20 53  1  0  0  0  0
 21 22  1  0  0  0  0
 21 54  1  0  0  0  0
 21 55  1  0  0  0  0
 22 23  1  0  0  0  0
 22 56  1  0  0  0  0
 22 57  1  0  0  0  0
 23 24  1  0  0  0  0
 23 58  1  0  0  0  0
 23 59  1  0  0  0  0
 24 25  1  0  0  0  0
 24 60  1  0  0  0  0
 24 61  1  0  0  0  0
 25 26  1  0  0  0  0
 25 62  1  0  0  0  0
 25 63  1  0  0  0  0
 26 27  1  0  0  0  0
 26 64  1  0  0  0  0
 26 65  1  0  0  0  0
 27 28  1  0  0  0  0
 27 66  1  0  0  0  0
 27 67  1  0  0  0  0
 28 29  1  0  0  0  0
 28 68  1  0  0  0  0
 28 69  1  0  0  0  0
 29 30  1  0  0  0  0
 29 70  1  0  0  0  0
 29 71  1  0  0  0  0
 30 72  1  0  0  0  0
 30 73  1  0  0  0  0
 30 74  1  0  0  0  0
M  END
