2rku_ligand
 OpenBabel08222323343D

 78 82  0  0  1  0  0  0  0  0999 V2000
  -42.7990   11.9460   18.0890 N   0  0  0  0  0  0  0  0  0  0  0  0
  -44.0660   13.8570   14.7150 N   0  0  0  0  0  0  0  0  0  0  0  0
  -41.8640   12.4240   17.2470 C   0  0  0  0  0  0  0  0  0  0  0  0
  -43.0960   14.3700   13.7230 C   0  0  1  0  0  0  0  0  0  0  0  0
  -41.6760   14.2910   14.1160 C   0  0  0  0  0  0  0  0  0  0  0  0
  -46.3230   11.5110   18.7200 C   0  0  0  0  0  0  0  0  0  0  0  0
  -45.5350   13.9590   14.5600 C   0  0  0  0  0  0  0  0  0  0  0  0
  -42.8550   11.8550   12.8690 C   0  0  0  0  0  0  0  0  0  0  0  0
  -47.3450   14.9390   13.3030 C   0  0  0  0  0  0  0  0  0  0  0  0
  -46.3390   12.7770   14.0340 C   0  0  0  0  0  0  0  0  0  0  0  0
  -48.2690   10.5240   19.7090 C   0  0  0  0  0  0  0  0  0  0  0  0
  -47.1180   12.2960   17.8890 C   0  0  0  0  0  0  0  0  0  0  0  0
  -50.5580   11.0550   19.0150 C   0  0  0  0  0  0  0  0  0  0  0  0
  -52.7790   10.9790   18.1120 C   0  0  2  0  0  0  0  0  0  0  0  0
  -54.9580   12.0160   17.5680 C   0  0  0  0  0  0  0  0  0  0  0  0
  -54.5930    9.7410   16.8070 C   0  0  0  0  0  0  0  0  0  0  0  0
  -50.9800   10.6510   20.0970 O   0  0  0  0  0  0  0  0  0  0  0  0
  -51.3460   11.2340   17.9720 N   0  0  0  0  0  0  0  0  0  0  0  0
  -53.0940    9.8630   17.1200 C   0  0  0  0  0  0  0  0  0  0  0  0
  -55.2150   11.0440   16.4880 N   0  3  1  0  0  0  0  0  0  0  0  0
  -56.6790   10.8900   16.4050 C   0  0  0  0  0  0  0  0  0  0  0  0
  -53.4540   12.2600   17.6620 C   0  0  0  0  0  0  0  0  0  0  0  0
  -49.0750   11.2810   18.8710 C   0  0  0  0  0  0  0  0  0  0  0  0
  -46.8900   10.6250   19.6330 C   0  0  0  0  0  0  0  0  0  0  0  0
  -46.0520    9.8690   20.4330 O   0  0  0  0  0  0  0  0  0  0  0  0
  -46.4850    8.7790   21.2670 C   0  0  0  0  0  0  0  0  0  0  0  0
  -48.5230   12.1720   17.9390 C   0  0  0  0  0  0  0  0  0  0  0  0
  -44.9550   11.5360   18.7390 N   0  0  0  0  0  0  0  0  0  0  0  0
  -44.1150   12.0470   17.8240 C   0  0  0  0  0  0  0  0  0  0  0  0
  -44.5370   12.6780   16.7250 N   0  0  0  0  0  0  0  0  0  0  0  0
  -43.6260   13.2120   15.8720 C   0  0  0  0  0  0  0  0  0  0  0  0
  -47.5600   13.4390   13.4150 C   0  0  0  0  0  0  0  0  0  0  0  0
  -45.9180   15.1950   13.7660 C   0  0  0  0  0  0  0  0  0  0  0  0
  -43.1500   13.3440   12.5470 C   0  0  0  0  0  0  0  0  0  0  0  0
  -40.8350   14.8060   13.3360 O   0  0  0  0  0  0  0  0  0  0  0  0
  -41.2990   13.6610   15.2350 N   0  0  0  0  0  0  0  0  0  0  0  0
  -39.8810   13.5230   15.6240 C   0  0  0  0  0  0  0  0  0  0  0  0
  -42.2670   13.0880   16.1130 C   0  0  0  0  0  0  0  0  0  0  0  0
  -40.8099   12.2875   17.4598 H   0  0  0  0  0  0  0  0  0  0  0  0
  -43.3640   15.3930   13.4202 H   0  0  0  0  0  0  0  0  0  0  0  0
  -45.9052   14.1160   15.5839 H   0  0  0  0  0  0  0  0  0  0  0  0
  -42.9302   11.2588   11.9477 H   0  0  0  0  0  0  0  0  0  0  0  0
  -43.5857   11.4871   13.6044 H   0  0  0  0  0  0  0  0  0  0  0  0
  -41.8401   11.7635   13.2831 H   0  0  0  0  0  0  0  0  0  0  0  0
  -48.0575   15.4762   13.9463 H   0  0  0  0  0  0  0  0  0  0  0  0
  -47.4730   15.2665   12.2607 H   0  0  0  0  0  0  0  0  0  0  0  0
  -46.6285   12.1009   14.8520 H   0  0  0  0  0  0  0  0  0  0  0  0
  -45.7686   12.2160   13.2790 H   0  0  0  0  0  0  0  0  0  0  0  0
  -48.7213    9.8497   20.4272 H   0  0  0  0  0  0  0  0  0  0  0  0
  -46.6588   13.0008   17.2052 H   0  0  0  0  0  0  0  0  0  0  0  0
  -53.0630   10.7049   19.1388 H   0  0  0  0  0  0  0  0  0  0  0  0
  -55.3278   11.6142   18.5229 H   0  0  0  0  0  0  0  0  0  0  0  0
  -55.4728   12.9620   17.3443 H   0  0  0  0  0  0  0  0  0  0  0  0
  -55.1021    9.3126   17.6829 H   0  0  0  0  0  0  0  0  0  0  0  0
  -54.7194    9.0698   15.9448 H   0  0  0  0  0  0  0  0  0  0  0  0
  -50.9685   11.5398   17.0979 H   0  0  0  0  0  0  0  0  0  0  0  0
  -52.7460    8.9094   17.5436 H   0  0  0  0  0  0  0  0  0  0  0  0
  -52.5559   10.0658   16.1823 H   0  0  0  0  0  0  0  0  0  0  0  0
  -54.8483   11.3884   15.6145 H   0  0  0  0  0  0  0  0  0  0  0  0
  -57.1370   11.8615   16.1676 H   0  0  0  0  0  0  0  0  0  0  0  0
  -57.0650   10.5286   17.3696 H   0  0  0  0  0  0  0  0  0  0  0  0
  -56.9273   10.1650   15.6159 H   0  0  0  0  0  0  0  0  0  0  0  0
  -53.0652   12.5565   16.6767 H   0  0  0  0  0  0  0  0  0  0  0  0
  -53.2539   13.0592   18.3908 H   0  0  0  0  0  0  0  0  0  0  0  0
  -45.6181    8.3538   21.7940 H   0  0  0  0  0  0  0  0  0  0  0  0
  -46.9516    8.0027   20.6429 H   0  0  0  0  0  0  0  0  0  0  0  0
  -47.2161    9.1474   22.0017 H   0  0  0  0  0  0  0  0  0  0  0  0
  -49.1575   12.7490   17.2760 H   0  0  0  0  0  0  0  0  0  0  0  0
  -44.5111   11.1065   19.5633 H   0  0  0  0  0  0  0  0  0  0  0  0
  -47.7305   13.0207   12.4120 H   0  0  0  0  0  0  0  0  0  0  0  0
  -48.4385   13.2443   14.0477 H   0  0  0  0  0  0  0  0  0  0  0  0
  -45.2485   15.3228   12.9026 H   0  0  0  0  0  0  0  0  0  0  0  0
  -45.8727   16.0920   14.4011 H   0  0  0  0  0  0  0  0  0  0  0  0
  -42.4155   13.6683   11.7952 H   0  0  0  0  0  0  0  0  0  0  0  0
  -44.1611   13.3920   12.1164 H   0  0  0  0  0  0  0  0  0  0  0  0
  -39.2446   14.0046   14.8670 H   0  0  0  0  0  0  0  0  0  0  0  0
  -39.6225   12.4562   15.6954 H   0  0  0  0  0  0  0  0  0  0  0  0
  -39.7197   14.0055   16.5993 H   0  0  0  0  0  0  0  0  0  0  0  0
  1  3  2  0  0  0  0
  2  4  1  0  0  0  0
  2  7  1  0  0  0  0
  3 38  1  0  0  0  0
  3 39  1  0  0  0  0
  4  5  1  0  0  0  0
  4 34  1  0  0  0  0
  4 40  1  6  0  0  0
  5 35  2  0  0  0  0
  5 36  1  0  0  0  0
  6 12  2  0  0  0  0
  6 24  1  0  0  0  0
  7 10  1  0  0  0  0
  7 33  1  0  0  0  0
  7 41  1  0  0  0  0
  8 42  1  0  0  0  0
  8 43  1  0  0  0  0
  8 44  1  0  0  0  0
  9 32  1  0  0  0  0
  9 45  1  0  0  0  0
  9 46  1  0  0  0  0
 10 32  1  0  0  0  0
 10 47  1  0  0  0  0
 10 48  1  0  0  0  0
 11 23  1  0  0  0  0
 11 49  1  0  0  0  0
 12 27  1  0  0  0  0
 12 50  1  0  0  0  0
 13 17  2  0  0  0  0
 13 18  1  0  0  0  0
 14 19  1  0  0  0  0
 14 22  1  0  0  0  0
 14 51  1  1  0  0  0
 15 20  1  0  0  0  0
 15 52  1  0  0  0  0
 15 53  1  0  0  0  0
 16 20  1  0  0  0  0
 16 54  1  0  0  0  0
 16 55  1  0  0  0  0
 18 14  1  0  0  0  0
 18 56  1  0  0  0  0
 19 16  1  0  0  0  0
 19 57  1  0  0  0  0
 19 58  1  0  0  0  0
 20 21  1  0  0  0  0
 20 59  1  6  0  0  0
 21 60  1  0  0  0  0
 21 61  1  0  0  0  0
 21 62  1  0  0  0  0
 22 15  1  0  0  0  0
 22 63  1  0  0  0  0
 22 64  1  0  0  0  0
 23 13  1  0  0  0  0
 24 11  2  0  0  0  0
 24 25  1  0  0  0  0
 25 26  1  0  0  0  0
 26 65  1  0  0  0  0
 26 66  1  0  0  0  0
 26 67  1  0  0  0  0
 27 23  2  0  0  0  0
 27 68  1  0  0  0  0
 28  6  1  0  0  0  0
 28 69  1  0  0  0  0
 29  1  1  0  0  0  0
 29 28  1  0  0  0  0
 30 29  2  0  0  0  0
 30 31  1  0  0  0  0
 31  2  1  0  0  0  0
 31 38  2  0  0  0  0
 32 70  1  0  0  0  0
 32 71  1  0  0  0  0
 33  9  1  0  0  0  0
 33 72  1  0  0  0  0
 33 73  1  0  0  0  0
 34  8  1  0  0  0  0
 34 74  1  0  0  0  0
 34 75  1  0  0  0  0
 36 37  1  0  0  0  0
 36 38  1  0  0  0  0
 37 76  1  0  0  0  0
 37 77  1  0  0  0  0
 37 78  1  0  0  0  0
M  CHG  1  20   1
M  END
