2rm0_ligand
 OpenBabel08222323343D

139145  0  0  1  0  0  0  0  0999 V2000
   -4.5750   14.6400   -0.4010 N   0  3  0  0  0  0  0  0  0  0  0  0
   -3.1740   14.4620    0.0460 C   0  0  2  0  0  0  0  0  0  0  0  0
   -2.9230   12.9930    0.3550 C   0  0  0  0  0  0  0  0  0  0  0  0
   -3.7760   12.3390    0.9500 O   0  0  0  0  0  0  0  0  0  0  0  0
   -2.9460   15.3060    1.2930 C   0  0  0  0  0  0  0  0  0  0  0  0
   -4.2960   15.8560    1.6010 C   0  0  0  0  0  0  0  0  0  0  0  0
   -5.0770   15.8280    0.3060 C   0  0  0  0  0  0  0  0  0  0  0  0
   -1.7750   12.4370   -0.0570 N   0  0  0  0  0  0  0  0  0  0  0  0
   -1.4970   11.0180    0.1490 C   0  0  2  0  0  0  0  0  0  0  0  0
   -1.0670   10.6940    1.5780 C   0  0  0  0  0  0  0  0  0  0  0  0
   -0.4500   11.5140    2.2610 O   0  0  0  0  0  0  0  0  0  0  0  0
   -0.3510   10.7520   -0.8270 C   0  0  0  0  0  0  0  0  0  0  0  0
    0.3680   12.0550   -0.9330 C   0  0  0  0  0  0  0  0  0  0  0  0
   -0.6650   13.1340   -0.7270 C   0  0  0  0  0  0  0  0  0  0  0  0
   -1.4050    9.4880    2.0420 N   0  0  0  0  0  0  0  0  0  0  0  0
   -0.9250    8.9370    3.3030 C   0  0  2  0  0  0  0  0  0  0  0  0
    0.4990    8.4090    3.1770 C   0  0  0  0  0  0  0  0  0  0  0  0
    0.8960    7.9430    2.1050 O   0  0  0  0  0  0  0  0  0  0  0  0
   -1.8980    7.7750    3.5870 C   0  0  0  0  0  0  0  0  0  0  0  0
   -2.9350    7.8370    2.5100 C   0  0  0  0  0  0  0  0  0  0  0  0
   -2.3010    8.5570    1.3680 C   0  0  0  0  0  0  0  0  0  0  0  0
    1.2730    8.4690    4.2490 N   0  0  0  0  0  0  0  0  0  0  0  0
    2.5300    7.7430    4.2630 C   0  0  2  0  0  0  0  0  0  0  0  0
    2.2260    6.2780    4.5310 C   0  0  0  0  0  0  0  0  0  0  0  0
    1.2510    5.9640    5.2200 O   0  0  0  0  0  0  0  0  0  0  0  0
    3.4920    8.2930    5.3250 C   0  0  0  0  0  0  0  0  0  0  0  0
    4.2730    9.5520    4.9280 C   0  0  0  0  0  0  0  0  0  0  0  0
    5.0830    9.3070    3.6610 C   0  0  0  0  0  0  0  0  0  0  0  0
    3.3460   10.7480    4.7610 C   0  0  0  0  0  0  0  0  0  0  0  0
    3.0320    5.3800    3.9900 N   0  0  0  0  0  0  0  0  0  0  0  0
    2.8420    3.9640    4.2620 C   0  0  2  0  0  0  0  0  0  0  0  0
    3.4100    3.6230    5.6450 C   0  0  0  0  0  0  0  0  0  0  0  0
    4.3740    4.2480    6.0880 O   0  0  0  0  0  0  0  0  0  0  0  0
    3.5250    3.0630    3.1810 C   0  0  2  0  0  0  0  0  0  0  0  0
    2.9500    3.2850    1.7860 C   0  0  0  0  0  0  0  0  0  0  0  0
    3.3510    1.5890    3.5190 C   0  0  0  0  0  0  0  0  0  0  0  0
    3.2330    4.6510    1.1890 C   0  0  0  0  0  0  0  0  0  0  0  0
    2.8290    2.6420    6.3550 N   0  0  0  0  0  0  0  0  0  0  0  0
    3.5010    2.0090    7.4890 C   0  0  2  0  0  0  0  0  0  0  0  0
    4.5380    0.9960    6.9970 C   0  0  0  0  0  0  0  0  0  0  0  0
    4.3550    0.3750    5.9550 O   0  0  0  0  0  0  0  0  0  0  0  0
    2.3470    1.3090    8.2170 C   0  0  0  0  0  0  0  0  0  0  0  0
    1.3540    1.0080    7.1500 C   0  0  0  0  0  0  0  0  0  0  0  0
    1.4700    2.1170    6.1430 C   0  0  0  0  0  0  0  0  0  0  0  0
    5.6310    0.7900    7.7240 N   0  0  0  0  0  0  0  0  0  0  0  0
    6.6260   -0.1960    7.3260 C   0  0  2  0  0  0  0  0  0  0  0  0
    6.1860   -1.6160    7.6650 C   0  0  0  0  0  0  0  0  0  0  0  0
    5.4750   -1.8340    8.6460 O   0  0  0  0  0  0  0  0  0  0  0  0
    7.8700    0.1940    8.1390 C   0  0  0  0  0  0  0  0  0  0  0  0
    7.5030    1.4220    8.9160 C   0  0  0  0  0  0  0  0  0  0  0  0
    6.0020    1.4800    8.9580 C   0  0  0  0  0  0  0  0  0  0  0  0
    6.6050   -2.6020    6.8620 N   0  0  0  0  0  0  0  0  0  0  0  0
    6.4040   -4.0120    7.1740 C   0  0  2  0  0  0  0  0  0  0  0  0
    7.4140   -4.4940    8.2100 C   0  0  0  0  0  0  0  0  0  0  0  0
    8.5290   -3.9710    8.2740 O   0  0  0  0  0  0  0  0  0  0  0  0
    6.6270   -4.7260    5.8280 C   0  0  0  0  0  0  0  0  0  0  0  0
    6.7950   -3.6380    4.8120 C   0  0  0  0  0  0  0  0  0  0  0  0
    7.2670   -2.4330    5.5690 C   0  0  0  0  0  0  0  0  0  0  0  0
    7.0320   -5.4700    9.0500 N   0  0  0  0  0  0  0  0  0  0  0  0
    7.9380   -6.0710   10.0260 C   0  0  2  0  0  0  0  0  0  0  0  0
    8.8840   -7.0790    9.3730 C   0  0  0  0  0  0  0  0  0  0  0  0
    8.5910   -8.2900    9.4230 O   0  5  0  0  0  0  0  0  0  0  0  0
    6.9930   -6.7770   11.0200 C   0  0  0  0  0  0  0  0  0  0  0  0
    5.5980   -6.4250   10.5880 C   0  0  0  0  0  0  0  0  0  0  0  0
    5.6890   -6.0530    9.1410 C   0  0  0  0  0  0  0  0  0  0  0  0
    9.9080   -6.6540    8.7950 O   0  0  0  0  0  0  0  0  0  0  0  0
   -5.1252   13.8305   -0.1603 H   0  0  0  0  0  0  0  0  0  0  0  0
   -4.6090   14.7851   -1.3979 H   0  0  0  0  0  0  0  0  0  0  0  0
   -2.4882   14.7896   -0.7492 H   0  0  0  0  0  0  0  0  0  0  0  0
   -2.2292   16.1160    1.0925 H   0  0  0  0  0  0  0  0  0  0  0  0
   -2.5764   14.6865    2.1234 H   0  0  0  0  0  0  0  0  0  0  0  0
   -4.2104   16.8884    1.9708 H   0  0  0  0  0  0  0  0  0  0  0  0
   -4.7953   15.2351    2.3593 H   0  0  0  0  0  0  0  0  0  0  0  0
   -6.1551   15.7360    0.5041 H   0  0  0  0  0  0  0  0  0  0  0  0
   -4.8885   16.7387   -0.2815 H   0  0  0  0  0  0  0  0  0  0  0  0
   -2.3796   10.4125   -0.1048 H   0  0  0  0  0  0  0  0  0  0  0  0
   -0.7411   10.4436   -1.8082 H   0  0  0  0  0  0  0  0  0  0  0  0
    0.3177    9.9709   -0.4362 H   0  0  0  0  0  0  0  0  0  0  0  0
    0.8283   12.1549   -1.9270 H   0  0  0  0  0  0  0  0  0  0  0  0
    1.1472   12.1228   -0.1595 H   0  0  0  0  0  0  0  0  0  0  0  0
   -0.2682   13.9396   -0.0918 H   0  0  0  0  0  0  0  0  0  0  0  0
   -0.9906   13.5533   -1.6904 H   0  0  0  0  0  0  0  0  0  0  0  0
   -0.9676    9.6930    4.1009 H   0  0  0  0  0  0  0  0  0  0  0  0
   -2.3647    7.8994    4.5753 H   0  0  0  0  0  0  0  0  0  0  0  0
   -1.3660    6.8129    3.5512 H   0  0  0  0  0  0  0  0  0  0  0  0
   -3.8204    8.3859    2.8633 H   0  0  0  0  0  0  0  0  0  0  0  0
   -3.2302    6.8222    2.2051 H   0  0  0  0  0  0  0  0  0  0  0  0
   -1.7420    7.8640    0.7221 H   0  0  0  0  0  0  0  0  0  0  0  0
   -3.0525    9.0916    0.7685 H   0  0  0  0  0  0  0  0  0  0  0  0
    0.9942    9.0099    5.0426 H   0  0  0  0  0  0  0  0  0  0  0  0
    3.0081    7.8385    3.2770 H   0  0  0  0  0  0  0  0  0  0  0  0
    4.2210    7.5039    5.5616 H   0  0  0  0  0  0  0  0  0  0  0  0
    2.9035    8.5299    6.2236 H   0  0  0  0  0  0  0  0  0  0  0  0
    4.9772    9.7829    5.7408 H   0  0  0  0  0  0  0  0  0  0  0  0
    5.6339   10.2213    3.3955 H   0  0  0  0  0  0  0  0  0  0  0  0
    4.4045    9.0359    2.8387 H   0  0  0  0  0  0  0  0  0  0  0  0
    5.7954    8.4870    3.8341 H   0  0  0  0  0  0  0  0  0  0  0  0
    2.7748   10.9015    5.6885 H   0  0  0  0  0  0  0  0  0  0  0  0
    2.6511   10.5600    3.9293 H   0  0  0  0  0  0  0  0  0  0  0  0
    3.9422   11.6467    4.5446 H   0  0  0  0  0  0  0  0  0  0  0  0
    3.7759    5.6760    3.3908 H   0  0  0  0  0  0  0  0  0  0  0  0
    1.7626    3.7523    4.2588 H   0  0  0  0  0  0  0  0  0  0  0  0
    4.5981    3.3040    3.1634 H   0  0  0  0  0  0  0  0  0  0  0  0
    1.8591    3.1555    1.8413 H   0  0  0  0  0  0  0  0  0  0  0  0
    3.3760    2.5241    1.1156 H   0  0  0  0  0  0  0  0  0  0  0  0
    3.7565    1.3926    4.5225 H   0  0  0  0  0  0  0  0  0  0  0  0
    3.8891    0.9773    2.7799 H   0  0  0  0  0  0  0  0  0  0  0  0
    2.2817    1.3319    3.4989 H   0  0  0  0  0  0  0  0  0  0  0  0
    2.7807    4.7146    0.1883 H   0  0  0  0  0  0  0  0  0  0  0  0
    4.3202    4.7986    1.1100 H   0  0  0  0  0  0  0  0  0  0  0  0
    2.8032    5.4301    1.8358 H   0  0  0  0  0  0  0  0  0  0  0  0
    3.9870    2.7546    8.1355 H   0  0  0  0  0  0  0  0  0  0  0  0
    1.9096    1.9719    8.9780 H   0  0  0  0  0  0  0  0  0  0  0  0
    2.6956    0.3817    8.6951 H   0  0  0  0  0  0  0  0  0  0  0  0
    0.3383    0.9806    7.5714 H   0  0  0  0  0  0  0  0  0  0  0  0
    1.5820    0.0404    6.6792 H   0  0  0  0  0  0  0  0  0  0  0  0
    1.3541    1.7308    5.1196 H   0  0  0  0  0  0  0  0  0  0  0  0
    0.7155    2.8956    6.3288 H   0  0  0  0  0  0  0  0  0  0  0  0
    6.8272   -0.1277    6.2467 H   0  0  0  0  0  0  0  0  0  0  0  0
    8.7125    0.4085    7.4651 H   0  0  0  0  0  0  0  0  0  0  0  0
    8.1468   -0.6206    8.8244 H   0  0  0  0  0  0  0  0  0  0  0  0
    7.9023    2.3180    8.4182 H   0  0  0  0  0  0  0  0  0  0  0  0
    7.9077    1.3586    9.9369 H   0  0  0  0  0  0  0  0  0  0  0  0
    5.6074    0.9568    9.8415 H   0  0  0  0  0  0  0  0  0  0  0  0
    5.6430    2.5198    8.9568 H   0  0  0  0  0  0  0  0  0  0  0  0
    5.3841   -4.1877    7.5467 H   0  0  0  0  0  0  0  0  0  0  0  0
    5.7581   -5.3526    5.5781 H   0  0  0  0  0  0  0  0  0  0  0  0
    7.5303   -5.3522    5.8715 H   0  0  0  0  0  0  0  0  0  0  0  0
    5.8358   -3.4264    4.3168 H   0  0  0  0  0  0  0  0  0  0  0  0
    7.5402   -3.9313    4.0579 H   0  0  0  0  0  0  0  0  0  0  0  0
    8.3616   -2.4340    5.6781 H   0  0  0  0  0  0  0  0  0  0  0  0
    6.9485   -1.5025    5.0764 H   0  0  0  0  0  0  0  0  0  0  0  0
    8.5296   -5.2949   10.5336 H   0  0  0  0  0  0  0  0  0  0  0  0
    7.1779   -6.4184   12.0433 H   0  0  0  0  0  0  0  0  0  0  0  0
    7.1417   -7.8662   10.9806 H   0  0  0  0  0  0  0  0  0  0  0  0
    5.2195   -5.5763   11.1766 H   0  0  0  0  0  0  0  0  0  0  0  0
    4.9294   -7.2887   10.7181 H   0  0  0  0  0  0  0  0  0  0  0  0
    5.5950   -6.9388    8.4957 H   0  0  0  0  0  0  0  0  0  0  0  0
    4.9168   -5.3181    8.8697 H   0  0  0  0  0  0  0  0  0  0  0  0
  1  2  1  0  0  0  0
  1  7  1  0  0  0  0
  1 67  1  0  0  0  0
  1 68  1  0  0  0  0
  2  3  1  0  0  0  0
  2  5  1  0  0  0  0
  2 69  1  6  0  0  0
  3  4  2  0  0  0  0
  3  8  1  0  0  0  0
  5  6  1  0  0  0  0
  5 70  1  0  0  0  0
  5 71  1  0  0  0  0
  6  7  1  0  0  0  0
  6 72  1  0  0  0  0
  6 73  1  0  0  0  0
  7 74  1  0  0  0  0
  7 75  1  0  0  0  0
  8  9  1  0  0  0  0
  8 14  1  0  0  0  0
  9 10  1  0  0  0  0
  9 12  1  0  0  0  0
  9 76  1  6  0  0  0
 10 11  2  0  0  0  0
 10 15  1  0  0  0  0
 12 13  1  0  0  0  0
 12 77  1  0  0  0  0
 12 78  1  0  0  0  0
 13 14  1  0  0  0  0
 13 79  1  0  0  0  0
 13 80  1  0  0  0  0
 14 81  1  0  0  0  0
 14 82  1  0  0  0  0
 15 16  1  0  0  0  0
 15 21  1  0  0  0  0
 16 17  1  0  0  0  0
 16 19  1  0  0  0  0
 16 83  1  1  0  0  0
 17 18  2  0  0  0  0
 17 22  1  0  0  0  0
 19 20  1  0  0  0  0
 19 84  1  0  0  0  0
 19 85  1  0  0  0  0
 20 21  1  0  0  0  0
 20 86  1  0  0  0  0
 20 87  1  0  0  0  0
 21 88  1  0  0  0  0
 21 89  1  0  0  0  0
 22 23  1  0  0  0  0
 22 90  1  0  0  0  0
 23 24  1  0  0  0  0
 23 26  1  0  0  0  0
 23 91  1  6  0  0  0
 24 25  2  0  0  0  0
 24 30  1  0  0  0  0
 26 27  1  0  0  0  0
 26 92  1  0  0  0  0
 26 93  1  0  0  0  0
 27 28  1  0  0  0  0
 27 29  1  0  0  0  0
 27 94  1  0  0  0  0
 28 95  1  0  0  0  0
 28 96  1  0  0  0  0
 28 97  1  0  0  0  0
 29 98  1  0  0  0  0
 29 99  1  0  0  0  0
 29100  1  0  0  0  0
 30 31  1  0  0  0  0
 30101  1  0  0  0  0
 31 32  1  0  0  0  0
 31 34  1  0  0  0  0
 31102  1  1  0  0  0
 32 33  2  0  0  0  0
 32 38  1  0  0  0  0
 34 35  1  0  0  0  0
 34 36  1  0  0  0  0
 34103  1  6  0  0  0
 35 37  1  0  0  0  0
 35104  1  0  0  0  0
 35105  1  0  0  0  0
 36106  1  0  0  0  0
 36107  1  0  0  0  0
 36108  1  0  0  0  0
 37109  1  0  0  0  0
 37110  1  0  0  0  0
 37111  1  0  0  0  0
 38 39  1  0  0  0  0
 38 44  1  0  0  0  0
 39 40  1  0  0  0  0
 39 42  1  0  0  0  0
 39112  1  1  0  0  0
 40 41  2  0  0  0  0
 40 45  1  0  0  0  0
 42 43  1  0  0  0  0
 42113  1  0  0  0  0
 42114  1  0  0  0  0
 43 44  1  0  0  0  0
 43115  1  0  0  0  0
 43116  1  0  0  0  0
 44117  1  0  0  0  0
 44118  1  0  0  0  0
 45 46  1  0  0  0  0
 45 51  1  0  0  0  0
 46 47  1  0  0  0  0
 46 49  1  0  0  0  0
 46119  1  6  0  0  0
 47 48  2  0  0  0  0
 47 52  1  0  0  0  0
 49 50  1  0  0  0  0
 49120  1  0  0  0  0
 49121  1  0  0  0  0
 50 51  1  0  0  0  0
 50122  1  0  0  0  0
 50123  1  0  0  0  0
 51124  1  0  0  0  0
 51125  1  0  0  0  0
 52 53  1  0  0  0  0
 52 58  1  0  0  0  0
 53 54  1  0  0  0  0
 53 56  1  0  0  0  0
 53126  1  1  0  0  0
 54 55  2  0  0  0  0
 54 59  1  0  0  0  0
 56 57  1  0  0  0  0
 56127  1  0  0  0  0
 56128  1  0  0  0  0
 57 58  1  0  0  0  0
 57129  1  0  0  0  0
 57130  1  0  0  0  0
 58131  1  0  0  0  0
 58132  1  0  0  0  0
 59 60  1  0  0  0  0
 59 65  1  0  0  0  0
 60 61  1  0  0  0  0
 60 63  1  0  0  0  0
 60133  1  1  0  0  0
 61 62  1  0  0  0  0
 61 66  2  0  0  0  0
 63 64  1  0  0  0  0
 63134  1  0  0  0  0
 63135  1  0  0  0  0
 64 65  1  0  0  0  0
 64136  1  0  0  0  0
 64137  1  0  0  0  0
 65138  1  0  0  0  0
 65139  1  0  0  0  0
M  CHG  2   1   1  62  -1
M  END
