2rny_ligand
 OpenBabel08222323343D

261261  0  0  1  0  0  0  0  0999 V2000
  -22.6770  -12.3490   -3.7930 N   0  3  0  0  0  0  0  0  0  0  0  0
  -22.8840  -10.9520   -4.2660 C   0  0  0  0  0  0  0  0  0  0  0  0
  -21.5810  -10.2540   -4.6010 C   0  0  0  0  0  0  0  0  0  0  0  0
  -20.5510  -10.9030   -4.7820 O   0  0  0  0  0  0  0  0  0  0  0  0
  -21.6280   -8.9280   -4.6840 N   0  0  0  0  0  0  0  0  0  0  0  0
  -20.4370   -8.1610   -4.9990 C   0  0  0  0  0  0  0  0  0  0  0  0
  -20.3490   -7.8050   -6.4710 C   0  0  0  0  0  0  0  0  0  0  0  0
  -20.9250   -6.8080   -6.9090 O   0  0  0  0  0  0  0  0  0  0  0  0
  -19.6230   -8.6220   -7.2330 N   0  0  0  0  0  0  0  0  0  0  0  0
  -19.4540   -8.3990   -8.6680 C   0  0  2  0  0  0  0  0  0  0  0  0
  -18.7420   -7.0780   -8.9470 C   0  0  0  0  0  0  0  0  0  0  0  0
  -18.5510   -6.2580   -8.0490 O   0  0  0  0  0  0  0  0  0  0  0  0
  -20.8030   -8.4330   -9.3730 C   0  0  0  0  0  0  0  0  0  0  0  0
  -18.3470   -6.8830  -10.2030 N   0  0  0  0  0  0  0  0  0  0  0  0
  -17.6550   -5.6660  -10.6120 C   0  0  2  0  0  0  0  0  0  0  0  0
  -18.6440   -4.6210  -11.1140 C   0  0  0  0  0  0  0  0  0  0  0  0
  -19.1870   -4.7460  -12.2120 O   0  0  0  0  0  0  0  0  0  0  0  0
  -16.6380   -5.9800  -11.7100 C   0  0  0  0  0  0  0  0  0  0  0  0
  -15.5310   -6.9200  -11.2670 C   0  0  0  0  0  0  0  0  0  0  0  0
  -14.6680   -7.3510  -12.4410 C   0  0  0  0  0  0  0  0  0  0  0  0
  -13.4900   -8.1960  -11.9880 C   0  0  0  0  0  0  0  0  0  0  0  0
  -12.6910   -8.6940  -13.1420 N   0  3  0  0  0  0  0  0  0  0  0  0
  -18.8710   -3.5880  -10.3070 N   0  0  0  0  0  0  0  0  0  0  0  0
  -19.7960   -2.5220  -10.6720 C   0  0  2  0  0  0  0  0  0  0  0  0
  -19.6950   -1.3530   -9.6940 C   0  0  0  0  0  0  0  0  0  0  0  0
  -19.1990   -1.5080   -8.5780 O   0  0  0  0  0  0  0  0  0  0  0  0
  -21.2300   -3.0590  -10.7060 C   0  0  0  0  0  0  0  0  0  0  0  0
  -22.2480   -2.0720  -11.2570 C   0  0  0  0  0  0  0  0  0  0  0  0
  -22.0330   -1.8150  -12.7400 C   0  0  0  0  0  0  0  0  0  0  0  0
  -22.2040   -3.0250  -13.5390 N   0  0  0  0  0  0  0  0  0  0  0  0
  -22.5240   -3.0200  -14.8300 C   0  0  0  0  0  3  0  0  0  0  0  0
  -22.7080   -1.8720  -15.4660 N   0  0  0  0  0  0  0  0  0  0  0  0
  -22.6600   -4.1650  -15.4860 N   0  0  0  0  0  0  0  0  0  0  0  0
  -20.1650   -0.1860  -10.1260 N   0  0  0  0  0  0  0  0  0  0  0  0
  -20.1350    1.0160   -9.2990 C   0  0  2  0  0  0  0  0  0  0  0  0
  -18.7070    1.3380   -8.8550 C   0  0  0  0  0  0  0  0  0  0  0  0
  -17.8740    1.7130   -9.6730 O   0  0  0  0  0  0  0  0  0  0  0  0
  -21.0590    0.8550   -8.0880 C   0  0  0  0  0  0  0  0  0  0  0  0
  -21.3110    2.1340   -7.3500 C   0  0  0  0  0  0  0  0  0  0  0  0
  -21.8840    3.2430   -7.9380 N   0  0  0  0  0  0  0  0  0  0  0  0
  -21.0640    2.4780   -6.0640 C   0  0  0  0  0  0  0  0  0  0  0  0
  -21.9770    4.2130   -7.0470 C   0  0  0  0  0  0  0  0  0  0  0  0
  -21.4860    3.7750   -5.9020 N   0  0  0  0  0  0  0  0  0  0  0  0
  -18.4230    1.1820   -7.5630 N   0  0  0  0  0  0  0  0  0  0  0  0
  -17.0910    1.4680   -7.0340 C   0  0  2  0  0  0  0  0  0  0  0  0
  -16.0620    0.4490   -7.5390 C   0  0  0  0  0  0  0  0  0  0  0  0
  -16.2200   -0.1270   -8.6170 O   0  0  0  0  0  0  0  0  0  0  0  0
  -17.1260    1.4770   -5.5020 C   0  0  0  0  0  0  0  0  0  0  0  0
  -17.3310    2.8530   -4.8880 C   0  0  0  0  0  0  0  0  0  0  0  0
  -17.1790    2.8060   -3.3730 C   0  0  0  0  0  0  0  0  0  0  0  0
  -17.3420    4.1210   -2.7570 N   0  0  0  0  0  0  0  0  0  0  0  0
  -16.6210    4.5490   -1.7210 C   0  0  0  0  0  3  0  0  0  0  0  0
  -15.6850    3.7730   -1.1880 N   0  0  0  0  0  0  0  0  0  0  0  0
  -16.8340    5.7570   -1.2190 N   0  0  0  0  0  0  0  0  0  0  0  0
  -11.3890    3.3590   -3.4130 O   0  0  0  0  0  0  0  0  0  0  0  0
  -10.6580    2.4690   -3.8470 C   0  0  0  0  0  0  0  0  0  0  0  0
   -9.2280    2.3530   -3.3070 C   0  0  0  0  0  0  0  0  0  0  0  0
  -11.0570    1.6310   -4.7980 N   0  0  0  0  0  0  0  0  0  0  0  0
  -10.2790    1.3440   -5.9990 C   0  0  0  0  0  0  0  0  0  0  0  0
  -11.0220    0.4390   -6.9620 C   0  0  0  0  0  0  0  0  0  0  0  0
  -11.4950   -0.8290   -6.2760 C   0  0  0  0  0  0  0  0  0  0  0  0
  -12.9560   -0.7520   -5.8940 C   0  0  0  0  0  0  0  0  0  0  0  0
  -13.9330   -0.6860   -7.0850 C   0  0  2  0  0  0  0  0  0  0  0  0
  -15.0080    0.2450   -6.7510 N   0  0  0  0  0  0  0  0  0  0  0  0
  -14.5290   -2.0560   -7.3980 C   0  0  0  0  0  0  0  0  0  0  0  0
  -14.9150   -2.3380   -8.5330 O   0  0  0  0  0  0  0  0  0  0  0  0
  -14.5870   -2.8980   -6.3850 N   0  0  0  0  0  0  0  0  0  0  0  0
  -15.1980   -4.2090   -6.4950 C   0  0  2  0  0  0  0  0  0  0  0  0
  -16.3090   -4.2320   -5.4620 C   0  0  0  0  0  0  0  0  0  0  0  0
  -16.9180   -5.2570   -5.1560 O   0  0  0  0  0  0  0  0  0  0  0  0
  -14.1830   -5.3430   -6.2530 C   0  0  0  0  0  0  0  0  0  0  0  0
  -14.8340   -6.7090   -6.4230 C   0  0  0  0  0  0  0  0  0  0  0  0
  -13.0010   -5.1940   -7.2000 C   0  0  0  0  0  0  0  0  0  0  0  0
  -16.5430   -3.0290   -4.9460 N   0  0  0  0  0  0  0  0  0  0  0  0
  -17.5440   -2.7500   -3.9380 C   0  0  2  0  0  0  0  0  0  0  0  0
  -18.9260   -3.2490   -4.3630 C   0  0  0  0  0  0  0  0  0  0  0  0
  -19.2200   -4.4410   -4.2650 O   0  0  0  0  0  0  0  0  0  0  0  0
  -17.5560   -1.2350   -3.6960 C   0  0  0  0  0  0  0  0  0  0  0  0
  -16.4460   -0.6910   -2.7910 C   0  0  0  0  0  0  0  0  0  0  0  0
  -16.4130   -1.4420   -1.4710 C   0  0  0  0  0  0  0  0  0  0  0  0
  -15.0910   -0.7660   -3.4810 C   0  0  0  0  0  0  0  0  0  0  0  0
  -19.7700   -2.3310   -4.8350 N   0  0  0  0  0  0  0  0  0  0  0  0
  -21.1190   -2.6740   -5.2760 C   0  0  2  0  0  0  0  0  0  0  0  0
  -21.8320   -3.5460   -4.2440 C   0  0  0  0  0  0  0  0  0  0  0  0
  -21.9490   -4.7590   -4.4160 O   0  0  0  0  0  0  0  0  0  0  0  0
  -21.0640   -3.3950   -6.6250 C   0  0  0  0  0  0  0  0  0  0  0  0
  -22.4170   -3.5390   -7.3050 C   0  0  0  0  0  0  0  0  0  0  0  0
  -22.9430   -2.2010   -7.8040 C   0  0  0  0  0  0  0  0  0  0  0  0
  -23.4330   -1.3620   -6.7130 N   0  0  0  0  0  0  0  0  0  0  0  0
  -24.0520   -0.2000   -6.8950 C   0  0  0  0  0  3  0  0  0  0  0  0
  -24.2630    0.2590   -8.1210 N   0  0  0  0  0  0  0  0  0  0  0  0
  -24.4640    0.5030   -5.8490 N   0  0  0  0  0  0  0  0  0  0  0  0
  -22.3080   -2.9200   -3.1700 N   0  0  0  0  0  0  0  0  0  0  0  0
  -23.0080   -3.6390   -2.1120 C   0  0  2  0  0  0  0  0  0  0  0  0
  -24.2800   -4.2940   -2.6440 C   0  0  0  0  0  0  0  0  0  0  0  0
  -24.3830   -5.5210   -2.6850 O   0  0  0  0  0  0  0  0  0  0  0  0
  -23.3520   -2.6920   -0.9600 C   0  0  0  0  0  0  0  0  0  0  0  0
  -22.1150   -2.1680   -0.2560 C   0  0  0  0  0  0  0  0  0  0  0  0
  -21.6560   -2.8240    0.7030 O   0  5  0  0  0  0  0  0  0  0  0  0
  -21.6060   -1.1030   -0.6630 O   0  0  0  0  0  0  0  0  0  0  0  0
  -25.2420   -3.4650   -3.0480 N   0  0  0  0  0  0  0  0  0  0  0  0
  -26.5140   -3.9520   -3.5810 C   0  0  2  0  0  0  0  0  0  0  0  0
  -27.2950   -4.7290   -2.5250 C   0  0  0  0  0  0  0  0  0  0  0  0
  -26.8430   -5.7680   -2.0400 O   0  0  0  0  0  0  0  0  0  0  0  0
  -26.2830   -4.8310   -4.8130 C   0  0  0  0  0  0  0  0  0  0  0  0
  -27.5750   -5.3890   -5.3810 C   0  0  0  0  0  0  0  0  0  0  0  0
  -27.6030   -6.4970   -5.9160 O   0  0  0  0  0  0  0  0  0  0  0  0
  -28.6530   -4.6210   -5.2710 N   0  0  0  0  0  0  0  0  0  0  0  0
  -28.4730   -4.2210   -2.1750 N   0  0  0  0  0  0  0  0  0  0  0  0
  -29.3210   -4.8640   -1.1790 C   0  0  2  0  0  0  0  0  0  0  0  0
  -30.7970   -4.6150   -1.4730 C   0  0  0  0  0  0  0  0  0  0  0  0
  -31.6490   -5.4560   -1.1830 O   0  0  0  0  0  0  0  0  0  0  0  0
  -28.9920   -4.3640    0.2440 C   0  0  2  0  0  0  0  0  0  0  0  0
  -29.9040   -5.0390    1.2740 C   0  0  0  0  0  0  0  0  0  0  0  0
  -29.1270   -2.8490    0.3180 C   0  0  0  0  0  0  0  0  0  0  0  0
  -29.5430   -4.7190    2.7090 C   0  0  0  0  0  0  0  0  0  0  0  0
  -31.0920   -3.4570   -2.0550 N   0  0  0  0  0  0  0  0  0  0  0  0
  -32.4650   -3.0960   -2.3880 C   0  0  2  0  0  0  0  0  0  0  0  0
  -32.5950   -2.7610   -3.8720 C   0  0  0  0  0  0  0  0  0  0  0  0
  -32.3400   -1.5950   -4.2390 O   0  5  0  0  0  0  0  0  0  0  0  0
  -32.9190   -1.9060   -1.5400 C   0  0  0  0  0  0  0  0  0  0  0  0
  -34.3710   -1.5160   -1.7640 C   0  0  0  0  0  0  0  0  0  0  0  0
  -34.7960   -0.3350   -0.9130 C   0  0  0  0  0  0  0  0  0  0  0  0
  -34.2870   -0.1340    0.1890 O   0  0  0  0  0  0  0  0  0  0  0  0
  -35.7330    0.4560   -1.4240 N   0  0  0  0  0  0  0  0  0  0  0  0
  -32.9470   -3.6690   -4.6540 O   0  0  0  0  0  0  0  0  0  0  0  0
  -23.5693  -12.7686   -3.5840 H   0  0  0  0  0  0  0  0  0  0  0  0
  -22.1064  -12.3414   -2.9621 H   0  0  0  0  0  0  0  0  0  0  0  0
  -22.2152  -12.8825   -4.5128 H   0  0  0  0  0  0  0  0  0  0  0  0
  -23.3954  -10.3838   -3.4751 H   0  0  0  0  0  0  0  0  0  0  0  0
  -23.5141  -10.9744   -5.1673 H   0  0  0  0  0  0  0  0  0  0  0  0
  -22.4943   -8.4535   -4.5275 H   0  0  0  0  0  0  0  0  0  0  0  0
  -19.5523   -8.7549   -4.7260 H   0  0  0  0  0  0  0  0  0  0  0  0
  -20.4502   -7.2313   -4.4113 H   0  0  0  0  0  0  0  0  0  0  0  0
  -19.1798   -9.4125   -6.8102 H   0  0  0  0  0  0  0  0  0  0  0  0
  -18.8334   -9.2135   -9.0698 H   0  0  0  0  0  0  0  0  0  0  0  0
  -20.6581   -8.2638  -10.4502 H   0  0  0  0  0  0  0  0  0  0  0  0
  -21.4515   -7.6452   -8.9621 H   0  0  0  0  0  0  0  0  0  0  0  0
  -21.2741   -9.4146   -9.2162 H   0  0  0  0  0  0  0  0  0  0  0  0
  -18.5298   -7.5908  -10.8854 H   0  0  0  0  0  0  0  0  0  0  0  0
  -17.1218   -5.2568   -9.7412 H   0  0  0  0  0  0  0  0  0  0  0  0
  -16.1802   -5.0356  -12.0396 H   0  0  0  0  0  0  0  0  0  0  0  0
  -17.1701   -6.4437  -12.5537 H   0  0  0  0  0  0  0  0  0  0  0  0
  -15.9813   -7.8120  -10.8072 H   0  0  0  0  0  0  0  0  0  0  0  0
  -14.8991   -6.4059  -10.5279 H   0  0  0  0  0  0  0  0  0  0  0  0
  -14.2883   -6.4546  -12.9531 H   0  0  0  0  0  0  0  0  0  0  0  0
  -15.2821   -7.9394  -13.1386 H   0  0  0  0  0  0  0  0  0  0  0  0
  -13.8680   -9.0577  -11.4183 H   0  0  0  0  0  0  0  0  0  0  0  0
  -12.8412   -7.5857  -11.3426 H   0  0  0  0  0  0  0  0  0  0  0  0
  -11.9207   -9.2487  -12.8029 H   0  0  0  0  0  0  0  0  0  0  0  0
  -12.3353   -7.9108  -13.6674 H   0  0  0  0  0  0  0  0  0  0  0  0
  -13.2762   -9.2596  -13.7367 H   0  0  0  0  0  0  0  0  0  0  0  0
  -18.3955   -3.5416   -9.4285 H   0  0  0  0  0  0  0  0  0  0  0  0
  -19.5322   -2.1599  -11.6766 H   0  0  0  0  0  0  0  0  0  0  0  0
  -21.5248   -3.3230   -9.6797 H   0  0  0  0  0  0  0  0  0  0  0  0
  -21.2467   -3.9607  -11.3358 H   0  0  0  0  0  0  0  0  0  0  0  0
  -22.1538   -1.1208  -10.7126 H   0  0  0  0  0  0  0  0  0  0  0  0
  -23.2583   -2.4810  -11.1085 H   0  0  0  0  0  0  0  0  0  0  0  0
  -21.0123   -1.4331  -12.8892 H   0  0  0  0  0  0  0  0  0  0  0  0
  -22.7595   -1.0615  -13.0781 H   0  0  0  0  0  0  0  0  0  0  0  0
  -22.0690   -3.9352  -13.0761 H   0  0  0  0  0  0  0  0  0  0  0  0
  -22.9557   -1.8711  -16.4658 H   0  0  0  0  0  0  0  0  0  0  0  0
  -22.6033   -0.9807  -14.9605 H   0  0  0  0  0  0  0  0  0  0  0  0
  -22.5179   -5.0595  -14.9956 H   0  0  0  0  0  0  0  0  0  0  0  0
  -22.9077   -4.1595  -16.4858 H   0  0  0  0  0  0  0  0  0  0  0  0
  -20.5512   -0.1306  -11.0468 H   0  0  0  0  0  0  0  0  0  0  0  0
  -20.5036    1.8581   -9.9032 H   0  0  0  0  0  0  0  0  0  0  0  0
  -20.5988    0.1375   -7.3927 H   0  0  0  0  0  0  0  0  0  0  0  0
  -22.0241    0.4595   -8.4374 H   0  0  0  0  0  0  0  0  0  0  0  0
  -20.6146    1.8446   -5.3006 H   0  0  0  0  0  0  0  0  0  0  0  0
  -22.3885    5.2053   -7.2259 H   0  0  0  0  0  0  0  0  0  0  0  0
  -21.4288    4.3181   -5.0287 H   0  0  0  0  0  0  0  0  0  0  0  0
  -19.1375    0.8619   -6.9408 H   0  0  0  0  0  0  0  0  0  0  0  0
  -16.7872    2.4662   -7.3822 H   0  0  0  0  0  0  0  0  0  0  0  0
  -16.1711    1.0743   -5.1334 H   0  0  0  0  0  0  0  0  0  0  0  0
  -17.9498    0.8268   -5.1725 H   0  0  0  0  0  0  0  0  0  0  0  0
  -18.3411    3.2105   -5.1367 H   0  0  0  0  0  0  0  0  0  0  0  0
  -16.5843    3.5462   -5.3025 H   0  0  0  0  0  0  0  0  0  0  0  0
  -16.1766    2.4236   -3.1300 H   0  0  0  0  0  0  0  0  0  0  0  0
  -17.9402    2.1265   -2.9622 H   0  0  0  0  0  0  0  0  0  0  0  0
  -18.0555    4.7539   -3.1460 H   0  0  0  0  0  0  0  0  0  0  0  0
  -15.1313    4.1097   -0.3874 H   0  0  0  0  0  0  0  0  0  0  0  0
  -15.5125    2.8342   -1.5750 H   0  0  0  0  0  0  0  0  0  0  0  0
  -17.5587    6.3642   -1.6278 H   0  0  0  0  0  0  0  0  0  0  0  0
  -16.2749    6.0886   -0.4201 H   0  0  0  0  0  0  0  0  0  0  0  0
   -8.7177    1.5114   -3.7983 H   0  0  0  0  0  0  0  0  0  0  0  0
   -9.2590    2.1796   -2.2212 H   0  0  0  0  0  0  0  0  0  0  0  0
   -8.6811    3.2847   -3.5141 H   0  0  0  0  0  0  0  0  0  0  0  0
  -11.9382    1.1721   -4.6846 H   0  0  0  0  0  0  0  0  0  0  0  0
   -9.3405    0.8521   -5.7036 H   0  0  0  0  0  0  0  0  0  0  0  0
  -10.0515    2.2921   -6.5083 H   0  0  0  0  0  0  0  0  0  0  0  0
  -10.3502    0.1688   -7.7900 H   0  0  0  0  0  0  0  0  0  0  0  0
  -11.8948    0.9781   -7.3589 H   0  0  0  0  0  0  0  0  0  0  0  0
  -10.8973   -0.9852   -5.3659 H   0  0  0  0  0  0  0  0  0  0  0  0
  -11.3506   -1.6784   -6.9598 H   0  0  0  0  0  0  0  0  0  0  0  0
  -13.1024    0.1495   -5.2810 H   0  0  0  0  0  0  0  0  0  0  0  0
  -13.2016   -1.6439   -5.2990 H   0  0  0  0  0  0  0  0  0  0  0  0
  -13.3940   -0.3214   -7.9718 H   0  0  0  0  0  0  0  0  0  0  0  0
  -14.9498    0.7524   -5.8912 H   0  0  0  0  0  0  0  0  0  0  0  0
  -14.1948   -2.6223   -5.5074 H   0  0  0  0  0  0  0  0  0  0  0  0
  -15.6247   -4.3330   -7.5012 H   0  0  0  0  0  0  0  0  0  0  0  0
  -13.8142   -5.2633   -5.2197 H   0  0  0  0  0  0  0  0  0  0  0  0
  -14.0866   -7.4961   -6.2445 H   0  0  0  0  0  0  0  0  0  0  0  0
  -15.2280   -6.8027   -7.4457 H   0  0  0  0  0  0  0  0  0  0  0  0
  -15.6576   -6.8150   -5.7016 H   0  0  0  0  0  0  0  0  0  0  0  0
  -12.5442   -4.2027   -7.0631 H   0  0  0  0  0  0  0  0  0  0  0  0
  -13.3480   -5.2975   -8.2387 H   0  0  0  0  0  0  0  0  0  0  0  0
  -12.2564   -5.9740   -6.9827 H   0  0  0  0  0  0  0  0  0  0  0  0
  -15.9896   -2.2646   -5.2769 H   0  0  0  0  0  0  0  0  0  0  0  0
  -17.2638   -3.2608   -3.0050 H   0  0  0  0  0  0  0  0  0  0  0  0
  -18.5216   -0.9749   -3.2378 H   0  0  0  0  0  0  0  0  0  0  0  0
  -17.4679   -0.7373   -4.6730 H   0  0  0  0  0  0  0  0  0  0  0  0
  -16.6646    0.3661   -2.5798 H   0  0  0  0  0  0  0  0  0  0  0  0
  -15.6103   -1.0358   -0.8381 H   0  0  0  0  0  0  0  0  0  0  0  0
  -16.2257   -2.5092   -1.6608 H   0  0  0  0  0  0  0  0  0  0  0  0
  -17.3790   -1.3248   -0.9582 H   0  0  0  0  0  0  0  0  0  0  0  0
  -15.1338   -0.2176   -4.4336 H   0  0  0  0  0  0  0  0  0  0  0  0
  -14.8360   -1.8183   -3.6749 H   0  0  0  0  0  0  0  0  0  0  0  0
  -14.3242   -0.3162   -2.8331 H   0  0  0  0  0  0  0  0  0  0  0  0
  -19.4699   -1.3786   -4.8886 H   0  0  0  0  0  0  0  0  0  0  0  0
  -21.6915   -1.7428   -5.3987 H   0  0  0  0  0  0  0  0  0  0  0  0
  -20.6495   -4.4010   -6.4630 H   0  0  0  0  0  0  0  0  0  0  0  0
  -20.3995   -2.8279   -7.2935 H   0  0  0  0  0  0  0  0  0  0  0  0
  -23.1350   -3.9577   -6.5845 H   0  0  0  0  0  0  0  0  0  0  0  0
  -22.3148   -4.2229   -8.1604 H   0  0  0  0  0  0  0  0  0  0  0  0
  -23.7678   -2.3844   -8.5083 H   0  0  0  0  0  0  0  0  0  0  0  0
  -22.1299   -1.6708   -8.3215 H   0  0  0  0  0  0  0  0  0  0  0  0
  -23.2905   -1.6899   -5.7470 H   0  0  0  0  0  0  0  0  0  0  0  0
  -24.7430    1.1599   -8.2581 H   0  0  0  0  0  0  0  0  0  0  0  0
  -23.9469   -0.2854   -8.9362 H   0  0  0  0  0  0  0  0  0  0  0  0
  -24.3020    0.1499   -4.8951 H   0  0  0  0  0  0  0  0  0  0  0  0
  -24.9460    1.4022   -5.9904 H   0  0  0  0  0  0  0  0  0  0  0  0
  -22.1823   -1.9314   -3.0866 H   0  0  0  0  0  0  0  0  0  0  0  0
  -22.3431   -4.4280   -1.7306 H   0  0  0  0  0  0  0  0  0  0  0  0
  -23.9716   -3.2335   -0.2300 H   0  0  0  0  0  0  0  0  0  0  0  0
  -23.9189   -1.8388   -1.3608 H   0  0  0  0  0  0  0  0  0  0  0  0
  -25.0894   -2.4787   -2.9847 H   0  0  0  0  0  0  0  0  0  0  0  0
  -27.1146   -3.0814   -3.8834 H   0  0  0  0  0  0  0  0  0  0  0  0
  -25.6309   -5.6704   -4.5299 H   0  0  0  0  0  0  0  0  0  0  0  0
  -25.7885   -4.2279   -5.5887 H   0  0  0  0  0  0  0  0  0  0  0  0
  -29.5316   -4.9384   -5.6279 H   0  0  0  0  0  0  0  0  0  0  0  0
  -28.5861   -3.7253   -4.8313 H   0  0  0  0  0  0  0  0  0  0  0  0
  -28.7856   -3.3749   -2.6068 H   0  0  0  0  0  0  0  0  0  0  0  0
  -29.1349   -5.9474   -1.2192 H   0  0  0  0  0  0  0  0  0  0  0  0
  -27.9503   -4.6316    0.4748 H   0  0  0  0  0  0  0  0  0  0  0  0
  -29.8392   -6.1282    1.1343 H   0  0  0  0  0  0  0  0  0  0  0  0
  -30.9370   -4.7070    1.0936 H   0  0  0  0  0  0  0  0  0  0  0  0
  -28.4652   -2.3851   -0.4282 H   0  0  0  0  0  0  0  0  0  0  0  0
  -28.8442   -2.5043    1.3236 H   0  0  0  0  0  0  0  0  0  0  0  0
  -30.1690   -2.5632    0.1120 H   0  0  0  0  0  0  0  0  0  0  0  0
  -30.2383   -5.2367    3.3862 H   0  0  0  0  0  0  0  0  0  0  0  0
  -29.6132   -3.6333    2.8714 H   0  0  0  0  0  0  0  0  0  0  0  0
  -28.5153   -5.0545    2.9121 H   0  0  0  0  0  0  0  0  0  0  0  0
  -30.3539   -2.8174   -2.2699 H   0  0  0  0  0  0  0  0  0  0  0  0
  -33.1152   -3.9549   -2.1655 H   0  0  0  0  0  0  0  0  0  0  0  0
  -32.2851   -1.0416   -1.7866 H   0  0  0  0  0  0  0  0  0  0  0  0
  -32.7887   -2.1655   -0.4790 H   0  0  0  0  0  0  0  0  0  0  0  0
  -35.0093   -2.3768   -1.5157 H   0  0  0  0  0  0  0  0  0  0  0  0
  -34.5057   -1.2531   -2.8236 H   0  0  0  0  0  0  0  0  0  0  0  0
  -36.0528    1.2505   -0.9077 H   0  0  0  0  0  0  0  0  0  0  0  0
  -36.1185    0.2570   -2.3250 H   0  0  0  0  0  0  0  0  0  0  0  0
  1127  1  0  0  0  0
  1128  1  0  0  0  0
  1129  1  0  0  0  0
  2  1  1  0  0  0  0
  2130  1  0  0  0  0
  2131  1  0  0  0  0
  3  2  1  0  0  0  0
  3  4  2  0  0  0  0
  5  3  1  0  0  0  0
  5132  1  0  0  0  0
  6  5  1  0  0  0  0
  6133  1  0  0  0  0
  6134  1  0  0  0  0
  7  6  1  0  0  0  0
  7  8  2  0  0  0  0
  9  7  1  0  0  0  0
  9135  1  0  0  0  0
 10  9  1  0  0  0  0
 10 13  1  0  0  0  0
 10136  1  6  0  0  0
 11 10  1  0  0  0  0
 11 12  2  0  0  0  0
 13137  1  0  0  0  0
 13138  1  0  0  0  0
 13139  1  0  0  0  0
 14 11  1  0  0  0  0
 14140  1  0  0  0  0
 15 14  1  0  0  0  0
 15 18  1  0  0  0  0
 15141  1  1  0  0  0
 16 15  1  0  0  0  0
 16 17  2  0  0  0  0
 18 19  1  0  0  0  0
 18142  1  0  0  0  0
 18143  1  0  0  0  0
 19 20  1  0  0  0  0
 19144  1  0  0  0  0
 19145  1  0  0  0  0
 20 21  1  0  0  0  0
 20146  1  0  0  0  0
 20147  1  0  0  0  0
 21 22  1  0  0  0  0
 21148  1  0  0  0  0
 21149  1  0  0  0  0
 22150  1  0  0  0  0
 22151  1  0  0  0  0
 22152  1  0  0  0  0
 23 16  1  0  0  0  0
 23153  1  0  0  0  0
 24 23  1  0  0  0  0
 24 27  1  0  0  0  0
 24154  1  6  0  0  0
 25 24  1  0  0  0  0
 25 26  2  0  0  0  0
 27 28  1  0  0  0  0
 27155  1  0  0  0  0
 27156  1  0  0  0  0
 28 29  1  0  0  0  0
 28157  1  0  0  0  0
 28158  1  0  0  0  0
 29 30  1  0  0  0  0
 29159  1  0  0  0  0
 29160  1  0  0  0  0
 30 31  1  0  0  0  0
 30161  1  0  0  0  0
 31 32  1  0  0  0  0
 31 33  1  0  0  0  0
 32162  1  0  0  0  0
 32163  1  0  0  0  0
 33164  1  0  0  0  0
 33165  1  0  0  0  0
 34 25  1  0  0  0  0
 34166  1  0  0  0  0
 35 34  1  0  0  0  0
 35 38  1  0  0  0  0
 35167  1  6  0  0  0
 36 35  1  0  0  0  0
 36 37  2  0  0  0  0
 38 39  1  0  0  0  0
 38168  1  0  0  0  0
 38169  1  0  0  0  0
 39 40  1  0  0  0  0
 39 41  2  0  0  0  0
 40 42  2  0  0  0  0
 41 43  1  0  0  0  0
 41170  1  0  0  0  0
 42171  1  0  0  0  0
 43 42  1  0  0  0  0
 43172  1  0  0  0  0
 44 36  1  0  0  0  0
 44173  1  0  0  0  0
 45 44  1  0  0  0  0
 45 48  1  0  0  0  0
 45174  1  6  0  0  0
 46 45  1  0  0  0  0
 46 47  2  0  0  0  0
 48 49  1  0  0  0  0
 48175  1  0  0  0  0
 48176  1  0  0  0  0
 49 50  1  0  0  0  0
 49177  1  0  0  0  0
 49178  1  0  0  0  0
 50 51  1  0  0  0  0
 50179  1  0  0  0  0
 50180  1  0  0  0  0
 51 52  1  0  0  0  0
 51181  1  0  0  0  0
 52 53  1  0  0  0  0
 52 54  1  0  0  0  0
 53182  1  0  0  0  0
 53183  1  0  0  0  0
 54184  1  0  0  0  0
 54185  1  0  0  0  0
 56 55  2  0  0  0  0
 56 57  1  0  0  0  0
 57186  1  0  0  0  0
 57187  1  0  0  0  0
 57188  1  0  0  0  0
 58 56  1  0  0  0  0
 58189  1  0  0  0  0
 59 58  1  0  0  0  0
 59190  1  0  0  0  0
 59191  1  0  0  0  0
 60 59  1  0  0  0  0
 60192  1  0  0  0  0
 60193  1  0  0  0  0
 61 60  1  0  0  0  0
 61194  1  0  0  0  0
 61195  1  0  0  0  0
 62 61  1  0  0  0  0
 62196  1  0  0  0  0
 62197  1  0  0  0  0
 63 62  1  0  0  0  0
 63 64  1  0  0  0  0
 63 65  1  0  0  0  0
 63198  1  6  0  0  0
 64 46  1  0  0  0  0
 64199  1  0  0  0  0
 65 66  2  0  0  0  0
 65 67  1  0  0  0  0
 67 68  1  0  0  0  0
 67200  1  0  0  0  0
 68 69  1  0  0  0  0
 68 71  1  0  0  0  0
 68201  1  6  0  0  0
 69 70  2  0  0  0  0
 69 74  1  0  0  0  0
 71 72  1  0  0  0  0
 71 73  1  0  0  0  0
 71202  1  0  0  0  0
 72203  1  0  0  0  0
 72204  1  0  0  0  0
 72205  1  0  0  0  0
 73206  1  0  0  0  0
 73207  1  0  0  0  0
 73208  1  0  0  0  0
 74 75  1  0  0  0  0
 74209  1  0  0  0  0
 75 76  1  0  0  0  0
 75 78  1  0  0  0  0
 75210  1  1  0  0  0
 76 77  2  0  0  0  0
 76 82  1  0  0  0  0
 78 79  1  0  0  0  0
 78211  1  0  0  0  0
 78212  1  0  0  0  0
 79 80  1  0  0  0  0
 79 81  1  0  0  0  0
 79213  1  0  0  0  0
 80214  1  0  0  0  0
 80215  1  0  0  0  0
 80216  1  0  0  0  0
 81217  1  0  0  0  0
 81218  1  0  0  0  0
 81219  1  0  0  0  0
 82 83  1  0  0  0  0
 82220  1  0  0  0  0
 83 84  1  0  0  0  0
 83 86  1  0  0  0  0
 83221  1  6  0  0  0
 84 85  2  0  0  0  0
 84 93  1  0  0  0  0
 86 87  1  0  0  0  0
 86222  1  0  0  0  0
 86223  1  0  0  0  0
 87 88  1  0  0  0  0
 87224  1  0  0  0  0
 87225  1  0  0  0  0
 88 89  1  0  0  0  0
 88226  1  0  0  0  0
 88227  1  0  0  0  0
 89 90  1  0  0  0  0
 89228  1  0  0  0  0
 90 91  1  0  0  0  0
 90 92  1  0  0  0  0
 91229  1  0  0  0  0
 91230  1  0  0  0  0
 92231  1  0  0  0  0
 92232  1  0  0  0  0
 93 94  1  0  0  0  0
 93233  1  0  0  0  0
 94 95  1  0  0  0  0
 94 97  1  0  0  0  0
 94234  1  1  0  0  0
 95 96  2  0  0  0  0
 95101  1  0  0  0  0
 97 98  1  0  0  0  0
 97235  1  0  0  0  0
 97236  1  0  0  0  0
 98 99  1  0  0  0  0
 98100  2  0  0  0  0
101102  1  0  0  0  0
101237  1  0  0  0  0
102103  1  0  0  0  0
102105  1  0  0  0  0
102238  1  6  0  0  0
103104  2  0  0  0  0
103109  1  0  0  0  0
105106  1  0  0  0  0
105239  1  0  0  0  0
105240  1  0  0  0  0
106107  2  0  0  0  0
106108  1  0  0  0  0
108241  1  0  0  0  0
108242  1  0  0  0  0
109110  1  0  0  0  0
109243  1  0  0  0  0
110111  1  0  0  0  0
110113  1  0  0  0  0
110244  1  6  0  0  0
111112  2  0  0  0  0
111117  1  0  0  0  0
113114  1  0  0  0  0
113115  1  0  0  0  0
113245  1  1  0  0  0
114116  1  0  0  0  0
114246  1  0  0  0  0
114247  1  0  0  0  0
115248  1  0  0  0  0
115249  1  0  0  0  0
115250  1  0  0  0  0
116251  1  0  0  0  0
116252  1  0  0  0  0
116253  1  0  0  0  0
117118  1  0  0  0  0
117254  1  0  0  0  0
118119  1  0  0  0  0
118121  1  0  0  0  0
118255  1  1  0  0  0
119120  1  0  0  0  0
119126  2  0  0  0  0
121122  1  0  0  0  0
121256  1  0  0  0  0
121257  1  0  0  0  0
122123  1  0  0  0  0
122258  1  0  0  0  0
122259  1  0  0  0  0
123124  2  0  0  0  0
123125  1  0  0  0  0
125260  1  0  0  0  0
125261  1  0  0  0  0
M  CHG  4   1   1  22   1  99  -1 120  -1
M  END
