2rok_ligand
 OpenBabel08222323343D

 82 87  0  0  1  0  0  0  0  0999 V2000
   -9.7030   -3.2220   11.6400 P   0  0  1  0  0  0  0  0  0  0  0  0
  -10.8260   -2.3110   11.9650 O   0  0  0  0  0  1  0  0  0  0  0  0
   -9.5420   -3.6660   10.2340 O   0  0  0  0  0  0  0  0  0  0  0  0
   -8.3300   -2.5090   12.0950 O   0  0  0  0  0  0  0  0  0  0  0  0
   -7.0740   -3.1550   11.9540 C   0  0  0  0  0  0  0  0  0  0  0  0
   -5.8940   -2.2410   12.3250 C   0  0  1  0  0  0  0  0  0  0  0  0
   -5.7720   -1.1240   11.4600 O   0  0  0  0  0  0  0  0  0  0  0  0
   -5.9510   -1.6800   13.7530 C   0  0  1  0  0  0  0  0  0  0  0  0
   -5.4970   -2.5880   14.7560 O   0  0  0  0  0  0  0  0  0  0  0  0
   -5.0330   -0.4550   13.6240 C   0  0  1  0  0  0  0  0  0  0  0  0
   -3.6480   -0.7940   13.7150 O   0  0  0  0  0  0  0  0  0  0  0  0
   -5.3400    0.0130   12.1970 C   0  0  2  0  0  0  0  0  0  0  0  0
   -6.4370    1.0040   12.1260 N   0  0  0  0  0  0  0  0  0  0  0  0
   -7.7940    0.7580   12.1650 C   0  0  0  0  0  0  0  0  0  0  0  0
   -8.4800    1.9280   11.7730 N   0  3  1  0  0  0  0  0  0  0  0  0
   -7.5020    2.8630   11.5790 C   0  0  2  0  0  0  0  0  0  0  0  0
   -7.6080    4.1980   11.1560 C   0  0  0  0  0  0  0  0  0  0  0  0
   -8.6070    4.8220   10.8320 O   0  0  0  0  0  0  0  0  0  0  0  0
   -6.4220    4.8360   11.1060 N   0  0  0  0  0  0  0  0  0  0  0  0
   -5.2730    4.2450   11.3500 C   0  0  0  0  0  0  0  0  0  0  0  0
   -4.2610    5.0170   11.2160 N   0  0  0  0  0  0  0  0  0  0  0  0
   -5.0900    3.0070   11.7380 N   0  0  0  0  0  0  0  0  0  0  0  0
   -6.2670    2.3410   11.8250 C   0  0  0  0  0  0  0  0  0  0  0  0
   -9.9720    1.9390   11.6380 C   0  0  0  0  0  0  0  0  0  0  0  0
  -10.2780   -4.7520   13.9580 P   0  0  2  0  0  0  0  0  0  0  0  0
   -9.4520   -5.8960   14.4250 O   0  0  0  0  0  1  0  0  0  0  0  0
  -11.7530   -4.9360   13.8850 O   0  0  0  0  0  0  0  0  0  0  0  0
   -9.8160   -4.5290   12.4870 O   0  0  0  0  0  0  0  0  0  0  0  0
   -9.9270   -3.4670   14.7260 O   0  0  0  0  0  0  0  0  0  0  0  0
   -9.8110   -3.4180   16.2620 P   0  0  2  0  0  0  0  0  0  0  0  0
   -8.3950   -3.6340   16.6670 O   0  0  0  0  0  1  0  0  0  0  0  0
  -10.8750   -4.2050   16.9470 O   0  0  0  0  0  0  0  0  0  0  0  0
  -10.1410   -1.8660   16.6000 O   0  0  0  0  0  0  0  0  0  0  0  0
   -9.5580   -0.7830   15.8750 C   0  0  0  0  0  0  0  0  0  0  0  0
   -8.1270   -0.4400   16.3240 C   0  0  1  0  0  0  0  0  0  0  0  0
   -7.6250    0.5600   15.4400 O   0  0  0  0  0  0  0  0  0  0  0  0
   -8.0690    0.1220   17.7550 C   0  0  1  0  0  0  0  0  0  0  0  0
   -6.8360   -0.2270   18.3920 O   0  0  0  0  0  0  0  0  0  0  0  0
   -8.1410    1.6290   17.4780 C   0  0  1  0  0  0  0  0  0  0  0  0
   -7.6120    2.4260   18.5340 O   0  0  0  0  0  0  0  0  0  0  0  0
   -7.3230    1.7250   16.1880 C   0  0  2  0  0  0  0  0  0  0  0  0
   -7.6380    2.9380   15.4040 N   0  0  0  0  0  0  0  0  0  0  0  0
   -8.8580    3.3660   14.9480 C   0  0  0  0  0  0  0  0  0  0  0  0
   -8.8390    4.5540   14.3960 N   0  0  0  0  0  0  0  0  0  0  0  0
   -7.4900    4.9330   14.4700 C   0  0  0  0  0  0  0  0  0  0  0  0
   -6.7950    6.1190   14.0290 C   0  0  0  0  0  0  0  0  0  0  0  0
   -7.2430    7.1380   13.5010 O   0  0  0  0  0  0  0  0  0  0  0  0
   -5.4270    6.0560   14.2190 N   0  0  0  0  0  0  0  0  0  0  0  0
   -4.7940    4.9990   14.7840 C   0  0  2  0  0  3  0  0  0  0  0  0
   -3.4930    5.0550   14.8520 N   0  0  0  0  0  0  0  0  0  0  0  0
   -5.3960    3.9030   15.2390 N   0  0  0  0  0  0  0  0  0  0  0  0
   -6.7480    3.9240   15.0490 C   0  0  0  0  0  0  0  0  0  0  0  0
   -6.9572   -3.4738   10.9077 H   0  0  0  0  0  0  0  0  0  0  0  0
   -7.0560   -4.0375   12.6104 H   0  0  0  0  0  0  0  0  0  0  0  0
   -4.9816   -2.8489   12.2353 H   0  0  0  0  0  0  0  0  0  0  0  0
   -6.9775   -1.3746   14.0040 H   0  0  0  0  0  0  0  0  0  0  0  0
   -4.5926   -2.8223   14.5835 H   0  0  0  0  0  0  0  0  0  0  0  0
   -5.2808    0.3114   14.3731 H   0  0  0  0  0  0  0  0  0  0  0  0
   -3.4771   -1.1998   14.5568 H   0  0  0  0  0  0  0  0  0  0  0  0
   -4.4301    0.4416   11.7517 H   0  0  0  0  0  0  0  0  0  0  0  0
   -8.0903    0.4808   13.1874 H   0  0  0  0  0  0  0  0  0  0  0  0
   -8.0408   -0.0634   11.4763 H   0  0  0  0  0  0  0  0  0  0  0  0
   -8.6070    2.2434   12.7219 H   0  0  0  0  0  0  0  0  0  0  0  0
   -7.6172    3.2076   12.6172 H   0  0  0  0  0  0  0  0  0  0  0  0
   -6.4154    5.8081   10.8715 H   0  0  0  0  0  0  0  0  0  0  0  0
   -3.3316    4.6628   11.3799 H   0  0  0  0  0  0  0  0  0  0  0  0
  -10.3711    0.9480   11.8999 H   0  0  0  0  0  0  0  0  0  0  0  0
  -10.2445    2.1815   10.6003 H   0  0  0  0  0  0  0  0  0  0  0  0
  -10.3959    2.6955   12.3148 H   0  0  0  0  0  0  0  0  0  0  0  0
  -10.1886    0.1076   16.0135 H   0  0  0  0  0  0  0  0  0  0  0  0
   -9.5326   -1.0521   14.8087 H   0  0  0  0  0  0  0  0  0  0  0  0
   -7.5037   -1.3446   16.2666 H   0  0  0  0  0  0  0  0  0  0  0  0
   -8.9163   -0.2230   18.3658 H   0  0  0  0  0  0  0  0  0  0  0  0
   -6.8234    0.1302   19.2722 H   0  0  0  0  0  0  0  0  0  0  0  0
   -9.1813    1.9397   17.3014 H   0  0  0  0  0  0  0  0  0  0  0  0
   -6.6982    2.2042   18.6695 H   0  0  0  0  0  0  0  0  0  0  0  0
   -6.2517    1.7394   16.4371 H   0  0  0  0  0  0  0  0  0  0  0  0
   -9.7649    2.7697   15.0370 H   0  0  0  0  0  0  0  0  0  0  0  0
   -4.8733    6.8342   13.9228 H   0  0  0  0  0  0  0  0  0  0  0  0
   -2.9653    4.2768   15.2725 H   0  0  0  0  0  0  0  0  0  0  0  0
   -2.9930    5.8774   14.4852 H   0  0  0  0  0  0  0  0  0  0  0  0
   -4.8955    3.1221   15.6868 H   0  0  0  0  0  0  0  0  0  0  0  0
  1  2  1  1  0  0  0
  1  3  2  0  0  0  0
  1  4  1  0  0  0  0
  4  5  1  0  0  0  0
  5  6  1  0  0  0  0
  5 53  1  0  0  0  0
  5 54  1  0  0  0  0
  6  7  1  0  0  0  0
  6  8  1  0  0  0  0
  6 55  1  6  0  0  0
  7 12  1  0  0  0  0
  8  9  1  0  0  0  0
  8 10  1  0  0  0  0
  8 56  1  1  0  0  0
  9 57  1  0  0  0  0
 10 11  1  0  0  0  0
 10 12  1  0  0  0  0
 10 58  1  1  0  0  0
 11 59  1  0  0  0  0
 12 13  1  0  0  0  0
 12 60  1  6  0  0  0
 13 14  1  0  0  0  0
 13 23  1  0  0  0  0
 14 15  1  0  0  0  0
 14 61  1  0  0  0  0
 14 62  1  0  0  0  0
 15 24  1  0  0  0  0
 15 63  1  1  0  0  0
 16 15  1  0  0  0  0
 16 17  1  0  0  0  0
 16 64  1  1  0  0  0
 17 18  2  0  0  0  0
 17 19  1  0  0  0  0
 19 65  1  0  0  0  0
 20 19  1  0  0  0  0
 20 21  2  0  0  0  0
 21 66  1  0  0  0  0
 22 20  1  0  0  0  0
 23 16  1  0  0  0  0
 23 22  2  0  0  0  0
 24 67  1  0  0  0  0
 24 68  1  0  0  0  0
 24 69  1  0  0  0  0
 25 26  1  1  0  0  0
 25 27  2  0  0  0  0
 25 28  1  0  0  0  0
 25 29  1  0  0  0  0
 28  1  1  0  0  0  0
 29 30  1  0  0  0  0
 30 31  1  1  0  0  0
 30 32  2  0  0  0  0
 30 33  1  0  0  0  0
 33 34  1  0  0  0  0
 34 35  1  0  0  0  0
 34 70  1  0  0  0  0
 34 71  1  0  0  0  0
 35 36  1  0  0  0  0
 35 37  1  0  0  0  0
 35 72  1  6  0  0  0
 36 41  1  0  0  0  0
 37 38  1  0  0  0  0
 37 39  1  0  0  0  0
 37 73  1  1  0  0  0
 38 74  1  0  0  0  0
 39 40  1  0  0  0  0
 39 41  1  0  0  0  0
 39 75  1  6  0  0  0
 40 76  1  0  0  0  0
 41 42  1  0  0  0  0
 41 77  1  1  0  0  0
 42 43  1  0  0  0  0
 42 52  1  0  0  0  0
 43 44  2  0  0  0  0
 43 78  1  0  0  0  0
 44 45  1  0  0  0  0
 45 46  1  0  0  0  0
 45 52  2  0  0  0  0
 46 47  2  0  0  0  0
 46 48  1  0  0  0  0
 48 49  1  0  0  0  0
 48 79  1  0  0  0  0
 49 50  1  6  0  0  0
 49 51  1  0  0  0  0
 50 80  1  0  0  0  0
 50 81  1  0  0  0  0
 51 52  1  0  0  0  0
 51 82  1  0  0  0  0
M  CHG  1  15   1
M  END
