2rqu_ligand
 OpenBabel08222323343D

303304  0  0  1  0  0  0  0  0999 V2000
   17.5200    8.4010   14.0860 N   0  3  0  0  0  0  0  0  0  0  0  0
   18.4300    9.4360   13.5580 C   0  0  2  0  0  0  0  0  0  0  0  0
   17.6350   10.5610   12.9140 C   0  0  0  0  0  0  0  0  0  0  0  0
   16.9900   10.3570   11.8850 O   0  0  0  0  0  0  0  0  0  0  0  0
   19.3620    8.8190   12.5150 C   0  0  0  0  0  0  0  0  0  0  0  0
   20.2360    7.3450   13.0870 S   0  0  0  0  0  0  0  0  0  0  0  0
   17.6700   11.7390   13.5250 N   0  0  0  0  0  0  0  0  0  0  0  0
   17.0080   12.9010   12.9570 C   0  0  2  0  0  0  0  0  0  0  0  0
   17.7150   13.3400   11.6880 C   0  0  0  0  0  0  0  0  0  0  0  0
   18.9410   13.4840   11.6580 O   0  0  0  0  0  0  0  0  0  0  0  0
   16.9580   14.0960   13.9360 C   0  0  2  0  0  0  0  0  0  0  0  0
   16.0160   13.8020   15.1010 C   0  0  0  0  0  0  0  0  0  0  0  0
   16.5260   15.3700   13.2160 C   0  0  0  0  0  0  0  0  0  0  0  0
   15.7670   15.0090   15.9780 C   0  0  0  0  0  0  0  0  0  0  0  0
   16.9410   13.5350   10.6440 N   0  0  0  0  0  0  0  0  0  0  0  0
   17.4640   14.0530    9.4000 C   0  0  2  0  0  0  0  0  0  0  0  0
   17.5700   15.5670    9.4860 C   0  0  0  0  0  0  0  0  0  0  0  0
   16.6550   16.2190    9.9590 O   0  0  0  0  0  0  0  0  0  0  0  0
   16.5790   13.6200    8.2010 C   0  0  2  0  0  0  0  0  0  0  0  0
   17.0740   12.2910    7.6350 C   0  0  0  0  0  0  0  0  0  0  0  0
   16.5270   14.6750    7.1100 C   0  0  0  0  0  0  0  0  0  0  0  0
   17.0140   11.1690    8.6350 C   0  0  0  0  0  0  0  0  0  0  0  0
   18.7240   16.0900    9.0990 N   0  0  0  0  0  0  0  0  0  0  0  0
   18.9560   17.5280    9.0060 C   0  0  2  0  0  0  0  0  0  0  0  0
   18.4570   18.2750   10.2500 C   0  0  0  0  0  0  0  0  0  0  0  0
   18.5990   17.8020   11.3860 O   0  0  0  0  0  0  0  0  0  0  0  0
   18.2450   18.0590    7.7570 C   0  0  0  0  0  0  0  0  0  0  0  0
   18.7390   19.3350    7.3700 O   0  0  0  0  0  0  0  0  0  0  0  0
   17.9130   19.4580   10.0130 N   0  0  0  0  0  0  0  0  0  0  0  0
   17.2000   20.2130   11.0220 C   0  0  2  0  0  0  0  0  0  0  0  0
   15.7090   20.1550   10.7150 C   0  0  0  0  0  0  0  0  0  0  0  0
   15.3230   20.0130    9.5530 O   0  0  0  0  0  0  0  0  0  0  0  0
   17.6810   21.6520   11.0410 C   0  0  0  0  0  0  0  0  0  0  0  0
   14.8830   20.2660   11.7480 N   0  0  0  0  0  0  0  0  0  0  0  0
   13.4340   20.1320   11.6060 C   0  0  2  0  0  0  0  0  0  0  0  0
   12.8650   21.0740   10.5500 C   0  0  0  0  0  0  0  0  0  0  0  0
   13.1730   22.2670   10.5340 O   0  0  0  0  0  0  0  0  0  0  0  0
   12.7430   20.3720   12.9520 C   0  0  0  0  0  0  0  0  0  0  0  0
   11.2380   20.5580   12.8430 C   0  0  0  0  0  0  0  0  0  0  0  0
   10.3450   19.7850   14.2000 S   0  0  0  0  0  0  0  0  0  0  0  0
   10.6850   18.0660   13.8430 C   0  0  0  0  0  0  0  0  0  0  0  0
   12.0150   20.5370    9.6590 N   0  0  0  0  0  0  0  0  0  0  0  0
   11.3500   21.3110    8.6320 C   0  0  2  0  0  0  0  0  0  0  0  0
   10.1040   21.9830    9.1770 C   0  0  0  0  0  0  0  0  0  0  0  0
    9.8030   21.8920   10.3720 O   0  0  0  0  0  0  0  0  0  0  0  0
   10.9900   20.2610    7.5860 C   0  0  0  0  0  0  0  0  0  0  0  0
   10.7620   19.0180    8.3670 C   0  0  0  0  0  0  0  0  0  0  0  0
   11.6190   19.1190    9.6000 C   0  0  0  0  0  0  0  0  0  0  0  0
    9.3800   22.6470    8.3110 N   0  0  0  0  0  0  0  0  0  0  0  0
    8.2220   23.3930    8.7290 C   0  0  2  0  0  0  0  0  0  0  0  0
    6.9610   22.7060    8.2480 C   0  0  0  0  0  0  0  0  0  0  0  0
    6.8780   22.2850    7.0920 O   0  0  0  0  0  0  0  0  0  0  0  0
    8.2620   24.8270    8.1760 C   0  0  2  0  0  0  0  0  0  0  0  0
    9.5790   25.3660    8.3360 O   0  0  0  0  0  0  0  0  0  0  0  0
    7.2590   25.7170    8.8970 C   0  0  0  0  0  0  0  0  0  0  0  0
    6.0020   22.5550    9.1460 N   0  0  0  0  0  0  0  0  0  0  0  0
    4.7000   22.0550    8.7760 C   0  0  2  0  0  0  0  0  0  0  0  0
    4.0980   23.0000    7.7510 C   0  0  0  0  0  0  0  0  0  0  0  0
    3.7200   24.1250    8.0730 O   0  0  0  0  0  0  0  0  0  0  0  0
    3.8030   21.9490   10.0020 C   0  0  0  0  0  0  0  0  0  0  0  0
    2.5600   21.1200    9.7640 C   0  0  0  0  0  0  0  0  0  0  0  0
    1.5990   21.2270   10.9290 C   0  0  0  0  0  0  0  0  0  0  0  0
    2.1910   20.6490   12.2050 C   0  0  0  0  0  0  0  0  0  0  0  0
    1.3810   21.0070   13.3990 N   0  3  0  0  0  0  0  0  0  0  0  0
    4.0400   22.5420    6.5170 N   0  0  0  0  0  0  0  0  0  0  0  0
    3.6600   23.3840    5.3880 C   0  0  2  0  0  0  0  0  0  0  0  0
    2.1990   23.8190    5.4400 C   0  0  0  0  0  0  0  0  0  0  0  0
    1.7610   24.6150    4.6080 O   0  0  0  0  0  0  0  0  0  0  0  0
    3.9230   22.6320    4.0910 C   0  0  0  0  0  0  0  0  0  0  0  0
    3.4390   21.3040    4.1810 O   0  0  0  0  0  0  0  0  0  0  0  0
    1.4690   23.3000    6.4270 N   0  0  0  0  0  0  0  0  0  0  0  0
    0.0290   23.5020    6.5390 C   0  0  2  0  0  0  0  0  0  0  0  0
   -0.6850   22.8080    5.3910 C   0  0  0  0  0  0  0  0  0  0  0  0
   -0.4860   23.1350    4.2230 O   0  0  0  0  0  0  0  0  0  0  0  0
   -0.3270   24.9870    6.5750 C   0  0  0  0  0  0  0  0  0  0  0  0
    0.2110   25.6190    7.7300 O   0  0  0  0  0  0  0  0  0  0  0  0
   -1.5040   21.8350    5.7260 N   0  0  0  0  0  0  0  0  0  0  0  0
   -2.1530   21.0230    4.7190 C   0  0  2  0  0  0  0  0  0  0  0  0
   -3.1470   21.8420    3.9100 C   0  0  0  0  0  0  0  0  0  0  0  0
   -4.2390   22.1570    4.3760 O   0  0  0  0  0  0  0  0  0  0  0  0
   -2.8230   19.8230    5.3740 C   0  0  0  0  0  0  0  0  0  0  0  0
   -3.4300   18.8500    4.3870 C   0  0  0  0  0  0  0  0  0  0  0  0
   -3.4800   17.4550    4.9750 C   0  0  0  0  0  0  0  0  0  0  0  0
   -4.4310   17.3370    6.0770 N   0  0  0  0  0  0  0  0  0  0  0  0
   -5.6860   16.9180    5.9290 C   0  0  0  0  0  3  0  0  0  0  0  0
   -6.1740   16.6770    4.7170 N   0  0  0  0  0  0  0  0  0  0  0  0
   -6.4500   16.7480    6.9940 N   0  0  0  0  0  0  0  0  0  0  0  0
   -2.7430   22.1700    2.6860 N   0  0  0  0  0  0  0  0  0  0  0  0
   -3.5270   23.0080    1.7830 C   0  0  2  0  0  0  0  0  0  0  0  0
   -4.8860   22.3750    1.5020 C   0  0  0  0  0  0  0  0  0  0  0  0
   -5.8830   23.0700    1.2880 O   0  0  0  0  0  0  0  0  0  0  0  0
   -2.7760   23.2170    0.4570 C   0  0  0  0  0  0  0  0  0  0  0  0
   -1.3550   23.7690    0.5970 C   0  0  0  0  0  0  0  0  0  0  0  0
   -0.3630   22.6970    1.0430 C   0  0  0  0  0  0  0  0  0  0  0  0
    1.0550   23.2390    1.1680 C   0  0  0  0  0  0  0  0  0  0  0  0
    1.6480   23.5620   -0.1560 N   0  3  0  0  0  0  0  0  0  0  0  0
   -4.9080   21.0500    1.5060 N   0  0  0  0  0  0  0  0  0  0  0  0
   -6.1290   20.2940    1.2770 C   0  0  2  0  0  0  0  0  0  0  0  0
   -7.1890   20.6090    2.3290 C   0  0  0  0  0  0  0  0  0  0  0  0
   -8.3700   20.7430    2.0100 O   0  0  0  0  0  0  0  0  0  0  0  0
   -5.8230   18.8050    1.2780 C   0  0  0  0  0  0  0  0  0  0  0  0
   -6.7690   20.7470    3.5800 N   0  0  0  0  0  0  0  0  0  0  0  0
   -7.7150   20.9370    4.6690 C   0  0  2  0  0  0  0  0  0  0  0  0
   -7.8690   22.4140    4.9980 C   0  0  0  0  0  0  0  0  0  0  0  0
   -6.9190   23.1910    4.8960 O   0  0  0  0  0  0  0  0  0  0  0  0
   -7.2800   20.1650    5.9220 C   0  0  0  0  0  0  0  0  0  0  0  0
   -6.1610   20.8270    6.7150 C   0  0  0  0  0  0  0  0  0  0  0  0
   -5.8860   20.0840    8.0120 C   0  0  0  0  0  0  0  0  0  0  0  0
   -7.1540   19.9350    8.8460 C   0  0  0  0  0  0  0  0  0  0  0  0
   -6.9290   19.1320   10.0700 N   0  3  0  0  0  0  0  0  0  0  0  0
   -9.0760   22.7990    5.3650 N   0  0  0  0  0  0  0  0  0  0  0  0
   -9.3510   24.1590    5.7790 C   0  0  2  0  0  0  0  0  0  0  0  0
   -9.6210   24.1850    7.2720 C   0  0  0  0  0  0  0  0  0  0  0  0
  -10.3000   23.3000    7.7960 O   0  0  0  0  0  0  0  0  0  0  0  0
  -10.5430   24.7410    5.0070 C   0  0  0  0  0  0  0  0  0  0  0  0
  -10.1970   25.2250    3.6040 C   0  0  0  0  0  0  0  0  0  0  0  0
   -9.7060   24.0960    2.7100 C   0  0  0  0  0  0  0  0  0  0  0  0
   -9.2670   24.6100    1.3520 C   0  0  0  0  0  0  0  0  0  0  0  0
   -8.6860   23.5300    0.5110 N   0  3  0  0  0  0  0  0  0  0  0  0
   -9.0570   25.1690    7.9820 N   0  0  0  0  0  0  0  0  0  0  0  0
   -9.2600   25.3220    9.4230 C   0  0  2  0  0  0  0  0  0  0  0  0
  -10.7200   25.6090    9.7580 C   0  0  0  0  0  0  0  0  0  0  0  0
  -11.1590   26.7610    9.7310 O   0  0  0  0  0  0  0  0  0  0  0  0
   -8.3720   26.5170    9.7980 C   0  0  0  0  0  0  0  0  0  0  0  0
   -7.4200   26.6650    8.6590 C   0  0  0  0  0  0  0  0  0  0  0  0
   -8.1660   26.2060    7.4430 C   0  0  0  0  0  0  0  0  0  0  0  0
  -11.4670   24.5480   10.0470 N   0  0  0  0  0  0  0  0  0  0  0  0
  -12.8790   24.6590   10.3880 C   0  0  2  0  0  0  0  0  0  0  0  0
  -13.0800   25.5560   11.6090 C   0  0  0  0  0  0  0  0  0  0  0  0
  -12.6310   25.2290   12.7090 O   0  0  0  0  0  0  0  0  0  0  0  0
  -13.4650   23.2790   10.6470 C   0  0  0  0  0  0  0  0  0  0  0  0
  -13.7350   26.6910   11.4110 N   0  0  0  0  0  0  0  0  0  0  0  0
  -13.9920   27.6220   12.4930 C   0  0  2  0  0  0  0  0  0  0  0  0
  -15.4830   27.6720   12.7820 C   0  0  0  0  0  0  0  0  0  0  0  0
  -16.2240   28.2750   11.9810 O   0  5  0  0  0  0  0  0  0  0  0  0
  -13.4740   29.0190   12.1370 C   0  0  0  0  0  0  0  0  0  0  0  0
  -11.9570   29.1220   12.0870 C   0  0  0  0  0  0  0  0  0  0  0  0
  -11.3110   28.9430   13.4490 C   0  0  0  0  0  0  0  0  0  0  0  0
  -10.9770   27.8300   13.8570 O   0  0  0  0  0  0  0  0  0  0  0  0
  -11.1250   30.0420   14.1640 N   0  0  0  0  0  0  0  0  0  0  0  0
  -15.9100   27.1080   13.8080 O   0  0  0  0  0  0  0  0  0  0  0  0
   18.0603    7.6628   14.5093 H   0  0  0  0  0  0  0  0  0  0  0  0
   16.9675    8.0232   13.3323 H   0  0  0  0  0  0  0  0  0  0  0  0
   16.9107    8.8101   14.7770 H   0  0  0  0  0  0  0  0  0  0  0  0
   19.0291    9.8442   14.3853 H   0  0  0  0  0  0  0  0  0  0  0  0
   20.1089    9.5743   12.2292 H   0  0  0  0  0  0  0  0  0  0  0  0
   18.7621    8.5450   11.6346 H   0  0  0  0  0  0  0  0  0  0  0  0
   20.8272    6.9984   12.3479 H   0  0  0  0  0  0  0  0  0  0  0  0
   18.1608   11.8282   14.3917 H   0  0  0  0  0  0  0  0  0  0  0  0
   15.9755   12.6158   12.7069 H   0  0  0  0  0  0  0  0  0  0  0  0
   17.9692   14.2528   14.3395 H   0  0  0  0  0  0  0  0  0  0  0  0
   16.4587   13.0059   15.7176 H   0  0  0  0  0  0  0  0  0  0  0  0
   15.0529   13.4588   14.6952 H   0  0  0  0  0  0  0  0  0  0  0  0
   17.2126   15.5695   12.3801 H   0  0  0  0  0  0  0  0  0  0  0  0
   16.5500   16.2150   13.9198 H   0  0  0  0  0  0  0  0  0  0  0  0
   15.5041   15.2439   12.8290 H   0  0  0  0  0  0  0  0  0  0  0  0
   15.0840   14.7338   16.7952 H   0  0  0  0  0  0  0  0  0  0  0  0
   15.3150   15.8119   15.3771 H   0  0  0  0  0  0  0  0  0  0  0  0
   16.7208   15.3590   16.3995 H   0  0  0  0  0  0  0  0  0  0  0  0
   15.9668   13.3198   10.7118 H   0  0  0  0  0  0  0  0  0  0  0  0
   18.4726   13.6415    9.2475 H   0  0  0  0  0  0  0  0  0  0  0  0
   15.5548   13.4737    8.5746 H   0  0  0  0  0  0  0  0  0  0  0  0
   18.1173   12.4152    7.3094 H   0  0  0  0  0  0  0  0  0  0  0  0
   16.4493   12.0236    6.7700 H   0  0  0  0  0  0  0  0  0  0  0  0
   16.1689   15.6244    7.5348 H   0  0  0  0  0  0  0  0  0  0  0  0
   15.8409   14.3471    6.3152 H   0  0  0  0  0  0  0  0  0  0  0  0
   17.5335   14.8179    6.6898 H   0  0  0  0  0  0  0  0  0  0  0  0
   17.3820   10.2428    8.1694 H   0  0  0  0  0  0  0  0  0  0  0  0
   15.9741   11.0260    8.9637 H   0  0  0  0  0  0  0  0  0  0  0  0
   17.6421   11.4176    9.5031 H   0  0  0  0  0  0  0  0  0  0  0  0
   19.4714   15.4703    8.8593 H   0  0  0  0  0  0  0  0  0  0  0  0
   20.0372   17.7040    8.9062 H   0  0  0  0  0  0  0  0  0  0  0  0
   17.1689   18.1432    7.9687 H   0  0  0  0  0  0  0  0  0  0  0  0
   18.4018   17.3509    6.9300 H   0  0  0  0  0  0  0  0  0  0  0  0
   18.2761   19.6308    6.5949 H   0  0  0  0  0  0  0  0  0  0  0  0
   17.9982   19.8479    9.0961 H   0  0  0  0  0  0  0  0  0  0  0  0
   17.3840   19.7629   12.0087 H   0  0  0  0  0  0  0  0  0  0  0  0
   17.1310   22.2123   11.8114 H   0  0  0  0  0  0  0  0  0  0  0  0
   17.5037   22.1109   10.0572 H   0  0  0  0  0  0  0  0  0  0  0  0
   18.7570   21.6760   11.2683 H   0  0  0  0  0  0  0  0  0  0  0  0
   15.2647   20.4475   12.6543 H   0  0  0  0  0  0  0  0  0  0  0  0
   13.2209   19.1007   11.2882 H   0  0  0  0  0  0  0  0  0  0  0  0
   13.1725   21.2771   13.4062 H   0  0  0  0  0  0  0  0  0  0  0  0
   12.9395   19.5068   13.6022 H   0  0  0  0  0  0  0  0  0  0  0  0
   10.8956   20.1128   11.8972 H   0  0  0  0  0  0  0  0  0  0  0  0
   11.0153   21.6352   12.8431 H   0  0  0  0  0  0  0  0  0  0  0  0
   10.1989   17.4315   14.5987 H   0  0  0  0  0  0  0  0  0  0  0  0
   11.7714   17.8949   13.8646 H   0  0  0  0  0  0  0  0  0  0  0  0
   10.2938   17.8142   12.8462 H   0  0  0  0  0  0  0  0  0  0  0  0
   12.0240   22.0723    8.2124 H   0  0  0  0  0  0  0  0  0  0  0  0
   11.8155   20.1251    6.8719 H   0  0  0  0  0  0  0  0  0  0  0  0
   10.0787   20.5508    7.0423 H   0  0  0  0  0  0  0  0  0  0  0  0
   11.0533   18.1387    7.7738 H   0  0  0  0  0  0  0  0  0  0  0  0
    9.7017   18.9359    8.6480 H   0  0  0  0  0  0  0  0  0  0  0  0
   11.0460   18.8377   10.4958 H   0  0  0  0  0  0  0  0  0  0  0  0
   12.5039   18.4715    9.5125 H   0  0  0  0  0  0  0  0  0  0  0  0
    9.6356   22.6356    7.3443 H   0  0  0  0  0  0  0  0  0  0  0  0
    8.2091   23.4369    9.8280 H   0  0  0  0  0  0  0  0  0  0  0  0
    8.0101   24.8021    7.1055 H   0  0  0  0  0  0  0  0  0  0  0  0
    9.6011   26.2519    7.9936 H   0  0  0  0  0  0  0  0  0  0  0  0
    7.3081   26.7349    8.4830 H   0  0  0  0  0  0  0  0  0  0  0  0
    7.4992   25.7457    9.9701 H   0  0  0  0  0  0  0  0  0  0  0  0
    6.2450   25.3135    8.7588 H   0  0  0  0  0  0  0  0  0  0  0  0
    6.1828   22.7921   10.1005 H   0  0  0  0  0  0  0  0  0  0  0  0
    4.8083   21.0561    8.3282 H   0  0  0  0  0  0  0  0  0  0  0  0
    3.4952   22.9627   10.2982 H   0  0  0  0  0  0  0  0  0  0  0  0
    4.3794   21.4878   10.8175 H   0  0  0  0  0  0  0  0  0  0  0  0
    2.8504   20.0670    9.6341 H   0  0  0  0  0  0  0  0  0  0  0  0
    2.0595   21.4775    8.8521 H   0  0  0  0  0  0  0  0  0  0  0  0
    0.6786   20.6773   10.6829 H   0  0  0  0  0  0  0  0  0  0  0  0
    1.3592   22.2874   11.0964 H   0  0  0  0  0  0  0  0  0  0  0  0
    3.2101   21.0420   12.3349 H   0  0  0  0  0  0  0  0  0  0  0  0
    2.2291   19.5533   12.1157 H   0  0  0  0  0  0  0  0  0  0  0  0
    1.8026   20.6078   14.2230 H   0  0  0  0  0  0  0  0  0  0  0  0
    0.4461   20.6458   13.2914 H   0  0  0  0  0  0  0  0  0  0  0  0
    1.3451   22.0100   13.4923 H   0  0  0  0  0  0  0  0  0  0  0  0
    4.2646   21.5823    6.3482 H   0  0  0  0  0  0  0  0  0  0  0  0
    4.2867   24.2878    5.4076 H   0  0  0  0  0  0  0  0  0  0  0  0
    5.0057   22.6104    3.8982 H   0  0  0  0  0  0  0  0  0  0  0  0
    3.4134   23.1477    3.2637 H   0  0  0  0  0  0  0  0  0  0  0  0
    3.6109   20.8495    3.3647 H   0  0  0  0  0  0  0  0  0  0  0  0
    1.9293   22.7474    7.1218 H   0  0  0  0  0  0  0  0  0  0  0  0
   -0.3088   23.0476    7.4821 H   0  0  0  0  0  0  0  0  0  0  0  0
   -1.4218   25.0930    6.5857 H   0  0  0  0  0  0  0  0  0  0  0  0
    0.0799   25.4750    5.6771 H   0  0  0  0  0  0  0  0  0  0  0  0
   -0.0258   26.5390    7.7255 H   0  0  0  0  0  0  0  0  0  0  0  0
   -1.6814   21.6531    6.6932 H   0  0  0  0  0  0  0  0  0  0  0  0
   -1.3818   20.6501    4.0290 H   0  0  0  0  0  0  0  0  0  0  0  0
   -3.6216   20.1897    6.0356 H   0  0  0  0  0  0  0  0  0  0  0  0
   -2.0696   19.2876    5.9704 H   0  0  0  0  0  0  0  0  0  0  0  0
   -2.8193   18.8349    3.4722 H   0  0  0  0  0  0  0  0  0  0  0  0
   -4.4515   19.1751    4.1406 H   0  0  0  0  0  0  0  0  0  0  0  0
   -2.4780   17.1945    5.3466 H   0  0  0  0  0  0  0  0  0  0  0  0
   -3.7718   16.7502    4.1825 H   0  0  0  0  0  0  0  0  0  0  0  0
   -4.1126   17.5925    7.0227 H   0  0  0  0  0  0  0  0  0  0  0  0
   -7.1456   16.3530    4.6081 H   0  0  0  0  0  0  0  0  0  0  0  0
   -5.5807   16.8142    3.8863 H   0  0  0  0  0  0  0  0  0  0  0  0
   -6.0723   16.9347    7.9339 H   0  0  0  0  0  0  0  0  0  0  0  0
   -7.4231   16.4289    6.8841 H   0  0  0  0  0  0  0  0  0  0  0  0
   -1.8593   21.8260    2.3686 H   0  0  0  0  0  0  0  0  0  0  0  0
   -3.6840   23.9865    2.2604 H   0  0  0  0  0  0  0  0  0  0  0  0
   -3.3566   23.9217   -0.1564 H   0  0  0  0  0  0  0  0  0  0  0  0
   -2.7157   22.2466   -0.0574 H   0  0  0  0  0  0  0  0  0  0  0  0
   -1.3608   24.5785    1.3417 H   0  0  0  0  0  0  0  0  0  0  0  0
   -1.0321   24.1681   -0.3759 H   0  0  0  0  0  0  0  0  0  0  0  0
   -0.3665   21.8821    0.3041 H   0  0  0  0  0  0  0  0  0  0  0  0
   -0.6800   22.3064    2.0212 H   0  0  0  0  0  0  0  0  0  0  0  0
    1.6818   22.4823    1.6624 H   0  0  0  0  0  0  0  0  0  0  0  0
    1.0329   24.1532    1.7794 H   0  0  0  0  0  0  0  0  0  0  0  0
    2.5830   23.9162   -0.0280 H   0  0  0  0  0  0  0  0  0  0  0  0
    1.0843   24.2600   -0.6154 H   0  0  0  0  0  0  0  0  0  0  0  0
    1.6790   22.7289   -0.7226 H   0  0  0  0  0  0  0  0  0  0  0  0
   -4.0562   20.5532    1.6721 H   0  0  0  0  0  0  0  0  0  0  0  0
   -6.5279   20.5708    0.2900 H   0  0  0  0  0  0  0  0  0  0  0  0
   -6.7507   18.2399    1.1043 H   0  0  0  0  0  0  0  0  0  0  0  0
   -5.3962   18.5190    2.2506 H   0  0  0  0  0  0  0  0  0  0  0  0
   -5.1009   18.5785    0.4798 H   0  0  0  0  0  0  0  0  0  0  0  0
   -5.7890   20.7201    3.7771 H   0  0  0  0  0  0  0  0  0  0  0  0
   -8.6923   20.5493    4.3458 H   0  0  0  0  0  0  0  0  0  0  0  0
   -6.9360   19.1681    5.6092 H   0  0  0  0  0  0  0  0  0  0  0  0
   -8.1538   20.0610    6.5821 H   0  0  0  0  0  0  0  0  0  0  0  0
   -6.4523   21.8614    6.9500 H   0  0  0  0  0  0  0  0  0  0  0  0
   -5.2455   20.8334    6.1052 H   0  0  0  0  0  0  0  0  0  0  0  0
   -5.1385   20.6434    8.5937 H   0  0  0  0  0  0  0  0  0  0  0  0
   -5.4933   19.0840    7.7756 H   0  0  0  0  0  0  0  0  0  0  0  0
   -7.9236   19.4407    8.2349 H   0  0  0  0  0  0  0  0  0  0  0  0
   -7.5049   20.9356    9.1387 H   0  0  0  0  0  0  0  0  0  0  0  0
   -7.7908   19.0603   10.5879 H   0  0  0  0  0  0  0  0  0  0  0  0
   -6.2297   19.5795   10.6417 H   0  0  0  0  0  0  0  0  0  0  0  0
   -6.6134   18.2097    9.8135 H   0  0  0  0  0  0  0  0  0  0  0  0
   -9.8220   22.1331    5.3571 H   0  0  0  0  0  0  0  0  0  0  0  0
   -8.4655   24.7767    5.5686 H   0  0  0  0  0  0  0  0  0  0  0  0
  -10.9422   25.5924    5.5778 H   0  0  0  0  0  0  0  0  0  0  0  0
  -11.3146   23.9615    4.9233 H   0  0  0  0  0  0  0  0  0  0  0  0
   -9.4075   25.9874    3.6772 H   0  0  0  0  0  0  0  0  0  0  0  0
  -11.0955   25.6697    3.1513 H   0  0  0  0  0  0  0  0  0  0  0  0
  -10.5211   23.3707    2.5707 H   0  0  0  0  0  0  0  0  0  0  0  0
   -8.8532   23.6003    3.1968 H   0  0  0  0  0  0  0  0  0  0  0  0
   -8.5095   25.3943    1.4966 H   0  0  0  0  0  0  0  0  0  0  0  0
  -10.1394   25.0340    0.8333 H   0  0  0  0  0  0  0  0  0  0  0  0
   -8.4077   23.9108   -0.3798 H   0  0  0  0  0  0  0  0  0  0  0  0
   -9.3751   22.8085    0.3674 H   0  0  0  0  0  0  0  0  0  0  0  0
   -7.8814   23.1387    0.9752 H   0  0  0  0  0  0  0  0  0  0  0  0
   -8.9379   24.4154    9.9563 H   0  0  0  0  0  0  0  0  0  0  0  0
   -7.8279   26.3158   10.7326 H   0  0  0  0  0  0  0  0  0  0  0  0
   -8.9784   27.4272    9.9154 H   0  0  0  0  0  0  0  0  0  0  0  0
   -6.5290   26.0404    8.8205 H   0  0  0  0  0  0  0  0  0  0  0  0
   -7.1157   27.7162    8.5479 H   0  0  0  0  0  0  0  0  0  0  0  0
   -8.7414   27.0302    6.9963 H   0  0  0  0  0  0  0  0  0  0  0  0
   -7.4802   25.7880    6.6914 H   0  0  0  0  0  0  0  0  0  0  0  0
  -11.0448   23.6417   10.0297 H   0  0  0  0  0  0  0  0  0  0  0  0
  -13.4079   25.1098    9.5354 H   0  0  0  0  0  0  0  0  0  0  0  0
  -14.5304   23.3753   10.9033 H   0  0  0  0  0  0  0  0  0  0  0  0
  -12.9287   22.8036   11.4815 H   0  0  0  0  0  0  0  0  0  0  0  0
  -13.3597   22.6604    9.7435 H   0  0  0  0  0  0  0  0  0  0  0  0
  -14.0606   26.9113   10.4915 H   0  0  0  0  0  0  0  0  0  0  0  0
  -13.4672   27.2712   13.3938 H   0  0  0  0  0  0  0  0  0  0  0  0
  -13.8441   29.7280   12.8921 H   0  0  0  0  0  0  0  0  0  0  0  0
  -13.8721   29.2943   11.1492 H   0  0  0  0  0  0  0  0  0  0  0  0
  -11.6845   30.1135   11.6962 H   0  0  0  0  0  0  0  0  0  0  0  0
  -11.5738   28.3434   11.4110 H   0  0  0  0  0  0  0  0  0  0  0  0
  -10.7036   29.9843   15.0690 H   0  0  0  0  0  0  0  0  0  0  0  0
  -11.4059   30.9296   13.7989 H   0  0  0  0  0  0  0  0  0  0  0  0
  1  2  1  0  0  0  0
  1142  1  0  0  0  0
  1143  1  0  0  0  0
  1144  1  0  0  0  0
  2  3  1  0  0  0  0
  2  5  1  0  0  0  0
  2145  1  1  0  0  0
  3  4  2  0  0  0  0
  3  7  1  0  0  0  0
  5  6  1  0  0  0  0
  5146  1  0  0  0  0
  5147  1  0  0  0  0
  6148  1  0  0  0  0
  7  8  1  0  0  0  0
  7149  1  0  0  0  0
  8  9  1  0  0  0  0
  8 11  1  0  0  0  0
  8150  1  6  0  0  0
  9 10  2  0  0  0  0
  9 15  1  0  0  0  0
 11 12  1  0  0  0  0
 11 13  1  0  0  0  0
 11151  1  1  0  0  0
 12 14  1  0  0  0  0
 12152  1  0  0  0  0
 12153  1  0  0  0  0
 13154  1  0  0  0  0
 13155  1  0  0  0  0
 13156  1  0  0  0  0
 14157  1  0  0  0  0
 14158  1  0  0  0  0
 14159  1  0  0  0  0
 15 16  1  0  0  0  0
 15160  1  0  0  0  0
 16 17  1  0  0  0  0
 16 19  1  0  0  0  0
 16161  1  6  0  0  0
 17 18  2  0  0  0  0
 17 23  1  0  0  0  0
 19 20  1  0  0  0  0
 19 21  1  0  0  0  0
 19162  1  1  0  0  0
 20 22  1  0  0  0  0
 20163  1  0  0  0  0
 20164  1  0  0  0  0
 21165  1  0  0  0  0
 21166  1  0  0  0  0
 21167  1  0  0  0  0
 22168  1  0  0  0  0
 22169  1  0  0  0  0
 22170  1  0  0  0  0
 23 24  1  0  0  0  0
 23171  1  0  0  0  0
 24 25  1  0  0  0  0
 24 27  1  0  0  0  0
 24172  1  6  0  0  0
 25 26  2  0  0  0  0
 25 29  1  0  0  0  0
 27 28  1  0  0  0  0
 27173  1  0  0  0  0
 27174  1  0  0  0  0
 28175  1  0  0  0  0
 29 30  1  0  0  0  0
 29176  1  0  0  0  0
 30 31  1  0  0  0  0
 30 33  1  0  0  0  0
 30177  1  1  0  0  0
 31 32  2  0  0  0  0
 31 34  1  0  0  0  0
 33178  1  0  0  0  0
 33179  1  0  0  0  0
 33180  1  0  0  0  0
 34 35  1  0  0  0  0
 34181  1  0  0  0  0
 35 36  1  0  0  0  0
 35 38  1  0  0  0  0
 35182  1  6  0  0  0
 36 37  2  0  0  0  0
 36 42  1  0  0  0  0
 38 39  1  0  0  0  0
 38183  1  0  0  0  0
 38184  1  0  0  0  0
 39 40  1  0  0  0  0
 39185  1  0  0  0  0
 39186  1  0  0  0  0
 40 41  1  0  0  0  0
 41187  1  0  0  0  0
 41188  1  0  0  0  0
 41189  1  0  0  0  0
 42 43  1  0  0  0  0
 42 48  1  0  0  0  0
 43 44  1  0  0  0  0
 43 46  1  0  0  0  0
 43190  1  6  0  0  0
 44 45  2  0  0  0  0
 44 49  1  0  0  0  0
 46 47  1  0  0  0  0
 46191  1  0  0  0  0
 46192  1  0  0  0  0
 47 48  1  0  0  0  0
 47193  1  0  0  0  0
 47194  1  0  0  0  0
 48195  1  0  0  0  0
 48196  1  0  0  0  0
 49 50  1  0  0  0  0
 49197  1  0  0  0  0
 50 51  1  0  0  0  0
 50 53  1  0  0  0  0
 50198  1  1  0  0  0
 51 52  2  0  0  0  0
 51 56  1  0  0  0  0
 53 54  1  0  0  0  0
 53 55  1  0  0  0  0
 53199  1  6  0  0  0
 54200  1  0  0  0  0
 55201  1  0  0  0  0
 55202  1  0  0  0  0
 55203  1  0  0  0  0
 56 57  1  0  0  0  0
 56204  1  0  0  0  0
 57 58  1  0  0  0  0
 57 60  1  0  0  0  0
 57205  1  6  0  0  0
 58 59  2  0  0  0  0
 58 65  1  0  0  0  0
 60 61  1  0  0  0  0
 60206  1  0  0  0  0
 60207  1  0  0  0  0
 61 62  1  0  0  0  0
 61208  1  0  0  0  0
 61209  1  0  0  0  0
 62 63  1  0  0  0  0
 62210  1  0  0  0  0
 62211  1  0  0  0  0
 63 64  1  0  0  0  0
 63212  1  0  0  0  0
 63213  1  0  0  0  0
 64214  1  0  0  0  0
 64215  1  0  0  0  0
 64216  1  0  0  0  0
 65 66  1  0  0  0  0
 65217  1  0  0  0  0
 66 67  1  0  0  0  0
 66 69  1  0  0  0  0
 66218  1  1  0  0  0
 67 68  2  0  0  0  0
 67 71  1  0  0  0  0
 69 70  1  0  0  0  0
 69219  1  0  0  0  0
 69220  1  0  0  0  0
 70221  1  0  0  0  0
 71 72  1  0  0  0  0
 71222  1  0  0  0  0
 72 73  1  0  0  0  0
 72 75  1  0  0  0  0
 72223  1  1  0  0  0
 73 74  2  0  0  0  0
 73 77  1  0  0  0  0
 75 76  1  0  0  0  0
 75224  1  0  0  0  0
 75225  1  0  0  0  0
 76226  1  0  0  0  0
 77 78  1  0  0  0  0
 77227  1  0  0  0  0
 78 79  1  0  0  0  0
 78 81  1  0  0  0  0
 78228  1  6  0  0  0
 79 80  2  0  0  0  0
 79 88  1  0  0  0  0
 81 82  1  0  0  0  0
 81229  1  0  0  0  0
 81230  1  0  0  0  0
 82 83  1  0  0  0  0
 82231  1  0  0  0  0
 82232  1  0  0  0  0
 83 84  1  0  0  0  0
 83233  1  0  0  0  0
 83234  1  0  0  0  0
 84 85  1  0  0  0  0
 84235  1  0  0  0  0
 85 86  1  0  0  0  0
 85 87  1  0  0  0  0
 86236  1  0  0  0  0
 86237  1  0  0  0  0
 87238  1  0  0  0  0
 87239  1  0  0  0  0
 88 89  1  0  0  0  0
 88240  1  0  0  0  0
 89 90  1  0  0  0  0
 89 92  1  0  0  0  0
 89241  1  1  0  0  0
 90 91  2  0  0  0  0
 90 97  1  0  0  0  0
 92 93  1  0  0  0  0
 92242  1  0  0  0  0
 92243  1  0  0  0  0
 93 94  1  0  0  0  0
 93244  1  0  0  0  0
 93245  1  0  0  0  0
 94 95  1  0  0  0  0
 94246  1  0  0  0  0
 94247  1  0  0  0  0
 95 96  1  0  0  0  0
 95248  1  0  0  0  0
 95249  1  0  0  0  0
 96250  1  0  0  0  0
 96251  1  0  0  0  0
 96252  1  0  0  0  0
 97 98  1  0  0  0  0
 97253  1  0  0  0  0
 98 99  1  0  0  0  0
 98101  1  0  0  0  0
 98254  1  6  0  0  0
 99100  2  0  0  0  0
 99102  1  0  0  0  0
101255  1  0  0  0  0
101256  1  0  0  0  0
101257  1  0  0  0  0
102103  1  0  0  0  0
102258  1  0  0  0  0
103104  1  0  0  0  0
103106  1  0  0  0  0
103259  1  6  0  0  0
104105  2  0  0  0  0
104111  1  0  0  0  0
106107  1  0  0  0  0
106260  1  0  0  0  0
106261  1  0  0  0  0
107108  1  0  0  0  0
107262  1  0  0  0  0
107263  1  0  0  0  0
108109  1  0  0  0  0
108264  1  0  0  0  0
108265  1  0  0  0  0
109110  1  0  0  0  0
109266  1  0  0  0  0
109267  1  0  0  0  0
110268  1  0  0  0  0
110269  1  0  0  0  0
110270  1  0  0  0  0
111112  1  0  0  0  0
111271  1  0  0  0  0
112113  1  0  0  0  0
112115  1  0  0  0  0
112272  1  6  0  0  0
113114  2  0  0  0  0
113120  1  0  0  0  0
115116  1  0  0  0  0
115273  1  0  0  0  0
115274  1  0  0  0  0
116117  1  0  0  0  0
116275  1  0  0  0  0
116276  1  0  0  0  0
117118  1  0  0  0  0
117277  1  0  0  0  0
117278  1  0  0  0  0
118119  1  0  0  0  0
118279  1  0  0  0  0
118280  1  0  0  0  0
119281  1  0  0  0  0
119282  1  0  0  0  0
119283  1  0  0  0  0
120121  1  0  0  0  0
120126  1  0  0  0  0
121122  1  0  0  0  0
121124  1  0  0  0  0
121284  1  1  0  0  0
122123  2  0  0  0  0
122127  1  0  0  0  0
124125  1  0  0  0  0
124285  1  0  0  0  0
124286  1  0  0  0  0
125126  1  0  0  0  0
125287  1  0  0  0  0
125288  1  0  0  0  0
126289  1  0  0  0  0
126290  1  0  0  0  0
127128  1  0  0  0  0
127291  1  0  0  0  0
128129  1  0  0  0  0
128131  1  0  0  0  0
128292  1  6  0  0  0
129130  2  0  0  0  0
129132  1  0  0  0  0
131293  1  0  0  0  0
131294  1  0  0  0  0
131295  1  0  0  0  0
132133  1  0  0  0  0
132296  1  0  0  0  0
133134  1  0  0  0  0
133136  1  0  0  0  0
133297  1  1  0  0  0
134135  1  0  0  0  0
134141  2  0  0  0  0
136137  1  0  0  0  0
136298  1  0  0  0  0
136299  1  0  0  0  0
137138  1  0  0  0  0
137300  1  0  0  0  0
137301  1  0  0  0  0
138139  2  0  0  0  0
138140  1  0  0  0  0
140302  1  0  0  0  0
140303  1  0  0  0  0
M  CHG  6   1   1  64   1  96   1 110   1 119   1 135  -1
M  END
