2upj_ligand
 OpenBabel08222323343D

 81 84  0  0  1  0  0  0  0  0999 V2000
    4.0140   25.4800    1.3280 C   0  0  0  0  0  0  0  0  0  0  0  0
    5.3230   24.0290    2.8610 C   0  0  0  0  0  0  0  0  0  0  0  0
    6.4610   25.1010    0.9090 C   0  0  0  0  0  0  0  0  0  0  0  0
    5.3820   25.2890    1.9860 C   0  0  0  0  0  0  0  0  0  0  0  0
    5.7870   26.4810    2.6900 O   0  0  0  0  0  0  0  0  0  0  0  0
    5.1160   26.8180    3.8620 C   0  0  0  0  0  0  0  0  0  0  0  0
    4.1610   26.1280    4.2490 O   0  0  0  0  0  0  0  0  0  0  0  0
    5.5360   27.9080    4.4860 N   0  0  0  0  0  0  0  0  0  0  0  0
    5.0140   28.2630    5.8170 C   0  0  0  0  0  0  0  0  0  0  0  0
    5.9780   28.9610    6.7900 C   0  0  0  0  0  0  0  0  0  0  0  0
    7.3950   28.4150    6.7650 C   0  0  0  0  0  0  0  0  0  0  0  0
    8.3630   29.1260    6.4950 O   0  0  0  0  0  0  0  0  0  0  0  0
    7.5380   27.1250    7.0150 N   0  0  0  0  0  0  0  0  0  0  0  0
    8.8640   26.6390    6.9340 C   0  0  0  0  0  0  0  0  0  0  0  0
    9.7160   26.9400    7.9910 C   0  0  0  0  0  0  0  0  0  0  0  0
   11.0270   26.4770    8.0040 C   0  0  0  0  0  0  0  0  0  0  0  0
   11.4940   25.6990    6.9530 C   0  0  0  0  0  0  0  0  0  0  0  0
   10.6620   25.4080    5.8760 C   0  0  0  0  0  0  0  0  0  0  0  0
    9.3270   25.8440    5.8740 C   0  0  0  0  0  0  0  0  0  0  0  0
   11.3190   24.6560    4.7140 C   0  0  2  0  0  0  0  0  0  0  0  0
   10.2740   23.9690    3.8860 C   0  0  0  0  0  0  0  0  0  0  0  0
   10.3680   23.7310    2.3980 C   0  0  0  0  0  0  0  0  0  0  0  0
    9.2720   24.6160    2.9590 C   0  0  0  0  0  0  0  0  0  0  0  0
   12.4910   23.7470    5.1550 C   0  0  0  0  0  0  0  0  0  0  0  0
   12.1290   22.5830    5.8630 C   0  0  0  0  0  0  0  0  0  0  0  0
   11.0030   22.1540    5.9050 O   0  0  0  0  0  0  0  0  0  0  0  0
   13.0740   21.7400    6.2300 O   0  0  0  0  0  0  0  0  0  0  0  0
   14.3780   21.9500    5.9520 C   0  0  0  0  0  0  0  0  0  0  0  0
   14.8180   23.1090    5.3040 C   0  0  0  0  0  0  0  0  0  0  0  0
   13.8540   24.0260    4.8810 C   0  0  0  0  0  0  0  0  0  0  0  0
   14.3710   25.2190    4.4690 O   0  0  0  0  0  0  0  0  0  0  0  0
   15.3440   20.8500    6.0810 C   0  0  2  0  0  0  0  0  0  0  0  0
   16.5300   21.2650    6.9660 C   0  0  0  0  0  0  0  0  0  0  0  0
   16.0620   22.0760    8.1950 C   0  0  0  0  0  0  0  0  0  0  0  0
   15.6310   20.4160    4.6300 C   0  0  0  0  0  0  0  0  0  0  0  0
   16.8180   19.5060    4.3900 C   0  0  0  0  0  0  0  0  0  0  0  0
   17.1050   19.1090    3.0910 C   0  0  0  0  0  0  0  0  0  0  0  0
   18.2020   18.2940    2.8400 C   0  0  0  0  0  0  0  0  0  0  0  0
   19.0090   17.8650    3.8860 C   0  0  0  0  0  0  0  0  0  0  0  0
   18.7070   18.2570    5.1840 C   0  0  0  0  0  0  0  0  0  0  0  0
   17.6110   19.0730    5.4380 C   0  0  0  0  0  0  0  0  0  0  0  0
    3.7296   24.5583    0.7992 H   0  0  0  0  0  0  0  0  0  0  0  0
    4.0648   26.3130    0.6114 H   0  0  0  0  0  0  0  0  0  0  0  0
    3.2640   25.7058    2.1003 H   0  0  0  0  0  0  0  0  0  0  0  0
    6.2985   23.8725    3.3447 H   0  0  0  0  0  0  0  0  0  0  0  0
    5.0807   23.1582    2.2341 H   0  0  0  0  0  0  0  0  0  0  0  0
    4.5476   24.1534    3.6313 H   0  0  0  0  0  0  0  0  0  0  0  0
    6.5093   26.0004    0.2775 H   0  0  0  0  0  0  0  0  0  0  0  0
    6.2101   24.2292    0.2868 H   0  0  0  0  0  0  0  0  0  0  0  0
    7.4362   24.9388    1.3913 H   0  0  0  0  0  0  0  0  0  0  0  0
    6.2155   28.4970    4.0485 H   0  0  0  0  0  0  0  0  0  0  0  0
    4.6753   27.3334    6.2977 H   0  0  0  0  0  0  0  0  0  0  0  0
    4.1542   28.9325    5.6668 H   0  0  0  0  0  0  0  0  0  0  0  0
    5.5821   28.8451    7.8097 H   0  0  0  0  0  0  0  0  0  0  0  0
    6.0158   30.0293    6.5305 H   0  0  0  0  0  0  0  0  0  0  0  0
    6.7642   26.5348    7.2450 H   0  0  0  0  0  0  0  0  0  0  0  0
    9.3534   27.5433    8.8154 H   0  0  0  0  0  0  0  0  0  0  0  0
   11.6823   26.7226    8.8319 H   0  0  0  0  0  0  0  0  0  0  0  0
   12.5085   25.3176    6.9714 H   0  0  0  0  0  0  0  0  0  0  0  0
    8.6619   25.5697    5.0632 H   0  0  0  0  0  0  0  0  0  0  0  0
   11.7689   25.4213    4.0645 H   0  0  0  0  0  0  0  0  0  0  0  0
    9.9041   23.1382    4.5048 H   0  0  0  0  0  0  0  0  0  0  0  0
   10.1190   22.7437    1.9818 H   0  0  0  0  0  0  0  0  0  0  0  0
   11.1923   24.1750    1.8207 H   0  0  0  0  0  0  0  0  0  0  0  0
    9.3008   25.7024    2.7891 H   0  0  0  0  0  0  0  0  0  0  0  0
    8.2275   24.2711    2.9502 H   0  0  0  0  0  0  0  0  0  0  0  0
   15.8784   23.2902    5.1349 H   0  0  0  0  0  0  0  0  0  0  0  0
   14.9604   25.0721    3.7386 H   0  0  0  0  0  0  0  0  0  0  0  0
   14.8593   20.0038    6.5900 H   0  0  0  0  0  0  0  0  0  0  0  0
   17.2205   21.8820    6.3723 H   0  0  0  0  0  0  0  0  0  0  0  0
   17.0516   20.3605    7.3121 H   0  0  0  0  0  0  0  0  0  0  0  0
   16.9345   22.3553    8.8039 H   0  0  0  0  0  0  0  0  0  0  0  0
   15.3748   21.4643    8.7979 H   0  0  0  0  0  0  0  0  0  0  0  0
   15.5436   22.9858    7.8582 H   0  0  0  0  0  0  0  0  0  0  0  0
   15.7927   21.3298    4.0394 H   0  0  0  0  0  0  0  0  0  0  0  0
   14.7364   19.8938    4.2600 H   0  0  0  0  0  0  0  0  0  0  0  0
   16.4733   19.4348    2.2726 H   0  0  0  0  0  0  0  0  0  0  0  0
   18.4289   17.9918    1.8240 H   0  0  0  0  0  0  0  0  0  0  0  0
   19.8661   17.2305    3.6913 H   0  0  0  0  0  0  0  0  0  0  0  0
   19.3311   17.9238    6.0053 H   0  0  0  0  0  0  0  0  0  0  0  0
   17.3780   19.3694    6.4543 H   0  0  0  0  0  0  0  0  0  0  0  0
  1  4  1  0  0  0  0
  1 42  1  0  0  0  0
  1 43  1  0  0  0  0
  1 44  1  0  0  0  0
  2 45  1  0  0  0  0
  2 46  1  0  0  0  0
  2 47  1  0  0  0  0
  3 48  1  0  0  0  0
  3 49  1  0  0  0  0
  3 50  1  0  0  0  0
  4  2  1  0  0  0  0
  4  3  1  0  0  0  0
  4  5  1  0  0  0  0
  5  6  1  0  0  0  0
  6  7  2  0  0  0  0
  6  8  1  0  0  0  0
  8  9  1  0  0  0  0
  8 51  1  0  0  0  0
  9 10  1  0  0  0  0
  9 52  1  0  0  0  0
  9 53  1  0  0  0  0
 10 11  1  0  0  0  0
 10 54  1  0  0  0  0
 10 55  1  0  0  0  0
 11 12  2  0  0  0  0
 11 13  1  0  0  0  0
 13 14  1  0  0  0  0
 13 56  1  0  0  0  0
 14 15  2  0  0  0  0
 14 19  1  0  0  0  0
 15 16  1  0  0  0  0
 15 57  1  0  0  0  0
 16 17  2  0  0  0  0
 16 58  1  0  0  0  0
 17 18  1  0  0  0  0
 17 59  1  0  0  0  0
 18 19  2  0  0  0  0
 18 20  1  0  0  0  0
 19 60  1  0  0  0  0
 20 21  1  0  0  0  0
 20 24  1  0  0  0  0
 20 61  1  6  0  0  0
 21 22  1  0  0  0  0
 21 23  1  0  0  0  0
 21 62  1  0  0  0  0
 22 23  1  0  0  0  0
 22 63  1  0  0  0  0
 22 64  1  0  0  0  0
 23 65  1  0  0  0  0
 23 66  1  0  0  0  0
 24 25  1  0  0  0  0
 24 30  2  0  0  0  0
 25 26  2  0  0  0  0
 25 27  1  0  0  0  0
 27 28  1  0  0  0  0
 28 29  2  0  0  0  0
 28 32  1  0  0  0  0
 29 30  1  0  0  0  0
 29 67  1  0  0  0  0
 30 31  1  0  0  0  0
 31 68  1  0  0  0  0
 32 33  1  0  0  0  0
 32 35  1  0  0  0  0
 32 69  1  1  0  0  0
 33 34  1  0  0  0  0
 33 70  1  0  0  0  0
 33 71  1  0  0  0  0
 34 72  1  0  0  0  0
 34 73  1  0  0  0  0
 34 74  1  0  0  0  0
 35 36  1  0  0  0  0
 35 75  1  0  0  0  0
 35 76  1  0  0  0  0
 36 37  2  0  0  0  0
 36 41  1  0  0  0  0
 37 38  1  0  0  0  0
 37 77  1  0  0  0  0
 38 39  2  0  0  0  0
 38 78  1  0  0  0  0
 39 40  1  0  0  0  0
 39 79  1  0  0  0  0
 40 41  2  0  0  0  0
 40 80  1  0  0  0  0
 41 81  1  0  0  0  0
M  END
