2uue_ligand
 OpenBabel08222323343D

 46 49  0  0  0  0  0  0  0  0999 V2000
   -3.9500   47.8670    2.3880 C   0  0  0  0  0  0  0  0  0  0  0  0
   -4.8160   46.8960    3.2050 C   0  0  0  0  0  0  0  0  0  0  0  0
   -4.6380   45.5080    2.8070 O   0  0  0  0  0  0  0  0  0  0  0  0
   -3.2700   45.0440    2.8960 C   0  0  0  0  0  0  0  0  0  0  0  0
   -2.3090   45.9310    2.0900 C   0  0  0  0  0  0  0  0  0  0  0  0
   -2.5490   47.3740    2.3640 N   0  0  0  0  0  0  0  0  0  0  0  0
   -1.4820   48.2300    2.6990 C   0  0  0  0  0  0  0  0  0  0  0  0
   -1.7650   49.5100    3.1620 C   0  0  0  0  0  0  0  0  0  0  0  0
   -0.7330   50.3660    3.5200 C   0  0  0  0  0  0  0  0  0  0  0  0
   -0.1580   47.7980    2.6280 C   0  0  0  0  0  0  0  0  0  0  0  0
    0.8740   48.6540    3.0030 C   0  0  0  0  0  0  0  0  0  0  0  0
    0.5900   49.9470    3.4400 C   0  0  0  0  0  0  0  0  0  0  0  0
    1.5470   50.7960    3.8290 N   0  0  0  0  0  0  0  0  0  0  0  0
    2.8080   50.7310    3.4150 C   0  0  0  0  0  0  0  0  0  0  0  0
    3.3120   49.5710    2.9600 N   0  0  0  0  0  0  0  0  0  0  0  0
    3.5760   51.8310    3.4620 N   0  0  0  0  0  0  0  0  0  0  0  0
    4.8340   51.8070    3.0410 C   0  0  0  0  0  0  0  0  0  0  0  0
    5.3880   50.6240    2.5630 C   0  0  0  0  0  0  0  0  0  0  0  0
    4.5900   49.4810    2.5450 C   0  0  0  0  0  0  0  0  0  0  0  0
    5.0670   48.2810    2.0160 C   0  0  0  0  0  0  0  0  0  0  0  0
    4.1640   46.8510    1.7580 S   0  0  0  0  0  0  0  0  0  0  0  0
    6.3300   48.0680    1.4680 C   0  0  0  0  0  0  0  0  0  0  0  0
    7.4110   49.1460    1.4830 C   0  0  0  0  0  0  0  0  0  0  0  0
    6.5330   46.8390    0.9600 N   0  0  0  0  0  0  0  0  0  0  0  0
    5.4660   46.0260    1.0190 C   0  0  0  0  0  0  0  0  0  0  0  0
    5.4240   44.7650    0.5780 N   0  0  0  0  0  0  0  0  0  0  0  0
   -3.9805   48.8647    2.8503 H   0  0  0  0  0  0  0  0  0  0  0  0
   -4.3359   47.9274    1.3597 H   0  0  0  0  0  0  0  0  0  0  0  0
   -5.8730   47.1678    3.0679 H   0  0  0  0  0  0  0  0  0  0  0  0
   -4.5469   46.9940    4.2671 H   0  0  0  0  0  0  0  0  0  0  0  0
   -3.2171   44.0169    2.5059 H   0  0  0  0  0  0  0  0  0  0  0  0
   -2.9600   45.0519    3.9514 H   0  0  0  0  0  0  0  0  0  0  0  0
   -2.4592   45.7399    1.0172 H   0  0  0  0  0  0  0  0  0  0  0  0
   -1.2739   45.6810    2.3656 H   0  0  0  0  0  0  0  0  0  0  0  0
   -2.7943   49.8402    3.2436 H   0  0  0  0  0  0  0  0  0  0  0  0
   -0.9602   51.3684    3.8644 H   0  0  0  0  0  0  0  0  0  0  0  0
    0.0676   46.7961    2.2810 H   0  0  0  0  0  0  0  0  0  0  0  0
    1.9021   48.3138    2.9550 H   0  0  0  0  0  0  0  0  0  0  0  0
    1.2916   51.5447    4.4886 H   0  0  0  0  0  0  0  0  0  0  0  0
    5.4313   52.7112    3.0696 H   0  0  0  0  0  0  0  0  0  0  0  0
    6.4136   50.5917    2.2136 H   0  0  0  0  0  0  0  0  0  0  0  0
    8.3204   48.7601    0.9991 H   0  0  0  0  0  0  0  0  0  0  0  0
    7.6384   49.4228    2.5230 H   0  0  0  0  0  0  0  0  0  0  0  0
    7.0532   50.0317    0.9376 H   0  0  0  0  0  0  0  0  0  0  0  0
    6.2572   44.3434    0.1435 H   0  0  0  0  0  0  0  0  0  0  0  0
    4.5584   44.2149    0.6727 H   0  0  0  0  0  0  0  0  0  0  0  0
  1  2  1  0  0  0  0
  1  6  1  0  0  0  0
  1 27  1  0  0  0  0
  1 28  1  0  0  0  0
  2  3  1  0  0  0  0
  2 29  1  0  0  0  0
  2 30  1  0  0  0  0
  3  4  1  0  0  0  0
  4  5  1  0  0  0  0
  4 31  1  0  0  0  0
  4 32  1  0  0  0  0
  5  6  1  0  0  0  0
  5 33  1  0  0  0  0
  5 34  1  0  0  0  0
  6  7  1  0  0  0  0
  7  8  2  0  0  0  0
  7 10  1  0  0  0  0
  8  9  1  0  0  0  0
  8 35  1  0  0  0  0
  9 12  2  0  0  0  0
  9 36  1  0  0  0  0
 10 11  2  0  0  0  0
 10 37  1  0  0  0  0
 11 12  1  0  0  0  0
 11 38  1  0  0  0  0
 12 13  1  0  0  0  0
 13 14  1  0  0  0  0
 13 39  1  0  0  0  0
 14 15  2  0  0  0  0
 14 16  1  0  0  0  0
 15 19  1  0  0  0  0
 16 17  2  0  0  0  0
 17 18  1  0  0  0  0
 17 40  1  0  0  0  0
 18 19  2  0  0  0  0
 18 41  1  0  0  0  0
 19 20  1  0  0  0  0
 20 21  1  0  0  0  0
 20 22  2  0  0  0  0
 21 25  1  0  0  0  0
 22 23  1  0  0  0  0
 22 24  1  0  0  0  0
 23 42  1  0  0  0  0
 23 43  1  0  0  0  0
 23 44  1  0  0  0  0
 24 25  2  0  0  0  0
 25 26  1  0  0  0  0
 26 45  1  0  0  0  0
 26 46  1  0  0  0  0
M  END
