2uw3_ligand
 OpenBabel08222323343D

 22 23  0  0  0  0  0  0  0  0999 V2000
    4.2930   10.0190    2.4950 C   0  0  0  0  0  0  0  0  0  0  0  0
    4.6250   10.3550    1.0850 C   0  0  0  0  0  0  0  0  0  0  0  0
    5.0650    9.8650    3.6530 C   0  0  0  0  0  0  0  0  0  0  0  0
    6.5190    9.9590    3.8280 C   0  0  0  0  0  0  0  0  0  0  0  0
    7.3780    9.7740    2.7500 C   0  0  0  0  0  0  0  0  0  0  0  0
    7.0640   10.1810    5.0860 C   0  0  0  0  0  0  0  0  0  0  0  0
    8.7420    9.8510    2.9240 C   0  0  0  0  0  0  0  0  0  0  0  0
    8.4300   10.2530    5.2530 C   0  0  0  0  0  0  0  0  0  0  0  0
    9.2680   10.0700    4.1770 C   0  0  0  0  0  0  0  0  0  0  0  0
    4.1570    9.5300    4.6500 C   0  0  0  0  0  0  0  0  0  0  0  0
    2.9110    9.4710    4.1780 N   0  0  0  0  0  0  0  0  0  0  0  0
    3.0070    9.7620    2.8590 N   0  0  0  0  0  0  0  0  0  0  0  0
    3.7028   10.3737    0.4857 H   0  0  0  0  0  0  0  0  0  0  0  0
    5.3108    9.5968    0.6791 H   0  0  0  0  0  0  0  0  0  0  0  0
    5.1069   11.3431    1.0472 H   0  0  0  0  0  0  0  0  0  0  0  0
    6.9713    9.5679    1.7665 H   0  0  0  0  0  0  0  0  0  0  0  0
    6.4102   10.2985    5.9426 H   0  0  0  0  0  0  0  0  0  0  0  0
    9.4029    9.7389    2.0722 H   0  0  0  0  0  0  0  0  0  0  0  0
    8.8452   10.4542    6.2339 H   0  0  0  0  0  0  0  0  0  0  0  0
   10.3427   10.0983    4.3162 H   0  0  0  0  0  0  0  0  0  0  0  0
    4.4288    9.3394    5.6872 H   0  0  0  0  0  0  0  0  0  0  0  0
    2.0548    9.2503    4.7063 H   0  0  0  0  0  0  0  0  0  0  0  0
  1  2  1  0  0  0  0
  1  3  1  0  0  0  0
  1 12  2  0  0  0  0
  2 13  1  0  0  0  0
  2 14  1  0  0  0  0
  2 15  1  0  0  0  0
  3  4  1  0  0  0  0
  3 10  2  0  0  0  0
  4  5  2  0  0  0  0
  4  6  1  0  0  0  0
  5  7  1  0  0  0  0
  5 16  1  0  0  0  0
  6  8  2  0  0  0  0
  6 17  1  0  0  0  0
  7  9  2  0  0  0  0
  7 18  1  0  0  0  0
  8  9  1  0  0  0  0
  8 19  1  0  0  0  0
  9 20  1  0  0  0  0
 10 11  1  0  0  0  0
 10 21  1  0  0  0  0
 11 12  1  0  0  0  0
 11 22  1  0  0  0  0
M  END
