2uw6_ligand
 OpenBabel08222323343D

 38 40  0  0  1  0  0  0  0  0999 V2000
   12.3290    7.3430    2.7480 N   0  3  0  0  0  0  0  0  0  0  0  0
   10.9700    7.8370    3.0170 C   0  0  0  0  0  0  0  0  0  0  0  0
   10.8670    9.3790    3.1050 C   0  0  2  0  0  0  0  0  0  0  0  0
   11.8460    9.7920    4.1880 C   0  0  0  0  0  0  0  0  0  0  0  0
   11.7960    9.2710    5.4760 C   0  0  0  0  0  0  0  0  0  0  0  0
   12.7350    9.6380    6.4360 C   0  0  0  0  0  0  0  0  0  0  0  0
   13.7520   10.5150    6.1200 C   0  0  0  0  0  0  0  0  0  0  0  0
   14.9090   10.9560    7.3490 Cl  0  0  0  0  0  0  0  0  0  0  0  0
   13.8240   11.0320    4.8300 C   0  0  0  0  0  0  0  0  0  0  0  0
   12.8820   10.6610    3.8690 C   0  0  0  0  0  0  0  0  0  0  0  0
    9.3690    9.5690    3.2780 C   0  0  0  0  0  0  0  0  0  0  0  0
    8.5970    9.4180    2.1330 C   0  0  0  0  0  0  0  0  0  0  0  0
    7.2100    9.5120    2.1880 C   0  0  0  0  0  0  0  0  0  0  0  0
    6.5660    9.7880    3.3980 C   0  0  0  0  0  0  0  0  0  0  0  0
    7.3420    9.9090    4.5540 C   0  0  0  0  0  0  0  0  0  0  0  0
    8.7260    9.7920    4.4910 C   0  0  0  0  0  0  0  0  0  0  0  0
    5.0810    9.8370    3.4410 C   0  0  0  0  0  0  0  0  0  0  0  0
    4.2770    9.6450    4.5840 C   0  0  0  0  0  0  0  0  0  0  0  0
    3.0260    9.6850    4.2230 N   0  0  0  0  0  0  0  0  0  0  0  0
    2.9840    9.8620    2.8390 N   0  0  0  0  0  0  0  0  0  0  0  0
    4.2340    9.9430    2.3790 C   0  0  0  0  0  0  0  0  0  0  0  0
   12.3180    6.3360    2.7047 H   0  0  0  0  0  0  0  0  0  0  0  0
   12.9471    7.6408    3.4864 H   0  0  0  0  0  0  0  0  0  0  0  0
   12.6533    7.7135    1.8685 H   0  0  0  0  0  0  0  0  0  0  0  0
   10.6305    7.4125    3.9733 H   0  0  0  0  0  0  0  0  0  0  0  0
   10.3099    7.4918    2.2076 H   0  0  0  0  0  0  0  0  0  0  0  0
   11.1763    9.8658    2.1683 H   0  0  0  0  0  0  0  0  0  0  0  0
   11.0134    8.5678    5.7369 H   0  0  0  0  0  0  0  0  0  0  0  0
   12.6666    9.2319    7.4387 H   0  0  0  0  0  0  0  0  0  0  0  0
   14.6152   11.7260    4.5702 H   0  0  0  0  0  0  0  0  0  0  0  0
   12.9597   11.0554    2.8623 H   0  0  0  0  0  0  0  0  0  0  0  0
    9.0822    9.2242    1.1832 H   0  0  0  0  0  0  0  0  0  0  0  0
    6.6247    9.3703    1.2867 H   0  0  0  0  0  0  0  0  0  0  0  0
    6.8610   10.0956    5.5074 H   0  0  0  0  0  0  0  0  0  0  0  0
    9.3117    9.8757    5.3993 H   0  0  0  0  0  0  0  0  0  0  0  0
    4.6412    9.4894    5.5984 H   0  0  0  0  0  0  0  0  0  0  0  0
    2.2118    9.6009    4.8482 H   0  0  0  0  0  0  0  0  0  0  0  0
    4.5259   10.0713    1.3377 H   0  0  0  0  0  0  0  0  0  0  0  0
  1  2  1  0  0  0  0
  1 22  1  0  0  0  0
  1 23  1  0  0  0  0
  1 24  1  0  0  0  0
  2  3  1  0  0  0  0
  2 25  1  0  0  0  0
  2 26  1  0  0  0  0
  3  4  1  0  0  0  0
  3 11  1  0  0  0  0
  3 27  1  6  0  0  0
  4  5  2  0  0  0  0
  4 10  1  0  0  0  0
  5  6  1  0  0  0  0
  5 28  1  0  0  0  0
  6  7  2  0  0  0  0
  6 29  1  0  0  0  0
  7  8  1  0  0  0  0
  7  9  1  0  0  0  0
  9 10  2  0  0  0  0
  9 30  1  0  0  0  0
 10 31  1  0  0  0  0
 11 12  2  0  0  0  0
 11 16  1  0  0  0  0
 12 13  1  0  0  0  0
 12 32  1  0  0  0  0
 13 14  2  0  0  0  0
 13 33  1  0  0  0  0
 14 15  1  0  0  0  0
 14 17  1  0  0  0  0
 15 16  2  0  0  0  0
 15 34  1  0  0  0  0
 16 35  1  0  0  0  0
 17 18  2  0  0  0  0
 17 21  1  0  0  0  0
 18 19  1  0  0  0  0
 18 36  1  0  0  0  0
 19 20  1  0  0  0  0
 19 37  1  0  0  0  0
 20 21  2  0  0  0  0
 21 38  1  0  0  0  0
M  CHG  1   1   1
M  END
