2uw7_ligand
 OpenBabel08222323343D

 45 48  0  0  0  0  0  0  0  0999 V2000
   13.3080   13.6520    0.2310 Cl  0  0  0  0  0  0  0  0  0  0  0  0
   12.5840   12.4390    1.2390 C   0  0  0  0  0  0  0  0  0  0  0  0
   12.4030   11.1570    0.7530 C   0  0  0  0  0  0  0  0  0  0  0  0
   11.8280   10.1890    1.5470 C   0  0  0  0  0  0  0  0  0  0  0  0
   11.4430   10.4800    2.8540 C   0  0  0  0  0  0  0  0  0  0  0  0
   11.6280   11.7740    3.3350 C   0  0  0  0  0  0  0  0  0  0  0  0
   12.2010   12.7420    2.5360 C   0  0  0  0  0  0  0  0  0  0  0  0
   10.7800    9.4070    3.7340 C   0  0  0  0  0  0  0  0  0  0  0  0
   11.0630    7.9740    3.2340 C   0  0  0  0  0  0  0  0  0  0  0  0
   12.5010    7.5290    3.4500 C   0  0  0  0  0  0  0  0  0  0  0  0
   12.8340    7.6310    4.8990 N   0  3  0  0  0  0  0  0  0  0  0  0
   12.6760    9.0280    5.3980 C   0  0  0  0  0  0  0  0  0  0  0  0
   11.2370    9.4680    5.2020 C   0  0  0  0  0  0  0  0  0  0  0  0
    9.2500    9.5620    3.6540 C   0  0  0  0  0  0  0  0  0  0  0  0
    8.4740    9.8010    4.7850 C   0  0  0  0  0  0  0  0  0  0  0  0
    7.1020    9.8910    4.6860 C   0  0  0  0  0  0  0  0  0  0  0  0
    6.4720    9.7610    3.4540 C   0  0  0  0  0  0  0  0  0  0  0  0
    7.2430    9.4990    2.3320 C   0  0  0  0  0  0  0  0  0  0  0  0
    8.6130    9.4020    2.4300 C   0  0  0  0  0  0  0  0  0  0  0  0
    5.0070    9.7800    3.3540 C   0  0  0  0  0  0  0  0  0  0  0  0
    4.0830    9.6650    4.4010 C   0  0  0  0  0  0  0  0  0  0  0  0
    2.8310    9.6460    3.9410 N   0  0  0  0  0  0  0  0  0  0  0  0
    2.9510    9.6990    2.5900 N   0  0  0  0  0  0  0  0  0  0  0  0
    4.2420    9.7630    2.2140 C   0  0  0  0  0  0  0  0  0  0  0  0
   12.7146   10.9129   -0.2561 H   0  0  0  0  0  0  0  0  0  0  0  0
   11.6737    9.1917    1.1512 H   0  0  0  0  0  0  0  0  0  0  0  0
   11.3197   12.0223    4.3441 H   0  0  0  0  0  0  0  0  0  0  0  0
   12.3521   13.7428    2.9240 H   0  0  0  0  0  0  0  0  0  0  0  0
   10.8434    7.9313    2.1570 H   0  0  0  0  0  0  0  0  0  0  0  0
   10.3995    7.2804    3.7713 H   0  0  0  0  0  0  0  0  0  0  0  0
   13.1769    8.1754    2.8710 H   0  0  0  0  0  0  0  0  0  0  0  0
   12.6171    6.4866    3.1185 H   0  0  0  0  0  0  0  0  0  0  0  0
   13.7890    7.3397    5.0371 H   0  0  0  0  0  0  0  0  0  0  0  0
   12.2193    7.0254    5.4200 H   0  0  0  0  0  0  0  0  0  0  0  0
   13.3449    9.6970    4.8368 H   0  0  0  0  0  0  0  0  0  0  0  0
   12.9304    9.0677    6.4674 H   0  0  0  0  0  0  0  0  0  0  0  0
   10.5863    8.8117    5.7985 H   0  0  0  0  0  0  0  0  0  0  0  0
   11.1368   10.5044    5.5568 H   0  0  0  0  0  0  0  0  0  0  0  0
    8.9524    9.9172    5.7508 H   0  0  0  0  0  0  0  0  0  0  0  0
    6.5093   10.0647    5.5768 H   0  0  0  0  0  0  0  0  0  0  0  0
    6.7629    9.3693    1.3688 H   0  0  0  0  0  0  0  0  0  0  0  0
    9.2009    9.1986    1.5423 H   0  0  0  0  0  0  0  0  0  0  0  0
    4.3522    9.5996    5.4542 H   0  0  0  0  0  0  0  0  0  0  0  0
    1.9617    9.6009    4.4916 H   0  0  0  0  0  0  0  0  0  0  0  0
    4.6127    9.7954    1.1905 H   0  0  0  0  0  0  0  0  0  0  0  0
  1  2  1  0  0  0  0
  2  3  2  0  0  0  0
  2  7  1  0  0  0  0
  3  4  1  0  0  0  0
  3 25  1  0  0  0  0
  4  5  2  0  0  0  0
  4 26  1  0  0  0  0
  5  6  1  0  0  0  0
  5  8  1  0  0  0  0
  6  7  2  0  0  0  0
  6 27  1  0  0  0  0
  7 28  1  0  0  0  0
  8  9  1  0  0  0  0
  8 13  1  0  0  0  0
  8 14  1  0  0  0  0
  9 10  1  0  0  0  0
  9 29  1  0  0  0  0
  9 30  1  0  0  0  0
 10 11  1  0  0  0  0
 10 31  1  0  0  0  0
 10 32  1  0  0  0  0
 11 12  1  0  0  0  0
 11 33  1  0  0  0  0
 11 34  1  0  0  0  0
 12 13  1  0  0  0  0
 12 35  1  0  0  0  0
 12 36  1  0  0  0  0
 13 37  1  0  0  0  0
 13 38  1  0  0  0  0
 14 15  2  0  0  0  0
 14 19  1  0  0  0  0
 15 16  1  0  0  0  0
 15 39  1  0  0  0  0
 16 17  2  0  0  0  0
 16 40  1  0  0  0  0
 17 18  1  0  0  0  0
 17 20  1  0  0  0  0
 18 19  2  0  0  0  0
 18 41  1  0  0  0  0
 19 42  1  0  0  0  0
 20 21  2  0  0  0  0
 20 24  1  0  0  0  0
 21 22  1  0  0  0  0
 21 43  1  0  0  0  0
 22 23  1  0  0  0  0
 22 44  1  0  0  0  0
 23 24  2  0  0  0  0
 24 45  1  0  0  0  0
M  CHG  1  11   1
M  END
