2uym_ligand
 OpenBabel08222323343D

 52 54  0  0  0  0  0  0  0  0999 V2000
   31.1390   14.3270   12.6180 O   0  0  0  0  0  0  0  0  0  0  0  0
   30.6700   13.8940   13.6450 C   0  0  0  0  0  0  0  0  0  0  0  0
   31.5810   13.2950   14.6720 C   0  0  0  0  0  0  0  0  0  0  0  0
   33.3590   13.4870   14.5000 S   0  0  0  0  0  0  0  0  0  0  0  0
   33.6980   12.5870   15.9980 C   0  0  0  0  0  0  0  0  0  0  0  0
   32.4640   12.2050   16.5280 C   0  0  0  0  0  0  0  0  0  0  0  0
   31.3110   12.5740   15.8260 C   0  0  0  0  0  0  0  0  0  0  0  0
   29.3480   13.9360   13.8890 N   0  0  0  0  0  0  0  0  0  0  0  0
   28.4510   14.3570   12.9410 C   0  0  0  0  0  0  0  0  0  0  0  0
   28.3580   13.6670   11.3060 S   0  0  0  0  0  0  0  0  0  0  0  0
   27.0370   14.7930   10.9010 C   0  0  0  0  0  0  0  0  0  0  0  0
   26.7190   15.6320   11.9710 C   0  0  0  0  0  0  0  0  0  0  0  0
   25.6250   16.6670   11.7970 C   0  0  0  0  0  0  0  0  0  0  0  0
   25.2640   16.8910   10.3040 C   0  0  0  0  0  0  0  0  0  0  0  0
   26.2900   17.7950    9.6270 C   0  0  0  0  0  0  0  0  0  0  0  0
   23.9570   17.6560   10.2870 C   0  0  0  0  0  0  0  0  0  0  0  0
   25.1390   15.5680    9.5210 C   0  0  0  0  0  0  0  0  0  0  0  0
   26.4380   14.7300    9.5160 C   0  0  0  0  0  0  0  0  0  0  0  0
   27.5330   15.3930   13.1200 C   0  0  0  0  0  0  0  0  0  0  0  0
   27.3970   16.1320   14.4270 C   0  0  0  0  0  0  0  0  0  0  0  0
   26.3360   16.0160   15.0300 O   0  0  0  0  0  0  0  0  0  0  0  0
   28.3660   16.8550   15.0080 N   0  0  0  0  0  0  0  0  0  0  0  0
   29.6470   17.2030   14.4030 C   0  0  0  0  0  0  0  0  0  0  0  0
   29.6060   18.6120   13.8560 C   0  0  0  0  0  0  0  0  0  0  0  0
   28.1520   17.3220   16.3850 C   0  0  0  0  0  0  0  0  0  0  0  0
   29.2960   16.9990   17.3190 C   0  0  0  0  0  0  0  0  0  0  0  0
   34.6793   12.3751   16.4200 H   0  0  0  0  0  0  0  0  0  0  0  0
   32.4009   11.6391   17.4563 H   0  0  0  0  0  0  0  0  0  0  0  0
   30.3035   12.3207   16.1526 H   0  0  0  0  0  0  0  0  0  0  0  0
   29.0099   13.6524   14.7864 H   0  0  0  0  0  0  0  0  0  0  0  0
   25.9674   17.6203   12.2258 H   0  0  0  0  0  0  0  0  0  0  0  0
   24.7262   16.3262   12.3317 H   0  0  0  0  0  0  0  0  0  0  0  0
   26.0129   17.9384    8.5722 H   0  0  0  0  0  0  0  0  0  0  0  0
   27.2845   17.3284    9.6847 H   0  0  0  0  0  0  0  0  0  0  0  0
   26.3122   18.7699   10.1360 H   0  0  0  0  0  0  0  0  0  0  0  0
   23.1721   17.0515   10.7650 H   0  0  0  0  0  0  0  0  0  0  0  0
   23.6716   17.8712    9.2467 H   0  0  0  0  0  0  0  0  0  0  0  0
   24.0780   18.6009   10.8370 H   0  0  0  0  0  0  0  0  0  0  0  0
   24.8723   15.8032    8.4801 H   0  0  0  0  0  0  0  0  0  0  0  0
   24.3388   14.9672    9.9778 H   0  0  0  0  0  0  0  0  0  0  0  0
   26.2083   13.6863    9.2553 H   0  0  0  0  0  0  0  0  0  0  0  0
   27.1466   15.1435    8.7833 H   0  0  0  0  0  0  0  0  0  0  0  0
   29.8630   16.5021   13.5832 H   0  0  0  0  0  0  0  0  0  0  0  0
   30.4383   17.1325   15.1638 H   0  0  0  0  0  0  0  0  0  0  0  0
   30.5781   18.8582   13.4040 H   0  0  0  0  0  0  0  0  0  0  0  0
   29.3927   19.3166   14.6733 H   0  0  0  0  0  0  0  0  0  0  0  0
   28.8174   18.6862   13.0927 H   0  0  0  0  0  0  0  0  0  0  0  0
   27.2399   16.8470   16.7754 H   0  0  0  0  0  0  0  0  0  0  0  0
   28.0173   18.4135   16.3649 H   0  0  0  0  0  0  0  0  0  0  0  0
   29.0653   17.3773   18.3258 H   0  0  0  0  0  0  0  0  0  0  0  0
   30.2162   17.4756   16.9502 H   0  0  0  0  0  0  0  0  0  0  0  0
   29.4388   15.9091   17.3607 H   0  0  0  0  0  0  0  0  0  0  0  0
  1  2  2  0  0  0  0
  2  3  1  0  0  0  0
  2  8  1  0  0  0  0
  3  4  1  0  0  0  0
  3  7  2  0  0  0  0
  4  5  1  0  0  0  0
  5  6  2  0  0  0  0
  5 27  1  0  0  0  0
  6  7  1  0  0  0  0
  6 28  1  0  0  0  0
  7 29  1  0  0  0  0
  8  9  1  0  0  0  0
  8 30  1  0  0  0  0
  9 10  1  0  0  0  0
  9 19  2  0  0  0  0
 10 11  1  0  0  0  0
 11 12  2  0  0  0  0
 11 18  1  0  0  0  0
 12 13  1  0  0  0  0
 12 19  1  0  0  0  0
 13 14  1  0  0  0  0
 13 31  1  0  0  0  0
 13 32  1  0  0  0  0
 14 15  1  0  0  0  0
 14 16  1  0  0  0  0
 14 17  1  0  0  0  0
 15 33  1  0  0  0  0
 15 34  1  0  0  0  0
 15 35  1  0  0  0  0
 16 36  1  0  0  0  0
 16 37  1  0  0  0  0
 16 38  1  0  0  0  0
 17 18  1  0  0  0  0
 17 39  1  0  0  0  0
 17 40  1  0  0  0  0
 18 41  1  0  0  0  0
 18 42  1  0  0  0  0
 19 20  1  0  0  0  0
 20 21  2  0  0  0  0
 20 22  1  0  0  0  0
 22 23  1  0  0  0  0
 22 25  1  0  0  0  0
 23 24  1  0  0  0  0
 23 43  1  0  0  0  0
 23 44  1  0  0  0  0
 24 45  1  0  0  0  0
 24 46  1  0  0  0  0
 24 47  1  0  0  0  0
 25 26  1  0  0  0  0
 25 48  1  0  0  0  0
 25 49  1  0  0  0  0
 26 50  1  0  0  0  0
 26 51  1  0  0  0  0
 26 52  1  0  0  0  0
M  END
