2uzd_ligand
 OpenBabel08222323343D

 34 36  0  0  0  0  0  0  0  0999 V2000
  126.1770  107.4780   37.1910 O   0  0  0  0  0  0  0  0  0  0  0  0
  125.6860  108.4660   36.1630 S   0  0  0  0  0  0  0  0  0  0  0  0
  126.8230  109.3590   35.7470 O   0  0  0  0  0  0  0  0  0  0  0  0
  124.4850  109.3770   36.8050 N   0  0  0  0  0  0  0  0  0  0  0  0
  125.0720  107.5930   34.7590 C   0  0  0  0  0  0  0  0  0  0  0  0
  125.5200  106.2940   34.4840 C   0  0  0  0  0  0  0  0  0  0  0  0
  125.0330  105.6110   33.3650 C   0  0  0  0  0  0  0  0  0  0  0  0
  124.0950  106.2230   32.5360 C   0  0  0  0  0  0  0  0  0  0  0  0
  123.6420  107.5130   32.8230 C   0  0  0  0  0  0  0  0  0  0  0  0
  124.1310  108.1960   33.9270 C   0  0  0  0  0  0  0  0  0  0  0  0
  123.5960  105.5640   31.4280 C   0  0  0  0  0  0  0  0  0  0  0  0
  122.5330  105.9560   30.7170 O   0  0  0  0  0  0  0  0  0  0  0  0
  124.0880  104.4570   30.8570 C   0  0  0  0  0  0  0  0  0  0  0  0
  123.3160  104.1610   29.7960 C   0  0  0  0  0  0  0  0  0  0  0  0
  122.3530  105.0900   29.7150 C   0  0  0  0  0  0  0  0  0  0  0  0
  121.2840  105.1710   28.7000 C   0  0  0  0  0  0  0  0  0  0  0  0
  120.6490  106.3570   28.4850 C   0  0  0  0  0  0  0  0  0  0  0  0
  120.5000  107.5870   29.6280 S   0  0  0  0  0  0  0  0  0  0  0  0
  119.6460  108.5660   28.5440 C   0  0  0  0  0  0  0  0  0  0  0  0
  119.1880  109.7740   28.8390 N   0  0  0  0  0  0  0  0  0  0  0  0
  119.4820  107.9730   27.3410 N   0  0  0  0  0  0  0  0  0  0  0  0
  120.0420  106.7190   27.2790 C   0  0  0  0  0  0  0  0  0  0  0  0
  120.0090  106.0000   26.2820 O   0  0  0  0  0  0  0  0  0  0  0  0
  123.6482  108.9403   37.1353 H   0  0  0  0  0  0  0  0  0  0  0  0
  124.5888  110.3697   36.8666 H   0  0  0  0  0  0  0  0  0  0  0  0
  126.2429  105.8193   35.1376 H   0  0  0  0  0  0  0  0  0  0  0  0
  125.3838  104.6095   33.1435 H   0  0  0  0  0  0  0  0  0  0  0  0
  122.9056  107.9820   32.1806 H   0  0  0  0  0  0  0  0  0  0  0  0
  123.7809  109.1991   34.1424 H   0  0  0  0  0  0  0  0  0  0  0  0
  124.9589  103.8958   31.1923 H   0  0  0  0  0  0  0  0  0  0  0  0
  123.4497  103.3161   29.1220 H   0  0  0  0  0  0  0  0  0  0  0  0
  121.0048  104.2882   28.1267 H   0  0  0  0  0  0  0  0  0  0  0  0
  118.6859  110.3059   28.1454 H   0  0  0  0  0  0  0  0  0  0  0  0
  119.0029  108.4019   26.5751 H   0  0  0  0  0  0  0  0  0  0  0  0
  1  2  2  0  0  0  0
  2  3  2  0  0  0  0
  2  4  1  0  0  0  0
  2  5  1  0  0  0  0
  4 24  1  0  0  0  0
  4 25  1  0  0  0  0
  5  6  2  0  0  0  0
  5 10  1  0  0  0  0
  6  7  1  0  0  0  0
  6 26  1  0  0  0  0
  7  8  2  0  0  0  0
  7 27  1  0  0  0  0
  8  9  1  0  0  0  0
  8 11  1  0  0  0  0
  9 10  2  0  0  0  0
  9 28  1  0  0  0  0
 10 29  1  0  0  0  0
 11 12  1  0  0  0  0
 11 13  2  0  0  0  0
 12 15  1  0  0  0  0
 13 14  1  0  0  0  0
 13 30  1  0  0  0  0
 14 15  2  0  0  0  0
 14 31  1  0  0  0  0
 15 16  1  0  0  0  0
 16 17  2  0  0  0  0
 16 32  1  0  0  0  0
 17 18  1  0  0  0  0
 17 22  1  0  0  0  0
 18 19  1  0  0  0  0
 19 20  2  0  0  0  0
 19 21  1  0  0  0  0
 20 33  1  0  0  0  0
 21 22  1  0  0  0  0
 21 34  1  0  0  0  0
 22 23  2  0  0  0  0
M  END
