2uze_ligand
 OpenBabel08222323343D

 31 33  0  0  0  0  0  0  0  0999 V2000
   68.2170   63.5370   18.4020 O   0  5  0  0  0  0  0  0  0  0  0  0
   69.5540   64.5860   19.7460 O   0  0  0  0  0  0  0  0  0  0  0  0
   70.2350   62.3980   18.9630 C   0  0  0  0  0  0  0  0  0  0  0  0
   71.4600   62.4230   19.6560 C   0  0  0  0  0  0  0  0  0  0  0  0
   72.3450   61.3300   19.5570 C   0  0  0  0  0  0  0  0  0  0  0  0
   71.9760   60.2140   18.8030 C   0  0  0  0  0  0  0  0  0  0  0  0
   70.7530   60.2040   18.1240 C   0  0  0  0  0  0  0  0  0  0  0  0
   69.8990   61.2880   18.1970 C   0  0  0  0  0  0  0  0  0  0  0  0
   72.8850   59.0330   18.6660 C   0  0  0  0  0  0  0  0  0  0  0  0
   72.5470   57.8650   18.0710 O   0  0  0  0  0  0  0  0  0  0  0  0
   74.1760   58.9460   19.0320 C   0  0  0  0  0  0  0  0  0  0  0  0
   74.6260   57.7080   18.6750 C   0  0  0  0  0  0  0  0  0  0  0  0
   73.6080   57.0460   18.0870 C   0  0  0  0  0  0  0  0  0  0  0  0
   73.6350   55.6710   17.5130 C   0  0  0  0  0  0  0  0  0  0  0  0
   72.5750   55.2380   16.8470 C   0  0  0  0  0  0  0  0  0  0  0  0
   71.0780   55.9880   16.8920 S   0  0  0  0  0  0  0  0  0  0  0  0
   70.4090   54.8630   15.8410 C   0  0  0  0  0  0  0  0  0  0  0  0
   69.1320   54.8910   15.4370 N   0  0  0  0  0  0  0  0  0  0  0  0
   71.3130   53.9320   15.4390 N   0  0  0  0  0  0  0  0  0  0  0  0
   69.2760   63.5690   19.0360 C   0  0  0  0  0  0  0  0  0  0  0  0
   72.5520   54.1190   15.9800 C   0  0  0  0  0  0  0  0  0  0  0  0
   73.5260   53.3990   15.7290 O   0  0  0  0  0  0  0  0  0  0  0  0
   71.7223   63.2809   20.2645 H   0  0  0  0  0  0  0  0  0  0  0  0
   73.3039   61.3557   20.0619 H   0  0  0  0  0  0  0  0  0  0  0  0
   70.4726   59.3381   17.5352 H   0  0  0  0  0  0  0  0  0  0  0  0
   68.9612   61.2725   17.6535 H   0  0  0  0  0  0  0  0  0  0  0  0
   74.7578   59.7236   19.5247 H   0  0  0  0  0  0  0  0  0  0  0  0
   75.6313   57.3219   18.8366 H   0  0  0  0  0  0  0  0  0  0  0  0
   74.5095   55.0343   17.6387 H   0  0  0  0  0  0  0  0  0  0  0  0
   68.7882   54.1862   14.8036 H   0  0  0  0  0  0  0  0  0  0  0  0
   71.0930   53.1857   14.8107 H   0  0  0  0  0  0  0  0  0  0  0  0
  3  4  2  0  0  0  0
  3  8  1  0  0  0  0
  3 20  1  0  0  0  0
  4  5  1  0  0  0  0
  4 23  1  0  0  0  0
  5  6  2  0  0  0  0
  5 24  1  0  0  0  0
  6  7  1  0  0  0  0
  6  9  1  0  0  0  0
  7  8  2  0  0  0  0
  7 25  1  0  0  0  0
  8 26  1  0  0  0  0
  9 10  1  0  0  0  0
  9 11  2  0  0  0  0
 10 13  1  0  0  0  0
 11 12  1  0  0  0  0
 11 27  1  0  0  0  0
 12 13  2  0  0  0  0
 12 28  1  0  0  0  0
 13 14  1  0  0  0  0
 14 15  2  0  0  0  0
 14 29  1  0  0  0  0
 15 16  1  0  0  0  0
 15 21  1  0  0  0  0
 16 17  1  0  0  0  0
 17 18  2  0  0  0  0
 17 19  1  0  0  0  0
 18 30  1  0  0  0  0
 19 21  1  0  0  0  0
 19 31  1  0  0  0  0
 20  1  1  0  0  0  0
 20  2  2  0  0  0  0
 21 22  2  0  0  0  0
M  CHG  1   1  -1
M  END
