2uzl_ligand
 OpenBabel08222323343D

 37 39  0  0  0  0  0  0  0  0999 V2000
   67.9450   64.3970   20.1450 O   0  0  0  0  0  0  0  0  0  0  0  0
   68.0780   63.8400   18.8480 S   0  0  0  0  0  0  0  0  0  0  0  0
   68.4840   64.8060   17.8890 O   0  0  0  0  0  0  0  0  0  0  0  0
   66.7510   63.0740   18.3970 N   0  0  0  0  0  0  0  0  0  0  0  0
   69.3310   62.6050   18.9210 C   0  0  0  0  0  0  0  0  0  0  0  0
   70.3740   62.6550   19.8540 C   0  0  0  0  0  0  0  0  0  0  0  0
   70.4910   63.8100   20.8450 C   0  0  0  0  0  0  0  0  0  0  0  0
   70.1170   64.9480   20.2710 F   0  0  0  0  0  0  0  0  0  0  0  0
   71.7530   63.9160   21.2410 F   0  0  0  0  0  0  0  0  0  0  0  0
   69.7190   63.5750   21.9010 F   0  0  0  0  0  0  0  0  0  0  0  0
   71.3340   61.6400   19.8720 C   0  0  0  0  0  0  0  0  0  0  0  0
   71.2370   60.5810   18.9770 C   0  0  0  0  0  0  0  0  0  0  0  0
   70.1840   60.5270   18.0760 C   0  0  0  0  0  0  0  0  0  0  0  0
   69.2370   61.5320   18.0470 C   0  0  0  0  0  0  0  0  0  0  0  0
   72.2240   59.4560   18.9720 C   0  0  0  0  0  0  0  0  0  0  0  0
   71.9790   58.2360   18.4190 O   0  0  0  0  0  0  0  0  0  0  0  0
   73.5250   59.4560   19.4600 C   0  0  0  0  0  0  0  0  0  0  0  0
   74.0640   58.1980   19.1950 C   0  0  0  0  0  0  0  0  0  0  0  0
   73.0820   57.4500   18.5520 C   0  0  0  0  0  0  0  0  0  0  0  0
   73.1860   56.0590   18.0580 C   0  0  0  0  0  0  0  0  0  0  0  0
   72.1800   55.5530   17.3180 C   0  0  0  0  0  0  0  0  0  0  0  0
   70.7640   56.3550   16.9770 S   0  0  0  0  0  0  0  0  0  0  0  0
   70.1780   55.0670   16.1060 C   0  0  0  0  0  0  0  0  0  0  0  0
   69.0400   55.0560   15.5410 N   0  0  0  0  0  0  0  0  0  0  0  0
   71.0460   54.0500   16.0570 N   0  0  0  0  0  0  0  0  0  0  0  0
   72.1830   54.2920   16.7280 C   0  0  0  0  0  0  0  0  0  0  0  0
   73.1120   53.4930   16.8100 O   0  0  0  0  0  0  0  0  0  0  0  0
   66.3580   62.3664   18.9843 H   0  0  0  0  0  0  0  0  0  0  0  0
   66.3131   63.3020   17.5273 H   0  0  0  0  0  0  0  0  0  0  0  0
   72.1522   61.6783   20.5820 H   0  0  0  0  0  0  0  0  0  0  0  0
   70.1037   59.6911   17.3905 H   0  0  0  0  0  0  0  0  0  0  0  0
   68.4177   61.4821   17.3390 H   0  0  0  0  0  0  0  0  0  0  0  0
   74.0292   60.2838   19.9565 H   0  0  0  0  0  0  0  0  0  0  0  0
   75.0692   57.8621   19.4452 H   0  0  0  0  0  0  0  0  0  0  0  0
   74.0615   55.4540   18.2888 H   0  0  0  0  0  0  0  0  0  0  0  0
   68.7409   54.2428   15.0259 H   0  0  0  0  0  0  0  0  0  0  0  0
   70.8658   53.1956   15.5696 H   0  0  0  0  0  0  0  0  0  0  0  0
  1  2  2  0  0  0  0
  2  3  2  0  0  0  0
  2  4  1  0  0  0  0
  2  5  1  0  0  0  0
  4 28  1  0  0  0  0
  4 29  1  0  0  0  0
  5  6  2  0  0  0  0
  5 14  1  0  0  0  0
  6  7  1  0  0  0  0
  6 11  1  0  0  0  0
  7  8  1  0  0  0  0
  7  9  1  0  0  0  0
  7 10  1  0  0  0  0
 11 12  2  0  0  0  0
 11 30  1  0  0  0  0
 12 13  1  0  0  0  0
 12 15  1  0  0  0  0
 13 14  2  0  0  0  0
 13 31  1  0  0  0  0
 14 32  1  0  0  0  0
 15 16  1  0  0  0  0
 15 17  2  0  0  0  0
 16 19  1  0  0  0  0
 17 18  1  0  0  0  0
 17 33  1  0  0  0  0
 18 19  2  0  0  0  0
 18 34  1  0  0  0  0
 19 20  1  0  0  0  0
 20 21  2  0  0  0  0
 20 35  1  0  0  0  0
 21 22  1  0  0  0  0
 21 26  1  0  0  0  0
 22 23  1  0  0  0  0
 23 24  2  0  0  0  0
 23 25  1  0  0  0  0
 24 36  1  0  0  0  0
 25 26  1  0  0  0  0
 25 37  1  0  0  0  0
 26 27  2  0  0  0  0
M  END
