2uzn_ligand
 OpenBabel08222323343D

 37 39  0  0  0  0  0  0  0  0999 V2000
    7.1480   60.4530    6.6830 O   0  0  0  0  0  0  0  0  0  0  0  0
    6.0470   60.1670    7.5640 S   0  0  0  0  0  0  0  0  0  0  0  0
    5.3600   58.9900    7.1040 O   0  0  0  0  0  0  0  0  0  0  0  0
    6.5970   59.9180    9.0460 N   0  0  0  0  0  0  0  0  0  0  0  0
    4.9310   61.5280    7.5700 C   0  0  0  0  0  0  0  0  0  0  0  0
    3.8930   61.5590    8.4930 C   0  0  0  0  0  0  0  0  0  0  0  0
    2.9940   62.6130    8.4840 C   0  0  0  0  0  0  0  0  0  0  0  0
    3.1320   63.6430    7.5600 C   0  0  0  0  0  0  0  0  0  0  0  0
    4.1640   63.6120    6.6280 C   0  0  0  0  0  0  0  0  0  0  0  0
    5.0630   62.5480    6.6310 C   0  0  0  0  0  0  0  0  0  0  0  0
    2.1380   64.7620    7.5700 C   0  0  0  0  0  0  0  0  0  0  0  0
    1.0230   64.8010    8.3590 O   0  0  0  0  0  0  0  0  0  0  0  0
    2.1460   65.9030    6.7740 C   0  0  0  0  0  0  0  0  0  0  0  0
    1.0280   66.6570    7.1180 C   0  0  0  0  0  0  0  0  0  0  0  0
    0.3480   65.9650    8.1190 C   0  0  0  0  0  0  0  0  0  0  0  0
   -0.9170   66.3640    8.7800 C   0  0  0  0  0  0  0  0  0  0  0  0
   -1.3890   65.6360    9.8090 C   0  0  0  0  0  0  0  0  0  0  0  0
   -0.5580   64.3950   10.5270 S   0  0  0  0  0  0  0  0  0  0  0  0
   -1.7530   64.1700   11.6560 C   0  0  0  0  0  0  0  0  0  0  0  0
   -1.7060   63.2880   12.5690 N   0  0  0  0  0  0  0  0  0  0  0  0
   -2.7660   65.0290   11.4980 N   0  0  0  0  0  0  0  0  0  0  0  0
   -2.5900   65.8730   10.4730 C   0  0  0  0  0  0  0  0  0  0  0  0
   -1.5870   67.6560    8.3970 C   0  0  0  0  0  0  0  0  0  0  0  0
   -3.4000   66.7390   10.1550 O   0  0  0  0  0  0  0  0  0  0  0  0
    7.1024   60.6393    9.5195 H   0  0  0  0  0  0  0  0  0  0  0  0
    6.4353   59.0411    9.4986 H   0  0  0  0  0  0  0  0  0  0  0  0
    3.7868   60.7605    9.2184 H   0  0  0  0  0  0  0  0  0  0  0  0
    2.1802   62.6349    9.1997 H   0  0  0  0  0  0  0  0  0  0  0  0
    4.2681   64.4114    5.9033 H   0  0  0  0  0  0  0  0  0  0  0  0
    5.8651   62.5139    5.9027 H   0  0  0  0  0  0  0  0  0  0  0  0
    2.8898   66.1589    6.0208 H   0  0  0  0  0  0  0  0  0  0  0  0
    0.7375   67.6128    6.6845 H   0  0  0  0  0  0  0  0  0  0  0  0
   -2.4657   63.2016   13.2259 H   0  0  0  0  0  0  0  0  0  0  0  0
   -3.5744   65.0400   12.0866 H   0  0  0  0  0  0  0  0  0  0  0  0
   -1.0609   68.1018    7.5400 H   0  0  0  0  0  0  0  0  0  0  0  0
   -1.5559   68.3517    9.2485 H   0  0  0  0  0  0  0  0  0  0  0  0
   -2.6338   67.4589    8.1225 H   0  0  0  0  0  0  0  0  0  0  0  0
  1  2  2  0  0  0  0
  2  3  2  0  0  0  0
  2  4  1  0  0  0  0
  2  5  1  0  0  0  0
  4 25  1  0  0  0  0
  4 26  1  0  0  0  0
  5  6  2  0  0  0  0
  5 10  1  0  0  0  0
  6  7  1  0  0  0  0
  6 27  1  0  0  0  0
  7  8  2  0  0  0  0
  7 28  1  0  0  0  0
  8  9  1  0  0  0  0
  8 11  1  0  0  0  0
  9 10  2  0  0  0  0
  9 29  1  0  0  0  0
 10 30  1  0  0  0  0
 11 12  1  0  0  0  0
 11 13  2  0  0  0  0
 12 15  1  0  0  0  0
 13 14  1  0  0  0  0
 13 31  1  0  0  0  0
 14 15  2  0  0  0  0
 14 32  1  0  0  0  0
 15 16  1  0  0  0  0
 16 17  2  0  0  0  0
 16 23  1  0  0  0  0
 17 18  1  0  0  0  0
 17 22  1  0  0  0  0
 18 19  1  0  0  0  0
 19 20  2  0  0  0  0
 19 21  1  0  0  0  0
 20 33  1  0  0  0  0
 21 22  1  0  0  0  0
 21 34  1  0  0  0  0
 22 24  2  0  0  0  0
 23 35  1  0  0  0  0
 23 36  1  0  0  0  0
 23 37  1  0  0  0  0
M  END
