2v13_ligand
 OpenBabel08222323343D

 77 77  0  0  1  0  0  0  0  0999 V2000
   86.2930   25.6350  -37.1600 C   0  0  0  0  0  0  0  0  0  0  0  0
   85.7010   25.6730  -35.8710 O   0  0  0  0  0  0  0  0  0  0  0  0
   84.7080   24.6970  -36.0060 C   0  0  0  0  0  0  0  0  0  0  0  0
   85.0570   23.5580  -35.0820 C   0  0  0  0  0  0  0  0  0  0  0  0
   83.6860   22.9810  -34.8030 C   0  0  0  0  0  0  0  0  0  0  0  0
   83.7070   21.7090  -34.1790 O   0  0  0  0  0  0  0  0  0  0  0  0
   82.7110   21.3470  -33.2880 C   0  0  0  0  0  0  0  0  0  0  0  0
   82.6060   22.1810  -32.1870 C   0  0  0  0  0  0  0  0  0  0  0  0
   81.5840   22.0740  -31.2900 C   0  0  0  0  0  0  0  0  0  0  0  0
   80.6400   21.1290  -31.4950 C   0  0  0  0  0  0  0  0  0  0  0  0
   80.7150   20.2900  -32.5850 C   0  0  0  0  0  0  0  0  0  0  0  0
   81.7410   20.3720  -33.4870 C   0  0  0  0  0  0  0  0  0  0  0  0
   81.8070   19.4940  -34.5830 C   0  0  0  0  0  0  0  0  0  0  0  0
   81.8310   18.2950  -34.3790 O   0  0  0  0  0  0  0  0  0  0  0  0
   82.9160   18.9620  -36.6150 C   0  0  0  0  0  0  0  0  0  0  0  0
   82.2470   19.8980  -35.7450 N   0  0  0  0  0  0  0  0  0  0  0  0
   80.9610   19.8110  -38.0050 C   0  0  0  0  0  0  0  0  0  0  0  0
   82.4140   19.2530  -37.9850 C   0  0  2  0  0  0  0  0  0  0  0  0
   82.4300   17.9810  -38.7790 C   0  0  0  0  0  0  0  0  0  0  0  0
   84.7680   18.2490  -39.2870 N   0  3  0  0  0  0  0  0  0  0  0  0
   83.7330   17.3190  -38.9240 C   0  0  2  0  0  0  0  0  0  0  0  0
   83.5650   16.3020  -40.0360 C   0  0  1  0  0  0  0  0  0  0  0  0
   83.9430   17.1050  -41.1570 O   0  0  0  0  0  0  0  0  0  0  0  0
   84.4860   15.0650  -39.9620 C   0  0  0  0  0  0  0  0  0  0  0  0
   84.5070   14.2200  -41.2130 C   0  0  1  0  0  0  0  0  0  0  0  0
   85.6480   13.2880  -41.2340 C   0  0  0  0  0  0  0  0  0  0  0  0
   83.3200   13.3510  -41.4160 C   0  0  0  0  0  0  0  0  0  0  0  0
   82.6970   12.9220  -40.4510 O   0  0  0  0  0  0  0  0  0  0  0  0
   81.7740   12.3730  -42.9820 C   0  0  0  0  0  0  0  0  0  0  0  0
   83.0160   13.0480  -42.6590 N   0  0  0  0  0  0  0  0  0  0  0  0
   80.5630   13.2390  -42.6730 C   0  0  0  0  0  0  0  0  0  0  0  0
   79.2890   12.7330  -43.3300 C   0  0  0  0  0  0  0  0  0  0  0  0
   78.8740   11.3490  -42.7430 C   0  0  0  0  0  0  0  0  0  0  0  0
   87.1121   26.3675  -37.2090 H   0  0  0  0  0  0  0  0  0  0  0  0
   85.5355   25.8808  -37.9188 H   0  0  0  0  0  0  0  0  0  0  0  0
   86.6904   24.6273  -37.3515 H   0  0  0  0  0  0  0  0  0  0  0  0
   84.6732   24.3390  -37.0455 H   0  0  0  0  0  0  0  0  0  0  0  0
   83.7296   25.1171  -35.7299 H   0  0  0  0  0  0  0  0  0  0  0  0
   85.5386   23.9182  -34.1610 H   0  0  0  0  0  0  0  0  0  0  0  0
   85.7113   22.8240  -35.5750 H   0  0  0  0  0  0  0  0  0  0  0  0
   83.1501   22.8874  -35.7590 H   0  0  0  0  0  0  0  0  0  0  0  0
   83.1453   23.6784  -34.1463 H   0  0  0  0  0  0  0  0  0  0  0  0
   83.3608   22.9437  -32.0332 H   0  0  0  0  0  0  0  0  0  0  0  0
   81.5302   22.7330  -30.4310 H   0  0  0  0  0  0  0  0  0  0  0  0
   79.8172   21.0304  -30.7962 H   0  0  0  0  0  0  0  0  0  0  0  0
   79.9411   19.5453  -32.7321 H   0  0  0  0  0  0  0  0  0  0  0  0
   82.6699   17.9290  -36.3282 H   0  0  0  0  0  0  0  0  0  0  0  0
   84.0055   19.1061  -36.5675 H   0  0  0  0  0  0  0  0  0  0  0  0
   82.1210   20.8485  -36.0289 H   0  0  0  0  0  0  0  0  0  0  0  0
   80.6561   20.0027  -39.0444 H   0  0  0  0  0  0  0  0  0  0  0  0
   80.9206   20.7492  -37.4321 H   0  0  0  0  0  0  0  0  0  0  0  0
   80.2795   19.0755  -37.5527 H   0  0  0  0  0  0  0  0  0  0  0  0
   83.0818   19.9908  -38.4537 H   0  0  0  0  0  0  0  0  0  0  0  0
   82.0574   18.2114  -39.7880 H   0  0  0  0  0  0  0  0  0  0  0  0
   81.7468   17.2717  -38.2889 H   0  0  0  0  0  0  0  0  0  0  0  0
   85.6440   17.7585  -39.3768 H   0  0  0  0  0  0  0  0  0  0  0  0
   84.8503   18.9557  -38.5730 H   0  0  0  0  0  0  0  0  0  0  0  0
   84.5353   18.6846  -40.1657 H   0  0  0  0  0  0  0  0  0  0  0  0
   84.0065   16.8190  -37.9832 H   0  0  0  0  0  0  0  0  0  0  0  0
   82.5199   15.9650  -40.1008 H   0  0  0  0  0  0  0  0  0  0  0  0
   83.3588   17.8513  -41.2219 H   0  0  0  0  0  0  0  0  0  0  0  0
   84.1462   14.4339  -39.1276 H   0  0  0  0  0  0  0  0  0  0  0  0
   85.5111   15.4120  -39.7654 H   0  0  0  0  0  0  0  0  0  0  0  0
   84.5862   14.9093  -42.0666 H   0  0  0  0  0  0  0  0  0  0  0  0
   85.6210   12.6962  -42.1608 H   0  0  0  0  0  0  0  0  0  0  0  0
   85.5870   12.6141  -40.3668 H   0  0  0  0  0  0  0  0  0  0  0  0
   86.5878   13.8579  -41.1901 H   0  0  0  0  0  0  0  0  0  0  0  0
   81.7087   11.4465  -42.3926 H   0  0  0  0  0  0  0  0  0  0  0  0
   81.7711   12.1266  -44.0540 H   0  0  0  0  0  0  0  0  0  0  0  0
   83.6515   13.2869  -43.3932 H   0  0  0  0  0  0  0  0  0  0  0  0
   80.7610   14.2598  -43.0318 H   0  0  0  0  0  0  0  0  0  0  0  0
   80.4128   13.2560  -41.5834 H   0  0  0  0  0  0  0  0  0  0  0  0
   79.4580   12.6295  -44.4120 H   0  0  0  0  0  0  0  0  0  0  0  0
   78.4800   13.4569  -43.1527 H   0  0  0  0  0  0  0  0  0  0  0  0
   77.9515   11.0046  -43.2332 H   0  0  0  0  0  0  0  0  0  0  0  0
   78.6999   11.4468  -41.6613 H   0  0  0  0  0  0  0  0  0  0  0  0
   79.6779   10.6194  -42.9205 H   0  0  0  0  0  0  0  0  0  0  0  0
  1  2  1  0  0  0  0
  1 34  1  0  0  0  0
  1 35  1  0  0  0  0
  1 36  1  0  0  0  0
  2  3  1  0  0  0  0
  3  4  1  0  0  0  0
  3 37  1  0  0  0  0
  3 38  1  0  0  0  0
  4  5  1  0  0  0  0
  4 39  1  0  0  0  0
  4 40  1  0  0  0  0
  5  6  1  0  0  0  0
  5 41  1  0  0  0  0
  5 42  1  0  0  0  0
  6  7  1  0  0  0  0
  7  8  2  0  0  0  0
  7 12  1  0  0  0  0
  8  9  1  0  0  0  0
  8 43  1  0  0  0  0
  9 10  2  0  0  0  0
  9 44  1  0  0  0  0
 10 11  1  0  0  0  0
 10 45  1  0  0  0  0
 11 12  2  0  0  0  0
 11 46  1  0  0  0  0
 12 13  1  0  0  0  0
 13 14  2  0  0  0  0
 13 16  1  0  0  0  0
 15 18  1  0  0  0  0
 15 47  1  0  0  0  0
 15 48  1  0  0  0  0
 16 15  1  0  0  0  0
 16 49  1  0  0  0  0
 17 50  1  0  0  0  0
 17 51  1  0  0  0  0
 17 52  1  0  0  0  0
 18 17  1  0  0  0  0
 18 19  1  0  0  0  0
 18 53  1  6  0  0  0
 19 21  1  0  0  0  0
 19 54  1  0  0  0  0
 19 55  1  0  0  0  0
 20 56  1  0  0  0  0
 20 57  1  0  0  0  0
 20 58  1  0  0  0  0
 21 20  1  0  0  0  0
 21 22  1  0  0  0  0
 21 59  1  1  0  0  0
 22 23  1  0  0  0  0
 22 24  1  0  0  0  0
 22 60  1  6  0  0  0
 23 61  1  0  0  0  0
 24 25  1  0  0  0  0
 24 62  1  0  0  0  0
 24 63  1  0  0  0  0
 25 26  1  0  0  0  0
 25 27  1  0  0  0  0
 25 64  1  6  0  0  0
 26 65  1  0  0  0  0
 26 66  1  0  0  0  0
 26 67  1  0  0  0  0
 27 28  2  0  0  0  0
 27 30  1  0  0  0  0
 29 31  1  0  0  0  0
 29 68  1  0  0  0  0
 29 69  1  0  0  0  0
 30 29  1  0  0  0  0
 30 70  1  0  0  0  0
 31 32  1  0  0  0  0
 31 71  1  0  0  0  0
 31 72  1  0  0  0  0
 32 33  1  0  0  0  0
 32 73  1  0  0  0  0
 32 74  1  0  0  0  0
 33 75  1  0  0  0  0
 33 76  1  0  0  0  0
 33 77  1  0  0  0  0
M  CHG  1  20   1
M  END
