2v16_ligand
 OpenBabel08222323343D

 79 80  0  0  1  0  0  0  0  0999 V2000
   15.0460   43.6410   70.8210 C   0  0  0  0  0  0  0  0  0  0  0  0
   15.0650   45.1600   70.7220 O   0  0  0  0  0  0  0  0  0  0  0  0
   14.0670   45.7280   71.5810 C   0  0  0  0  0  0  0  0  0  0  0  0
   13.5100   44.9490   72.3930 O   0  0  0  0  0  0  0  0  0  0  0  0
   13.6110   47.1370   71.5470 C   0  0  2  0  0  0  0  0  0  0  0  0
   14.0030   47.4790   72.9680 C   0  0  0  0  0  0  0  0  0  0  0  0
   13.5000   48.8170   73.3360 C   0  0  0  0  0  0  0  0  0  0  0  0
   14.2950   49.7790   74.0560 C   0  0  0  0  0  0  0  0  0  0  0  0
   13.6730   51.1380   74.3230 C   0  0  0  0  0  0  0  0  0  0  0  0
   12.4190   51.5220   73.8450 C   0  0  0  0  0  0  0  0  0  0  0  0
   11.6820   50.6160   73.0600 C   0  0  0  0  0  0  0  0  0  0  0  0
   12.2480   49.2420   72.7600 C   0  0  0  0  0  0  0  0  0  0  0  0
   11.5300   48.1680   71.9710 N   0  0  0  0  0  0  0  0  0  0  0  0
   12.1670   46.9630   71.6000 C   0  0  0  0  0  0  0  0  0  0  0  0
   10.1710   48.3200   71.6290 C   0  0  0  0  0  0  0  0  0  0  0  0
    9.5430   49.3240   72.0060 O   0  0  0  0  0  0  0  0  0  0  0  0
    9.4860   47.3020   70.7100 C   0  0  0  0  0  0  0  0  0  0  0  0
    8.9280   48.0840   69.6230 C   0  0  0  0  0  0  0  0  0  0  0  0
    9.9140   48.9720   68.9730 C   0  0  0  0  0  0  0  0  0  0  0  0
    7.7560   49.0040   70.0320 C   0  0  0  0  0  0  0  0  0  0  0  0
    8.4640   47.1550   68.6220 C   0  0  0  0  0  0  0  0  0  0  0  0
    7.4430   46.2430   69.2840 C   0  0  2  0  0  0  0  0  0  0  0  0
    8.2470   44.9030   69.5060 N   0  3  0  0  0  0  0  0  0  0  0  0
    6.2660   45.9000   68.3560 C   0  0  1  0  0  0  0  0  0  0  0  0
    6.9830   44.8730   67.5570 O   0  0  0  0  0  0  0  0  0  0  0  0
    5.1930   45.2640   69.3680 C   0  0  0  0  0  0  0  0  0  0  0  0
    4.0430   44.7720   68.4950 C   0  0  1  0  0  0  0  0  0  0  0  0
    3.2760   43.6620   69.2780 C   0  0  0  0  0  0  0  0  0  0  0  0
    3.3150   46.0400   67.9720 C   0  0  0  0  0  0  0  0  0  0  0  0
    3.5350   47.1020   68.4280 O   0  0  0  0  0  0  0  0  0  0  0  0
    2.5000   45.9940   66.9960 N   0  0  0  0  0  0  0  0  0  0  0  0
    1.9960   47.1240   66.2530 C   0  0  0  0  0  0  0  0  0  0  0  0
    3.1300   47.8680   65.8800 C   0  0  0  0  0  0  0  0  0  0  0  0
    2.7920   48.4560   64.5710 C   0  0  0  0  0  0  0  0  0  0  0  0
    1.6740   49.4960   65.0320 C   0  0  0  0  0  0  0  0  0  0  0  0
   15.8160   43.2207   70.1573 H   0  0  0  0  0  0  0  0  0  0  0  0
   14.0570   43.2662   70.5187 H   0  0  0  0  0  0  0  0  0  0  0  0
   15.2514   43.3385   71.8585 H   0  0  0  0  0  0  0  0  0  0  0  0
   13.9959   47.7866   70.7471 H   0  0  0  0  0  0  0  0  0  0  0  0
   15.0996   47.4687   73.0533 H   0  0  0  0  0  0  0  0  0  0  0  0
   13.5749   46.7310   73.6515 H   0  0  0  0  0  0  0  0  0  0  0  0
   15.2974   49.5419   74.3937 H   0  0  0  0  0  0  0  0  0  0  0  0
   14.2339   51.8497   74.9179 H   0  0  0  0  0  0  0  0  0  0  0  0
   12.0191   52.5029   74.0749 H   0  0  0  0  0  0  0  0  0  0  0  0
   10.7111   50.9001   72.6704 H   0  0  0  0  0  0  0  0  0  0  0  0
   11.9244   46.1846   72.3384 H   0  0  0  0  0  0  0  0  0  0  0  0
   11.8043   46.6538   70.6086 H   0  0  0  0  0  0  0  0  0  0  0  0
    8.6894   46.7697   71.2504 H   0  0  0  0  0  0  0  0  0  0  0  0
   10.2175   46.5756   70.3263 H   0  0  0  0  0  0  0  0  0  0  0  0
    9.4248   49.5319   68.1624 H   0  0  0  0  0  0  0  0  0  0  0  0
   10.7342   48.3678   68.5581 H   0  0  0  0  0  0  0  0  0  0  0  0
   10.3170   49.6775   69.7145 H   0  0  0  0  0  0  0  0  0  0  0  0
    6.9762   48.4064   70.5268 H   0  0  0  0  0  0  0  0  0  0  0  0
    7.3365   49.4840   69.1356 H   0  0  0  0  0  0  0  0  0  0  0  0
    8.1208   49.7765   70.7249 H   0  0  0  0  0  0  0  0  0  0  0  0
    9.3076   46.5606   68.2413 H   0  0  0  0  0  0  0  0  0  0  0  0
    7.9958   47.7018   67.7903 H   0  0  0  0  0  0  0  0  0  0  0  0
    7.0771   46.6746   70.2273 H   0  0  0  0  0  0  0  0  0  0  0  0
    7.6492   44.2216   69.9469 H   0  0  0  0  0  0  0  0  0  0  0  0
    9.0437   45.0831   70.0966 H   0  0  0  0  0  0  0  0  0  0  0  0
    8.5615   44.5485   68.6164 H   0  0  0  0  0  0  0  0  0  0  0  0
    5.8548   46.7281   67.7601 H   0  0  0  0  0  0  0  0  0  0  0  0
    7.7361   45.2701   67.1357 H   0  0  0  0  0  0  0  0  0  0  0  0
    4.8371   46.0253   70.0778 H   0  0  0  0  0  0  0  0  0  0  0  0
    5.6392   44.4255   69.9228 H   0  0  0  0  0  0  0  0  0  0  0  0
    4.4618   44.2747   67.6077 H   0  0  0  0  0  0  0  0  0  0  0  0
    2.4405   43.2921   68.6656 H   0  0  0  0  0  0  0  0  0  0  0  0
    2.8851   44.0796   70.2176 H   0  0  0  0  0  0  0  0  0  0  0  0
    3.9615   42.8316   69.5029 H   0  0  0  0  0  0  0  0  0  0  0  0
    2.1782   45.0891   66.7173 H   0  0  0  0  0  0  0  0  0  0  0  0
    1.3288   47.7309   66.8827 H   0  0  0  0  0  0  0  0  0  0  0  0
    1.4494   46.7841   65.3610 H   0  0  0  0  0  0  0  0  0  0  0  0
    4.0097   47.2133   65.7933 H   0  0  0  0  0  0  0  0  0  0  0  0
    3.3325   48.6587   66.6174 H   0  0  0  0  0  0  0  0  0  0  0  0
    2.3916   47.7047   63.8745 H   0  0  0  0  0  0  0  0  0  0  0  0
    3.6557   48.9587   64.1113 H   0  0  0  0  0  0  0  0  0  0  0  0
    1.2969   50.0419   64.1546 H   0  0  0  0  0  0  0  0  0  0  0  0
    2.1091   50.2087   65.7480 H   0  0  0  0  0  0  0  0  0  0  0  0
    0.8449   48.9547   65.5112 H   0  0  0  0  0  0  0  0  0  0  0  0
  1  2  1  0  0  0  0
  1 36  1  0  0  0  0
  1 37  1  0  0  0  0
  1 38  1  0  0  0  0
  2  3  1  0  0  0  0
  3  4  2  0  0  0  0
  3  5  1  0  0  0  0
  5  6  1  0  0  0  0
  5 14  1  0  0  0  0
  5 39  1  6  0  0  0
  6  7  1  0  0  0  0
  6 40  1  0  0  0  0
  6 41  1  0  0  0  0
  7  8  2  0  0  0  0
  7 12  1  0  0  0  0
  8  9  1  0  0  0  0
  8 42  1  0  0  0  0
  9 10  2  0  0  0  0
  9 43  1  0  0  0  0
 10 11  1  0  0  0  0
 10 44  1  0  0  0  0
 11 12  2  0  0  0  0
 11 45  1  0  0  0  0
 12 13  1  0  0  0  0
 13 14  1  0  0  0  0
 13 15  1  0  0  0  0
 14 46  1  0  0  0  0
 14 47  1  0  0  0  0
 15 16  2  0  0  0  0
 15 17  1  0  0  0  0
 17 18  1  0  0  0  0
 17 48  1  0  0  0  0
 17 49  1  0  0  0  0
 18 19  1  0  0  0  0
 18 20  1  0  0  0  0
 18 21  1  0  0  0  0
 19 50  1  0  0  0  0
 19 51  1  0  0  0  0
 19 52  1  0  0  0  0
 20 53  1  0  0  0  0
 20 54  1  0  0  0  0
 20 55  1  0  0  0  0
 21 22  1  0  0  0  0
 21 56  1  0  0  0  0
 21 57  1  0  0  0  0
 22 23  1  0  0  0  0
 22 24  1  0  0  0  0
 22 58  1  1  0  0  0
 23 59  1  0  0  0  0
 23 60  1  0  0  0  0
 23 61  1  0  0  0  0
 24 25  1  0  0  0  0
 24 26  1  0  0  0  0
 24 62  1  6  0  0  0
 25 63  1  0  0  0  0
 26 27  1  0  0  0  0
 26 64  1  0  0  0  0
 26 65  1  0  0  0  0
 27 28  1  0  0  0  0
 27 29  1  0  0  0  0
 27 66  1  6  0  0  0
 28 67  1  0  0  0  0
 28 68  1  0  0  0  0
 28 69  1  0  0  0  0
 29 30  2  0  0  0  0
 29 31  1  0  0  0  0
 31 32  1  0  0  0  0
 31 70  1  0  0  0  0
 32 33  1  0  0  0  0
 32 71  1  0  0  0  0
 32 72  1  0  0  0  0
 33 34  1  0  0  0  0
 33 73  1  0  0  0  0
 33 74  1  0  0  0  0
 34 35  1  0  0  0  0
 34 75  1  0  0  0  0
 34 76  1  0  0  0  0
 35 77  1  0  0  0  0
 35 78  1  0  0  0  0
 35 79  1  0  0  0  0
M  CHG  1  23   1
M  END
