2v22_ligand
 OpenBabel08222323343D

107109  0  0  1  0  0  0  0  0999 V2000
   36.1420   21.2960   -5.4880 C   0  0  0  0  0  0  0  0  0  0  0  0
   35.4780   21.4690   -6.6970 C   0  0  0  0  0  0  0  0  0  0  0  0
   34.1240   21.1580   -6.7880 C   0  0  0  0  0  0  0  0  0  0  0  0
   33.3050   21.3520   -8.2860 Cl  0  0  0  0  0  0  0  0  0  0  0  0
   33.3950   20.6560   -5.7180 C   0  0  0  0  0  0  0  0  0  0  0  0
   34.0670   20.4700   -4.5210 C   0  0  0  0  0  0  0  0  0  0  0  0
   35.4240   20.7640   -4.4250 C   0  0  0  0  0  0  0  0  0  0  0  0
   35.9810   20.6350   -3.2360 N   0  0  0  0  0  0  0  0  0  0  0  0
   36.7040   21.4980   -2.7350 N   0  0  0  0  0  0  0  0  0  0  0  0
   35.7220   19.6350   -2.3980 C   0  0  0  0  0  0  0  0  0  0  0  0
   34.8580   18.4040   -2.7130 C   0  0  0  0  0  0  0  0  0  0  0  0
   36.3750   19.9080   -1.2760 N   0  0  0  0  0  0  0  0  0  0  0  0
   36.9950   21.0710   -1.5080 C   0  0  0  0  0  0  0  0  0  0  0  0
   37.8890   21.8810   -0.5650 C   0  0  0  0  0  0  0  0  0  0  0  0
   38.0930   23.0760   -0.8060 O   0  0  0  0  0  0  0  0  0  0  0  0
   38.3720   21.2510    0.5140 N   0  0  0  0  0  0  0  0  0  0  0  0
   39.2170   21.9940    1.4600 C   0  0  1  0  0  0  0  0  0  0  0  0
   39.7390   21.0430    2.5430 C   0  0  0  0  0  0  0  0  0  0  0  0
   39.8030   21.6860    3.9340 C   0  0  0  0  0  0  0  0  0  0  0  0
   41.2240   21.5920    4.4920 C   0  0  0  0  0  0  0  0  0  0  0  0
   41.5400   20.2150    4.9330 N   0  0  0  0  0  0  0  0  0  0  0  0
   41.7290   19.9590    6.2320 C   0  0  0  0  0  3  0  0  0  0  0  0
   42.0040   18.7260    6.6510 N   0  0  0  0  0  0  0  0  0  0  0  0
   41.6160   20.9400    7.1270 N   0  0  0  0  0  0  0  0  0  0  0  0
   40.4020   22.5660    0.6780 C   0  0  0  0  0  0  0  0  0  0  0  0
   41.1470   21.8110    0.0560 O   0  0  0  0  0  0  0  0  0  0  0  0
   40.5590   23.8880    0.7200 N   0  0  0  0  0  0  0  0  0  0  0  0
   41.6750   24.5780    0.0560 C   0  0  1  0  0  0  0  0  0  0  0  0
   41.2350   25.9900   -0.3730 C   0  0  0  0  0  0  0  0  0  0  0  0
   40.2670   25.9170   -1.5720 C   0  0  0  0  0  0  0  0  0  0  0  0
   39.7010   27.2910   -1.9480 C   0  0  0  0  0  0  0  0  0  0  0  0
   40.8670   25.2410   -2.8050 C   0  0  0  0  0  0  0  0  0  0  0  0
   42.7880   24.7460    1.0840 C   0  0  0  0  0  0  0  0  0  0  0  0
   42.5730   25.4930    2.0330 O   0  0  0  0  0  0  0  0  0  0  0  0
   43.9320   24.0660    0.9220 N   0  0  0  0  0  0  0  0  0  0  0  0
   45.0210   24.2300    1.9130 C   0  0  1  0  0  0  0  0  0  0  0  0
   45.8910   22.9880    2.2120 C   0  0  1  0  0  0  0  0  0  0  0  0
   47.3560   23.4010    2.4570 C   0  0  0  0  0  0  0  0  0  0  0  0
   45.3980   22.2320    3.4590 C   0  0  0  0  0  0  0  0  0  0  0  0
   44.5120   21.0370    3.0890 C   0  0  0  0  0  0  0  0  0  0  0  0
   45.8940   25.3130    1.3190 C   0  0  0  0  0  0  0  0  0  0  0  0
   46.4080   25.0940    0.2250 O   0  0  0  0  0  0  0  0  0  0  0  0
   45.9740   26.4420    2.0220 N   0  0  0  0  0  0  0  0  0  0  0  0
   46.7070   27.6200    1.5360 C   0  0  2  0  0  0  0  0  0  0  0  0
   48.1780   27.5940    1.9360 C   0  0  0  0  0  0  0  0  0  0  0  0
   49.0400   27.6570    1.0590 O   0  0  0  0  0  0  0  0  0  0  0  0
   48.4410   27.5660    3.2440 N   0  0  0  0  0  0  0  0  0  0  0  0
   46.0800   28.9070    2.0760 C   0  0  0  0  0  0  0  0  0  0  0  0
   44.7560   29.1870    1.3760 C   0  0  0  0  0  0  0  0  0  0  0  0
   43.5350   29.1550    2.0420 C   0  0  0  0  0  0  0  0  0  0  0  0
   42.3790   29.4090    1.3020 C   0  0  0  0  0  0  0  0  0  0  0  0
   42.4370   29.7070   -0.0620 C   0  0  0  0  0  0  0  0  0  0  0  0
   41.3370   29.9330   -0.8100 F   0  0  0  0  0  0  0  0  0  0  0  0
   43.6580   29.7160   -0.7150 C   0  0  0  0  0  0  0  0  0  0  0  0
   44.8070   29.4210    0.0060 C   0  0  0  0  0  0  0  0  0  0  0  0
   37.1858   21.5674   -5.3786 H   0  0  0  0  0  0  0  0  0  0  0  0
   36.0110   21.8436   -7.5633 H   0  0  0  0  0  0  0  0  0  0  0  0
   32.3417   20.4190   -5.8156 H   0  0  0  0  0  0  0  0  0  0  0  0
   33.5337   20.0939   -3.6554 H   0  0  0  0  0  0  0  0  0  0  0  0
   34.8214   17.7466   -1.8318 H   0  0  0  0  0  0  0  0  0  0  0  0
   35.2951   17.8565   -3.5610 H   0  0  0  0  0  0  0  0  0  0  0  0
   33.8390   18.7276   -2.9715 H   0  0  0  0  0  0  0  0  0  0  0  0
   38.1603   20.2869    0.6740 H   0  0  0  0  0  0  0  0  0  0  0  0
   38.6401   22.8074    1.9243 H   0  0  0  0  0  0  0  0  0  0  0  0
   40.7511   20.7160    2.2625 H   0  0  0  0  0  0  0  0  0  0  0  0
   39.0719   20.1698    2.5922 H   0  0  0  0  0  0  0  0  0  0  0  0
   39.1115   21.1612    4.6095 H   0  0  0  0  0  0  0  0  0  0  0  0
   39.5107   22.7438    3.8596 H   0  0  0  0  0  0  0  0  0  0  0  0
   41.3173   22.2732    5.3506 H   0  0  0  0  0  0  0  0  0  0  0  0
   41.9367   21.8895    3.7087 H   0  0  0  0  0  0  0  0  0  0  0  0
   41.6142   19.4556    4.2411 H   0  0  0  0  0  0  0  0  0  0  0  0
   42.1472   18.5430    7.6544 H   0  0  0  0  0  0  0  0  0  0  0  0
   42.0736   17.9548    5.9718 H   0  0  0  0  0  0  0  0  0  0  0  0
   41.4035   21.8987    6.8162 H   0  0  0  0  0  0  0  0  0  0  0  0
   41.7412   20.7395    8.1295 H   0  0  0  0  0  0  0  0  0  0  0  0
   39.8900   24.4341    1.2241 H   0  0  0  0  0  0  0  0  0  0  0  0
   42.0234   24.0005   -0.8130 H   0  0  0  0  0  0  0  0  0  0  0  0
   42.1223   26.5735   -0.6599 H   0  0  0  0  0  0  0  0  0  0  0  0
   40.7291   26.4827    0.4704 H   0  0  0  0  0  0  0  0  0  0  0  0
   39.4190   25.2953   -1.2490 H   0  0  0  0  0  0  0  0  0  0  0  0
   39.0194   27.1848   -2.8048 H   0  0  0  0  0  0  0  0  0  0  0  0
   40.5264   27.9663   -2.2176 H   0  0  0  0  0  0  0  0  0  0  0  0
   39.1510   27.7079   -1.0915 H   0  0  0  0  0  0  0  0  0  0  0  0
   41.2698   24.2567   -2.5240 H   0  0  0  0  0  0  0  0  0  0  0  0
   41.6766   25.8667   -3.2088 H   0  0  0  0  0  0  0  0  0  0  0  0
   40.0864   25.1130   -3.5694 H   0  0  0  0  0  0  0  0  0  0  0  0
   44.0491   23.4540    0.1398 H   0  0  0  0  0  0  0  0  0  0  0  0
   44.5842   24.5695    2.8637 H   0  0  0  0  0  0  0  0  0  0  0  0
   45.8452   22.3138    1.3440 H   0  0  0  0  0  0  0  0  0  0  0  0
   47.9590   22.5055    2.6678 H   0  0  0  0  0  0  0  0  0  0  0  0
   47.4050   24.0865    3.3158 H   0  0  0  0  0  0  0  0  0  0  0  0
   47.7493   23.9055    1.5622 H   0  0  0  0  0  0  0  0  0  0  0  0
   44.8182   22.9234    4.0881 H   0  0  0  0  0  0  0  0  0  0  0  0
   46.2699   21.8675    4.0219 H   0  0  0  0  0  0  0  0  0  0  0  0
   44.1827   20.5268    4.0062 H   0  0  0  0  0  0  0  0  0  0  0  0
   45.0846   20.3354    2.4646 H   0  0  0  0  0  0  0  0  0  0  0  0
   43.6329   21.3912    2.5308 H   0  0  0  0  0  0  0  0  0  0  0  0
   45.5195   26.4897    2.9115 H   0  0  0  0  0  0  0  0  0  0  0  0
   46.6452   27.6298    0.4378 H   0  0  0  0  0  0  0  0  0  0  0  0
   49.3885   27.5481    3.5632 H   0  0  0  0  0  0  0  0  0  0  0  0
   47.6906   27.5629    3.9049 H   0  0  0  0  0  0  0  0  0  0  0  0
   46.7679   29.7470    1.8997 H   0  0  0  0  0  0  0  0  0  0  0  0
   45.9030   28.7985    3.1562 H   0  0  0  0  0  0  0  0  0  0  0  0
   43.4829   28.9394    3.1031 H   0  0  0  0  0  0  0  0  0  0  0  0
   41.4149   29.3743    1.7964 H   0  0  0  0  0  0  0  0  0  0  0  0
   43.7157   29.9496   -1.7720 H   0  0  0  0  0  0  0  0  0  0  0  0
   45.7604   29.3722   -0.5076 H   0  0  0  0  0  0  0  0  0  0  0  0
  1  2  2  0  0  0  0
  1  7  1  0  0  0  0
  1 56  1  0  0  0  0
  2  3  1  0  0  0  0
  2 57  1  0  0  0  0
  3  4  1  0  0  0  0
  3  5  2  0  0  0  0
  5  6  1  0  0  0  0
  5 58  1  0  0  0  0
  6  7  2  0  0  0  0
  6 59  1  0  0  0  0
  7  8  1  0  0  0  0
  8  9  1  0  0  0  0
  8 10  1  0  0  0  0
  9 13  2  0  0  0  0
 10 11  1  0  0  0  0
 10 12  2  0  0  0  0
 11 60  1  0  0  0  0
 11 61  1  0  0  0  0
 11 62  1  0  0  0  0
 12 13  1  0  0  0  0
 13 14  1  0  0  0  0
 14 15  2  0  0  0  0
 14 16  1  0  0  0  0
 16 17  1  0  0  0  0
 16 63  1  0  0  0  0
 17 18  1  0  0  0  0
 17 25  1  0  0  0  0
 17 64  1  1  0  0  0
 18 19  1  0  0  0  0
 18 65  1  0  0  0  0
 18 66  1  0  0  0  0
 19 20  1  0  0  0  0
 19 67  1  0  0  0  0
 19 68  1  0  0  0  0
 20 21  1  0  0  0  0
 20 69  1  0  0  0  0
 20 70  1  0  0  0  0
 21 22  1  0  0  0  0
 21 71  1  0  0  0  0
 22 23  1  0  0  0  0
 22 24  1  0  0  0  0
 23 72  1  0  0  0  0
 23 73  1  0  0  0  0
 24 74  1  0  0  0  0
 24 75  1  0  0  0  0
 25 26  2  0  0  0  0
 25 27  1  0  0  0  0
 27 28  1  0  0  0  0
 27 76  1  0  0  0  0
 28 29  1  0  0  0  0
 28 33  1  0  0  0  0
 28 77  1  6  0  0  0
 29 30  1  0  0  0  0
 29 78  1  0  0  0  0
 29 79  1  0  0  0  0
 30 31  1  0  0  0  0
 30 32  1  0  0  0  0
 30 80  1  0  0  0  0
 31 81  1  0  0  0  0
 31 82  1  0  0  0  0
 31 83  1  0  0  0  0
 32 84  1  0  0  0  0
 32 85  1  0  0  0  0
 32 86  1  0  0  0  0
 33 34  2  0  0  0  0
 33 35  1  0  0  0  0
 35 36  1  0  0  0  0
 35 87  1  0  0  0  0
 36 37  1  0  0  0  0
 36 41  1  0  0  0  0
 36 88  1  1  0  0  0
 37 38  1  0  0  0  0
 37 39  1  0  0  0  0
 37 89  1  6  0  0  0
 38 90  1  0  0  0  0
 38 91  1  0  0  0  0
 38 92  1  0  0  0  0
 39 40  1  0  0  0  0
 39 93  1  0  0  0  0
 39 94  1  0  0  0  0
 40 95  1  0  0  0  0
 40 96  1  0  0  0  0
 40 97  1  0  0  0  0
 41 42  2  0  0  0  0
 41 43  1  0  0  0  0
 43 44  1  0  0  0  0
 43 98  1  0  0  0  0
 44 45  1  0  0  0  0
 44 48  1  0  0  0  0
 44 99  1  6  0  0  0
 45 46  2  0  0  0  0
 45 47  1  0  0  0  0
 47100  1  0  0  0  0
 47101  1  0  0  0  0
 48 49  1  0  0  0  0
 48102  1  0  0  0  0
 48103  1  0  0  0  0
 49 50  2  0  0  0  0
 49 55  1  0  0  0  0
 50 51  1  0  0  0  0
 50104  1  0  0  0  0
 51 52  2  0  0  0  0
 51105  1  0  0  0  0
 52 53  1  0  0  0  0
 52 54  1  0  0  0  0
 54 55  2  0  0  0  0
 54106  1  0  0  0  0
 55107  1  0  0  0  0
M  END
