2v2c_ligand
 OpenBabel08222323343D

 11 10  0  0  0  0  0  0  0  0999 V2000
   12.0650   15.8960   15.4530 P   0  0  0  0  0  0  0  0  0  0  0  0
   11.7780   14.3280   15.6450 O   0  0  0  0  0  0  0  0  0  0  0  0
   13.1490   15.9000   14.3700 O   0  0  0  0  0  1  0  0  0  0  0  0
   10.7410   16.4640   15.0340 O   0  0  0  0  0  1  0  0  0  0  0  0
   12.5070   16.5490   16.7240 O   0  0  0  0  0  0  0  0  0  0  0  0
   12.8660   13.4140   15.7810 C   0  0  0  0  0  0  0  0  0  0  0  0
   12.3250   11.9850   15.8680 C   0  0  0  0  0  0  0  0  0  0  0  0
   12.7150   11.0490   15.1230 O   0  5  0  0  0  0  0  0  0  0  0  0
   11.4370   11.7630   16.6950 O   0  0  0  0  0  0  0  0  0  0  0  0
   13.4298   13.6488   16.6959 H   0  0  0  0  0  0  0  0  0  0  0  0
   13.5299   13.5020   14.9084 H   0  0  0  0  0  0  0  0  0  0  0  0
  1  2  1  0  0  0  0
  1  3  1  0  0  0  0
  1  4  1  0  0  0  0
  1  5  2  0  0  0  0
  2  6  1  0  0  0  0
  6  7  1  0  0  0  0
  6 10  1  0  0  0  0
  6 11  1  0  0  0  0
  7  8  1  0  0  0  0
  7  9  2  0  0  0  0
M  CHG  1   8  -1
M  END
