2v5a_ligand
 OpenBabel08222323343D

 39 42  0  0  0  0  0  0  0  0999 V2000
    1.7200  -27.6580   24.5340 N   0  0  0  0  0  0  0  0  0  0  0  0
    2.1640  -26.3900   24.6940 C   0  0  0  0  0  0  0  0  0  0  0  0
    1.4840  -25.5340   25.5070 N   0  0  0  0  0  0  0  0  0  0  0  0
    1.8740  -24.2630   25.7090 C   0  0  0  0  0  0  0  0  0  0  0  0
    3.0170  -23.8050   25.0650 C   0  0  0  0  0  0  0  0  0  0  0  0
    3.4930  -22.5100   25.2230 C   0  0  0  0  0  0  0  0  0  0  0  0
    3.2820  -26.0060   24.0340 N   0  0  0  0  0  0  0  0  0  0  0  0
    3.7490  -24.7490   24.1780 C   0  0  0  0  0  0  0  0  0  0  0  0
    4.8620  -24.3520   23.5300 N   0  0  0  0  0  0  0  0  0  0  0  0
    5.3590  -23.0970   23.6510 C   0  0  0  0  0  0  0  0  0  0  0  0
    6.5270  -22.8100   22.9040 N   0  0  0  0  0  0  0  0  0  0  0  0
    6.8340  -21.7940   21.9600 C   0  0  0  0  0  0  0  0  0  0  0  0
    8.1530  -22.0120   21.6090 C   0  0  0  0  0  0  0  0  0  0  0  0
    8.2920  -23.3580   21.7350 C   0  0  0  0  0  0  0  0  0  0  0  0
    7.6640  -23.6770   22.9380 C   0  0  0  0  0  0  0  0  0  0  0  0
    4.6420  -22.1170   24.5370 C   0  0  0  0  0  0  0  0  0  0  0  0
    5.1360  -20.7340   24.7420 C   0  0  0  0  0  0  0  0  0  0  0  0
    4.4470  -19.6250   24.2530 C   0  0  0  0  0  0  0  0  0  0  0  0
    4.9560  -18.3460   24.4780 C   0  0  0  0  0  0  0  0  0  0  0  0
    6.1410  -18.1860   25.1960 C   0  0  0  0  0  0  0  0  0  0  0  0
    6.8260  -19.2920   25.6930 C   0  0  0  0  0  0  0  0  0  0  0  0
    6.3180  -20.5700   25.4700 C   0  0  0  0  0  0  0  0  0  0  0  0
    0.8716  -27.9725   25.0261 H   0  0  0  0  0  0  0  0  0  0  0  0
    2.2304  -28.3088   23.9201 H   0  0  0  0  0  0  0  0  0  0  0  0
    1.3077  -23.6084   26.3616 H   0  0  0  0  0  0  0  0  0  0  0  0
    2.9771  -21.8121   25.8725 H   0  0  0  0  0  0  0  0  0  0  0  0
    6.7147  -20.7984   22.4123 H   0  0  0  0  0  0  0  0  0  0  0  0
    6.1815  -21.8768   21.0783 H   0  0  0  0  0  0  0  0  0  0  0  0
    8.8347  -21.4802   22.2890 H   0  0  0  0  0  0  0  0  0  0  0  0
    8.3435  -21.6915   20.5741 H   0  0  0  0  0  0  0  0  0  0  0  0
    9.3560  -23.6348   21.7696 H   0  0  0  0  0  0  0  0  0  0  0  0
    7.8053  -23.8767   20.8959 H   0  0  0  0  0  0  0  0  0  0  0  0
    7.3624  -24.7345   22.9659 H   0  0  0  0  0  0  0  0  0  0  0  0
    8.3113  -23.4574   23.7998 H   0  0  0  0  0  0  0  0  0  0  0  0
    3.5226  -19.7557   23.7021 H   0  0  0  0  0  0  0  0  0  0  0  0
    4.4315  -17.4779   24.0955 H   0  0  0  0  0  0  0  0  0  0  0  0
    6.5329  -17.1902   25.3690 H   0  0  0  0  0  0  0  0  0  0  0  0
    7.7471  -19.1596   26.2489 H   0  0  0  0  0  0  0  0  0  0  0  0
    6.8390  -21.4366   25.8608 H   0  0  0  0  0  0  0  0  0  0  0  0
  1  2  1  0  0  0  0
  1 23  1  0  0  0  0
  1 24  1  0  0  0  0
  2  3  2  0  0  0  0
  2  7  1  0  0  0  0
  3  4  1  0  0  0  0
  4  5  2  0  0  0  0
  4 25  1  0  0  0  0
  5  6  1  0  0  0  0
  5  8  1  0  0  0  0
  6 16  2  0  0  0  0
  6 26  1  0  0  0  0
  7  8  2  0  0  0  0
  8  9  1  0  0  0  0
  9 10  2  0  0  0  0
 10 11  1  0  0  0  0
 10 16  1  0  0  0  0
 11 12  1  0  0  0  0
 11 15  1  0  0  0  0
 12 13  1  0  0  0  0
 12 27  1  0  0  0  0
 12 28  1  0  0  0  0
 13 14  1  0  0  0  0
 13 29  1  0  0  0  0
 13 30  1  0  0  0  0
 14 15  1  0  0  0  0
 14 31  1  0  0  0  0
 14 32  1  0  0  0  0
 15 33  1  0  0  0  0
 15 34  1  0  0  0  0
 16 17  1  0  0  0  0
 17 18  2  0  0  0  0
 17 22  1  0  0  0  0
 18 19  1  0  0  0  0
 18 35  1  0  0  0  0
 19 20  2  0  0  0  0
 19 36  1  0  0  0  0
 20 21  1  0  0  0  0
 20 37  1  0  0  0  0
 21 22  2  0  0  0  0
 21 38  1  0  0  0  0
 22 39  1  0  0  0  0
M  END
