2v5x_ligand
 OpenBabel08222323343D

 87 91  0  0  1  0  0  0  0  0999 V2000
   12.8710   10.8500   52.5410 C   0  0  0  0  0  0  0  0  0  0  0  0
   13.3400   11.1680   51.0980 C   0  0  0  0  0  0  0  0  0  0  0  0
   13.7750   12.3620   50.6780 N   0  0  0  0  0  0  0  0  0  0  0  0
   14.1020   12.2680   49.3900 C   0  0  0  0  0  0  0  0  0  0  0  0
   14.6020   13.2090   48.4780 C   0  0  0  0  0  0  0  0  0  0  0  0
   14.8600   12.8110   47.1600 C   0  0  0  0  0  0  0  0  0  0  0  0
   14.6240   11.4860   46.7570 C   0  0  0  0  0  0  0  0  0  0  0  0
   14.8820   11.0600   45.4830 O   0  0  0  0  0  0  0  0  0  0  0  0
   14.0240   11.6760   44.5110 C   0  0  0  0  0  0  0  0  0  0  0  0
   14.1310   10.5550   47.6720 C   0  0  0  0  0  0  0  0  0  0  0  0
   13.8690   10.9480   48.9830 C   0  0  0  0  0  0  0  0  0  0  0  0
   13.3930   10.2400   50.0720 C   0  0  0  0  0  0  0  0  0  0  0  0
   13.0080    8.7490   50.1170 C   0  0  0  0  0  0  0  0  0  0  0  0
   14.2620    7.8750   49.9790 C   0  0  0  0  0  0  0  0  0  0  0  0
   14.6390    7.4580   48.8820 O   0  0  0  0  0  0  0  0  0  0  0  0
   14.8500    7.6470   51.1510 N   0  0  0  0  0  0  0  0  0  0  0  0
   16.0760    6.8570   51.4960 C   0  0  2  0  0  0  0  0  0  0  0  0
   17.3990    7.5650   51.1300 C   0  0  0  0  0  0  0  0  0  0  0  0
   18.6020    6.6210   51.3370 C   0  0  0  0  0  0  0  0  0  0  0  0
   19.7730    7.2020   52.1240 C   0  0  0  0  0  0  0  0  0  0  0  0
   21.0910    6.4620   51.8400 C   0  0  0  0  0  0  0  0  0  0  0  0
   22.2620    7.0480   52.6290 C   0  0  0  0  0  0  0  0  0  0  0  0
   23.6310    6.8460   51.9410 C   0  0  0  0  0  0  0  0  0  0  0  0
   24.1670    5.7340   51.8260 O   0  0  0  0  0  0  0  0  0  0  0  0
   24.1910    7.9640   51.5220 N   0  0  0  0  0  0  0  0  0  0  0  0
   25.4090    7.9740   50.9050 O   0  0  0  0  0  0  0  0  0  0  0  0
   16.1010    5.3230   51.1720 C   0  0  0  0  0  0  0  0  0  0  0  0
   16.6290    4.8140   50.1810 O   0  0  0  0  0  0  0  0  0  0  0  0
   15.5710    4.5850   52.1180 N   0  0  0  0  0  0  0  0  0  0  0  0
   15.5330    3.1120   52.0510 C   0  0  0  0  0  0  0  0  0  0  0  0
   15.0790    2.4370   50.7300 C   0  0  0  0  0  0  0  0  0  0  0  0
   15.1580    0.9330   51.0480 C   0  0  0  0  0  0  0  0  0  0  0  0
   14.5320    0.4030   52.1720 C   0  0  0  0  0  0  0  0  0  0  0  0
   13.7410    1.0020   53.1640 C   0  0  0  0  0  0  0  0  0  0  0  0
   13.2170    0.2430   54.1990 C   0  0  0  0  0  0  0  0  0  0  0  0
   13.5100   -1.1140   54.2040 C   0  0  0  0  0  0  0  0  0  0  0  0
   14.2970   -1.7110   53.2160 C   0  0  0  0  0  0  0  0  0  0  0  0
   14.8160   -0.9550   52.1810 C   0  0  0  0  0  0  0  0  0  0  0  0
   15.5920   -1.2490   51.1220 N   0  0  0  0  0  0  0  0  0  0  0  0
   15.8540   -0.1240   50.4250 C   0  0  0  0  0  0  0  0  0  0  0  0
   16.5460    0.0000   49.2030 C   0  0  0  0  0  0  0  0  0  0  0  0
   16.6150   -1.1090   48.3580 C   0  0  0  0  0  0  0  0  0  0  0  0
   17.2180   -1.0330   47.1050 C   0  0  0  0  0  0  0  0  0  0  0  0
   17.7480    0.1730   46.6570 C   0  0  0  0  0  0  0  0  0  0  0  0
   17.6610    1.2980   47.4770 C   0  0  0  0  0  0  0  0  0  0  0  0
   17.0480    1.2130   48.7320 C   0  0  0  0  0  0  0  0  0  0  0  0
   12.5682    9.7944   52.6039 H   0  0  0  0  0  0  0  0  0  0  0  0
   12.0162   11.4925   52.7987 H   0  0  0  0  0  0  0  0  0  0  0  0
   13.6958   11.0374   53.2443 H   0  0  0  0  0  0  0  0  0  0  0  0
   13.8453   13.2124   51.2549 H   0  0  0  0  0  0  0  0  0  0  0  0
   14.7864   14.2309   48.7891 H   0  0  0  0  0  0  0  0  0  0  0  0
   15.2444   13.5304   46.4460 H   0  0  0  0  0  0  0  0  0  0  0  0
   14.2748   11.2982   43.5088 H   0  0  0  0  0  0  0  0  0  0  0  0
   14.1639   12.7667   44.5373 H   0  0  0  0  0  0  0  0  0  0  0  0
   12.9759   11.4350   44.7420 H   0  0  0  0  0  0  0  0  0  0  0  0
   13.9527    9.5309   47.3645 H   0  0  0  0  0  0  0  0  0  0  0  0
   12.3171    8.5267   49.2904 H   0  0  0  0  0  0  0  0  0  0  0  0
   12.5155    8.5294   51.0757 H   0  0  0  0  0  0  0  0  0  0  0  0
   14.3975    8.0750   51.9333 H   0  0  0  0  0  0  0  0  0  0  0  0
   16.0679    6.8724   52.5959 H   0  0  0  0  0  0  0  0  0  0  0  0
   17.5223    8.4516   51.7694 H   0  0  0  0  0  0  0  0  0  0  0  0
   17.3619    7.8757   50.0754 H   0  0  0  0  0  0  0  0  0  0  0  0
   18.9749    6.3266   50.3449 H   0  0  0  0  0  0  0  0  0  0  0  0
   18.2437    5.7300   51.8733 H   0  0  0  0  0  0  0  0  0  0  0  0
   19.5494    7.1267   53.1984 H   0  0  0  0  0  0  0  0  0  0  0  0
   19.8947    8.2598   51.8481 H   0  0  0  0  0  0  0  0  0  0  0  0
   21.3149    6.5363   50.7656 H   0  0  0  0  0  0  0  0  0  0  0  0
   20.9707    5.4043   52.1173 H   0  0  0  0  0  0  0  0  0  0  0  0
   22.2937    6.5640   53.6163 H   0  0  0  0  0  0  0  0  0  0  0  0
   22.0916    8.1274   52.7551 H   0  0  0  0  0  0  0  0  0  0  0  0
   23.7096    8.8296   51.6602 H   0  0  0  0  0  0  0  0  0  0  0  0
   25.3671    7.4472   50.1155 H   0  0  0  0  0  0  0  0  0  0  0  0
   15.1768    5.0393   52.9169 H   0  0  0  0  0  0  0  0  0  0  0  0
   14.8486    2.7696   52.8411 H   0  0  0  0  0  0  0  0  0  0  0  0
   16.5500    2.7519   52.2654 H   0  0  0  0  0  0  0  0  0  0  0  0
   15.7542    2.6996   49.9022 H   0  0  0  0  0  0  0  0  0  0  0  0
   14.0508    2.7306   50.4718 H   0  0  0  0  0  0  0  0  0  0  0  0
   13.5381    2.0660   53.1208 H   0  0  0  0  0  0  0  0  0  0  0  0
   12.6037    0.6907   54.9726 H   0  0  0  0  0  0  0  0  0  0  0  0
   13.1145   -1.7318   55.0021 H   0  0  0  0  0  0  0  0  0  0  0  0
   14.5022   -2.7744   53.2611 H   0  0  0  0  0  0  0  0  0  0  0  0
   15.9341   -2.1900   50.8802 H   0  0  0  0  0  0  0  0  0  0  0  0
   16.1894   -2.0510   48.6846 H   0  0  0  0  0  0  0  0  0  0  0  0
   17.2746   -1.9151   46.4775 H   0  0  0  0  0  0  0  0  0  0  0  0
   18.2219    0.2374   45.6842 H   0  0  0  0  0  0  0  0  0  0  0  0
   18.0706    2.2434   47.1402 H   0  0  0  0  0  0  0  0  0  0  0  0
   16.9621    2.1019   49.3464 H   0  0  0  0  0  0  0  0  0  0  0  0
  1  2  1  0  0  0  0
  1 47  1  0  0  0  0
  1 48  1  0  0  0  0
  1 49  1  0  0  0  0
  2  3  1  0  0  0  0
  2 12  2  0  0  0  0
  3  4  1  0  0  0  0
  3 50  1  0  0  0  0
  4  5  2  0  0  0  0
  4 11  1  0  0  0  0
  5  6  1  0  0  0  0
  5 51  1  0  0  0  0
  6  7  2  0  0  0  0
  6 52  1  0  0  0  0
  7  8  1  0  0  0  0
  7 10  1  0  0  0  0
  8  9  1  0  0  0  0
  9 53  1  0  0  0  0
  9 54  1  0  0  0  0
  9 55  1  0  0  0  0
 10 11  2  0  0  0  0
 10 56  1  0  0  0  0
 11 12  1  0  0  0  0
 12 13  1  0  0  0  0
 13 14  1  0  0  0  0
 13 57  1  0  0  0  0
 13 58  1  0  0  0  0
 14 15  2  0  0  0  0
 14 16  1  0  0  0  0
 16 17  1  0  0  0  0
 16 59  1  0  0  0  0
 17 18  1  0  0  0  0
 17 27  1  0  0  0  0
 17 60  1  1  0  0  0
 18 19  1  0  0  0  0
 18 61  1  0  0  0  0
 18 62  1  0  0  0  0
 19 20  1  0  0  0  0
 19 63  1  0  0  0  0
 19 64  1  0  0  0  0
 20 21  1  0  0  0  0
 20 65  1  0  0  0  0
 20 66  1  0  0  0  0
 21 22  1  0  0  0  0
 21 67  1  0  0  0  0
 21 68  1  0  0  0  0
 22 23  1  0  0  0  0
 22 69  1  0  0  0  0
 22 70  1  0  0  0  0
 23 24  2  0  0  0  0
 23 25  1  0  0  0  0
 25 26  1  0  0  0  0
 25 71  1  0  0  0  0
 26 72  1  0  0  0  0
 27 28  2  0  0  0  0
 27 29  1  0  0  0  0
 29 30  1  0  0  0  0
 29 73  1  0  0  0  0
 30 31  1  0  0  0  0
 30 74  1  0  0  0  0
 30 75  1  0  0  0  0
 31 32  1  0  0  0  0
 31 76  1  0  0  0  0
 31 77  1  0  0  0  0
 32 33  1  0  0  0  0
 32 40  2  0  0  0  0
 33 34  2  0  0  0  0
 33 38  1  0  0  0  0
 34 35  1  0  0  0  0
 34 78  1  0  0  0  0
 35 36  2  0  0  0  0
 35 79  1  0  0  0  0
 36 37  1  0  0  0  0
 36 80  1  0  0  0  0
 37 38  2  0  0  0  0
 37 81  1  0  0  0  0
 38 39  1  0  0  0  0
 39 40  1  0  0  0  0
 39 82  1  0  0  0  0
 40 41  1  0  0  0  0
 41 42  2  0  0  0  0
 41 46  1  0  0  0  0
 42 43  1  0  0  0  0
 42 83  1  0  0  0  0
 43 44  2  0  0  0  0
 43 84  1  0  0  0  0
 44 45  1  0  0  0  0
 44 85  1  0  0  0  0
 45 46  2  0  0  0  0
 45 86  1  0  0  0  0
 46 87  1  0  0  0  0
M  END
