2v7d_ligand
 OpenBabel08222323343D

109108  0  0  1  0  0  0  0  0999 V2000
   25.4590   13.1530   35.7410 N   0  3  0  0  0  0  0  0  0  0  0  0
   26.5500   14.0570   36.2160 C   0  0  2  0  0  0  0  0  0  0  0  0
   26.4410   15.4350   35.5290 C   0  0  0  0  0  0  0  0  0  0  0  0
   25.4970   15.6860   34.7690 O   0  0  0  0  0  0  0  0  0  0  0  0
   27.9200   13.4130   35.9280 C   0  0  0  0  0  0  0  0  0  0  0  0
   28.2960   13.3410   34.4460 C   0  0  0  0  0  0  0  0  0  0  0  0
   29.6800   12.7280   34.2420 C   0  0  0  0  0  0  0  0  0  0  0  0
   30.3620   13.3030   33.0120 C   0  0  0  0  0  0  0  0  0  0  0  0
   30.7720   14.7220   33.2210 N   0  3  0  0  0  0  0  0  0  0  0  0
   27.3970   16.3240   35.8030 N   0  0  0  0  0  0  0  0  0  0  0  0
   27.4050   17.6620   35.2110 C   0  0  2  0  0  0  0  0  0  0  0  0
   27.6890   17.5910   33.7070 C   0  0  0  0  0  0  0  0  0  0  0  0
   28.2490   16.6070   33.2270 O   0  0  0  0  0  0  0  0  0  0  0  0
   28.4550   18.5180   35.9110 C   0  0  0  0  0  0  0  0  0  0  0  0
   28.3090   18.4240   37.3210 O   0  0  0  0  0  0  0  0  0  0  0  0
   27.3140   18.6260   32.9620 N   0  0  0  0  0  0  0  0  0  0  0  0
   27.5250   18.6230   31.5190 C   0  0  2  0  0  0  0  0  0  0  0  0
   28.8760   19.1730   31.1450 C   0  0  0  0  0  0  0  0  0  0  0  0
   29.4990   19.8610   31.9420 O   0  0  0  0  0  0  0  0  0  0  0  0
   26.4530   19.4290   30.8410 C   0  0  0  0  0  0  0  0  0  0  0  0
   29.3140   18.8740   29.9230 N   0  0  0  0  0  0  0  0  0  0  0  0
   30.6040   19.3410   29.4030 C   0  0  1  0  0  0  0  0  0  0  0  0
   31.7690   18.4600   29.9070 C   0  0  1  0  0  0  0  0  0  0  0  0
   32.0310   18.6790   31.3980 C   0  0  0  0  0  0  0  0  0  0  0  0
   31.4610   17.0890   29.6470 O   0  0  0  0  0  0  0  0  0  0  0  0
   32.5610   15.9440   29.9090 P   0  0  0  0  0  0  0  0  0  0  0  0
   32.4160   15.2670   31.2180 O   0  0  0  0  0  1  0  0  0  0  0  0
   32.4340   14.9260   28.6680 O   0  0  0  0  0  1  0  0  0  0  0  0
   33.9910   16.6600   29.7380 O   0  0  0  0  0  0  0  0  0  0  0  0
   30.6150   19.3890   27.8560 C   0  0  0  0  0  0  0  0  0  0  0  0
   29.6950   18.8870   27.2120 O   0  0  0  0  0  0  0  0  0  0  0  0
   31.6480   19.9970   27.2680 N   0  0  0  0  0  0  0  0  0  0  0  0
   31.7590   20.1040   25.8100 C   0  0  2  0  0  0  0  0  0  0  0  0
   31.4260   18.7870   25.1260 C   0  0  0  0  0  0  0  0  0  0  0  0
   31.4770   17.7330   25.7530 O   0  0  0  0  0  0  0  0  0  0  0  0
   33.1790   20.5330   25.3870 C   0  0  2  0  0  0  0  0  0  0  0  0
   33.4500   21.8390   25.9090 O   0  0  0  0  0  0  0  0  0  0  0  0
   33.3130   20.5670   23.8630 C   0  0  0  0  0  0  0  0  0  0  0  0
   31.1010   18.8420   23.8370 N   0  0  0  0  0  0  0  0  0  0  0  0
   30.7430   17.6290   23.1050 C   0  0  2  0  0  0  0  0  0  0  0  0
   31.2590   17.5310   21.6680 C   0  0  0  0  0  0  0  0  0  0  0  0
   32.1980   16.7860   21.3740 O   0  0  0  0  0  0  0  0  0  0  0  0
   29.2200   17.4650   23.0510 C   0  0  2  0  0  0  0  0  0  0  0  0
   28.6460   18.6280   22.4450 O   0  0  0  0  0  0  0  0  0  0  0  0
   28.6520   17.2940   24.4420 C   0  0  0  0  0  0  0  0  0  0  0  0
   30.6130   18.2650   20.7690 N   0  0  0  0  0  0  0  0  0  0  0  0
   30.9900   18.2490   19.3630 C   0  0  2  0  0  0  0  0  0  0  0  0
   31.5230   19.6250   18.9600 C   0  0  0  0  0  0  0  0  0  0  0  0
   31.6050   20.5020   19.8500 O   0  0  0  0  0  0  0  0  0  0  0  0
   29.7680   17.8630   18.4750 C   0  0  0  0  0  0  0  0  0  0  0  0
   30.2140   17.5260   17.0590 C   0  0  0  0  0  0  0  0  0  0  0  0
   29.0490   16.6760   19.0860 C   0  0  0  0  0  0  0  0  0  0  0  0
   31.8640   19.8050   17.7700 N   0  0  0  0  0  0  0  0  0  0  0  0
   25.5420   12.2579   36.1970 H   0  0  0  0  0  0  0  0  0  0  0  0
   25.5348   13.0302   34.7434 H   0  0  0  0  0  0  0  0  0  0  0  0
   24.5643   13.5611   35.9623 H   0  0  0  0  0  0  0  0  0  0  0  0
   26.4468   14.1970   37.3021 H   0  0  0  0  0  0  0  0  0  0  0  0
   27.9075   12.3884   36.3281 H   0  0  0  0  0  0  0  0  0  0  0  0
   28.6906   14.0005   36.4485 H   0  0  0  0  0  0  0  0  0  0  0  0
   28.2918   14.3583   34.0276 H   0  0  0  0  0  0  0  0  0  0  0  0
   27.5524   12.7248   33.9193 H   0  0  0  0  0  0  0  0  0  0  0  0
   29.5754   11.6400   34.1181 H   0  0  0  0  0  0  0  0  0  0  0  0
   30.2992   12.9385   35.1264 H   0  0  0  0  0  0  0  0  0  0  0  0
   29.6648   13.2549   32.1626 H   0  0  0  0  0  0  0  0  0  0  0  0
   31.2561   12.7031   32.7870 H   0  0  0  0  0  0  0  0  0  0  0  0
   31.2195   15.0687   32.3870 H   0  0  0  0  0  0  0  0  0  0  0  0
   31.4159   14.7753   33.9947 H   0  0  0  0  0  0  0  0  0  0  0  0
   29.9577   15.2809   33.4225 H   0  0  0  0  0  0  0  0  0  0  0  0
   28.1308   16.0681   36.4324 H   0  0  0  0  0  0  0  0  0  0  0  0
   26.4162   18.1206   35.3593 H   0  0  0  0  0  0  0  0  0  0  0  0
   28.3322   19.5668   35.6028 H   0  0  0  0  0  0  0  0  0  0  0  0
   29.4578   18.1671   35.6261 H   0  0  0  0  0  0  0  0  0  0  0  0
   28.4167   17.5192   37.5898 H   0  0  0  0  0  0  0  0  0  0  0  0
   26.8819   19.4164   33.3963 H   0  0  0  0  0  0  0  0  0  0  0  0
   27.4638   17.5836   31.1642 H   0  0  0  0  0  0  0  0  0  0  0  0
   26.6205   19.4209   29.7539 H   0  0  0  0  0  0  0  0  0  0  0  0
   26.4851   20.4651   31.2091 H   0  0  0  0  0  0  0  0  0  0  0  0
   25.4688   18.9910   31.0636 H   0  0  0  0  0  0  0  0  0  0  0  0
   28.7384   18.3064   29.3343 H   0  0  0  0  0  0  0  0  0  0  0  0
   30.7638   20.3635   29.7758 H   0  0  0  0  0  0  0  0  0  0  0  0
   32.6797   18.7303   29.3524 H   0  0  0  0  0  0  0  0  0  0  0  0
   32.8641   18.0379   31.7219 H   0  0  0  0  0  0  0  0  0  0  0  0
   31.1273   18.4230   31.9706 H   0  0  0  0  0  0  0  0  0  0  0  0
   32.2900   19.7335   31.5738 H   0  0  0  0  0  0  0  0  0  0  0  0
   32.3678   20.3913   27.8393 H   0  0  0  0  0  0  0  0  0  0  0  0
   31.0444   20.8673   25.4684 H   0  0  0  0  0  0  0  0  0  0  0  0
   33.9070   19.8168   25.7957 H   0  0  0  0  0  0  0  0  0  0  0  0
   34.3240   22.1070   25.6506 H   0  0  0  0  0  0  0  0  0  0  0  0
   34.3334   20.8754   23.5915 H   0  0  0  0  0  0  0  0  0  0  0  0
   32.5903   21.2845   23.4473 H   0  0  0  0  0  0  0  0  0  0  0  0
   33.1118   19.5656   23.4548 H   0  0  0  0  0  0  0  0  0  0  0  0
   31.1017   19.7230   23.3639 H   0  0  0  0  0  0  0  0  0  0  0  0
   31.1669   16.7828   23.6656 H   0  0  0  0  0  0  0  0  0  0  0  0
   28.9729   16.5781   22.4490 H   0  0  0  0  0  0  0  0  0  0  0  0
   27.7016   18.5316   22.4090 H   0  0  0  0  0  0  0  0  0  0  0  0
   27.5599   17.1782   24.3804 H   0  0  0  0  0  0  0  0  0  0  0  0
   28.8931   18.1798   25.0480 H   0  0  0  0  0  0  0  0  0  0  0  0
   29.0897   16.3996   24.9094 H   0  0  0  0  0  0  0  0  0  0  0  0
   29.8510   18.8412   21.0645 H   0  0  0  0  0  0  0  0  0  0  0  0
   31.7838   17.5018   19.2159 H   0  0  0  0  0  0  0  0  0  0  0  0
   29.0763   18.7173   18.4336 H   0  0  0  0  0  0  0  0  0  0  0  0
   29.3366   17.2574   16.4524 H   0  0  0  0  0  0  0  0  0  0  0  0
   30.9139   16.6779   17.0871 H   0  0  0  0  0  0  0  0  0  0  0  0
   30.7137   18.3992   16.6143 H   0  0  0  0  0  0  0  0  0  0  0  0
   28.7301   16.9271   20.1084 H   0  0  0  0  0  0  0  0  0  0  0  0
   29.7284   15.8114   19.1158 H   0  0  0  0  0  0  0  0  0  0  0  0
   28.1669   16.4285   18.4772 H   0  0  0  0  0  0  0  0  0  0  0  0
   32.2158   20.6950   17.4798 H   0  0  0  0  0  0  0  0  0  0  0  0
   31.7848   19.0589   17.1089 H   0  0  0  0  0  0  0  0  0  0  0  0
  1  2  1  0  0  0  0
  1 54  1  0  0  0  0
  1 55  1  0  0  0  0
  1 56  1  0  0  0  0
  2  3  1  0  0  0  0
  2  5  1  0  0  0  0
  2 57  1  1  0  0  0
  3  4  2  0  0  0  0
  3 10  1  0  0  0  0
  5  6  1  0  0  0  0
  5 58  1  0  0  0  0
  5 59  1  0  0  0  0
  6  7  1  0  0  0  0
  6 60  1  0  0  0  0
  6 61  1  0  0  0  0
  7  8  1  0  0  0  0
  7 62  1  0  0  0  0
  7 63  1  0  0  0  0
  8  9  1  0  0  0  0
  8 64  1  0  0  0  0
  8 65  1  0  0  0  0
  9 66  1  0  0  0  0
  9 67  1  0  0  0  0
  9 68  1  0  0  0  0
 10 11  1  0  0  0  0
 10 69  1  0  0  0  0
 11 12  1  0  0  0  0
 11 14  1  0  0  0  0
 11 70  1  1  0  0  0
 12 13  2  0  0  0  0
 12 16  1  0  0  0  0
 14 15  1  0  0  0  0
 14 71  1  0  0  0  0
 14 72  1  0  0  0  0
 15 73  1  0  0  0  0
 16 17  1  0  0  0  0
 16 74  1  0  0  0  0
 17 18  1  0  0  0  0
 17 20  1  0  0  0  0
 17 75  1  6  0  0  0
 18 19  2  0  0  0  0
 18 21  1  0  0  0  0
 20 76  1  0  0  0  0
 20 77  1  0  0  0  0
 20 78  1  0  0  0  0
 21 22  1  0  0  0  0
 21 79  1  0  0  0  0
 22 23  1  0  0  0  0
 22 30  1  0  0  0  0
 22 80  1  1  0  0  0
 23 24  1  0  0  0  0
 23 25  1  0  0  0  0
 23 81  1  6  0  0  0
 24 82  1  0  0  0  0
 24 83  1  0  0  0  0
 24 84  1  0  0  0  0
 25 26  1  0  0  0  0
 26 27  1  0  0  0  0
 26 28  1  0  0  0  0
 26 29  2  0  0  0  0
 30 31  2  0  0  0  0
 30 32  1  0  0  0  0
 32 33  1  0  0  0  0
 32 85  1  0  0  0  0
 33 34  1  0  0  0  0
 33 36  1  0  0  0  0
 33 86  1  6  0  0  0
 34 35  2  0  0  0  0
 34 39  1  0  0  0  0
 36 37  1  0  0  0  0
 36 38  1  0  0  0  0
 36 87  1  1  0  0  0
 37 88  1  0  0  0  0
 38 89  1  0  0  0  0
 38 90  1  0  0  0  0
 38 91  1  0  0  0  0
 39 40  1  0  0  0  0
 39 92  1  0  0  0  0
 40 41  1  0  0  0  0
 40 43  1  0  0  0  0
 40 93  1  1  0  0  0
 41 42  2  0  0  0  0
 41 46  1  0  0  0  0
 43 44  1  0  0  0  0
 43 45  1  0  0  0  0
 43 94  1  6  0  0  0
 44 95  1  0  0  0  0
 45 96  1  0  0  0  0
 45 97  1  0  0  0  0
 45 98  1  0  0  0  0
 46 47  1  0  0  0  0
 46 99  1  0  0  0  0
 47 48  1  0  0  0  0
 47 50  1  0  0  0  0
 47100  1  6  0  0  0
 48 49  2  0  0  0  0
 48 53  1  0  0  0  0
 50 51  1  0  0  0  0
 50 52  1  0  0  0  0
 50101  1  0  0  0  0
 51102  1  0  0  0  0
 51103  1  0  0  0  0
 51104  1  0  0  0  0
 52105  1  0  0  0  0
 52106  1  0  0  0  0
 52107  1  0  0  0  0
 53108  1  0  0  0  0
 53109  1  0  0  0  0
M  CHG  2   1   1   9   1
M  END
