2v85_ligand
 OpenBabel08222323343D

199198  0  0  1  0  0  0  0  0999 V2000
  -34.5580   20.9420   34.5050 N   0  3  0  0  0  0  0  0  0  0  0  0
  -35.2380   20.3350   33.3210 C   0  0  2  0  0  0  0  0  0  0  0  0
  -35.5660   18.8660   33.5670 C   0  0  0  0  0  0  0  0  0  0  0  0
  -34.8370   18.1670   34.2610 O   0  0  0  0  0  0  0  0  0  0  0  0
  -34.3480   20.4700   32.0810 C   0  0  0  0  0  0  0  0  0  0  0  0
  -45.2340   19.3220   34.6340 C   0  0  0  0  0  0  0  0  0  0  0  0
  -43.8140   19.0210   34.8140 N   0  0  0  0  0  0  0  0  0  0  0  0
  -43.1060   18.4350   33.8770 C   0  0  2  0  0  3  0  0  0  0  0  0
  -43.6670   18.0860   32.7060 N   0  0  0  0  0  0  0  0  0  0  0  0
  -41.8020   18.1740   34.0820 N   0  0  0  0  0  0  0  0  0  0  0  0
  -40.9040   17.5180   33.1030 C   0  0  0  0  0  0  0  0  0  0  0  0
  -39.4700   17.7040   33.5390 C   0  0  0  0  0  0  0  0  0  0  0  0
  -38.5460   16.8430   32.6990 C   0  0  0  0  0  0  0  0  0  0  0  0
  -37.0970   17.0180   33.1400 C   0  0  1  0  0  0  0  0  0  0  0  0
  -36.1960   16.1400   32.2870 C   0  0  0  0  0  0  0  0  0  0  0  0
  -35.9110   16.4650   31.1460 O   0  0  0  0  0  0  0  0  0  0  0  0
  -36.6810   18.4130   32.9990 N   0  0  0  0  0  0  0  0  0  0  0  0
  -35.7580   15.0190   32.8540 N   0  0  0  0  0  0  0  0  0  0  0  0
  -34.8750   14.1070   32.1340 C   0  0  2  0  0  0  0  0  0  0  0  0
  -35.2070   12.6450   32.4060 C   0  0  0  0  0  0  0  0  0  0  0  0
  -36.0050   12.3350   33.2740 O   0  0  0  0  0  0  0  0  0  0  0  0
  -33.4030   14.3160   32.5500 C   0  0  2  0  0  0  0  0  0  0  0  0
  -33.2630   14.0080   33.9440 O   0  0  0  0  0  0  0  0  0  0  0  0
  -32.9620   15.7550   32.3070 C   0  0  0  0  0  0  0  0  0  0  0  0
  -34.5570   11.7650   31.6470 N   0  0  0  0  0  0  0  0  0  0  0  0
  -34.7030   10.3180   31.7800 C   0  0  1  0  0  0  0  0  0  0  0  0
  -35.5460    9.7390   30.6400 C   0  0  0  0  0  0  0  0  0  0  0  0
  -36.9940   10.1800   30.6290 C   0  0  0  0  0  0  0  0  0  0  0  0
  -37.7490    9.5070   29.4980 C   0  0  0  0  0  0  0  0  0  0  0  0
  -39.2100    9.9570   29.4550 C   0  0  0  0  0  0  0  0  0  0  0  0
  -40.0290    9.3310   28.3580 N   0  3  0  0  0  0  0  0  0  0  0  0
  -33.3190    9.6780   31.7320 C   0  0  0  0  0  0  0  0  0  0  0  0
  -32.4580   10.1150   30.9880 O   0  0  0  0  0  0  0  0  0  0  0  0
  -40.1080    7.8410   28.5570 C   0  0  0  0  0  0  0  0  0  0  0  0
  -41.4060    9.9230   28.4880 C   0  0  0  0  0  0  0  0  0  0  0  0
  -39.4790    9.6120   26.9900 C   0  0  0  0  0  0  0  0  0  0  0  0
  -33.1300    8.6320   32.5310 N   0  0  0  0  0  0  0  0  0  0  0  0
  -31.8650    7.9020   32.5940 C   0  0  2  0  0  0  0  0  0  0  0  0
  -30.6790    8.7860   32.9540 C   0  0  0  0  0  0  0  0  0  0  0  0
  -29.6190    8.6590   32.3730 O   0  0  0  0  0  0  0  0  0  0  0  0
  -31.5850    7.2070   31.2550 C   0  0  0  0  0  0  0  0  0  0  0  0
  -32.6910    6.2720   30.7840 C   0  0  0  0  0  0  0  0  0  0  0  0
  -32.9820    5.1690   31.7790 C   0  0  0  0  0  0  0  0  0  0  0  0
  -32.0800    4.5000   32.2500 O   0  0  0  0  0  0  0  0  0  0  0  0
  -34.2580    4.9710   32.0900 N   0  0  0  0  0  0  0  0  0  0  0  0
  -30.8670    9.6930   33.9040 N   0  0  0  0  0  0  0  0  0  0  0  0
  -29.7740   10.5630   34.3240 C   0  0  2  0  0  0  0  0  0  0  0  0
  -29.3970   10.2410   35.7590 C   0  0  0  0  0  0  0  0  0  0  0  0
  -28.6080   10.9320   36.3700 O   0  0  0  0  0  0  0  0  0  0  0  0
  -30.1390   12.0590   34.2190 C   0  0  2  0  0  0  0  0  0  0  0  0
  -31.4300   12.2800   34.7910 O   0  0  0  0  0  0  0  0  0  0  0  0
  -30.1330   12.5120   32.7700 C   0  0  0  0  0  0  0  0  0  0  0  0
  -29.9850    9.1730   36.2850 N   0  0  0  0  0  0  0  0  0  0  0  0
  -29.6940    8.7510   37.6400 C   0  0  2  0  0  0  0  0  0  0  0  0
  -28.5020    7.8120   37.6240 C   0  0  0  0  0  0  0  0  0  0  0  0
  -28.4200    6.8770   36.8490 O   0  0  0  0  0  0  0  0  0  0  0  0
  -30.9000    8.0660   38.2640 C   0  0  0  0  0  0  0  0  0  0  0  0
  -27.5800    8.1130   38.5160 N   0  0  0  0  0  0  0  0  0  0  0  0
  -26.3410    7.3910   38.7090 C   0  0  2  0  0  0  0  0  0  0  0  0
  -26.6680    5.9760   39.2760 C   0  0  0  0  0  0  0  0  0  0  0  0
  -27.3180    5.8750   40.2990 O   0  0  0  0  0  0  0  0  0  0  0  0
  -25.5230    8.2770   39.6640 C   0  0  0  0  0  0  0  0  0  0  0  0
  -26.1880    9.7160   39.8850 C   0  0  0  0  0  0  0  0  0  0  0  0
  -25.9040   10.7770   38.7590 C   0  0  0  0  0  0  0  0  0  0  0  0
  -27.0620   11.5780   38.3010 N   0  0  0  0  0  0  0  0  0  0  0  0
  -27.4790   12.7410   38.8160 C   0  0  0  0  0  3  0  0  0  0  0  0
  -26.8500   13.2980   39.8420 N   0  0  0  0  0  0  0  0  0  0  0  0
  -28.5280   13.3650   38.2830 N   0  0  0  0  0  0  0  0  0  0  0  0
  -26.2480    4.8960   38.5930 N   0  0  0  0  0  0  0  0  0  0  0  0
  -26.5320    3.5120   39.0500 C   0  0  2  0  0  0  0  0  0  0  0  0
  -25.6510    3.0520   40.2100 C   0  0  0  0  0  0  0  0  0  0  0  0
  -24.4590    3.2960   40.2320 O   0  0  0  0  0  0  0  0  0  0  0  0
  -26.4160    2.4870   37.8900 C   0  0  0  0  0  0  0  0  0  0  0  0
  -26.3380    0.9920   38.3410 C   0  0  0  0  0  0  0  0  0  0  0  0
  -26.4860   -0.0430   37.1900 C   0  0  0  0  0  0  0  0  0  0  0  0
  -26.1640   -1.4760   37.6740 C   0  0  0  0  0  0  0  0  0  0  0  0
  -26.7130   -2.5950   36.8370 N   0  3  0  0  0  0  0  0  0  0  0  0
  -26.2650    2.3500   41.1560 N   0  0  0  0  0  0  0  0  0  0  0  0
  -25.5720    1.8710   42.3490 C   0  0  2  0  0  0  0  0  0  0  0  0
  -24.5210    0.7760   42.1960 C   0  0  0  0  0  0  0  0  0  0  0  0
  -24.7460   -0.2610   41.6140 O   0  0  0  0  0  0  0  0  0  0  0  0
  -26.5910    1.4330   43.3980 C   0  0  0  0  0  0  0  0  0  0  0  0
  -23.3750    1.0720   42.7820 N   0  0  0  0  0  0  0  0  0  0  0  0
  -22.2090    0.2320   42.8590 C   0  0  2  0  0  0  0  0  0  0  0  0
  -21.0260    1.1520   42.8970 C   0  0  0  0  0  0  0  0  0  0  0  0
  -20.3440    1.4800   41.9070 O   0  0  0  0  0  0  0  0  0  0  0  0
  -22.1290   -0.7480   41.7440 C   0  0  0  0  0  0  0  0  0  0  0  0
  -20.9640    1.6150   44.1310 N   0  0  0  0  0  0  0  0  0  0  0  0
  -20.0290    2.5260   44.6950 C   0  0  0  0  0  0  0  0  0  0  0  0
  -20.3720    2.1970   46.1470 C   0  0  0  0  0  0  0  0  0  0  0  0
  -21.5590    1.8860   46.4310 O   0  5  0  0  0  0  0  0  0  0  0  0
  -19.4740    2.2500   47.0190 O   0  0  0  0  0  0  0  0  0  0  0  0
  -34.3535   21.9106   34.3150 H   0  0  0  0  0  0  0  0  0  0  0  0
  -33.6994   20.4473   34.6896 H   0  0  0  0  0  0  0  0  0  0  0  0
  -35.1624   20.8777   35.3091 H   0  0  0  0  0  0  0  0  0  0  0  0
  -36.1781   20.8775   33.1423 H   0  0  0  0  0  0  0  0  0  0  0  0
  -34.8557   20.0210   31.2146 H   0  0  0  0  0  0  0  0  0  0  0  0
  -33.3939   19.9513   32.2562 H   0  0  0  0  0  0  0  0  0  0  0  0
  -34.1555   21.5346   31.8819 H   0  0  0  0  0  0  0  0  0  0  0  0
  -45.6230   19.8100   35.5398 H   0  0  0  0  0  0  0  0  0  0  0  0
  -45.7869   18.3882   34.4544 H   0  0  0  0  0  0  0  0  0  0  0  0
  -45.3600   19.9943   33.7725 H   0  0  0  0  0  0  0  0  0  0  0  0
  -43.3568   19.2761   35.7010 H   0  0  0  0  0  0  0  0  0  0  0  0
  -43.0993   17.6267   31.9796 H   0  0  0  0  0  0  0  0  0  0  0  0
  -44.6645   18.2779   32.5353 H   0  0  0  0  0  0  0  0  0  0  0  0
  -41.3976   18.4512   34.9878 H   0  0  0  0  0  0  0  0  0  0  0  0
  -41.0482   17.9709   32.1110 H   0  0  0  0  0  0  0  0  0  0  0  0
  -41.1366   16.4440   33.0531 H   0  0  0  0  0  0  0  0  0  0  0  0
  -39.3723   17.4160   34.5961 H   0  0  0  0  0  0  0  0  0  0  0  0
  -39.1889   18.7607   33.4194 H   0  0  0  0  0  0  0  0  0  0  0  0
  -38.6399   17.1364   31.6430 H   0  0  0  0  0  0  0  0  0  0  0  0
  -38.8331   15.7873   32.8132 H   0  0  0  0  0  0  0  0  0  0  0  0
  -37.0042   16.7192   34.1945 H   0  0  0  0  0  0  0  0  0  0  0  0
  -37.2469   19.0403   32.4640 H   0  0  0  0  0  0  0  0  0  0  0  0
  -36.0382   14.7979   33.7881 H   0  0  0  0  0  0  0  0  0  0  0  0
  -34.9802   14.3048   31.0571 H   0  0  0  0  0  0  0  0  0  0  0  0
  -32.7644   13.6416   31.9606 H   0  0  0  0  0  0  0  0  0  0  0  0
  -33.8245   14.5819   34.4519 H   0  0  0  0  0  0  0  0  0  0  0  0
  -31.9118   15.8731   32.6121 H   0  0  0  0  0  0  0  0  0  0  0  0
  -33.5936   16.4365   32.8957 H   0  0  0  0  0  0  0  0  0  0  0  0
  -33.0623   15.9937   31.2379 H   0  0  0  0  0  0  0  0  0  0  0  0
  -33.9342   12.1144   30.9469 H   0  0  0  0  0  0  0  0  0  0  0  0
  -35.1858   10.0892   32.7415 H   0  0  0  0  0  0  0  0  0  0  0  0
  -35.5237    8.6423   30.7218 H   0  0  0  0  0  0  0  0  0  0  0  0
  -35.0886   10.0451   29.6876 H   0  0  0  0  0  0  0  0  0  0  0  0
  -37.0386   11.2708   30.4945 H   0  0  0  0  0  0  0  0  0  0  0  0
  -37.4616    9.9092   31.5871 H   0  0  0  0  0  0  0  0  0  0  0  0
  -37.7146    8.4172   29.6437 H   0  0  0  0  0  0  0  0  0  0  0  0
  -37.2672    9.7647   28.5433 H   0  0  0  0  0  0  0  0  0  0  0  0
  -39.2285   11.0481   29.3163 H   0  0  0  0  0  0  0  0  0  0  0  0
  -39.6756    9.7018   30.4183 H   0  0  0  0  0  0  0  0  0  0  0  0
  -40.7082    7.3947   27.7504 H   0  0  0  0  0  0  0  0  0  0  0  0
  -40.5793    7.6251   29.5272 H   0  0  0  0  0  0  0  0  0  0  0  0
  -39.0943    7.4144   28.5387 H   0  0  0  0  0  0  0  0  0  0  0  0
  -41.3520   11.0121   28.3431 H   0  0  0  0  0  0  0  0  0  0  0  0
  -41.8055    9.7057   29.4896 H   0  0  0  0  0  0  0  0  0  0  0  0
  -42.0672    9.4841   27.7263 H   0  0  0  0  0  0  0  0  0  0  0  0
  -38.4727    9.1763   26.9028 H   0  0  0  0  0  0  0  0  0  0  0  0
  -39.4225   10.6994   26.8337 H   0  0  0  0  0  0  0  0  0  0  0  0
  -40.1386    9.1662   26.2309 H   0  0  0  0  0  0  0  0  0  0  0  0
  -33.8854    8.3320   33.1136 H   0  0  0  0  0  0  0  0  0  0  0  0
  -31.9620    7.1319   33.3735 H   0  0  0  0  0  0  0  0  0  0  0  0
  -30.6606    6.6200   31.3595 H   0  0  0  0  0  0  0  0  0  0  0  0
  -31.4420    7.9830   30.4886 H   0  0  0  0  0  0  0  0  0  0  0  0
  -32.3848    5.8155   29.8312 H   0  0  0  0  0  0  0  0  0  0  0  0
  -33.6082    6.8597   30.6310 H   0  0  0  0  0  0  0  0  0  0  0  0
  -34.5085    4.2555   32.7421 H   0  0  0  0  0  0  0  0  0  0  0  0
  -34.9682    5.5375   31.6720 H   0  0  0  0  0  0  0  0  0  0  0  0
  -31.7649    9.7809   34.3354 H   0  0  0  0  0  0  0  0  0  0  0  0
  -28.9079   10.3703   33.6739 H   0  0  0  0  0  0  0  0  0  0  0  0
  -29.3947   12.6462   34.7769 H   0  0  0  0  0  0  0  0  0  0  0  0
  -31.6510   13.2015   34.7245 H   0  0  0  0  0  0  0  0  0  0  0  0
  -30.3953   13.5790   32.7184 H   0  0  0  0  0  0  0  0  0  0  0  0
  -30.8683   11.9257   32.1995 H   0  0  0  0  0  0  0  0  0  0  0  0
  -29.1311   12.3596   32.3423 H   0  0  0  0  0  0  0  0  0  0  0  0
  -30.6392    8.6516   35.7371 H   0  0  0  0  0  0  0  0  0  0  0  0
  -29.4429    9.6367   38.2421 H   0  0  0  0  0  0  0  0  0  0  0  0
  -30.6549    7.7554   39.2904 H   0  0  0  0  0  0  0  0  0  0  0  0
  -31.1687    7.1816   37.6676 H   0  0  0  0  0  0  0  0  0  0  0  0
  -31.7487    8.7655   38.2854 H   0  0  0  0  0  0  0  0  0  0  0  0
  -27.7499    8.9024   39.1059 H   0  0  0  0  0  0  0  0  0  0  0  0
  -25.8027    7.2771   37.7565 H   0  0  0  0  0  0  0  0  0  0  0  0
  -24.5163    8.4145   39.2425 H   0  0  0  0  0  0  0  0  0  0  0  0
  -25.4469    7.7703   40.6373 H   0  0  0  0  0  0  0  0  0  0  0  0
  -25.8094   10.1213   40.8349 H   0  0  0  0  0  0  0  0  0  0  0  0
  -27.2772    9.5785   39.9532 H   0  0  0  0  0  0  0  0  0  0  0  0
  -25.5028   10.2400   37.8868 H   0  0  0  0  0  0  0  0  0  0  0  0
  -25.1446   11.4751   39.1410 H   0  0  0  0  0  0  0  0  0  0  0  0
  -27.6003   11.2029   37.5070 H   0  0  0  0  0  0  0  0  0  0  0  0
  -27.1840   14.1934   40.2263 H   0  0  0  0  0  0  0  0  0  0  0  0
  -26.0275   12.8353   40.2546 H   0  0  0  0  0  0  0  0  0  0  0  0
  -29.0267   12.9448   37.4858 H   0  0  0  0  0  0  0  0  0  0  0  0
  -28.8405   14.2678   38.6680 H   0  0  0  0  0  0  0  0  0  0  0  0
  -25.7274    5.0295   37.7497 H   0  0  0  0  0  0  0  0  0  0  0  0
  -27.5733    3.5013   39.4044 H   0  0  0  0  0  0  0  0  0  0  0  0
  -25.5059    2.7196   37.3176 H   0  0  0  0  0  0  0  0  0  0  0  0
  -27.2968    2.6031   37.2414 H   0  0  0  0  0  0  0  0  0  0  0  0
  -27.1423    0.8115   39.0694 H   0  0  0  0  0  0  0  0  0  0  0  0
  -25.3629    0.8303   38.8238 H   0  0  0  0  0  0  0  0  0  0  0  0
  -25.7942    0.2241   36.3775 H   0  0  0  0  0  0  0  0  0  0  0  0
  -27.5198   -0.0159   36.8152 H   0  0  0  0  0  0  0  0  0  0  0  0
  -26.5696   -1.5865   38.6905 H   0  0  0  0  0  0  0  0  0  0  0  0
  -25.0696   -1.5832   37.7022 H   0  0  0  0  0  0  0  0  0  0  0  0
  -26.4452   -3.4790   37.2406 H   0  0  0  0  0  0  0  0  0  0  0  0
  -26.3439   -2.5272   35.9015 H   0  0  0  0  0  0  0  0  0  0  0  0
  -27.7185   -2.5302   36.8071 H   0  0  0  0  0  0  0  0  0  0  0  0
  -27.2371    2.1420   41.0473 H   0  0  0  0  0  0  0  0  0  0  0  0
  -25.0372    2.7443   42.7506 H   0  0  0  0  0  0  0  0  0  0  0  0
  -26.0635    1.0734   44.2938 H   0  0  0  0  0  0  0  0  0  0  0  0
  -27.2132    0.6233   42.9891 H   0  0  0  0  0  0  0  0  0  0  0  0
  -27.2304    2.2867   43.6670 H   0  0  0  0  0  0  0  0  0  0  0  0
  -23.3110    1.9706   43.2161 H   0  0  0  0  0  0  0  0  0  0  0  0
  -22.2457   -0.3377   43.7993 H   0  0  0  0  0  0  0  0  0  0  0  0
  -21.2210   -1.3585   41.8569 H   0  0  0  0  0  0  0  0  0  0  0  0
  -22.0923   -0.2103   40.7851 H   0  0  0  0  0  0  0  0  0  0  0  0
  -23.0144   -1.4004   41.7650 H   0  0  0  0  0  0  0  0  0  0  0  0
  -21.6705    1.2797   44.7543 H   0  0  0  0  0  0  0  0  0  0  0  0
  -20.2396    3.5731   44.4321 H   0  0  0  0  0  0  0  0  0  0  0  0
  -18.9873    2.2854   44.4362 H   0  0  0  0  0  0  0  0  0  0  0  0
  1 93  1  0  0  0  0
  1 94  1  0  0  0  0
  1 95  1  0  0  0  0
  2  1  1  0  0  0  0
  2  5  1  0  0  0  0
  2 96  1  6  0  0  0
  3  2  1  0  0  0  0
  3  4  2  0  0  0  0
  5 97  1  0  0  0  0
  5 98  1  0  0  0  0
  5 99  1  0  0  0  0
  6100  1  0  0  0  0
  6101  1  0  0  0  0
  6102  1  0  0  0  0
  7  6  1  0  0  0  0
  7103  1  0  0  0  0
  8  7  1  1  0  0  0
  8  9  1  0  0  0  0
  9104  1  0  0  0  0
  9105  1  0  0  0  0
 10  8  1  0  0  0  0
 10106  1  0  0  0  0
 11 10  1  0  0  0  0
 11107  1  0  0  0  0
 11108  1  0  0  0  0
 12 11  1  0  0  0  0
 12109  1  0  0  0  0
 12110  1  0  0  0  0
 13 12  1  0  0  0  0
 13111  1  0  0  0  0
 13112  1  0  0  0  0
 14 13  1  0  0  0  0
 14 15  1  0  0  0  0
 14 17  1  0  0  0  0
 14113  1  1  0  0  0
 15 16  2  0  0  0  0
 15 18  1  0  0  0  0
 17  3  1  0  0  0  0
 17114  1  0  0  0  0
 18 19  1  0  0  0  0
 18115  1  0  0  0  0
 19 20  1  0  0  0  0
 19 22  1  0  0  0  0
 19116  1  6  0  0  0
 20 21  2  0  0  0  0
 20 25  1  0  0  0  0
 22 23  1  0  0  0  0
 22 24  1  0  0  0  0
 22117  1  6  0  0  0
 23118  1  0  0  0  0
 24119  1  0  0  0  0
 24120  1  0  0  0  0
 24121  1  0  0  0  0
 25 26  1  0  0  0  0
 25122  1  0  0  0  0
 26 27  1  0  0  0  0
 26 32  1  0  0  0  0
 26123  1  1  0  0  0
 27 28  1  0  0  0  0
 27124  1  0  0  0  0
 27125  1  0  0  0  0
 28 29  1  0  0  0  0
 28126  1  0  0  0  0
 28127  1  0  0  0  0
 29 30  1  0  0  0  0
 29128  1  0  0  0  0
 29129  1  0  0  0  0
 30 31  1  0  0  0  0
 30130  1  0  0  0  0
 30131  1  0  0  0  0
 31 34  1  0  0  0  0
 31 35  1  0  0  0  0
 31 36  1  0  0  0  0
 32 33  2  0  0  0  0
 32 37  1  0  0  0  0
 34132  1  0  0  0  0
 34133  1  0  0  0  0
 34134  1  0  0  0  0
 35135  1  0  0  0  0
 35136  1  0  0  0  0
 35137  1  0  0  0  0
 36138  1  0  0  0  0
 36139  1  0  0  0  0
 36140  1  0  0  0  0
 37 38  1  0  0  0  0
 37141  1  0  0  0  0
 38 39  1  0  0  0  0
 38 41  1  0  0  0  0
 38142  1  1  0  0  0
 39 40  2  0  0  0  0
 39 46  1  0  0  0  0
 41 42  1  0  0  0  0
 41143  1  0  0  0  0
 41144  1  0  0  0  0
 42 43  1  0  0  0  0
 42145  1  0  0  0  0
 42146  1  0  0  0  0
 43 44  2  0  0  0  0
 43 45  1  0  0  0  0
 45147  1  0  0  0  0
 45148  1  0  0  0  0
 46 47  1  0  0  0  0
 46149  1  0  0  0  0
 47 48  1  0  0  0  0
 47 50  1  0  0  0  0
 47150  1  6  0  0  0
 48 49  2  0  0  0  0
 48 53  1  0  0  0  0
 50 51  1  0  0  0  0
 50 52  1  0  0  0  0
 50151  1  1  0  0  0
 51152  1  0  0  0  0
 52153  1  0  0  0  0
 52154  1  0  0  0  0
 52155  1  0  0  0  0
 53 54  1  0  0  0  0
 53156  1  0  0  0  0
 54 55  1  0  0  0  0
 54 57  1  0  0  0  0
 54157  1  1  0  0  0
 55 56  2  0  0  0  0
 55 58  1  0  0  0  0
 57158  1  0  0  0  0
 57159  1  0  0  0  0
 57160  1  0  0  0  0
 58 59  1  0  0  0  0
 58161  1  0  0  0  0
 59 60  1  0  0  0  0
 59 62  1  0  0  0  0
 59162  1  6  0  0  0
 60 61  2  0  0  0  0
 60 69  1  0  0  0  0
 62 63  1  0  0  0  0
 62163  1  0  0  0  0
 62164  1  0  0  0  0
 63 64  1  0  0  0  0
 63165  1  0  0  0  0
 63166  1  0  0  0  0
 64 65  1  0  0  0  0
 64167  1  0  0  0  0
 64168  1  0  0  0  0
 65 66  1  0  0  0  0
 65169  1  0  0  0  0
 66 67  1  0  0  0  0
 66 68  1  0  0  0  0
 67170  1  0  0  0  0
 67171  1  0  0  0  0
 68172  1  0  0  0  0
 68173  1  0  0  0  0
 69 70  1  0  0  0  0
 69174  1  0  0  0  0
 70 71  1  0  0  0  0
 70 73  1  0  0  0  0
 70175  1  1  0  0  0
 71 72  2  0  0  0  0
 71 78  1  0  0  0  0
 73 74  1  0  0  0  0
 73176  1  0  0  0  0
 73177  1  0  0  0  0
 74 75  1  0  0  0  0
 74178  1  0  0  0  0
 74179  1  0  0  0  0
 75 76  1  0  0  0  0
 75180  1  0  0  0  0
 75181  1  0  0  0  0
 76 77  1  0  0  0  0
 76182  1  0  0  0  0
 76183  1  0  0  0  0
 77184  1  0  0  0  0
 77185  1  0  0  0  0
 77186  1  0  0  0  0
 78 79  1  0  0  0  0
 78187  1  0  0  0  0
 79 80  1  0  0  0  0
 79 82  1  0  0  0  0
 79188  1  1  0  0  0
 80 81  2  0  0  0  0
 80 83  1  0  0  0  0
 82189  1  0  0  0  0
 82190  1  0  0  0  0
 82191  1  0  0  0  0
 83 84  1  0  0  0  0
 83192  1  0  0  0  0
 84 85  1  0  0  0  0
 84 87  1  0  0  0  0
 84193  1  1  0  0  0
 85 86  2  0  0  0  0
 85 88  1  0  0  0  0
 87194  1  0  0  0  0
 87195  1  0  0  0  0
 87196  1  0  0  0  0
 88 89  1  0  0  0  0
 88197  1  0  0  0  0
 89 90  1  0  0  0  0
 89198  1  0  0  0  0
 89199  1  0  0  0  0
 90 91  1  0  0  0  0
 90 92  2  0  0  0  0
M  CHG  4   1   1  31   1  77   1  91  -1
M  END
