2v87_ligand
 OpenBabel08222323343D

151150  0  0  1  0  0  0  0  0999 V2000
    9.9000   20.8400  -36.4590 N   0  3  0  0  0  0  0  0  0  0  0  0
   10.8250   20.2650  -35.4420 C   0  0  2  0  0  0  0  0  0  0  0  0
   11.0910   18.8020  -35.7510 C   0  0  0  0  0  0  0  0  0  0  0  0
   10.2310   18.1090  -36.2830 O   0  0  0  0  0  0  0  0  0  0  0  0
   10.2200   20.3980  -34.0400 C   0  0  0  0  0  0  0  0  0  0  0  0
   12.2930   18.3390  -35.4240 N   0  0  0  0  0  0  0  0  0  0  0  0
   12.6460   16.9490  -35.6610 C   0  0  1  0  0  0  0  0  0  0  0  0
   14.1570   16.7600  -35.6050 C   0  0  0  0  0  0  0  0  0  0  0  0
   14.8750   17.0010  -36.9180 C   0  0  0  0  0  0  0  0  0  0  0  0
   16.3050   17.4810  -36.6670 C   0  0  0  0  0  0  0  0  0  0  0  0
   17.0870   16.5680  -35.8190 N   0  0  0  0  0  0  0  0  0  0  0  0
   18.2380   16.7920  -35.0950 C   0  0  0  0  0  3  0  0  0  0  0  0
   18.6750   15.7520  -34.3810 N   0  0  0  0  0  0  0  0  0  0  0  0
   19.8550   15.9050  -33.4850 C   0  0  0  0  0  0  0  0  0  0  0  0
   18.9490   17.9750  -35.0050 N   0  0  0  0  0  0  0  0  0  0  0  0
   18.7160   19.1980  -35.7470 C   0  0  0  0  0  0  0  0  0  0  0  0
   11.9440   16.0790  -34.6230 C   0  0  0  0  0  0  0  0  0  0  0  0
   11.8990   16.4200  -33.4480 O   0  0  0  0  0  0  0  0  0  0  0  0
   11.3960   14.9560  -35.0750 N   0  0  0  0  0  0  0  0  0  0  0  0
   10.6730   14.0490  -34.1950 C   0  0  2  0  0  0  0  0  0  0  0  0
   10.9570   12.5840  -34.5090 C   0  0  0  0  0  0  0  0  0  0  0  0
   11.6300   12.2640  -35.4840 O   0  0  0  0  0  0  0  0  0  0  0  0
    9.1510   14.2500  -34.3270 C   0  0  2  0  0  0  0  0  0  0  0  0
    8.7520   13.9390  -35.6660 O   0  0  0  0  0  0  0  0  0  0  0  0
    8.7600   15.6900  -34.0070 C   0  0  0  0  0  0  0  0  0  0  0  0
   10.4160   11.7110  -33.6630 N   0  0  0  0  0  0  0  0  0  0  0  0
   10.5450   10.2710  -33.8070 C   0  0  1  0  0  0  0  0  0  0  0  0
   11.5670    9.7080  -32.8180 C   0  0  0  0  0  0  0  0  0  0  0  0
   12.9670   10.2790  -32.9310 C   0  0  0  0  0  0  0  0  0  0  0  0
   13.9010    9.5240  -32.0060 C   0  0  0  0  0  0  0  0  0  0  0  0
   15.3100   10.1040  -32.0150 C   0  0  0  0  0  0  0  0  0  0  0  0
   16.3230    9.2420  -31.3170 N   0  3  0  0  0  0  0  0  0  0  0  0
    9.1870    9.6450  -33.5040 C   0  0  0  0  0  0  0  0  0  0  0  0
    8.4790   10.0930  -32.6060 O   0  0  0  0  0  0  0  0  0  0  0  0
   16.4740    7.9400  -32.0560 C   0  0  0  0  0  0  0  0  0  0  0  0
   17.6130   10.0070  -31.3930 C   0  0  0  0  0  0  0  0  0  0  0  0
   15.9880    8.9470  -29.8810 C   0  0  0  0  0  0  0  0  0  0  0  0
    8.8450    8.6090  -34.2630 N   0  0  0  0  0  0  0  0  0  0  0  0
    7.5910    7.8830  -34.0990 C   0  0  2  0  0  0  0  0  0  0  0  0
    6.3610    8.7690  -34.2660 C   0  0  0  0  0  0  0  0  0  0  0  0
    5.4060    8.6670  -33.5000 O   0  0  0  0  0  0  0  0  0  0  0  0
    7.5510    7.2080  -32.7250 C   0  0  0  0  0  0  0  0  0  0  0  0
    8.7620    6.3270  -32.4130 C   0  0  0  0  0  0  0  0  0  0  0  0
    8.9550    5.2040  -33.4160 C   0  0  0  0  0  0  0  0  0  0  0  0
    8.0150    4.5070  -33.7670 O   0  0  0  0  0  0  0  0  0  0  0  0
   10.1910    5.0180  -33.8680 N   0  0  0  0  0  0  0  0  0  0  0  0
    6.3880    9.6340  -35.2760 N   0  0  0  0  0  0  0  0  0  0  0  0
    5.2650   10.5250  -35.5510 C   0  0  2  0  0  0  0  0  0  0  0  0
    4.6700   10.2380  -36.9240 C   0  0  0  0  0  0  0  0  0  0  0  0
    3.7300   10.9020  -37.3530 O   0  0  0  0  0  0  0  0  0  0  0  0
    5.6890   12.0040  -35.4950 C   0  0  2  0  0  0  0  0  0  0  0  0
    6.8650   12.1980  -36.2940 O   0  0  0  0  0  0  0  0  0  0  0  0
    5.9650   12.4190  -34.0580 C   0  0  0  0  0  0  0  0  0  0  0  0
    5.2280    9.2440  -37.6060 N   0  0  0  0  0  0  0  0  0  0  0  0
    4.7400    8.8620  -38.9270 C   0  0  2  0  0  0  0  0  0  0  0  0
    3.4740    8.0370  -38.7530 C   0  0  0  0  0  0  0  0  0  0  0  0
    3.4040    7.1870  -37.8770 O   0  0  0  0  0  0  0  0  0  0  0  0
    5.7990    8.0490  -39.6620 C   0  0  0  0  0  0  0  0  0  0  0  0
    2.4730    8.3000  -39.5870 N   0  0  0  0  0  0  0  0  0  0  0  0
    1.2160    7.5660  -39.5130 C   0  0  2  0  0  0  0  0  0  0  0  0
    1.4560    6.1090  -39.8980 C   0  0  0  0  0  0  0  0  0  0  0  0
    2.3280    5.8120  -40.7040 O   0  0  0  0  0  0  0  0  0  0  0  0
    0.1840    8.1960  -40.4400 C   0  0  0  0  0  0  0  0  0  0  0  0
    0.6740    5.2060  -39.3150 N   0  0  0  0  0  0  0  0  0  0  0  0
    0.8160    3.7790  -39.5830 C   0  0  2  0  0  0  0  0  0  0  0  0
   -0.0920    3.2750  -40.7020 C   0  0  0  0  0  0  0  0  0  0  0  0
   -0.7650    4.1010  -41.3540 O   0  0  0  0  0  0  0  0  0  0  0  0
    0.5560    2.9870  -38.3050 C   0  0  0  0  0  0  0  0  0  0  0  0
   -0.1090    2.0460  -40.9150 N   0  0  0  0  0  0  0  0  0  0  0  0
    9.7287   21.8104  -36.2468 H   0  0  0  0  0  0  0  0  0  0  0  0
    9.0283   20.3340  -36.4446 H   0  0  0  0  0  0  0  0  0  0  0  0
   10.3172   20.7646  -37.3735 H   0  0  0  0  0  0  0  0  0  0  0  0
   11.7764   20.8161  -35.4738 H   0  0  0  0  0  0  0  0  0  0  0  0
   10.9122   19.9702  -33.2999 H   0  0  0  0  0  0  0  0  0  0  0  0
    9.2623   19.8583  -34.0012 H   0  0  0  0  0  0  0  0  0  0  0  0
   10.0514   21.4610  -33.8127 H   0  0  0  0  0  0  0  0  0  0  0  0
   12.9632   18.9547  -35.0096 H   0  0  0  0  0  0  0  0  0  0  0  0
   12.2959   16.6583  -36.6625 H   0  0  0  0  0  0  0  0  0  0  0  0
   14.3615   15.7269  -35.2874 H   0  0  0  0  0  0  0  0  0  0  0  0
   14.5624   17.4599  -34.8595 H   0  0  0  0  0  0  0  0  0  0  0  0
   14.3321   17.7661  -37.4922 H   0  0  0  0  0  0  0  0  0  0  0  0
   14.9037   16.0632  -37.4922 H   0  0  0  0  0  0  0  0  0  0  0  0
   16.2617   18.4635  -36.1742 H   0  0  0  0  0  0  0  0  0  0  0  0
   16.8152   17.5793  -37.6366 H   0  0  0  0  0  0  0  0  0  0  0  0
   16.7153   15.6094  -35.7565 H   0  0  0  0  0  0  0  0  0  0  0  0
   18.1957   14.8429  -34.4498 H   0  0  0  0  0  0  0  0  0  0  0  0
   20.0621   14.9475  -32.9847 H   0  0  0  0  0  0  0  0  0  0  0  0
   19.6439   16.6755  -32.7289 H   0  0  0  0  0  0  0  0  0  0  0  0
   20.7305   16.2048  -34.0796 H   0  0  0  0  0  0  0  0  0  0  0  0
   19.7318   17.9883  -34.3357 H   0  0  0  0  0  0  0  0  0  0  0  0
   19.4540   19.9559  -35.4456 H   0  0  0  0  0  0  0  0  0  0  0  0
   17.7023   19.5684  -35.5344 H   0  0  0  0  0  0  0  0  0  0  0  0
   18.8149   18.9979  -36.8241 H   0  0  0  0  0  0  0  0  0  0  0  0
   11.4824   14.7279  -36.0448 H   0  0  0  0  0  0  0  0  0  0  0  0
   10.9786   14.2587  -33.1593 H   0  0  0  0  0  0  0  0  0  0  0  0
    8.6375   13.5750  -33.6265 H   0  0  0  0  0  0  0  0  0  0  0  0
    9.2046   14.5141  -36.2718 H   0  0  0  0  0  0  0  0  0  0  0  0
    7.6708   15.8054  -34.1087 H   0  0  0  0  0  0  0  0  0  0  0  0
    9.2677   16.3716  -34.7053 H   0  0  0  0  0  0  0  0  0  0  0  0
    9.0595   15.9309  -32.9764 H   0  0  0  0  0  0  0  0  0  0  0  0
    9.8932   12.0646  -32.8874 H   0  0  0  0  0  0  0  0  0  0  0  0
   10.8543   10.0283  -34.8343 H   0  0  0  0  0  0  0  0  0  0  0  0
   11.6302    8.6215  -32.9775 H   0  0  0  0  0  0  0  0  0  0  0  0
   11.2003    9.9086  -31.8005 H   0  0  0  0  0  0  0  0  0  0  0  0
   12.9526   11.3420  -32.6485 H   0  0  0  0  0  0  0  0  0  0  0  0
   13.3201   10.1799  -33.9681 H   0  0  0  0  0  0  0  0  0  0  0  0
   13.9479    8.4737  -32.3295 H   0  0  0  0  0  0  0  0  0  0  0  0
   13.5032    9.5748  -30.9817 H   0  0  0  0  0  0  0  0  0  0  0  0
   15.2853   11.0839  -31.5159 H   0  0  0  0  0  0  0  0  0  0  0  0
   15.6257   10.2330  -33.0608 H   0  0  0  0  0  0  0  0  0  0  0  0
   17.2162    7.3110  -31.5427 H   0  0  0  0  0  0  0  0  0  0  0  0
   16.8103    8.1389  -33.0843 H   0  0  0  0  0  0  0  0  0  0  0  0
   15.5060    7.4183  -32.0812 H   0  0  0  0  0  0  0  0  0  0  0  0
   17.5065   10.9598  -30.8537 H   0  0  0  0  0  0  0  0  0  0  0  0
   17.8590   10.2074  -32.4462 H   0  0  0  0  0  0  0  0  0  0  0  0
   18.4184    9.4143  -30.9347 H   0  0  0  0  0  0  0  0  0  0  0  0
   15.0425    8.3868  -29.8327 H   0  0  0  0  0  0  0  0  0  0  0  0
   15.8831    9.8917  -29.3274 H   0  0  0  0  0  0  0  0  0  0  0  0
   16.7932    8.3466  -29.4325 H   0  0  0  0  0  0  0  0  0  0  0  0
    9.4768    8.3137  -34.9797 H   0  0  0  0  0  0  0  0  0  0  0  0
    7.5519    7.1018  -34.8724 H   0  0  0  0  0  0  0  0  0  0  0  0
    6.6488    6.5805  -32.6771 H   0  0  0  0  0  0  0  0  0  0  0  0
    7.4920    7.9943  -31.9580 H   0  0  0  0  0  0  0  0  0  0  0  0
    8.6259    5.8854  -31.4148 H   0  0  0  0  0  0  0  0  0  0  0  0
    9.6635    6.9573  -32.4153 H   0  0  0  0  0  0  0  0  0  0  0  0
   10.3772    4.2925  -34.5306 H   0  0  0  0  0  0  0  0  0  0  0  0
   10.9347    5.6035  -33.5455 H   0  0  0  0  0  0  0  0  0  0  0  0
    7.1977    9.6749  -35.8614 H   0  0  0  0  0  0  0  0  0  0  0  0
    4.4929   10.3515  -34.7869 H   0  0  0  0  0  0  0  0  0  0  0  0
    4.8750   12.6256  -35.8962 H   0  0  0  0  0  0  0  0  0  0  0  0
    7.1242   13.1112  -36.2575 H   0  0  0  0  0  0  0  0  0  0  0  0
    6.2665   13.4766  -34.0333 H   0  0  0  0  0  0  0  0  0  0  0  0
    6.7736   11.7975  -33.6457 H   0  0  0  0  0  0  0  0  0  0  0  0
    5.0546   12.2831  -33.4558 H   0  0  0  0  0  0  0  0  0  0  0  0
    5.9983    8.7474  -37.2059 H   0  0  0  0  0  0  0  0  0  0  0  0
    4.5111    9.7667  -39.5093 H   0  0  0  0  0  0  0  0  0  0  0  0
    5.4205    7.7669  -40.6555 H   0  0  0  0  0  0  0  0  0  0  0  0
    6.0292    7.1407  -39.0859 H   0  0  0  0  0  0  0  0  0  0  0  0
    6.7116    8.6526  -39.7752 H   0  0  0  0  0  0  0  0  0  0  0  0
    2.5844    9.0144  -40.2778 H   0  0  0  0  0  0  0  0  0  0  0  0
    0.8376    7.6059  -38.4809 H   0  0  0  0  0  0  0  0  0  0  0  0
   -0.7591    7.6335  -40.3750 H   0  0  0  0  0  0  0  0  0  0  0  0
    0.5561    8.1696  -41.4748 H   0  0  0  0  0  0  0  0  0  0  0  0
    0.0098    9.2397  -40.1395 H   0  0  0  0  0  0  0  0  0  0  0  0
   -0.0307    5.5131  -38.6754 H   0  0  0  0  0  0  0  0  0  0  0  0
    1.8559    3.6010  -39.8943 H   0  0  0  0  0  0  0  0  0  0  0  0
    0.6641    1.9120  -38.5115 H   0  0  0  0  0  0  0  0  0  0  0  0
   -0.4644    3.1911  -37.9483 H   0  0  0  0  0  0  0  0  0  0  0  0
    1.2809    3.2869  -37.5339 H   0  0  0  0  0  0  0  0  0  0  0  0
   -0.6893    1.6719  -41.6384 H   0  0  0  0  0  0  0  0  0  0  0  0
    0.4577    1.4349  -40.3624 H   0  0  0  0  0  0  0  0  0  0  0  0
  1  2  1  0  0  0  0
  1 70  1  0  0  0  0
  1 71  1  0  0  0  0
  1 72  1  0  0  0  0
  2  3  1  0  0  0  0
  2  5  1  0  0  0  0
  2 73  1  6  0  0  0
  3  4  2  0  0  0  0
  3  6  1  0  0  0  0
  5 74  1  0  0  0  0
  5 75  1  0  0  0  0
  5 76  1  0  0  0  0
  6  7  1  0  0  0  0
  6 77  1  0  0  0  0
  7  8  1  0  0  0  0
  7 17  1  0  0  0  0
  7 78  1  6  0  0  0
  8  9  1  0  0  0  0
  8 79  1  0  0  0  0
  8 80  1  0  0  0  0
  9 10  1  0  0  0  0
  9 81  1  0  0  0  0
  9 82  1  0  0  0  0
 10 11  1  0  0  0  0
 10 83  1  0  0  0  0
 10 84  1  0  0  0  0
 11 12  1  0  0  0  0
 11 85  1  0  0  0  0
 12 13  1  0  0  0  0
 12 15  1  0  0  0  0
 13 14  1  0  0  0  0
 13 86  1  0  0  0  0
 14 87  1  0  0  0  0
 14 88  1  0  0  0  0
 14 89  1  0  0  0  0
 15 16  1  0  0  0  0
 15 90  1  0  0  0  0
 16 91  1  0  0  0  0
 16 92  1  0  0  0  0
 16 93  1  0  0  0  0
 17 18  2  0  0  0  0
 17 19  1  0  0  0  0
 19 20  1  0  0  0  0
 19 94  1  0  0  0  0
 20 21  1  0  0  0  0
 20 23  1  0  0  0  0
 20 95  1  1  0  0  0
 21 22  2  0  0  0  0
 21 26  1  0  0  0  0
 23 24  1  0  0  0  0
 23 25  1  0  0  0  0
 23 96  1  1  0  0  0
 24 97  1  0  0  0  0
 25 98  1  0  0  0  0
 25 99  1  0  0  0  0
 25100  1  0  0  0  0
 26 27  1  0  0  0  0
 26101  1  0  0  0  0
 27 28  1  0  0  0  0
 27 33  1  0  0  0  0
 27102  1  6  0  0  0
 28 29  1  0  0  0  0
 28103  1  0  0  0  0
 28104  1  0  0  0  0
 29 30  1  0  0  0  0
 29105  1  0  0  0  0
 29106  1  0  0  0  0
 30 31  1  0  0  0  0
 30107  1  0  0  0  0
 30108  1  0  0  0  0
 31 32  1  0  0  0  0
 31109  1  0  0  0  0
 31110  1  0  0  0  0
 32 35  1  0  0  0  0
 32 36  1  0  0  0  0
 32 37  1  0  0  0  0
 33 34  2  0  0  0  0
 33 38  1  0  0  0  0
 35111  1  0  0  0  0
 35112  1  0  0  0  0
 35113  1  0  0  0  0
 36114  1  0  0  0  0
 36115  1  0  0  0  0
 36116  1  0  0  0  0
 37117  1  0  0  0  0
 37118  1  0  0  0  0
 37119  1  0  0  0  0
 38 39  1  0  0  0  0
 38120  1  0  0  0  0
 39 40  1  0  0  0  0
 39 42  1  0  0  0  0
 39121  1  6  0  0  0
 40 41  2  0  0  0  0
 40 47  1  0  0  0  0
 42 43  1  0  0  0  0
 42122  1  0  0  0  0
 42123  1  0  0  0  0
 43 44  1  0  0  0  0
 43124  1  0  0  0  0
 43125  1  0  0  0  0
 44 45  2  0  0  0  0
 44 46  1  0  0  0  0
 46126  1  0  0  0  0
 46127  1  0  0  0  0
 47 48  1  0  0  0  0
 47128  1  0  0  0  0
 48 49  1  0  0  0  0
 48 51  1  0  0  0  0
 48129  1  1  0  0  0
 49 50  2  0  0  0  0
 49 54  1  0  0  0  0
 51 52  1  0  0  0  0
 51 53  1  0  0  0  0
 51130  1  6  0  0  0
 52131  1  0  0  0  0
 53132  1  0  0  0  0
 53133  1  0  0  0  0
 53134  1  0  0  0  0
 54 55  1  0  0  0  0
 54135  1  0  0  0  0
 55 56  1  0  0  0  0
 55 58  1  0  0  0  0
 55136  1  6  0  0  0
 56 57  2  0  0  0  0
 56 59  1  0  0  0  0
 58137  1  0  0  0  0
 58138  1  0  0  0  0
 58139  1  0  0  0  0
 59 60  1  0  0  0  0
 59140  1  0  0  0  0
 60 61  1  0  0  0  0
 60 63  1  0  0  0  0
 60141  1  1  0  0  0
 61 62  2  0  0  0  0
 61 64  1  0  0  0  0
 63142  1  0  0  0  0
 63143  1  0  0  0  0
 63144  1  0  0  0  0
 64 65  1  0  0  0  0
 64145  1  0  0  0  0
 65 66  1  0  0  0  0
 65 68  1  0  0  0  0
 65146  1  6  0  0  0
 66 67  2  0  0  0  0
 66 69  1  0  0  0  0
 68147  1  0  0  0  0
 68148  1  0  0  0  0
 68149  1  0  0  0  0
 69150  1  0  0  0  0
 69151  1  0  0  0  0
M  CHG  2   1   1  32   1
M  END
