2vci_ligand
 OpenBabel08222323343D

 66 69  0  0  0  0  0  0  0  0999 V2000
   35.4870    4.9960   21.3240 C   0  0  0  0  0  0  0  0  0  0  0  0
   35.9860    3.5600   21.0790 C   0  0  0  0  0  0  0  0  0  0  0  0
   36.8710    3.2020   22.1750 O   0  0  0  0  0  0  0  0  0  0  0  0
   36.1890    3.1500   23.4720 C   0  0  0  0  0  0  0  0  0  0  0  0
   35.6590    4.5420   23.8420 C   0  0  0  0  0  0  0  0  0  0  0  0
   34.9570    5.2020   22.7050 N   0  3  0  0  0  0  0  0  0  0  0  0
   35.1460    6.6380   22.9490 C   0  0  0  0  0  0  0  0  0  0  0  0
   34.0970    7.1990   23.8990 C   0  0  0  0  0  0  0  0  0  0  0  0
   32.7330    7.0520   23.5820 C   0  0  0  0  0  0  0  0  0  0  0  0
   31.7720    7.5550   24.4550 C   0  0  0  0  0  0  0  0  0  0  0  0
   34.5160    7.8380   25.0770 C   0  0  0  0  0  0  0  0  0  0  0  0
   33.5580    8.3410   25.9530 C   0  0  0  0  0  0  0  0  0  0  0  0
   32.1880    8.2030   25.6380 C   0  0  0  0  0  0  0  0  0  0  0  0
   31.1920    8.7610   26.4740 C   0  0  0  0  0  0  0  0  0  0  0  0
   30.8160    8.3590   27.7390 C   0  0  0  0  0  0  0  0  0  0  0  0
   31.4670    7.2140   28.5180 C   0  0  0  0  0  0  0  0  0  0  0  0
   32.0850    6.3470   27.8920 O   0  0  0  0  0  0  0  0  0  0  0  0
   31.3180    7.3320   29.8730 N   0  0  0  0  0  0  0  0  0  0  0  0
   31.8070    6.4480   30.9560 C   0  0  0  0  0  0  0  0  0  0  0  0
   33.0170    5.6360   30.4970 C   0  0  0  0  0  0  0  0  0  0  0  0
   29.8220    9.1600   28.1590 N   0  0  0  0  0  0  0  0  0  0  0  0
   29.5230   10.1560   27.1500 O   0  0  0  0  0  0  0  0  0  0  0  0
   30.3810    9.8760   26.1290 C   0  0  0  0  0  0  0  0  0  0  0  0
   30.4470   10.5530   24.9090 C   0  0  0  0  0  0  0  0  0  0  0  0
   31.7250   10.8640   24.5100 C   0  0  0  0  0  0  0  0  0  0  0  0
   31.9690   11.5150   23.3220 C   0  0  0  0  0  0  0  0  0  0  0  0
   33.3810   11.9070   22.9720 C   0  0  0  0  0  0  0  0  0  0  0  0
   33.4370   13.2730   23.6870 C   0  0  0  0  0  0  0  0  0  0  0  0
   34.4610   10.9450   23.4980 C   0  0  0  0  0  0  0  0  0  0  0  0
   30.8980   11.8950   22.5190 C   0  0  0  0  0  0  0  0  0  0  0  0
   31.1360   12.5340   21.3480 O   0  0  0  0  0  0  0  0  0  0  0  0
   29.5950   11.5770   22.9210 C   0  0  0  0  0  0  0  0  0  0  0  0
   29.3470   10.9020   24.1020 C   0  0  0  0  0  0  0  0  0  0  0  0
   28.0580   10.6360   24.4290 O   0  0  0  0  0  0  0  0  0  0  0  0
   34.6847    5.2159   20.6043 H   0  0  0  0  0  0  0  0  0  0  0  0
   36.3247    5.6905   21.1629 H   0  0  0  0  0  0  0  0  0  0  0  0
   36.5330    3.5118   20.1259 H   0  0  0  0  0  0  0  0  0  0  0  0
   35.1318    2.8677   21.0470 H   0  0  0  0  0  0  0  0  0  0  0  0
   36.8976    2.8132   24.2430 H   0  0  0  0  0  0  0  0  0  0  0  0
   35.3478    2.4437   23.4133 H   0  0  0  0  0  0  0  0  0  0  0  0
   36.5064    5.1730   24.1484 H   0  0  0  0  0  0  0  0  0  0  0  0
   34.9550    4.4407   24.6811 H   0  0  0  0  0  0  0  0  0  0  0  0
   33.9836    4.9410   22.7252 H   0  0  0  0  0  0  0  0  0  0  0  0
   35.0787    7.1729   21.9902 H   0  0  0  0  0  0  0  0  0  0  0  0
   36.1424    6.7954   23.3876 H   0  0  0  0  0  0  0  0  0  0  0  0
   32.4341    6.5523   22.6676 H   0  0  0  0  0  0  0  0  0  0  0  0
   30.7170    7.4502   24.2289 H   0  0  0  0  0  0  0  0  0  0  0  0
   35.5718    7.9384   25.3014 H   0  0  0  0  0  0  0  0  0  0  0  0
   33.8610    8.8345   26.8694 H   0  0  0  0  0  0  0  0  0  0  0  0
   30.8029    8.1334   30.1769 H   0  0  0  0  0  0  0  0  0  0  0  0
   31.0014    5.7585   31.2486 H   0  0  0  0  0  0  0  0  0  0  0  0
   32.0946    7.0641   31.8207 H   0  0  0  0  0  0  0  0  0  0  0  0
   33.3583    4.9899   31.3193 H   0  0  0  0  0  0  0  0  0  0  0  0
   33.8285    6.3195   30.2067 H   0  0  0  0  0  0  0  0  0  0  0  0
   32.7354    5.0139   29.6346 H   0  0  0  0  0  0  0  0  0  0  0  0
   32.5596   10.5904   25.1453 H   0  0  0  0  0  0  0  0  0  0  0  0
   33.5040   12.0123   21.8840 H   0  0  0  0  0  0  0  0  0  0  0  0
   34.4285   13.7251   23.5367 H   0  0  0  0  0  0  0  0  0  0  0  0
   33.2580   13.1313   24.7630 H   0  0  0  0  0  0  0  0  0  0  0  0
   32.6646   13.9366   23.2710 H   0  0  0  0  0  0  0  0  0  0  0  0
   34.3883    9.9855   22.9651 H   0  0  0  0  0  0  0  0  0  0  0  0
   34.3108   10.7786   24.5749 H   0  0  0  0  0  0  0  0  0  0  0  0
   35.4558   11.3833   23.3299 H   0  0  0  0  0  0  0  0  0  0  0  0
   30.3100   12.7250   20.9191 H   0  0  0  0  0  0  0  0  0  0  0  0
   28.7613   11.8667   22.2917 H   0  0  0  0  0  0  0  0  0  0  0  0
   27.5773   11.4518   24.5063 H   0  0  0  0  0  0  0  0  0  0  0  0
  1  2  1  0  0  0  0
  1  6  1  0  0  0  0
  1 35  1  0  0  0  0
  1 36  1  0  0  0  0
  2  3  1  0  0  0  0
  2 37  1  0  0  0  0
  2 38  1  0  0  0  0
  3  4  1  0  0  0  0
  4  5  1  0  0  0  0
  4 39  1  0  0  0  0
  4 40  1  0  0  0  0
  5  6  1  0  0  0  0
  5 41  1  0  0  0  0
  5 42  1  0  0  0  0
  6  7  1  0  0  0  0
  6 43  1  0  0  0  0
  7  8  1  0  0  0  0
  7 44  1  0  0  0  0
  7 45  1  0  0  0  0
  8  9  2  0  0  0  0
  8 11  1  0  0  0  0
  9 10  1  0  0  0  0
  9 46  1  0  0  0  0
 10 13  2  0  0  0  0
 10 47  1  0  0  0  0
 11 12  2  0  0  0  0
 11 48  1  0  0  0  0
 12 13  1  0  0  0  0
 12 49  1  0  0  0  0
 13 14  1  0  0  0  0
 14 15  1  0  0  0  0
 14 23  2  0  0  0  0
 15 16  1  0  0  0  0
 15 21  2  0  0  0  0
 16 17  2  0  0  0  0
 16 18  1  0  0  0  0
 18 19  1  0  0  0  0
 18 50  1  0  0  0  0
 19 20  1  0  0  0  0
 19 51  1  0  0  0  0
 19 52  1  0  0  0  0
 20 53  1  0  0  0  0
 20 54  1  0  0  0  0
 20 55  1  0  0  0  0
 21 22  1  0  0  0  0
 22 23  1  0  0  0  0
 23 24  1  0  0  0  0
 24 25  2  0  0  0  0
 24 33  1  0  0  0  0
 25 26  1  0  0  0  0
 25 56  1  0  0  0  0
 26 27  1  0  0  0  0
 26 30  2  0  0  0  0
 27 28  1  0  0  0  0
 27 29  1  0  0  0  0
 27 57  1  0  0  0  0
 28 58  1  0  0  0  0
 28 59  1  0  0  0  0
 28 60  1  0  0  0  0
 29 61  1  0  0  0  0
 29 62  1  0  0  0  0
 29 63  1  0  0  0  0
 30 31  1  0  0  0  0
 30 32  1  0  0  0  0
 31 64  1  0  0  0  0
 32 33  2  0  0  0  0
 32 65  1  0  0  0  0
 33 34  1  0  0  0  0
 34 66  1  0  0  0  0
M  CHG  1   6   1
M  END
