2vcj_ligand
 OpenBabel08222323343D

 57 60  0  0  0  0  0  0  0  0999 V2000
   36.0920    4.7760   23.9480 C   0  0  0  0  0  0  0  0  0  0  0  0
   37.0300    3.6260   23.6890 C   0  0  0  0  0  0  0  0  0  0  0  0
   37.4070    3.7880   22.3460 O   0  0  0  0  0  0  0  0  0  0  0  0
   36.4110    3.3290   21.5060 C   0  0  0  0  0  0  0  0  0  0  0  0
   35.4780    4.5100   21.4960 C   0  0  0  0  0  0  0  0  0  0  0  0
   35.7050    5.3550   22.6660 N   0  3  0  0  0  0  0  0  0  0  0  0
   35.5330    6.7900   22.5390 C   0  0  0  0  0  0  0  0  0  0  0  0
   34.5530    7.2940   23.5700 C   0  0  0  0  0  0  0  0  0  0  0  0
   35.0100    7.9950   24.6650 C   0  0  0  0  0  0  0  0  0  0  0  0
   34.1330    8.4620   25.6150 C   0  0  0  0  0  0  0  0  0  0  0  0
   33.2110    7.0600   23.4110 C   0  0  0  0  0  0  0  0  0  0  0  0
   32.3300    7.5250   24.3630 C   0  0  0  0  0  0  0  0  0  0  0  0
   32.7890    8.2220   25.4630 C   0  0  0  0  0  0  0  0  0  0  0  0
   31.8790    8.7000   26.3770 C   0  0  0  0  0  0  0  0  0  0  0  0
   31.5530    8.2050   27.6140 C   0  0  0  0  0  0  0  0  0  0  0  0
   32.1590    7.0110   28.3040 C   0  0  0  0  0  0  0  0  0  0  0  0
   32.8350    6.1970   27.7070 O   0  0  0  0  0  0  0  0  0  0  0  0
   32.0040    7.0180   29.6070 N   0  0  0  0  0  0  0  0  0  0  0  0
   32.5270    5.9630   30.4700 C   0  0  0  0  0  0  0  0  0  0  0  0
   34.0280    6.1100   30.6460 C   0  0  0  0  0  0  0  0  0  0  0  0
   30.6360    8.9740   28.1520 N   0  0  0  0  0  0  0  0  0  0  0  0
   30.3430    9.9890   27.2470 O   0  0  0  0  0  0  0  0  0  0  0  0
   31.1120    9.8140   26.1610 C   0  0  0  0  0  0  0  0  0  0  0  0
   31.1350   10.6160   25.0320 C   0  0  0  0  0  0  0  0  0  0  0  0
   32.3420   11.0120   24.4870 C   0  0  0  0  0  0  0  0  0  0  0  0
   32.3680   11.8170   23.3560 C   0  0  0  0  0  0  0  0  0  0  0  0
   33.8320   12.3300   22.6330 Cl  0  0  0  0  0  0  0  0  0  0  0  0
   31.1910   12.2230   22.7830 C   0  0  0  0  0  0  0  0  0  0  0  0
   31.2280   12.9990   21.6910 O   0  0  0  0  0  0  0  0  0  0  0  0
   29.9880   11.8280   23.3320 C   0  0  0  0  0  0  0  0  0  0  0  0
   29.9670   11.0340   24.4550 C   0  0  0  0  0  0  0  0  0  0  0  0
   28.8030   10.6630   24.9840 O   0  0  0  0  0  0  0  0  0  0  0  0
   36.5976    5.5365   24.5611 H   0  0  0  0  0  0  0  0  0  0  0  0
   35.1979    4.4139   24.4766 H   0  0  0  0  0  0  0  0  0  0  0  0
   36.5185    2.6636   23.8377 H   0  0  0  0  0  0  0  0  0  0  0  0
   37.9073    3.6810   24.3503 H   0  0  0  0  0  0  0  0  0  0  0  0
   35.9220    2.4312   21.9119 H   0  0  0  0  0  0  0  0  0  0  0  0
   36.7990    3.1121   20.4998 H   0  0  0  0  0  0  0  0  0  0  0  0
   34.4387    4.1497   21.5066 H   0  0  0  0  0  0  0  0  0  0  0  0
   35.6522    5.1005   20.5845 H   0  0  0  0  0  0  0  0  0  0  0  0
   36.6772    5.4441   22.4153 H   0  0  0  0  0  0  0  0  0  0  0  0
   35.1528    7.0222   21.5332 H   0  0  0  0  0  0  0  0  0  0  0  0
   36.5033    7.2863   22.6879 H   0  0  0  0  0  0  0  0  0  0  0  0
   36.0721    8.1801   24.7783 H   0  0  0  0  0  0  0  0  0  0  0  0
   34.4978    9.0133   26.4741 H   0  0  0  0  0  0  0  0  0  0  0  0
   32.8477    6.5158   22.5468 H   0  0  0  0  0  0  0  0  0  0  0  0
   31.2678    7.3421   24.2474 H   0  0  0  0  0  0  0  0  0  0  0  0
   31.5069    7.7777   30.0263 H   0  0  0  0  0  0  0  0  0  0  0  0
   32.3106    4.9846   30.0163 H   0  0  0  0  0  0  0  0  0  0  0  0
   32.0399    6.0266   31.4542 H   0  0  0  0  0  0  0  0  0  0  0  0
   34.4011    5.3067   31.2984 H   0  0  0  0  0  0  0  0  0  0  0  0
   34.2498    7.0859   31.1026 H   0  0  0  0  0  0  0  0  0  0  0  0
   34.5205    6.0438   29.6647 H   0  0  0  0  0  0  0  0  0  0  0  0
   33.2716   10.6929   24.9442 H   0  0  0  0  0  0  0  0  0  0  0  0
   30.3410   13.1955   21.4133 H   0  0  0  0  0  0  0  0  0  0  0  0
   29.0566   12.1445   22.8767 H   0  0  0  0  0  0  0  0  0  0  0  0
   28.9620   10.1220   25.7485 H   0  0  0  0  0  0  0  0  0  0  0  0
  1  2  1  0  0  0  0
  1  6  1  0  0  0  0
  1 33  1  0  0  0  0
  1 34  1  0  0  0  0
  2  3  1  0  0  0  0
  2 35  1  0  0  0  0
  2 36  1  0  0  0  0
  3  4  1  0  0  0  0
  4  5  1  0  0  0  0
  4 37  1  0  0  0  0
  4 38  1  0  0  0  0
  5  6  1  0  0  0  0
  5 39  1  0  0  0  0
  5 40  1  0  0  0  0
  6  7  1  0  0  0  0
  6 41  1  0  0  0  0
  7  8  1  0  0  0  0
  7 42  1  0  0  0  0
  7 43  1  0  0  0  0
  8  9  2  0  0  0  0
  8 11  1  0  0  0  0
  9 10  1  0  0  0  0
  9 44  1  0  0  0  0
 10 13  2  0  0  0  0
 10 45  1  0  0  0  0
 11 12  2  0  0  0  0
 11 46  1  0  0  0  0
 12 13  1  0  0  0  0
 12 47  1  0  0  0  0
 13 14  1  0  0  0  0
 14 15  1  0  0  0  0
 14 23  2  0  0  0  0
 15 16  1  0  0  0  0
 15 21  2  0  0  0  0
 16 17  2  0  0  0  0
 16 18  1  0  0  0  0
 18 19  1  0  0  0  0
 18 48  1  0  0  0  0
 19 20  1  0  0  0  0
 19 49  1  0  0  0  0
 19 50  1  0  0  0  0
 20 51  1  0  0  0  0
 20 52  1  0  0  0  0
 20 53  1  0  0  0  0
 21 22  1  0  0  0  0
 22 23  1  0  0  0  0
 23 24  1  0  0  0  0
 24 25  2  0  0  0  0
 24 31  1  0  0  0  0
 25 26  1  0  0  0  0
 25 54  1  0  0  0  0
 26 27  1  0  0  0  0
 26 28  2  0  0  0  0
 28 29  1  0  0  0  0
 28 30  1  0  0  0  0
 29 55  1  0  0  0  0
 30 31  2  0  0  0  0
 30 56  1  0  0  0  0
 31 32  1  0  0  0  0
 32 57  1  0  0  0  0
M  CHG  1   6   1
M  END
