2vcw_ligand
 OpenBabel08222323343D

 21 22  0  0  0  0  0  0  0  0999 V2000
    4.6820   12.1750    4.9050 O   0  5  0  0  0  0  0  0  0  0  0  0
    4.3740   13.4150    4.4810 C   0  0  0  0  0  0  0  0  0  0  0  0
    3.9540   14.2240    5.2830 O   0  0  0  0  0  0  0  0  0  0  0  0
    4.5440   13.7930    3.0610 C   0  0  0  0  0  0  0  0  0  0  0  0
    5.0770   12.9880    2.0230 C   0  0  0  0  0  0  0  0  0  0  0  0
    5.0630   13.6930    0.9160 N   0  0  0  0  0  0  0  0  0  0  0  0
    4.5230   14.9660    1.1840 N   0  0  0  0  0  0  0  0  0  0  0  0
    4.2210   15.0180    2.4980 C   0  0  0  0  0  0  0  0  0  0  0  0
    4.3520   16.0200    0.2550 C   0  0  0  0  0  0  0  0  0  0  0  0
    3.3860   17.0100    0.4670 C   0  0  0  0  0  0  0  0  0  0  0  0
    3.2450   18.0460   -0.4400 C   0  0  0  0  0  0  0  0  0  0  0  0
    4.0530   18.1100   -1.5670 C   0  0  0  0  0  0  0  0  0  0  0  0
    5.0100   17.1320   -1.7910 C   0  0  0  0  0  0  0  0  0  0  0  0
    5.1620   16.0940   -0.8800 C   0  0  0  0  0  0  0  0  0  0  0  0
    5.4351   11.9647    2.1260 H   0  0  0  0  0  0  0  0  0  0  0  0
    3.7977   15.8724    3.0241 H   0  0  0  0  0  0  0  0  0  0  0  0
    2.7478   16.9655    1.3421 H   0  0  0  0  0  0  0  0  0  0  0  0
    2.4982   18.8129   -0.2691 H   0  0  0  0  0  0  0  0  0  0  0  0
    3.9357   18.9249   -2.2722 H   0  0  0  0  0  0  0  0  0  0  0  0
    5.6374   17.1771   -2.6738 H   0  0  0  0  0  0  0  0  0  0  0  0
    5.9163   15.3347   -1.0519 H   0  0  0  0  0  0  0  0  0  0  0  0
  1  2  1  0  0  0  0
  2  3  2  0  0  0  0
  2  4  1  0  0  0  0
  4  5  1  0  0  0  0
  4  8  2  0  0  0  0
  5  6  2  0  0  0  0
  5 15  1  0  0  0  0
  6  7  1  0  0  0  0
  7  8  1  0  0  0  0
  7  9  1  0  0  0  0
  8 16  1  0  0  0  0
  9 10  2  0  0  0  0
  9 14  1  0  0  0  0
 10 11  1  0  0  0  0
 10 17  1  0  0  0  0
 11 12  2  0  0  0  0
 11 18  1  0  0  0  0
 12 13  1  0  0  0  0
 12 19  1  0  0  0  0
 13 14  2  0  0  0  0
 13 20  1  0  0  0  0
 14 21  1  0  0  0  0
M  CHG  1   1  -1
M  END
