2vd0_ligand
 OpenBabel08222323343D

 40 41  0  0  0  0  0  0  0  0999 V2000
  127.6440   17.1120   -4.1000 C   0  0  0  0  0  0  0  0  0  0  0  0
  128.4440   15.9430   -4.1890 C   0  0  0  0  0  0  0  0  0  0  0  0
  126.7620   17.3720   -2.9450 C   0  0  0  0  0  0  0  0  0  0  0  0
  128.5030   15.0220   -3.1240 N   0  0  0  0  0  0  0  0  0  0  0  0
  129.1950   13.8360   -3.1030 C   0  0  0  0  0  0  0  0  0  0  0  0
  129.2280   13.0100   -1.8970 C   0  0  0  0  0  0  0  0  0  0  0  0
  128.3330   12.8030    2.8950 C   0  0  0  0  0  0  0  0  0  0  0  0
  128.5960   13.4150   -0.7750 C   0  0  0  0  0  0  0  0  0  0  0  0
  128.5360   11.4150    3.0060 C   0  0  0  0  0  0  0  0  0  0  0  0
  128.3710   13.4130    1.6550 C   0  0  0  0  0  0  0  0  0  0  0  0
  126.6760   16.5770   -2.0340 O   0  5  0  0  0  0  0  0  0  0  0  0
  129.8130   13.4120   -4.0640 O   0  0  0  0  0  0  0  0  0  0  0  0
  128.5980   12.6640    0.4930 C   0  0  0  0  0  0  0  0  0  0  0  0
  128.7790   10.6580    1.8410 C   0  0  0  0  0  0  0  0  0  0  0  0
  126.0130   18.4920   -2.9050 O   0  0  0  0  0  0  0  0  0  0  0  0
  128.8080   11.2670    0.5900 C   0  0  0  0  0  0  0  0  0  0  0  0
  128.1150   13.5690    4.0050 O   0  0  0  0  0  0  0  0  0  0  0  0
  127.6500   18.0400   -5.1450 C   0  0  0  0  0  0  0  0  0  0  0  0
  128.5230   10.8450    4.2600 O   0  0  0  0  0  0  0  0  0  0  0  0
  129.2380   15.7860   -5.3330 C   0  0  0  0  0  0  0  0  0  0  0  0
  126.7770   14.0940    3.9840 C   0  0  0  0  0  0  0  0  0  0  0  0
  127.5950    9.7480    4.3480 C   0  0  0  0  0  0  0  0  0  0  0  0
  128.4370   17.8440   -6.2680 C   0  0  0  0  0  0  0  0  0  0  0  0
  129.2330   16.7130   -6.3680 C   0  0  0  0  0  0  0  0  0  0  0  0
  127.9883   15.2560   -2.2992 H   0  0  0  0  0  0  0  0  0  0  0  0
  129.7654   12.0628   -1.9039 H   0  0  0  0  0  0  0  0  0  0  0  0
  128.0499   14.3566   -0.8090 H   0  0  0  0  0  0  0  0  0  0  0  0
  128.2233   14.4843    1.5808 H   0  0  0  0  0  0  0  0  0  0  0  0
  128.9450    9.5898    1.9210 H   0  0  0  0  0  0  0  0  0  0  0  0
  128.9896   10.6777   -0.3015 H   0  0  0  0  0  0  0  0  0  0  0  0
  127.0296   18.9262   -5.0757 H   0  0  0  0  0  0  0  0  0  0  0  0
  129.8764   14.9136   -5.4130 H   0  0  0  0  0  0  0  0  0  0  0  0
  126.6103   14.7090    4.8807 H   0  0  0  0  0  0  0  0  0  0  0  0
  126.0570   13.2625    3.9707 H   0  0  0  0  0  0  0  0  0  0  0  0
  126.6398   14.7123    3.0847 H   0  0  0  0  0  0  0  0  0  0  0  0
  127.6203    9.3270    5.3639 H   0  0  0  0  0  0  0  0  0  0  0  0
  127.8760    8.9708    3.6220 H   0  0  0  0  0  0  0  0  0  0  0  0
  126.5797   10.1079    4.1254 H   0  0  0  0  0  0  0  0  0  0  0  0
  128.4306   18.5748   -7.0686 H   0  0  0  0  0  0  0  0  0  0  0  0
  129.8468   16.5532   -7.2471 H   0  0  0  0  0  0  0  0  0  0  0  0
  1  3  1  0  0  0  0
  1 18  1  0  0  0  0
  2  1  2  0  0  0  0
  2 20  1  0  0  0  0
  3 11  1  0  0  0  0
  3 15  2  0  0  0  0
  4  2  1  0  0  0  0
  4 25  1  0  0  0  0
  5  4  1  0  0  0  0
  5 12  2  0  0  0  0
  6  5  1  0  0  0  0
  6 26  1  0  0  0  0
  7  9  2  0  0  0  0
  7 17  1  0  0  0  0
  8  6  2  0  0  0  0
  8 27  1  0  0  0  0
  9 14  1  0  0  0  0
  9 19  1  0  0  0  0
 10  7  1  0  0  0  0
 10 13  2  0  0  0  0
 10 28  1  0  0  0  0
 13  8  1  0  0  0  0
 13 16  1  0  0  0  0
 14 16  2  0  0  0  0
 14 29  1  0  0  0  0
 16 30  1  0  0  0  0
 17 21  1  0  0  0  0
 18 23  2  0  0  0  0
 18 31  1  0  0  0  0
 19 22  1  0  0  0  0
 20 24  2  0  0  0  0
 20 32  1  0  0  0  0
 21 33  1  0  0  0  0
 21 34  1  0  0  0  0
 21 35  1  0  0  0  0
 22 36  1  0  0  0  0
 22 37  1  0  0  0  0
 22 38  1  0  0  0  0
 23 24  1  0  0  0  0
 23 39  1  0  0  0  0
 24 40  1  0  0  0  0
M  CHG  1  11  -1
M  END
