2vey_ligand
 OpenBabel08222323343D

 70 74  0  0  1  0  0  0  0  0999 V2000
   19.2350   16.5500   81.9160 C   0  0  2  0  0  0  0  0  0  0  0  0
   20.5300   17.1030   81.3930 C   0  0  0  0  0  0  0  0  0  0  0  0
   21.6510   16.3950   82.0470 C   0  0  0  0  0  0  0  0  0  0  0  0
   21.3110   15.2340   82.6110 N   0  0  0  0  0  0  0  0  0  0  0  0
   19.5700   14.8270   82.2380 S   0  0  0  0  0  0  0  0  0  0  0  0
   18.7340   14.2620   83.5700 O   0  0  0  0  0  0  0  0  0  0  0  0
   19.3330   14.0460   80.7340 O   0  0  0  0  0  0  0  0  0  0  0  0
   22.8030   16.8010   82.0830 O   0  0  0  0  0  0  0  0  0  0  0  0
   18.0080   16.7670   81.0460 C   0  0  0  0  0  0  0  0  0  0  0  0
   18.1310   16.7450   79.5810 C   0  0  0  0  0  0  0  0  0  0  0  0
   16.9410   16.9860   78.7500 C   0  0  0  0  0  0  0  0  0  0  0  0
   15.6470   17.2350   79.3970 C   0  0  0  0  0  0  0  0  0  0  0  0
   15.5240   17.2560   80.8560 C   0  0  0  0  0  0  0  0  0  0  0  0
   16.7050   17.0240   81.6790 C   0  0  0  0  0  0  0  0  0  0  0  0
   14.4030   17.4610   78.5760 C   0  0  0  0  0  0  0  0  0  0  0  0
   13.8710   18.8860   78.7280 C   0  0  2  0  0  0  0  0  0  0  0  0
   12.5530   18.9410   78.1120 N   0  0  0  0  0  0  0  0  0  0  0  0
   11.5960   20.3590   78.3320 S   0  0  0  0  0  0  0  0  0  0  0  0
   10.0510   19.6560   77.9470 O   0  0  0  0  0  0  0  0  0  0  0  0
   11.8490   20.8170   79.9400 O   0  0  0  0  0  0  0  0  0  0  0  0
   15.8710   20.8140   76.2950 C   0  0  0  0  0  0  0  0  0  0  0  0
   16.3340   21.4530   77.5030 C   0  0  0  0  0  0  0  0  0  0  0  0
   14.9170   19.8300   76.6230 N   0  0  0  0  0  0  0  0  0  0  0  0
   14.7940   19.8620   78.0270 C   0  0  0  0  0  0  0  0  0  0  0  0
   15.6420   20.8420   78.5750 N   0  0  0  0  0  0  0  0  0  0  0  0
   13.3160   23.4660   76.1530 C   0  0  0  0  0  0  0  0  0  0  0  0
   12.6720   23.2980   74.8440 C   0  0  0  0  0  0  0  0  0  0  0  0
   12.9670   22.5530   77.2500 C   0  0  0  0  0  0  0  0  0  0  0  0
   11.9900   21.4890   77.0280 C   0  0  0  0  0  0  0  0  0  0  0  0
   11.3460   21.3230   75.7290 C   0  0  0  0  0  0  0  0  0  0  0  0
   11.6930   22.2290   74.6390 C   0  0  0  0  0  0  0  0  0  0  0  0
   16.3100   21.1220   74.8780 C   0  0  0  0  0  0  0  0  0  0  0  0
   16.6210   15.2970   73.2150 C   0  0  0  0  0  0  0  0  0  0  0  0
   17.6250   15.2020   72.1460 C   0  0  0  0  0  0  0  0  0  0  0  0
   18.5730   16.3030   71.8950 C   0  0  0  0  0  0  0  0  0  0  0  0
   18.5110   17.5100   72.7200 C   0  0  0  0  0  0  0  0  0  0  0  0
   17.5020   17.6050   73.7860 C   0  0  0  0  0  0  0  0  0  0  0  0
   16.5590   16.5040   74.0410 C   0  0  0  0  0  0  0  0  0  0  0  0
   11.0750   22.0470   73.3370 F   0  0  0  0  0  0  0  0  0  0  0  0
   16.4210   19.8630   74.0140 C   0  0  0  0  0  0  0  0  0  0  0  0
   17.4120   18.8570   74.6060 C   0  0  0  0  0  0  0  0  0  0  0  0
   19.0219   17.0467   82.8741 H   0  0  0  0  0  0  0  0  0  0  0  0
   20.5904   18.1780   81.6183 H   0  0  0  0  0  0  0  0  0  0  0  0
   20.5831   16.9528   80.3046 H   0  0  0  0  0  0  0  0  0  0  0  0
   21.9238   14.6664   83.1609 H   0  0  0  0  0  0  0  0  0  0  0  0
   19.0914   16.5526   79.1166 H   0  0  0  0  0  0  0  0  0  0  0  0
   17.0191   16.9797   77.6688 H   0  0  0  0  0  0  0  0  0  0  0  0
   14.5625   17.4426   81.3205 H   0  0  0  0  0  0  0  0  0  0  0  0
   16.6228   17.0409   82.7598 H   0  0  0  0  0  0  0  0  0  0  0  0
   13.6266   16.7546   78.9049 H   0  0  0  0  0  0  0  0  0  0  0  0
   14.6382   17.2803   77.5168 H   0  0  0  0  0  0  0  0  0  0  0  0
   13.7994   19.1468   79.7942 H   0  0  0  0  0  0  0  0  0  0  0  0
   12.2096   18.1723   77.5724 H   0  0  0  0  0  0  0  0  0  0  0  0
   17.0723   22.2503   77.5754 H   0  0  0  0  0  0  0  0  0  0  0  0
   14.4126   19.2133   75.9702 H   0  0  0  0  0  0  0  0  0  0  0  0
   14.0419   24.2560   76.3084 H   0  0  0  0  0  0  0  0  0  0  0  0
   12.9219   23.9666   74.0282 H   0  0  0  0  0  0  0  0  0  0  0  0
   13.4331   22.6683   78.2218 H   0  0  0  0  0  0  0  0  0  0  0  0
   10.6176   20.5350   75.5754 H   0  0  0  0  0  0  0  0  0  0  0  0
   17.2929   21.6147   74.9120 H   0  0  0  0  0  0  0  0  0  0  0  0
   15.5752   21.8007   74.4203 H   0  0  0  0  0  0  0  0  0  0  0  0
   15.9314   14.4793   73.3906 H   0  0  0  0  0  0  0  0  0  0  0  0
   17.6692   14.3091   71.5329 H   0  0  0  0  0  0  0  0  0  0  0  0
   19.3106   16.2190   71.1051 H   0  0  0  0  0  0  0  0  0  0  0  0
   19.2024   18.3267   72.5471 H   0  0  0  0  0  0  0  0  0  0  0  0
   15.8246   16.5863   74.8340 H   0  0  0  0  0  0  0  0  0  0  0  0
   16.7617   20.1495   73.0081 H   0  0  0  0  0  0  0  0  0  0  0  0
   15.4306   19.3894   73.9447 H   0  0  0  0  0  0  0  0  0  0  0  0
   18.4070   19.3238   74.6511 H   0  0  0  0  0  0  0  0  0  0  0  0
   17.0846   18.5927   75.6223 H   0  0  0  0  0  0  0  0  0  0  0  0
  1  2  1  0  0  0  0
  1  5  1  0  0  0  0
  1 42  1  1  0  0  0
  2  3  1  0  0  0  0
  2 43  1  0  0  0  0
  2 44  1  0  0  0  0
  3  8  2  0  0  0  0
  4  3  1  0  0  0  0
  4 45  1  0  0  0  0
  5  4  1  0  0  0  0
  5  6  2  0  0  0  0
  5  7  2  0  0  0  0
  9  1  1  0  0  0  0
 10  9  2  0  0  0  0
 10 46  1  0  0  0  0
 11 10  1  0  0  0  0
 11 47  1  0  0  0  0
 12 11  2  0  0  0  0
 12 13  1  0  0  0  0
 13 14  2  0  0  0  0
 13 48  1  0  0  0  0
 14  9  1  0  0  0  0
 14 49  1  0  0  0  0
 15 12  1  0  0  0  0
 15 50  1  0  0  0  0
 15 51  1  0  0  0  0
 16 15  1  0  0  0  0
 16 17  1  0  0  0  0
 16 52  1  1  0  0  0
 17 18  1  0  0  0  0
 17 53  1  0  0  0  0
 18 19  2  0  0  0  0
 18 20  2  0  0  0  0
 18 29  1  0  0  0  0
 21 22  2  0  0  0  0
 21 23  1  0  0  0  0
 22 25  1  0  0  0  0
 22 54  1  0  0  0  0
 23 24  1  0  0  0  0
 23 55  1  0  0  0  0
 24 16  1  0  0  0  0
 24 25  2  0  0  0  0
 26 27  2  0  0  0  0
 26 56  1  0  0  0  0
 27 57  1  0  0  0  0
 28 26  1  0  0  0  0
 28 58  1  0  0  0  0
 29 28  2  0  0  0  0
 29 30  1  0  0  0  0
 30 31  2  0  0  0  0
 30 59  1  0  0  0  0
 31 27  1  0  0  0  0
 31 39  1  0  0  0  0
 32 21  1  0  0  0  0
 32 60  1  0  0  0  0
 32 61  1  0  0  0  0
 33 34  2  0  0  0  0
 33 62  1  0  0  0  0
 34 63  1  0  0  0  0
 35 34  1  0  0  0  0
 35 64  1  0  0  0  0
 36 35  2  0  0  0  0
 36 65  1  0  0  0  0
 37 36  1  0  0  0  0
 37 38  2  0  0  0  0
 38 33  1  0  0  0  0
 38 66  1  0  0  0  0
 40 32  1  0  0  0  0
 40 41  1  0  0  0  0
 40 67  1  0  0  0  0
 40 68  1  0  0  0  0
 41 37  1  0  0  0  0
 41 69  1  0  0  0  0
 41 70  1  0  0  0  0
M  END
