2vf6_ligand
 OpenBabel08222323343D

 28 29  0  0  0  0  0  0  0  0999 V2000
   14.1400  -34.4490   26.7590 O   0  0  0  0  0  0  0  0  0  0  0  0
   15.3880  -34.3620   26.0790 C   0  0  0  0  0  0  0  0  0  0  0  0
   15.3680  -33.1610   25.1570 C   0  0  0  0  0  0  0  0  0  0  0  0
   15.0040  -31.8640   25.8060 C   0  0  0  0  0  0  0  0  0  0  0  0
   14.2950  -31.6150   26.9740 C   0  0  0  0  0  0  0  0  0  0  0  0
   14.2430  -30.2240   27.1530 N   0  0  0  0  0  0  0  0  0  0  0  0
   14.9230  -29.6320   26.0900 C   0  0  0  0  0  0  0  0  0  0  0  0
   15.1700  -28.2900   25.7820 C   0  0  0  0  0  0  0  0  0  0  0  0
   15.8920  -27.9960   24.6150 C   0  0  0  0  0  0  0  0  0  0  0  0
   16.3640  -29.0380   23.8050 C   0  0  0  0  0  0  0  0  0  0  0  0
   16.0970  -30.3780   24.1250 C   0  0  0  0  0  0  0  0  0  0  0  0
   15.3670  -30.6340   25.2590 N   0  0  0  0  0  0  0  0  0  0  0  0
   16.7490  -34.2120   27.2860 P   0  0  0  0  0  0  0  0  0  0  0  0
   18.0550  -34.0480   26.5420 O   0  0  0  0  0  1  0  0  0  0  0  0
   16.5450  -33.0180   28.1820 O   0  0  0  0  0  1  0  0  0  0  0  0
   16.7950  -35.4650   28.1430 O   0  0  0  0  0  0  0  0  0  0  0  0
   15.6400  -35.8640   25.0890 P   0  0  0  0  0  0  0  0  0  0  0  0
   17.0070  -35.8070   24.4160 O   0  0  0  0  0  1  0  0  0  0  0  0
   14.6660  -35.8620   23.9620 O   0  0  0  0  0  1  0  0  0  0  0  0
   15.5920  -37.0550   26.0220 O   0  0  0  0  0  0  0  0  0  0  0  0
   14.1416  -35.2120   27.3250 H   0  0  0  0  0  0  0  0  0  0  0  0
   14.6381  -33.3579   24.3580 H   0  0  0  0  0  0  0  0  0  0  0  0
   16.3710  -33.0521   24.7187 H   0  0  0  0  0  0  0  0  0  0  0  0
   13.8580  -32.3643   27.6325 H   0  0  0  0  0  0  0  0  0  0  0  0
   14.8109  -27.4932   26.4317 H   0  0  0  0  0  0  0  0  0  0  0  0
   16.0851  -26.9603   24.3393 H   0  0  0  0  0  0  0  0  0  0  0  0
   16.9461  -28.8044   22.9148 H   0  0  0  0  0  0  0  0  0  0  0  0
   16.4574  -31.1889   23.4938 H   0  0  0  0  0  0  0  0  0  0  0  0
  1  2  1  0  0  0  0
  1 21  1  0  0  0  0
  2  3  1  0  0  0  0
  2 13  1  0  0  0  0
  2 17  1  0  0  0  0
  3  4  1  0  0  0  0
  3 22  1  0  0  0  0
  3 23  1  0  0  0  0
  4  5  2  0  0  0  0
  4 12  1  0  0  0  0
  5  6  1  0  0  0  0
  5 24  1  0  0  0  0
  6  7  2  0  0  0  0
  7  8  1  0  0  0  0
  7 12  1  0  0  0  0
  8  9  2  0  0  0  0
  8 25  1  0  0  0  0
  9 10  1  0  0  0  0
  9 26  1  0  0  0  0
 10 11  2  0  0  0  0
 10 27  1  0  0  0  0
 11 12  1  0  0  0  0
 11 28  1  0  0  0  0
 13 14  1  0  0  0  0
 13 15  1  0  0  0  0
 13 16  2  0  0  0  0
 17 18  1  0  0  0  0
 17 19  1  0  0  0  0
 17 20  2  0  0  0  0
M  END
