2vin_ligand
 OpenBabel08222323343D

 31 31  0  0  1  0  0  0  0  0999 V2000
   31.5240    3.8010   28.2230 C   0  0  0  0  0  0  0  0  0  0  0  0
   32.6170    4.7730   27.8010 C   0  0  1  0  0  0  0  0  0  0  0  0
   33.0070    4.3980   26.4000 N   0  3  0  0  0  0  0  0  0  0  0  0
   32.1320    6.2200   27.8620 C   0  0  0  0  0  0  0  0  0  0  0  0
   30.9340    6.3530   27.0450 O   0  0  0  0  0  0  0  0  0  0  0  0
   30.0970    7.4110   27.3030 C   0  0  0  0  0  0  0  0  0  0  0  0
   28.9130    7.1980   28.0380 C   0  0  0  0  0  0  0  0  0  0  0  0
   28.5620    5.8270   28.5530 C   0  0  0  0  0  0  0  0  0  0  0  0
   28.0790    8.2770   28.2890 C   0  0  0  0  0  0  0  0  0  0  0  0
   28.3930    9.5360   27.8170 C   0  0  0  0  0  0  0  0  0  0  0  0
   29.5500    9.7460   27.0920 C   0  0  0  0  0  0  0  0  0  0  0  0
   30.4180    8.6960   26.8250 C   0  0  0  0  0  0  0  0  0  0  0  0
   31.6810    8.9340   26.0370 C   0  0  0  0  0  0  0  0  0  0  0  0
   31.2017    4.0345   29.2485 H   0  0  0  0  0  0  0  0  0  0  0  0
   31.9133    2.7729   28.1862 H   0  0  0  0  0  0  0  0  0  0  0  0
   30.6672    3.8933   27.5394 H   0  0  0  0  0  0  0  0  0  0  0  0
   33.4845    4.6635   28.4685 H   0  0  0  0  0  0  0  0  0  0  0  0
   33.7327    5.0180   26.0759 H   0  0  0  0  0  0  0  0  0  0  0  0
   32.2041    4.4756   25.7955 H   0  0  0  0  0  0  0  0  0  0  0  0
   33.3460    3.4488   26.3882 H   0  0  0  0  0  0  0  0  0  0  0  0
   32.9165    6.8885   27.4778 H   0  0  0  0  0  0  0  0  0  0  0  0
   31.8998    6.4876   28.9034 H   0  0  0  0  0  0  0  0  0  0  0  0
   27.6068    5.8730   29.0965 H   0  0  0  0  0  0  0  0  0  0  0  0
   29.3535    5.4765   29.2317 H   0  0  0  0  0  0  0  0  0  0  0  0
   28.4693    5.1301   27.7070 H   0  0  0  0  0  0  0  0  0  0  0  0
   27.1706    8.1305   28.8620 H   0  0  0  0  0  0  0  0  0  0  0  0
   27.7259   10.3667   28.0170 H   0  0  0  0  0  0  0  0  0  0  0  0
   29.7824   10.7403   26.7281 H   0  0  0  0  0  0  0  0  0  0  0  0
   32.2311    7.9873   25.9314 H   0  0  0  0  0  0  0  0  0  0  0  0
   32.3097    9.6665   26.5644 H   0  0  0  0  0  0  0  0  0  0  0  0
   31.4238    9.3217   25.0403 H   0  0  0  0  0  0  0  0  0  0  0  0
  1  2  1  0  0  0  0
  1 14  1  0  0  0  0
  1 15  1  0  0  0  0
  1 16  1  0  0  0  0
  2  3  1  0  0  0  0
  2  4  1  0  0  0  0
  2 17  1  1  0  0  0
  3 18  1  0  0  0  0
  3 19  1  0  0  0  0
  3 20  1  0  0  0  0
  4  5  1  0  0  0  0
  4 21  1  0  0  0  0
  4 22  1  0  0  0  0
  5  6  1  0  0  0  0
  6  7  2  0  0  0  0
  6 12  1  0  0  0  0
  7  8  1  0  0  0  0
  7  9  1  0  0  0  0
  8 23  1  0  0  0  0
  8 24  1  0  0  0  0
  8 25  1  0  0  0  0
  9 10  2  0  0  0  0
  9 26  1  0  0  0  0
 10 11  1  0  0  0  0
 10 27  1  0  0  0  0
 11 12  2  0  0  0  0
 11 28  1  0  0  0  0
 12 13  1  0  0  0  0
 13 29  1  0  0  0  0
 13 30  1  0  0  0  0
 13 31  1  0  0  0  0
M  CHG  1   3   1
M  END
