2vio_ligand
 OpenBabel08222323343D

 24 24  0  0  0  0  0  0  0  0999 V2000
   32.9440    4.6260   26.4540 N   0  3  0  0  0  0  0  0  0  0  0  0
   32.2610    4.7900   27.7650 C   0  0  0  0  0  0  0  0  0  0  0  0
   31.7220    6.1920   27.9750 C   0  0  0  0  0  0  0  0  0  0  0  0
   30.5740    6.3930   27.1050 O   0  0  0  0  0  0  0  0  0  0  0  0
   29.6610    7.3400   27.4920 C   0  0  0  0  0  0  0  0  0  0  0  0
   29.6120    8.6200   26.9170 C   0  0  0  0  0  0  0  0  0  0  0  0
   30.6850    9.0490   25.6210 Cl  0  0  0  0  0  0  0  0  0  0  0  0
   28.6780    9.5430   27.3700 C   0  0  0  0  0  0  0  0  0  0  0  0
   27.8040    9.2200   28.4030 C   0  0  0  0  0  0  0  0  0  0  0  0
   27.8720    7.9570   28.9810 C   0  0  0  0  0  0  0  0  0  0  0  0
   28.7870    7.0180   28.5270 C   0  0  0  0  0  0  0  0  0  0  0  0
   28.8440    5.4450   29.2570 Cl  0  0  0  0  0  0  0  0  0  0  0  0
   26.8180   10.2330   28.9010 C   0  0  0  0  0  0  0  0  0  0  0  0
   26.3070   10.1600   30.0020 O   0  5  0  0  0  0  0  0  0  0  0  0
   26.5880   11.2220   28.0750 O   0  0  0  0  0  0  0  0  0  0  0  0
   33.2813    3.6801   26.3669 H   0  0  0  0  0  0  0  0  0  0  0  0
   33.7205    5.2662   26.3972 H   0  0  0  0  0  0  0  0  0  0  0  0
   32.2931    4.8204   25.7093 H   0  0  0  0  0  0  0  0  0  0  0  0
   32.9803    4.5662   28.5666 H   0  0  0  0  0  0  0  0  0  0  0  0
   31.4226    4.0798   27.8159 H   0  0  0  0  0  0  0  0  0  0  0  0
   32.5027    6.9276   27.7313 H   0  0  0  0  0  0  0  0  0  0  0  0
   31.4158    6.3161   29.0242 H   0  0  0  0  0  0  0  0  0  0  0  0
   28.6297   10.5252   26.9139 H   0  0  0  0  0  0  0  0  0  0  0  0
   27.2028    7.7033   29.7952 H   0  0  0  0  0  0  0  0  0  0  0  0
  1  2  1  0  0  0  0
  1 16  1  0  0  0  0
  1 17  1  0  0  0  0
  1 18  1  0  0  0  0
  2  3  1  0  0  0  0
  2 19  1  0  0  0  0
  2 20  1  0  0  0  0
  3  4  1  0  0  0  0
  3 21  1  0  0  0  0
  3 22  1  0  0  0  0
  4  5  1  0  0  0  0
  5  6  2  0  0  0  0
  5 11  1  0  0  0  0
  6  7  1  0  0  0  0
  6  8  1  0  0  0  0
  8  9  2  0  0  0  0
  8 23  1  0  0  0  0
  9 10  1  0  0  0  0
  9 13  1  0  0  0  0
 10 11  2  0  0  0  0
 10 24  1  0  0  0  0
 11 12  1  0  0  0  0
 13 14  1  0  0  0  0
 13 15  2  0  0  0  0
M  CHG  2   1   1  14  -1
M  END
