2viq_ligand
 OpenBabel08222323343D

 56 57  0  0  0  0  0  0  0  0999 V2000
   28.2120   13.5920   32.1640 C   0  0  0  0  0  0  0  0  0  0  0  0
   29.4890   13.2290   32.8760 C   0  0  0  0  0  0  0  0  0  0  0  0
   21.6030   11.6100   29.5870 C   0  0  0  0  0  0  0  0  0  0  0  0
   20.0960   11.6150   29.6850 C   0  0  0  0  0  0  0  0  0  0  0  0
   25.2580   13.4490   32.1480 C   0  0  0  0  0  0  0  0  0  0  0  0
   23.9380   13.5030   31.7460 C   0  0  0  0  0  0  0  0  0  0  0  0
   23.4550   12.6240   30.7840 C   0  0  0  0  0  0  0  0  0  0  0  0
   24.3260   11.6990   30.2170 C   0  0  0  0  0  0  0  0  0  0  0  0
   25.6550   11.6270   30.6150 C   0  0  0  0  0  0  0  0  0  0  0  0
   26.5450   10.6840   30.0530 N   0  0  0  0  0  0  0  0  0  0  0  0
   26.9450   10.6390   28.7700 C   0  0  0  0  0  0  0  0  0  0  0  0
   26.5510   11.4340   27.9530 O   0  0  0  0  0  0  0  0  0  0  0  0
   27.8950    9.5370   28.3950 C   0  0  0  0  0  0  0  0  0  0  0  0
   29.0130    9.7940   27.6080 C   0  0  0  0  0  0  0  0  0  0  0  0
   29.8980    8.7830   27.2490 C   0  0  0  0  0  0  0  0  0  0  0  0
   31.1010    9.0880   26.3950 C   0  0  0  0  0  0  0  0  0  0  0  0
   29.6430    7.4730   27.6970 C   0  0  0  0  0  0  0  0  0  0  0  0
   30.4700    6.4250   27.3710 O   0  0  0  0  0  0  0  0  0  0  0  0
   31.6520    6.2260   28.1760 C   0  0  0  0  0  0  0  0  0  0  0  0
   32.1140    4.7920   27.9960 C   0  0  0  0  0  0  0  0  0  0  0  0
   32.8370    4.5820   26.7140 N   0  3  0  0  0  0  0  0  0  0  0  0
   28.5140    7.2000   28.4890 C   0  0  0  0  0  0  0  0  0  0  0  0
   28.2420    5.7980   28.9690 C   0  0  0  0  0  0  0  0  0  0  0  0
   22.1350   12.6920   30.4070 O   0  0  0  0  0  0  0  0  0  0  0  0
   27.6590    8.2390   28.8250 C   0  0  0  0  0  0  0  0  0  0  0  0
   27.4570   12.3870   31.9140 O   0  0  0  0  0  0  0  0  0  0  0  0
   26.1280   12.5140   31.5980 C   0  0  0  0  0  0  0  0  0  0  0  0
   28.4487   14.0841   31.2091 H   0  0  0  0  0  0  0  0  0  0  0  0
   27.6205   14.2747   32.7917 H   0  0  0  0  0  0  0  0  0  0  0  0
   30.0720   14.1412   33.0712 H   0  0  0  0  0  0  0  0  0  0  0  0
   30.0779   12.5452   32.2471 H   0  0  0  0  0  0  0  0  0  0  0  0
   29.2497   12.7357   33.8296 H   0  0  0  0  0  0  0  0  0  0  0  0
   21.9051   11.7581   28.5397 H   0  0  0  0  0  0  0  0  0  0  0  0
   21.9930   10.6471   29.9486 H   0  0  0  0  0  0  0  0  0  0  0  0
   19.6858   10.8012   29.0689 H   0  0  0  0  0  0  0  0  0  0  0  0
   19.7083   12.5791   29.3243 H   0  0  0  0  0  0  0  0  0  0  0  0
   19.7962   11.4682   30.7331 H   0  0  0  0  0  0  0  0  0  0  0  0
   25.6193   14.1419   32.8993 H   0  0  0  0  0  0  0  0  0  0  0  0
   23.2725   14.2377   32.1848 H   0  0  0  0  0  0  0  0  0  0  0  0
   23.9615   11.0232   29.4519 H   0  0  0  0  0  0  0  0  0  0  0  0
   26.9116    9.9848   30.6669 H   0  0  0  0  0  0  0  0  0  0  0  0
   29.1987   10.8059   27.2666 H   0  0  0  0  0  0  0  0  0  0  0  0
   31.1172   10.1612   26.1543 H   0  0  0  0  0  0  0  0  0  0  0  0
   31.0474    8.5043   25.4642 H   0  0  0  0  0  0  0  0  0  0  0  0
   32.0168    8.8213   26.9429 H   0  0  0  0  0  0  0  0  0  0  0  0
   31.4168    6.4110   29.2345 H   0  0  0  0  0  0  0  0  0  0  0  0
   32.4445    6.9159   27.8504 H   0  0  0  0  0  0  0  0  0  0  0  0
   31.2336    4.1328   28.0162 H   0  0  0  0  0  0  0  0  0  0  0  0
   32.7864    4.5314   28.8266 H   0  0  0  0  0  0  0  0  0  0  0  0
   33.1216    3.6176   26.6429 H   0  0  0  0  0  0  0  0  0  0  0  0
   33.6512    5.1755   26.6863 H   0  0  0  0  0  0  0  0  0  0  0  0
   32.2283    4.8103   25.9436 H   0  0  0  0  0  0  0  0  0  0  0  0
   27.3204    5.7884   29.5694 H   0  0  0  0  0  0  0  0  0  0  0  0
   29.0847    5.4514   29.5853 H   0  0  0  0  0  0  0  0  0  0  0  0
   28.1223    5.1306   28.1028 H   0  0  0  0  0  0  0  0  0  0  0  0
   26.7880    8.0327   29.4364 H   0  0  0  0  0  0  0  0  0  0  0  0
  1  2  1  0  0  0  0
  1 28  1  0  0  0  0
  1 29  1  0  0  0  0
  2 30  1  0  0  0  0
  2 31  1  0  0  0  0
  2 32  1  0  0  0  0
  3  4  1  0  0  0  0
  3 33  1  0  0  0  0
  3 34  1  0  0  0  0
  4 35  1  0  0  0  0
  4 36  1  0  0  0  0
  4 37  1  0  0  0  0
  5  6  2  0  0  0  0
  5 38  1  0  0  0  0
  6  7  1  0  0  0  0
  6 39  1  0  0  0  0
  7 24  1  0  0  0  0
  8  7  2  0  0  0  0
  8 40  1  0  0  0  0
  9  8  1  0  0  0  0
  9 10  1  0  0  0  0
 10 11  1  0  0  0  0
 10 41  1  0  0  0  0
 11 12  2  0  0  0  0
 11 13  1  0  0  0  0
 13 14  2  0  0  0  0
 13 25  1  0  0  0  0
 14 15  1  0  0  0  0
 14 42  1  0  0  0  0
 15 16  1  0  0  0  0
 15 17  2  0  0  0  0
 16 43  1  0  0  0  0
 16 44  1  0  0  0  0
 16 45  1  0  0  0  0
 17 18  1  0  0  0  0
 18 19  1  0  0  0  0
 19 20  1  0  0  0  0
 19 46  1  0  0  0  0
 19 47  1  0  0  0  0
 20 21  1  0  0  0  0
 20 48  1  0  0  0  0
 20 49  1  0  0  0  0
 21 50  1  0  0  0  0
 21 51  1  0  0  0  0
 21 52  1  0  0  0  0
 22 17  1  0  0  0  0
 22 23  1  0  0  0  0
 23 53  1  0  0  0  0
 23 54  1  0  0  0  0
 23 55  1  0  0  0  0
 24  3  1  0  0  0  0
 25 22  2  0  0  0  0
 25 56  1  0  0  0  0
 26  1  1  0  0  0  0
 26 27  1  0  0  0  0
 27  5  1  0  0  0  0
 27  9  2  0  0  0  0
M  CHG  1  21   1
M  END
