2viy_ligand
 OpenBabel08222323343D

 86 88  0  0  1  0  0  0  0  0999 V2000
   30.5470    1.2450   34.3590 C   0  0  0  0  0  0  0  0  0  0  0  0
   29.3600    1.4560   33.7170 N   0  0  0  0  0  0  0  0  0  0  0  0
   29.2020    2.3450   32.5500 C   0  0  2  0  0  0  0  0  0  0  0  0
   28.3370    3.5240   33.0190 C   0  0  2  0  0  0  0  0  0  0  0  0
   28.5600    1.5640   31.3760 C   0  0  0  0  0  0  0  0  0  0  0  0
   31.5040    2.0170   34.2240 O   0  0  0  0  0  0  0  0  0  0  0  0
   30.5720    0.0470   35.2150 C   0  0  0  0  0  0  0  0  0  0  0  0
   30.1530   -1.2290   34.7310 C   0  0  0  0  0  0  0  0  0  0  0  0
   30.1760   -2.3610   35.5830 C   0  0  0  0  0  0  0  0  0  0  0  0
   30.6110   -2.2340   36.9210 C   0  0  0  0  0  0  0  0  0  0  0  0
   31.0290   -0.9730   37.4100 C   0  0  0  0  0  0  0  0  0  0  0  0
   31.0110    0.1680   36.5650 C   0  0  0  0  0  0  0  0  0  0  0  0
   29.2090    0.2240   31.1020 C   0  0  0  0  0  0  0  0  0  0  0  0
   28.4280   -0.9650   31.0890 C   0  0  0  0  0  0  0  0  0  0  0  0
   29.0350   -2.2200   30.8350 C   0  0  0  0  0  0  0  0  0  0  0  0
   30.4270   -2.2960   30.5930 C   0  0  0  0  0  0  0  0  0  0  0  0
   31.2140   -1.1170   30.6050 C   0  0  0  0  0  0  0  0  0  0  0  0
   30.6090    0.1360   30.8570 C   0  0  0  0  0  0  0  0  0  0  0  0
   28.0980    4.4500   31.9870 O   0  0  0  0  0  0  0  0  0  0  0  0
   28.9560    6.7450   34.8900 C   0  0  1  0  0  0  0  0  0  0  0  0
   28.9930    4.2820   34.1860 C   0  0  0  0  0  0  0  0  0  0  0  0
   28.2730    5.5240   34.4250 N   0  3  0  0  0  0  0  0  0  0  0  0
   31.5550   -0.8330   39.1000 S   0  0  0  0  0  0  0  0  0  0  0  0
   29.5260    6.5250   36.3070 C   0  0  0  0  0  0  0  0  0  0  0  0
   30.0910    7.1540   33.9040 C   0  0  0  0  0  0  0  0  0  0  0  0
   29.6350    7.9310   32.9040 N   0  0  0  0  0  0  0  0  0  0  0  0
   30.4790    8.4020   31.8030 C   0  0  0  0  0  0  0  0  0  0  0  0
   31.2560    6.7770   34.0420 O   0  0  0  0  0  0  0  0  0  0  0  0
   30.8950    9.8650   32.0780 C   0  0  0  0  0  0  0  0  0  0  0  0
   31.7800   10.4030   30.8840 C   0  0  0  0  0  0  0  0  0  0  0  0
   31.0860   10.2440   29.5070 C   0  0  0  0  0  0  0  0  0  0  0  0
   30.5680    8.7980   29.2790 C   0  0  0  0  0  0  0  0  0  0  0  0
   29.7070    8.2950   30.4680 C   0  0  0  0  0  0  0  0  0  0  0  0
   32.9950   -1.8910   39.1700 C   0  0  0  0  0  0  0  0  0  0  0  0
   33.5530   -1.8840   40.6000 C   0  0  0  0  0  0  0  0  0  0  0  0
   34.7870   -2.7790   40.7760 C   0  0  0  0  0  0  0  0  0  0  0  0
   35.3160   -2.7550   42.2180 C   0  0  0  0  0  0  0  0  0  0  0  0
   36.5490   -3.6500   42.4020 C   0  0  0  0  0  0  0  0  0  0  0  0
   30.5300   -1.4170   39.9240 O   0  0  0  0  0  0  0  0  0  0  0  0
   31.9300    0.5250   39.3430 O   0  0  0  0  0  0  0  0  0  0  0  0
   28.5497    0.9796   34.0582 H   0  0  0  0  0  0  0  0  0  0  0  0
   30.1850    2.7193   32.2280 H   0  0  0  0  0  0  0  0  0  0  0  0
   27.3720    3.1199   33.3588 H   0  0  0  0  0  0  0  0  0  0  0  0
   28.6383    2.1788   30.4672 H   0  0  0  0  0  0  0  0  0  0  0  0
   27.4995    1.3930   31.6128 H   0  0  0  0  0  0  0  0  0  0  0  0
   29.8154   -1.3325   33.7061 H   0  0  0  0  0  0  0  0  0  0  0  0
   29.8589   -3.3270   35.2071 H   0  0  0  0  0  0  0  0  0  0  0  0
   30.6247   -3.1006   37.5721 H   0  0  0  0  0  0  0  0  0  0  0  0
   31.3311    1.1307   36.9469 H   0  0  0  0  0  0  0  0  0  0  0  0
   27.3614   -0.9106   31.2746 H   0  0  0  0  0  0  0  0  0  0  0  0
   28.4331   -3.1215   30.8261 H   0  0  0  0  0  0  0  0  0  0  0  0
   30.8917   -3.2558   30.3984 H   0  0  0  0  0  0  0  0  0  0  0  0
   32.2806   -1.1760   30.4208 H   0  0  0  0  0  0  0  0  0  0  0  0
   31.2146    1.0350   30.8637 H   0  0  0  0  0  0  0  0  0  0  0  0
   27.6457    4.0167   31.2727 H   0  0  0  0  0  0  0  0  0  0  0  0
   28.2206    7.5620   34.9313 H   0  0  0  0  0  0  0  0  0  0  0  0
   30.0397    4.5079   33.9341 H   0  0  0  0  0  0  0  0  0  0  0  0
   28.9601    3.6592   35.0921 H   0  0  0  0  0  0  0  0  0  0  0  0
   27.8275    5.7643   33.5533 H   0  0  0  0  0  0  0  0  0  0  0  0
   27.5692    5.3139   35.1153 H   0  0  0  0  0  0  0  0  0  0  0  0
   30.0331    7.4409   36.6445 H   0  0  0  0  0  0  0  0  0  0  0  0
   30.2457    5.6933   36.2877 H   0  0  0  0  0  0  0  0  0  0  0  0
   28.7056    6.2840   36.9989 H   0  0  0  0  0  0  0  0  0  0  0  0
   28.6720    8.2002   32.9130 H   0  0  0  0  0  0  0  0  0  0  0  0
   31.3817    7.7762   31.7443 H   0  0  0  0  0  0  0  0  0  0  0  0
   31.4748    9.9106   33.0117 H   0  0  0  0  0  0  0  0  0  0  0  0
   29.9942   10.4888   32.1749 H   0  0  0  0  0  0  0  0  0  0  0  0
   32.7269    9.8434   30.8676 H   0  0  0  0  0  0  0  0  0  0  0  0
   31.9875   11.4700   31.0525 H   0  0  0  0  0  0  0  0  0  0  0  0
   31.8081   10.4913   28.7149 H   0  0  0  0  0  0  0  0  0  0  0  0
   30.2342   10.9382   29.4565 H   0  0  0  0  0  0  0  0  0  0  0  0
   31.4308    8.1268   29.1564 H   0  0  0  0  0  0  0  0  0  0  0  0
   29.9564    8.7798   28.3649 H   0  0  0  0  0  0  0  0  0  0  0  0
   28.7934    8.9042   30.5322 H   0  0  0  0  0  0  0  0  0  0  0  0
   29.4351    7.2434   30.2942 H   0  0  0  0  0  0  0  0  0  0  0  0
   33.7606   -1.5179   38.4739 H   0  0  0  0  0  0  0  0  0  0  0  0
   32.7129   -2.9165   38.8896 H   0  0  0  0  0  0  0  0  0  0  0  0
   32.7662   -2.2364   41.2832 H   0  0  0  0  0  0  0  0  0  0  0  0
   33.8304   -0.8521   40.8612 H   0  0  0  0  0  0  0  0  0  0  0  0
   35.5806   -2.4261   40.1010 H   0  0  0  0  0  0  0  0  0  0  0  0
   34.5160   -3.8125   40.5146 H   0  0  0  0  0  0  0  0  0  0  0  0
   34.5208   -3.1057   42.8922 H   0  0  0  0  0  0  0  0  0  0  0  0
   35.5876   -1.7212   42.4778 H   0  0  0  0  0  0  0  0  0  0  0  0
   36.8873   -3.5977   43.4474 H   0  0  0  0  0  0  0  0  0  0  0  0
   37.3552   -3.3046   41.7381 H   0  0  0  0  0  0  0  0  0  0  0  0
   36.2884   -4.6891   42.1525 H   0  0  0  0  0  0  0  0  0  0  0  0
  1  6  2  0  0  0  0
  1  7  1  0  0  0  0
  2  1  1  0  0  0  0
  2 41  1  0  0  0  0
  3  2  1  0  0  0  0
  3  5  1  0  0  0  0
  3 42  1  6  0  0  0
  4  3  1  0  0  0  0
  4 19  1  0  0  0  0
  4 43  1  1  0  0  0
  5 13  1  0  0  0  0
  5 44  1  0  0  0  0
  5 45  1  0  0  0  0
  7  8  2  0  0  0  0
  7 12  1  0  0  0  0
  8  9  1  0  0  0  0
  8 46  1  0  0  0  0
  9 10  2  0  0  0  0
  9 47  1  0  0  0  0
 10 48  1  0  0  0  0
 11 10  1  0  0  0  0
 11 23  1  0  0  0  0
 12 11  2  0  0  0  0
 12 49  1  0  0  0  0
 13 14  2  0  0  0  0
 13 18  1  0  0  0  0
 14 15  1  0  0  0  0
 14 50  1  0  0  0  0
 15 16  2  0  0  0  0
 15 51  1  0  0  0  0
 16 52  1  0  0  0  0
 17 16  1  0  0  0  0
 17 53  1  0  0  0  0
 18 17  2  0  0  0  0
 18 54  1  0  0  0  0
 19 55  1  0  0  0  0
 20 24  1  0  0  0  0
 20 25  1  0  0  0  0
 20 56  1  1  0  0  0
 21  4  1  0  0  0  0
 21 22  1  0  0  0  0
 21 57  1  0  0  0  0
 21 58  1  0  0  0  0
 22 20  1  0  0  0  0
 22 59  1  0  0  0  0
 22 60  1  0  0  0  0
 23 34  1  0  0  0  0
 23 39  2  0  0  0  0
 23 40  2  0  0  0  0
 24 61  1  0  0  0  0
 24 62  1  0  0  0  0
 24 63  1  0  0  0  0
 25 26  1  0  0  0  0
 25 28  2  0  0  0  0
 26 27  1  0  0  0  0
 26 64  1  0  0  0  0
 27 29  1  0  0  0  0
 27 33  1  0  0  0  0
 27 65  1  0  0  0  0
 29 30  1  0  0  0  0
 29 66  1  0  0  0  0
 29 67  1  0  0  0  0
 30 31  1  0  0  0  0
 30 68  1  0  0  0  0
 30 69  1  0  0  0  0
 31 32  1  0  0  0  0
 31 70  1  0  0  0  0
 31 71  1  0  0  0  0
 32 33  1  0  0  0  0
 32 72  1  0  0  0  0
 32 73  1  0  0  0  0
 33 74  1  0  0  0  0
 33 75  1  0  0  0  0
 34 35  1  0  0  0  0
 34 76  1  0  0  0  0
 34 77  1  0  0  0  0
 35 36  1  0  0  0  0
 35 78  1  0  0  0  0
 35 79  1  0  0  0  0
 36 37  1  0  0  0  0
 36 80  1  0  0  0  0
 36 81  1  0  0  0  0
 37 38  1  0  0  0  0
 37 82  1  0  0  0  0
 37 83  1  0  0  0  0
 38 84  1  0  0  0  0
 38 85  1  0  0  0  0
 38 86  1  0  0  0  0
M  CHG  1  22   1
M  END
