2vj7_ligand
 OpenBabel08222323343D

 77 80  0  0  1  0  0  0  0  0999 V2000
   29.8760   -2.1360   35.5170 C   0  0  0  0  0  0  0  0  0  0  0  0
   29.8320   -0.9890   34.6750 C   0  0  0  0  0  0  0  0  0  0  0  0
   30.3820    0.2510   35.1050 C   0  0  0  0  0  0  0  0  0  0  0  0
   30.9830    0.3370   36.3820 C   0  0  0  0  0  0  0  0  0  0  0  0
   31.0370   -0.7980   37.2360 C   0  0  0  0  0  0  0  0  0  0  0  0
   30.4780   -2.0280   36.7810 C   0  0  0  0  0  0  0  0  0  0  0  0
   30.3540    1.4370   34.2410 C   0  0  0  0  0  0  0  0  0  0  0  0
   29.2570    1.5530   33.4700 N   0  0  0  0  0  0  0  0  0  0  0  0
   31.2730    2.2560   34.1810 O   0  0  0  0  0  0  0  0  0  0  0  0
   29.0870    2.6410   32.5160 C   0  0  1  0  0  0  0  0  0  0  0  0
   28.9080    2.1210   31.0630 C   0  0  0  0  0  0  0  0  0  0  0  0
   28.0860    3.7260   32.9980 C   0  0  2  0  0  0  0  0  0  0  0  0
   27.6930    4.5680   31.9430 O   0  0  0  0  0  0  0  0  0  0  0  0
   29.0980    0.6270   30.8720 C   0  0  0  0  0  0  0  0  0  0  0  0
   28.7480    4.6250   34.0360 C   0  0  0  0  0  0  0  0  0  0  0  0
   27.8840    5.7190   34.4990 N   0  3  0  0  0  0  0  0  0  0  0  0
   28.0220   -0.3000   30.8230 C   0  0  0  0  0  0  0  0  0  0  0  0
   28.2880   -1.6780   30.6280 C   0  0  0  0  0  0  0  0  0  0  0  0
   29.6190   -2.1400   30.4790 C   0  0  0  0  0  0  0  0  0  0  0  0
   30.6920   -1.2270   30.5270 C   0  0  0  0  0  0  0  0  0  0  0  0
   30.4300    0.1430   30.7200 C   0  0  0  0  0  0  0  0  0  0  0  0
   29.3610   -3.3620   35.1550 N   0  0  0  0  0  0  0  0  0  0  0  0
   28.8020   -3.6900   33.8400 C   0  0  0  0  0  0  0  0  0  0  0  0
   27.2780   -3.5580   33.8770 C   0  0  0  0  0  0  0  0  0  0  0  0
   31.6340   -0.6980   38.4780 N   0  0  0  0  0  0  0  0  0  0  0  0
   31.0740   -1.0890   39.6640 C   0  0  0  0  0  0  0  0  0  0  0  0
   32.0530   -0.8140   40.8040 C   0  0  0  0  0  0  0  0  0  0  0  0
   33.3720   -0.5650   40.0750 C   0  0  0  0  0  0  0  0  0  0  0  0
   32.9760   -0.1430   38.6670 C   0  0  0  0  0  0  0  0  0  0  0  0
   29.9670   -1.5870   39.8270 O   0  0  0  0  0  0  0  0  0  0  0  0
   28.6360    6.8770   35.0540 C   0  0  0  0  0  0  0  0  0  0  0  0
   29.7010    7.4600   34.1320 C   0  0  0  0  0  0  0  0  0  0  0  0
   31.0620    7.4600   34.5370 C   0  0  0  0  0  0  0  0  0  0  0  0
   32.0670    7.9920   33.6960 C   0  0  0  0  0  0  0  0  0  0  0  0
   31.7270    8.5330   32.4350 C   0  0  0  0  0  0  0  0  0  0  0  0
   30.3600    8.5560   31.9820 C   0  0  0  0  0  0  0  0  0  0  0  0
   29.3610    8.0040   32.8690 C   0  0  0  0  0  0  0  0  0  0  0  0
   29.9620    9.1520   30.5850 C   0  0  0  0  0  0  0  0  0  0  0  0
   28.9280    9.9810   30.7320 F   0  0  0  0  0  0  0  0  0  0  0  0
   29.6230    8.1470   29.7990 F   0  0  0  0  0  0  0  0  0  0  0  0
   30.9690    9.8210   30.0190 F   0  0  0  0  0  0  0  0  0  0  0  0
   29.3743   -1.0610   33.6950 H   0  0  0  0  0  0  0  0  0  0  0  0
   31.4069    1.2781   36.7131 H   0  0  0  0  0  0  0  0  0  0  0  0
   30.5186   -2.8990   37.4250 H   0  0  0  0  0  0  0  0  0  0  0  0
   28.5331    0.8683   33.5549 H   0  0  0  0  0  0  0  0  0  0  0  0
   30.0568    3.1599   32.5009 H   0  0  0  0  0  0  0  0  0  0  0  0
   29.6397    2.6392   30.4257 H   0  0  0  0  0  0  0  0  0  0  0  0
   27.8897    2.3771   30.7351 H   0  0  0  0  0  0  0  0  0  0  0  0
   27.2031    3.2336   33.4317 H   0  0  0  0  0  0  0  0  0  0  0  0
   27.2737    4.0504   31.2656 H   0  0  0  0  0  0  0  0  0  0  0  0
   29.6545    5.0615   33.5914 H   0  0  0  0  0  0  0  0  0  0  0  0
   29.0254    4.0091   34.9041 H   0  0  0  0  0  0  0  0  0  0  0  0
   27.2740    5.3613   35.2173 H   0  0  0  0  0  0  0  0  0  0  0  0
   27.3323    6.0413   33.7194 H   0  0  0  0  0  0  0  0  0  0  0  0
   27.0008    0.0461   30.9345 H   0  0  0  0  0  0  0  0  0  0  0  0
   27.4665   -2.3844   30.5925 H   0  0  0  0  0  0  0  0  0  0  0  0
   29.8123   -3.1959   30.3280 H   0  0  0  0  0  0  0  0  0  0  0  0
   31.7119   -1.5772   30.4161 H   0  0  0  0  0  0  0  0  0  0  0  0
   31.2571    0.8429   30.7536 H   0  0  0  0  0  0  0  0  0  0  0  0
   29.3695   -4.1078   35.8654 H   0  0  0  0  0  0  0  0  0  0  0  0
   29.0727   -4.7228   33.5754 H   0  0  0  0  0  0  0  0  0  0  0  0
   29.2101   -2.9996   33.0872 H   0  0  0  0  0  0  0  0  0  0  0  0
   26.8645   -3.8052   32.8881 H   0  0  0  0  0  0  0  0  0  0  0  0
   27.0057   -2.5254   34.1406 H   0  0  0  0  0  0  0  0  0  0  0  0
   26.8683   -4.2486   34.6288 H   0  0  0  0  0  0  0  0  0  0  0  0
   32.1308   -1.6816   41.4758 H   0  0  0  0  0  0  0  0  0  0  0  0
   31.7480    0.0710   41.3817 H   0  0  0  0  0  0  0  0  0  0  0  0
   33.9766   -1.4835   40.0467 H   0  0  0  0  0  0  0  0  0  0  0  0
   33.9422    0.2342   40.5712 H   0  0  0  0  0  0  0  0  0  0  0  0
   32.9583    0.9535   38.5809 H   0  0  0  0  0  0  0  0  0  0  0  0
   33.6755   -0.5577   37.9263 H   0  0  0  0  0  0  0  0  0  0  0  0
   29.1301    6.5496   35.9807 H   0  0  0  0  0  0  0  0  0  0  0  0
   27.9131    7.6732   35.2854 H   0  0  0  0  0  0  0  0  0  0  0  0
   31.3338    7.0475   35.5019 H   0  0  0  0  0  0  0  0  0  0  0  0
   33.1016    7.9849   34.0195 H   0  0  0  0  0  0  0  0  0  0  0  0
   32.5069    8.9366   31.7994 H   0  0  0  0  0  0  0  0  0  0  0  0
   28.3223    8.0064   32.5589 H   0  0  0  0  0  0  0  0  0  0  0  0
  1  2  2  0  0  0  0
  1  6  1  0  0  0  0
  1 22  1  0  0  0  0
  2  3  1  0  0  0  0
  2 42  1  0  0  0  0
  3  4  2  0  0  0  0
  3  7  1  0  0  0  0
  4  5  1  0  0  0  0
  4 43  1  0  0  0  0
  5  6  2  0  0  0  0
  5 25  1  0  0  0  0
  6 44  1  0  0  0  0
  7  8  1  0  0  0  0
  7  9  2  0  0  0  0
  8 10  1  0  0  0  0
  8 45  1  0  0  0  0
 10 11  1  0  0  0  0
 10 12  1  0  0  0  0
 10 46  1  6  0  0  0
 11 14  1  0  0  0  0
 11 47  1  0  0  0  0
 11 48  1  0  0  0  0
 12 13  1  0  0  0  0
 12 15  1  0  0  0  0
 12 49  1  1  0  0  0
 13 50  1  0  0  0  0
 14 17  2  0  0  0  0
 14 21  1  0  0  0  0
 15 16  1  0  0  0  0
 15 51  1  0  0  0  0
 15 52  1  0  0  0  0
 16 31  1  0  0  0  0
 16 53  1  0  0  0  0
 16 54  1  0  0  0  0
 17 18  1  0  0  0  0
 17 55  1  0  0  0  0
 18 19  2  0  0  0  0
 18 56  1  0  0  0  0
 19 20  1  0  0  0  0
 19 57  1  0  0  0  0
 20 21  2  0  0  0  0
 20 58  1  0  0  0  0
 21 59  1  0  0  0  0
 22 23  1  0  0  0  0
 22 60  1  0  0  0  0
 23 24  1  0  0  0  0
 23 61  1  0  0  0  0
 23 62  1  0  0  0  0
 24 63  1  0  0  0  0
 24 64  1  0  0  0  0
 24 65  1  0  0  0  0
 25 26  1  0  0  0  0
 25 29  1  0  0  0  0
 26 27  1  0  0  0  0
 26 30  2  0  0  0  0
 27 28  1  0  0  0  0
 27 66  1  0  0  0  0
 27 67  1  0  0  0  0
 28 29  1  0  0  0  0
 28 68  1  0  0  0  0
 28 69  1  0  0  0  0
 29 70  1  0  0  0  0
 29 71  1  0  0  0  0
 31 32  1  0  0  0  0
 31 72  1  0  0  0  0
 31 73  1  0  0  0  0
 32 33  2  0  0  0  0
 32 37  1  0  0  0  0
 33 34  1  0  0  0  0
 33 74  1  0  0  0  0
 34 35  2  0  0  0  0
 34 75  1  0  0  0  0
 35 36  1  0  0  0  0
 35 76  1  0  0  0  0
 36 37  2  0  0  0  0
 36 38  1  0  0  0  0
 37 77  1  0  0  0  0
 38 39  1  0  0  0  0
 38 40  1  0  0  0  0
 38 41  1  0  0  0  0
M  CHG  1  16   1
M  END
