2vj9_ligand
 OpenBabel08222323343D

 77 80  0  0  1  0  0  0  0  0999 V2000
   30.4160   -2.0680   35.6070 C   0  0  0  0  0  0  0  0  0  0  0  0
   30.3500   -0.9060   34.7600 C   0  0  0  0  0  0  0  0  0  0  0  0
   30.9270    0.3560   35.1590 C   0  0  0  0  0  0  0  0  0  0  0  0
   31.5850    0.4630   36.4240 C   0  0  0  0  0  0  0  0  0  0  0  0
   31.6690   -0.6870   37.2960 C   0  0  0  0  0  0  0  0  0  0  0  0
   31.0750   -1.9470   36.8630 C   0  0  0  0  0  0  0  0  0  0  0  0
   30.8390    1.4850   34.2560 C   0  0  0  0  0  0  0  0  0  0  0  0
   29.6270    1.6330   33.6520 N   0  0  0  0  0  0  0  0  0  0  0  0
   31.7920    2.2360   34.0140 O   0  0  0  0  0  0  0  0  0  0  0  0
   29.3300    2.6770   32.6430 C   0  0  1  0  0  0  0  0  0  0  0  0
   28.5830    1.9580   31.4630 C   0  0  0  0  0  0  0  0  0  0  0  0
   28.5240    3.8590   33.2420 C   0  0  2  0  0  0  0  0  0  0  0  0
   28.2410    4.8090   32.2340 O   0  0  0  0  0  0  0  0  0  0  0  0
   29.2160    0.6140   31.0950 C   0  0  0  0  0  0  0  0  0  0  0  0
   29.3280    4.6090   34.2810 C   0  0  0  0  0  0  0  0  0  0  0  0
   28.4020   -0.5810   31.0510 C   0  0  0  0  0  0  0  0  0  0  0  0
   28.9820   -1.8580   30.7130 C   0  0  0  0  0  0  0  0  0  0  0  0
   30.3840   -1.9580   30.4180 C   0  0  0  0  0  0  0  0  0  0  0  0
   31.2030   -0.7790   30.4580 C   0  0  0  0  0  0  0  0  0  0  0  0
   30.6270    0.4960   30.7930 C   0  0  0  0  0  0  0  0  0  0  0  0
   29.8780   -3.3040   35.2640 N   0  0  0  0  0  0  0  0  0  0  0  0
   29.3400   -3.6850   33.9500 C   0  0  0  0  0  0  0  0  0  0  0  0
   27.8110   -3.5610   33.9370 C   0  0  0  0  0  0  0  0  0  0  0  0
   32.3160   -0.5860   38.5220 N   0  0  0  0  0  0  0  0  0  0  0  0
   31.8190   -1.0230   39.7150 C   0  0  0  0  0  0  0  0  0  0  0  0
   32.8260   -0.7430   40.8260 C   0  0  0  0  0  0  0  0  0  0  0  0
   34.0990   -0.3550   40.0630 C   0  0  0  0  0  0  0  0  0  0  0  0
   33.6510    0.0210   38.6630 C   0  0  0  0  0  0  0  0  0  0  0  0
   30.7390   -1.5660   39.9160 O   0  0  0  0  0  0  0  0  0  0  0  0
   28.6010    5.7460   34.8660 N   0  3  0  0  0  0  0  0  0  0  0  0
   29.5290    6.7230   35.4960 C   0  0  0  0  0  0  0  0  0  0  0  0
   30.0620    6.1540   36.8580 C   0  0  0  0  0  0  0  0  0  0  0  0
   31.0550    7.1740   37.5690 C   0  0  0  0  0  0  0  0  0  0  0  0
   31.2610    8.5010   36.7230 C   0  0  0  0  0  0  0  0  0  0  0  0
   29.8260    9.1080   36.4330 C   0  0  0  0  0  0  0  0  0  0  0  0
   28.8330    8.0940   35.7380 C   0  0  0  0  0  0  0  0  0  0  0  0
   29.8547   -0.9802   33.7986 H   0  0  0  0  0  0  0  0  0  0  0  0
   32.0212    1.4072   36.7294 H   0  0  0  0  0  0  0  0  0  0  0  0
   31.1369   -2.8120   37.5133 H   0  0  0  0  0  0  0  0  0  0  0  0
   28.8949    1.0002   33.9042 H   0  0  0  0  0  0  0  0  0  0  0  0
   30.2791    3.0826   32.2627 H   0  0  0  0  0  0  0  0  0  0  0  0
   28.6086    2.6127   30.5794 H   0  0  0  0  0  0  0  0  0  0  0  0
   27.5384    1.7851   31.7612 H   0  0  0  0  0  0  0  0  0  0  0  0
   27.5926    3.4767   33.6850 H   0  0  0  0  0  0  0  0  0  0  0  0
   27.7302    4.3973   31.5468 H   0  0  0  0  0  0  0  0  0  0  0  0
   30.2456    4.9874   33.8069 H   0  0  0  0  0  0  0  0  0  0  0  0
   29.5935    3.9109   35.0886 H   0  0  0  0  0  0  0  0  0  0  0  0
   27.3433   -0.5162   31.2747 H   0  0  0  0  0  0  0  0  0  0  0  0
   28.3582   -2.7440   30.6816 H   0  0  0  0  0  0  0  0  0  0  0  0
   30.8213   -2.9175   30.1667 H   0  0  0  0  0  0  0  0  0  0  0  0
   32.2613   -0.8502   30.2345 H   0  0  0  0  0  0  0  0  0  0  0  0
   31.2564    1.3781   30.8196 H   0  0  0  0  0  0  0  0  0  0  0  0
   29.8543   -4.0219   36.0022 H   0  0  0  0  0  0  0  0  0  0  0  0
   29.6202   -4.7262   33.7325 H   0  0  0  0  0  0  0  0  0  0  0  0
   29.7631   -3.0229   33.1802 H   0  0  0  0  0  0  0  0  0  0  0  0
   27.4281   -3.8499   32.9471 H   0  0  0  0  0  0  0  0  0  0  0  0
   27.5257   -2.5205   34.1511 H   0  0  0  0  0  0  0  0  0  0  0  0
   27.3828   -4.2237   34.7034 H   0  0  0  0  0  0  0  0  0  0  0  0
   32.9935   -1.6398   41.4406 H   0  0  0  0  0  0  0  0  0  0  0  0
   32.4847    0.0827   41.4676 H   0  0  0  0  0  0  0  0  0  0  0  0
   34.7960   -1.2052   40.0255 H   0  0  0  0  0  0  0  0  0  0  0  0
   34.5901    0.5006   40.5495 H   0  0  0  0  0  0  0  0  0  0  0  0
   33.5936    1.1141   38.5546 H   0  0  0  0  0  0  0  0  0  0  0  0
   34.3436   -0.3861   37.9117 H   0  0  0  0  0  0  0  0  0  0  0  0
   27.9638    5.4013   35.5668 H   0  0  0  0  0  0  0  0  0  0  0  0
   28.0809    6.2111   34.1385 H   0  0  0  0  0  0  0  0  0  0  0  0
   30.3819    6.8792   34.8191 H   0  0  0  0  0  0  0  0  0  0  0  0
   30.5951    5.2110   36.6670 H   0  0  0  0  0  0  0  0  0  0  0  0
   29.2078    5.9639   37.5245 H   0  0  0  0  0  0  0  0  0  0  0  0
   32.0308    6.6838   37.7017 H   0  0  0  0  0  0  0  0  0  0  0  0
   30.6425    7.4420   38.5529 H   0  0  0  0  0  0  0  0  0  0  0  0
   31.7685    8.2675   35.7755 H   0  0  0  0  0  0  0  0  0  0  0  0
   31.8649    9.2211   37.2947 H   0  0  0  0  0  0  0  0  0  0  0  0
   29.9455    9.9819   35.7757 H   0  0  0  0  0  0  0  0  0  0  0  0
   29.3842    9.4258   37.3889 H   0  0  0  0  0  0  0  0  0  0  0  0
   27.9567    7.9450   36.3860 H   0  0  0  0  0  0  0  0  0  0  0  0
   28.5088    8.5100   34.7727 H   0  0  0  0  0  0  0  0  0  0  0  0
  1  2  2  0  0  0  0
  1  6  1  0  0  0  0
  1 21  1  0  0  0  0
  2  3  1  0  0  0  0
  2 37  1  0  0  0  0
  3  4  2  0  0  0  0
  3  7  1  0  0  0  0
  4  5  1  0  0  0  0
  4 38  1  0  0  0  0
  5  6  2  0  0  0  0
  5 24  1  0  0  0  0
  6 39  1  0  0  0  0
  7  8  1  0  0  0  0
  7  9  2  0  0  0  0
  8 10  1  0  0  0  0
  8 40  1  0  0  0  0
 10 11  1  0  0  0  0
 10 12  1  0  0  0  0
 10 41  1  6  0  0  0
 11 14  1  0  0  0  0
 11 42  1  0  0  0  0
 11 43  1  0  0  0  0
 12 13  1  0  0  0  0
 12 15  1  0  0  0  0
 12 44  1  1  0  0  0
 13 45  1  0  0  0  0
 14 16  2  0  0  0  0
 14 20  1  0  0  0  0
 15 30  1  0  0  0  0
 15 46  1  0  0  0  0
 15 47  1  0  0  0  0
 16 17  1  0  0  0  0
 16 48  1  0  0  0  0
 17 18  2  0  0  0  0
 17 49  1  0  0  0  0
 18 19  1  0  0  0  0
 18 50  1  0  0  0  0
 19 20  2  0  0  0  0
 19 51  1  0  0  0  0
 20 52  1  0  0  0  0
 21 22  1  0  0  0  0
 21 53  1  0  0  0  0
 22 23  1  0  0  0  0
 22 54  1  0  0  0  0
 22 55  1  0  0  0  0
 23 56  1  0  0  0  0
 23 57  1  0  0  0  0
 23 58  1  0  0  0  0
 24 25  1  0  0  0  0
 24 28  1  0  0  0  0
 25 26  1  0  0  0  0
 25 29  2  0  0  0  0
 26 27  1  0  0  0  0
 26 59  1  0  0  0  0
 26 60  1  0  0  0  0
 27 28  1  0  0  0  0
 27 61  1  0  0  0  0
 27 62  1  0  0  0  0
 28 63  1  0  0  0  0
 28 64  1  0  0  0  0
 30 31  1  0  0  0  0
 30 65  1  0  0  0  0
 30 66  1  0  0  0  0
 31 32  1  0  0  0  0
 31 36  1  0  0  0  0
 31 67  1  0  0  0  0
 32 33  1  0  0  0  0
 32 68  1  0  0  0  0
 32 69  1  0  0  0  0
 33 34  1  0  0  0  0
 33 70  1  0  0  0  0
 33 71  1  0  0  0  0
 34 35  1  0  0  0  0
 34 72  1  0  0  0  0
 34 73  1  0  0  0  0
 35 36  1  0  0  0  0
 35 74  1  0  0  0  0
 35 75  1  0  0  0  0
 36 76  1  0  0  0  0
 36 77  1  0  0  0  0
M  CHG  1  30   1
M  END
