2vl8_ligand
 OpenBabel08222323343D

 36 37  0  0  1  0  0  0  0  0999 V2000
   22.7470   26.2870   34.9590 N   0  0  0  0  0  0  0  0  0  0  0  0
   23.2700   26.8780   36.1160 C   0  0  0  0  0  0  0  0  0  0  0  0
   22.7600   28.0670   36.5740 N   0  0  0  0  0  0  0  0  0  0  0  0
   21.7190   28.6750   35.9050 C   0  0  0  0  0  0  0  0  0  0  0  0
   21.1710   28.0920   34.7480 C   0  0  0  0  0  0  0  0  0  0  0  0
   21.7030   26.8890   34.2780 C   0  0  0  0  0  0  0  0  0  0  0  0
   24.1970   26.4010   36.7470 O   0  0  0  0  0  0  0  0  0  0  0  0
   21.2930   29.7370   36.3500 O   0  0  0  0  0  0  0  0  0  0  0  0
   23.2990   25.0120   34.4660 C   0  0  1  0  0  0  0  0  0  0  0  0
   22.8110   23.9050   35.3690 C   0  0  2  0  0  0  0  0  0  0  0  0
   23.9180   23.0490   35.5610 O   0  0  0  0  0  0  0  0  0  0  0  0
   21.7110   23.2590   34.5460 C   0  0  1  0  0  0  0  0  0  0  0  0
   22.2850   23.3890   33.1370 C   0  0  2  0  0  0  0  0  0  0  0  0
   22.8580   24.6800   33.1480 O   0  0  0  0  0  0  0  0  0  0  0  0
   21.4540   21.9440   34.9690 O   0  0  0  0  0  0  0  0  0  0  0  0
   21.2920   23.3100   31.9920 C   0  0  0  0  0  0  0  0  0  0  0  0
   20.4600   24.4340   32.0790 O   0  0  0  0  0  0  0  0  0  0  0  0
   18.9870   24.3070   31.4920 P   0  0  2  0  0  0  0  0  0  0  0  0
   18.0560   25.3480   32.0050 O   0  0  0  0  0  1  0  0  0  0  0  0
   18.3890   22.9630   31.7180 O   0  0  0  0  0  0  0  0  0  0  0  0
   19.3710   24.6540   29.9700 O   0  0  0  0  0  0  0  0  0  0  0  0
   18.5820   24.0350   28.7020 P   0  0  0  0  0  0  0  0  0  0  0  0
   19.4360   24.2350   27.4990 O   0  0  0  0  0  1  0  0  0  0  0  0
   18.3540   22.5710   28.8900 O   0  0  0  0  0  1  0  0  0  0  0  0
   17.2700   24.7130   28.5930 O   0  0  0  0  0  0  0  0  0  0  0  0
   23.1437   28.4927   37.3935 H   0  0  0  0  0  0  0  0  0  0  0  0
   20.3441   28.5716   34.2263 H   0  0  0  0  0  0  0  0  0  0  0  0
   21.2979   26.4264   33.3792 H   0  0  0  0  0  0  0  0  0  0  0  0
   24.3976   25.0654   34.4821 H   0  0  0  0  0  0  0  0  0  0  0  0
   22.4292   24.2749   36.3320 H   0  0  0  0  0  0  0  0  0  0  0  0
   23.6655   22.3286   36.1264 H   0  0  0  0  0  0  0  0  0  0  0  0
   20.7751   23.8314   34.6262 H   0  0  0  0  0  0  0  0  0  0  0  0
   23.0531   22.6169   32.9825 H   0  0  0  0  0  0  0  0  0  0  0  0
   20.8250   21.5410   34.3821 H   0  0  0  0  0  0  0  0  0  0  0  0
   20.6927   22.3915   32.0770 H   0  0  0  0  0  0  0  0  0  0  0  0
   21.8263   23.3116   31.0305 H   0  0  0  0  0  0  0  0  0  0  0  0
  1  2  1  0  0  0  0
  1  6  1  0  0  0  0
  1  9  1  0  0  0  0
  2  3  1  0  0  0  0
  2  7  2  0  0  0  0
  3  4  1  0  0  0  0
  3 26  1  0  0  0  0
  4  5  1  0  0  0  0
  4  8  2  0  0  0  0
  5  6  2  0  0  0  0
  5 27  1  0  0  0  0
  6 28  1  0  0  0  0
  9 10  1  0  0  0  0
  9 14  1  0  0  0  0
  9 29  1  1  0  0  0
 10 11  1  0  0  0  0
 10 12  1  0  0  0  0
 10 30  1  1  0  0  0
 11 31  1  0  0  0  0
 12 13  1  0  0  0  0
 12 15  1  0  0  0  0
 12 32  1  1  0  0  0
 13 14  1  0  0  0  0
 13 16  1  0  0  0  0
 13 33  1  6  0  0  0
 15 34  1  0  0  0  0
 16 17  1  0  0  0  0
 16 35  1  0  0  0  0
 16 36  1  0  0  0  0
 17 18  1  0  0  0  0
 18 19  1  1  0  0  0
 18 20  2  0  0  0  0
 18 21  1  0  0  0  0
 21 22  1  0  0  0  0
 22 23  1  0  0  0  0
 22 24  1  0  0  0  0
 22 25  2  0  0  0  0
M  END
