2vle_ligand
 OpenBabel08222323343D

 50 53  0  0  1  0  0  0  0  0999 V2000
   93.4260   20.3050   65.3170 O   0  0  0  0  0  0  0  0  0  0  0  0
   94.2760   21.2430   65.9380 C   0  0  0  0  0  0  0  0  0  0  0  0
   95.5790   20.5310   66.3760 C   0  0  1  0  0  0  0  0  0  0  0  0
   95.4230   19.1190   66.4750 O   0  0  0  0  0  0  0  0  0  0  0  0
   96.7400   20.9650   65.4690 C   0  0  1  0  0  0  0  0  0  0  0  0
   96.9520   22.4030   65.6240 O   0  0  0  0  0  0  0  0  0  0  0  0
   97.9970   20.0700   65.7100 C   0  0  2  0  0  0  0  0  0  0  0  0
   98.8340   20.0430   64.5610 O   0  0  0  0  0  0  0  0  0  0  0  0
   97.7320   18.5890   66.0930 C   0  0  1  0  0  0  0  0  0  0  0  0
   98.9060   18.0640   66.7410 O   0  0  0  0  0  0  0  0  0  0  0  0
   96.5190   18.4550   67.0590 C   0  0  2  0  0  0  0  0  0  0  0  0
   96.2380   17.0600   67.3200 O   0  0  0  0  0  0  0  0  0  0  0  0
   95.1490   16.5430   68.0420 C   0  0  0  0  0  0  0  0  0  0  0  0
   94.9790   15.1600   67.9770 C   0  0  0  0  0  0  0  0  0  0  0  0
   93.9520   14.5130   68.6460 C   0  0  0  0  0  0  0  0  0  0  0  0
   93.0540   15.2520   69.3980 C   0  0  0  0  0  0  0  0  0  0  0  0
   93.1940   16.7260   69.4760 C   0  0  0  0  0  0  0  0  0  0  0  0
   94.2580   17.3310   68.7840 C   0  0  0  0  0  0  0  0  0  0  0  0
   92.2750   17.4290   70.2340 O   0  0  0  0  0  0  0  0  0  0  0  0
   91.1750   16.7830   70.9360 C   0  0  0  0  0  0  0  0  0  0  0  0
   90.9720   15.3910   70.9000 C   0  0  0  0  0  0  0  0  0  0  0  0
   91.9400   14.5700   70.1100 C   0  0  0  0  0  0  0  0  0  0  0  0
   91.8520   13.3260   70.0140 O   0  0  0  0  0  0  0  0  0  0  0  0
   89.8380   14.7300   71.6290 C   0  0  0  0  0  0  0  0  0  0  0  0
   88.9450   15.4930   72.3690 C   0  0  0  0  0  0  0  0  0  0  0  0
   87.8850   14.9000   73.0450 C   0  0  0  0  0  0  0  0  0  0  0  0
   87.7080   13.5280   73.0080 C   0  0  0  0  0  0  0  0  0  0  0  0
   86.6690   12.9630   73.6840 O   0  0  0  0  0  0  0  0  0  0  0  0
   88.5940   12.7460   72.2740 C   0  0  0  0  0  0  0  0  0  0  0  0
   89.6480   13.3450   71.5940 C   0  0  0  0  0  0  0  0  0  0  0  0
   93.2207   19.6100   65.9313 H   0  0  0  0  0  0  0  0  0  0  0  0
   93.7741   21.6683   66.8196 H   0  0  0  0  0  0  0  0  0  0  0  0
   94.5167   22.0486   65.2288 H   0  0  0  0  0  0  0  0  0  0  0  0
   95.8166   20.8870   67.3893 H   0  0  0  0  0  0  0  0  0  0  0  0
   96.4327   20.7982   64.4261 H   0  0  0  0  0  0  0  0  0  0  0  0
   97.1632   22.5950   66.5301 H   0  0  0  0  0  0  0  0  0  0  0  0
   98.5549   20.5301   66.5389 H   0  0  0  0  0  0  0  0  0  0  0  0
   99.5892   19.4932   64.7336 H   0  0  0  0  0  0  0  0  0  0  0  0
   97.5267   18.0129   65.1787 H   0  0  0  0  0  0  0  0  0  0  0  0
   98.7554   17.1571   66.9803 H   0  0  0  0  0  0  0  0  0  0  0  0
   96.7616   18.9438   68.0141 H   0  0  0  0  0  0  0  0  0  0  0  0
   95.6717   14.5730   67.3848 H   0  0  0  0  0  0  0  0  0  0  0  0
   93.8523   13.4355   68.5811 H   0  0  0  0  0  0  0  0  0  0  0  0
   94.3893   18.4063   68.8242 H   0  0  0  0  0  0  0  0  0  0  0  0
   90.4844   17.3994   71.5096 H   0  0  0  0  0  0  0  0  0  0  0  0
   89.0764   16.5678   72.4205 H   0  0  0  0  0  0  0  0  0  0  0  0
   87.1918   15.5169   73.6054 H   0  0  0  0  0  0  0  0  0  0  0  0
   85.8500   13.3124   73.3531 H   0  0  0  0  0  0  0  0  0  0  0  0
   88.4626   11.6708   72.2324 H   0  0  0  0  0  0  0  0  0  0  0  0
   90.3349   12.7276   71.0265 H   0  0  0  0  0  0  0  0  0  0  0  0
  1  2  1  0  0  0  0
  1 31  1  0  0  0  0
  2  3  1  0  0  0  0
  2 32  1  0  0  0  0
  2 33  1  0  0  0  0
  3  4  1  0  0  0  0
  3  5  1  0  0  0  0
  3 34  1  1  0  0  0
  4 11  1  0  0  0  0
  5  6  1  0  0  0  0
  5  7  1  0  0  0  0
  5 35  1  6  0  0  0
  6 36  1  0  0  0  0
  7  8  1  0  0  0  0
  7  9  1  0  0  0  0
  7 37  1  1  0  0  0
  8 38  1  0  0  0  0
  9 10  1  0  0  0  0
  9 11  1  0  0  0  0
  9 39  1  6  0  0  0
 10 40  1  0  0  0  0
 11 12  1  0  0  0  0
 11 41  1  1  0  0  0
 12 13  1  0  0  0  0
 13 14  2  0  0  0  0
 13 18  1  0  0  0  0
 14 15  1  0  0  0  0
 14 42  1  0  0  0  0
 15 16  2  0  0  0  0
 15 43  1  0  0  0  0
 16 17  1  0  0  0  0
 16 22  1  0  0  0  0
 17 18  2  0  0  0  0
 17 19  1  0  0  0  0
 18 44  1  0  0  0  0
 19 20  1  0  0  0  0
 20 21  2  0  0  0  0
 20 45  1  0  0  0  0
 21 22  1  0  0  0  0
 21 24  1  0  0  0  0
 22 23  2  0  0  0  0
 24 25  2  0  0  0  0
 24 30  1  0  0  0  0
 25 26  1  0  0  0  0
 25 46  1  0  0  0  0
 26 27  2  0  0  0  0
 26 47  1  0  0  0  0
 27 28  1  0  0  0  0
 27 29  1  0  0  0  0
 28 48  1  0  0  0  0
 29 30  2  0  0  0  0
 29 49  1  0  0  0  0
 30 50  1  0  0  0  0
M  END
