2vnn_ligand
 OpenBabel08222323343D

 80 84  0  0  1  0  0  0  0  0999 V2000
   28.0290   -3.7130   34.0220 C   0  0  0  0  0  0  0  0  0  0  0  0
   29.5170   -4.1010   34.0840 C   0  0  0  0  0  0  0  0  0  0  0  0
   30.1880   -3.4720   35.3270 C   0  0  0  0  0  0  0  0  0  0  0  0
   30.7030   -4.1960   36.4760 C   0  0  0  0  0  0  0  0  0  0  0  0
   31.1790   -3.2100   37.3480 N   0  0  0  0  0  0  0  0  0  0  0  0
   31.8340   -3.7520   38.5960 C   0  0  0  0  0  0  0  0  0  0  0  0
   31.8670   -3.0210   39.9480 C   0  0  0  0  0  0  0  0  0  0  0  0
   31.4380   -1.2320   39.7790 S   0  0  0  0  0  0  0  0  0  0  0  0
   31.8700   -0.5150   41.0080 O   0  0  0  0  0  0  0  0  0  0  0  0
   29.9970   -1.2530   39.6780 O   0  0  0  0  0  0  0  0  0  0  0  0
   32.0540   -0.4680   38.5710 N   0  0  0  0  0  0  0  0  0  0  0  0
   33.4640   -0.0320   38.5780 C   0  0  0  0  0  0  0  0  0  0  0  0
   31.4460   -0.5260   37.2340 C   0  0  0  0  0  0  0  0  0  0  0  0
   31.1400    0.6180   36.4380 C   0  0  0  0  0  0  0  0  0  0  0  0
   30.5060    0.4270   35.1950 C   0  0  0  0  0  0  0  0  0  0  0  0
   30.1070   -0.8920   34.6760 C   0  0  0  0  0  0  0  0  0  0  0  0
   30.4090   -2.0590   35.5230 C   0  0  0  0  0  0  0  0  0  0  0  0
   31.0590   -1.8730   36.7730 C   0  0  0  0  0  0  0  0  0  0  0  0
   30.2720    1.6930   34.4300 C   0  0  0  0  0  0  0  0  0  0  0  0
   31.1980    2.4440   34.2440 O   0  0  0  0  0  0  0  0  0  0  0  0
   29.0830    1.7020   33.6420 N   0  0  0  0  0  0  0  0  0  0  0  0
   28.8930    2.6290   32.5370 C   0  0  1  0  0  0  0  0  0  0  0  0
   28.1850    1.7930   31.4290 C   0  0  0  0  0  0  0  0  0  0  0  0
   28.9130    0.4470   31.1660 C   0  0  0  0  0  0  0  0  0  0  0  0
   30.3650    0.3810   31.0300 C   0  0  0  0  0  0  0  0  0  0  0  0
   30.9940   -0.8900   30.7820 C   0  0  0  0  0  0  0  0  0  0  0  0
   30.1570   -2.0920   30.6660 C   0  0  0  0  0  0  0  0  0  0  0  0
   28.7190   -2.0330   30.7990 C   0  0  0  0  0  0  0  0  0  0  0  0
   28.0880   -0.7550   31.0420 C   0  0  0  0  0  0  0  0  0  0  0  0
   27.9810    3.7610   33.0520 C   0  0  2  0  0  0  0  0  0  0  0  0
   27.6430    4.6050   31.9330 O   0  0  0  0  0  0  0  0  0  0  0  0
   28.7370    4.6580   34.0760 C   0  0  0  0  0  0  0  0  0  0  0  0
   27.8310    5.7880   34.4490 N   0  3  0  0  0  0  0  0  0  0  0  0
   28.5550    6.9540   35.0210 C   0  0  0  0  0  0  0  0  0  0  0  0
   29.6340    7.5070   34.0570 C   0  0  0  0  0  0  0  0  0  0  0  0
   31.0420    7.4930   34.4380 C   0  0  0  0  0  0  0  0  0  0  0  0
   32.0430    8.0170   33.5250 C   0  0  0  0  0  0  0  0  0  0  0  0
   31.6450    8.5720   32.2390 C   0  0  0  0  0  0  0  0  0  0  0  0
   30.2480    8.5690   31.8650 C   0  0  0  0  0  0  0  0  0  0  0  0
   29.2390    8.0480   32.7670 C   0  0  0  0  0  0  0  0  0  0  0  0
   29.7930    9.1300   30.5180 C   0  0  0  0  0  0  0  0  0  0  0  0
   28.7770   10.0050   30.6680 F   0  0  0  0  0  0  0  0  0  0  0  0
   29.3420    8.1140   29.7590 F   0  0  0  0  0  0  0  0  0  0  0  0
   30.8140    9.7480   29.8910 F   0  0  0  0  0  0  0  0  0  0  0  0
   27.5681   -4.1683   33.1330 H   0  0  0  0  0  0  0  0  0  0  0  0
   27.9376   -2.6184   33.9624 H   0  0  0  0  0  0  0  0  0  0  0  0
   27.5177   -4.0750   34.9262 H   0  0  0  0  0  0  0  0  0  0  0  0
   30.0237   -3.7396   33.1770 H   0  0  0  0  0  0  0  0  0  0  0  0
   29.6037   -5.1961   34.1408 H   0  0  0  0  0  0  0  0  0  0  0  0
   30.7160   -5.2744   36.6267 H   0  0  0  0  0  0  0  0  0  0  0  0
   32.8866   -3.9243   38.3269 H   0  0  0  0  0  0  0  0  0  0  0  0
   31.3432   -4.7165   38.7929 H   0  0  0  0  0  0  0  0  0  0  0  0
   32.8783   -3.1050   40.3724 H   0  0  0  0  0  0  0  0  0  0  0  0
   31.1438   -3.4969   40.6267 H   0  0  0  0  0  0  0  0  0  0  0  0
   33.6923    0.4858   37.6348 H   0  0  0  0  0  0  0  0  0  0  0  0
   34.1187   -0.9098   38.6822 H   0  0  0  0  0  0  0  0  0  0  0  0
   33.6318    0.6529   39.4222 H   0  0  0  0  0  0  0  0  0  0  0  0
   31.3906    1.6145   36.7832 H   0  0  0  0  0  0  0  0  0  0  0  0
   29.6145   -0.9992   33.7163 H   0  0  0  0  0  0  0  0  0  0  0  0
   28.3561    1.0496   33.8562 H   0  0  0  0  0  0  0  0  0  0  0  0
   29.8482    3.0362   32.1740 H   0  0  0  0  0  0  0  0  0  0  0  0
   28.1703    2.3774   30.4972 H   0  0  0  0  0  0  0  0  0  0  0  0
   27.1530    1.5831   31.7466 H   0  0  0  0  0  0  0  0  0  0  0  0
   30.9639    1.2805   31.1149 H   0  0  0  0  0  0  0  0  0  0  0  0
   32.0712   -0.9593   30.6821 H   0  0  0  0  0  0  0  0  0  0  0  0
   30.6305   -3.0484   30.4756 H   0  0  0  0  0  0  0  0  0  0  0  0
   28.1220   -2.9342   30.7177 H   0  0  0  0  0  0  0  0  0  0  0  0
   27.0098   -0.6877   31.1318 H   0  0  0  0  0  0  0  0  0  0  0  0
   27.0758    3.3369   33.5110 H   0  0  0  0  0  0  0  0  0  0  0  0
   27.1891    4.0908   31.2757 H   0  0  0  0  0  0  0  0  0  0  0  0
   29.6580    5.0512   33.6209 H   0  0  0  0  0  0  0  0  0  0  0  0
   28.9918    4.0714   34.9710 H   0  0  0  0  0  0  0  0  0  0  0  0
   27.1685    5.4556   35.1321 H   0  0  0  0  0  0  0  0  0  0  0  0
   27.3388    6.0902   33.6229 H   0  0  0  0  0  0  0  0  0  0  0  0
   29.0426    6.6432   35.9567 H   0  0  0  0  0  0  0  0  0  0  0  0
   27.8283    7.7520   35.2336 H   0  0  0  0  0  0  0  0  0  0  0  0
   31.3406    7.0926   35.4001 H   0  0  0  0  0  0  0  0  0  0  0  0
   33.0907    7.9948   33.8022 H   0  0  0  0  0  0  0  0  0  0  0  0
   32.3896    8.9840   31.5675 H   0  0  0  0  0  0  0  0  0  0  0  0
   28.1937    8.0620   32.4802 H   0  0  0  0  0  0  0  0  0  0  0  0
  1  2  1  0  0  0  0
  1 45  1  0  0  0  0
  1 46  1  0  0  0  0
  1 47  1  0  0  0  0
  2  3  1  0  0  0  0
  2 48  1  0  0  0  0
  2 49  1  0  0  0  0
  3  4  2  0  0  0  0
  3 17  1  0  0  0  0
  4  5  1  0  0  0  0
  4 50  1  0  0  0  0
  5  6  1  0  0  0  0
  5 18  1  0  0  0  0
  6  7  1  0  0  0  0
  6 51  1  0  0  0  0
  6 52  1  0  0  0  0
  7  8  1  0  0  0  0
  7 53  1  0  0  0  0
  7 54  1  0  0  0  0
  8  9  2  0  0  0  0
  8 10  2  0  0  0  0
  8 11  1  0  0  0  0
 11 12  1  0  0  0  0
 11 13  1  0  0  0  0
 12 55  1  0  0  0  0
 12 56  1  0  0  0  0
 12 57  1  0  0  0  0
 13 14  2  0  0  0  0
 13 18  1  0  0  0  0
 14 15  1  0  0  0  0
 14 58  1  0  0  0  0
 15 16  2  0  0  0  0
 15 19  1  0  0  0  0
 16 17  1  0  0  0  0
 16 59  1  0  0  0  0
 17 18  2  0  0  0  0
 19 20  2  0  0  0  0
 19 21  1  0  0  0  0
 21 22  1  0  0  0  0
 21 60  1  0  0  0  0
 22 23  1  0  0  0  0
 22 30  1  0  0  0  0
 22 61  1  6  0  0  0
 23 24  1  0  0  0  0
 23 62  1  0  0  0  0
 23 63  1  0  0  0  0
 24 25  2  0  0  0  0
 24 29  1  0  0  0  0
 25 26  1  0  0  0  0
 25 64  1  0  0  0  0
 26 27  2  0  0  0  0
 26 65  1  0  0  0  0
 27 28  1  0  0  0  0
 27 66  1  0  0  0  0
 28 29  2  0  0  0  0
 28 67  1  0  0  0  0
 29 68  1  0  0  0  0
 30 31  1  0  0  0  0
 30 32  1  0  0  0  0
 30 69  1  1  0  0  0
 31 70  1  0  0  0  0
 32 33  1  0  0  0  0
 32 71  1  0  0  0  0
 32 72  1  0  0  0  0
 33 34  1  0  0  0  0
 33 73  1  0  0  0  0
 33 74  1  0  0  0  0
 34 35  1  0  0  0  0
 34 75  1  0  0  0  0
 34 76  1  0  0  0  0
 35 36  2  0  0  0  0
 35 40  1  0  0  0  0
 36 37  1  0  0  0  0
 36 77  1  0  0  0  0
 37 38  2  0  0  0  0
 37 78  1  0  0  0  0
 38 39  1  0  0  0  0
 38 79  1  0  0  0  0
 39 40  2  0  0  0  0
 39 41  1  0  0  0  0
 40 80  1  0  0  0  0
 41 42  1  0  0  0  0
 41 43  1  0  0  0  0
 41 44  1  0  0  0  0
M  CHG  1  33   1
M  END
