2vr4_ligand
 OpenBabel08222323343D

 39 39  0  0  1  0  0  0  0  0999 V2000
   29.5950   46.6310   -6.3240 C   0  0  0  0  0  0  0  0  0  0  0  0
   27.4400   45.8710   -0.5910 C   0  0  2  0  0  0  0  0  0  0  0  0
   27.8810   47.1310    0.2300 C   0  0  2  0  0  0  0  0  0  0  0  0
   27.5730   48.4660   -0.5100 C   0  0  1  0  0  0  0  0  0  0  0  0
   26.4470   48.2670   -1.5740 C   0  0  1  0  0  0  0  0  0  0  0  0
   26.0000   49.5260   -2.3360 C   0  0  0  0  0  0  0  0  0  0  0  0
   28.0900   44.6220   -0.3750 O   0  0  0  0  0  0  0  0  0  0  0  0
   29.2770   47.0030    0.4690 O   0  0  0  0  0  0  0  0  0  0  0  0
   27.2360   49.5130    0.4040 O   0  0  0  0  0  0  0  0  0  0  0  0
   26.8710   47.2740   -2.5080 N   0  0  0  0  0  0  0  0  0  0  0  0
   27.0450   49.9150   -3.2470 O   0  0  0  0  0  0  0  0  0  0  0  0
   31.8730   46.8640   -7.3280 N   0  3  0  0  0  0  0  0  0  0  0  0
   30.7030   47.5930   -6.8020 C   0  0  0  0  0  0  0  0  0  0  0  0
   28.3310   45.5570   -4.3910 C   0  0  0  0  0  0  0  0  0  0  0  0
   29.5140   46.4600   -4.8000 C   0  0  0  0  0  0  0  0  0  0  0  0
   28.1720   45.3870   -2.9500 N   0  0  0  0  0  0  0  0  0  0  0  0
   27.5150   46.1980   -2.1250 C   0  0  0  0  0  0  0  0  0  0  0  0
   29.7811   45.6433   -6.7711 H   0  0  0  0  0  0  0  0  0  0  0  0
   28.6280   47.0176   -6.6782 H   0  0  0  0  0  0  0  0  0  0  0  0
   26.3836   45.7065   -0.3323 H   0  0  0  0  0  0  0  0  0  0  0  0
   27.3451   47.1375    1.1906 H   0  0  0  0  0  0  0  0  0  0  0  0
   28.4867   48.7703   -1.0416 H   0  0  0  0  0  0  0  0  0  0  0  0
   25.5637   47.8865   -1.0402 H   0  0  0  0  0  0  0  0  0  0  0  0
   25.8096   50.3414   -1.6226 H   0  0  0  0  0  0  0  0  0  0  0  0
   25.0805   49.3096   -2.8996 H   0  0  0  0  0  0  0  0  0  0  0  0
   27.7092   43.9652   -0.9460 H   0  0  0  0  0  0  0  0  0  0  0  0
   29.7411   47.0106   -0.3600 H   0  0  0  0  0  0  0  0  0  0  0  0
   27.1220   50.3255   -0.0750 H   0  0  0  0  0  0  0  0  0  0  0  0
   27.8379   50.0998   -2.7574 H   0  0  0  0  0  0  0  0  0  0  0  0
   32.5726   47.5242   -7.6292 H   0  0  0  0  0  0  0  0  0  0  0  0
   31.5902   46.2941   -8.1098 H   0  0  0  0  0  0  0  0  0  0  0  0
   32.2556   46.2758   -6.6044 H   0  0  0  0  0  0  0  0  0  0  0  0
   31.0236   48.2161   -5.9541 H   0  0  0  0  0  0  0  0  0  0  0  0
   30.2975   48.2361   -7.5970 H   0  0  0  0  0  0  0  0  0  0  0  0
   28.4847   44.5644   -4.8395 H   0  0  0  0  0  0  0  0  0  0  0  0
   27.4063   46.0001   -4.7892 H   0  0  0  0  0  0  0  0  0  0  0  0
   29.3849   47.4491   -4.3363 H   0  0  0  0  0  0  0  0  0  0  0  0
   30.4498   46.0063   -4.4416 H   0  0  0  0  0  0  0  0  0  0  0  0
   28.6125   44.5561   -2.5299 H   0  0  0  0  0  0  0  0  0  0  0  0
  1 13  1  0  0  0  0
  1 18  1  0  0  0  0
  1 19  1  0  0  0  0
  2  3  1  0  0  0  0
  2  7  1  0  0  0  0
  2 20  1  1  0  0  0
  3  4  1  0  0  0  0
  3  8  1  0  0  0  0
  3 21  1  1  0  0  0
  4  9  1  0  0  0  0
  4 22  1  6  0  0  0
  5  4  1  0  0  0  0
  5  6  1  0  0  0  0
  5 23  1  1  0  0  0
  6 11  1  0  0  0  0
  6 24  1  0  0  0  0
  6 25  1  0  0  0  0
  7 26  1  0  0  0  0
  8 27  1  0  0  0  0
  9 28  1  0  0  0  0
 10  5  1  0  0  0  0
 11 29  1  0  0  0  0
 12 30  1  0  0  0  0
 12 31  1  0  0  0  0
 12 32  1  0  0  0  0
 13 12  1  0  0  0  0
 13 33  1  0  0  0  0
 13 34  1  0  0  0  0
 14 15  1  0  0  0  0
 14 35  1  0  0  0  0
 14 36  1  0  0  0  0
 15  1  1  0  0  0  0
 15 37  1  0  0  0  0
 15 38  1  0  0  0  0
 16 14  1  0  0  0  0
 16 17  1  0  0  0  0
 16 39  1  0  0  0  0
 17  2  1  0  0  0  0
 17 10  2  0  0  0  0
M  CHG  1  12   1
M  END
