2vrx_ligand
 OpenBabel08222323343D

 70 74  0  0  0  0  0  0  0  0999 V2000
   16.9480   -4.8250    2.4360 C   0  0  0  0  0  0  0  0  0  0  0  0
   17.3820   -6.2530    2.0430 C   0  0  0  0  0  0  0  0  0  0  0  0
   16.5960   -7.2470    2.7910 O   0  0  0  0  0  0  0  0  0  0  0  0
   15.1470   -7.1230    2.5830 C   0  0  0  0  0  0  0  0  0  0  0  0
   14.6970   -5.6620    2.7900 C   0  0  0  0  0  0  0  0  0  0  0  0
   15.8080   -4.8830    3.3800 N   0  3  0  0  0  0  0  0  0  0  0  0
   15.3820   -3.5720    3.9270 C   0  0  0  0  0  0  0  0  0  0  0  0
   15.0790   -2.4420    2.9320 C   0  0  0  0  0  0  0  0  0  0  0  0
   14.4450   -1.2650    3.6960 C   0  0  0  0  0  0  0  0  0  0  0  0
   13.0060   -1.3450    3.5830 O   0  0  0  0  0  0  0  0  0  0  0  0
   12.2380   -0.2830    3.9940 C   0  0  0  0  0  0  0  0  0  0  0  0
   12.7310    0.7920    4.7430 C   0  0  0  0  0  0  0  0  0  0  0  0
   10.8780   -0.3020    3.6260 C   0  0  0  0  0  0  0  0  0  0  0  0
   10.3890   -1.3700    2.9090 O   0  0  0  0  0  0  0  0  0  0  0  0
   10.9840   -1.6140    1.6320 C   0  0  0  0  0  0  0  0  0  0  0  0
   10.0240    0.7310    4.0110 C   0  0  0  0  0  0  0  0  0  0  0  0
   10.5130    1.8090    4.7560 C   0  0  0  0  0  0  0  0  0  0  0  0
   11.8710    1.8320    5.1180 C   0  0  0  0  0  0  0  0  0  0  0  0
   12.3590    2.8570    5.8350 N   0  0  0  0  0  0  0  0  0  0  0  0
   11.5260    3.9110    6.2290 C   0  0  0  0  0  0  0  0  0  0  0  0
   10.1700    3.8940    5.8630 N   0  0  0  0  0  0  0  0  0  0  0  0
    9.6760    2.8680    5.1470 C   0  0  0  0  0  0  0  0  0  0  0  0
    8.3690    2.7990    4.7810 N   0  0  0  0  0  0  0  0  0  0  0  0
    7.4690    3.7150    5.2320 C   0  0  0  0  0  0  0  0  0  0  0  0
    6.5350    4.2520    4.3440 C   0  0  0  0  0  0  0  0  0  0  0  0
    5.5910    5.1880    4.7760 C   0  0  0  0  0  0  0  0  0  0  0  0
    7.4250    4.1240    6.5690 C   0  0  0  0  0  0  0  0  0  0  0  0
    6.4830    5.0570    7.0060 C   0  0  0  0  0  0  0  0  0  0  0  0
    5.5490    5.5900    6.1190 C   0  0  0  0  0  0  0  0  0  0  0  0
    4.6720    6.5130    6.5840 N   0  0  0  0  0  0  0  0  0  0  0  0
    3.4990    6.7670    5.9550 C   0  0  0  0  0  0  0  0  0  0  0  0
    3.1050    6.1950    4.9340 O   0  0  0  0  0  0  0  0  0  0  0  0
    2.7220    7.7630    6.5530 C   0  0  0  0  0  0  0  0  0  0  0  0
    1.4280    8.0110    6.0900 C   0  0  0  0  0  0  0  0  0  0  0  0
    0.6540    9.0080    6.6780 C   0  0  0  0  0  0  0  0  0  0  0  0
    1.1690    9.7650    7.7290 C   0  0  0  0  0  0  0  0  0  0  0  0
    2.4560    9.5160    8.1970 C   0  0  0  0  0  0  0  0  0  0  0  0
    3.2330    8.5240    7.6040 C   0  0  0  0  0  0  0  0  0  0  0  0
   16.6452   -4.2749    1.5329 H   0  0  0  0  0  0  0  0  0  0  0  0
   17.7917   -4.3069    2.9154 H   0  0  0  0  0  0  0  0  0  0  0  0
   18.4493   -6.3850    2.2743 H   0  0  0  0  0  0  0  0  0  0  0  0
   17.2198   -6.3983    0.9648 H   0  0  0  0  0  0  0  0  0  0  0  0
   14.6211   -7.7694    3.3011 H   0  0  0  0  0  0  0  0  0  0  0  0
   14.8998   -7.4366    1.5580 H   0  0  0  0  0  0  0  0  0  0  0  0
   13.8313   -5.6375    3.4682 H   0  0  0  0  0  0  0  0  0  0  0  0
   14.4162   -5.2239    1.8209 H   0  0  0  0  0  0  0  0  0  0  0  0
   16.1326   -5.4110    4.1749 H   0  0  0  0  0  0  0  0  0  0  0  0
   16.1845   -3.2176    4.5906 H   0  0  0  0  0  0  0  0  0  0  0  0
   14.4687   -3.7438    4.5155 H   0  0  0  0  0  0  0  0  0  0  0  0
   14.3798   -2.8035    2.1637 H   0  0  0  0  0  0  0  0  0  0  0  0
   16.0121   -2.1116    2.4523 H   0  0  0  0  0  0  0  0  0  0  0  0
   14.7956   -0.3154    3.2655 H   0  0  0  0  0  0  0  0  0  0  0  0
   14.7342   -1.3160    4.7561 H   0  0  0  0  0  0  0  0  0  0  0  0
   13.7754    0.8195    5.0320 H   0  0  0  0  0  0  0  0  0  0  0  0
   10.5065   -2.4886    1.1661 H   0  0  0  0  0  0  0  0  0  0  0  0
   12.0593   -1.8078    1.7595 H   0  0  0  0  0  0  0  0  0  0  0  0
   10.8439   -0.7334    0.9879 H   0  0  0  0  0  0  0  0  0  0  0  0
    8.9771    0.6984    3.7318 H   0  0  0  0  0  0  0  0  0  0  0  0
   11.9243    4.7336    6.8119 H   0  0  0  0  0  0  0  0  0  0  0  0
    8.0556    2.0440    4.1544 H   0  0  0  0  0  0  0  0  0  0  0  0
    6.5420    3.9390    3.3062 H   0  0  0  0  0  0  0  0  0  0  0  0
    4.8856    5.6066    4.0672 H   0  0  0  0  0  0  0  0  0  0  0  0
    8.1337    3.7099    7.2770 H   0  0  0  0  0  0  0  0  0  0  0  0
    6.4778    5.3697    8.0439 H   0  0  0  0  0  0  0  0  0  0  0  0
    4.8972    7.0212    7.4153 H   0  0  0  0  0  0  0  0  0  0  0  0
    1.0253    7.4260    5.2710 H   0  0  0  0  0  0  0  0  0  0  0  0
   -0.3510    9.1958    6.3177 H   0  0  0  0  0  0  0  0  0  0  0  0
    0.5684   10.5461    8.1810 H   0  0  0  0  0  0  0  0  0  0  0  0
    2.8536   10.0943    9.0232 H   0  0  0  0  0  0  0  0  0  0  0  0
    4.2402    8.3424    7.9612 H   0  0  0  0  0  0  0  0  0  0  0  0
  1  2  1  0  0  0  0
  1  6  1  0  0  0  0
  1 39  1  0  0  0  0
  1 40  1  0  0  0  0
  2  3  1  0  0  0  0
  2 41  1  0  0  0  0
  2 42  1  0  0  0  0
  3  4  1  0  0  0  0
  4  5  1  0  0  0  0
  4 43  1  0  0  0  0
  4 44  1  0  0  0  0
  5  6  1  0  0  0  0
  5 45  1  0  0  0  0
  5 46  1  0  0  0  0
  6  7  1  0  0  0  0
  6 47  1  0  0  0  0
  7  8  1  0  0  0  0
  7 48  1  0  0  0  0
  7 49  1  0  0  0  0
  8  9  1  0  0  0  0
  8 50  1  0  0  0  0
  8 51  1  0  0  0  0
  9 10  1  0  0  0  0
  9 52  1  0  0  0  0
  9 53  1  0  0  0  0
 10 11  1  0  0  0  0
 11 12  2  0  0  0  0
 11 13  1  0  0  0  0
 12 18  1  0  0  0  0
 12 54  1  0  0  0  0
 13 14  1  0  0  0  0
 13 16  2  0  0  0  0
 14 15  1  0  0  0  0
 15 55  1  0  0  0  0
 15 56  1  0  0  0  0
 15 57  1  0  0  0  0
 16 17  1  0  0  0  0
 16 58  1  0  0  0  0
 17 18  2  0  0  0  0
 17 22  1  0  0  0  0
 18 19  1  0  0  0  0
 19 20  2  0  0  0  0
 20 21  1  0  0  0  0
 20 59  1  0  0  0  0
 21 22  2  0  0  0  0
 22 23  1  0  0  0  0
 23 24  1  0  0  0  0
 23 60  1  0  0  0  0
 24 25  2  0  0  0  0
 24 27  1  0  0  0  0
 25 26  1  0  0  0  0
 25 61  1  0  0  0  0
 26 29  2  0  0  0  0
 26 62  1  0  0  0  0
 27 28  2  0  0  0  0
 27 63  1  0  0  0  0
 28 29  1  0  0  0  0
 28 64  1  0  0  0  0
 29 30  1  0  0  0  0
 30 31  1  0  0  0  0
 30 65  1  0  0  0  0
 31 32  2  0  0  0  0
 31 33  1  0  0  0  0
 33 34  2  0  0  0  0
 33 38  1  0  0  0  0
 34 35  1  0  0  0  0
 34 66  1  0  0  0  0
 35 36  2  0  0  0  0
 35 67  1  0  0  0  0
 36 37  1  0  0  0  0
 36 68  1  0  0  0  0
 37 38  2  0  0  0  0
 37 69  1  0  0  0  0
 38 70  1  0  0  0  0
M  CHG  1   6   1
M  END
