2vta_ligand
 OpenBabel08222323343D

 15 16  0  0  0  0  0  0  0  0999 V2000
   26.6470    4.4300   64.2630 C   0  0  0  0  0  0  0  0  0  0  0  0
   27.3290    5.6500   64.3750 C   0  0  0  0  0  0  0  0  0  0  0  0
   26.8640    6.7380   63.6400 C   0  0  0  0  0  0  0  0  0  0  0  0
   25.7620    6.6120   62.8130 C   0  0  0  0  0  0  0  0  0  0  0  0
   25.1030    5.4010   62.7060 C   0  0  0  0  0  0  0  0  0  0  0  0
   25.5450    4.3090   63.4260 C   0  0  0  0  0  0  0  0  0  0  0  0
   27.3080    3.5470   65.0780 N   0  0  0  0  0  0  0  0  0  0  0  0
   28.3840    5.4130   65.2900 C   0  0  0  0  0  0  0  0  0  0  0  0
   28.3640    4.1370   65.6980 N   0  0  0  0  0  0  0  0  0  0  0  0
   27.3707    7.6932   63.7167 H   0  0  0  0  0  0  0  0  0  0  0  0
   25.4132    7.4674   62.2458 H   0  0  0  0  0  0  0  0  0  0  0  0
   24.2396    5.3091   62.0570 H   0  0  0  0  0  0  0  0  0  0  0  0
   25.0324    3.3579   63.3382 H   0  0  0  0  0  0  0  0  0  0  0  0
   29.1068    6.1599   65.6149 H   0  0  0  0  0  0  0  0  0  0  0  0
   29.0208    3.6902   66.3537 H   0  0  0  0  0  0  0  0  0  0  0  0
  1  2  1  0  0  0  0
  1  6  1  0  0  0  0
  1  7  2  0  0  0  0
  2  3  1  0  0  0  0
  2  8  2  0  0  0  0
  3  4  2  0  0  0  0
  3 10  1  0  0  0  0
  4  5  1  0  0  0  0
  4 11  1  0  0  0  0
  5  6  2  0  0  0  0
  5 12  1  0  0  0  0
  6 13  1  0  0  0  0
  7  9  1  0  0  0  0
  8  9  1  0  0  0  0
  8 14  1  0  0  0  0
  9 15  1  0  0  0  0
M  END
