2vtd_ligand
 OpenBabel08222323343D

 51 53  0  0  1  0  0  0  0  0999 V2000
   -1.5900  -11.2160  -21.1870 N   0  0  0  0  0  0  0  0  0  0  0  0
   -1.4950  -12.3550  -21.2760 C   0  0  0  0  0  0  0  0  0  0  0  0
   -1.4160  -13.6220  -21.4690 C   0  0  0  0  0  0  0  0  0  0  0  0
   -1.2150  -14.5500  -20.4550 C   0  0  0  0  0  0  0  0  0  0  0  0
   -1.1500  -15.9090  -20.7670 C   0  0  0  0  0  0  0  0  0  0  0  0
   -1.5550  -14.0700  -22.7700 C   0  0  0  0  0  0  0  0  0  0  0  0
   -1.4890  -15.4200  -23.0720 C   0  0  0  0  0  0  0  0  0  0  0  0
   -1.2900  -16.3250  -22.0780 C   0  0  0  0  0  0  0  0  0  0  0  0
   -1.2130  -17.7630  -22.5010 C   0  0  0  0  0  0  0  0  0  0  0  0
   -0.8630  -18.5110  -21.3670 O   0  0  0  0  0  0  0  0  0  0  0  0
    0.3100  -19.1810  -21.1530 C   0  0  0  0  0  0  0  0  0  0  0  0
    1.3150  -19.4640  -22.0710 C   0  0  0  0  0  0  0  0  0  0  0  0
    2.4470  -20.1690  -21.6450 C   0  0  0  0  0  0  0  0  0  0  0  0
    0.4300  -19.6100  -19.8720 C   0  0  0  0  0  0  0  0  0  0  0  0
    1.5190  -20.3020  -19.4600 C   0  0  0  0  0  0  0  0  0  0  0  0
    2.5460  -20.5900  -20.3250 C   0  0  0  0  0  0  0  0  0  0  0  0
    3.6260  -21.3030  -19.8340 C   0  0  0  0  0  0  0  0  0  0  0  0
    1.5310  -20.6730  -18.1430 C   0  0  0  0  0  0  0  0  0  0  0  0
    2.5950  -21.3770  -17.6690 C   0  0  0  0  0  0  0  0  0  0  0  0
    3.6390  -21.6820  -18.5060 C   0  0  0  0  0  0  0  0  0  0  0  0
    4.7910  -22.5280  -17.8700 S   0  0  0  0  0  0  0  0  0  0  0  0
    5.9870  -22.3960  -18.6830 O   0  0  0  0  0  0  0  0  0  0  0  0
    5.0190  -22.1950  -16.4800 O   0  0  0  0  0  0  0  0  0  0  0  0
    4.2670  -23.9470  -17.8430 N   0  0  0  0  0  0  0  0  0  0  0  0
    4.0370  -24.7010  -19.0730 C   0  0  1  0  0  0  0  0  0  0  0  0
    5.2890  -25.3680  -19.5690 C   0  0  0  0  0  0  0  0  0  0  0  0
    6.0630  -25.8580  -18.7480 O   0  5  0  0  0  0  0  0  0  0  0  0
    5.4820  -25.4020  -20.7900 O   0  0  0  0  0  0  0  0  0  0  0  0
    2.9370  -25.7340  -18.7930 C   0  0  0  0  0  0  0  0  0  0  0  0
    2.5170  -26.4180  -20.0780 C   0  0  0  0  0  0  0  0  0  0  0  0
    1.3070  -27.3160  -19.9840 C   0  0  0  0  0  0  0  0  0  0  0  0
    0.5260  -27.2330  -19.0360 O   0  5  0  0  0  0  0  0  0  0  0  0
    1.1580  -28.1280  -20.9020 O   0  0  0  0  0  0  0  0  0  0  0  0
   -1.6170  -15.8710  -24.3240 F   0  0  0  0  0  0  0  0  0  0  0  0
   -1.1093  -14.2208  -19.4276 H   0  0  0  0  0  0  0  0  0  0  0  0
   -0.9897  -16.6383  -19.9812 H   0  0  0  0  0  0  0  0  0  0  0  0
   -1.7183  -13.3528  -23.5663 H   0  0  0  0  0  0  0  0  0  0  0  0
   -0.4496  -17.8853  -23.2834 H   0  0  0  0  0  0  0  0  0  0  0  0
   -2.1885  -18.0955  -22.8854 H   0  0  0  0  0  0  0  0  0  0  0  0
    1.2234  -19.1432  -23.1024 H   0  0  0  0  0  0  0  0  0  0  0  0
    3.2458  -20.3862  -22.3449 H   0  0  0  0  0  0  0  0  0  0  0  0
   -0.3617  -19.3947  -19.1635 H   0  0  0  0  0  0  0  0  0  0  0  0
    4.4532  -21.5613  -20.4852 H   0  0  0  0  0  0  0  0  0  0  0  0
    0.7075  -20.4108  -17.4886 H   0  0  0  0  0  0  0  0  0  0  0  0
    2.6178  -21.6959  -16.6332 H   0  0  0  0  0  0  0  0  0  0  0  0
    4.0735  -24.3791  -16.9622 H   0  0  0  0  0  0  0  0  0  0  0  0
    3.6866  -24.0081  -19.8522 H   0  0  0  0  0  0  0  0  0  0  0  0
    2.0668  -25.2265  -18.3512 H   0  0  0  0  0  0  0  0  0  0  0  0
    3.3183  -26.4880  -18.0887 H   0  0  0  0  0  0  0  0  0  0  0  0
    3.3630  -27.0285  -20.4266 H   0  0  0  0  0  0  0  0  0  0  0  0
    2.2989  -25.6358  -20.8201 H   0  0  0  0  0  0  0  0  0  0  0  0
  1  2  3  0  0  0  0
  2  3  1  0  0  0  0
  3  4  2  0  0  0  0
  3  6  1  0  0  0  0
  4  5  1  0  0  0  0
  4 35  1  0  0  0  0
  5  8  2  0  0  0  0
  5 36  1  0  0  0  0
  6  7  2  0  0  0  0
  6 37  1  0  0  0  0
  7  8  1  0  0  0  0
  7 34  1  0  0  0  0
  8  9  1  0  0  0  0
  9 10  1  0  0  0  0
  9 38  1  0  0  0  0
  9 39  1  0  0  0  0
 10 11  1  0  0  0  0
 11 12  2  0  0  0  0
 11 14  1  0  0  0  0
 12 13  1  0  0  0  0
 12 40  1  0  0  0  0
 13 16  2  0  0  0  0
 13 41  1  0  0  0  0
 14 15  2  0  0  0  0
 14 42  1  0  0  0  0
 15 16  1  0  0  0  0
 15 18  1  0  0  0  0
 16 17  1  0  0  0  0
 17 20  2  0  0  0  0
 17 43  1  0  0  0  0
 18 19  2  0  0  0  0
 18 44  1  0  0  0  0
 19 20  1  0  0  0  0
 19 45  1  0  0  0  0
 20 21  1  0  0  0  0
 21 22  2  0  0  0  0
 21 23  2  0  0  0  0
 21 24  1  0  0  0  0
 24 25  1  0  0  0  0
 24 46  1  0  0  0  0
 25 26  1  0  0  0  0
 25 29  1  0  0  0  0
 25 47  1  6  0  0  0
 26 27  1  0  0  0  0
 26 28  2  0  0  0  0
 29 30  1  0  0  0  0
 29 48  1  0  0  0  0
 29 49  1  0  0  0  0
 30 31  1  0  0  0  0
 30 50  1  0  0  0  0
 30 51  1  0  0  0  0
 31 32  1  0  0  0  0
 31 33  2  0  0  0  0
M  CHG  2  27  -1  32  -1
M  END
