2vti_ligand
 OpenBabel08222323343D

 34 36  0  0  0  0  0  0  0  0999 V2000
   29.3650    6.3440   64.8890 N   0  0  0  0  0  0  0  0  0  0  0  0
   28.1760    6.4260   64.3010 C   0  0  0  0  0  0  0  0  0  0  0  0
   27.4700    5.1580   64.1070 C   0  0  0  0  0  0  0  0  0  0  0  0
   25.5550    5.6480   62.4670 C   0  0  0  0  0  0  0  0  0  0  0  0
   24.5010    5.0540   61.7950 C   0  0  0  0  0  0  0  0  0  0  0  0
   24.2700    3.6940   61.9270 C   0  0  0  0  0  0  0  0  0  0  0  0
   25.0950    2.9240   62.7250 C   0  0  0  0  0  0  0  0  0  0  0  0
   26.3690    4.8860   63.3020 C   0  0  0  0  0  0  0  0  0  0  0  0
   27.7090    7.4980   63.8860 O   0  0  0  0  0  0  0  0  0  0  0  0
   27.9260    4.0410   64.6890 N   0  0  0  0  0  0  0  0  0  0  0  0
   27.1080    3.0460   64.2680 N   0  0  0  0  0  0  0  0  0  0  0  0
   30.4330    8.1040   63.6190 C   0  0  0  0  0  0  0  0  0  0  0  0
   31.3590    9.1170   63.5230 C   0  0  0  0  0  0  0  0  0  0  0  0
   32.1550    9.4290   64.6110 C   0  0  0  0  0  0  0  0  0  0  0  0
   32.0300    8.7200   65.7930 C   0  0  0  0  0  0  0  0  0  0  0  0
   31.1030    7.6970   65.8850 C   0  0  0  0  0  0  0  0  0  0  0  0
   33.3630   10.6960   64.4650 S   0  0  0  0  0  0  0  0  0  0  0  0
   34.3260   10.2290   63.5230 O   0  0  0  0  0  0  0  0  0  0  0  0
   33.8050   11.0330   65.7970 O   0  0  0  0  0  0  0  0  0  0  0  0
   32.6660   12.0040   63.8450 N   0  0  0  0  0  0  0  0  0  0  0  0
   30.3090    7.3760   64.8020 C   0  0  0  0  0  0  0  0  0  0  0  0
   26.1450    3.5130   63.4150 C   0  0  0  0  0  0  0  0  0  0  0  0
   29.5929    5.5210   65.4093 H   0  0  0  0  0  0  0  0  0  0  0  0
   25.7474    6.7076   62.3434 H   0  0  0  0  0  0  0  0  0  0  0  0
   23.8549    5.6537   61.1642 H   0  0  0  0  0  0  0  0  0  0  0  0
   23.4404    3.2330   61.4032 H   0  0  0  0  0  0  0  0  0  0  0  0
   24.9214    1.8575   62.8120 H   0  0  0  0  0  0  0  0  0  0  0  0
   28.7317    3.9560   65.3250 H   0  0  0  0  0  0  0  0  0  0  0  0
   29.7976    7.8709   62.7722 H   0  0  0  0  0  0  0  0  0  0  0  0
   31.4648    9.6698   62.5966 H   0  0  0  0  0  0  0  0  0  0  0  0
   32.6559    8.9652   66.6434 H   0  0  0  0  0  0  0  0  0  0  0  0
   30.9996    7.1447   66.8120 H   0  0  0  0  0  0  0  0  0  0  0  0
   33.2052   12.8317   63.6893 H   0  0  0  0  0  0  0  0  0  0  0  0
   31.6930   11.9905   63.6148 H   0  0  0  0  0  0  0  0  0  0  0  0
  1  2  1  0  0  0  0
  1 23  1  0  0  0  0
  2  3  1  0  0  0  0
  2  9  2  0  0  0  0
  3  8  2  0  0  0  0
  3 10  1  0  0  0  0
  4  5  2  0  0  0  0
  4 24  1  0  0  0  0
  5  6  1  0  0  0  0
  5 25  1  0  0  0  0
  6 26  1  0  0  0  0
  7  6  2  0  0  0  0
  7 27  1  0  0  0  0
  8  4  1  0  0  0  0
  8 22  1  0  0  0  0
 10 11  1  0  0  0  0
 10 28  1  0  0  0  0
 11 22  2  0  0  0  0
 12 13  2  0  0  0  0
 12 21  1  0  0  0  0
 12 29  1  0  0  0  0
 13 14  1  0  0  0  0
 13 30  1  0  0  0  0
 14 15  2  0  0  0  0
 14 17  1  0  0  0  0
 15 16  1  0  0  0  0
 15 31  1  0  0  0  0
 16 21  2  0  0  0  0
 16 32  1  0  0  0  0
 17 18  2  0  0  0  0
 17 19  2  0  0  0  0
 17 20  1  0  0  0  0
 20 33  1  0  0  0  0
 20 34  1  0  0  0  0
 21  1  1  0  0  0  0
 22  7  1  0  0  0  0
M  END
