2vtq_ligand
 OpenBabel08222323343D

 43 45  0  0  0  0  0  0  0  0999 V2000
   31.8560    9.4090   67.1270 C   0  0  0  0  0  0  0  0  0  0  0  0
   31.1010    8.0860   67.0230 C   0  0  0  0  0  0  0  0  0  0  0  0
   30.5150    7.9240   65.6190 C   0  0  0  0  0  0  0  0  0  0  0  0
   29.7660    6.6740   65.4970 N   0  0  0  0  0  0  0  0  0  0  0  0
   28.5880    6.6340   64.8530 C   0  0  0  0  0  0  0  0  0  0  0  0
   28.0860    7.6380   64.3640 O   0  0  0  0  0  0  0  0  0  0  0  0
   27.9030    5.3150   64.7520 C   0  0  0  0  0  0  0  0  0  0  0  0
   28.2710    4.2270   65.4540 N   0  0  0  0  0  0  0  0  0  0  0  0
   27.4230    3.2450   65.0730 N   0  0  0  0  0  0  0  0  0  0  0  0
   26.5320    3.6940   64.1610 C   0  0  0  0  0  0  0  0  0  0  0  0
   26.8130    5.0110   63.9350 C   0  0  0  0  0  0  0  0  0  0  0  0
   26.2120    5.9150   63.0750 N   0  0  0  0  0  0  0  0  0  0  0  0
   25.2660    5.6240   62.1680 C   0  0  0  0  0  0  0  0  0  0  0  0
   24.7640    4.4810   62.0410 O   0  0  0  0  0  0  0  0  0  0  0  0
   24.8600    6.7660   61.2850 C   0  0  0  0  0  0  0  0  0  0  0  0
   25.7840    7.3770   60.4320 C   0  0  0  0  0  0  0  0  0  0  0  0
   27.0470    6.9110   60.4250 F   0  0  0  0  0  0  0  0  0  0  0  0
   25.4330    8.4480   59.6180 C   0  0  0  0  0  0  0  0  0  0  0  0
   24.1320    8.9190   59.6350 C   0  0  0  0  0  0  0  0  0  0  0  0
   23.1910    8.3250   60.4710 C   0  0  0  0  0  0  0  0  0  0  0  0
   23.5690    7.2630   61.2930 C   0  0  0  0  0  0  0  0  0  0  0  0
   22.6580    6.6780   62.0950 F   0  0  0  0  0  0  0  0  0  0  0  0
   31.6260    8.0240   64.5650 C   0  0  0  0  0  0  0  0  0  0  0  0
   32.9580    9.4510   66.1220 N   0  3  0  0  0  0  0  0  0  0  0  0
   32.4380    9.3220   64.7310 C   0  0  0  0  0  0  0  0  0  0  0  0
   32.2808    9.5071   68.1369 H   0  0  0  0  0  0  0  0  0  0  0  0
   31.1607   10.2404   66.9393 H   0  0  0  0  0  0  0  0  0  0  0  0
   30.2856    8.0734   67.7612 H   0  0  0  0  0  0  0  0  0  0  0  0
   31.7928    7.2553   67.2265 H   0  0  0  0  0  0  0  0  0  0  0  0
   29.8119    8.7524   65.4477 H   0  0  0  0  0  0  0  0  0  0  0  0
   30.1363    5.8366   65.8990 H   0  0  0  0  0  0  0  0  0  0  0  0
   29.0379    4.1571   66.1381 H   0  0  0  0  0  0  0  0  0  0  0  0
   25.7380    3.1135   63.6936 H   0  0  0  0  0  0  0  0  0  0  0  0
   26.5087    6.8681   63.1349 H   0  0  0  0  0  0  0  0  0  0  0  0
   26.1729    8.9106   58.9749 H   0  0  0  0  0  0  0  0  0  0  0  0
   23.8463    9.7488   58.9986 H   0  0  0  0  0  0  0  0  0  0  0  0
   22.1689    8.6859   60.4834 H   0  0  0  0  0  0  0  0  0  0  0  0
   31.1720    8.0108   63.5631 H   0  0  0  0  0  0  0  0  0  0  0  0
   32.3013    7.1624   64.6730 H   0  0  0  0  0  0  0  0  0  0  0  0
   33.5960    8.6922   66.3043 H   0  0  0  0  0  0  0  0  0  0  0  0
   33.4462   10.3286   66.2085 H   0  0  0  0  0  0  0  0  0  0  0  0
   31.7906   10.1827   64.5075 H   0  0  0  0  0  0  0  0  0  0  0  0
   33.2854    9.3087   64.0298 H   0  0  0  0  0  0  0  0  0  0  0  0
  1  2  1  0  0  0  0
  1 24  1  0  0  0  0
  1 26  1  0  0  0  0
  1 27  1  0  0  0  0
  2  3  1  0  0  0  0
  2 28  1  0  0  0  0
  2 29  1  0  0  0  0
  3  4  1  0  0  0  0
  3 23  1  0  0  0  0
  3 30  1  0  0  0  0
  4  5  1  0  0  0  0
  4 31  1  0  0  0  0
  5  6  2  0  0  0  0
  5  7  1  0  0  0  0
  7  8  1  0  0  0  0
  7 11  2  0  0  0  0
  8  9  1  0  0  0  0
  8 32  1  0  0  0  0
  9 10  2  0  0  0  0
 10 11  1  0  0  0  0
 10 33  1  0  0  0  0
 11 12  1  0  0  0  0
 12 13  1  0  0  0  0
 12 34  1  0  0  0  0
 13 14  2  0  0  0  0
 13 15  1  0  0  0  0
 15 16  2  0  0  0  0
 15 21  1  0  0  0  0
 16 17  1  0  0  0  0
 16 18  1  0  0  0  0
 18 19  2  0  0  0  0
 18 35  1  0  0  0  0
 19 20  1  0  0  0  0
 19 36  1  0  0  0  0
 20 21  2  0  0  0  0
 20 37  1  0  0  0  0
 21 22  1  0  0  0  0
 23 25  1  0  0  0  0
 23 38  1  0  0  0  0
 23 39  1  0  0  0  0
 24 25  1  0  0  0  0
 24 40  1  0  0  0  0
 24 41  1  0  0  0  0
 25 42  1  0  0  0  0
 25 43  1  0  0  0  0
M  CHG  1  24   1
M  END
