2vur_ligand
 OpenBabel08222323343D

 36 36  0  0  1  0  0  0  0  0999 V2000
   64.4780   72.2000   14.1780 O   0  0  0  0  0  0  0  0  0  0  0  0
   63.1810   71.7080   14.6110 C   0  0  1  0  0  0  0  0  0  0  0  0
   63.2060   70.1630   14.5620 C   0  0  2  0  0  0  0  0  0  0  0  0
   63.4520   69.7150   13.2110 O   0  0  0  0  0  0  0  0  0  0  0  0
   61.8880   69.5760   15.1260 C   0  0  1  0  0  0  0  0  0  0  0  0
   61.6900   68.0340   15.0720 C   0  0  0  0  0  0  0  0  0  0  0  0
   62.7540   67.4420   15.8330 O   0  0  0  0  0  0  0  0  0  0  0  0
   61.8350   69.9590   16.5350 O   0  0  0  0  0  0  0  0  0  0  0  0
   61.7380   71.4240   16.7480 C   0  0  1  0  0  0  0  0  0  0  0  0
   61.7680   71.6410   18.1640 O   0  0  0  0  0  0  0  0  0  0  0  0
   62.9170   72.1900   16.0550 C   0  0  2  0  0  0  0  0  0  0  0  0
   62.7650   73.6660   16.1210 N   0  0  0  0  0  0  0  0  0  0  0  0
   61.7010   74.3560   15.6960 C   0  0  0  0  0  0  0  0  0  0  0  0
   60.7240   73.7830   15.2060 O   0  0  0  0  0  0  0  0  0  0  0  0
   61.7730   75.7040   15.8670 N   0  0  0  0  0  0  0  0  0  0  0  0
   60.6570   76.5470   15.4510 C   0  0  0  0  0  0  0  0  0  0  0  0
   62.8800   76.2690   16.4360 N   0  3  0  0  0  0  0  0  0  0  0  0
   63.1670   77.4870   15.7840 O   0  0  0  0  0  0  0  0  0  0  0  0
   64.6475   71.9046   13.2912 H   0  0  0  0  0  0  0  0  0  0  0  0
   62.3929   72.0885   13.9446 H   0  0  0  0  0  0  0  0  0  0  0  0
   64.0334   69.8106   15.1954 H   0  0  0  0  0  0  0  0  0  0  0  0
   63.4656   68.7653   13.1910 H   0  0  0  0  0  0  0  0  0  0  0  0
   61.0539   70.0388   14.5781 H   0  0  0  0  0  0  0  0  0  0  0  0
   61.7328   67.6849   14.0298 H   0  0  0  0  0  0  0  0  0  0  0  0
   60.7179   67.7634   15.5098 H   0  0  0  0  0  0  0  0  0  0  0  0
   63.5889   67.6857   15.4507 H   0  0  0  0  0  0  0  0  0  0  0  0
   60.7866   71.7917   16.3361 H   0  0  0  0  0  0  0  0  0  0  0  0
   61.7077   72.5722   18.3419 H   0  0  0  0  0  0  0  0  0  0  0  0
   63.8206   71.9459   16.6328 H   0  0  0  0  0  0  0  0  0  0  0  0
   63.5213   74.1874   16.5162 H   0  0  0  0  0  0  0  0  0  0  0  0
   60.8929   77.5998   15.6655 H   0  0  0  0  0  0  0  0  0  0  0  0
   59.7512   76.2546   16.0023 H   0  0  0  0  0  0  0  0  0  0  0  0
   60.4856   76.4222   14.3716 H   0  0  0  0  0  0  0  0  0  0  0  0
   63.6644   75.6431   16.3413 H   0  0  0  0  0  0  0  0  0  0  0  0
   62.7051   76.4430   17.4133 H   0  0  0  0  0  0  0  0  0  0  0  0
   63.9362   77.8820   16.1775 H   0  0  0  0  0  0  0  0  0  0  0  0
  1  2  1  0  0  0  0
  1 19  1  0  0  0  0
  2  3  1  0  0  0  0
  2 11  1  0  0  0  0
  2 20  1  6  0  0  0
  3  4  1  0  0  0  0
  3  5  1  0  0  0  0
  3 21  1  1  0  0  0
  4 22  1  0  0  0  0
  5  6  1  0  0  0  0
  5  8  1  0  0  0  0
  5 23  1  6  0  0  0
  6  7  1  0  0  0  0
  6 24  1  0  0  0  0
  6 25  1  0  0  0  0
  7 26  1  0  0  0  0
  8  9  1  0  0  0  0
  9 10  1  0  0  0  0
  9 11  1  0  0  0  0
  9 27  1  6  0  0  0
 10 28  1  0  0  0  0
 11 12  1  0  0  0  0
 11 29  1  1  0  0  0
 12 13  1  0  0  0  0
 12 30  1  0  0  0  0
 13 14  2  0  0  0  0
 13 15  1  0  0  0  0
 15 16  1  0  0  0  0
 15 17  1  0  0  0  0
 16 31  1  0  0  0  0
 16 32  1  0  0  0  0
 16 33  1  0  0  0  0
 17 18  1  0  0  0  0
 17 34  1  0  0  0  0
 17 35  1  0  0  0  0
 18 36  1  0  0  0  0
M  CHG  1  17   1
M  END
