2vwu_ligand
 OpenBabel08222323343D

 61 65  0  0  0  0  0  0  0  0999 V2000
    9.5400   10.4300   10.6250 C   0  0  0  0  0  0  0  0  0  0  0  0
   10.9620   10.6640   10.7240 O   0  0  0  0  0  0  0  0  0  0  0  0
   11.6500    9.5650   11.1600 C   0  0  0  0  0  0  0  0  0  0  0  0
   11.0830    8.3240   11.3970 C   0  0  0  0  0  0  0  0  0  0  0  0
   11.8870    7.2590   11.8640 C   0  0  0  0  0  0  0  0  0  0  0  0
   11.3790    5.9640   12.1570 C   0  0  0  0  0  0  0  0  0  0  0  0
   10.0200    5.7030   11.9640 N   0  0  0  0  0  0  0  0  0  0  0  0
    9.3860    4.5130   12.3770 C   0  0  0  0  0  0  0  0  0  0  0  0
    9.2710    4.2400   13.7200 C   0  0  0  0  0  0  0  0  0  0  0  0
    9.7110    4.9620   14.7840 O   0  0  0  0  0  0  0  0  0  0  0  0
    9.5060    4.1000   15.9150 C   0  0  0  0  0  0  0  0  0  0  0  0
    8.6340    3.0500   15.4800 O   0  0  0  0  0  0  0  0  0  0  0  0
    8.6130    3.0780   14.1410 C   0  0  0  0  0  0  0  0  0  0  0  0
    8.0790    2.1660   13.2390 C   0  0  0  0  0  0  0  0  0  0  0  0
    8.2140    2.4310   11.8830 C   0  0  0  0  0  0  0  0  0  0  0  0
    8.8460    3.6080   11.4700 C   0  0  0  0  0  0  0  0  0  0  0  0
    9.0240    3.9330    9.7830 Cl  0  0  0  0  0  0  0  0  0  0  0  0
   12.2320    5.0140   12.6010 N   0  0  0  0  0  0  0  0  0  0  0  0
   13.5310    5.2460   12.7510 C   0  0  0  0  0  0  0  0  0  0  0  0
   14.0540    6.4310   12.4770 N   0  0  0  0  0  0  0  0  0  0  0  0
   13.2870    7.4600   12.0330 C   0  0  0  0  0  0  0  0  0  0  0  0
   13.8380    8.7270   11.7580 C   0  0  0  0  0  0  0  0  0  0  0  0
   13.0350    9.7530   11.3230 C   0  0  0  0  0  0  0  0  0  0  0  0
   13.4960   10.9990   11.0300 O   0  0  0  0  0  0  0  0  0  0  0  0
   14.8550   11.2490   11.3560 C   0  0  0  0  0  0  0  0  0  0  0  0
   15.0160   12.7790   11.2970 C   0  0  0  0  0  0  0  0  0  0  0  0
   15.2680   13.2080    9.8540 C   0  0  0  0  0  0  0  0  0  0  0  0
   15.3730   14.6760    9.6880 N   0  3  0  0  0  0  0  0  0  0  0  0
   16.7360   15.1620    9.9910 C   0  0  0  0  0  0  0  0  0  0  0  0
   16.7670   16.7010    9.9310 C   0  0  0  0  0  0  0  0  0  0  0  0
   16.2980   17.1820    8.5440 C   0  0  0  0  0  0  0  0  0  0  0  0
   14.9810   16.5020    8.1150 C   0  0  0  0  0  0  0  0  0  0  0  0
   15.0940   14.9700    8.2790 C   0  0  0  0  0  0  0  0  0  0  0  0
    9.0417   11.3446   10.2712 H   0  0  0  0  0  0  0  0  0  0  0  0
    9.1438   10.1557   11.6138 H   0  0  0  0  0  0  0  0  0  0  0  0
    9.3516    9.6116    9.9145 H   0  0  0  0  0  0  0  0  0  0  0  0
   10.0240    8.1694   11.2247 H   0  0  0  0  0  0  0  0  0  0  0  0
    9.4493    6.4199   11.4937 H   0  0  0  0  0  0  0  0  0  0  0  0
    9.0420    4.6607   16.7398 H   0  0  0  0  0  0  0  0  0  0  0  0
   10.4659    3.6807   16.2510 H   0  0  0  0  0  0  0  0  0  0  0  0
    7.5713    1.2727   13.5844 H   0  0  0  0  0  0  0  0  0  0  0  0
    7.8321    1.7303   11.1494 H   0  0  0  0  0  0  0  0  0  0  0  0
   14.1757    4.4495   13.1047 H   0  0  0  0  0  0  0  0  0  0  0  0
   14.9010    8.8931   11.8903 H   0  0  0  0  0  0  0  0  0  0  0  0
   15.5209   10.7638   10.6272 H   0  0  0  0  0  0  0  0  0  0  0  0
   15.0831   10.8769   12.3657 H   0  0  0  0  0  0  0  0  0  0  0  0
   15.8673   13.0827   11.9239 H   0  0  0  0  0  0  0  0  0  0  0  0
   14.0982   13.2590   11.6674 H   0  0  0  0  0  0  0  0  0  0  0  0
   14.4366   12.8451    9.2318 H   0  0  0  0  0  0  0  0  0  0  0  0
   16.2083   12.7502    9.5130 H   0  0  0  0  0  0  0  0  0  0  0  0
   14.7061   15.1376   10.2865 H   0  0  0  0  0  0  0  0  0  0  0  0
   17.4418   14.7536    9.2527 H   0  0  0  0  0  0  0  0  0  0  0  0
   17.0264   14.8300   10.9987 H   0  0  0  0  0  0  0  0  0  0  0  0
   17.7938   17.0523   10.1107 H   0  0  0  0  0  0  0  0  0  0  0  0
   16.0991   17.1096   10.7036 H   0  0  0  0  0  0  0  0  0  0  0  0
   17.0771   16.9472    7.8038 H   0  0  0  0  0  0  0  0  0  0  0  0
   16.1415   18.2702    8.5790 H   0  0  0  0  0  0  0  0  0  0  0  0
   14.7754   16.7404    7.0610 H   0  0  0  0  0  0  0  0  0  0  0  0
   14.1582   16.8749    8.7426 H   0  0  0  0  0  0  0  0  0  0  0  0
   14.1488   14.4935    7.9799 H   0  0  0  0  0  0  0  0  0  0  0  0
   15.9121   14.5883    7.6505 H   0  0  0  0  0  0  0  0  0  0  0  0
  1  2  1  0  0  0  0
  1 34  1  0  0  0  0
  1 35  1  0  0  0  0
  1 36  1  0  0  0  0
  2  3  1  0  0  0  0
  3  4  2  0  0  0  0
  3 23  1  0  0  0  0
  4  5  1  0  0  0  0
  4 37  1  0  0  0  0
  5  6  2  0  0  0  0
  5 21  1  0  0  0  0
  6  7  1  0  0  0  0
  6 18  1  0  0  0  0
  7  8  1  0  0  0  0
  7 38  1  0  0  0  0
  8  9  2  0  0  0  0
  8 16  1  0  0  0  0
  9 10  1  0  0  0  0
  9 13  1  0  0  0  0
 10 11  1  0  0  0  0
 11 12  1  0  0  0  0
 11 39  1  0  0  0  0
 11 40  1  0  0  0  0
 12 13  1  0  0  0  0
 13 14  2  0  0  0  0
 14 15  1  0  0  0  0
 14 41  1  0  0  0  0
 15 16  2  0  0  0  0
 15 42  1  0  0  0  0
 16 17  1  0  0  0  0
 18 19  2  0  0  0  0
 19 20  1  0  0  0  0
 19 43  1  0  0  0  0
 20 21  2  0  0  0  0
 21 22  1  0  0  0  0
 22 23  2  0  0  0  0
 22 44  1  0  0  0  0
 23 24  1  0  0  0  0
 24 25  1  0  0  0  0
 25 26  1  0  0  0  0
 25 45  1  0  0  0  0
 25 46  1  0  0  0  0
 26 27  1  0  0  0  0
 26 47  1  0  0  0  0
 26 48  1  0  0  0  0
 27 28  1  0  0  0  0
 27 49  1  0  0  0  0
 27 50  1  0  0  0  0
 28 29  1  0  0  0  0
 28 33  1  0  0  0  0
 28 51  1  0  0  0  0
 29 30  1  0  0  0  0
 29 52  1  0  0  0  0
 29 53  1  0  0  0  0
 30 31  1  0  0  0  0
 30 54  1  0  0  0  0
 30 55  1  0  0  0  0
 31 32  1  0  0  0  0
 31 56  1  0  0  0  0
 31 57  1  0  0  0  0
 32 33  1  0  0  0  0
 32 58  1  0  0  0  0
 32 59  1  0  0  0  0
 33 60  1  0  0  0  0
 33 61  1  0  0  0  0
M  CHG  1  28   1
M  END
