2w05_ligand
 OpenBabel08222323343D

 56 58  0  0  0  0  0  0  0  0999 V2000
   -0.6120   29.7420    8.1750 C   0  0  0  0  0  0  0  0  0  0  0  0
    0.3870   29.0570    7.5420 N   0  0  0  0  0  0  0  0  0  0  0  0
    1.2800   29.7190    6.7870 C   0  0  0  0  0  0  0  0  0  0  0  0
    1.2800   31.0390    6.5910 N   0  0  0  0  0  0  0  0  0  0  0  0
    0.3220   31.7720    7.1860 C   0  0  0  0  0  0  0  0  0  0  0  0
   -0.6740   31.1800    8.0040 C   0  0  0  0  0  0  0  0  0  0  0  0
    2.2870   28.8850    6.1710 N   0  0  0  0  0  0  0  0  0  0  0  0
    3.0700   27.7270    6.5550 C   0  0  0  0  0  0  0  0  0  0  0  0
    2.9200   27.0490    7.8080 C   0  0  0  0  0  0  0  0  0  0  0  0
    3.7200   25.9270    8.1180 C   0  0  0  0  0  0  0  0  0  0  0  0
    4.6730   25.4830    7.1750 C   0  0  0  0  0  0  0  0  0  0  0  0
    4.8470   26.1280    5.9280 C   0  0  0  0  0  0  0  0  0  0  0  0
    4.0420   27.2530    5.6210 C   0  0  0  0  0  0  0  0  0  0  0  0
    5.6590   24.1120    7.5580 S   0  0  0  0  0  0  0  0  0  0  0  0
    4.7450   23.0880    8.6240 N   0  0  0  0  0  0  0  0  0  0  0  0
    4.2800   21.8560    7.9530 C   0  0  0  0  0  0  0  0  0  0  0  0
    3.4970   20.9690    8.9230 C   0  0  0  0  0  0  0  0  0  0  0  0
    3.0660   19.7760    8.2400 O   0  0  0  0  0  0  0  0  0  0  0  0
    2.3130   18.8540    9.0630 C   0  0  0  0  0  0  0  0  0  0  0  0
   -1.5680   29.0270    8.9950 C   0  0  0  0  0  0  0  0  0  0  0  0
   -1.3470   27.8240    9.7550 N   0  0  0  0  0  0  0  0  0  0  0  0
   -2.6540   27.6920   10.3070 C   0  0  0  0  0  0  0  0  0  0  0  0
   -3.6280   28.6070   10.0110 N   0  0  0  0  0  0  0  0  0  0  0  0
   -2.9270   29.4440    9.1830 C   0  0  0  0  0  0  0  0  0  0  0  0
   -0.0740   26.9880    9.9180 C   0  0  0  0  0  0  0  0  0  0  0  0
    0.4320   26.9880   11.3740 C   0  0  0  0  0  0  0  0  0  0  0  0
   -0.2660   25.5370    9.4020 C   0  0  0  0  0  0  0  0  0  0  0  0
   -3.1040   26.5640   11.2600 C   0  0  0  0  0  0  0  0  0  0  0  0
    6.0130   23.3090    6.2270 O   0  0  0  0  0  0  0  0  0  0  0  0
    6.9850   24.5790    8.3040 O   0  0  0  0  0  0  0  0  0  0  0  0
    0.3108   32.8455    7.0361 H   0  0  0  0  0  0  0  0  0  0  0  0
   -1.4455   31.7751    8.4791 H   0  0  0  0  0  0  0  0  0  0  0  0
    2.5042   29.1927    5.2123 H   0  0  0  0  0  0  0  0  0  0  0  0
    2.1862   27.4001    8.5244 H   0  0  0  0  0  0  0  0  0  0  0  0
    3.6042   25.4141    9.0660 H   0  0  0  0  0  0  0  0  0  0  0  0
    5.5838   25.7677    5.2192 H   0  0  0  0  0  0  0  0  0  0  0  0
    4.1646   27.7582    4.6698 H   0  0  0  0  0  0  0  0  0  0  0  0
    4.5555   23.3071    9.5811 H   0  0  0  0  0  0  0  0  0  0  0  0
    5.1514   21.2988    7.5787 H   0  0  0  0  0  0  0  0  0  0  0  0
    3.6293   22.1290    7.1092 H   0  0  0  0  0  0  0  0  0  0  0  0
    2.6183   21.5172    9.2937 H   0  0  0  0  0  0  0  0  0  0  0  0
    4.1419   20.6938    9.7705 H   0  0  0  0  0  0  0  0  0  0  0  0
    2.0266   17.9773    8.4635 H   0  0  0  0  0  0  0  0  0  0  0  0
    1.4075   19.3531    9.4385 H   0  0  0  0  0  0  0  0  0  0  0  0
    2.9325   18.5307    9.9125 H   0  0  0  0  0  0  0  0  0  0  0  0
   -3.3558   30.3304    8.7178 H   0  0  0  0  0  0  0  0  0  0  0  0
    0.7048   27.4573    9.2990 H   0  0  0  0  0  0  0  0  0  0  0  0
    1.3445   26.3778   11.4450 H   0  0  0  0  0  0  0  0  0  0  0  0
   -0.3428   26.5668   12.0315 H   0  0  0  0  0  0  0  0  0  0  0  0
    0.6555   28.0193   11.6845 H   0  0  0  0  0  0  0  0  0  0  0  0
    0.6687   24.9731    9.5372 H   0  0  0  0  0  0  0  0  0  0  0  0
   -0.5295   25.5594    8.3343 H   0  0  0  0  0  0  0  0  0  0  0  0
   -1.0732   25.0501    9.9688 H   0  0  0  0  0  0  0  0  0  0  0  0
   -4.1608   26.7103   11.5280 H   0  0  0  0  0  0  0  0  0  0  0  0
   -2.4882   26.5863   12.1712 H   0  0  0  0  0  0  0  0  0  0  0  0
   -2.9838   25.5917   10.7599 H   0  0  0  0  0  0  0  0  0  0  0  0
  1  2  2  0  0  0  0
  1  6  1  0  0  0  0
  1 20  1  0  0  0  0
  2  3  1  0  0  0  0
  3  4  2  0  0  0  0
  3  7  1  0  0  0  0
  4  5  1  0  0  0  0
  5  6  2  0  0  0  0
  5 31  1  0  0  0  0
  6 32  1  0  0  0  0
  7  8  1  0  0  0  0
  7 33  1  0  0  0  0
  8  9  2  0  0  0  0
  8 13  1  0  0  0  0
  9 10  1  0  0  0  0
  9 34  1  0  0  0  0
 10 11  2  0  0  0  0
 10 35  1  0  0  0  0
 11 12  1  0  0  0  0
 11 14  1  0  0  0  0
 12 13  2  0  0  0  0
 12 36  1  0  0  0  0
 13 37  1  0  0  0  0
 14 15  1  0  0  0  0
 14 29  2  0  0  0  0
 14 30  2  0  0  0  0
 15 16  1  0  0  0  0
 15 38  1  0  0  0  0
 16 17  1  0  0  0  0
 16 39  1  0  0  0  0
 16 40  1  0  0  0  0
 17 18  1  0  0  0  0
 17 41  1  0  0  0  0
 17 42  1  0  0  0  0
 18 19  1  0  0  0  0
 19 43  1  0  0  0  0
 19 44  1  0  0  0  0
 19 45  1  0  0  0  0
 20 21  1  0  0  0  0
 20 24  2  0  0  0  0
 21 22  1  0  0  0  0
 21 25  1  0  0  0  0
 22 23  2  0  0  0  0
 22 28  1  0  0  0  0
 23 24  1  0  0  0  0
 24 46  1  0  0  0  0
 25 26  1  0  0  0  0
 25 27  1  0  0  0  0
 25 47  1  0  0  0  0
 26 48  1  0  0  0  0
 26 49  1  0  0  0  0
 26 50  1  0  0  0  0
 27 51  1  0  0  0  0
 27 52  1  0  0  0  0
 27 53  1  0  0  0  0
 28 54  1  0  0  0  0
 28 55  1  0  0  0  0
 28 56  1  0  0  0  0
M  END
