2w06_ligand
 OpenBabel08222323343D

 47 50  0  0  0  0  0  0  0  0999 V2000
    4.8570   29.1990    6.0270 C   0  0  0  0  0  0  0  0  0  0  0  0
   -1.4650   29.7980   10.6100 N   0  0  0  0  0  0  0  0  0  0  0  0
   -2.6740   30.6740   10.7880 C   0  0  0  0  0  0  0  0  0  0  0  0
   -1.3900   28.5640   11.2680 C   0  0  0  0  0  0  0  0  0  0  0  0
   -2.4390   27.9550   12.1840 C   0  0  0  0  0  0  0  0  0  0  0  0
   -3.3230   31.2010    9.5000 C   0  0  0  0  0  0  0  0  0  0  0  0
   -0.0590   32.2630    8.9010 C   0  0  0  0  0  0  0  0  0  0  0  0
    0.3340   30.9190    9.0050 C   0  0  0  0  0  0  0  0  0  0  0  0
   -0.2630   29.9100    9.9010 C   0  0  0  0  0  0  0  0  0  0  0  0
    0.4340   28.7370   10.1680 C   0  0  0  0  0  0  0  0  0  0  0  0
    0.6460   33.1060    8.0000 C   0  0  0  0  0  0  0  0  0  0  0  0
    3.8290   29.5840    6.9050 C   0  0  0  0  0  0  0  0  0  0  0  0
    2.0660   31.3000    7.3620 C   0  0  0  0  0  0  0  0  0  0  0  0
    1.3780   30.5030    8.2340 N   0  0  0  0  0  0  0  0  0  0  0  0
    4.5840   23.8680    7.7490 C   0  0  0  0  0  0  0  0  0  0  0  0
    3.5800   28.7730    8.0690 C   0  0  0  0  0  0  0  0  0  0  0  0
    4.3620   27.6270    8.3170 C   0  0  0  0  0  0  0  0  0  0  0  0
    5.4010   27.2700    7.4120 C   0  0  0  0  0  0  0  0  0  0  0  0
    6.8320   25.3280    6.4470 O   0  0  0  0  0  0  0  0  0  0  0  0
    6.3720   25.8750    7.7030 S   0  0  0  0  0  0  0  0  0  0  0  0
    7.5070   26.2770    8.5100 O   0  0  0  0  0  0  0  0  0  0  0  0
    5.4520   24.6480    8.5960 N   0  0  0  0  0  0  0  0  0  0  0  0
    5.6390   28.0530    6.2750 C   0  0  0  0  0  0  0  0  0  0  0  0
    3.0800   30.7470    6.6460 N   0  0  0  0  0  0  0  0  0  0  0  0
    1.6730   32.5920    7.2770 N   0  0  0  0  0  0  0  0  0  0  0  0
   -0.2780   27.9560   10.9970 N   0  0  0  0  0  0  0  0  0  0  0  0
   -2.9320   32.1450   10.6420 C   0  0  0  0  0  0  0  0  0  0  0  0
    5.0520   29.7947    5.1426 H   0  0  0  0  0  0  0  0  0  0  0  0
   -3.2938   30.1793   11.5503 H   0  0  0  0  0  0  0  0  0  0  0  0
   -2.0869   26.9777   12.5458 H   0  0  0  0  0  0  0  0  0  0  0  0
   -3.3791   27.8233   11.6283 H   0  0  0  0  0  0  0  0  0  0  0  0
   -2.6101   28.6232   13.0409 H   0  0  0  0  0  0  0  0  0  0  0  0
   -4.3829   30.9954    9.2896 H   0  0  0  0  0  0  0  0  0  0  0  0
   -2.7566   31.2080    8.5571 H   0  0  0  0  0  0  0  0  0  0  0  0
   -0.8806   32.6484    9.4939 H   0  0  0  0  0  0  0  0  0  0  0  0
    1.4141   28.4878    9.7640 H   0  0  0  0  0  0  0  0  0  0  0  0
    0.3666   34.1477    7.8915 H   0  0  0  0  0  0  0  0  0  0  0  0
    4.0441   23.1287    8.3589 H   0  0  0  0  0  0  0  0  0  0  0  0
    5.1846   23.3475    6.9886 H   0  0  0  0  0  0  0  0  0  0  0  0
    3.8611   24.5327    7.2535 H   0  0  0  0  0  0  0  0  0  0  0  0
    2.7879   29.0452    8.7571 H   0  0  0  0  0  0  0  0  0  0  0  0
    4.1727   27.0192    9.1944 H   0  0  0  0  0  0  0  0  0  0  0  0
    5.5277   24.5117    9.5838 H   0  0  0  0  0  0  0  0  0  0  0  0
    6.4270   27.7766    5.5838 H   0  0  0  0  0  0  0  0  0  0  0  0
    3.3385   31.2536    5.7873 H   0  0  0  0  0  0  0  0  0  0  0  0
   -2.0882   32.8390   10.5143 H   0  0  0  0  0  0  0  0  0  0  0  0
   -3.7145   32.6265   11.2468 H   0  0  0  0  0  0  0  0  0  0  0  0
  1 12  2  0  0  0  0
  1 28  1  0  0  0  0
  2  3  1  0  0  0  0
  2  4  1  0  0  0  0
  3  6  1  0  0  0  0
  3 27  1  0  0  0  0
  3 29  1  0  0  0  0
  4  5  1  0  0  0  0
  5 30  1  0  0  0  0
  5 31  1  0  0  0  0
  5 32  1  0  0  0  0
  6 33  1  0  0  0  0
  6 34  1  0  0  0  0
  7 35  1  0  0  0  0
  8  7  2  0  0  0  0
  8  9  1  0  0  0  0
  9  2  1  0  0  0  0
  9 10  2  0  0  0  0
 10 26  1  0  0  0  0
 10 36  1  0  0  0  0
 11  7  1  0  0  0  0
 11 37  1  0  0  0  0
 12 24  1  0  0  0  0
 13 14  2  0  0  0  0
 13 25  1  0  0  0  0
 14  8  1  0  0  0  0
 15 38  1  0  0  0  0
 15 39  1  0  0  0  0
 15 40  1  0  0  0  0
 16 12  1  0  0  0  0
 16 41  1  0  0  0  0
 17 16  2  0  0  0  0
 17 42  1  0  0  0  0
 18 17  1  0  0  0  0
 18 23  2  0  0  0  0
 20 18  1  0  0  0  0
 20 19  2  0  0  0  0
 20 21  2  0  0  0  0
 20 22  1  0  0  0  0
 22 15  1  0  0  0  0
 22 43  1  0  0  0  0
 23  1  1  0  0  0  0
 23 44  1  0  0  0  0
 24 13  1  0  0  0  0
 24 45  1  0  0  0  0
 25 11  2  0  0  0  0
 26  4  2  0  0  0  0
 27  6  1  0  0  0  0
 27 46  1  0  0  0  0
 27 47  1  0  0  0  0
M  END
