2w0j_ligand
 OpenBabel08222323343D

 56 57  0  0  1  0  0  0  0  0999 V2000
   41.4160  -28.0480   -0.1660 N   0  0  0  0  0  0  0  0  0  0  0  0
   40.8920  -28.4310    1.0040 C   0  0  0  0  0  3  0  0  0  0  0  0
   40.3830  -27.5060    1.8270 N   0  0  0  0  0  0  0  0  0  0  0  0
   40.9140  -29.7350    1.3350 N   0  0  0  0  0  0  0  0  0  0  0  0
   40.4600  -30.0950    2.4220 N   0  0  0  0  0  0  0  0  0  0  0  0
   40.4070  -31.3320    2.9090 C   0  0  2  0  0  0  0  0  0  0  0  0
   40.8990  -32.5410    2.1060 C   0  0  0  0  0  0  0  0  0  0  0  0
   39.7360  -31.4320    4.1260 C   0  0  0  0  0  0  0  0  0  0  0  0
   39.8940  -30.4400    5.0910 C   0  0  0  0  0  0  0  0  0  0  0  0
   39.1810  -30.5170    6.2820 C   0  0  0  0  0  0  0  0  0  0  0  0
   38.8260  -32.4690    4.3510 C   0  0  0  0  0  0  0  0  0  0  0  0
   38.1120  -32.5600    5.5470 C   0  0  0  0  0  0  0  0  0  0  0  0
   38.2880  -31.5780    6.5210 C   0  0  0  0  0  0  0  0  0  0  0  0
   37.6450  -31.5640    7.7030 N   0  0  0  0  0  0  0  0  0  0  0  0
   37.0690  -32.6010    8.3470 C   0  0  0  0  0  0  0  0  0  0  0  0
   37.0270  -33.7560    7.8750 O   0  0  0  0  0  0  0  0  0  0  0  0
   36.5040  -32.2210    9.5300 N   0  0  0  0  0  0  0  0  0  0  0  0
   35.9090  -33.0090   10.4710 C   0  0  0  0  0  0  0  0  0  0  0  0
   35.5810  -34.3670   10.3280 C   0  0  0  0  0  0  0  0  0  0  0  0
   34.9960  -35.0630   11.3890 C   0  0  0  0  0  0  0  0  0  0  0  0
   35.6410  -32.3940   11.6970 C   0  0  0  0  0  0  0  0  0  0  0  0
   35.0630  -33.0910   12.7560 C   0  0  0  0  0  0  0  0  0  0  0  0
   34.7180  -34.4390   12.6210 C   0  0  0  0  0  0  0  0  0  0  0  0
   34.1270  -35.1110   13.7320 C   0  0  0  0  0  0  0  0  0  0  0  0
   33.3300  -36.4180   13.6250 C   0  0  0  0  0  0  0  0  0  0  0  0
   34.3360  -34.5680   14.9360 N   0  0  0  0  0  0  0  0  0  0  0  0
   33.9460  -35.0110   16.0280 N   0  0  0  0  0  0  0  0  0  0  0  0
   34.2300  -34.3560   17.1740 C   0  0  0  0  0  3  0  0  0  0  0  0
   33.7910  -34.7870   18.3390 N   0  0  0  0  0  0  0  0  0  0  0  0
   34.9560  -33.2450   17.1820 N   0  0  0  0  0  0  0  0  0  0  0  0
   41.4067  -27.0534   -0.4335 H   0  0  0  0  0  0  0  0  0  0  0  0
   41.8287  -28.7478   -0.7992 H   0  0  0  0  0  0  0  0  0  0  0  0
   39.9768  -27.7881    2.7305 H   0  0  0  0  0  0  0  0  0  0  0  0
   40.3976  -26.5122    1.5567 H   0  0  0  0  0  0  0  0  0  0  0  0
   41.3859  -31.2388    3.4020 H   0  0  0  0  0  0  0  0  0  0  0  0
   40.7605  -33.4565    2.6999 H   0  0  0  0  0  0  0  0  0  0  0  0
   41.9660  -32.4149    1.8701 H   0  0  0  0  0  0  0  0  0  0  0  0
   40.3236  -32.6195    1.1718 H   0  0  0  0  0  0  0  0  0  0  0  0
   40.5701  -29.6114    4.9141 H   0  0  0  0  0  0  0  0  0  0  0  0
   39.3147  -29.7499    7.0362 H   0  0  0  0  0  0  0  0  0  0  0  0
   38.6718  -33.2170    3.5817 H   0  0  0  0  0  0  0  0  0  0  0  0
   37.4288  -33.3844    5.7165 H   0  0  0  0  0  0  0  0  0  0  0  0
   37.5868  -30.6766    8.1603 H   0  0  0  0  0  0  0  0  0  0  0  0
   36.5295  -31.2420    9.7322 H   0  0  0  0  0  0  0  0  0  0  0  0
   35.7821  -34.8764    9.3925 H   0  0  0  0  0  0  0  0  0  0  0  0
   34.7496  -36.1108   11.2607 H   0  0  0  0  0  0  0  0  0  0  0  0
   35.8894  -31.3469   11.8275 H   0  0  0  0  0  0  0  0  0  0  0  0
   34.8787  -32.5822   13.6953 H   0  0  0  0  0  0  0  0  0  0  0  0
   32.9862  -36.7207   14.6251 H   0  0  0  0  0  0  0  0  0  0  0  0
   33.9722  -37.2057   13.2042 H   0  0  0  0  0  0  0  0  0  0  0  0
   32.4603  -36.2645   12.9692 H   0  0  0  0  0  0  0  0  0  0  0  0
   33.4017  -35.8848   16.0601 H   0  0  0  0  0  0  0  0  0  0  0  0
   34.0211  -34.2698   19.1995 H   0  0  0  0  0  0  0  0  0  0  0  0
   33.2177  -35.6412   18.3893 H   0  0  0  0  0  0  0  0  0  0  0  0
   35.3243  -32.8641   16.2987 H   0  0  0  0  0  0  0  0  0  0  0  0
   35.1512  -32.7637   18.0715 H   0  0  0  0  0  0  0  0  0  0  0  0
  1  2  1  0  0  0  0
  1 31  1  0  0  0  0
  1 32  1  0  0  0  0
  2  3  1  0  0  0  0
  2  4  1  0  0  0  0
  3 33  1  0  0  0  0
  3 34  1  0  0  0  0
  4  5  2  0  0  0  0
  5  6  1  0  0  0  0
  6  7  1  0  0  0  0
  6  8  1  0  0  0  0
  6 35  1  1  0  0  0
  7 36  1  0  0  0  0
  7 37  1  0  0  0  0
  7 38  1  0  0  0  0
  8  9  2  0  0  0  0
  8 11  1  0  0  0  0
  9 10  1  0  0  0  0
  9 39  1  0  0  0  0
 10 13  2  0  0  0  0
 10 40  1  0  0  0  0
 11 12  2  0  0  0  0
 11 41  1  0  0  0  0
 12 13  1  0  0  0  0
 12 42  1  0  0  0  0
 13 14  1  0  0  0  0
 14 15  1  0  0  0  0
 14 43  1  0  0  0  0
 15 16  2  0  0  0  0
 15 17  1  0  0  0  0
 17 18  1  0  0  0  0
 17 44  1  0  0  0  0
 18 19  2  0  0  0  0
 18 21  1  0  0  0  0
 19 20  1  0  0  0  0
 19 45  1  0  0  0  0
 20 23  2  0  0  0  0
 20 46  1  0  0  0  0
 21 22  2  0  0  0  0
 21 47  1  0  0  0  0
 22 23  1  0  0  0  0
 22 48  1  0  0  0  0
 23 24  1  0  0  0  0
 24 25  1  0  0  0  0
 24 26  2  0  0  0  0
 25 49  1  0  0  0  0
 25 50  1  0  0  0  0
 25 51  1  0  0  0  0
 26 27  1  0  0  0  0
 27 28  1  0  0  0  0
 27 52  1  0  0  0  0
 28 29  1  0  0  0  0
 28 30  1  0  0  0  0
 29 53  1  0  0  0  0
 29 54  1  0  0  0  0
 30 55  1  0  0  0  0
 30 56  1  0  0  0  0
M  END
