2w0s_ligand
 OpenBabel08222323343D

 37 38  0  0  1  0  0  0  0  0999 V2000
    4.2640    4.8280  -49.6280 O   0  0  0  0  0  0  0  0  0  0  0  0
    3.0380    4.3700  -50.1830 C   0  0  1  0  0  0  0  0  0  0  0  0
    2.8530    2.8560  -50.0660 C   0  0  0  0  0  0  0  0  0  0  0  0
    2.3230    2.7710  -48.6560 C   0  0  1  0  0  0  0  0  0  0  0  0
    1.2520    3.6990  -48.7120 O   0  0  0  0  0  0  0  0  0  0  0  0
    1.8870    4.8730  -49.2890 C   0  0  2  0  0  0  0  0  0  0  0  0
    0.8850    5.7800  -49.9840 C   0  0  0  0  0  0  0  0  0  0  0  0
    0.4000    5.1010  -51.1350 O   0  0  0  0  0  0  0  0  0  0  0  0
   -0.3280    5.8950  -52.3250 P   0  0  0  0  0  0  0  0  0  0  0  0
    0.8210    6.2430  -53.4560 O   0  0  0  0  0  1  0  0  0  0  0  0
   -1.2540    4.7360  -53.0270 O   0  0  0  0  0  1  0  0  0  0  0  0
   -1.0420    7.1150  -51.8810 O   0  0  0  0  0  0  0  0  0  0  0  0
    1.9680    1.4050  -48.1350 N   0  0  0  0  0  0  0  0  0  0  0  0
    2.5510    0.8120  -47.0210 C   0  0  0  0  0  0  0  0  0  0  0  0
    2.1460   -0.4790  -46.6680 C   0  0  0  0  0  0  0  0  0  0  0  0
    2.6520   -1.0980  -45.5240 C   0  0  0  0  0  0  0  0  0  0  0  0
    3.5800   -0.2370  -44.6390 C   0  0  0  0  0  0  0  0  0  0  0  0
    4.2140   -1.1030  -43.1340 Br  0  0  0  0  0  0  0  0  0  0  0  0
    1.1260   -1.1310  -47.3640 C   0  0  0  0  0  0  0  0  0  0  0  0
    0.7320   -2.2490  -47.0470 O   0  0  0  0  0  0  0  0  0  0  0  0
    0.5410   -0.5350  -48.4500 N   0  0  0  0  0  0  0  0  0  0  0  0
    1.0010    0.7350  -48.8080 C   0  0  0  0  0  0  0  0  0  0  0  0
    0.4790    1.2620  -49.7890 O   0  0  0  0  0  0  0  0  0  0  0  0
    4.3234    5.7708  -49.7290 H   0  0  0  0  0  0  0  0  0  0  0  0
    2.9437    4.7095  -51.2250 H   0  0  0  0  0  0  0  0  0  0  0  0
    3.8056    2.3175  -50.1782 H   0  0  0  0  0  0  0  0  0  0  0  0
    2.1275    2.4745  -50.7995 H   0  0  0  0  0  0  0  0  0  0  0  0
    3.0922    3.1590  -47.9721 H   0  0  0  0  0  0  0  0  0  0  0  0
    2.3313    5.4606  -48.4722 H   0  0  0  0  0  0  0  0  0  0  0  0
    1.3758    6.7178  -50.2834 H   0  0  0  0  0  0  0  0  0  0  0  0
    0.0501    6.0040  -49.3037 H   0  0  0  0  0  0  0  0  0  0  0  0
    3.3043    1.3397  -46.4378 H   0  0  0  0  0  0  0  0  0  0  0  0
    3.2203   -1.9836  -45.8446 H   0  0  0  0  0  0  0  0  0  0  0  0
    1.7978   -1.4139  -44.9072 H   0  0  0  0  0  0  0  0  0  0  0  0
    3.0192    0.6519  -44.3144 H   0  0  0  0  0  0  0  0  0  0  0  0
    4.4427    0.0751  -45.2459 H   0  0  0  0  0  0  0  0  0  0  0  0
   -0.1853   -0.9900  -48.9653 H   0  0  0  0  0  0  0  0  0  0  0  0
  1  2  1  0  0  0  0
  1 24  1  0  0  0  0
  2  3  1  0  0  0  0
  2  6  1  0  0  0  0
  2 25  1  6  0  0  0
  3  4  1  0  0  0  0
  3 26  1  0  0  0  0
  3 27  1  0  0  0  0
  4  5  1  0  0  0  0
  4 13  1  0  0  0  0
  4 28  1  1  0  0  0
  5  6  1  0  0  0  0
  6  7  1  0  0  0  0
  6 29  1  1  0  0  0
  7  8  1  0  0  0  0
  7 30  1  0  0  0  0
  7 31  1  0  0  0  0
  8  9  1  0  0  0  0
  9 10  1  0  0  0  0
  9 11  1  0  0  0  0
  9 12  2  0  0  0  0
 13 14  1  0  0  0  0
 13 22  1  0  0  0  0
 14 15  2  0  0  0  0
 14 32  1  0  0  0  0
 15 16  1  0  0  0  0
 15 19  1  0  0  0  0
 16 17  1  0  0  0  0
 16 33  1  0  0  0  0
 16 34  1  0  0  0  0
 17 18  1  0  0  0  0
 17 35  1  0  0  0  0
 17 36  1  0  0  0  0
 19 20  2  0  0  0  0
 19 21  1  0  0  0  0
 21 22  1  0  0  0  0
 21 37  1  0  0  0  0
 22 23  2  0  0  0  0
M  END
