2w17_ligand
 OpenBabel08222323343D

 64 67  0  0  1  0  0  0  0  0999 V2000
    0.1740   28.2800   11.7090 C   0  0  0  0  0  0  0  0  0  0  0  0
   -0.2090   28.2300   10.2440 C   0  0  0  0  0  0  0  0  0  0  0  0
   -0.2970   26.8120    9.7030 C   0  0  0  0  0  0  0  0  0  0  0  0
   -1.4180   29.0130   10.0590 N   0  0  0  0  0  0  0  0  0  0  0  0
   -2.5870   28.7460   10.6610 C   0  0  0  0  0  0  0  0  0  0  0  0
   -2.9190   27.6210   11.5880 C   0  0  0  0  0  0  0  0  0  0  0  0
   -3.4340   29.6980   10.2750 N   0  0  0  0  0  0  0  0  0  0  0  0
   -2.8300   30.5940    9.4110 C   0  0  0  0  0  0  0  0  0  0  0  0
   -1.5290   30.1630    9.2640 C   0  0  0  0  0  0  0  0  0  0  0  0
   -0.4980   30.8190    8.3970 C   0  0  0  0  0  0  0  0  0  0  0  0
    0.4720   30.0520    7.8830 N   0  0  0  0  0  0  0  0  0  0  0  0
    1.3930   30.6570    7.1190 C   0  0  0  0  0  0  0  0  0  0  0  0
    2.4590   29.9560    6.5220 N   0  0  0  0  0  0  0  0  0  0  0  0
    3.1760   28.8200    6.9340 C   0  0  0  0  0  0  0  0  0  0  0  0
    2.9520   28.1620    8.1230 C   0  0  0  0  0  0  0  0  0  0  0  0
    3.7040   27.0540    8.4590 C   0  0  0  0  0  0  0  0  0  0  0  0
    4.6780   26.6030    7.5880 C   0  0  0  0  0  0  0  0  0  0  0  0
    4.9410   27.2450    6.3910 C   0  0  0  0  0  0  0  0  0  0  0  0
    4.1700   28.3550    6.0870 C   0  0  0  0  0  0  0  0  0  0  0  0
    5.5040   25.4540    7.9260 C   0  0  0  0  0  0  0  0  0  0  0  0
    6.7090   25.6620    7.9600 O   0  0  0  0  0  0  0  0  0  0  0  0
    4.9450   24.2200    8.1530 N   0  0  0  0  0  0  0  0  0  0  0  0
    3.6290   23.9730    8.6780 C   0  0  0  0  0  0  0  0  0  0  0  0
    3.6590   22.5010    9.0750 C   0  0  0  0  0  0  0  0  0  0  0  0
    5.1240   22.1200    9.2560 C   0  0  1  0  0  0  0  0  0  0  0  0
    5.8920   23.2030    8.5510 C   0  0  0  0  0  0  0  0  0  0  0  0
    5.5400   22.1920   10.6970 N   0  3  0  0  0  0  0  0  0  0  0  0
    4.4970   21.8010   11.6840 C   0  0  0  0  0  0  0  0  0  0  0  0
    6.7650   21.3790   10.9480 C   0  0  0  0  0  0  0  0  0  0  0  0
    1.3850   31.9680    6.8370 N   0  0  0  0  0  0  0  0  0  0  0  0
    0.4110   32.7080    7.3590 C   0  0  0  0  0  0  0  0  0  0  0  0
   -0.5610   32.1790    8.1540 C   0  0  0  0  0  0  0  0  0  0  0  0
   -1.5010   33.0050    8.6410 F   0  0  0  0  0  0  0  0  0  0  0  0
    1.0894   27.6914   11.8689 H   0  0  0  0  0  0  0  0  0  0  0  0
   -0.6421   27.8609   12.3159 H   0  0  0  0  0  0  0  0  0  0  0  0
    0.3529   29.3240   12.0058 H   0  0  0  0  0  0  0  0  0  0  0  0
    0.5910   28.7282    9.6768 H   0  0  0  0  0  0  0  0  0  0  0  0
   -0.5775   26.8420    8.6398 H   0  0  0  0  0  0  0  0  0  0  0  0
   -1.0567   26.2509   10.2669 H   0  0  0  0  0  0  0  0  0  0  0  0
    0.6795   26.3172    9.8108 H   0  0  0  0  0  0  0  0  0  0  0  0
   -3.9710   27.7007   11.8992 H   0  0  0  0  0  0  0  0  0  0  0  0
   -2.2696   27.6724   12.4743 H   0  0  0  0  0  0  0  0  0  0  0  0
   -2.7608   26.6622   11.0725 H   0  0  0  0  0  0  0  0  0  0  0  0
   -3.2891   31.4632    8.9423 H   0  0  0  0  0  0  0  0  0  0  0  0
    2.7688   30.3467    5.6207 H   0  0  0  0  0  0  0  0  0  0  0  0
    2.1814   28.5158    8.7984 H   0  0  0  0  0  0  0  0  0  0  0  0
    3.5319   26.5416    9.3987 H   0  0  0  0  0  0  0  0  0  0  0  0
    5.7169   26.8945    5.7200 H   0  0  0  0  0  0  0  0  0  0  0  0
    4.3501   28.8780    5.1547 H   0  0  0  0  0  0  0  0  0  0  0  0
    2.8618   24.1553    7.9111 H   0  0  0  0  0  0  0  0  0  0  0  0
    3.4315   24.6097    9.5530 H   0  0  0  0  0  0  0  0  0  0  0  0
    3.2035   21.8867    8.2843 H   0  0  0  0  0  0  0  0  0  0  0  0
    3.1105   22.3521   10.0168 H   0  0  0  0  0  0  0  0  0  0  0  0
    5.3288   21.1234    8.8380 H   0  0  0  0  0  0  0  0  0  0  0  0
    6.6424   23.6339    9.2301 H   0  0  0  0  0  0  0  0  0  0  0  0
    6.3945   22.7901    7.6638 H   0  0  0  0  0  0  0  0  0  0  0  0
    5.7690   23.1565   10.8793 H   0  0  0  0  0  0  0  0  0  0  0  0
    4.9041   21.8894   12.7021 H   0  0  0  0  0  0  0  0  0  0  0  0
    4.1904   20.7606   11.5008 H   0  0  0  0  0  0  0  0  0  0  0  0
    3.6256   22.4640   11.5788 H   0  0  0  0  0  0  0  0  0  0  0  0
    7.5450   21.6583   10.2244 H   0  0  0  0  0  0  0  0  0  0  0  0
    6.5259   20.3112   10.8354 H   0  0  0  0  0  0  0  0  0  0  0  0
    7.1276   21.5679   11.9692 H   0  0  0  0  0  0  0  0  0  0  0  0
    0.3896   33.7703    7.1443 H   0  0  0  0  0  0  0  0  0  0  0  0
  1  2  1  0  0  0  0
  1 34  1  0  0  0  0
  1 35  1  0  0  0  0
  1 36  1  0  0  0  0
  2  3  1  0  0  0  0
  2  4  1  0  0  0  0
  2 37  1  0  0  0  0
  3 38  1  0  0  0  0
  3 39  1  0  0  0  0
  3 40  1  0  0  0  0
  4  5  1  0  0  0  0
  4  9  1  0  0  0  0
  5  6  1  0  0  0  0
  5  7  2  0  0  0  0
  6 41  1  0  0  0  0
  6 42  1  0  0  0  0
  6 43  1  0  0  0  0
  7  8  1  0  0  0  0
  8  9  2  0  0  0  0
  8 44  1  0  0  0  0
  9 10  1  0  0  0  0
 10 11  2  0  0  0  0
 10 32  1  0  0  0  0
 11 12  1  0  0  0  0
 12 13  1  0  0  0  0
 12 30  2  0  0  0  0
 13 14  1  0  0  0  0
 13 45  1  0  0  0  0
 14 15  2  0  0  0  0
 14 19  1  0  0  0  0
 15 16  1  0  0  0  0
 15 46  1  0  0  0  0
 16 17  2  0  0  0  0
 16 47  1  0  0  0  0
 17 18  1  0  0  0  0
 17 20  1  0  0  0  0
 18 19  2  0  0  0  0
 18 48  1  0  0  0  0
 19 49  1  0  0  0  0
 20 21  2  0  0  0  0
 20 22  1  0  0  0  0
 22 23  1  0  0  0  0
 22 26  1  0  0  0  0
 23 24  1  0  0  0  0
 23 50  1  0  0  0  0
 23 51  1  0  0  0  0
 24 25  1  0  0  0  0
 24 52  1  0  0  0  0
 24 53  1  0  0  0  0
 25 26  1  0  0  0  0
 25 27  1  0  0  0  0
 25 54  1  6  0  0  0
 26 55  1  0  0  0  0
 26 56  1  0  0  0  0
 27 28  1  0  0  0  0
 27 29  1  0  0  0  0
 27 57  1  0  0  0  0
 28 58  1  0  0  0  0
 28 59  1  0  0  0  0
 28 60  1  0  0  0  0
 29 61  1  0  0  0  0
 29 62  1  0  0  0  0
 29 63  1  0  0  0  0
 30 31  1  0  0  0  0
 31 32  2  0  0  0  0
 31 64  1  0  0  0  0
 32 33  1  0  0  0  0
M  CHG  1  27   1
M  END
