2w1d_ligand
 OpenBabel08222323343D

 22 24  0  0  0  0  0  0  0  0999 V2000
    4.9080   30.2520    8.7380 C   0  0  0  0  0  0  0  0  0  0  0  0
    4.7160   30.5820    7.4530 C   0  0  0  0  0  0  0  0  0  0  0  0
    3.9710   31.7240    7.4420 C   0  0  0  0  0  0  0  0  0  0  0  0
    3.6900   32.1090    8.6910 N   0  0  0  0  0  0  0  0  0  0  0  0
    4.2830   31.1830    9.4740 N   0  0  0  0  0  0  0  0  0  0  0  0
    3.4860   32.4790    6.3070 C   0  0  0  0  0  0  0  0  0  0  0  0
    3.7280   32.2120    5.0390 N   0  0  0  0  0  0  0  0  0  0  0  0
    3.0860   33.1480    4.2840 C   0  0  0  0  0  0  0  0  0  0  0  0
    3.0100   33.3360    2.9130 C   0  0  0  0  0  0  0  0  0  0  0  0
    2.2790   34.3830    2.3990 C   0  0  0  0  0  0  0  0  0  0  0  0
    1.6160   35.2490    3.2440 C   0  0  0  0  0  0  0  0  0  0  0  0
    1.6830   35.0730    4.6040 C   0  0  0  0  0  0  0  0  0  0  0  0
    2.4180   34.0220    5.1330 C   0  0  0  0  0  0  0  0  0  0  0  0
    2.6930   33.5700    6.3860 N   0  0  0  0  0  0  0  0  0  0  0  0
    5.4641   29.3937    9.1121 H   0  0  0  0  0  0  0  0  0  0  0  0
    5.0850   30.0408    6.5830 H   0  0  0  0  0  0  0  0  0  0  0  0
    4.2587   31.1904   10.5037 H   0  0  0  0  0  0  0  0  0  0  0  0
    3.5271   32.6574    2.2443 H   0  0  0  0  0  0  0  0  0  0  0  0
    2.2240   34.5277    1.3261 H   0  0  0  0  0  0  0  0  0  0  0  0
    1.0406   36.0706    2.8330 H   0  0  0  0  0  0  0  0  0  0  0  0
    1.1612   35.7557    5.2649 H   0  0  0  0  0  0  0  0  0  0  0  0
    2.3498   33.9938    7.2598 H   0  0  0  0  0  0  0  0  0  0  0  0
  1  2  2  0  0  0  0
  1  5  1  0  0  0  0
  1 15  1  0  0  0  0
  2  3  1  0  0  0  0
  2 16  1  0  0  0  0
  3  4  2  0  0  0  0
  3  6  1  0  0  0  0
  4  5  1  0  0  0  0
  5 17  1  0  0  0  0
  6  7  2  0  0  0  0
  6 14  1  0  0  0  0
  7  8  1  0  0  0  0
  8  9  2  0  0  0  0
  8 13  1  0  0  0  0
  9 10  1  0  0  0  0
  9 18  1  0  0  0  0
 10 11  2  0  0  0  0
 10 19  1  0  0  0  0
 11 12  1  0  0  0  0
 11 20  1  0  0  0  0
 12 13  2  0  0  0  0
 12 21  1  0  0  0  0
 13 14  1  0  0  0  0
 14 22  1  0  0  0  0
M  END
