2w1e_ligand
 OpenBabel08222323343D

 55 59  0  0  0  0  0  0  0  0999 V2000
    6.1920   27.9070    7.4150 O   0  0  0  0  0  0  0  0  0  0  0  0
    6.0800   28.6130    6.4410 C   0  0  0  0  0  0  0  0  0  0  0  0
    5.4680   29.8270    6.4700 N   0  0  0  0  0  0  0  0  0  0  0  0
    4.9320   30.4670    7.5660 C   0  0  0  0  0  0  0  0  0  0  0  0
    5.0930   30.2110    8.8800 C   0  0  0  0  0  0  0  0  0  0  0  0
    4.3590   31.1170    9.5470 N   0  0  0  0  0  0  0  0  0  0  0  0
    3.7240   31.9580    8.7110 N   0  0  0  0  0  0  0  0  0  0  0  0
    4.0820   31.5580    7.5160 C   0  0  0  0  0  0  0  0  0  0  0  0
    3.5510   32.2530    6.3790 C   0  0  0  0  0  0  0  0  0  0  0  0
    3.5270   31.8030    5.1660 N   0  0  0  0  0  0  0  0  0  0  0  0
    2.9390   32.7270    4.3840 C   0  0  0  0  0  0  0  0  0  0  0  0
    2.6750   32.7420    3.0270 C   0  0  0  0  0  0  0  0  0  0  0  0
    2.0410   33.8300    2.4360 C   0  0  0  0  0  0  0  0  0  0  0  0
    1.7620   33.8390    0.9550 C   0  0  0  0  0  0  0  0  0  0  0  0
    2.8000   34.6160    0.1980 N   0  3  0  0  0  0  0  0  0  0  0  0
    4.1090   33.9100    0.2080 C   0  0  0  0  0  0  0  0  0  0  0  0
    5.1170   34.7170   -0.5850 C   0  0  0  0  0  0  0  0  0  0  0  0
    5.2630   36.0500   -0.0540 O   0  0  0  0  0  0  0  0  0  0  0  0
    4.0010   36.7310   -0.0600 C   0  0  0  0  0  0  0  0  0  0  0  0
    2.9800   35.9780    0.7690 C   0  0  0  0  0  0  0  0  0  0  0  0
    1.6800   34.9170    3.2430 C   0  0  0  0  0  0  0  0  0  0  0  0
    1.9430   34.9000    4.5960 C   0  0  0  0  0  0  0  0  0  0  0  0
    2.5730   33.8090    5.1700 C   0  0  0  0  0  0  0  0  0  0  0  0
    2.9740   33.4660    6.4190 N   0  0  0  0  0  0  0  0  0  0  0  0
    6.5840   28.1950    5.2390 N   0  0  0  0  0  0  0  0  0  0  0  0
    6.5360   28.8740    3.9860 C   0  0  0  0  0  0  0  0  0  0  0  0
    6.0380   28.2370    2.8620 C   0  0  0  0  0  0  0  0  0  0  0  0
    5.9920   28.8960    1.6570 C   0  0  0  0  0  0  0  0  0  0  0  0
    6.4400   30.1860    1.5600 C   0  0  0  0  0  0  0  0  0  0  0  0
    6.9370   30.8260    2.6620 C   0  0  0  0  0  0  0  0  0  0  0  0
    6.9890   30.1800    3.8720 C   0  0  0  0  0  0  0  0  0  0  0  0
    5.3992   30.3099    5.5970 H   0  0  0  0  0  0  0  0  0  0  0  0
    5.7017   29.4208    9.3170 H   0  0  0  0  0  0  0  0  0  0  0  0
    4.2907   31.1622   10.5737 H   0  0  0  0  0  0  0  0  0  0  0  0
    2.9657   31.8952    2.4158 H   0  0  0  0  0  0  0  0  0  0  0  0
    0.7771   34.2967    0.7808 H   0  0  0  0  0  0  0  0  0  0  0  0
    1.7548   32.8022    0.5875 H   0  0  0  0  0  0  0  0  0  0  0  0
    2.4903   34.7066   -0.7569 H   0  0  0  0  0  0  0  0  0  0  0  0
    3.9940   32.9154   -0.2476 H   0  0  0  0  0  0  0  0  0  0  0  0
    4.4597   33.8001    1.2448 H   0  0  0  0  0  0  0  0  0  0  0  0
    4.7790   34.7836   -1.6297 H   0  0  0  0  0  0  0  0  0  0  0  0
    6.0916   34.2084   -0.5466 H   0  0  0  0  0  0  0  0  0  0  0  0
    3.6381   36.8091   -1.0955 H   0  0  0  0  0  0  0  0  0  0  0  0
    4.1332   37.7393    0.3593 H   0  0  0  0  0  0  0  0  0  0  0  0
    3.3346   35.8985    1.8072 H   0  0  0  0  0  0  0  0  0  0  0  0
    2.0206   36.5156    0.7494 H   0  0  0  0  0  0  0  0  0  0  0  0
    1.1906   35.7771    2.8004 H   0  0  0  0  0  0  0  0  0  0  0  0
    1.6555   35.7438    5.2127 H   0  0  0  0  0  0  0  0  0  0  0  0
    2.8553   34.0432    7.2638 H   0  0  0  0  0  0  0  0  0  0  0  0
    7.0413   27.3057    5.2396 H   0  0  0  0  0  0  0  0  0  0  0  0
    5.6833   27.2151    2.9328 H   0  0  0  0  0  0  0  0  0  0  0  0
    5.5998   28.3929    0.7806 H   0  0  0  0  0  0  0  0  0  0  0  0
    6.4008   30.7016    0.6073 H   0  0  0  0  0  0  0  0  0  0  0  0
    7.2911   31.8472    2.5794 H   0  0  0  0  0  0  0  0  0  0  0  0
    7.3854   30.6922    4.7413 H   0  0  0  0  0  0  0  0  0  0  0  0
  1  2  2  0  0  0  0
  2  3  1  0  0  0  0
  2 25  1  0  0  0  0
  3  4  1  0  0  0  0
  3 32  1  0  0  0  0
  4  5  2  0  0  0  0
  4  8  1  0  0  0  0
  5  6  1  0  0  0  0
  5 33  1  0  0  0  0
  6  7  1  0  0  0  0
  6 34  1  0  0  0  0
  7  8  2  0  0  0  0
  8  9  1  0  0  0  0
  9 10  2  0  0  0  0
  9 24  1  0  0  0  0
 10 11  1  0  0  0  0
 11 12  2  0  0  0  0
 11 23  1  0  0  0  0
 12 13  1  0  0  0  0
 12 35  1  0  0  0  0
 13 14  1  0  0  0  0
 13 21  2  0  0  0  0
 14 15  1  0  0  0  0
 14 36  1  0  0  0  0
 14 37  1  0  0  0  0
 15 16  1  0  0  0  0
 15 20  1  0  0  0  0
 15 38  1  0  0  0  0
 16 17  1  0  0  0  0
 16 39  1  0  0  0  0
 16 40  1  0  0  0  0
 17 18  1  0  0  0  0
 17 41  1  0  0  0  0
 17 42  1  0  0  0  0
 18 19  1  0  0  0  0
 19 20  1  0  0  0  0
 19 43  1  0  0  0  0
 19 44  1  0  0  0  0
 20 45  1  0  0  0  0
 20 46  1  0  0  0  0
 21 22  1  0  0  0  0
 21 47  1  0  0  0  0
 22 23  2  0  0  0  0
 22 48  1  0  0  0  0
 23 24  1  0  0  0  0
 24 49  1  0  0  0  0
 25 26  1  0  0  0  0
 25 50  1  0  0  0  0
 26 27  2  0  0  0  0
 26 31  1  0  0  0  0
 27 28  1  0  0  0  0
 27 51  1  0  0  0  0
 28 29  2  0  0  0  0
 28 52  1  0  0  0  0
 29 30  1  0  0  0  0
 29 53  1  0  0  0  0
 30 31  2  0  0  0  0
 30 54  1  0  0  0  0
 31 55  1  0  0  0  0
M  CHG  1  15   1
M  END
