2w1f_ligand
 OpenBabel08222323343D

 36 39  0  0  0  0  0  0  0  0999 V2000
    5.8270   27.9170    7.0700 O   0  0  0  0  0  0  0  0  0  0  0  0
    5.9200   28.7440    6.1860 C   0  0  0  0  0  0  0  0  0  0  0  0
    5.5910   30.0460    6.3770 N   0  0  0  0  0  0  0  0  0  0  0  0
    5.0010   30.5790    7.4880 C   0  0  0  0  0  0  0  0  0  0  0  0
    5.1520   30.2540    8.7980 C   0  0  0  0  0  0  0  0  0  0  0  0
    4.3500   31.0720    9.4960 N   0  0  0  0  0  0  0  0  0  0  0  0
    3.6820   31.9180    8.6870 N   0  0  0  0  0  0  0  0  0  0  0  0
    4.0800   31.6120    7.4690 C   0  0  0  0  0  0  0  0  0  0  0  0
    3.5410   32.3510    6.3540 C   0  0  0  0  0  0  0  0  0  0  0  0
    3.5740   31.9760    5.0860 N   0  0  0  0  0  0  0  0  0  0  0  0
    2.9600   32.9500    4.3490 C   0  0  0  0  0  0  0  0  0  0  0  0
    2.7220   33.0660    2.9890 C   0  0  0  0  0  0  0  0  0  0  0  0
    2.0680   34.1710    2.4950 C   0  0  0  0  0  0  0  0  0  0  0  0
    1.6450   35.1660    3.3500 C   0  0  0  0  0  0  0  0  0  0  0  0
    1.8700   35.0630    4.7010 C   0  0  0  0  0  0  0  0  0  0  0  0
    2.5300   33.9580    5.2140 C   0  0  0  0  0  0  0  0  0  0  0  0
    2.9140   33.5460    6.4530 N   0  0  0  0  0  0  0  0  0  0  0  0
    6.4080   28.3560    4.8230 C   0  0  0  0  0  0  0  0  0  0  0  0
    6.6050   29.3200    3.8280 C   0  0  0  0  0  0  0  0  0  0  0  0
    7.0520   28.9460    2.5840 C   0  0  0  0  0  0  0  0  0  0  0  0
    7.3060   27.6200    2.3110 C   0  0  0  0  0  0  0  0  0  0  0  0
    7.1160   26.6600    3.2840 C   0  0  0  0  0  0  0  0  0  0  0  0
    6.6710   27.0200    4.5310 C   0  0  0  0  0  0  0  0  0  0  0  0
    5.8010   30.6780    5.6311 H   0  0  0  0  0  0  0  0  0  0  0  0
    5.7997   29.4783    9.2038 H   0  0  0  0  0  0  0  0  0  0  0  0
    4.2565   31.0556   10.5216 H   0  0  0  0  0  0  0  0  0  0  0  0
    3.0515   32.2850    2.3133 H   0  0  0  0  0  0  0  0  0  0  0  0
    1.8848   34.2594    1.4302 H   0  0  0  0  0  0  0  0  0  0  0  0
    1.1318   36.0348    2.9539 H   0  0  0  0  0  0  0  0  0  0  0  0
    1.5305   35.8478    5.3673 H   0  0  0  0  0  0  0  0  0  0  0  0
    2.7526   34.0630    7.3291 H   0  0  0  0  0  0  0  0  0  0  0  0
    6.4045   30.3641    4.0393 H   0  0  0  0  0  0  0  0  0  0  0  0
    7.2051   29.6956    1.8160 H   0  0  0  0  0  0  0  0  0  0  0  0
    7.6567   27.3292    1.3274 H   0  0  0  0  0  0  0  0  0  0  0  0
    7.3189   25.6185    3.0625 H   0  0  0  0  0  0  0  0  0  0  0  0
    6.5236   26.2618    5.2916 H   0  0  0  0  0  0  0  0  0  0  0  0
  1  2  2  0  0  0  0
  2  3  1  0  0  0  0
  2 18  1  0  0  0  0
  3  4  1  0  0  0  0
  3 24  1  0  0  0  0
  4  5  2  0  0  0  0
  4  8  1  0  0  0  0
  5  6  1  0  0  0  0
  5 25  1  0  0  0  0
  6  7  1  0  0  0  0
  6 26  1  0  0  0  0
  7  8  2  0  0  0  0
  8  9  1  0  0  0  0
  9 10  2  0  0  0  0
  9 17  1  0  0  0  0
 10 11  1  0  0  0  0
 11 12  2  0  0  0  0
 11 16  1  0  0  0  0
 12 13  1  0  0  0  0
 12 27  1  0  0  0  0
 13 14  2  0  0  0  0
 13 28  1  0  0  0  0
 14 15  1  0  0  0  0
 14 29  1  0  0  0  0
 15 16  2  0  0  0  0
 15 30  1  0  0  0  0
 16 17  1  0  0  0  0
 17 31  1  0  0  0  0
 18 19  2  0  0  0  0
 18 23  1  0  0  0  0
 19 20  1  0  0  0  0
 19 32  1  0  0  0  0
 20 21  2  0  0  0  0
 20 33  1  0  0  0  0
 21 22  1  0  0  0  0
 21 34  1  0  0  0  0
 22 23  2  0  0  0  0
 22 35  1  0  0  0  0
 23 36  1  0  0  0  0
M  END
