2w1i_ligand
 OpenBabel08222323343D

 52 56  0  0  0  0  0  0  0  0999 V2000
   37.8580    6.2900   -2.7790 O   0  0  0  0  0  0  0  0  0  0  0  0
   38.3810    5.2270   -3.0200 C   0  0  0  0  0  0  0  0  0  0  0  0
   37.8160    4.1040   -3.4810 N   0  0  0  0  0  0  0  0  0  0  0  0
   37.1980    3.9520   -4.7680 C   0  0  0  0  0  0  0  0  0  0  0  0
   38.1420    3.3430   -5.7540 C   0  0  0  0  0  0  0  0  0  0  0  0
   36.9990    2.5450   -5.2390 C   0  0  0  0  0  0  0  0  0  0  0  0
   39.6070    4.8750   -2.6720 N   0  0  0  0  0  0  0  0  0  0  0  0
   40.6800    5.5810   -2.2070 C   0  0  0  0  0  0  0  0  0  0  0  0
   40.7800    6.6870   -1.4250 C   0  0  0  0  0  0  0  0  0  0  0  0
   42.0880    6.8980   -1.2370 N   0  0  0  0  0  0  0  0  0  0  0  0
   42.8380    5.9550   -1.8540 N   0  0  0  0  0  0  0  0  0  0  0  0
   41.9640    5.1370   -2.4350 C   0  0  0  0  0  0  0  0  0  0  0  0
   42.3470    3.9770   -3.1980 C   0  0  0  0  0  0  0  0  0  0  0  0
   41.5380    3.2510   -3.9720 N   0  0  0  0  0  0  0  0  0  0  0  0
   42.2980    2.2720   -4.4860 C   0  0  0  0  0  0  0  0  0  0  0  0
   41.9830    1.2390   -5.3590 C   0  0  0  0  0  0  0  0  0  0  0  0
   42.9790    0.3590   -5.7320 C   0  0  0  0  0  0  0  0  0  0  0  0
   44.2920    0.4820   -5.2720 C   0  0  0  0  0  0  0  0  0  0  0  0
   45.3370   -0.5370   -5.6840 C   0  0  0  0  0  0  0  0  0  0  0  0
   46.4320   -0.1010   -6.6170 N   0  3  0  0  0  0  0  0  0  0  0  0
   47.3170    0.9700   -6.0390 C   0  0  0  0  0  0  0  0  0  0  0  0
   48.5030    1.3100   -6.9430 C   0  0  0  0  0  0  0  0  0  0  0  0
   49.2300    0.1570   -7.4200 O   0  0  0  0  0  0  0  0  0  0  0  0
   48.3410   -0.8010   -8.0250 C   0  0  0  0  0  0  0  0  0  0  0  0
   47.2570   -1.2740   -7.0610 C   0  0  0  0  0  0  0  0  0  0  0  0
   44.6120    1.5120   -4.3950 C   0  0  0  0  0  0  0  0  0  0  0  0
   43.6050    2.3940   -4.0220 C   0  0  0  0  0  0  0  0  0  0  0  0
   43.6010    3.4810   -3.1940 N   0  0  0  0  0  0  0  0  0  0  0  0
   37.8252    3.3053   -2.8793 H   0  0  0  0  0  0  0  0  0  0  0  0
   36.4925    4.7603   -5.0105 H   0  0  0  0  0  0  0  0  0  0  0  0
   39.1686    3.0922   -5.4488 H   0  0  0  0  0  0  0  0  0  0  0  0
   38.1440    3.6888   -6.7982 H   0  0  0  0  0  0  0  0  0  0  0  0
   36.1558    2.3014   -5.9020 H   0  0  0  0  0  0  0  0  0  0  0  0
   37.1803    1.7048   -4.5526 H   0  0  0  0  0  0  0  0  0  0  0  0
   39.7843    3.8956   -2.7686 H   0  0  0  0  0  0  0  0  0  0  0  0
   39.9591    7.2834   -1.0297 H   0  0  0  0  0  0  0  0  0  0  0  0
   42.4758    7.6805   -0.6909 H   0  0  0  0  0  0  0  0  0  0  0  0
   40.9745    1.1259   -5.7402 H   0  0  0  0  0  0  0  0  0  0  0  0
   42.7338   -0.4550   -6.4046 H   0  0  0  0  0  0  0  0  0  0  0  0
   44.8063   -1.3682   -6.1714 H   0  0  0  0  0  0  0  0  0  0  0  0
   45.8189   -0.8989   -4.7638 H   0  0  0  0  0  0  0  0  0  0  0  0
   45.9877    0.2879   -7.4340 H   0  0  0  0  0  0  0  0  0  0  0  0
   47.7026    0.6220   -5.0693 H   0  0  0  0  0  0  0  0  0  0  0  0
   46.7166    1.8796   -5.8899 H   0  0  0  0  0  0  0  0  0  0  0  0
   49.1983    1.9465   -6.3760 H   0  0  0  0  0  0  0  0  0  0  0  0
   48.1253    1.8650   -7.8144 H   0  0  0  0  0  0  0  0  0  0  0  0
   48.9284   -1.6718   -8.3516 H   0  0  0  0  0  0  0  0  0  0  0  0
   47.8597   -0.3352   -8.8976 H   0  0  0  0  0  0  0  0  0  0  0  0
   46.6104   -2.0057   -7.5675 H   0  0  0  0  0  0  0  0  0  0  0  0
   47.7264   -1.7443   -6.1844 H   0  0  0  0  0  0  0  0  0  0  0  0
   45.6200    1.6242   -4.0124 H   0  0  0  0  0  0  0  0  0  0  0  0
   44.4042    3.8516   -2.6664 H   0  0  0  0  0  0  0  0  0  0  0  0
  1  2  2  0  0  0  0
  2  3  1  0  0  0  0
  2  7  1  0  0  0  0
  3  4  1  0  0  0  0
  3 29  1  0  0  0  0
  4  5  1  0  0  0  0
  4  6  1  0  0  0  0
  4 30  1  0  0  0  0
  5  6  1  0  0  0  0
  5 31  1  0  0  0  0
  5 32  1  0  0  0  0
  6 33  1  0  0  0  0
  6 34  1  0  0  0  0
  7  8  1  0  0  0  0
  7 35  1  0  0  0  0
  8  9  2  0  0  0  0
  8 12  1  0  0  0  0
  9 10  1  0  0  0  0
  9 36  1  0  0  0  0
 10 11  1  0  0  0  0
 10 37  1  0  0  0  0
 11 12  2  0  0  0  0
 12 13  1  0  0  0  0
 13 14  2  0  0  0  0
 13 28  1  0  0  0  0
 14 15  1  0  0  0  0
 15 16  2  0  0  0  0
 15 27  1  0  0  0  0
 16 17  1  0  0  0  0
 16 38  1  0  0  0  0
 17 18  2  0  0  0  0
 17 39  1  0  0  0  0
 18 19  1  0  0  0  0
 18 26  1  0  0  0  0
 19 20  1  0  0  0  0
 19 40  1  0  0  0  0
 19 41  1  0  0  0  0
 20 21  1  0  0  0  0
 20 25  1  0  0  0  0
 20 42  1  0  0  0  0
 21 22  1  0  0  0  0
 21 43  1  0  0  0  0
 21 44  1  0  0  0  0
 22 23  1  0  0  0  0
 22 45  1  0  0  0  0
 22 46  1  0  0  0  0
 23 24  1  0  0  0  0
 24 25  1  0  0  0  0
 24 47  1  0  0  0  0
 24 48  1  0  0  0  0
 25 49  1  0  0  0  0
 25 50  1  0  0  0  0
 26 27  2  0  0  0  0
 26 51  1  0  0  0  0
 27 28  1  0  0  0  0
 28 52  1  0  0  0  0
M  CHG  1  20   1
M  END
