2w2u_ligand
 OpenBabel08222323343D

187191  0  0  1  0  0  0  0  0999 V2000
   20.9910   -3.5290   53.2590 N   0  3  0  0  0  0  0  0  0  0  0  0
   21.6330   -3.8050   51.9370 C   0  0  2  0  0  0  0  0  0  0  0  0
   21.5870   -2.5730   51.0330 C   0  0  0  0  0  0  0  0  0  0  0  0
   20.6330   -1.7980   51.0660 O   0  0  0  0  0  0  0  0  0  0  0  0
   20.9870   -5.0140   51.2410 C   0  0  0  0  0  0  0  0  0  0  0  0
   21.5820   -5.3360   49.8650 C   0  0  0  0  0  0  0  0  0  0  0  0
   21.1050   -6.6770   49.3240 C   0  0  0  0  0  0  0  0  0  0  0  0
   21.7160   -6.9860   48.0280 N   0  0  0  0  0  0  0  0  0  0  0  0
   21.2280   -6.6040   46.8500 C   0  0  0  0  0  3  0  0  0  0  0  0
   20.1160   -5.8770   46.7880 N   0  0  0  0  0  0  0  0  0  0  0  0
   21.8550   -6.9410   45.7290 N   0  0  0  0  0  0  0  0  0  0  0  0
   22.6290   -2.4150   50.2240 N   0  0  0  0  0  0  0  0  0  0  0  0
   22.7990   -1.2440   49.3840 C   0  0  2  0  0  0  0  0  0  0  0  0
   23.1460   -1.6770   47.9670 C   0  0  0  0  0  0  0  0  0  0  0  0
   23.6110   -2.7990   47.7460 O   0  0  0  0  0  0  0  0  0  0  0  0
   23.9230   -0.3820   49.9540 C   0  0  0  0  0  0  0  0  0  0  0  0
   23.6550    1.1040   49.9340 C   0  0  0  0  0  0  0  0  0  0  0  0
   24.6480    1.8760   50.7850 C   0  0  0  0  0  0  0  0  0  0  0  0
   24.6540    1.6900   52.0190 O   0  5  0  0  0  0  0  0  0  0  0  0
   25.4220    2.6740   50.2200 O   0  0  0  0  0  0  0  0  0  0  0  0
   22.9060   -0.7950   47.0040 N   0  0  0  0  0  0  0  0  0  0  0  0
   23.3270   -1.0490   45.6300 C   0  0  2  0  0  0  0  0  0  0  0  0
   24.7280   -0.4940   45.4130 C   0  0  0  0  0  0  0  0  0  0  0  0
   24.9890    0.6770   45.6860 O   0  0  0  0  0  0  0  0  0  0  0  0
   22.3190   -0.4750   44.6320 C   0  0  0  0  0  0  0  0  0  0  0  0
   20.9400   -1.1450   44.6740 C   0  0  0  0  0  0  0  0  0  0  0  0
   20.0160   -0.5950   43.6090 C   0  0  0  0  0  0  0  0  0  0  0  0
   21.0920   -2.6520   44.5190 C   0  0  0  0  0  0  0  0  0  0  0  0
   25.6300   -1.3620   44.9580 N   0  0  0  0  0  0  0  0  0  0  0  0
   27.0420   -1.0180   44.7760 C   0  0  2  0  0  0  0  0  0  0  0  0
   27.5090   -1.5760   43.4320 C   0  0  0  0  0  0  0  0  0  0  0  0
   27.6800   -2.7900   43.2930 O   0  0  0  0  0  0  0  0  0  0  0  0
   27.9000   -1.5900   45.9150 C   0  0  0  0  0  0  0  0  0  0  0  0
   27.4790   -1.3960   47.3800 C   0  0  0  0  0  0  0  0  0  0  0  0
   28.1220   -2.4670   48.2630 C   0  0  0  0  0  0  0  0  0  0  0  0
   27.8250    0.0000   47.9020 C   0  0  0  0  0  0  0  0  0  0  0  0
   27.7050   -0.6970   42.4290 N   0  0  0  0  0  0  0  0  0  0  0  0
   27.6220    0.7580   42.5280 C   0  0  2  0  0  0  0  0  0  0  0  0
   26.1890    1.3050   42.5420 C   0  0  0  0  0  0  0  0  0  0  0  0
   25.2560    0.6490   42.0740 O   0  0  0  0  0  0  0  0  0  0  0  0
   28.3570    1.2310   41.2710 C   0  0  0  0  0  0  0  0  0  0  0  0
   28.1340    0.1550   40.2850 C   0  0  0  0  0  0  0  0  0  0  0  0
   28.0230   -1.1360   41.0570 C   0  0  0  0  0  0  0  0  0  0  0  0
   26.0560    2.5090   43.0890 N   0  0  0  0  0  0  0  0  0  0  0  0
   24.8230    3.2850   43.1330 C   0  0  2  0  0  0  0  0  0  0  0  0
   24.1480    3.3790   41.7600 C   0  0  0  0  0  0  0  0  0  0  0  0
   24.8290    3.4410   40.7280 O   0  0  0  0  0  0  0  0  0  0  0  0
   25.1890    4.6950   43.5940 C   0  0  0  0  0  0  0  0  0  0  0  0
   24.2240    5.3710   44.5370 C   0  0  0  0  0  0  0  0  0  0  0  0
   24.7200    6.7530   44.9740 C   0  0  0  0  0  0  0  0  0  0  0  0
   24.7020    7.0300   46.1890 O   0  5  0  0  0  0  0  0  0  0  0  0
   25.1360    7.5580   44.1100 O   0  0  0  0  0  0  0  0  0  0  0  0
   22.8150    3.3830   41.7470 N   0  0  0  0  0  0  0  0  0  0  0  0
   22.0650    3.7500   40.5420 C   0  0  2  0  0  0  0  0  0  0  0  0
   22.2600    5.2490   40.2980 C   0  0  0  0  0  0  0  0  0  0  0  0
   22.2130    6.0370   41.2510 O   0  0  0  0  0  0  0  0  0  0  0  0
   20.5710    3.4250   40.6800 C   0  0  0  0  0  0  0  0  0  0  0  0
   20.1170    1.9580   40.7530 C   0  0  0  0  0  0  0  0  0  0  0  0
   18.6510    1.8510   41.1470 C   0  0  0  0  0  0  0  0  0  0  0  0
   20.3690    1.2080   39.4470 C   0  0  0  0  0  0  0  0  0  0  0  0
   22.4920    5.6470   39.0300 N   0  0  0  0  0  0  0  0  0  0  0  0
   22.7490    7.0590   38.7430 C   0  0  2  0  0  0  0  0  0  0  0  0
   21.5430    7.9680   38.9930 C   0  0  0  0  0  0  0  0  0  0  0  0
   20.3990    7.6030   38.6930 O   0  0  0  0  0  0  0  0  0  0  0  0
   23.1240    7.0570   37.2570 C   0  0  0  0  0  0  0  0  0  0  0  0
   22.5200    5.8250   36.7030 C   0  0  0  0  0  0  0  0  0  0  0  0
   22.5400    4.8180   37.8100 C   0  0  0  0  0  0  0  0  0  0  0  0
   21.8130    9.1360   39.5640 N   0  0  0  0  0  0  0  0  0  0  0  0
   20.8020   10.1560   39.7540 C   0  0  2  0  0  0  0  0  0  0  0  0
   20.6100   10.8750   38.4280 C   0  0  0  0  0  0  0  0  0  0  0  0
   21.5690   11.0190   37.6590 O   0  0  0  0  0  0  0  0  0  0  0  0
   21.2290   11.1550   40.8340 C   0  0  0  0  0  0  0  0  0  0  0  0
   21.4460   10.5360   42.1810 C   0  0  0  0  0  0  0  0  0  0  0  0
   20.4150   10.0430   42.9500 N   0  0  0  0  0  0  0  0  0  0  0  0
   22.5780   10.3400   42.8990 C   0  0  0  0  0  0  0  0  0  0  0  0
   20.9020    9.5660   44.0810 C   0  0  0  0  0  0  0  0  0  0  0  0
   22.2110    9.7410   44.0790 N   0  0  0  0  0  0  0  0  0  0  0  0
   19.3660   11.3000   38.1360 N   0  0  0  0  0  0  0  0  0  0  0  0
   19.1190   12.1250   36.9550 C   0  0  2  0  0  0  0  0  0  0  0  0
   19.8080   13.4870   37.0710 C   0  0  0  0  0  0  0  0  0  0  0  0
   20.0710   13.9430   38.1920 O   0  0  0  0  0  0  0  0  0  0  0  0
   17.5940   12.2900   36.9550 C   0  0  0  0  0  0  0  0  0  0  0  0
   17.1720   12.0210   38.3380 C   0  0  0  0  0  0  0  0  0  0  0  0
   18.1230   11.0100   38.8710 C   0  0  0  0  0  0  0  0  0  0  0  0
   20.1160   14.1260   35.9230 N   0  0  0  0  0  0  0  0  0  0  0  0
   20.6820   15.4790   35.8690 C   0  0  2  0  0  0  0  0  0  0  0  0
   20.0330   16.4480   36.8490 C   0  0  0  0  0  0  0  0  0  0  0  0
   18.8240   16.3860   37.0610 O   0  0  0  0  0  0  0  0  0  0  0  0
   20.3730   15.9120   34.4400 C   0  0  0  0  0  0  0  0  0  0  0  0
   20.4700   14.6490   33.6630 C   0  0  0  0  0  0  0  0  0  0  0  0
   19.9600   13.5570   34.5680 C   0  0  0  0  0  0  0  0  0  0  0  0
   21.0354   -4.3562   53.8333 H   0  0  0  0  0  0  0  0  0  0  0  0
   20.0273   -3.2700   53.1170 H   0  0  0  0  0  0  0  0  0  0  0  0
   21.4775   -2.7749   53.7179 H   0  0  0  0  0  0  0  0  0  0  0  0
   22.6896   -4.0483   52.1222 H   0  0  0  0  0  0  0  0  0  0  0  0
   19.9143   -4.8067   51.1135 H   0  0  0  0  0  0  0  0  0  0  0  0
   21.1160   -5.8944   51.8877 H   0  0  0  0  0  0  0  0  0  0  0  0
   22.6783   -5.3601   49.9514 H   0  0  0  0  0  0  0  0  0  0  0  0
   21.2870   -4.5456   49.1591 H   0  0  0  0  0  0  0  0  0  0  0  0
   20.0120   -6.6450   49.2044 H   0  0  0  0  0  0  0  0  0  0  0  0
   21.3724   -7.4666   50.0416 H   0  0  0  0  0  0  0  0  0  0  0  0
   22.5854   -7.5384   48.0289 H   0  0  0  0  0  0  0  0  0  0  0  0
   19.7426   -5.5840   45.8739 H   0  0  0  0  0  0  0  0  0  0  0  0
   19.6283   -5.6070   47.6541 H   0  0  0  0  0  0  0  0  0  0  0  0
   22.7166   -7.5039   45.7701 H   0  0  0  0  0  0  0  0  0  0  0  0
   21.4797   -6.6395   44.8184 H   0  0  0  0  0  0  0  0  0  0  0  0
   23.3248   -3.1326   50.1927 H   0  0  0  0  0  0  0  0  0  0  0  0
   21.8644   -0.6641   49.3689 H   0  0  0  0  0  0  0  0  0  0  0  0
   24.8326   -0.5734   49.3659 H   0  0  0  0  0  0  0  0  0  0  0  0
   24.0907   -0.6852   50.9980 H   0  0  0  0  0  0  0  0  0  0  0  0
   22.6409    1.2866   50.3191 H   0  0  0  0  0  0  0  0  0  0  0  0
   23.7233    1.4627   48.8964 H   0  0  0  0  0  0  0  0  0  0  0  0
   22.4295    0.0563   47.2236 H   0  0  0  0  0  0  0  0  0  0  0  0
   23.3656   -2.1378   45.4780 H   0  0  0  0  0  0  0  0  0  0  0  0
   22.7301   -0.5955   43.6188 H   0  0  0  0  0  0  0  0  0  0  0  0
   22.1890    0.5953   44.8502 H   0  0  0  0  0  0  0  0  0  0  0  0
   20.4888   -0.9400   45.6560 H   0  0  0  0  0  0  0  0  0  0  0  0
   19.0410   -1.1001   43.6731 H   0  0  0  0  0  0  0  0  0  0  0  0
   20.4554   -0.7707   42.6160 H   0  0  0  0  0  0  0  0  0  0  0  0
   19.8800    0.4855   43.7639 H   0  0  0  0  0  0  0  0  0  0  0  0
   21.7657   -3.0348   45.2998 H   0  0  0  0  0  0  0  0  0  0  0  0
   21.5131   -2.8781   43.5283 H   0  0  0  0  0  0  0  0  0  0  0  0
   20.1071   -3.1319   44.6171 H   0  0  0  0  0  0  0  0  0  0  0  0
   25.3302   -2.2886   44.7308 H   0  0  0  0  0  0  0  0  0  0  0  0
   27.1472    0.0769   44.7700 H   0  0  0  0  0  0  0  0  0  0  0  0
   28.8996   -1.1425   45.8122 H   0  0  0  0  0  0  0  0  0  0  0  0
   27.9650   -2.6751   45.7466 H   0  0  0  0  0  0  0  0  0  0  0  0
   26.3869   -1.5150   47.4352 H   0  0  0  0  0  0  0  0  0  0  0  0
   27.8120   -2.3156   49.3075 H   0  0  0  0  0  0  0  0  0  0  0  0
   29.2171   -2.3925   48.1911 H   0  0  0  0  0  0  0  0  0  0  0  0
   27.7992   -3.4629   47.9254 H   0  0  0  0  0  0  0  0  0  0  0  0
   27.3564    0.7588   47.2580 H   0  0  0  0  0  0  0  0  0  0  0  0
   28.9167    0.1348   47.8928 H   0  0  0  0  0  0  0  0  0  0  0  0
   27.4506    0.1101   48.9304 H   0  0  0  0  0  0  0  0  0  0  0  0
   28.1382    1.1033   43.4359 H   0  0  0  0  0  0  0  0  0  0  0  0
   29.4310    1.3568   41.4728 H   0  0  0  0  0  0  0  0  0  0  0  0
   27.9378    2.1818   40.9102 H   0  0  0  0  0  0  0  0  0  0  0  0
   28.9800    0.1041   39.5839 H   0  0  0  0  0  0  0  0  0  0  0  0
   27.2052    0.3416   39.7260 H   0  0  0  0  0  0  0  0  0  0  0  0
   27.2192   -1.7678   40.6511 H   0  0  0  0  0  0  0  0  0  0  0  0
   28.9728   -1.6903   41.0328 H   0  0  0  0  0  0  0  0  0  0  0  0
   26.8692    2.9162   43.5048 H   0  0  0  0  0  0  0  0  0  0  0  0
   24.1256    2.8225   43.8469 H   0  0  0  0  0  0  0  0  0  0  0  0
   25.2769    5.3266   42.6977 H   0  0  0  0  0  0  0  0  0  0  0  0
   26.1643    4.6379   44.0995 H   0  0  0  0  0  0  0  0  0  0  0  0
   24.0991    4.7402   45.4295 H   0  0  0  0  0  0  0  0  0  0  0  0
   23.2543    5.4858   44.0305 H   0  0  0  0  0  0  0  0  0  0  0  0
   22.3164    3.1305   42.5762 H   0  0  0  0  0  0  0  0  0  0  0  0
   22.4672    3.1879   39.6862 H   0  0  0  0  0  0  0  0  0  0  0  0
   20.0650    3.8732   39.8123 H   0  0  0  0  0  0  0  0  0  0  0  0
   20.2214    3.9139   41.6013 H   0  0  0  0  0  0  0  0  0  0  0  0
   20.7124    1.4684   41.5377 H   0  0  0  0  0  0  0  0  0  0  0  0
   18.3593    0.7913   41.1899 H   0  0  0  0  0  0  0  0  0  0  0  0
   18.0320    2.3718   40.4016 H   0  0  0  0  0  0  0  0  0  0  0  0
   18.5020    2.3125   42.1343 H   0  0  0  0  0  0  0  0  0  0  0  0
   21.4312    1.2934   39.1742 H   0  0  0  0  0  0  0  0  0  0  0  0
   19.7494    1.6430   38.6489 H   0  0  0  0  0  0  0  0  0  0  0  0
   20.1080    0.1474   39.5770 H   0  0  0  0  0  0  0  0  0  0  0  0
   23.5904    7.4186   39.3536 H   0  0  0  0  0  0  0  0  0  0  0  0
   24.2171    7.0383   37.1356 H   0  0  0  0  0  0  0  0  0  0  0  0
   22.7145    7.9460   36.7552 H   0  0  0  0  0  0  0  0  0  0  0  0
   23.1085    5.4629   35.8471 H   0  0  0  0  0  0  0  0  0  0  0  0
   21.4859    6.0181   36.3815 H   0  0  0  0  0  0  0  0  0  0  0  0
   21.6661    4.1525   37.7521 H   0  0  0  0  0  0  0  0  0  0  0  0
   23.4610    4.2174   37.7786 H   0  0  0  0  0  0  0  0  0  0  0  0
   22.7464    9.3178   39.8735 H   0  0  0  0  0  0  0  0  0  0  0  0
   19.8568    9.6823   40.0576 H   0  0  0  0  0  0  0  0  0  0  0  0
   20.4450   11.9209   40.9270 H   0  0  0  0  0  0  0  0  0  0  0  0
   22.1689   11.6292   40.5152 H   0  0  0  0  0  0  0  0  0  0  0  0
   23.5895   10.6074   42.5970 H   0  0  0  0  0  0  0  0  0  0  0  0
   20.3223    9.1062   44.8801 H   0  0  0  0  0  0  0  0  0  0  0  0
   22.8523    9.4720   44.8388 H   0  0  0  0  0  0  0  0  0  0  0  0
   19.4623   11.6168   36.0418 H   0  0  0  0  0  0  0  0  0  0  0  0
   17.1291   11.5713   36.2641 H   0  0  0  0  0  0  0  0  0  0  0  0
   17.3176   13.3131   36.6604 H   0  0  0  0  0  0  0  0  0  0  0  0
   16.1458   11.6251   38.3537 H   0  0  0  0  0  0  0  0  0  0  0  0
   17.2189   12.9422   38.9373 H   0  0  0  0  0  0  0  0  0  0  0  0
   18.2664   11.1355   39.9543 H   0  0  0  0  0  0  0  0  0  0  0  0
   17.7708    9.9888   38.6636 H   0  0  0  0  0  0  0  0  0  0  0  0
   21.7661   15.4512   36.0532 H   0  0  0  0  0  0  0  0  0  0  0  0
   20.6391   17.1942   37.3607 H   0  0  0  0  0  0  0  0  0  0  0  0
   21.1087   16.6488   34.0851 H   0  0  0  0  0  0  0  0  0  0  0  0
   19.3621   16.3399   34.3692 H   0  0  0  0  0  0  0  0  0  0  0  0
   21.5154   14.4538   33.3819 H   0  0  0  0  0  0  0  0  0  0  0  0
   19.8518   14.7115   32.7553 H   0  0  0  0  0  0  0  0  0  0  0  0
   18.9043   13.3323   34.3557 H   0  0  0  0  0  0  0  0  0  0  0  0
   20.5596   12.6417   34.4551 H   0  0  0  0  0  0  0  0  0  0  0  0
  1  2  1  0  0  0  0
  1 92  1  0  0  0  0
  1 93  1  0  0  0  0
  1 94  1  0  0  0  0
  2  3  1  0  0  0  0
  2  5  1  0  0  0  0
  2 95  1  1  0  0  0
  3  4  2  0  0  0  0
  3 12  1  0  0  0  0
  5  6  1  0  0  0  0
  5 96  1  0  0  0  0
  5 97  1  0  0  0  0
  6  7  1  0  0  0  0
  6 98  1  0  0  0  0
  6 99  1  0  0  0  0
  7  8  1  0  0  0  0
  7100  1  0  0  0  0
  7101  1  0  0  0  0
  8  9  1  0  0  0  0
  8102  1  0  0  0  0
  9 10  1  0  0  0  0
  9 11  1  0  0  0  0
 10103  1  0  0  0  0
 10104  1  0  0  0  0
 11105  1  0  0  0  0
 11106  1  0  0  0  0
 12 13  1  0  0  0  0
 12107  1  0  0  0  0
 13 14  1  0  0  0  0
 13 16  1  0  0  0  0
 13108  1  6  0  0  0
 14 15  2  0  0  0  0
 14 21  1  0  0  0  0
 16 17  1  0  0  0  0
 16109  1  0  0  0  0
 16110  1  0  0  0  0
 17 18  1  0  0  0  0
 17111  1  0  0  0  0
 17112  1  0  0  0  0
 18 19  1  0  0  0  0
 18 20  2  0  0  0  0
 21 22  1  0  0  0  0
 21113  1  0  0  0  0
 22 23  1  0  0  0  0
 22 25  1  0  0  0  0
 22114  1  6  0  0  0
 23 24  2  0  0  0  0
 23 29  1  0  0  0  0
 25 26  1  0  0  0  0
 25115  1  0  0  0  0
 25116  1  0  0  0  0
 26 27  1  0  0  0  0
 26 28  1  0  0  0  0
 26117  1  0  0  0  0
 27118  1  0  0  0  0
 27119  1  0  0  0  0
 27120  1  0  0  0  0
 28121  1  0  0  0  0
 28122  1  0  0  0  0
 28123  1  0  0  0  0
 29 30  1  0  0  0  0
 29124  1  0  0  0  0
 30 31  1  0  0  0  0
 30 33  1  0  0  0  0
 30125  1  6  0  0  0
 31 32  2  0  0  0  0
 31 37  1  0  0  0  0
 33 34  1  0  0  0  0
 33126  1  0  0  0  0
 33127  1  0  0  0  0
 34 35  1  0  0  0  0
 34 36  1  0  0  0  0
 34128  1  0  0  0  0
 35129  1  0  0  0  0
 35130  1  0  0  0  0
 35131  1  0  0  0  0
 36132  1  0  0  0  0
 36133  1  0  0  0  0
 36134  1  0  0  0  0
 37 38  1  0  0  0  0
 37 43  1  0  0  0  0
 38 39  1  0  0  0  0
 38 41  1  0  0  0  0
 38135  1  1  0  0  0
 39 40  2  0  0  0  0
 39 44  1  0  0  0  0
 41 42  1  0  0  0  0
 41136  1  0  0  0  0
 41137  1  0  0  0  0
 42 43  1  0  0  0  0
 42138  1  0  0  0  0
 42139  1  0  0  0  0
 43140  1  0  0  0  0
 43141  1  0  0  0  0
 44 45  1  0  0  0  0
 44142  1  0  0  0  0
 45 46  1  0  0  0  0
 45 48  1  0  0  0  0
 45143  1  1  0  0  0
 46 47  2  0  0  0  0
 46 53  1  0  0  0  0
 48 49  1  0  0  0  0
 48144  1  0  0  0  0
 48145  1  0  0  0  0
 49 50  1  0  0  0  0
 49146  1  0  0  0  0
 49147  1  0  0  0  0
 50 51  1  0  0  0  0
 50 52  2  0  0  0  0
 53 54  1  0  0  0  0
 53148  1  0  0  0  0
 54 55  1  0  0  0  0
 54 57  1  0  0  0  0
 54149  1  6  0  0  0
 55 56  2  0  0  0  0
 55 61  1  0  0  0  0
 57 58  1  0  0  0  0
 57150  1  0  0  0  0
 57151  1  0  0  0  0
 58 59  1  0  0  0  0
 58 60  1  0  0  0  0
 58152  1  0  0  0  0
 59153  1  0  0  0  0
 59154  1  0  0  0  0
 59155  1  0  0  0  0
 60156  1  0  0  0  0
 60157  1  0  0  0  0
 60158  1  0  0  0  0
 61 62  1  0  0  0  0
 61 67  1  0  0  0  0
 62 63  1  0  0  0  0
 62 65  1  0  0  0  0
 62159  1  1  0  0  0
 63 64  2  0  0  0  0
 63 68  1  0  0  0  0
 65 66  1  0  0  0  0
 65160  1  0  0  0  0
 65161  1  0  0  0  0
 66 67  1  0  0  0  0
 66162  1  0  0  0  0
 66163  1  0  0  0  0
 67164  1  0  0  0  0
 67165  1  0  0  0  0
 68 69  1  0  0  0  0
 68166  1  0  0  0  0
 69 70  1  0  0  0  0
 69 72  1  0  0  0  0
 69167  1  1  0  0  0
 70 71  2  0  0  0  0
 70 78  1  0  0  0  0
 72 73  1  0  0  0  0
 72168  1  0  0  0  0
 72169  1  0  0  0  0
 73 74  1  0  0  0  0
 73 75  2  0  0  0  0
 74 76  2  0  0  0  0
 75 77  1  0  0  0  0
 75170  1  0  0  0  0
 76 77  1  0  0  0  0
 76171  1  0  0  0  0
 77172  1  0  0  0  0
 78 79  1  0  0  0  0
 78 84  1  0  0  0  0
 79 80  1  0  0  0  0
 79 82  1  0  0  0  0
 79173  1  6  0  0  0
 80 81  2  0  0  0  0
 80 85  1  0  0  0  0
 82 83  1  0  0  0  0
 82174  1  0  0  0  0
 82175  1  0  0  0  0
 83 84  1  0  0  0  0
 83176  1  0  0  0  0
 83177  1  0  0  0  0
 84178  1  0  0  0  0
 84179  1  0  0  0  0
 85 86  1  0  0  0  0
 85 91  1  0  0  0  0
 86 87  1  0  0  0  0
 86 89  1  0  0  0  0
 86180  1  1  0  0  0
 87 88  2  0  0  0  0
 87181  1  0  0  0  0
 89 90  1  0  0  0  0
 89182  1  0  0  0  0
 89183  1  0  0  0  0
 90 91  1  0  0  0  0
 90184  1  0  0  0  0
 90185  1  0  0  0  0
 91186  1  0  0  0  0
 91187  1  0  0  0  0
M  CHG  3   1   1  19  -1  51  -1
M  END
