2w68_ligand
 OpenBabel08222323343D

 81 83  0  0  1  0  0  0  0  0999 V2000
   25.4450  -37.8050   -6.3780 C   0  0  0  0  0  0  0  0  0  0  0  0
   24.2850  -36.9760   -5.8170 C   0  0  1  0  0  0  0  0  0  0  0  0
   23.0430  -37.1290   -6.6950 C   0  0  0  0  0  0  0  0  0  0  0  0
   22.3470  -38.4590   -6.5130 C   0  0  1  0  0  0  0  0  0  0  0  0
   22.0200  -38.6050   -5.0460 C   0  0  2  0  0  0  0  0  0  0  0  0
   23.3610  -38.6050   -4.3370 C   0  0  2  0  0  0  0  0  0  0  0  0
   23.3070  -38.9580   -2.8570 C   0  0  1  0  0  0  0  0  0  0  0  0
   24.6640  -38.7050   -2.1970 C   0  0  1  0  0  0  0  0  0  0  0  0
   24.6990  -39.1910   -0.7560 C   0  0  0  0  0  0  0  0  0  0  0  0
   20.2160  -40.2250   -4.5900 C   0  0  0  0  0  0  0  0  0  0  0  0
   19.8840  -41.6910   -4.5720 C   0  0  0  0  0  0  0  0  0  0  0  0
   21.4750  -39.9490   -4.9500 N   0  0  0  0  0  0  0  0  0  0  0  0
   26.0360  -38.6360   -5.6390 O   0  5  0  0  0  0  0  0  0  0  0  0
   25.7990  -37.6280   -7.5790 O   0  0  0  0  0  0  0  0  0  0  0  0
   21.1700  -38.4970   -7.3160 O   0  0  0  0  0  0  0  0  0  0  0  0
   24.0040  -37.3500   -4.4710 O   0  0  0  0  0  0  0  0  0  0  0  0
   22.2390  -38.2680   -2.2230 O   0  0  0  0  0  0  0  0  0  0  0  0
   25.6650  -39.4960   -2.8780 O   0  0  0  0  0  0  0  0  0  0  0  0
   25.2470  -40.5300   -0.7550 O   0  0  0  0  0  0  0  0  0  0  0  0
   19.3880  -39.3750   -4.2860 O   0  0  0  0  0  0  0  0  0  0  0  0
   26.6100  -33.2270   -3.8570 C   0  0  1  0  0  0  0  0  0  0  0  0
   25.3560  -33.7440   -4.5300 C   0  0  1  0  0  0  0  0  0  0  0  0
   25.6940  -35.1030   -5.1360 C   0  0  2  0  0  0  0  0  0  0  0  0
   26.9240  -34.9890   -6.0440 C   0  0  2  0  0  0  0  0  0  0  0  0
   28.0880  -34.3650   -5.3020 C   0  0  1  0  0  0  0  0  0  0  0  0
   29.2960  -34.1930   -6.2170 C   0  0  0  0  0  0  0  0  0  0  0  0
   24.3320  -33.8310   -3.5430 O   0  0  0  0  0  0  0  0  0  0  0  0
   24.5640  -35.5650   -5.8830 O   0  0  0  0  0  0  0  0  0  0  0  0
   26.6150  -34.1520   -7.1650 O   0  0  0  0  0  0  0  0  0  0  0  0
   27.6420  -33.0900   -4.8390 O   0  0  0  0  0  0  0  0  0  0  0  0
   30.2840  -35.1700   -5.8590 O   0  0  0  0  0  0  0  0  0  0  0  0
   28.5270  -29.5480   -1.5230 C   0  0  2  0  0  0  0  0  0  0  0  0
   27.6530  -30.0830   -2.6410 C   0  0  2  0  0  0  0  0  0  0  0  0
   27.4250  -31.5810   -2.4330 C   0  0  1  0  0  0  0  0  0  0  0  0
   27.1840  -31.9780   -0.9600 C   0  0  1  0  0  0  0  0  0  0  0  0
   28.3890  -32.7350   -0.3980 C   0  0  0  0  0  0  0  0  0  0  0  0
   27.8020  -29.7120   -0.1750 C   0  0  2  0  0  0  0  0  0  0  0  0
   28.7880  -29.8760    0.8480 O   0  0  0  0  0  0  0  0  0  0  0  0
   28.8160  -28.1800   -1.7990 O   0  0  0  0  0  0  0  0  0  0  0  0
   28.2830  -29.8380   -3.8990 O   0  0  0  0  0  0  0  0  0  0  0  0
   26.3270  -31.9710   -3.2590 O   0  0  0  0  0  0  0  0  0  0  0  0
   26.8830  -30.8390   -0.1300 O   0  0  0  0  0  0  0  0  0  0  0  0
   28.1060  -34.1320   -0.3750 O   0  0  0  0  0  0  0  0  0  0  0  0
   23.3452  -37.0335   -7.7484 H   0  0  0  0  0  0  0  0  0  0  0  0
   22.3348  -36.3261   -6.4424 H   0  0  0  0  0  0  0  0  0  0  0  0
   23.0171  -39.2751   -6.8211 H   0  0  0  0  0  0  0  0  0  0  0  0
   21.3358  -37.8317   -4.6667 H   0  0  0  0  0  0  0  0  0  0  0  0
   23.9837  -39.3642   -4.8328 H   0  0  0  0  0  0  0  0  0  0  0  0
   23.0975  -40.0346   -2.7736 H   0  0  0  0  0  0  0  0  0  0  0  0
   24.9052  -37.6329   -2.2462 H   0  0  0  0  0  0  0  0  0  0  0  0
   23.6807  -39.2030   -0.3401 H   0  0  0  0  0  0  0  0  0  0  0  0
   25.3340  -38.5262   -0.1520 H   0  0  0  0  0  0  0  0  0  0  0  0
   18.8358  -41.8258   -4.2670 H   0  0  0  0  0  0  0  0  0  0  0  0
   20.5428  -42.2074   -3.8584 H   0  0  0  0  0  0  0  0  0  0  0  0
   20.0304  -42.1125   -5.5774 H   0  0  0  0  0  0  0  0  0  0  0  0
   22.0790  -40.7159   -5.1667 H   0  0  0  0  0  0  0  0  0  0  0  0
   20.7267  -39.3273   -7.1871 H   0  0  0  0  0  0  0  0  0  0  0  0
   21.4259  -38.4624   -2.6740 H   0  0  0  0  0  0  0  0  0  0  0  0
   25.6983  -39.2430   -3.7931 H   0  0  0  0  0  0  0  0  0  0  0  0
   26.1243  -40.5122   -1.1191 H   0  0  0  0  0  0  0  0  0  0  0  0
   26.9346  -33.9366   -3.0817 H   0  0  0  0  0  0  0  0  0  0  0  0
   25.0371  -33.0558   -5.3267 H   0  0  0  0  0  0  0  0  0  0  0  0
   25.9115  -35.8171   -4.3281 H   0  0  0  0  0  0  0  0  0  0  0  0
   27.2080  -35.9919   -6.3955 H   0  0  0  0  0  0  0  0  0  0  0  0
   28.3691  -34.9992   -4.4483 H   0  0  0  0  0  0  0  0  0  0  0  0
   29.7128  -33.1824   -6.0946 H   0  0  0  0  0  0  0  0  0  0  0  0
   28.9919  -34.3399   -7.2639 H   0  0  0  0  0  0  0  0  0  0  0  0
   24.1551  -32.9650   -3.1946 H   0  0  0  0  0  0  0  0  0  0  0  0
   26.3812  -33.2846   -6.8562 H   0  0  0  0  0  0  0  0  0  0  0  0
   31.0425  -35.0729   -6.4227 H   0  0  0  0  0  0  0  0  0  0  0  0
   29.4689  -30.1152   -1.4904 H   0  0  0  0  0  0  0  0  0  0  0  0
   26.6820  -29.5666   -2.6208 H   0  0  0  0  0  0  0  0  0  0  0  0
   28.3257  -32.1131   -2.7731 H   0  0  0  0  0  0  0  0  0  0  0  0
   26.3149  -32.6518   -0.9339 H   0  0  0  0  0  0  0  0  0  0  0  0
   28.5964  -32.3864    0.6245 H   0  0  0  0  0  0  0  0  0  0  0  0
   29.2672  -32.5496   -1.0338 H   0  0  0  0  0  0  0  0  0  0  0  0
   27.2270  -28.7947    0.0198 H   0  0  0  0  0  0  0  0  0  0  0  0
   29.3920  -29.1431    0.8245 H   0  0  0  0  0  0  0  0  0  0  0  0
   29.2620  -28.1142   -2.6352 H   0  0  0  0  0  0  0  0  0  0  0  0
   28.4156  -28.9037   -4.0089 H   0  0  0  0  0  0  0  0  0  0  0  0
   28.8553  -34.6001   -0.0258 H   0  0  0  0  0  0  0  0  0  0  0  0
  1 13  1  0  0  0  0
  1 14  2  0  0  0  0
  2  1  1  6  0  0  0
  2  3  1  0  0  0  0
  2 16  1  0  0  0  0
  3  4  1  0  0  0  0
  3 44  1  0  0  0  0
  3 45  1  0  0  0  0
  4  5  1  0  0  0  0
  4 15  1  0  0  0  0
  4 46  1  6  0  0  0
  5 12  1  0  0  0  0
  5 47  1  1  0  0  0
  6  5  1  0  0  0  0
  6  7  1  0  0  0  0
  6 48  1  6  0  0  0
  7  8  1  0  0  0  0
  7 17  1  0  0  0  0
  7 49  1  1  0  0  0
  8  9  1  0  0  0  0
  8 18  1  0  0  0  0
  8 50  1  6  0  0  0
  9 19  1  0  0  0  0
  9 51  1  0  0  0  0
  9 52  1  0  0  0  0
 10 11  1  0  0  0  0
 10 20  2  0  0  0  0
 11 53  1  0  0  0  0
 11 54  1  0  0  0  0
 11 55  1  0  0  0  0
 12 10  1  0  0  0  0
 12 56  1  0  0  0  0
 15 57  1  0  0  0  0
 16  6  1  0  0  0  0
 17 58  1  0  0  0  0
 18 59  1  0  0  0  0
 19 60  1  0  0  0  0
 21 22  1  0  0  0  0
 21 30  1  0  0  0  0
 21 61  1  1  0  0  0
 22 23  1  0  0  0  0
 22 27  1  0  0  0  0
 22 62  1  6  0  0  0
 23 24  1  0  0  0  0
 23 28  1  0  0  0  0
 23 63  1  1  0  0  0
 24 29  1  0  0  0  0
 24 64  1  6  0  0  0
 25 24  1  0  0  0  0
 25 26  1  0  0  0  0
 25 65  1  1  0  0  0
 26 31  1  0  0  0  0
 26 66  1  0  0  0  0
 26 67  1  0  0  0  0
 27 68  1  0  0  0  0
 28  2  1  0  0  0  0
 29 69  1  0  0  0  0
 30 25  1  0  0  0  0
 31 70  1  0  0  0  0
 32 37  1  0  0  0  0
 32 39  1  0  0  0  0
 32 71  1  1  0  0  0
 33 32  1  0  0  0  0
 33 40  1  0  0  0  0
 33 72  1  1  0  0  0
 34 33  1  0  0  0  0
 34 35  1  0  0  0  0
 34 41  1  0  0  0  0
 34 73  1  6  0  0  0
 35 36  1  0  0  0  0
 35 42  1  0  0  0  0
 35 74  1  1  0  0  0
 36 43  1  0  0  0  0
 36 75  1  0  0  0  0
 36 76  1  0  0  0  0
 37 38  1  0  0  0  0
 37 42  1  0  0  0  0
 37 77  1  1  0  0  0
 38 78  1  0  0  0  0
 39 79  1  0  0  0  0
 40 80  1  0  0  0  0
 41 21  1  0  0  0  0
 43 81  1  0  0  0  0
M  CHG  1  13  -1
M  END
