2w6c_ligand
 OpenBabel08222323343D

 68 69  0  0  1  0  0  0  0  0999 V2000
    5.8970   64.0220   63.0090 O   0  0  0  0  0  0  0  0  0  0  0  0
    4.8440   64.6790   63.5850 C   0  0  0  0  0  0  0  0  0  0  0  0
    4.7150   66.0620   63.4300 C   0  0  0  0  0  0  0  0  0  0  0  0
    3.9020   63.9670   64.3270 C   0  0  0  0  0  0  0  0  0  0  0  0
    2.8340   64.6550   64.8960 C   0  0  0  0  0  0  0  0  0  0  0  0
    2.7210   66.0400   64.7500 C   0  0  0  0  0  0  0  0  0  0  0  0
    3.6720   66.7680   64.0310 C   0  0  0  0  0  0  0  0  0  0  0  0
    3.5540   68.3130   63.8530 C   0  0  1  0  0  0  0  0  0  0  0  0
    2.5890   68.5520   62.6900 C   0  0  0  0  0  0  0  0  0  0  0  0
    3.3220   68.4300   61.3340 C   0  0  0  0  0  0  0  0  0  0  0  0
    2.9960   69.0340   65.1070 C   0  0  0  0  0  0  0  0  0  0  0  0
    4.9130   68.9230   63.4080 C   0  0  0  0  0  0  0  0  0  0  0  0
    5.9280   69.2000   64.5270 C   0  0  0  0  0  0  0  0  0  0  0  0
    5.3930   70.2400   65.5200 C   0  0  0  0  0  0  0  0  0  0  0  0
    4.7830   69.5700   66.7540 C   0  0  0  0  0  0  0  0  0  0  0  0
    3.7200   68.6370   66.3380 N   0  3  1  0  0  0  0  0  0  0  0  0
    2.8680   68.2230   67.4750 C   0  0  0  0  0  0  0  0  0  0  0  0
    3.7430   67.4010   68.4660 C   0  0  0  0  0  0  0  0  0  0  0  0
    3.0570   66.1110   68.9420 C   0  0  0  0  0  0  0  0  0  0  0  0
    4.0510   64.9850   69.2810 C   0  0  0  0  0  0  0  0  0  0  0  0
    3.3270   63.6260   69.4550 C   0  0  0  0  0  0  0  0  0  0  0  0
    2.7070   63.4570   70.8470 C   0  0  0  0  0  0  0  0  0  0  0  0
    1.3820   62.6860   70.8250 C   0  0  0  0  0  0  0  0  0  0  0  0
    1.2000   61.8240   72.0920 C   0  0  0  0  0  0  0  0  0  0  0  0
   -0.2190   61.9460   72.6800 C   0  0  0  0  0  0  0  0  0  0  0  0
   -0.6340   60.6860   73.3320 N   0  3  0  0  0  0  0  0  0  0  0  0
    6.7117   64.3695   63.3525 H   0  0  0  0  0  0  0  0  0  0  0  0
    5.4412   66.5981   62.8297 H   0  0  0  0  0  0  0  0  0  0  0  0
    3.9999   62.8955   64.4585 H   0  0  0  0  0  0  0  0  0  0  0  0
    2.0830   64.1112   65.4576 H   0  0  0  0  0  0  0  0  0  0  0  0
    1.8824   66.5576   65.2016 H   0  0  0  0  0  0  0  0  0  0  0  0
    2.1604   69.5612   62.7786 H   0  0  0  0  0  0  0  0  0  0  0  0
    1.7819   67.8058   62.7320 H   0  0  0  0  0  0  0  0  0  0  0  0
    2.6092   68.6055   60.5148 H   0  0  0  0  0  0  0  0  0  0  0  0
    3.7499   67.4212   61.2379 H   0  0  0  0  0  0  0  0  0  0  0  0
    4.1283   69.1765   61.2846 H   0  0  0  0  0  0  0  0  0  0  0  0
    1.9324   68.7778   65.2213 H   0  0  0  0  0  0  0  0  0  0  0  0
    3.0987   70.1204   64.9683 H   0  0  0  0  0  0  0  0  0  0  0  0
    4.7035   69.8763   62.9008 H   0  0  0  0  0  0  0  0  0  0  0  0
    5.3785   68.2241   62.6975 H   0  0  0  0  0  0  0  0  0  0  0  0
    6.8597   69.5773   64.0803 H   0  0  0  0  0  0  0  0  0  0  0  0
    6.1326   68.2628   65.0653 H   0  0  0  0  0  0  0  0  0  0  0  0
    4.6210   70.8458   65.0230 H   0  0  0  0  0  0  0  0  0  0  0  0
    6.2210   70.8905   65.8382 H   0  0  0  0  0  0  0  0  0  0  0  0
    4.3565   70.3392   67.4145 H   0  0  0  0  0  0  0  0  0  0  0  0
    5.5652   69.0160   67.2936 H   0  0  0  0  0  0  0  0  0  0  0  0
    4.2090   67.7968   66.0716 H   0  0  0  0  0  0  0  0  0  0  0  0
    2.0362   67.6025   67.1102 H   0  0  0  0  0  0  0  0  0  0  0  0
    2.4667   69.1125   67.9826 H   0  0  0  0  0  0  0  0  0  0  0  0
    3.9610   68.0269   69.3439 H   0  0  0  0  0  0  0  0  0  0  0  0
    4.6843   67.1330   67.9638 H   0  0  0  0  0  0  0  0  0  0  0  0
    2.3864   65.7571   68.1451 H   0  0  0  0  0  0  0  0  0  0  0  0
    2.4679   66.3400   69.8423 H   0  0  0  0  0  0  0  0  0  0  0  0
    4.5708   65.2361   70.2173 H   0  0  0  0  0  0  0  0  0  0  0  0
    4.7848   64.8979   68.4662 H   0  0  0  0  0  0  0  0  0  0  0  0
    4.0546   62.8170   69.2938 H   0  0  0  0  0  0  0  0  0  0  0  0
    2.5272   63.5550   68.7031 H   0  0  0  0  0  0  0  0  0  0  0  0
    2.5245   64.4548   71.2726 H   0  0  0  0  0  0  0  0  0  0  0  0
    3.4190   62.9114   71.4836 H   0  0  0  0  0  0  0  0  0  0  0  0
    1.3665   62.0296   69.9425 H   0  0  0  0  0  0  0  0  0  0  0  0
    0.5523   63.4054   70.7616 H   0  0  0  0  0  0  0  0  0  0  0  0
    1.9269   62.1507   72.8502 H   0  0  0  0  0  0  0  0  0  0  0  0
    1.3872   60.7712   71.8341 H   0  0  0  0  0  0  0  0  0  0  0  0
   -0.9249   62.1808   71.8697 H   0  0  0  0  0  0  0  0  0  0  0  0
   -0.2315   62.7565   73.4236 H   0  0  0  0  0  0  0  0  0  0  0  0
   -1.5634   60.7922   73.7074 H   0  0  0  0  0  0  0  0  0  0  0  0
    0.0069   60.4670   74.0786 H   0  0  0  0  0  0  0  0  0  0  0  0
   -0.6285   59.9395   72.6547 H   0  0  0  0  0  0  0  0  0  0  0  0
  1  2  1  0  0  0  0
  1 27  1  0  0  0  0
  2  3  2  0  0  0  0
  2  4  1  0  0  0  0
  3  7  1  0  0  0  0
  3 28  1  0  0  0  0
  4  5  2  0  0  0  0
  4 29  1  0  0  0  0
  5  6  1  0  0  0  0
  5 30  1  0  0  0  0
  6  7  2  0  0  0  0
  6 31  1  0  0  0  0
  7  8  1  0  0  0  0
  8  9  1  6  0  0  0
  8 11  1  0  0  0  0
  8 12  1  0  0  0  0
  9 10  1  0  0  0  0
  9 32  1  0  0  0  0
  9 33  1  0  0  0  0
 10 34  1  0  0  0  0
 10 35  1  0  0  0  0
 10 36  1  0  0  0  0
 11 16  1  0  0  0  0
 11 37  1  0  0  0  0
 11 38  1  0  0  0  0
 12 13  1  0  0  0  0
 12 39  1  0  0  0  0
 12 40  1  0  0  0  0
 13 14  1  0  0  0  0
 13 41  1  0  0  0  0
 13 42  1  0  0  0  0
 14 15  1  0  0  0  0
 14 43  1  0  0  0  0
 14 44  1  0  0  0  0
 15 16  1  0  0  0  0
 15 45  1  0  0  0  0
 15 46  1  0  0  0  0
 16 17  1  0  0  0  0
 16 47  1  6  0  0  0
 17 18  1  0  0  0  0
 17 48  1  0  0  0  0
 17 49  1  0  0  0  0
 18 19  1  0  0  0  0
 18 50  1  0  0  0  0
 18 51  1  0  0  0  0
 19 20  1  0  0  0  0
 19 52  1  0  0  0  0
 19 53  1  0  0  0  0
 20 21  1  0  0  0  0
 20 54  1  0  0  0  0
 20 55  1  0  0  0  0
 21 22  1  0  0  0  0
 21 56  1  0  0  0  0
 21 57  1  0  0  0  0
 22 23  1  0  0  0  0
 22 58  1  0  0  0  0
 22 59  1  0  0  0  0
 23 24  1  0  0  0  0
 23 60  1  0  0  0  0
 23 61  1  0  0  0  0
 24 25  1  0  0  0  0
 24 62  1  0  0  0  0
 24 63  1  0  0  0  0
 25 26  1  0  0  0  0
 25 64  1  0  0  0  0
 25 65  1  0  0  0  0
 26 66  1  0  0  0  0
 26 67  1  0  0  0  0
 26 68  1  0  0  0  0
M  CHG  2  16   1  26   1
M  END
