2w6n_ligand
 OpenBabel08222323343D

 40 42  0  0  0  0  0  0  0  0999 V2000
    4.7780  -24.3280   23.2950 O   0  0  0  0  0  0  0  0  0  0  0  0
    3.8310  -23.6740   23.7420 C   0  0  0  0  0  0  0  0  0  0  0  0
    2.6920  -24.4920   24.3020 C   0  0  0  0  0  0  0  0  0  0  0  0
    2.9270  -25.8280   24.1360 O   0  0  0  0  0  0  0  0  0  0  0  0
    1.8280  -26.3890   24.6940 C   0  0  0  0  0  0  0  0  0  0  0  0
    1.6810  -27.7340   24.7320 N   0  0  0  0  0  0  0  0  0  0  0  0
    0.9390  -25.5240   25.2090 N   0  0  0  0  0  0  0  0  0  0  0  0
    1.4700  -24.2950   24.9650 C   0  0  0  0  0  0  0  0  0  0  0  0
    3.8840  -22.3260   23.7160 N   0  0  0  0  0  0  0  0  0  0  0  0
    4.9510  -21.6090   23.0110 C   0  0  0  0  0  0  0  0  0  0  0  0
    5.7770  -20.7960   23.9920 C   0  0  0  0  0  0  0  0  0  0  0  0
    5.9040  -19.4100   23.8250 C   0  0  0  0  0  0  0  0  0  0  0  0
    6.6590  -18.6640   24.7270 C   0  0  0  0  0  0  0  0  0  0  0  0
    7.2910  -19.2950   25.7920 C   0  0  0  0  0  0  0  0  0  0  0  0
    7.1600  -20.6720   25.9670 C   0  0  0  0  0  0  0  0  0  0  0  0
    6.3940  -21.4260   25.0660 C   0  0  0  0  0  0  0  0  0  0  0  0
    2.9350  -21.4250   24.3540 C   0  0  0  0  0  0  0  0  0  0  0  0
    2.0070  -20.7970   23.3440 C   0  0  0  0  0  0  0  0  0  0  0  0
    1.7350  -21.4000   22.1220 C   0  0  0  0  0  0  0  0  0  0  0  0
    0.8780  -20.7840   21.2200 C   0  0  0  0  0  0  0  0  0  0  0  0
    0.2840  -19.5650   21.5410 C   0  0  0  0  0  0  0  0  0  0  0  0
    0.5620  -18.9610   22.7560 C   0  0  0  0  0  0  0  0  0  0  0  0
    1.4250  -19.5760   23.6570 C   0  0  0  0  0  0  0  0  0  0  0  0
    0.8403  -28.1483   25.1593 H   0  0  0  0  0  0  0  0  0  0  0  0
    2.4098  -28.3432   24.3337 H   0  0  0  0  0  0  0  0  0  0  0  0
    1.0289  -23.3364   25.2341 H   0  0  0  0  0  0  0  0  0  0  0  0
    4.5040  -20.9340   22.2663 H   0  0  0  0  0  0  0  0  0  0  0  0
    5.6023  -22.3355   22.5031 H   0  0  0  0  0  0  0  0  0  0  0  0
    5.4139  -18.9180   22.9926 H   0  0  0  0  0  0  0  0  0  0  0  0
    6.7536  -17.5918   24.5984 H   0  0  0  0  0  0  0  0  0  0  0  0
    7.8868  -18.7155   26.4878 H   0  0  0  0  0  0  0  0  0  0  0  0
    7.6510  -21.1606   26.8008 H   0  0  0  0  0  0  0  0  0  0  0  0
    6.2838  -22.4952   25.2068 H   0  0  0  0  0  0  0  0  0  0  0  0
    3.4901  -20.6296   24.8729 H   0  0  0  0  0  0  0  0  0  0  0  0
    2.3385  -21.9920   25.0839 H   0  0  0  0  0  0  0  0  0  0  0  0
    2.1918  -22.3510   21.8731 H   0  0  0  0  0  0  0  0  0  0  0  0
    0.6706  -21.2520   20.2645 H   0  0  0  0  0  0  0  0  0  0  0  0
   -0.3943  -19.0904   20.8412 H   0  0  0  0  0  0  0  0  0  0  0  0
    0.1071  -18.0090   23.0047 H   0  0  0  0  0  0  0  0  0  0  0  0
    1.6438  -19.1006   24.6063 H   0  0  0  0  0  0  0  0  0  0  0  0
  1  2  2  0  0  0  0
  2  3  1  0  0  0  0
  2  9  1  0  0  0  0
  3  4  1  0  0  0  0
  3  8  2  0  0  0  0
  4  5  1  0  0  0  0
  5  6  1  0  0  0  0
  5  7  2  0  0  0  0
  6 24  1  0  0  0  0
  6 25  1  0  0  0  0
  7  8  1  0  0  0  0
  8 26  1  0  0  0  0
  9 10  1  0  0  0  0
  9 17  1  0  0  0  0
 10 11  1  0  0  0  0
 10 27  1  0  0  0  0
 10 28  1  0  0  0  0
 11 12  2  0  0  0  0
 11 16  1  0  0  0  0
 12 13  1  0  0  0  0
 12 29  1  0  0  0  0
 13 14  2  0  0  0  0
 13 30  1  0  0  0  0
 14 15  1  0  0  0  0
 14 31  1  0  0  0  0
 15 16  2  0  0  0  0
 15 32  1  0  0  0  0
 16 33  1  0  0  0  0
 17 18  1  0  0  0  0
 17 34  1  0  0  0  0
 17 35  1  0  0  0  0
 18 19  2  0  0  0  0
 18 23  1  0  0  0  0
 19 20  1  0  0  0  0
 19 36  1  0  0  0  0
 20 21  2  0  0  0  0
 20 37  1  0  0  0  0
 21 22  1  0  0  0  0
 21 38  1  0  0  0  0
 22 23  2  0  0  0  0
 22 39  1  0  0  0  0
 23 40  1  0  0  0  0
M  END
