2w6o_ligand
 OpenBabel08222323343D

 27 28  0  0  0  0  0  0  0  0999 V2000
   19.4530   10.8210    0.5560 O   0  0  0  0  0  0  0  0  0  0  0  0
   18.6550   10.2790   -0.1970 C   0  0  0  0  0  0  0  0  0  0  0  0
   17.6110    9.3320    0.3580 C   0  0  0  0  0  0  0  0  0  0  0  0
   17.6120    8.0660   -0.4880 C   0  0  0  0  0  0  0  0  0  0  0  0
   16.6110    7.0540    0.0590 C   0  0  0  0  0  0  0  0  0  0  0  0
   18.9970    7.4230   -0.4020 C   0  0  0  0  0  0  0  0  0  0  0  0
   17.2590    8.4090   -1.9390 C   0  0  0  0  0  0  0  0  0  0  0  0
   17.9970    9.6140   -2.5140 C   0  0  0  0  0  0  0  0  0  0  0  0
   18.0050    9.8290   -3.8530 N   0  0  0  0  0  0  0  0  0  0  0  0
   18.6380   10.8770   -4.4040 C   0  0  0  0  0  0  0  0  0  0  0  0
   19.2900   11.7510   -3.6210 N   0  0  0  0  0  0  0  0  0  0  0  0
   19.3140   11.5810   -2.2750 C   0  0  0  0  0  0  0  0  0  0  0  0
   18.6670   10.5080   -1.6900 C   0  0  0  0  0  0  0  0  0  0  0  0
   19.9680   12.4670   -1.5010 N   0  0  0  0  0  0  0  0  0  0  0  0
   16.6194    9.8062    0.3157 H   0  0  0  0  0  0  0  0  0  0  0  0
   17.8536    9.0817    1.4013 H   0  0  0  0  0  0  0  0  0  0  0  0
   16.6271    6.1483   -0.5650 H   0  0  0  0  0  0  0  0  0  0  0  0
   15.6019    7.4916    0.0441 H   0  0  0  0  0  0  0  0  0  0  0  0
   16.8819    6.7921    1.0924 H   0  0  0  0  0  0  0  0  0  0  0  0
   19.7513    8.1240   -0.7888 H   0  0  0  0  0  0  0  0  0  0  0  0
   19.0113    6.5012   -1.0021 H   0  0  0  0  0  0  0  0  0  0  0  0
   19.2246    7.1814    0.6467 H   0  0  0  0  0  0  0  0  0  0  0  0
   16.1795    8.6146   -1.9882 H   0  0  0  0  0  0  0  0  0  0  0  0
   17.4946    7.5346   -2.5635 H   0  0  0  0  0  0  0  0  0  0  0  0
   18.6226   11.0171   -5.4788 H   0  0  0  0  0  0  0  0  0  0  0  0
   19.9885   12.3414   -0.4789 H   0  0  0  0  0  0  0  0  0  0  0  0
   20.4480   13.2706   -1.9308 H   0  0  0  0  0  0  0  0  0  0  0  0
  1  2  2  0  0  0  0
  2  3  1  0  0  0  0
  2 13  1  0  0  0  0
  3  4  1  0  0  0  0
  3 15  1  0  0  0  0
  3 16  1  0  0  0  0
  4  5  1  0  0  0  0
  4  6  1  0  0  0  0
  4  7  1  0  0  0  0
  5 17  1  0  0  0  0
  5 18  1  0  0  0  0
  5 19  1  0  0  0  0
  6 20  1  0  0  0  0
  6 21  1  0  0  0  0
  6 22  1  0  0  0  0
  7  8  1  0  0  0  0
  7 23  1  0  0  0  0
  7 24  1  0  0  0  0
  8  9  2  0  0  0  0
  8 13  1  0  0  0  0
  9 10  1  0  0  0  0
 10 11  2  0  0  0  0
 10 25  1  0  0  0  0
 11 12  1  0  0  0  0
 12 13  2  0  0  0  0
 12 14  1  0  0  0  0
 14 26  1  0  0  0  0
 14 27  1  0  0  0  0
M  END
