2w6z_ligand
 OpenBabel08222323343D

 29 30  0  0  1  0  0  0  0  0999 V2000
    1.3260  -20.4300   21.5610 C   0  0  0  0  0  0  0  0  0  0  0  0
    1.6000  -20.6690   23.0180 C   0  0  0  0  0  0  0  0  0  0  0  0
    2.2600  -21.7840   23.3840 C   0  0  0  0  0  0  0  0  0  0  0  0
    1.1190  -19.6250   23.9820 C   0  0  0  0  0  0  0  0  0  0  0  0
    2.1580  -27.7970   24.6540 N   0  0  0  0  0  0  0  0  0  0  0  0
    2.2830  -26.4590   24.6930 C   0  0  0  0  0  0  0  0  0  0  0  0
    3.4650  -25.8200   24.0800 C   0  0  0  0  0  0  0  0  0  0  0  0
    4.5840  -26.1890   23.4250 N   0  0  0  0  0  0  0  0  0  0  0  0
    3.5080  -24.3710   24.1810 C   0  0  2  0  0  3  0  0  0  0  0  0
    4.6360  -23.9560   23.5860 N   0  0  0  0  0  0  0  0  0  0  0  0
    5.2850  -25.0630   23.1320 C   0  0  0  0  0  0  0  0  0  0  0  0
    2.6240  -22.2020   24.8070 C   0  0  0  0  0  0  0  0  0  0  0  0
    2.5440  -23.6630   24.7890 N   0  0  0  0  0  0  0  0  0  0  0  0
    1.4800  -24.3070   25.3160 C   0  0  0  0  0  0  0  0  0  0  0  0
    1.3510  -25.6530   25.2790 N   0  0  0  0  0  0  0  0  0  0  0  0
    0.7827  -19.4811   21.4409 H   0  0  0  0  0  0  0  0  0  0  0  0
    0.7165  -21.2544   21.1625 H   0  0  0  0  0  0  0  0  0  0  0  0
    2.2780  -20.3793   21.0123 H   0  0  0  0  0  0  0  0  0  0  0  0
    2.5654  -22.4564   22.5836 H   0  0  0  0  0  0  0  0  0  0  0  0
    1.3834  -19.9231   25.0073 H   0  0  0  0  0  0  0  0  0  0  0  0
    0.0267  -19.5250   23.8994 H   0  0  0  0  0  0  0  0  0  0  0  0
    1.5943  -18.6614   23.7463 H   0  0  0  0  0  0  0  0  0  0  0  0
    1.3366  -28.2501   25.0793 H   0  0  0  0  0  0  0  0  0  0  0  0
    2.8837  -28.3690   24.1989 H   0  0  0  0  0  0  0  0  0  0  0  0
    6.2378  -25.0480   22.6049 H   0  0  0  0  0  0  0  0  0  0  0  0
    1.9100  -21.7820   25.5307 H   0  0  0  0  0  0  0  0  0  0  0  0
    3.6417  -21.8711   25.0616 H   0  0  0  0  0  0  0  0  0  0  0  0
    0.6985  -23.7220   25.7873 H   0  0  0  0  0  0  0  0  0  0  0  0
    4.9525  -22.9805   23.4903 H   0  0  0  0  0  0  0  0  0  0  0  0
  1 16  1  0  0  0  0
  1 17  1  0  0  0  0
  1 18  1  0  0  0  0
  2  1  1  0  0  0  0
  2  4  1  0  0  0  0
  3  2  2  0  0  0  0
  3 19  1  0  0  0  0
  4 20  1  0  0  0  0
  4 21  1  0  0  0  0
  4 22  1  0  0  0  0
  5 23  1  0  0  0  0
  5 24  1  0  0  0  0
  6  5  1  0  0  0  0
  6 15  1  0  0  0  0
  7  6  2  0  0  0  0
  7  8  1  0  0  0  0
  9  7  1  1  0  0  0
  9 10  1  0  0  0  0
 10 11  1  0  0  0  0
 10 29  1  0  0  0  0
 11  8  2  0  0  0  0
 11 25  1  0  0  0  0
 12  3  1  0  0  0  0
 12 13  1  0  0  0  0
 12 26  1  0  0  0  0
 12 27  1  0  0  0  0
 13  9  1  0  0  0  0
 13 14  1  0  0  0  0
 14 15  2  0  0  0  0
 14 28  1  0  0  0  0
M  END
