2w85_ligand
 OpenBabel08222323343D

202204  0  0  1  0  0  0  0  0999 V2000
    2.8070   18.7490    3.6930 N   0  3  0  0  0  0  0  0  0  0  0  0
    2.1280   17.8430    4.6360 C   0  0  2  0  0  0  0  0  0  0  0  0
    2.3030   16.3920    4.2010 C   0  0  0  0  0  0  0  0  0  0  0  0
    1.9220   16.0080    3.0950 O   0  0  0  0  0  0  0  0  0  0  0  0
    0.6460   18.2090    4.7120 C   0  0  0  0  0  0  0  0  0  0  0  0
    0.1150   18.4450    3.4200 O   0  0  0  0  0  0  0  0  0  0  0  0
    2.8880   15.5860    5.0790 N   0  0  0  0  0  0  0  0  0  0  0  0
    3.1510   14.1890    4.7720 C   0  0  2  0  0  0  0  0  0  0  0  0
    1.8550   13.3870    4.7800 C   0  0  0  0  0  0  0  0  0  0  0  0
    1.7080   12.4290    4.0290 O   0  0  0  0  0  0  0  0  0  0  0  0
    4.1640   13.6120    5.7650 C   0  0  0  0  0  0  0  0  0  0  0  0
    4.5030   12.1490    5.5200 C   0  0  0  0  0  0  0  0  0  0  0  0
    5.6960   11.6840    6.3290 C   0  0  0  0  0  0  0  0  0  0  0  0
    6.6140   12.4550    6.6010 O   0  0  0  0  0  0  0  0  0  0  0  0
    5.6880   10.4240    6.7220 N   0  0  0  0  0  0  0  0  0  0  0  0
    0.9150   13.7980    5.6220 N   0  0  0  0  0  0  0  0  0  0  0  0
   -0.3970   13.1660    5.6730 C   0  0  2  0  0  0  0  0  0  0  0  0
   -1.0960   13.2800    4.3210 C   0  0  0  0  0  0  0  0  0  0  0  0
   -1.6350   12.3020    3.8030 O   0  0  0  0  0  0  0  0  0  0  0  0
   -1.2720   13.7980    6.7610 C   0  0  0  0  0  0  0  0  0  0  0  0
   -0.6520   13.7750    8.1490 C   0  0  0  0  0  0  0  0  0  0  0  0
    0.2890   14.9390    8.3940 C   0  0  0  0  0  0  0  0  0  0  0  0
    1.4850   14.8290    8.0530 O   0  5  0  0  0  0  0  0  0  0  0  0
   -0.1640   15.9710    8.9220 O   0  0  0  0  0  0  0  0  0  0  0  0
   -1.0590   14.4760    3.7450 N   0  0  0  0  0  0  0  0  0  0  0  0
   -1.6650   14.7190    2.4430 C   0  0  2  0  0  0  0  0  0  0  0  0
   -0.9050   13.9680    1.3540 C   0  0  0  0  0  0  0  0  0  0  0  0
   -1.4730   13.6050    0.3260 O   0  0  0  0  0  0  0  0  0  0  0  0
   -1.6770   16.2160    2.1290 C   0  0  0  0  0  0  0  0  0  0  0  0
   -2.3910   16.5660    0.8330 C   0  0  0  0  0  0  0  0  0  0  0  0
   -2.1240   18.0030    0.4250 C   0  0  0  0  0  0  0  0  0  0  0  0
   -2.8540   18.3630   -0.8590 C   0  0  0  0  0  0  0  0  0  0  0  0
   -2.4190   19.6810   -1.3890 N   0  3  0  0  0  0  0  0  0  0  0  0
    0.3810   13.7310    1.5950 N   0  0  0  0  0  0  0  0  0  0  0  0
    1.2220   12.9960    0.6540 C   0  0  2  0  0  0  0  0  0  0  0  0
    0.7070   11.5700    0.4770 C   0  0  0  0  0  0  0  0  0  0  0  0
    0.7980   11.0040   -0.6090 O   0  0  0  0  0  0  0  0  0  0  0  0
    2.6770   12.9950    1.1420 C   0  0  0  0  0  0  0  0  0  0  0  0
    3.6610   12.4420    0.1510 C   0  0  0  0  0  0  0  0  0  0  0  0
    4.0740   13.2040   -0.9300 C   0  0  0  0  0  0  0  0  0  0  0  0
    4.1850   11.1690    0.3080 C   0  0  0  0  0  0  0  0  0  0  0  0
    4.9860   12.7050   -1.8390 C   0  0  0  0  0  0  0  0  0  0  0  0
    5.0950   10.6650   -0.5980 C   0  0  0  0  0  0  0  0  0  0  0  0
    5.4980   11.4330   -1.6730 C   0  0  0  0  0  0  0  0  0  0  0  0
    0.1330   11.0060    1.5380 N   0  0  0  0  0  0  0  0  0  0  0  0
   -0.4330    9.6630    1.4710 C   0  0  2  0  0  0  0  0  0  0  0  0
   -1.7810    9.6960    0.7570 C   0  0  0  0  0  0  0  0  0  0  0  0
   -2.2070    8.7180    0.1460 O   0  0  0  0  0  0  0  0  0  0  0  0
   -0.6250    9.0730    2.8740 C   0  0  0  0  0  0  0  0  0  0  0  0
    0.6400    8.8930    3.6680 C   0  0  0  0  0  0  0  0  0  0  0  0
    0.8360    9.6030    4.8400 C   0  0  0  0  0  0  0  0  0  0  0  0
    1.6230    8.0110    3.2530 C   0  0  0  0  0  0  0  0  0  0  0  0
    1.9880    9.4350    5.5850 C   0  0  0  0  0  0  0  0  0  0  0  0
    2.7780    7.8400    3.9910 C   0  0  0  0  0  0  0  0  0  0  0  0
    2.9610    8.5530    5.1600 C   0  0  0  0  0  0  0  0  0  0  0  0
   -2.4380   10.8430    0.8270 N   0  0  0  0  0  0  0  0  0  0  0  0
   -3.7990   10.9830    0.3390 C   0  0  2  0  0  0  0  0  0  0  0  0
   -3.8360   11.4360   -1.1180 C   0  0  0  0  0  0  0  0  0  0  0  0
   -4.3270   10.7190   -1.9870 O   0  0  0  0  0  0  0  0  0  0  0  0
   -4.5530   11.9720    1.2250 C   0  0  0  0  0  0  0  0  0  0  0  0
   -4.6690   11.5130    2.6700 C   0  0  0  0  0  0  0  0  0  0  0  0
   -5.2390   12.5820    3.5810 C   0  0  0  0  0  0  0  0  0  0  0  0
   -5.0520   13.7750    3.3450 O   0  0  0  0  0  0  0  0  0  0  0  0
   -5.9360   12.1600    4.6260 N   0  0  0  0  0  0  0  0  0  0  0  0
   -3.2890   12.6180   -1.3760 N   0  0  0  0  0  0  0  0  0  0  0  0
   -3.3290   13.2300   -2.7030 C   0  0  2  0  0  0  0  0  0  0  0  0
   -2.6390   12.3560   -3.7460 C   0  0  0  0  0  0  0  0  0  0  0  0
   -3.1680   12.1320   -4.8370 O   0  0  0  0  0  0  0  0  0  0  0  0
   -2.6550   14.6040   -2.6560 C   0  0  0  0  0  0  0  0  0  0  0  0
   -2.5920   15.3120   -4.0010 C   0  0  0  0  0  0  0  0  0  0  0  0
   -3.9460   15.7880   -4.4790 C   0  0  0  0  0  0  0  0  0  0  0  0
   -4.2020   17.0080   -4.4040 O   0  5  0  0  0  0  0  0  0  0  0  0
   -4.7530   14.9510   -4.9340 O   0  0  0  0  0  0  0  0  0  0  0  0
   -1.4640   11.8560   -3.3990 N   0  0  0  0  0  0  0  0  0  0  0  0
   -0.6470   11.1130   -4.3450 C   0  0  2  0  0  0  0  0  0  0  0  0
   -1.2870    9.7740   -4.7080 C   0  0  0  0  0  0  0  0  0  0  0  0
   -1.1260    9.2890   -5.8260 O   0  0  0  0  0  0  0  0  0  0  0  0
    0.7540   10.8900   -3.7710 C   0  0  0  0  0  0  0  0  0  0  0  0
    1.7750   10.2970   -4.7450 C   0  0  0  0  0  0  0  0  0  0  0  0
    2.0090   11.2370   -5.9160 C   0  0  0  0  0  0  0  0  0  0  0  0
    3.0830   10.0070   -4.0300 C   0  0  0  0  0  0  0  0  0  0  0  0
   -2.0270    9.1870   -3.7750 N   0  0  0  0  0  0  0  0  0  0  0  0
   -2.6290    7.8820   -4.0140 C   0  0  2  0  0  0  0  0  0  0  0  0
   -4.0440    8.0310   -4.5730 C   0  0  0  0  0  0  0  0  0  0  0  0
   -4.6100    7.0820   -5.1160 O   0  0  0  0  0  0  0  0  0  0  0  0
   -2.6550    7.0460   -2.7320 C   0  0  0  0  0  0  0  0  0  0  0  0
   -2.6630    5.5730   -3.0020 C   0  0  0  0  0  0  0  0  0  0  0  0
   -3.8520    4.8760   -3.1450 C   0  0  0  0  0  0  0  0  0  0  0  0
   -1.4710    4.8860   -3.1260 C   0  0  0  0  0  0  0  0  0  0  0  0
   -3.8470    3.5210   -3.4130 C   0  0  0  0  0  0  0  0  0  0  0  0
   -1.4600    3.5350   -3.3890 C   0  0  0  0  0  0  0  0  0  0  0  0
   -2.6470    2.8500   -3.5320 C   0  0  0  0  0  0  0  0  0  0  0  0
   -4.6120    9.2250   -4.4310 N   0  0  0  0  0  0  0  0  0  0  0  0
   -5.9330    9.5150   -4.9860 C   0  0  2  0  0  0  0  0  0  0  0  0
   -5.9210    9.3130   -6.4960 C   0  0  0  0  0  0  0  0  0  0  0  0
   -6.8370    8.7170   -7.0690 O   0  0  0  0  0  0  0  0  0  0  0  0
   -6.3520   10.9520   -4.6560 C   0  0  0  0  0  0  0  0  0  0  0  0
   -7.6500   11.3490   -5.3310 C   0  0  0  0  0  0  0  0  0  0  0  0
   -7.6000   11.8620   -6.4720 O   0  5  0  0  0  0  0  0  0  0  0  0
   -8.7240   11.1530   -4.7260 O   0  0  0  0  0  0  0  0  0  0  0  0
   -4.8660    9.8090   -7.1230 N   0  0  0  0  0  0  0  0  0  0  0  0
   -4.6730    9.6610   -8.5550 C   0  0  2  0  0  0  0  0  0  0  0  0
   -3.1910    9.4800   -8.8530 C   0  0  0  0  0  0  0  0  0  0  0  0
   -2.4400   10.4770   -8.7690 O   0  5  0  0  0  0  0  0  0  0  0  0
   -5.2180   10.8840   -9.3010 C   0  0  0  0  0  0  0  0  0  0  0  0
   -6.5910   11.1040   -9.0010 O   0  0  0  0  0  0  0  0  0  0  0  0
   -2.7780    8.3390   -9.1490 O   0  0  0  0  0  0  0  0  0  0  0  0
    2.6820   19.7027    3.9943 H   0  0  0  0  0  0  0  0  0  0  0  0
    2.4127   18.6330    2.7726 H   0  0  0  0  0  0  0  0  0  0  0  0
    3.7908   18.5311    3.6670 H   0  0  0  0  0  0  0  0  0  0  0  0
    2.5756   17.9668    5.6331 H   0  0  0  0  0  0  0  0  0  0  0  0
    0.5307   19.1184    5.3200 H   0  0  0  0  0  0  0  0  0  0  0  0
    0.0946   17.3813    5.1819 H   0  0  0  0  0  0  0  0  0  0  0  0
    0.2092   17.6609    2.8920 H   0  0  0  0  0  0  0  0  0  0  0  0
    3.1540   15.9480    5.9724 H   0  0  0  0  0  0  0  0  0  0  0  0
    3.5852   14.1308    3.7630 H   0  0  0  0  0  0  0  0  0  0  0  0
    3.7474   13.7059    6.7787 H   0  0  0  0  0  0  0  0  0  0  0  0
    5.0916   14.1990    5.6940 H   0  0  0  0  0  0  0  0  0  0  0  0
    4.7275   12.0135    4.4517 H   0  0  0  0  0  0  0  0  0  0  0  0
    3.6318   11.5351    5.7924 H   0  0  0  0  0  0  0  0  0  0  0  0
    6.4503   10.0629    7.2591 H   0  0  0  0  0  0  0  0  0  0  0  0
    4.9196    9.8305    6.4826 H   0  0  0  0  0  0  0  0  0  0  0  0
    1.1122   14.5612    6.2374 H   0  0  0  0  0  0  0  0  0  0  0  0
   -0.2599   12.1006    5.9098 H   0  0  0  0  0  0  0  0  0  0  0  0
   -2.2249   13.2498    6.7995 H   0  0  0  0  0  0  0  0  0  0  0  0
   -1.4626   14.8457    6.4854 H   0  0  0  0  0  0  0  0  0  0  0  0
   -0.0887   12.8375    8.2664 H   0  0  0  0  0  0  0  0  0  0  0  0
   -1.4595   13.8135    8.8949 H   0  0  0  0  0  0  0  0  0  0  0  0
   -0.6029   15.2299    4.2178 H   0  0  0  0  0  0  0  0  0  0  0  0
   -2.7026   14.3546    2.4653 H   0  0  0  0  0  0  0  0  0  0  0  0
   -0.6358   16.5633    2.0559 H   0  0  0  0  0  0  0  0  0  0  0  0
   -2.1811   16.7395    2.9548 H   0  0  0  0  0  0  0  0  0  0  0  0
   -3.4735   16.4287    0.9723 H   0  0  0  0  0  0  0  0  0  0  0  0
   -2.0358   15.8958    0.0363 H   0  0  0  0  0  0  0  0  0  0  0  0
   -1.0430   18.1357    0.2706 H   0  0  0  0  0  0  0  0  0  0  0  0
   -2.4644   18.6719    1.2291 H   0  0  0  0  0  0  0  0  0  0  0  0
   -3.9345   18.3997   -0.6562 H   0  0  0  0  0  0  0  0  0  0  0  0
   -2.6487   17.5901   -1.6142 H   0  0  0  0  0  0  0  0  0  0  0  0
   -2.9231   19.8848   -2.2378 H   0  0  0  0  0  0  0  0  0  0  0  0
   -1.4303   19.6553   -1.5834 H   0  0  0  0  0  0  0  0  0  0  0  0
   -2.6086   20.3972   -0.7055 H   0  0  0  0  0  0  0  0  0  0  0  0
    0.7845   14.0662    2.4464 H   0  0  0  0  0  0  0  0  0  0  0  0
    1.1816   13.5029   -0.3214 H   0  0  0  0  0  0  0  0  0  0  0  0
    2.7328   12.3884    2.0579 H   0  0  0  0  0  0  0  0  0  0  0  0
    2.9643   14.0319    1.3708 H   0  0  0  0  0  0  0  0  0  0  0  0
    3.6766   14.2036   -1.0638 H   0  0  0  0  0  0  0  0  0  0  0  0
    3.8765   10.5626    1.1519 H   0  0  0  0  0  0  0  0  0  0  0  0
    5.2996   13.3107   -2.6815 H   0  0  0  0  0  0  0  0  0  0  0  0
    5.4940    9.6658   -0.4662 H   0  0  0  0  0  0  0  0  0  0  0  0
    6.2143   11.0384   -2.3846 H   0  0  0  0  0  0  0  0  0  0  0  0
    0.0890   11.5135    2.3985 H   0  0  0  0  0  0  0  0  0  0  0  0
    0.2568    9.0188    0.9060 H   0  0  0  0  0  0  0  0  0  0  0  0
   -1.1036    8.0883    2.7673 H   0  0  0  0  0  0  0  0  0  0  0  0
   -1.2891    9.7443    3.4383 H   0  0  0  0  0  0  0  0  0  0  0  0
    0.0768   10.2992    5.1776 H   0  0  0  0  0  0  0  0  0  0  0  0
    1.4846    7.4475    2.3374 H   0  0  0  0  0  0  0  0  0  0  0  0
    2.1273    9.9955    6.5024 H   0  0  0  0  0  0  0  0  0  0  0  0
    3.5401    7.1470    3.6532 H   0  0  0  0  0  0  0  0  0  0  0  0
    3.8660    8.4202    5.7418 H   0  0  0  0  0  0  0  0  0  0  0  0
   -1.9832   11.6380    1.2284 H   0  0  0  0  0  0  0  0  0  0  0  0
   -4.2939   10.0029    0.4057 H   0  0  0  0  0  0  0  0  0  0  0  0
   -5.5662   12.1044    0.8178 H   0  0  0  0  0  0  0  0  0  0  0  0
   -4.0213   12.9348    1.2055 H   0  0  0  0  0  0  0  0  0  0  0  0
   -3.6676   11.2388    3.0333 H   0  0  0  0  0  0  0  0  0  0  0  0
   -5.3266   10.6320    2.7074 H   0  0  0  0  0  0  0  0  0  0  0  0
   -6.3354   12.8215    5.2608 H   0  0  0  0  0  0  0  0  0  0  0  0
   -6.0626   11.1800    4.7798 H   0  0  0  0  0  0  0  0  0  0  0  0
   -2.8320   13.1085   -0.6340 H   0  0  0  0  0  0  0  0  0  0  0  0
   -4.3812   13.3591   -2.9965 H   0  0  0  0  0  0  0  0  0  0  0  0
   -1.6273   14.4720   -2.2868 H   0  0  0  0  0  0  0  0  0  0  0  0
   -3.2169   15.2406   -1.9567 H   0  0  0  0  0  0  0  0  0  0  0  0
   -2.1820   14.6144   -4.7461 H   0  0  0  0  0  0  0  0  0  0  0  0
   -1.9263   16.1828   -3.9086 H   0  0  0  0  0  0  0  0  0  0  0  0
   -1.1307   11.9921   -2.4660 H   0  0  0  0  0  0  0  0  0  0  0  0
   -0.5560   11.7107   -5.2640 H   0  0  0  0  0  0  0  0  0  0  0  0
    0.6650   10.2058   -2.9143 H   0  0  0  0  0  0  0  0  0  0  0  0
    1.1382   11.8613   -3.4262 H   0  0  0  0  0  0  0  0  0  0  0  0
    1.3737    9.3499   -5.1347 H   0  0  0  0  0  0  0  0  0  0  0  0
    2.7446   10.7919   -6.6021 H   0  0  0  0  0  0  0  0  0  0  0  0
    2.3904   12.1991   -5.5434 H   0  0  0  0  0  0  0  0  0  0  0  0
    1.0614   11.4003   -6.4502 H   0  0  0  0  0  0  0  0  0  0  0  0
    2.8965    9.3262   -3.1863 H   0  0  0  0  0  0  0  0  0  0  0  0
    3.5119   10.9477   -3.6542 H   0  0  0  0  0  0  0  0  0  0  0  0
    3.7880    9.5370   -4.7315 H   0  0  0  0  0  0  0  0  0  0  0  0
   -2.1728    9.6457   -2.8985 H   0  0  0  0  0  0  0  0  0  0  0  0
   -2.0164    7.3530   -4.7589 H   0  0  0  0  0  0  0  0  0  0  0  0
   -3.5597    7.3040   -2.1620 H   0  0  0  0  0  0  0  0  0  0  0  0
   -1.7637    7.2894   -2.1351 H   0  0  0  0  0  0  0  0  0  0  0  0
   -4.7959    5.3996   -3.0455 H   0  0  0  0  0  0  0  0  0  0  0  0
   -0.5328    5.4174   -3.0148 H   0  0  0  0  0  0  0  0  0  0  0  0
   -4.7828    2.9864   -3.5295 H   0  0  0  0  0  0  0  0  0  0  0  0
   -0.5167    3.0094   -3.4837 H   0  0  0  0  0  0  0  0  0  0  0  0
   -2.6382    1.7857   -3.7376 H   0  0  0  0  0  0  0  0  0  0  0  0
   -4.1239    9.9416   -3.9327 H   0  0  0  0  0  0  0  0  0  0  0  0
   -6.6627    8.8228   -4.5406 H   0  0  0  0  0  0  0  0  0  0  0  0
   -5.5578   11.6362   -4.9893 H   0  0  0  0  0  0  0  0  0  0  0  0
   -6.4795   11.0408   -3.5670 H   0  0  0  0  0  0  0  0  0  0  0  0
   -4.1775   10.3031   -6.5920 H   0  0  0  0  0  0  0  0  0  0  0  0
   -5.2171    8.7681   -8.8965 H   0  0  0  0  0  0  0  0  0  0  0  0
   -5.1096   10.7209  -10.3834 H   0  0  0  0  0  0  0  0  0  0  0  0
   -4.6399   11.7715   -9.0042 H   0  0  0  0  0  0  0  0  0  0  0  0
   -6.6906   11.2499   -8.0676 H   0  0  0  0  0  0  0  0  0  0  0  0
  1  2  1  0  0  0  0
  1108  1  0  0  0  0
  1109  1  0  0  0  0
  1110  1  0  0  0  0
  2  3  1  0  0  0  0
  2  5  1  0  0  0  0
  2111  1  1  0  0  0
  3  4  2  0  0  0  0
  3  7  1  0  0  0  0
  5  6  1  0  0  0  0
  5112  1  0  0  0  0
  5113  1  0  0  0  0
  6114  1  0  0  0  0
  7  8  1  0  0  0  0
  7115  1  0  0  0  0
  8  9  1  0  0  0  0
  8 11  1  0  0  0  0
  8116  1  6  0  0  0
  9 10  2  0  0  0  0
  9 16  1  0  0  0  0
 11 12  1  0  0  0  0
 11117  1  0  0  0  0
 11118  1  0  0  0  0
 12 13  1  0  0  0  0
 12119  1  0  0  0  0
 12120  1  0  0  0  0
 13 14  2  0  0  0  0
 13 15  1  0  0  0  0
 15121  1  0  0  0  0
 15122  1  0  0  0  0
 16 17  1  0  0  0  0
 16123  1  0  0  0  0
 17 18  1  0  0  0  0
 17 20  1  0  0  0  0
 17124  1  1  0  0  0
 18 19  2  0  0  0  0
 18 25  1  0  0  0  0
 20 21  1  0  0  0  0
 20125  1  0  0  0  0
 20126  1  0  0  0  0
 21 22  1  0  0  0  0
 21127  1  0  0  0  0
 21128  1  0  0  0  0
 22 23  1  0  0  0  0
 22 24  2  0  0  0  0
 25 26  1  0  0  0  0
 25129  1  0  0  0  0
 26 27  1  0  0  0  0
 26 29  1  0  0  0  0
 26130  1  1  0  0  0
 27 28  2  0  0  0  0
 27 34  1  0  0  0  0
 29 30  1  0  0  0  0
 29131  1  0  0  0  0
 29132  1  0  0  0  0
 30 31  1  0  0  0  0
 30133  1  0  0  0  0
 30134  1  0  0  0  0
 31 32  1  0  0  0  0
 31135  1  0  0  0  0
 31136  1  0  0  0  0
 32 33  1  0  0  0  0
 32137  1  0  0  0  0
 32138  1  0  0  0  0
 33139  1  0  0  0  0
 33140  1  0  0  0  0
 33141  1  0  0  0  0
 34 35  1  0  0  0  0
 34142  1  0  0  0  0
 35 36  1  0  0  0  0
 35 38  1  0  0  0  0
 35143  1  6  0  0  0
 36 37  2  0  0  0  0
 36 45  1  0  0  0  0
 38 39  1  0  0  0  0
 38144  1  0  0  0  0
 38145  1  0  0  0  0
 39 40  2  0  0  0  0
 39 41  1  0  0  0  0
 40 42  1  0  0  0  0
 40146  1  0  0  0  0
 41 43  2  0  0  0  0
 41147  1  0  0  0  0
 42 44  2  0  0  0  0
 42148  1  0  0  0  0
 43 44  1  0  0  0  0
 43149  1  0  0  0  0
 44150  1  0  0  0  0
 45 46  1  0  0  0  0
 45151  1  0  0  0  0
 46 47  1  0  0  0  0
 46 49  1  0  0  0  0
 46152  1  6  0  0  0
 47 48  2  0  0  0  0
 47 56  1  0  0  0  0
 49 50  1  0  0  0  0
 49153  1  0  0  0  0
 49154  1  0  0  0  0
 50 51  2  0  0  0  0
 50 52  1  0  0  0  0
 51 53  1  0  0  0  0
 51155  1  0  0  0  0
 52 54  2  0  0  0  0
 52156  1  0  0  0  0
 53 55  2  0  0  0  0
 53157  1  0  0  0  0
 54 55  1  0  0  0  0
 54158  1  0  0  0  0
 55159  1  0  0  0  0
 56 57  1  0  0  0  0
 56160  1  0  0  0  0
 57 58  1  0  0  0  0
 57 60  1  0  0  0  0
 57161  1  1  0  0  0
 58 59  2  0  0  0  0
 58 65  1  0  0  0  0
 60 61  1  0  0  0  0
 60162  1  0  0  0  0
 60163  1  0  0  0  0
 61 62  1  0  0  0  0
 61164  1  0  0  0  0
 61165  1  0  0  0  0
 62 63  2  0  0  0  0
 62 64  1  0  0  0  0
 64166  1  0  0  0  0
 64167  1  0  0  0  0
 65 66  1  0  0  0  0
 65168  1  0  0  0  0
 66 67  1  0  0  0  0
 66 69  1  0  0  0  0
 66169  1  6  0  0  0
 67 68  2  0  0  0  0
 67 74  1  0  0  0  0
 69 70  1  0  0  0  0
 69170  1  0  0  0  0
 69171  1  0  0  0  0
 70 71  1  0  0  0  0
 70172  1  0  0  0  0
 70173  1  0  0  0  0
 71 72  1  0  0  0  0
 71 73  2  0  0  0  0
 74 75  1  0  0  0  0
 74174  1  0  0  0  0
 75 76  1  0  0  0  0
 75 78  1  0  0  0  0
 75175  1  6  0  0  0
 76 77  2  0  0  0  0
 76 82  1  0  0  0  0
 78 79  1  0  0  0  0
 78176  1  0  0  0  0
 78177  1  0  0  0  0
 79 80  1  0  0  0  0
 79 81  1  0  0  0  0
 79178  1  0  0  0  0
 80179  1  0  0  0  0
 80180  1  0  0  0  0
 80181  1  0  0  0  0
 81182  1  0  0  0  0
 81183  1  0  0  0  0
 81184  1  0  0  0  0
 82 83  1  0  0  0  0
 82185  1  0  0  0  0
 83 84  1  0  0  0  0
 83 86  1  0  0  0  0
 83186  1  6  0  0  0
 84 85  2  0  0  0  0
 84 93  1  0  0  0  0
 86 87  1  0  0  0  0
 86187  1  0  0  0  0
 86188  1  0  0  0  0
 87 88  2  0  0  0  0
 87 89  1  0  0  0  0
 88 90  1  0  0  0  0
 88189  1  0  0  0  0
 89 91  2  0  0  0  0
 89190  1  0  0  0  0
 90 92  2  0  0  0  0
 90191  1  0  0  0  0
 91 92  1  0  0  0  0
 91192  1  0  0  0  0
 92193  1  0  0  0  0
 93 94  1  0  0  0  0
 93194  1  0  0  0  0
 94 95  1  0  0  0  0
 94 97  1  0  0  0  0
 94195  1  1  0  0  0
 95 96  2  0  0  0  0
 95101  1  0  0  0  0
 97 98  1  0  0  0  0
 97196  1  0  0  0  0
 97197  1  0  0  0  0
 98 99  1  0  0  0  0
 98100  2  0  0  0  0
101102  1  0  0  0  0
101198  1  0  0  0  0
102103  1  0  0  0  0
102105  1  0  0  0  0
102199  1  6  0  0  0
103104  1  0  0  0  0
103107  2  0  0  0  0
105106  1  0  0  0  0
105200  1  0  0  0  0
105201  1  0  0  0  0
106202  1  0  0  0  0
M  CHG  6   1   1  23  -1  33   1  72  -1  99  -1 104  -1
M  END
