2w8f_ligand
 OpenBabel08222323343D

 56 60  0  0  1  0  0  0  0  0999 V2000
   46.2040   35.6470   54.2390 C   0  0  0  0  0  0  0  0  0  0  0  0
   45.8010   37.0180   54.6210 N   0  3  0  0  0  0  0  0  0  0  0  0
   46.2310   37.9790   53.6000 C   0  0  0  0  0  0  0  0  0  0  0  0
   46.3070   37.5010   55.9200 C   0  0  1  0  0  0  0  0  0  0  0  0
   45.4370   38.7260   56.2010 C   0  0  0  0  0  0  0  0  0  0  0  0
   44.1450   38.4860   55.3990 C   0  0  0  0  0  0  0  0  0  0  0  0
   44.3490   37.1040   54.7610 C   0  0  2  0  0  0  0  0  0  0  0  0
   46.0910   36.4710   57.0340 C   0  0  0  0  0  0  0  0  0  0  0  0
   44.7630   35.6780   56.9510 C   0  0  1  0  0  0  0  0  0  0  0  0
   43.8630   35.9740   55.6890 C   0  0  0  0  0  0  0  0  0  0  0  0
   44.9780   34.2700   57.1250 O   0  0  0  0  0  0  0  0  0  0  0  0
   44.1200   33.7280   58.1500 C   0  0  0  0  0  0  0  0  0  0  0  0
   42.9120   33.1010   57.5170 C   0  0  0  0  0  0  0  0  0  0  0  0
   41.7580   33.9010   57.4940 C   0  0  0  0  0  0  0  0  0  0  0  0
   40.5590   33.4560   56.9280 C   0  0  0  0  0  0  0  0  0  0  0  0
   40.4940   32.1800   56.3700 C   0  0  0  0  0  0  0  0  0  0  0  0
   41.6340   31.3740   56.3810 C   0  0  0  0  0  0  0  0  0  0  0  0
   42.8460   31.8100   56.9380 C   0  0  0  0  0  0  0  0  0  0  0  0
   43.9680   30.7830   56.8650 C   0  0  0  0  0  0  0  0  0  0  0  0
   45.3720   31.3030   57.1630 C   0  0  0  0  0  0  0  0  0  0  0  0
   45.4560   31.6360   58.6270 C   0  0  0  0  0  0  0  0  0  0  0  0
   46.1340   30.7660   59.4960 C   0  0  0  0  0  0  0  0  0  0  0  0
   46.2070   31.0740   60.8550 C   0  0  0  0  0  0  0  0  0  0  0  0
   45.5980   32.2480   61.3180 C   0  0  0  0  0  0  0  0  0  0  0  0
   44.9180   33.1120   60.4480 C   0  0  0  0  0  0  0  0  0  0  0  0
   44.8440   32.8070   59.0850 C   0  0  0  0  0  0  0  0  0  0  0  0
   47.2984   35.6012   54.1383 H   0  0  0  0  0  0  0  0  0  0  0  0
   45.7361   35.3811   53.2796 H   0  0  0  0  0  0  0  0  0  0  0  0
   45.8773   34.9391   55.0150 H   0  0  0  0  0  0  0  0  0  0  0  0
   45.9244   38.9925   53.8981 H   0  0  0  0  0  0  0  0  0  0  0  0
   45.7653   37.7236   52.6367 H   0  0  0  0  0  0  0  0  0  0  0  0
   47.3257   37.9419   53.4994 H   0  0  0  0  0  0  0  0  0  0  0  0
   47.3727   37.7659   55.8555 H   0  0  0  0  0  0  0  0  0  0  0  0
   45.9390   39.6437   55.8606 H   0  0  0  0  0  0  0  0  0  0  0  0
   45.2163   38.8058   57.2757 H   0  0  0  0  0  0  0  0  0  0  0  0
   44.0168   39.2576   54.6256 H   0  0  0  0  0  0  0  0  0  0  0  0
   43.2682   38.4834   56.0633 H   0  0  0  0  0  0  0  0  0  0  0  0
   43.8413   37.0360   53.7876 H   0  0  0  0  0  0  0  0  0  0  0  0
   46.1104   37.0022   57.9970 H   0  0  0  0  0  0  0  0  0  0  0  0
   46.9208   35.7499   56.9962 H   0  0  0  0  0  0  0  0  0  0  0  0
   44.1705   36.0085   57.8169 H   0  0  0  0  0  0  0  0  0  0  0  0
   43.8052   35.0511   55.0933 H   0  0  0  0  0  0  0  0  0  0  0  0
   42.8584   36.2423   56.0479 H   0  0  0  0  0  0  0  0  0  0  0  0
   43.7647   34.5734   58.7575 H   0  0  0  0  0  0  0  0  0  0  0  0
   41.7978   34.8935   57.9281 H   0  0  0  0  0  0  0  0  0  0  0  0
   39.6862   34.0988   56.9232 H   0  0  0  0  0  0  0  0  0  0  0  0
   39.5702   31.8183   55.9332 H   0  0  0  0  0  0  0  0  0  0  0  0
   41.5813   30.3823   55.9465 H   0  0  0  0  0  0  0  0  0  0  0  0
   43.9737   30.3625   55.8486 H   0  0  0  0  0  0  0  0  0  0  0  0
   43.7432   29.9869   57.5900 H   0  0  0  0  0  0  0  0  0  0  0  0
   45.5683   32.2053   56.5653 H   0  0  0  0  0  0  0  0  0  0  0  0
   46.1145   30.5302   56.9150 H   0  0  0  0  0  0  0  0  0  0  0  0
   46.5967   29.8630   59.1144 H   0  0  0  0  0  0  0  0  0  0  0  0
   46.7266   30.4155   61.5417 H   0  0  0  0  0  0  0  0  0  0  0  0
   45.6539   32.4937   62.3723 H   0  0  0  0  0  0  0  0  0  0  0  0
   44.4515   34.0128   60.8302 H   0  0  0  0  0  0  0  0  0  0  0  0
  1  2  1  0  0  0  0
  1 27  1  0  0  0  0
  1 28  1  0  0  0  0
  1 29  1  0  0  0  0
  2  3  1  0  0  0  0
  2  4  1  0  0  0  0
  2  7  1  0  0  0  0
  3 30  1  0  0  0  0
  3 31  1  0  0  0  0
  3 32  1  0  0  0  0
  4  5  1  0  0  0  0
  4  8  1  0  0  0  0
  4 33  1  6  0  0  0
  5  6  1  0  0  0  0
  5 34  1  0  0  0  0
  5 35  1  0  0  0  0
  6  7  1  0  0  0  0
  6 36  1  0  0  0  0
  6 37  1  0  0  0  0
  7 10  1  0  0  0  0
  7 38  1  6  0  0  0
  8  9  1  0  0  0  0
  8 39  1  0  0  0  0
  8 40  1  0  0  0  0
  9 10  1  0  0  0  0
  9 11  1  0  0  0  0
  9 41  1  1  0  0  0
 10 42  1  0  0  0  0
 10 43  1  0  0  0  0
 11 12  1  0  0  0  0
 12 13  1  0  0  0  0
 12 26  1  0  0  0  0
 12 44  1  0  0  0  0
 13 14  2  0  0  0  0
 13 18  1  0  0  0  0
 14 15  1  0  0  0  0
 14 45  1  0  0  0  0
 15 16  2  0  0  0  0
 15 46  1  0  0  0  0
 16 17  1  0  0  0  0
 16 47  1  0  0  0  0
 17 18  2  0  0  0  0
 17 48  1  0  0  0  0
 18 19  1  0  0  0  0
 19 20  1  0  0  0  0
 19 49  1  0  0  0  0
 19 50  1  0  0  0  0
 20 21  1  0  0  0  0
 20 51  1  0  0  0  0
 20 52  1  0  0  0  0
 21 22  2  0  0  0  0
 21 26  1  0  0  0  0
 22 23  1  0  0  0  0
 22 53  1  0  0  0  0
 23 24  2  0  0  0  0
 23 54  1  0  0  0  0
 24 25  1  0  0  0  0
 24 55  1  0  0  0  0
 25 26  2  0  0  0  0
 25 56  1  0  0  0  0
M  CHG  1   2   1
M  END
