2w9r_ligand
 OpenBabel08222323343D

190190  0  0  1  0  0  0  0  0999 V2000
   18.5670    8.8870    1.1320 N   0  3  0  0  0  0  0  0  0  0  0  0
   18.2180    7.8270    2.1260 C   0  0  2  0  0  0  0  0  0  0  0  0
   17.1500    8.3720    3.0810 C   0  0  0  0  0  0  0  0  0  0  0  0
   16.8390    9.5700    3.0500 O   0  0  0  0  0  0  0  0  0  0  0  0
   19.4560    7.4100    2.9260 C   0  0  0  0  0  0  0  0  0  0  0  0
   20.6510    6.9550    2.0930 C   0  0  0  0  0  0  0  0  0  0  0  0
   21.8730    6.7290    2.9660 C   0  0  0  0  0  0  0  0  0  0  0  0
   20.2880    5.7020    1.2830 C   0  0  0  0  0  0  0  0  0  0  0  0
   16.5890    7.4850    3.8990 N   0  0  0  0  0  0  0  0  0  0  0  0
   15.5290    7.8560    4.8480 C   0  0  2  0  0  0  0  0  0  0  0  0
   16.0820    8.0000    6.2630 C   0  0  0  0  0  0  0  0  0  0  0  0
   16.6180    7.0460    6.8450 O   0  0  0  0  0  0  0  0  0  0  0  0
   14.3300    6.8630    4.8160 C   0  0  0  0  0  0  0  0  0  0  0  0
   13.2480    7.2610    5.8340 C   0  0  0  0  0  0  0  0  0  0  0  0
   13.7350    6.7980    3.4210 C   0  0  0  0  0  0  0  0  0  0  0  0
   15.9370    9.2060    6.8080 N   0  0  0  0  0  0  0  0  0  0  0  0
   16.3680    9.4970    8.1710 C   0  0  2  0  0  0  0  0  0  0  0  0
   15.3870    8.9020    9.1770 C   0  0  0  0  0  0  0  0  0  0  0  0
   14.1770    8.9150    8.9470 O   0  0  0  0  0  0  0  0  0  0  0  0
   16.4910   11.0080    8.3600 C   0  0  0  0  0  0  0  0  0  0  0  0
   17.1320   11.4280    9.6720 C   0  0  0  0  0  0  0  0  0  0  0  0
   17.4760   12.9040    9.6580 C   0  0  0  0  0  0  0  0  0  0  0  0
   17.7030   13.4190   11.0720 C   0  0  0  0  0  0  0  0  0  0  0  0
   18.2870   14.7870   11.0860 N   0  3  0  0  0  0  0  0  0  0  0  0
   15.9110    8.3830   10.2900 N   0  0  0  0  0  0  0  0  0  0  0  0
   15.0650    7.8110   11.3390 C   0  0  2  0  0  0  0  0  0  0  0  0
   14.3930    8.9200   12.1380 C   0  0  0  0  0  0  0  0  0  0  0  0
   14.9130   10.0360   12.2170 O   0  0  0  0  0  0  0  0  0  0  0  0
   15.8600    6.8770   12.2610 C   0  0  0  0  0  0  0  0  0  0  0  0
   16.6160    7.5880   13.2310 O   0  0  0  0  0  0  0  0  0  0  0  0
   13.2290    8.6150   12.7050 N   0  0  0  0  0  0  0  0  0  0  0  0
   12.5220    9.5670   13.5500 C   0  0  2  0  0  0  0  0  0  0  0  0
   13.3200    9.7780   14.8220 C   0  0  0  0  0  0  0  0  0  0  0  0
   13.9020    8.8340   15.3600 O   0  0  0  0  0  0  0  0  0  0  0  0
   11.1030    9.0820   13.8800 C   0  0  0  0  0  0  0  0  0  0  0  0
   10.2910   10.0920   14.7170 C   0  0  0  0  0  0  0  0  0  0  0  0
    8.8150   10.1490   14.2880 C   0  0  0  0  0  0  0  0  0  0  0  0
    8.0300   11.1710   15.1270 C   0  0  0  0  0  0  0  0  0  0  0  0
    6.5310   11.2220   14.6220 N   0  3  0  0  0  0  0  0  0  0  0  0
   13.3600   11.0290   15.2690 N   0  0  0  0  0  0  0  0  0  0  0  0
   13.9660   11.3950   16.5460 C   0  0  2  0  0  0  0  0  0  0  0  0
   13.2050   10.7650   17.7160 C   0  0  0  0  0  0  0  0  0  0  0  0
   12.0000   10.5020   17.6150 O   0  0  0  0  0  0  0  0  0  0  0  0
   14.0060   12.9100   16.6870 C   0  0  0  0  0  0  0  0  0  0  0  0
   13.9180   10.5110   18.8130 N   0  0  0  0  0  0  0  0  0  0  0  0
   13.3040    9.9820   20.0310 C   0  0  2  0  0  0  0  0  0  0  0  0
   12.9160   11.1130   20.9890 C   0  0  0  0  0  0  0  0  0  0  0  0
   13.7470   11.9620   21.3160 O   0  0  0  0  0  0  0  0  0  0  0  0
   14.2210    8.9350   20.7490 C   0  0  2  0  0  0  0  0  0  0  0  0
   13.6390    8.5480   22.0020 O   0  0  0  0  0  0  0  0  0  0  0  0
   15.6330    9.4860   20.9970 C   0  0  0  0  0  0  0  0  0  0  0  0
   11.6460   11.1210   21.4040 N   0  0  0  0  0  0  0  0  0  0  0  0
   11.1210   12.0580   22.4220 C   0  0  2  0  0  0  0  0  0  0  0  0
    9.8980   11.5380   23.1930 C   0  0  0  0  0  0  0  0  0  0  0  0
    8.9380   11.0480   22.5880 O   0  0  0  0  0  0  0  0  0  0  0  0
   10.8170   13.4460   21.8200 C   0  0  0  0  0  0  0  0  0  0  0  0
   10.0990   13.3770   20.4710 C   0  0  0  0  0  0  0  0  0  0  0  0
   10.5710   13.9440   19.4870 O   0  0  0  0  0  0  0  0  0  0  0  0
    8.9550   12.6970   20.4240 N   0  0  0  0  0  0  0  0  0  0  0  0
    9.9430   11.6500   24.5220 N   0  0  0  0  0  0  0  0  0  0  0  0
    8.8260   11.2530   25.3910 C   0  0  2  0  0  0  0  0  0  0  0  0
    8.7200   12.2090   26.5730 C   0  0  0  0  0  0  0  0  0  0  0  0
    9.4380   12.0520   27.5660 O   0  0  0  0  0  0  0  0  0  0  0  0
    9.0100    9.8110   25.8870 C   0  0  0  0  0  0  0  0  0  0  0  0
    7.8060    8.8720   26.0990 C   0  0  0  0  0  0  0  0  0  0  0  0
    6.7600    9.4280   27.0720 C   0  0  0  0  0  0  0  0  0  0  0  0
    7.1570    8.4760   24.7640 C   0  0  0  0  0  0  0  0  0  0  0  0
    7.8070   13.1790   26.4680 N   0  0  0  0  0  0  0  0  0  0  0  0
    7.7500   14.3120   27.3940 C   0  0  2  0  0  0  0  0  0  0  0  0
    9.1780   14.8360   27.5150 C   0  0  0  0  0  0  0  0  0  0  0  0
    9.7120   14.9610   28.6100 O   0  0  0  0  0  0  0  0  0  0  0  0
    7.1890   13.8750   28.7550 C   0  0  0  0  0  0  0  0  0  0  0  0
    6.7690   14.8820   29.8450 C   0  0  0  0  0  0  0  0  0  0  0  0
    7.9490   15.6630   30.3970 C   0  0  0  0  0  0  0  0  0  0  0  0
    5.6990   15.8390   29.3740 C   0  0  0  0  0  0  0  0  0  0  0  0
    9.7890   15.1220   26.3650 N   0  0  0  0  0  0  0  0  0  0  0  0
   11.2490   15.2860   26.2570 C   0  0  2  0  0  0  0  0  0  0  0  0
   12.0040   13.9600   26.4210 C   0  0  0  0  0  0  0  0  0  0  0  0
   12.9630   13.8500   27.1930 O   0  0  0  0  0  0  0  0  0  0  0  0
   11.7630   16.3250   27.2470 C   0  0  0  0  0  0  0  0  0  0  0  0
   12.0690   17.6640   26.6380 C   0  0  0  0  0  0  0  0  0  0  0  0
   11.1290   18.3290   25.8630 C   0  0  0  0  0  0  0  0  0  0  0  0
   13.2920   18.2820   26.8680 C   0  0  0  0  0  0  0  0  0  0  0  0
   11.4050   19.5660   25.3110 C   0  0  0  0  0  0  0  0  0  0  0  0
   13.5730   19.5200   26.3220 C   0  0  0  0  0  0  0  0  0  0  0  0
   12.6220   20.1590   25.5410 C   0  0  0  0  0  0  0  0  0  0  0  0
   12.8830   21.3990   24.9910 O   0  0  0  0  0  0  0  0  0  0  0  0
   19.2693    8.5364    0.4996 H   0  0  0  0  0  0  0  0  0  0  0  0
   18.9239    9.6964    1.6152 H   0  0  0  0  0  0  0  0  0  0  0  0
   17.7432    9.1431    0.6106 H   0  0  0  0  0  0  0  0  0  0  0  0
   17.8204    6.9496    1.5950 H   0  0  0  0  0  0  0  0  0  0  0  0
   19.1684    6.5802    3.5883 H   0  0  0  0  0  0  0  0  0  0  0  0
   19.7735    8.2706    3.5331 H   0  0  0  0  0  0  0  0  0  0  0  0
   20.8936    7.7576    1.3810 H   0  0  0  0  0  0  0  0  0  0  0  0
   22.7160    6.4026    2.3393 H   0  0  0  0  0  0  0  0  0  0  0  0
   21.6508    5.9540    3.7143 H   0  0  0  0  0  0  0  0  0  0  0  0
   22.1373    7.6667    3.4767 H   0  0  0  0  0  0  0  0  0  0  0  0
   19.4006    5.9083    0.6666 H   0  0  0  0  0  0  0  0  0  0  0  0
   20.0718    4.8709    1.9704 H   0  0  0  0  0  0  0  0  0  0  0  0
   21.1315    5.4293    0.6317 H   0  0  0  0  0  0  0  0  0  0  0  0
   16.8986    6.5346    3.8673 H   0  0  0  0  0  0  0  0  0  0  0  0
   15.1461    8.8403    4.5405 H   0  0  0  0  0  0  0  0  0  0  0  0
   14.7037    5.8633    5.0824 H   0  0  0  0  0  0  0  0  0  0  0  0
   12.4173    6.5415    5.7863 H   0  0  0  0  0  0  0  0  0  0  0  0
   12.8746    8.2683    5.5974 H   0  0  0  0  0  0  0  0  0  0  0  0
   13.6781    7.2578    6.8464 H   0  0  0  0  0  0  0  0  0  0  0  0
   14.5169    6.5128    2.7018 H   0  0  0  0  0  0  0  0  0  0  0  0
   13.3288    7.7835    3.1493 H   0  0  0  0  0  0  0  0  0  0  0  0
   12.9282    6.0506    3.4009 H   0  0  0  0  0  0  0  0  0  0  0  0
   15.5195    9.9353    6.2660 H   0  0  0  0  0  0  0  0  0  0  0  0
   17.3554    9.0407    8.3344 H   0  0  0  0  0  0  0  0  0  0  0  0
   15.4817   11.4432    8.3158 H   0  0  0  0  0  0  0  0  0  0  0  0
   17.0997   11.4090    7.5362 H   0  0  0  0  0  0  0  0  0  0  0  0
   18.0522   10.8453    9.8260 H   0  0  0  0  0  0  0  0  0  0  0  0
   16.4302   11.2297   10.4954 H   0  0  0  0  0  0  0  0  0  0  0  0
   16.6473   13.4632    9.1992 H   0  0  0  0  0  0  0  0  0  0  0  0
   18.3917   13.0554    9.0677 H   0  0  0  0  0  0  0  0  0  0  0  0
   18.3904   12.7353   11.5917 H   0  0  0  0  0  0  0  0  0  0  0  0
   16.7383   13.4405   11.6001 H   0  0  0  0  0  0  0  0  0  0  0  0
   18.4195   15.0860   12.0395 H   0  0  0  0  0  0  0  0  0  0  0  0
   17.6617   15.4241   10.6179 H   0  0  0  0  0  0  0  0  0  0  0  0
   19.1756   14.7779   10.6102 H   0  0  0  0  0  0  0  0  0  0  0  0
   16.9038    8.3850   10.4098 H   0  0  0  0  0  0  0  0  0  0  0  0
   14.2785    7.2150   10.8530 H   0  0  0  0  0  0  0  0  0  0  0  0
   16.5480    6.2768   11.6476 H   0  0  0  0  0  0  0  0  0  0  0  0
   15.1560    6.2107   12.7809 H   0  0  0  0  0  0  0  0  0  0  0  0
   17.2326    8.1620   12.7918 H   0  0  0  0  0  0  0  0  0  0  0  0
   12.8305    7.7115   12.5474 H   0  0  0  0  0  0  0  0  0  0  0  0
   12.4451   10.5247   13.0144 H   0  0  0  0  0  0  0  0  0  0  0  0
   11.1783    8.1413   14.4451 H   0  0  0  0  0  0  0  0  0  0  0  0
   10.5678    8.9009   12.9362 H   0  0  0  0  0  0  0  0  0  0  0  0
   10.7343   11.0912   14.5942 H   0  0  0  0  0  0  0  0  0  0  0  0
   10.3410    9.7962   15.7753 H   0  0  0  0  0  0  0  0  0  0  0  0
    8.3643    9.1544   14.4207 H   0  0  0  0  0  0  0  0  0  0  0  0
    8.7605   10.4378   13.2280 H   0  0  0  0  0  0  0  0  0  0  0  0
    8.4883   12.1651   15.0182 H   0  0  0  0  0  0  0  0  0  0  0  0
    8.0511   10.8713   16.1852 H   0  0  0  0  0  0  0  0  0  0  0  0
    6.0143   11.8914   15.1706 H   0  0  0  0  0  0  0  0  0  0  0  0
    6.1117   10.3108   14.7216 H   0  0  0  0  0  0  0  0  0  0  0  0
    6.5123   11.4964   13.6522 H   0  0  0  0  0  0  0  0  0  0  0  0
   12.9575   11.7510   14.7062 H   0  0  0  0  0  0  0  0  0  0  0  0
   14.9985   11.0158   16.5618 H   0  0  0  0  0  0  0  0  0  0  0  0
   14.4637   13.1765   17.6511 H   0  0  0  0  0  0  0  0  0  0  0  0
   12.9820   13.3094   16.6444 H   0  0  0  0  0  0  0  0  0  0  0  0
   14.6013   13.3390   15.8675 H   0  0  0  0  0  0  0  0  0  0  0  0
   14.9023   10.6873   18.8033 H   0  0  0  0  0  0  0  0  0  0  0  0
   12.3802    9.4634   19.7351 H   0  0  0  0  0  0  0  0  0  0  0  0
   14.3014    8.0468   20.1051 H   0  0  0  0  0  0  0  0  0  0  0  0
   13.5455    9.3138   22.5564 H   0  0  0  0  0  0  0  0  0  0  0  0
   16.2417    8.7211   21.5013 H   0  0  0  0  0  0  0  0  0  0  0  0
   15.5707   10.3822   21.6318 H   0  0  0  0  0  0  0  0  0  0  0  0
   16.0980    9.7493   20.0355 H   0  0  0  0  0  0  0  0  0  0  0  0
   11.0147   10.4564   21.0042 H   0  0  0  0  0  0  0  0  0  0  0  0
   11.9247   12.1936   23.1607 H   0  0  0  0  0  0  0  0  0  0  0  0
   11.7673   13.9826   21.6825 H   0  0  0  0  0  0  0  0  0  0  0  0
   10.1813   14.0009   22.5257 H   0  0  0  0  0  0  0  0  0  0  0  0
    8.4510   12.6252   19.5633 H   0  0  0  0  0  0  0  0  0  0  0  0
    8.5999   12.2582   21.2494 H   0  0  0  0  0  0  0  0  0  0  0  0
   10.7709   12.0193   24.9441 H   0  0  0  0  0  0  0  0  0  0  0  0
    7.8935   11.3065   24.8100 H   0  0  0  0  0  0  0  0  0  0  0  0
    9.5243    9.8797   26.8569 H   0  0  0  0  0  0  0  0  0  0  0  0
    9.6667    9.3136   25.1581 H   0  0  0  0  0  0  0  0  0  0  0  0
    8.2018    7.9511   26.5521 H   0  0  0  0  0  0  0  0  0  0  0  0
    5.9345    8.7081   27.1736 H   0  0  0  0  0  0  0  0  0  0  0  0
    6.3698   10.3811   26.6856 H   0  0  0  0  0  0  0  0  0  0  0  0
    7.2250    9.5937   28.0550 H   0  0  0  0  0  0  0  0  0  0  0  0
    7.9270    8.0809   24.0850 H   0  0  0  0  0  0  0  0  0  0  0  0
    6.6854    9.3596   24.3092 H   0  0  0  0  0  0  0  0  0  0  0  0
    6.3940    7.7039   24.9420 H   0  0  0  0  0  0  0  0  0  0  0  0
    7.1363   13.1293   25.7280 H   0  0  0  0  0  0  0  0  0  0  0  0
    7.1016   15.0987   26.9810 H   0  0  0  0  0  0  0  0  0  0  0  0
    7.9596   13.2363   29.2112 H   0  0  0  0  0  0  0  0  0  0  0  0
    6.2952   13.2722   28.5367 H   0  0  0  0  0  0  0  0  0  0  0  0
    6.3444   14.2965   30.6738 H   0  0  0  0  0  0  0  0  0  0  0  0
    7.5963   16.3642   31.1677 H   0  0  0  0  0  0  0  0  0  0  0  0
    8.4301   16.2248   29.5828 H   0  0  0  0  0  0  0  0  0  0  0  0
    8.6751   14.9657   30.8404 H   0  0  0  0  0  0  0  0  0  0  0  0
    4.8469   15.2689   28.9753 H   0  0  0  0  0  0  0  0  0  0  0  0
    6.1081   16.4869   28.5848 H   0  0  0  0  0  0  0  0  0  0  0  0
    5.3628   16.4579   30.2189 H   0  0  0  0  0  0  0  0  0  0  0  0
    9.2327   15.2297   25.5410 H   0  0  0  0  0  0  0  0  0  0  0  0
   11.4603   15.6597   25.2442 H   0  0  0  0  0  0  0  0  0  0  0  0
   11.6867   13.0937   25.8423 H   0  0  0  0  0  0  0  0  0  0  0  0
   12.6844   15.9370   27.7057 H   0  0  0  0  0  0  0  0  0  0  0  0
   10.9981   16.4674   28.0246 H   0  0  0  0  0  0  0  0  0  0  0  0
   10.1624   17.8708   25.6877 H   0  0  0  0  0  0  0  0  0  0  0  0
   14.0347   17.7870   27.4832 H   0  0  0  0  0  0  0  0  0  0  0  0
   10.6633   20.0661   24.6987 H   0  0  0  0  0  0  0  0  0  0  0  0
   14.5330   19.9896   26.5035 H   0  0  0  0  0  0  0  0  0  0  0  0
   12.1290   21.6870   24.4899 H   0  0  0  0  0  0  0  0  0  0  0  0
  1  2  1  0  0  0  0
  1 88  1  0  0  0  0
  1 89  1  0  0  0  0
  1 90  1  0  0  0  0
  2  3  1  0  0  0  0
  2  5  1  0  0  0  0
  2 91  1  6  0  0  0
  3  4  2  0  0  0  0
  3  9  1  0  0  0  0
  5  6  1  0  0  0  0
  5 92  1  0  0  0  0
  5 93  1  0  0  0  0
  6  7  1  0  0  0  0
  6  8  1  0  0  0  0
  6 94  1  0  0  0  0
  7 95  1  0  0  0  0
  7 96  1  0  0  0  0
  7 97  1  0  0  0  0
  8 98  1  0  0  0  0
  8 99  1  0  0  0  0
  8100  1  0  0  0  0
  9 10  1  0  0  0  0
  9101  1  0  0  0  0
 10 11  1  0  0  0  0
 10 13  1  0  0  0  0
 10102  1  6  0  0  0
 11 12  2  0  0  0  0
 11 16  1  0  0  0  0
 13 14  1  0  0  0  0
 13 15  1  0  0  0  0
 13103  1  0  0  0  0
 14104  1  0  0  0  0
 14105  1  0  0  0  0
 14106  1  0  0  0  0
 15107  1  0  0  0  0
 15108  1  0  0  0  0
 15109  1  0  0  0  0
 16 17  1  0  0  0  0
 16110  1  0  0  0  0
 17 18  1  0  0  0  0
 17 20  1  0  0  0  0
 17111  1  1  0  0  0
 18 19  2  0  0  0  0
 18 25  1  0  0  0  0
 20 21  1  0  0  0  0
 20112  1  0  0  0  0
 20113  1  0  0  0  0
 21 22  1  0  0  0  0
 21114  1  0  0  0  0
 21115  1  0  0  0  0
 22 23  1  0  0  0  0
 22116  1  0  0  0  0
 22117  1  0  0  0  0
 23 24  1  0  0  0  0
 23118  1  0  0  0  0
 23119  1  0  0  0  0
 24120  1  0  0  0  0
 24121  1  0  0  0  0
 24122  1  0  0  0  0
 25 26  1  0  0  0  0
 25123  1  0  0  0  0
 26 27  1  0  0  0  0
 26 29  1  0  0  0  0
 26124  1  6  0  0  0
 27 28  2  0  0  0  0
 27 31  1  0  0  0  0
 29 30  1  0  0  0  0
 29125  1  0  0  0  0
 29126  1  0  0  0  0
 30127  1  0  0  0  0
 31 32  1  0  0  0  0
 31128  1  0  0  0  0
 32 33  1  0  0  0  0
 32 35  1  0  0  0  0
 32129  1  6  0  0  0
 33 34  2  0  0  0  0
 33 40  1  0  0  0  0
 35 36  1  0  0  0  0
 35130  1  0  0  0  0
 35131  1  0  0  0  0
 36 37  1  0  0  0  0
 36132  1  0  0  0  0
 36133  1  0  0  0  0
 37 38  1  0  0  0  0
 37134  1  0  0  0  0
 37135  1  0  0  0  0
 38 39  1  0  0  0  0
 38136  1  0  0  0  0
 38137  1  0  0  0  0
 39138  1  0  0  0  0
 39139  1  0  0  0  0
 39140  1  0  0  0  0
 40 41  1  0  0  0  0
 40141  1  0  0  0  0
 41 42  1  0  0  0  0
 41 44  1  0  0  0  0
 41142  1  1  0  0  0
 42 43  2  0  0  0  0
 42 45  1  0  0  0  0
 44143  1  0  0  0  0
 44144  1  0  0  0  0
 44145  1  0  0  0  0
 45 46  1  0  0  0  0
 45146  1  0  0  0  0
 46 47  1  0  0  0  0
 46 49  1  0  0  0  0
 46147  1  6  0  0  0
 47 48  2  0  0  0  0
 47 52  1  0  0  0  0
 49 50  1  0  0  0  0
 49 51  1  0  0  0  0
 49148  1  6  0  0  0
 50149  1  0  0  0  0
 51150  1  0  0  0  0
 51151  1  0  0  0  0
 51152  1  0  0  0  0
 52 53  1  0  0  0  0
 52153  1  0  0  0  0
 53 54  1  0  0  0  0
 53 56  1  0  0  0  0
 53154  1  1  0  0  0
 54 55  2  0  0  0  0
 54 60  1  0  0  0  0
 56 57  1  0  0  0  0
 56155  1  0  0  0  0
 56156  1  0  0  0  0
 57 58  2  0  0  0  0
 57 59  1  0  0  0  0
 59157  1  0  0  0  0
 59158  1  0  0  0  0
 60 61  1  0  0  0  0
 60159  1  0  0  0  0
 61 62  1  0  0  0  0
 61 64  1  0  0  0  0
 61160  1  6  0  0  0
 62 63  2  0  0  0  0
 62 68  1  0  0  0  0
 64 65  1  0  0  0  0
 64161  1  0  0  0  0
 64162  1  0  0  0  0
 65 66  1  0  0  0  0
 65 67  1  0  0  0  0
 65163  1  0  0  0  0
 66164  1  0  0  0  0
 66165  1  0  0  0  0
 66166  1  0  0  0  0
 67167  1  0  0  0  0
 67168  1  0  0  0  0
 67169  1  0  0  0  0
 68 69  1  0  0  0  0
 68170  1  0  0  0  0
 69 70  1  0  0  0  0
 69 72  1  0  0  0  0
 69171  1  6  0  0  0
 70 71  2  0  0  0  0
 70 76  1  0  0  0  0
 72 73  1  0  0  0  0
 72172  1  0  0  0  0
 72173  1  0  0  0  0
 73 74  1  0  0  0  0
 73 75  1  0  0  0  0
 73174  1  0  0  0  0
 74175  1  0  0  0  0
 74176  1  0  0  0  0
 74177  1  0  0  0  0
 75178  1  0  0  0  0
 75179  1  0  0  0  0
 75180  1  0  0  0  0
 76 77  1  0  0  0  0
 76181  1  0  0  0  0
 77 78  1  0  0  0  0
 77 80  1  0  0  0  0
 77182  1  6  0  0  0
 78 79  2  0  0  0  0
 78183  1  0  0  0  0
 80 81  1  0  0  0  0
 80184  1  0  0  0  0
 80185  1  0  0  0  0
 81 82  2  0  0  0  0
 81 83  1  0  0  0  0
 82 84  1  0  0  0  0
 82186  1  0  0  0  0
 83 85  2  0  0  0  0
 83187  1  0  0  0  0
 84 86  2  0  0  0  0
 84188  1  0  0  0  0
 85 86  1  0  0  0  0
 85189  1  0  0  0  0
 86 87  1  0  0  0  0
 87190  1  0  0  0  0
M  CHG  3   1   1  24   1  39   1
M  END
