2wa8_ligand
 OpenBabel08222323343D

170171  0  0  1  0  0  0  0  0999 V2000
   15.2190   31.4750   28.5250 N   0  3  0  0  0  0  0  0  0  0  0  0
   14.4910   30.4400   27.7970 C   0  0  2  0  0  0  0  0  0  0  0  0
   13.3090   29.8750   28.5530 C   0  0  0  0  0  0  0  0  0  0  0  0
   13.0650   30.2110   29.7020 O   0  0  0  0  0  0  0  0  0  0  0  0
   15.4360   29.3150   27.3880 C   0  0  0  0  0  0  0  0  0  0  0  0
   16.6330   29.8000   26.6260 C   0  0  0  0  0  0  0  0  0  0  0  0
   16.4890   30.3170   25.3520 C   0  0  0  0  0  0  0  0  0  0  0  0
   17.8990   29.7640   27.1930 C   0  0  0  0  0  0  0  0  0  0  0  0
   17.6020   30.7750   24.6360 C   0  0  0  0  0  0  0  0  0  0  0  0
   19.0030   30.2030   26.4930 C   0  0  0  0  0  0  0  0  0  0  0  0
   18.8590   30.7050   25.1900 C   0  0  0  0  0  0  0  0  0  0  0  0
   12.5820   28.9910   27.8860 N   0  0  0  0  0  0  0  0  0  0  0  0
   11.3530   28.4540   28.4450 C   0  0  2  0  0  0  0  0  0  0  0  0
   11.5480   26.9680   28.7810 C   0  0  0  0  0  0  0  0  0  0  0  0
   12.0300   26.1880   27.9530 O   0  0  0  0  0  0  0  0  0  0  0  0
   10.2130   28.6400   27.4450 C   0  0  0  0  0  0  0  0  0  0  0  0
    9.1790   27.5240   27.4720 C   0  0  0  0  0  0  0  0  0  0  0  0
    8.1930   27.6740   26.3420 C   0  0  0  0  0  0  0  0  0  0  0  0
    6.9380   26.9940   26.6380 N   0  0  0  0  0  0  0  0  0  0  0  0
    6.6700   25.7310   26.3220 C   0  0  0  0  0  3  0  0  0  0  0  0
    7.5730   24.9880   25.6890 N   0  0  0  0  0  0  0  0  0  0  0  0
    5.4900   25.2140   26.6410 N   0  0  0  0  0  0  0  0  0  0  0  0
   11.2020   26.5860   30.0060 N   0  0  0  0  0  0  0  0  0  0  0  0
   11.2490   25.1760   30.3970 C   0  0  2  0  0  0  0  0  0  0  0  0
    9.8950   24.5660   30.1250 C   0  0  0  0  0  0  0  0  0  0  0  0
    8.8990   25.2770   29.9700 O   0  0  0  0  0  0  0  0  0  0  0  0
   11.5680   25.0240   31.8750 C   0  0  0  0  0  0  0  0  0  0  0  0
   10.6660   25.7930   32.6460 O   0  0  0  0  0  0  0  0  0  0  0  0
    9.8570   23.2450   30.0640 N   0  0  0  0  0  0  0  0  0  0  0  0
    8.6000   22.5470   29.8930 C   0  0  2  0  0  0  0  0  0  0  0  0
    8.4560   21.5650   31.0450 C   0  0  0  0  0  0  0  0  0  0  0  0
    7.6780   20.6150   30.9710 O   0  0  0  0  0  0  0  0  0  0  0  0
    8.5920   21.8270   28.5510 C   0  0  0  0  0  0  0  0  0  0  0  0
    9.0620   22.6950   27.3890 C   0  0  0  0  0  0  0  0  0  0  0  0
    9.5650   21.8500   26.2240 C   0  0  0  0  0  0  0  0  0  0  0  0
    8.4800   20.9160   25.7210 C   0  0  0  0  0  0  0  0  0  0  0  0
    7.2460   21.6720   25.3640 N   0  3  0  0  0  0  0  0  0  0  0  0
    9.2120   21.8160   32.1140 N   0  0  0  0  0  0  0  0  0  0  0  0
    9.3420   20.8760   33.2140 C   0  0  0  0  0  0  0  0  0  0  0  0
    9.9210   19.5470   32.7540 C   0  0  0  0  0  0  0  0  0  0  0  0
    9.2260   18.7390   32.1290 O   0  0  0  0  0  0  0  0  0  0  0  0
   11.1960   19.3140   33.0530 N   0  0  0  0  0  0  0  0  0  0  0  0
   11.8510   18.0590   32.6720 C   0  0  2  0  0  0  0  0  0  0  0  0
   12.3590   17.1830   33.8400 C   0  0  0  0  0  0  0  0  0  0  0  0
   11.7840   16.1120   34.0850 O   0  0  0  0  0  0  0  0  0  0  0  0
   12.9550   18.2980   31.6300 C   0  0  0  0  0  0  0  0  0  0  0  0
   12.5090   19.1340   30.4320 C   0  0  0  0  0  0  0  0  0  0  0  0
   12.9940   20.5730   30.5120 C   0  0  0  0  0  0  0  0  0  0  0  0
   12.1900   21.4970   30.2470 O   0  5  0  0  0  0  0  0  0  0  0  0
   14.1840   20.7760   30.8400 O   0  0  0  0  0  0  0  0  0  0  0  0
   13.3940   17.6000   34.5820 N   0  0  0  0  0  0  0  0  0  0  0  0
   14.0280   18.9230   34.5680 C   0  0  2  0  0  0  0  0  0  0  0  0
   14.8680   18.9500   35.8300 C   0  0  0  0  0  0  0  0  0  0  0  0
   14.3400   18.6310   36.9000 O   0  0  0  0  0  0  0  0  0  0  0  0
   12.9780   20.0130   34.7060 C   0  0  0  0  0  0  0  0  0  0  0  0
   13.4690   21.2870   35.3470 C   0  0  0  0  0  0  0  0  0  0  0  0
   13.6380   22.3990   34.3460 C   0  0  0  0  0  0  0  0  0  0  0  0
   13.6680   22.1070   33.1310 O   0  5  0  0  0  0  0  0  0  0  0  0
   13.7360   23.5650   34.7800 O   0  0  0  0  0  0  0  0  0  0  0  0
   16.1520   19.3050   35.7570 N   0  0  0  0  0  0  0  0  0  0  0  0
   16.8740   19.6830   34.5500 C   0  0  2  0  0  0  0  0  0  0  0  0
   18.2200   18.9570   34.5880 C   0  0  0  0  0  0  0  0  0  0  0  0
   18.9330   18.8760   33.5830 O   0  0  0  0  0  0  0  0  0  0  0  0
   17.1270   21.1870   34.5820 C   0  0  0  0  0  0  0  0  0  0  0  0
   17.6370   22.0280   33.4140 C   0  0  0  0  0  0  0  0  0  0  0  0
   16.8090   21.8120   32.1540 C   0  0  0  0  0  0  0  0  0  0  0  0
   17.6170   23.4940   33.8270 C   0  0  0  0  0  0  0  0  0  0  0  0
   18.5580   18.4310   35.7670 N   0  0  0  0  0  0  0  0  0  0  0  0
   19.8660   17.8040   36.0270 C   0  0  2  0  0  0  0  0  0  0  0  0
   21.0140   18.8050   35.8760 C   0  0  0  0  0  0  0  0  0  0  0  0
   22.0290   18.5020   35.2650 O   0  0  0  0  0  0  0  0  0  0  0  0
   20.0910   16.5500   35.1600 C   0  0  0  0  0  0  0  0  0  0  0  0
   18.8230   15.8370   34.8000 C   0  0  0  0  0  0  0  0  0  0  0  0
   17.9110   15.4810   35.7810 C   0  0  0  0  0  0  0  0  0  0  0  0
   18.5290   15.5370   33.4840 C   0  0  0  0  0  0  0  0  0  0  0  0
   16.7220   14.8450   35.4550 C   0  0  0  0  0  0  0  0  0  0  0  0
   17.3480   14.8940   33.1540 C   0  0  0  0  0  0  0  0  0  0  0  0
   16.4440   14.5490   34.1460 C   0  0  0  0  0  0  0  0  0  0  0  0
   20.8150   19.9960   36.4420 N   0  0  0  0  0  0  0  0  0  0  0  0
   21.7830   21.0990   36.4770 C   0  0  2  0  0  0  0  0  0  0  0  0
   21.0920   22.4610   36.4860 C   0  0  0  0  0  0  0  0  0  0  0  0
   20.1520   22.6980   37.2550 O   0  0  0  0  0  0  0  0  0  0  0  0
   22.7790   21.1020   35.3200 C   0  0  2  0  0  0  0  0  0  0  0  0
   23.8060   20.1520   35.5760 O   0  0  0  0  0  0  0  0  0  0  0  0
   23.4150   22.4740   35.2050 C   0  0  0  0  0  0  0  0  0  0  0  0
   15.9888   31.8028   27.9629 H   0  0  0  0  0  0  0  0  0  0  0  0
   15.5722   31.0932   29.3884 H   0  0  0  0  0  0  0  0  0  0  0  0
   14.5988   32.2437   28.7263 H   0  0  0  0  0  0  0  0  0  0  0  0
   14.0993   30.9033   26.8795 H   0  0  0  0  0  0  0  0  0  0  0  0
   14.8825   28.6053   26.7556 H   0  0  0  0  0  0  0  0  0  0  0  0
   15.7838   28.8022   28.2968 H   0  0  0  0  0  0  0  0  0  0  0  0
   15.5040   30.3684   24.9024 H   0  0  0  0  0  0  0  0  0  0  0  0
   18.0220   29.3852   28.2012 H   0  0  0  0  0  0  0  0  0  0  0  0
   17.4724   31.1862   23.6414 H   0  0  0  0  0  0  0  0  0  0  0  0
   19.9849   30.1603   26.9503 H   0  0  0  0  0  0  0  0  0  0  0  0
   19.7262   31.0329   24.6283 H   0  0  0  0  0  0  0  0  0  0  0  0
   12.8842   28.6880   26.9822 H   0  0  0  0  0  0  0  0  0  0  0  0
   11.1086   28.9988   29.3688 H   0  0  0  0  0  0  0  0  0  0  0  0
   10.6438   28.6881   26.4340 H   0  0  0  0  0  0  0  0  0  0  0  0
    9.7044   29.5885   27.6724 H   0  0  0  0  0  0  0  0  0  0  0  0
    8.6375   27.5584   28.4288 H   0  0  0  0  0  0  0  0  0  0  0  0
    9.6921   26.5558   27.3756 H   0  0  0  0  0  0  0  0  0  0  0  0
    8.6272   27.2421   25.4283 H   0  0  0  0  0  0  0  0  0  0  0  0
    7.9916   28.7435   26.1822 H   0  0  0  0  0  0  0  0  0  0  0  0
    6.2070   27.5303   27.1267 H   0  0  0  0  0  0  0  0  0  0  0  0
    7.3576   24.0101   25.4477 H   0  0  0  0  0  0  0  0  0  0  0  0
    8.4879   25.3904   25.4400 H   0  0  0  0  0  0  0  0  0  0  0  0
    4.7909   25.7900   27.1313 H   0  0  0  0  0  0  0  0  0  0  0  0
    5.2733   24.2367   26.3982 H   0  0  0  0  0  0  0  0  0  0  0  0
   10.9052   27.2718   30.6705 H   0  0  0  0  0  0  0  0  0  0  0  0
   12.0181   24.6584   29.8049 H   0  0  0  0  0  0  0  0  0  0  0  0
   12.5950   25.3700   32.0635 H   0  0  0  0  0  0  0  0  0  0  0  0
   11.4797   23.9652   32.1597 H   0  0  0  0  0  0  0  0  0  0  0  0
   10.7424   26.7078   32.4017 H   0  0  0  0  0  0  0  0  0  0  0  0
   10.7064   22.7224   30.1369 H   0  0  0  0  0  0  0  0  0  0  0  0
    7.7685   23.2667   29.9193 H   0  0  0  0  0  0  0  0  0  0  0  0
    7.5651   21.4927   28.3420 H   0  0  0  0  0  0  0  0  0  0  0  0
    9.2552   20.9523   28.6218 H   0  0  0  0  0  0  0  0  0  0  0  0
    9.8782   23.3453   27.7367 H   0  0  0  0  0  0  0  0  0  0  0  0
    8.2213   23.3146   27.0435 H   0  0  0  0  0  0  0  0  0  0  0  0
   10.4266   21.2534   26.5581 H   0  0  0  0  0  0  0  0  0  0  0  0
    9.8751   22.5152   25.4047 H   0  0  0  0  0  0  0  0  0  0  0  0
    8.2396   20.1869   26.5088 H   0  0  0  0  0  0  0  0  0  0  0  0
    8.8469   20.3855   24.8300 H   0  0  0  0  0  0  0  0  0  0  0  0
    6.5425   21.0301   25.0336 H   0  0  0  0  0  0  0  0  0  0  0  0
    7.4587   22.3395   24.6393 H   0  0  0  0  0  0  0  0  0  0  0  0
    6.9022   22.1575   26.1777 H   0  0  0  0  0  0  0  0  0  0  0  0
    9.7078   22.6832   32.1604 H   0  0  0  0  0  0  0  0  0  0  0  0
    8.3482   20.6994   33.6512 H   0  0  0  0  0  0  0  0  0  0  0  0
   10.0062   21.3092   33.9763 H   0  0  0  0  0  0  0  0  0  0  0  0
   11.7182   20.0088   33.5476 H   0  0  0  0  0  0  0  0  0  0  0  0
   11.0749   17.4615   32.1713 H   0  0  0  0  0  0  0  0  0  0  0  0
   13.2993   17.3208   31.2607 H   0  0  0  0  0  0  0  0  0  0  0  0
   13.7893   18.8183   32.1233 H   0  0  0  0  0  0  0  0  0  0  0  0
   11.4097   19.1342   30.3918 H   0  0  0  0  0  0  0  0  0  0  0  0
   12.9094   18.6775   29.5148 H   0  0  0  0  0  0  0  0  0  0  0  0
   13.7788   16.9321   35.2190 H   0  0  0  0  0  0  0  0  0  0  0  0
   14.6336   19.0715   33.6618 H   0  0  0  0  0  0  0  0  0  0  0  0
   12.1532   19.6182   35.3175 H   0  0  0  0  0  0  0  0  0  0  0  0
   12.6046   20.2577   33.7007 H   0  0  0  0  0  0  0  0  0  0  0  0
   14.4396   21.0913   35.8262 H   0  0  0  0  0  0  0  0  0  0  0  0
   12.7413   21.6037   36.1086 H   0  0  0  0  0  0  0  0  0  0  0  0
   16.6683   19.3122   36.6134 H   0  0  0  0  0  0  0  0  0  0  0  0
   16.3050   19.4067   33.6501 H   0  0  0  0  0  0  0  0  0  0  0  0
   17.8562   21.3415   35.3910 H   0  0  0  0  0  0  0  0  0  0  0  0
   16.1642   21.6373   34.8652 H   0  0  0  0  0  0  0  0  0  0  0  0
   18.6746   21.7344   33.1971 H   0  0  0  0  0  0  0  0  0  0  0  0
   17.2098   22.4348   31.3407 H   0  0  0  0  0  0  0  0  0  0  0  0
   15.7636   22.0927   32.3496 H   0  0  0  0  0  0  0  0  0  0  0  0
   16.8557   20.7526   31.8616 H   0  0  0  0  0  0  0  0  0  0  0  0
   18.2201   23.6267   34.7373 H   0  0  0  0  0  0  0  0  0  0  0  0
   16.5807   23.8050   34.0252 H   0  0  0  0  0  0  0  0  0  0  0  0
   18.0359   24.1090   33.0168 H   0  0  0  0  0  0  0  0  0  0  0  0
   17.8906   18.4640   36.5109 H   0  0  0  0  0  0  0  0  0  0  0  0
   19.8610   17.4734   37.0761 H   0  0  0  0  0  0  0  0  0  0  0  0
   20.7363   15.8537   35.7156 H   0  0  0  0  0  0  0  0  0  0  0  0
   20.5948   16.8548   34.2309 H   0  0  0  0  0  0  0  0  0  0  0  0
   18.1302   15.7030   36.8191 H   0  0  0  0  0  0  0  0  0  0  0  0
   19.2295   15.8076   32.7023 H   0  0  0  0  0  0  0  0  0  0  0  0
   16.0147   14.5829   36.2335 H   0  0  0  0  0  0  0  0  0  0  0  0
   17.1302   14.6601   32.1182 H   0  0  0  0  0  0  0  0  0  0  0  0
   15.5192   14.0462   33.8873 H   0  0  0  0  0  0  0  0  0  0  0  0
   19.9298   20.1511   36.8805 H   0  0  0  0  0  0  0  0  0  0  0  0
   22.3538   20.9946   37.4115 H   0  0  0  0  0  0  0  0  0  0  0  0
   21.4328   23.2378   35.8031 H   0  0  0  0  0  0  0  0  0  0  0  0
   22.2602   20.8497   34.3834 H   0  0  0  0  0  0  0  0  0  0  0  0
   23.4219   19.2874   35.6616 H   0  0  0  0  0  0  0  0  0  0  0  0
   24.1328   22.4767   34.3714 H   0  0  0  0  0  0  0  0  0  0  0  0
   23.9397   22.7146   36.1414 H   0  0  0  0  0  0  0  0  0  0  0  0
   22.6339   23.2258   35.0187 H   0  0  0  0  0  0  0  0  0  0  0  0
  1  2  1  0  0  0  0
  1 86  1  0  0  0  0
  1 87  1  0  0  0  0
  1 88  1  0  0  0  0
  2  3  1  0  0  0  0
  2  5  1  0  0  0  0
  2 89  1  6  0  0  0
  3  4  2  0  0  0  0
  3 12  1  0  0  0  0
  5  6  1  0  0  0  0
  5 90  1  0  0  0  0
  5 91  1  0  0  0  0
  6  7  2  0  0  0  0
  6  8  1  0  0  0  0
  7  9  1  0  0  0  0
  7 92  1  0  0  0  0
  8 10  2  0  0  0  0
  8 93  1  0  0  0  0
  9 11  2  0  0  0  0
  9 94  1  0  0  0  0
 10 11  1  0  0  0  0
 10 95  1  0  0  0  0
 11 96  1  0  0  0  0
 12 13  1  0  0  0  0
 12 97  1  0  0  0  0
 13 14  1  0  0  0  0
 13 16  1  0  0  0  0
 13 98  1  1  0  0  0
 14 15  2  0  0  0  0
 14 23  1  0  0  0  0
 16 17  1  0  0  0  0
 16 99  1  0  0  0  0
 16100  1  0  0  0  0
 17 18  1  0  0  0  0
 17101  1  0  0  0  0
 17102  1  0  0  0  0
 18 19  1  0  0  0  0
 18103  1  0  0  0  0
 18104  1  0  0  0  0
 19 20  1  0  0  0  0
 19105  1  0  0  0  0
 20 21  1  0  0  0  0
 20 22  1  0  0  0  0
 21106  1  0  0  0  0
 21107  1  0  0  0  0
 22108  1  0  0  0  0
 22109  1  0  0  0  0
 23 24  1  0  0  0  0
 23110  1  0  0  0  0
 24 25  1  0  0  0  0
 24 27  1  0  0  0  0
 24111  1  6  0  0  0
 25 26  2  0  0  0  0
 25 29  1  0  0  0  0
 27 28  1  0  0  0  0
 27112  1  0  0  0  0
 27113  1  0  0  0  0
 28114  1  0  0  0  0
 29 30  1  0  0  0  0
 29115  1  0  0  0  0
 30 31  1  0  0  0  0
 30 33  1  0  0  0  0
 30116  1  1  0  0  0
 31 32  2  0  0  0  0
 31 38  1  0  0  0  0
 33 34  1  0  0  0  0
 33117  1  0  0  0  0
 33118  1  0  0  0  0
 34 35  1  0  0  0  0
 34119  1  0  0  0  0
 34120  1  0  0  0  0
 35 36  1  0  0  0  0
 35121  1  0  0  0  0
 35122  1  0  0  0  0
 36 37  1  0  0  0  0
 36123  1  0  0  0  0
 36124  1  0  0  0  0
 37125  1  0  0  0  0
 37126  1  0  0  0  0
 37127  1  0  0  0  0
 38 39  1  0  0  0  0
 38128  1  0  0  0  0
 39 40  1  0  0  0  0
 39129  1  0  0  0  0
 39130  1  0  0  0  0
 40 41  2  0  0  0  0
 40 42  1  0  0  0  0
 42 43  1  0  0  0  0
 42131  1  0  0  0  0
 43 44  1  0  0  0  0
 43 46  1  0  0  0  0
 43132  1  6  0  0  0
 44 45  2  0  0  0  0
 44 51  1  0  0  0  0
 46 47  1  0  0  0  0
 46133  1  0  0  0  0
 46134  1  0  0  0  0
 47 48  1  0  0  0  0
 47135  1  0  0  0  0
 47136  1  0  0  0  0
 48 49  1  0  0  0  0
 48 50  2  0  0  0  0
 51 52  1  0  0  0  0
 51137  1  0  0  0  0
 52 53  1  0  0  0  0
 52 55  1  0  0  0  0
 52138  1  6  0  0  0
 53 54  2  0  0  0  0
 53 60  1  0  0  0  0
 55 56  1  0  0  0  0
 55139  1  0  0  0  0
 55140  1  0  0  0  0
 56 57  1  0  0  0  0
 56141  1  0  0  0  0
 56142  1  0  0  0  0
 57 58  1  0  0  0  0
 57 59  2  0  0  0  0
 60 61  1  0  0  0  0
 60143  1  0  0  0  0
 61 62  1  0  0  0  0
 61 64  1  0  0  0  0
 61144  1  6  0  0  0
 62 63  2  0  0  0  0
 62 68  1  0  0  0  0
 64 65  1  0  0  0  0
 64145  1  0  0  0  0
 64146  1  0  0  0  0
 65 66  1  0  0  0  0
 65 67  1  0  0  0  0
 65147  1  0  0  0  0
 66148  1  0  0  0  0
 66149  1  0  0  0  0
 66150  1  0  0  0  0
 67151  1  0  0  0  0
 67152  1  0  0  0  0
 67153  1  0  0  0  0
 68 69  1  0  0  0  0
 68154  1  0  0  0  0
 69 70  1  0  0  0  0
 69 72  1  0  0  0  0
 69155  1  1  0  0  0
 70 71  2  0  0  0  0
 70 79  1  0  0  0  0
 72 73  1  0  0  0  0
 72156  1  0  0  0  0
 72157  1  0  0  0  0
 73 74  2  0  0  0  0
 73 75  1  0  0  0  0
 74 76  1  0  0  0  0
 74158  1  0  0  0  0
 75 77  2  0  0  0  0
 75159  1  0  0  0  0
 76 78  2  0  0  0  0
 76160  1  0  0  0  0
 77 78  1  0  0  0  0
 77161  1  0  0  0  0
 78162  1  0  0  0  0
 79 80  1  0  0  0  0
 79163  1  0  0  0  0
 80 81  1  0  0  0  0
 80 83  1  0  0  0  0
 80164  1  1  0  0  0
 81 82  2  0  0  0  0
 81165  1  0  0  0  0
 83 84  1  0  0  0  0
 83 85  1  0  0  0  0
 83166  1  6  0  0  0
 84167  1  0  0  0  0
 85168  1  0  0  0  0
 85169  1  0  0  0  0
 85170  1  0  0  0  0
M  CHG  4   1   1  37   1  49  -1  58  -1
M  END
