2waj_ligand
 OpenBabel08222323343D

 31 33  0  0  0  0  0  0  0  0999 V2000
   18.6030    6.6010   33.1110 Cl  0  0  0  0  0  0  0  0  0  0  0  0
   19.9190    7.6810   32.5780 C   0  0  0  0  0  0  0  0  0  0  0  0
   21.0810    7.1450   32.0540 C   0  0  0  0  0  0  0  0  0  0  0  0
   21.1920    5.7840   31.9400 O   0  0  0  0  0  0  0  0  0  0  0  0
   22.2100    5.2400   31.0890 C   0  0  0  0  0  0  0  0  0  0  0  0
   19.7610    9.0620   32.6930 C   0  0  0  0  0  0  0  0  0  0  0  0
   20.7880    9.9010   32.2710 C   0  0  0  0  0  0  0  0  0  0  0  0
   21.9650    9.3710   31.7450 C   0  0  0  0  0  0  0  0  0  0  0  0
   22.1160    7.9900   31.6280 C   0  0  0  0  0  0  0  0  0  0  0  0
   20.6710   11.3810   32.3810 C   0  0  0  0  0  0  0  0  0  0  0  0
   21.4980   12.0690   31.7140 N   0  0  0  0  0  0  0  0  0  0  0  0
   22.4980   11.6030   30.7510 C   0  0  0  0  0  0  0  0  0  0  0  0
   23.0720   10.2950   31.2860 C   0  0  0  0  0  0  0  0  0  0  0  0
   19.6410   12.0270   33.2790 C   0  0  0  0  0  0  0  0  0  0  0  0
   19.4250   11.5260   34.5530 C   0  0  0  0  0  0  0  0  0  0  0  0
   18.4910   12.1230   35.3870 C   0  0  0  0  0  0  0  0  0  0  0  0
   18.2520   11.4290   37.1280 Br  0  0  0  0  0  0  0  0  0  0  0  0
   17.7410   13.2130   34.9450 C   0  0  0  0  0  0  0  0  0  0  0  0
   17.9310   13.7160   33.6700 C   0  0  0  0  0  0  0  0  0  0  0  0
   18.8990   13.1210   32.8560 C   0  0  0  0  0  0  0  0  0  0  0  0
   22.1594    4.1414   31.1129 H   0  0  0  0  0  0  0  0  0  0  0  0
   23.1982    5.5693   31.4426 H   0  0  0  0  0  0  0  0  0  0  0  0
   22.0533    5.5919   30.0587 H   0  0  0  0  0  0  0  0  0  0  0  0
   18.8488    9.4770   33.1063 H   0  0  0  0  0  0  0  0  0  0  0  0
   23.0257    7.5729   31.2113 H   0  0  0  0  0  0  0  0  0  0  0  0
   22.7787   12.0968   29.8277 H   0  0  0  0  0  0  0  0  0  0  0  0
   24.1291   10.0594   31.3313 H   0  0  0  0  0  0  0  0  0  0  0  0
   19.9871   10.6659   34.8985 H   0  0  0  0  0  0  0  0  0  0  0  0
   17.0078   13.6670   35.6018 H   0  0  0  0  0  0  0  0  0  0  0  0
   17.3425   14.5524   33.3107 H   0  0  0  0  0  0  0  0  0  0  0  0
   19.0753   13.5256   31.8659 H   0  0  0  0  0  0  0  0  0  0  0  0
  1  2  1  0  0  0  0
  2  3  2  0  0  0  0
  2  6  1  0  0  0  0
  3  4  1  0  0  0  0
  3  9  1  0  0  0  0
  4  5  1  0  0  0  0
  5 21  1  0  0  0  0
  5 22  1  0  0  0  0
  5 23  1  0  0  0  0
  6  7  2  0  0  0  0
  6 24  1  0  0  0  0
  7  8  1  0  0  0  0
  7 10  1  0  0  0  0
  8  9  2  0  0  0  0
  8 13  1  0  0  0  0
  9 25  1  0  0  0  0
 10 11  2  0  0  0  0
 10 14  1  0  0  0  0
 11 12  1  0  0  0  0
 12 13  2  0  0  0  0
 12 26  1  0  0  0  0
 13 27  1  0  0  0  0
 14 15  2  0  0  0  0
 14 20  1  0  0  0  0
 15 16  1  0  0  0  0
 15 28  1  0  0  0  0
 16 17  1  0  0  0  0
 16 18  2  0  0  0  0
 18 19  1  0  0  0  0
 18 29  1  0  0  0  0
 19 20  2  0  0  0  0
 19 30  1  0  0  0  0
 20 31  1  0  0  0  0
M  END
