2wcg_ligand
 OpenBabel08222323343D

 28 29  0  0  1  0  0  0  0  0999 V2000
  -24.5140  -17.0110  -38.3320 N   0  0  0  0  0  0  0  0  0  0  0  0
  -24.3030  -16.5890  -39.5890 C   0  0  1  0  0  3  0  0  0  0  0  0
  -23.4540  -15.6180  -39.9860 N   0  0  0  0  0  0  0  0  0  0  0  0
  -23.5070  -15.4480  -41.4370 C   0  0  0  0  0  0  0  0  0  0  0  0
  -24.5410  -16.5030  -41.8660 C   0  0  1  0  0  0  0  0  0  0  0  0
  -24.9760  -17.1480  -40.6480 N   0  0  2  0  0  0  0  0  0  0  0  0
  -25.9600  -18.1570  -40.6510 C   0  0  2  0  0  0  0  0  0  0  0  0
  -25.6760  -19.3890  -40.1450 O   0  0  0  0  0  0  0  0  0  0  0  0
  -26.8270  -18.2540  -41.9000 C   0  0  2  0  0  0  0  0  0  0  0  0
  -26.9570  -19.5750  -42.4770 O   0  0  0  0  0  0  0  0  0  0  0  0
  -26.4850  -17.2570  -43.0140 C   0  0  1  0  0  0  0  0  0  0  0  0
  -27.7150  -16.8290  -43.5320 O   0  0  0  0  0  0  0  0  0  0  0  0
  -25.7960  -16.0120  -42.4650 C   0  0  2  0  0  0  0  0  0  0  0  0
  -25.4830  -15.0600  -43.4370 O   0  0  0  0  0  0  0  0  0  0  0  0
  -23.9998  -16.5796  -37.5508 H   0  0  0  0  0  0  0  0  0  0  0  0
  -25.1901  -17.7662  -38.1489 H   0  0  0  0  0  0  0  0  0  0  0  0
  -22.8516  -15.0719  -39.3537 H   0  0  0  0  0  0  0  0  0  0  0  0
  -22.5265  -15.6450  -41.8951 H   0  0  0  0  0  0  0  0  0  0  0  0
  -23.8402  -14.4346  -41.7053 H   0  0  0  0  0  0  0  0  0  0  0  0
  -24.0614  -17.2139  -42.5549 H   0  0  0  0  0  0  0  0  0  0  0  0
  -26.6632  -17.7631  -39.9025 H   0  0  0  0  0  0  0  0  0  0  0  0
  -26.4415  -19.9462  -40.2228 H   0  0  0  0  0  0  0  0  0  0  0  0
  -27.8352  -17.9811  -41.5548 H   0  0  0  0  0  0  0  0  0  0  0  0
  -26.0981  -19.8973  -42.7242 H   0  0  0  0  0  0  0  0  0  0  0  0
  -25.8620  -17.7348  -43.7844 H   0  0  0  0  0  0  0  0  0  0  0  0
  -27.5627  -16.2045  -44.2316 H   0  0  0  0  0  0  0  0  0  0  0  0
  -26.4344  -15.5441  -41.7011 H   0  0  0  0  0  0  0  0  0  0  0  0
  -26.2806  -14.7732  -43.8662 H   0  0  0  0  0  0  0  0  0  0  0  0
  1 15  1  0  0  0  0
  1 16  1  0  0  0  0
  2  1  1  6  0  0  0
  2  3  1  0  0  0  0
  2  6  1  0  0  0  0
  3  4  1  0  0  0  0
  3 17  1  0  0  0  0
  4  5  1  0  0  0  0
  4 18  1  0  0  0  0
  4 19  1  0  0  0  0
  5  6  1  0  0  0  0
  5 13  1  0  0  0  0
  5 20  1  6  0  0  0
  6  7  1  0  0  0  0
  7  8  1  0  0  0  0
  7  9  1  0  0  0  0
  7 21  1  0  0  0  0
  8 22  1  0  0  0  0
  9 10  1  0  0  0  0
  9 11  1  0  0  0  0
  9 23  1  0  0  0  0
 10 24  1  0  0  0  0
 11 12  1  0  0  0  0
 11 13  1  0  0  0  0
 11 25  1  0  0  0  0
 12 26  1  0  0  0  0
 13 14  1  0  0  0  0
 13 27  1  0  0  0  0
 14 28  1  0  0  0  0
M  END
