2wd3_ligand
 OpenBabel08222323343D

 38 40  0  0  0  0  0  0  0  0999 V2000
  -15.3570   11.5170  -17.0620 S   0  0  0  0  0  0  0  0  0  0  0  0
  -14.0280   11.6180  -16.5390 O   0  0  0  0  0  0  0  0  0  0  0  0
  -15.6130   11.0990  -18.4290 O   0  0  0  0  0  0  0  0  0  0  0  0
  -16.3900   12.3520  -16.6420 O   0  0  0  0  0  0  0  0  0  0  0  0
  -15.8020   10.1600  -16.3340 N   0  0  0  0  0  0  0  0  0  0  0  0
  -16.5230   17.3560   -5.5350 N   0  0  0  0  0  0  0  0  0  0  0  0
  -17.3280   15.7710   -6.7710 N   0  0  0  0  0  0  0  0  0  0  0  0
  -16.1870   16.0450   -7.1710 N   0  0  0  0  0  0  0  0  0  0  0  0
  -18.3060   17.5710  -14.2610 N   0  0  0  0  0  0  0  0  0  0  0  0
  -17.5900   16.5750   -5.7360 C   0  0  0  0  0  0  0  0  0  0  0  0
  -15.6310   17.0140   -6.4520 C   0  0  0  0  0  0  0  0  0  0  0  0
  -16.1220   15.8410   -9.6530 C   0  0  0  0  0  0  0  0  0  0  0  0
  -16.7900   17.0660   -9.7480 C   0  0  0  0  0  0  0  0  0  0  0  0
  -17.3330   17.4740  -10.9590 C   0  0  0  0  0  0  0  0  0  0  0  0
  -17.2220   16.6660  -12.0880 C   0  0  0  0  0  0  0  0  0  0  0  0
  -16.5290   15.4360  -12.0080 C   0  0  0  0  0  0  0  0  0  0  0  0
  -15.9880   15.0220  -10.7850 C   0  0  0  0  0  0  0  0  0  0  0  0
  -17.8220   17.1550  -13.3060 C   0  0  0  0  0  0  0  0  0  0  0  0
  -14.9300   15.1510  -16.8460 Cl  0  0  0  0  0  0  0  0  0  0  0  0
  -15.8080   15.1650  -14.3070 C   0  0  0  0  0  0  0  0  0  0  0  0
  -15.7470   14.4300  -15.4860 C   0  0  0  0  0  0  0  0  0  0  0  0
  -16.3300   13.1520  -15.5240 C   0  0  0  0  0  0  0  0  0  0  0  0
  -16.9750   12.6760  -14.3950 C   0  0  0  0  0  0  0  0  0  0  0  0
  -17.0240   13.4030  -13.2110 C   0  0  0  0  0  0  0  0  0  0  0  0
  -15.5060   15.3970   -8.3090 C   0  0  0  0  0  0  0  0  0  0  0  0
  -16.4430   14.6610  -13.1660 C   0  0  0  0  0  0  0  0  0  0  0  0
  -15.2496    9.3328  -16.4373 H   0  0  0  0  0  0  0  0  0  0  0  0
  -16.6320   10.1406  -15.7766 H   0  0  0  0  0  0  0  0  0  0  0  0
  -18.5121   16.5914   -5.1569 H   0  0  0  0  0  0  0  0  0  0  0  0
  -14.6391   17.4419   -6.5894 H   0  0  0  0  0  0  0  0  0  0  0  0
  -16.8842   17.6991   -8.8732 H   0  0  0  0  0  0  0  0  0  0  0  0
  -17.8461   18.4265  -11.0261 H   0  0  0  0  0  0  0  0  0  0  0  0
  -15.4681   14.0735  -10.7126 H   0  0  0  0  0  0  0  0  0  0  0  0
  -15.3543   16.1488  -14.2709 H   0  0  0  0  0  0  0  0  0  0  0  0
  -17.4570   11.7059  -14.4356 H   0  0  0  0  0  0  0  0  0  0  0  0
  -17.5104   12.9914  -12.3340 H   0  0  0  0  0  0  0  0  0  0  0  0
  -15.6044   14.3057   -8.2121 H   0  0  0  0  0  0  0  0  0  0  0  0
  -14.4410   15.6720   -8.2940 H   0  0  0  0  0  0  0  0  0  0  0  0
  1  2  2  0  0  0  0
  1  3  2  0  0  0  0
  1  5  1  0  0  0  0
  4  1  1  0  0  0  0
  5 27  1  0  0  0  0
  5 28  1  0  0  0  0
  6 10  1  0  0  0  0
  7 10  2  0  0  0  0
  8  7  1  0  0  0  0
  8 11  1  0  0  0  0
 10 29  1  0  0  0  0
 11  6  2  0  0  0  0
 11 30  1  0  0  0  0
 12 13  2  0  0  0  0
 12 25  1  0  0  0  0
 13 31  1  0  0  0  0
 14 13  1  0  0  0  0
 14 32  1  0  0  0  0
 15 14  2  0  0  0  0
 15 18  1  0  0  0  0
 16 15  1  0  0  0  0
 16 17  2  0  0  0  0
 17 12  1  0  0  0  0
 17 33  1  0  0  0  0
 18  9  3  0  0  0  0
 20 26  1  0  0  0  0
 20 34  1  0  0  0  0
 21 19  1  0  0  0  0
 21 20  2  0  0  0  0
 21 22  1  0  0  0  0
 22  4  1  0  0  0  0
 22 23  2  0  0  0  0
 23 24  1  0  0  0  0
 23 35  1  0  0  0  0
 24 26  2  0  0  0  0
 24 36  1  0  0  0  0
 25  8  1  0  0  0  0
 25 37  1  0  0  0  0
 25 38  1  0  0  0  0
 26 16  1  0  0  0  0
M  END
