2wez_ligand
 OpenBabel08222323343D

 80 84  0  0  1  0  0  0  0  0999 V2000
   30.1980   -2.3490   35.3960 C   0  0  0  0  0  0  0  0  0  0  0  0
   30.0150   -1.1550   34.6390 C   0  0  0  0  0  0  0  0  0  0  0  0
   30.4940    0.1280   35.1710 C   0  0  0  0  0  0  0  0  0  0  0  0
   31.1310    0.1510   36.4470 C   0  0  0  0  0  0  0  0  0  0  0  0
   31.3180   -1.0590   37.2180 C   0  0  0  0  0  0  0  0  0  0  0  0
   30.8280   -2.3720   36.6710 C   0  0  0  0  0  0  0  0  0  0  0  0
   30.3130    1.3550   34.3740 C   0  0  0  0  0  0  0  0  0  0  0  0
   29.1330    1.4490   33.6960 N   0  0  0  0  0  0  0  0  0  0  0  0
   31.2950    2.1260   34.2290 O   0  0  0  0  0  0  0  0  0  0  0  0
   28.8460    2.4470   32.6370 C   0  0  1  0  0  0  0  0  0  0  0  0
   28.1310    1.6760   31.5020 C   0  0  0  0  0  0  0  0  0  0  0  0
   27.9930    3.6920   33.0700 C   0  0  2  0  0  0  0  0  0  0  0  0
   27.7430    4.6030   32.0050 O   0  0  0  0  0  0  0  0  0  0  0  0
   28.9450    0.4240   31.1420 C   0  0  0  0  0  0  0  0  0  0  0  0
   28.6940    4.4700   34.1970 C   0  0  0  0  0  0  0  0  0  0  0  0
   27.9740    5.6700   34.6730 N   0  3  0  0  0  0  0  0  0  0  0  0
   28.6600    6.8710   35.3010 C   0  0  0  0  0  0  0  0  0  0  0  0
   28.1310   -0.7990   31.0000 C   0  0  0  0  0  0  0  0  0  0  0  0
   28.7610   -2.0990   30.6790 C   0  0  0  0  0  0  0  0  0  0  0  0
   30.2260   -2.1920   30.5000 C   0  0  0  0  0  0  0  0  0  0  0  0
   31.0730   -0.9710   30.6370 C   0  0  0  0  0  0  0  0  0  0  0  0
   30.4520    0.3320   30.9540 C   0  0  0  0  0  0  0  0  0  0  0  0
   29.8280   -3.6580   35.0920 N   0  0  0  0  0  0  0  0  0  0  0  0
   33.6710   -0.6600   40.0750 C   0  0  0  0  0  0  0  0  0  0  0  0
   32.3520   -1.0340   40.7850 C   0  0  0  0  0  0  0  0  0  0  0  0
   31.3260   -1.2140   39.6780 C   0  0  0  0  0  0  0  0  0  0  0  0
   31.9730   -0.9770   38.5010 N   0  0  0  0  0  0  0  0  0  0  0  0
   33.3810   -0.6360   38.5910 C   0  0  0  0  0  0  0  0  0  0  0  0
   30.1130   -1.5240   39.7940 O   0  0  0  0  0  0  0  0  0  0  0  0
   30.2330   -4.4400   36.1540 C   0  0  0  0  0  0  0  0  0  0  0  0
   30.8630   -3.6870   37.1670 C   0  0  0  0  0  0  0  0  0  0  0  0
   27.6150   -3.8760   33.9080 C   0  0  0  0  0  0  0  0  0  0  0  0
   29.1340   -4.0950   33.8530 C   0  0  0  0  0  0  0  0  0  0  0  0
   30.6680    8.4080   32.2950 C   0  0  0  0  0  0  0  0  0  0  0  0
   32.0230    8.2580   32.8080 C   0  0  0  0  0  0  0  0  0  0  0  0
   32.2670    7.6750   34.0920 C   0  0  0  0  0  0  0  0  0  0  0  0
   31.1710    7.2260   34.9010 C   0  0  0  0  0  0  0  0  0  0  0  0
   29.8110    7.3560   34.4280 C   0  0  0  0  0  0  0  0  0  0  0  0
   29.5670    7.9450   33.1340 C   0  0  0  0  0  0  0  0  0  0  0  0
   30.3390    8.9780   31.0320 O   0  0  0  0  0  0  0  0  0  0  0  0
   28.9900    9.1080   30.5700 C   0  0  0  0  0  0  0  0  0  0  0  0
   29.5238   -1.1936   33.6735 H   0  0  0  0  0  0  0  0  0  0  0  0
   31.4824    1.0950   36.8476 H   0  0  0  0  0  0  0  0  0  0  0  0
   28.4101    0.7988   33.9296 H   0  0  0  0  0  0  0  0  0  0  0  0
   29.8075    2.8283   32.2628 H   0  0  0  0  0  0  0  0  0  0  0  0
   28.0438    2.3236   30.6171 H   0  0  0  0  0  0  0  0  0  0  0  0
   27.1272    1.3767   31.8378 H   0  0  0  0  0  0  0  0  0  0  0  0
   27.0263    3.3221   33.4423 H   0  0  0  0  0  0  0  0  0  0  0  0
   27.2681    4.1573   31.3134 H   0  0  0  0  0  0  0  0  0  0  0  0
   29.6804    4.7883   33.8288 H   0  0  0  0  0  0  0  0  0  0  0  0
   28.8237    3.7893   35.0513 H   0  0  0  0  0  0  0  0  0  0  0  0
   27.3148    5.3400   35.3604 H   0  0  0  0  0  0  0  0  0  0  0  0
   27.4751    6.0262   33.8728 H   0  0  0  0  0  0  0  0  0  0  0  0
   29.0519    6.5866   36.2887 H   0  0  0  0  0  0  0  0  0  0  0  0
   27.9283    7.6841   35.4171 H   0  0  0  0  0  0  0  0  0  0  0  0
   27.0565   -0.7442   31.1327 H   0  0  0  0  0  0  0  0  0  0  0  0
   28.1466   -2.9860   30.5747 H   0  0  0  0  0  0  0  0  0  0  0  0
   30.6845   -3.1468   30.2693 H   0  0  0  0  0  0  0  0  0  0  0  0
   32.1466   -1.0400   30.5036 H   0  0  0  0  0  0  0  0  0  0  0  0
   31.0677    1.2187   31.0522 H   0  0  0  0  0  0  0  0  0  0  0  0
   34.4453   -1.4091   40.2968 H   0  0  0  0  0  0  0  0  0  0  0  0
   34.0127    0.3306   40.4095 H   0  0  0  0  0  0  0  0  0  0  0  0
   32.0423   -0.2291   41.4678 H   0  0  0  0  0  0  0  0  0  0  0  0
   32.4731   -1.9691   41.3515 H   0  0  0  0  0  0  0  0  0  0  0  0
   33.9971   -1.3769   38.0605 H   0  0  0  0  0  0  0  0  0  0  0  0
   33.5683    0.3638   38.1724 H   0  0  0  0  0  0  0  0  0  0  0  0
   30.0832   -5.5175   36.2046 H   0  0  0  0  0  0  0  0  0  0  0  0
   31.2780   -4.0405   38.1097 H   0  0  0  0  0  0  0  0  0  0  0  0
   27.1610   -4.2177   32.9661 H   0  0  0  0  0  0  0  0  0  0  0  0
   27.4037   -2.8059   34.0498 H   0  0  0  0  0  0  0  0  0  0  0  0
   27.1922   -4.4476   34.7473 H   0  0  0  0  0  0  0  0  0  0  0  0
   29.3284   -5.1670   33.7016 H   0  0  0  0  0  0  0  0  0  0  0  0
   29.5399   -3.5252   33.0041 H   0  0  0  0  0  0  0  0  0  0  0  0
   32.8605    8.5936   32.2072 H   0  0  0  0  0  0  0  0  0  0  0  0
   33.2835    7.5724   34.4544 H   0  0  0  0  0  0  0  0  0  0  0  0
   31.3636    6.7865   35.8730 H   0  0  0  0  0  0  0  0  0  0  0  0
   28.5479    8.0455   32.7784 H   0  0  0  0  0  0  0  0  0  0  0  0
   28.9870    9.5741   29.5736 H   0  0  0  0  0  0  0  0  0  0  0  0
   28.4214    9.7371   31.2707 H   0  0  0  0  0  0  0  0  0  0  0  0
   28.5252    8.1128   30.5106 H   0  0  0  0  0  0  0  0  0  0  0  0
  1  6  1  0  0  0  0
  1 23  1  0  0  0  0
  2  1  2  0  0  0  0
  2 42  1  0  0  0  0
  3  2  1  0  0  0  0
  3  4  2  0  0  0  0
  4  5  1  0  0  0  0
  4 43  1  0  0  0  0
  5  6  2  0  0  0  0
  5 27  1  0  0  0  0
  6 31  1  0  0  0  0
  7  3  1  0  0  0  0
  7  9  2  0  0  0  0
  8  7  1  0  0  0  0
  8 44  1  0  0  0  0
 10  8  1  0  0  0  0
 10 11  1  0  0  0  0
 10 45  1  6  0  0  0
 11 14  1  0  0  0  0
 11 46  1  0  0  0  0
 11 47  1  0  0  0  0
 12 10  1  0  0  0  0
 12 13  1  0  0  0  0
 12 48  1  1  0  0  0
 13 49  1  0  0  0  0
 14 18  2  0  0  0  0
 14 22  1  0  0  0  0
 15 12  1  0  0  0  0
 15 50  1  0  0  0  0
 15 51  1  0  0  0  0
 16 15  1  0  0  0  0
 16 52  1  0  0  0  0
 16 53  1  0  0  0  0
 17 16  1  0  0  0  0
 17 54  1  0  0  0  0
 17 55  1  0  0  0  0
 18 19  1  0  0  0  0
 18 56  1  0  0  0  0
 19 20  2  0  0  0  0
 19 57  1  0  0  0  0
 20 58  1  0  0  0  0
 21 20  1  0  0  0  0
 21 59  1  0  0  0  0
 22 21  2  0  0  0  0
 22 60  1  0  0  0  0
 23 30  1  0  0  0  0
 23 33  1  0  0  0  0
 24 25  1  0  0  0  0
 24 61  1  0  0  0  0
 24 62  1  0  0  0  0
 25 63  1  0  0  0  0
 25 64  1  0  0  0  0
 26 25  1  0  0  0  0
 26 29  2  0  0  0  0
 27 26  1  0  0  0  0
 27 28  1  0  0  0  0
 28 24  1  0  0  0  0
 28 65  1  0  0  0  0
 28 66  1  0  0  0  0
 30 67  1  0  0  0  0
 31 30  2  0  0  0  0
 31 68  1  0  0  0  0
 32 69  1  0  0  0  0
 32 70  1  0  0  0  0
 32 71  1  0  0  0  0
 33 32  1  0  0  0  0
 33 72  1  0  0  0  0
 33 73  1  0  0  0  0
 34 39  1  0  0  0  0
 34 40  1  0  0  0  0
 35 34  2  0  0  0  0
 35 74  1  0  0  0  0
 36 35  1  0  0  0  0
 36 75  1  0  0  0  0
 37 36  2  0  0  0  0
 37 38  1  0  0  0  0
 37 76  1  0  0  0  0
 38 17  1  0  0  0  0
 38 39  2  0  0  0  0
 39 77  1  0  0  0  0
 40 41  1  0  0  0  0
 41 78  1  0  0  0  0
 41 79  1  0  0  0  0
 41 80  1  0  0  0  0
M  CHG  1  16   1
M  END
