2wi1_ligand
 OpenBabel08222323343D

 26 26  0  0  0  0  0  0  0  0999 V2000
   28.8590   11.2400   23.5270 N   0  0  0  0  0  0  0  0  0  0  0  0
   29.9340   10.8100   24.2300 C   0  0  0  0  0  0  0  0  0  0  0  0
   29.7570   10.2490   25.4470 N   0  0  0  0  0  0  0  0  0  0  0  0
   30.8160    9.8140   26.1630 C   0  0  0  0  0  0  0  0  0  0  0  0
   32.0970    9.9450   25.6420 C   0  0  0  0  0  0  0  0  0  0  0  0
   32.2570   10.5230   24.3910 C   0  0  0  0  0  0  0  0  0  0  0  0
   33.6340   10.6780   23.7990 C   0  0  0  0  0  0  0  0  0  0  0  0
   31.1730   10.9460   23.7060 N   0  0  0  0  0  0  0  0  0  0  0  0
   30.6280    9.2470   27.3950 O   0  0  0  0  0  0  0  0  0  0  0  0
   31.4410    8.1500   27.8070 C   0  0  0  0  0  0  0  0  0  0  0  0
   32.1620    7.5690   26.5960 C   0  0  0  0  0  0  0  0  0  0  0  0
   31.3850    6.5080   26.0440 O   0  0  0  0  0  0  0  0  0  0  0  0
   31.2920    6.6040   24.6240 C   0  0  0  0  0  0  0  0  0  0  0  0
   27.9125   11.1393   23.9205 H   0  0  0  0  0  0  0  0  0  0  0  0
   28.9881   11.6677   22.5989 H   0  0  0  0  0  0  0  0  0  0  0  0
   32.9579    9.6011   26.2039 H   0  0  0  0  0  0  0  0  0  0  0  0
   33.5565   11.1535   22.8101 H   0  0  0  0  0  0  0  0  0  0  0  0
   34.1016    9.6879   23.6941 H   0  0  0  0  0  0  0  0  0  0  0  0
   34.2490   11.3058   24.4605 H   0  0  0  0  0  0  0  0  0  0  0  0
   30.8075    7.3750   28.2631 H   0  0  0  0  0  0  0  0  0  0  0  0
   32.1814    8.4981   28.5423 H   0  0  0  0  0  0  0  0  0  0  0  0
   33.1442    7.1818   26.9049 H   0  0  0  0  0  0  0  0  0  0  0  0
   32.2993    8.3551   25.8390 H   0  0  0  0  0  0  0  0  0  0  0  0
   30.6867    5.7701   24.2390 H   0  0  0  0  0  0  0  0  0  0  0  0
   32.3002    6.5578   24.1865 H   0  0  0  0  0  0  0  0  0  0  0  0
   30.8173    7.5581   24.3513 H   0  0  0  0  0  0  0  0  0  0  0  0
  1  2  1  0  0  0  0
  1 14  1  0  0  0  0
  1 15  1  0  0  0  0
  2  3  2  0  0  0  0
  2  8  1  0  0  0  0
  3  4  1  0  0  0  0
  4  5  2  0  0  0  0
  4  9  1  0  0  0  0
  5  6  1  0  0  0  0
  5 16  1  0  0  0  0
  6  7  1  0  0  0  0
  6  8  2  0  0  0  0
  7 17  1  0  0  0  0
  7 18  1  0  0  0  0
  7 19  1  0  0  0  0
  9 10  1  0  0  0  0
 10 11  1  0  0  0  0
 10 20  1  0  0  0  0
 10 21  1  0  0  0  0
 11 12  1  0  0  0  0
 11 22  1  0  0  0  0
 11 23  1  0  0  0  0
 12 13  1  0  0  0  0
 13 24  1  0  0  0  0
 13 25  1  0  0  0  0
 13 26  1  0  0  0  0
M  END
