2wi2_ligand
 OpenBabel08222323343D

 18 18  0  0  0  0  0  0  0  0999 V2000
   61.4660   11.3450   48.3580 N   0  0  0  0  0  0  0  0  0  0  0  0
   62.4980   10.8030   49.0480 C   0  0  0  0  0  0  0  0  0  0  0  0
   62.2610   10.1050   50.1800 N   0  0  0  0  0  0  0  0  0  0  0  0
   63.7640   10.9600   48.6050 N   0  0  0  0  0  0  0  0  0  0  0  0
   64.7920   10.4200   49.2930 C   0  0  0  0  0  0  0  0  0  0  0  0
   66.2040   10.5950   48.7980 C   0  0  0  0  0  0  0  0  0  0  0  0
   64.5550    9.7220   50.4240 N   0  0  0  0  0  0  0  0  0  0  0  0
   63.2900    9.5650   50.8680 C   0  0  0  0  0  0  0  0  0  0  0  0
   62.9920    8.6900   52.2880 S   0  0  0  0  0  0  0  0  0  0  0  0
   64.4120    7.7290   52.6940 C   0  0  0  0  0  0  0  0  0  0  0  0
   60.5006   11.2249   48.6965 H   0  0  0  0  0  0  0  0  0  0  0  0
   61.6466   11.8773   47.4949 H   0  0  0  0  0  0  0  0  0  0  0  0
   66.1968   11.1872   47.8710 H   0  0  0  0  0  0  0  0  0  0  0  0
   66.6479    9.6083   48.5993 H   0  0  0  0  0  0  0  0  0  0  0  0
   66.7984   11.1173   49.5621 H   0  0  0  0  0  0  0  0  0  0  0  0
   64.2188    7.1608   53.6159 H   0  0  0  0  0  0  0  0  0  0  0  0
   65.2738    8.3950   52.8476 H   0  0  0  0  0  0  0  0  0  0  0  0
   64.6298    7.0312   51.8721 H   0  0  0  0  0  0  0  0  0  0  0  0
  1  2  1  0  0  0  0
  1 11  1  0  0  0  0
  1 12  1  0  0  0  0
  2  3  2  0  0  0  0
  2  4  1  0  0  0  0
  3  8  1  0  0  0  0
  4  5  2  0  0  0  0
  5  6  1  0  0  0  0
  5  7  1  0  0  0  0
  6 13  1  0  0  0  0
  6 14  1  0  0  0  0
  6 15  1  0  0  0  0
  7  8  2  0  0  0  0
  8  9  1  0  0  0  0
  9 10  1  0  0  0  0
 10 16  1  0  0  0  0
 10 17  1  0  0  0  0
 10 18  1  0  0  0  0
M  END
