2wji_ligand
 OpenBabel08222323343D

 46 48  0  0  1  0  0  0  0  0999 V2000
   10.0360    2.6690   26.8960 P   0  0  0  0  0  0  0  0  0  0  0  0
   10.7720    3.4670   27.9240 O   0  0  0  0  0  1  0  0  0  0  0  0
   10.8150    1.4690   26.3890 O   0  0  0  0  0  1  0  0  0  0  0  0
    9.7430    3.7070   25.8400 O   0  0  0  0  0  0  0  0  0  0  0  0
    8.6330    2.1510   27.4770 N   0  0  0  0  0  0  0  0  0  0  0  0
    8.3170    1.6310   28.9590 P   0  0  1  0  0  0  0  0  0  0  0  0
    8.9230    0.2990   29.1520 O   0  0  0  0  0  1  0  0  0  0  0  0
    8.7390    2.6620   29.9070 O   0  0  0  0  0  0  0  0  0  0  0  0
    6.7950    1.4590   29.0970 O   0  0  0  0  0  0  0  0  0  0  0  0
    5.8010    2.4030   29.8160 P   0  0  1  0  0  0  0  0  0  0  0  0
    5.8350    2.1240   31.2750 O   0  0  0  0  0  1  0  0  0  0  0  0
    5.9840    3.8150   29.4100 O   0  0  0  0  0  0  0  0  0  0  0  0
    4.3910    1.9450   29.3110 O   0  0  0  0  0  0  0  0  0  0  0  0
    4.2470    1.4370   27.9910 C   0  0  0  0  0  0  0  0  0  0  0  0
    2.7800    1.1840   27.6970 C   0  0  1  0  0  0  0  0  0  0  0  0
    2.3320   -0.0390   28.3400 O   0  0  0  0  0  0  0  0  0  0  0  0
    1.8370    2.2850   28.1710 C   0  0  1  0  0  0  0  0  0  0  0  0
    0.7440    2.3890   27.2670 O   0  0  0  0  0  0  0  0  0  0  0  0
    1.3550    1.7460   29.5020 C   0  0  1  0  0  0  0  0  0  0  0  0
    0.0780    2.2420   29.8410 O   0  0  0  0  0  0  0  0  0  0  0  0
    1.2460    0.2640   29.1800 C   0  0  2  0  0  0  0  0  0  0  0  0
    1.2960   -0.5440   30.3870 N   0  0  0  0  0  0  0  0  0  0  0  0
    2.2140   -0.4450   31.4070 C   0  0  0  0  0  0  0  0  0  0  0  0
    1.9920   -1.2970   32.3710 N   0  0  0  0  0  0  0  0  0  0  0  0
    0.8500   -1.9910   31.9710 C   0  0  0  0  0  0  0  0  0  0  0  0
    0.1350   -3.0350   32.6080 C   0  0  0  0  0  0  0  0  0  0  0  0
    0.3730   -3.5740   33.7010 O   0  0  0  0  0  0  0  0  0  0  0  0
   -0.9680   -3.4540   31.8590 N   0  0  0  0  0  0  0  0  0  0  0  0
   -1.3350   -2.9270   30.6400 C   0  0  2  0  0  3  0  0  0  0  0  0
   -2.4300   -3.4580   30.0650 N   0  0  0  0  0  0  0  0  0  0  0  0
   -0.6680   -1.9510   30.0320 N   0  0  0  0  0  0  0  0  0  0  0  0
    0.4060   -1.5320   30.7510 C   0  0  0  0  0  0  0  0  0  0  0  0
    7.8640    2.1530   26.8377 H   0  0  0  0  0  0  0  0  0  0  0  0
    4.8061    0.4941   27.8991 H   0  0  0  0  0  0  0  0  0  0  0  0
    4.6428    2.1695   27.2722 H   0  0  0  0  0  0  0  0  0  0  0  0
    2.6730    1.0804   26.6071 H   0  0  0  0  0  0  0  0  0  0  0  0
    2.3478    3.2534   28.2770 H   0  0  0  0  0  0  0  0  0  0  0  0
    1.0704    2.6004   26.4002 H   0  0  0  0  0  0  0  0  0  0  0  0
    2.0706    1.9502   30.3120 H   0  0  0  0  0  0  0  0  0  0  0  0
   -0.5472    1.9870   29.1727 H   0  0  0  0  0  0  0  0  0  0  0  0
    0.2994    0.0656   28.6561 H   0  0  0  0  0  0  0  0  0  0  0  0
    3.0375    0.2676   31.4099 H   0  0  0  0  0  0  0  0  0  0  0  0
   -1.5316   -4.1895   32.2350 H   0  0  0  0  0  0  0  0  0  0  0  0
   -2.7548   -3.1062   29.1530 H   0  0  0  0  0  0  0  0  0  0  0  0
   -2.9432   -4.2162   30.5369 H   0  0  0  0  0  0  0  0  0  0  0  0
   -0.9353   -1.5568   29.1187 H   0  0  0  0  0  0  0  0  0  0  0  0
  1  2  1  0  0  0  0
  1  3  1  0  0  0  0
  1  4  2  0  0  0  0
  1  5  1  0  0  0  0
  5  6  1  0  0  0  0
  5 33  1  0  0  0  0
  6  7  1  1  0  0  0
  6  8  2  0  0  0  0
  6  9  1  0  0  0  0
  9 10  1  0  0  0  0
 10 11  1  1  0  0  0
 10 12  2  0  0  0  0
 10 13  1  0  0  0  0
 13 14  1  0  0  0  0
 14 15  1  0  0  0  0
 14 34  1  0  0  0  0
 14 35  1  0  0  0  0
 15 16  1  0  0  0  0
 15 17  1  0  0  0  0
 15 36  1  6  0  0  0
 16 21  1  0  0  0  0
 17 18  1  0  0  0  0
 17 19  1  0  0  0  0
 17 37  1  1  0  0  0
 18 38  1  0  0  0  0
 19 20  1  0  0  0  0
 19 21  1  0  0  0  0
 19 39  1  1  0  0  0
 20 40  1  0  0  0  0
 21 22  1  0  0  0  0
 21 41  1  6  0  0  0
 22 23  1  0  0  0  0
 22 32  1  0  0  0  0
 23 24  2  0  0  0  0
 23 42  1  0  0  0  0
 24 25  1  0  0  0  0
 25 26  1  0  0  0  0
 25 32  2  0  0  0  0
 26 27  2  0  0  0  0
 26 28  1  0  0  0  0
 28 29  1  0  0  0  0
 28 43  1  0  0  0  0
 29 30  1  6  0  0  0
 29 31  1  0  0  0  0
 30 44  1  0  0  0  0
 30 45  1  0  0  0  0
 31 32  1  0  0  0  0
 31 46  1  0  0  0  0
M  END
