2wks_ligand
 OpenBabel08222323343D

 41 43  0  0  1  0  0  0  0  0999 V2000
    4.4270   16.6490  -22.2010 C   0  0  0  0  0  0  0  0  0  0  0  0
    5.5080   17.4540  -22.3560 C   0  0  0  0  0  0  0  0  0  0  0  0
    6.3960   17.8980  -21.3630 C   0  0  0  0  0  0  0  0  0  0  0  0
    7.4810   18.7230  -21.6680 C   0  0  0  0  0  0  0  0  0  0  0  0
    7.6940   19.1210  -23.0030 C   0  0  0  0  0  0  0  0  0  0  0  0
    6.8260   18.6940  -24.0240 C   0  0  0  0  0  0  0  0  0  0  0  0
    5.7410   17.8600  -23.6970 C   0  0  0  0  0  0  0  0  0  0  0  0
    4.4930   17.1500  -24.6080 S   0  0  0  0  0  0  0  0  0  0  0  0
    3.7560   16.3770  -23.3240 C   0  0  0  0  0  0  0  0  0  0  0  0
    2.6380   15.5770  -23.3920 C   0  0  0  0  0  0  0  0  0  0  0  0
    2.1990   14.9690  -22.1750 O   0  0  0  0  0  0  0  0  0  0  0  0
    2.2160   13.6070  -22.0680 C   0  0  0  0  0  0  0  0  0  0  0  0
    1.9630   12.7360  -23.1440 C   0  0  0  0  0  0  0  0  0  0  0  0
    1.9390   11.3320  -23.0720 C   0  0  2  0  0  0  0  0  0  0  0  0
    2.7450   10.8030  -24.2630 C   0  0  0  0  0  0  0  0  0  0  0  0
    2.2780   11.1000  -25.4020 O   0  5  0  0  0  0  0  0  0  0  0  0
    3.7770   10.1190  -24.0370 O   0  0  0  0  0  0  0  0  0  0  0  0
    0.5990   10.8530  -23.2140 O   0  0  0  0  0  0  0  0  0  0  0  0
    2.4760   10.8050  -21.7300 C   0  0  0  0  0  0  0  0  0  0  0  0
    1.8910   11.6280  -20.5700 C   0  0  1  0  0  0  0  0  0  0  0  0
    2.2870   11.0580  -19.3390 O   0  0  0  0  0  0  0  0  0  0  0  0
    2.4150   13.0650  -20.6540 C   0  0  2  0  0  0  0  0  0  0  0  0
    1.7410   13.9390  -19.7390 O   0  0  0  0  0  0  0  0  0  0  0  0
    8.4010   19.1550  -20.5190 C   0  0  0  0  0  0  0  0  0  0  0  0
    4.1278   16.2532  -21.2316 H   0  0  0  0  0  0  0  0  0  0  0  0
    6.2356   17.5932  -20.3352 H   0  0  0  0  0  0  0  0  0  0  0  0
    8.5341   19.7618  -23.2451 H   0  0  0  0  0  0  0  0  0  0  0  0
    6.9908   19.0035  -25.0497 H   0  0  0  0  0  0  0  0  0  0  0  0
    2.8510   14.7696  -24.1080 H   0  0  0  0  0  0  0  0  0  0  0  0
    1.8107   16.1948  -23.7713 H   0  0  0  0  0  0  0  0  0  0  0  0
    1.7692   13.1881  -24.1156 H   0  0  0  0  0  0  0  0  0  0  0  0
    0.6022    9.9030  -23.2179 H   0  0  0  0  0  0  0  0  0  0  0  0
    3.5728   10.8879  -21.7186 H   0  0  0  0  0  0  0  0  0  0  0  0
    2.1867    9.7505  -21.6107 H   0  0  0  0  0  0  0  0  0  0  0  0
    0.7931   11.6311  -20.6379 H   0  0  0  0  0  0  0  0  0  0  0  0
    1.9665   10.1652  -19.2870 H   0  0  0  0  0  0  0  0  0  0  0  0
    3.4886   13.0600  -20.4145 H   0  0  0  0  0  0  0  0  0  0  0  0
    2.0944   14.8168  -19.8227 H   0  0  0  0  0  0  0  0  0  0  0  0
    8.0363   18.7233  -19.5752 H   0  0  0  0  0  0  0  0  0  0  0  0
    8.4030   20.2524  -20.4436 H   0  0  0  0  0  0  0  0  0  0  0  0
    9.4233   18.7990  -20.7141 H   0  0  0  0  0  0  0  0  0  0  0  0
  1  2  1  0  0  0  0
  1  9  2  0  0  0  0
  1 25  1  0  0  0  0
  2  3  2  0  0  0  0
  2  7  1  0  0  0  0
  3  4  1  0  0  0  0
  3 26  1  0  0  0  0
  4  5  2  0  0  0  0
  4 24  1  0  0  0  0
  5  6  1  0  0  0  0
  5 27  1  0  0  0  0
  6  7  2  0  0  0  0
  6 28  1  0  0  0  0
  7  8  1  0  0  0  0
  8  9  1  0  0  0  0
  9 10  1  0  0  0  0
 10 11  1  0  0  0  0
 10 29  1  0  0  0  0
 10 30  1  0  0  0  0
 11 12  1  0  0  0  0
 12 13  2  0  0  0  0
 12 22  1  0  0  0  0
 13 14  1  0  0  0  0
 13 31  1  0  0  0  0
 14 15  1  6  0  0  0
 14 18  1  0  0  0  0
 14 19  1  0  0  0  0
 15 16  1  0  0  0  0
 15 17  2  0  0  0  0
 18 32  1  0  0  0  0
 19 20  1  0  0  0  0
 19 33  1  0  0  0  0
 19 34  1  0  0  0  0
 20 21  1  0  0  0  0
 20 22  1  0  0  0  0
 20 35  1  6  0  0  0
 21 36  1  0  0  0  0
 22 23  1  0  0  0  0
 22 37  1  1  0  0  0
 23 38  1  0  0  0  0
 24 39  1  0  0  0  0
 24 40  1  0  0  0  0
 24 41  1  0  0  0  0
M  CHG  1  16  -1
M  END
