2wnl_ligand
 OpenBabel08222323343D

 28 28  0  0  0  0  0  0  0  0999 V2000
   45.6900   25.0290   52.7880 C   0  0  0  0  0  0  0  0  0  0  0  0
   44.6580   25.9580   52.6380 C   0  0  0  0  0  0  0  0  0  0  0  0
   44.9430   27.3130   52.4950 C   0  0  0  0  0  0  0  0  0  0  0  0
   46.2080   27.7350   52.5100 N   0  0  0  0  0  0  0  0  0  0  0  0
   47.2060   26.8420   52.6630 C   0  0  0  0  0  0  0  0  0  0  0  0
   47.0090   25.4720   52.7850 C   0  0  0  0  0  0  0  0  0  0  0  0
   48.2080   24.5580   52.9910 C   0  0  0  0  0  0  0  0  0  0  0  0
   48.8810   23.6720   51.9500 C   0  0  0  0  0  0  0  0  0  0  0  0
   50.3670   23.4510   52.3290 C   0  0  0  0  0  0  0  0  0  0  0  0
   48.6890   24.5320   54.1090 O   0  0  0  0  0  0  0  0  0  0  0  0
   51.4930   21.3550   51.4210 C   0  0  0  0  0  0  0  0  0  0  0  0
   52.1380   20.1140   51.8090 N   0  3  0  0  0  0  0  0  0  0  0  0
   50.7610   21.9950   52.6060 C   0  0  0  0  0  0  0  0  0  0  0  0
   45.4660   23.9749   52.9054 H   0  0  0  0  0  0  0  0  0  0  0  0
   43.6276   25.6214   52.6329 H   0  0  0  0  0  0  0  0  0  0  0  0
   44.1358   28.0259   52.3713 H   0  0  0  0  0  0  0  0  0  0  0  0
   48.2234   27.2151   52.6926 H   0  0  0  0  0  0  0  0  0  0  0  0
   48.8240   24.1583   50.9650 H   0  0  0  0  0  0  0  0  0  0  0  0
   48.3663   22.7007   51.9097 H   0  0  0  0  0  0  0  0  0  0  0  0
   50.5782   24.0387   53.2345 H   0  0  0  0  0  0  0  0  0  0  0  0
   50.9882   23.8196   51.4994 H   0  0  0  0  0  0  0  0  0  0  0  0
   50.7671   21.1470   50.6212 H   0  0  0  0  0  0  0  0  0  0  0  0
   52.2562   22.0552   51.0505 H   0  0  0  0  0  0  0  0  0  0  0  0
   52.6100   19.7171   51.0117 H   0  0  0  0  0  0  0  0  0  0  0  0
   51.4437   19.4654   52.1456 H   0  0  0  0  0  0  0  0  0  0  0  0
   52.8083   20.2976   52.5391 H   0  0  0  0  0  0  0  0  0  0  0  0
   49.8496   21.4152   52.8136 H   0  0  0  0  0  0  0  0  0  0  0  0
   51.4209   21.9683   53.4856 H   0  0  0  0  0  0  0  0  0  0  0  0
  1  2  2  0  0  0  0
  1 14  1  0  0  0  0
  2  3  1  0  0  0  0
  2 15  1  0  0  0  0
  3 16  1  0  0  0  0
  4  3  2  0  0  0  0
  5  4  1  0  0  0  0
  5 17  1  0  0  0  0
  6  1  1  0  0  0  0
  6  5  2  0  0  0  0
  7  6  1  0  0  0  0
  7 10  2  0  0  0  0
  8  7  1  0  0  0  0
  8 18  1  0  0  0  0
  8 19  1  0  0  0  0
  9  8  1  0  0  0  0
  9 20  1  0  0  0  0
  9 21  1  0  0  0  0
 11 12  1  0  0  0  0
 11 13  1  0  0  0  0
 11 22  1  0  0  0  0
 11 23  1  0  0  0  0
 12 24  1  0  0  0  0
 12 25  1  0  0  0  0
 12 26  1  0  0  0  0
 13  9  1  0  0  0  0
 13 27  1  0  0  0  0
 13 28  1  0  0  0  0
M  CHG  1  12   1
M  END
