2wo9_ligand
 OpenBabel08222323343D

 42 43  0  0  1  0  0  0  0  0999 V2000
   21.6250   29.7410   -9.9910 C   0  0  0  0  0  0  0  0  0  0  0  0
   22.5140   29.1990   -8.8700 C   0  0  0  0  0  0  0  0  0  0  0  0
   23.7010   29.0570   -9.0500 O   0  0  0  0  0  0  0  0  0  0  0  0
   21.8580   28.8460   -7.5960 C   0  0  0  0  0  0  0  0  0  0  0  0
   22.5940   28.4840   -6.4710 C   0  0  0  0  0  0  0  0  0  0  0  0
   21.9600   28.1540   -5.2800 C   0  0  0  0  0  0  0  0  0  0  0  0
   20.4740   28.8840   -7.4830 C   0  0  0  0  0  0  0  0  0  0  0  0
   19.8420   28.5550   -6.2700 C   0  0  0  0  0  0  0  0  0  0  0  0
   20.5740   28.1800   -5.1450 C   0  0  0  0  0  0  0  0  0  0  0  0
   19.9140   27.7740   -3.8570 C   0  0  0  0  0  0  0  0  0  0  0  0
   20.4750   26.7400   -3.0950 C   0  0  0  0  0  0  0  0  0  0  0  0
   19.9210   26.2990   -1.9130 C   0  0  0  0  0  0  0  0  0  0  0  0
   18.7140   28.2960   -3.4010 C   0  0  0  0  0  0  0  0  0  0  0  0
   18.1260   27.8650   -2.2260 C   0  0  0  0  0  0  0  0  0  0  0  0
   18.7080   26.8480   -1.4620 C   0  0  0  0  0  0  0  0  0  0  0  0
   18.1030   26.3550   -0.1910 C   0  0  0  0  0  0  0  0  0  0  0  0
   17.1820   27.2900    0.6090 C   0  0  0  0  0  0  0  0  0  0  0  0
   16.9510   26.7710    2.0360 C   0  0  2  0  0  0  0  0  0  0  0  0
   16.2210   25.5390    1.9030 O   0  0  0  0  0  0  0  0  0  0  0  0
   16.2540   27.7590    2.9760 C   0  0  0  0  0  0  0  0  0  0  0  0
   16.8180   29.1870    2.8010 C   0  0  0  0  0  0  0  0  0  0  0  0
   17.9430   29.3770    3.2250 O   0  5  0  0  0  0  0  0  0  0  0  0
   16.1180   30.0340    2.2600 O   0  0  0  0  0  0  0  0  0  0  0  0
   20.5845   29.7980   -9.6387 H   0  0  0  0  0  0  0  0  0  0  0  0
   21.6814   29.0698  -10.8607 H   0  0  0  0  0  0  0  0  0  0  0  0
   21.9699   30.7449  -10.2796 H   0  0  0  0  0  0  0  0  0  0  0  0
   23.6764   28.4594   -6.5253 H   0  0  0  0  0  0  0  0  0  0  0  0
   22.5641   27.8666   -4.4271 H   0  0  0  0  0  0  0  0  0  0  0  0
   19.8741   29.1704   -8.3393 H   0  0  0  0  0  0  0  0  0  0  0  0
   18.7604   28.5941   -6.2090 H   0  0  0  0  0  0  0  0  0  0  0  0
   21.3833   26.2672   -3.4507 H   0  0  0  0  0  0  0  0  0  0  0  0
   20.4191   25.5309   -1.3325 H   0  0  0  0  0  0  0  0  0  0  0  0
   18.2210   29.0660   -3.9834 H   0  0  0  0  0  0  0  0  0  0  0  0
   17.2012   28.3216   -1.8923 H   0  0  0  0  0  0  0  0  0  0  0  0
   18.9335   26.0749    0.4737 H   0  0  0  0  0  0  0  0  0  0  0  0
   17.5148   25.4595   -0.4403 H   0  0  0  0  0  0  0  0  0  0  0  0
   16.2126   27.3624    0.0942 H   0  0  0  0  0  0  0  0  0  0  0  0
   17.6443   28.2867    0.6622 H   0  0  0  0  0  0  0  0  0  0  0  0
   17.9329   26.5489    2.4793 H   0  0  0  0  0  0  0  0  0  0  0  0
   15.3961   25.7069    1.4626 H   0  0  0  0  0  0  0  0  0  0  0  0
   16.4100   27.4363    4.0160 H   0  0  0  0  0  0  0  0  0  0  0  0
   15.1770   27.7685    2.7526 H   0  0  0  0  0  0  0  0  0  0  0  0
  1  2  1  0  0  0  0
  1 24  1  0  0  0  0
  1 25  1  0  0  0  0
  1 26  1  0  0  0  0
  2  3  2  0  0  0  0
  2  4  1  0  0  0  0
  4  5  2  0  0  0  0
  4  7  1  0  0  0  0
  5  6  1  0  0  0  0
  5 27  1  0  0  0  0
  6  9  2  0  0  0  0
  6 28  1  0  0  0  0
  7  8  2  0  0  0  0
  7 29  1  0  0  0  0
  8  9  1  0  0  0  0
  8 30  1  0  0  0  0
  9 10  1  0  0  0  0
 10 11  2  0  0  0  0
 10 13  1  0  0  0  0
 11 12  1  0  0  0  0
 11 31  1  0  0  0  0
 12 15  2  0  0  0  0
 12 32  1  0  0  0  0
 13 14  2  0  0  0  0
 13 33  1  0  0  0  0
 14 15  1  0  0  0  0
 14 34  1  0  0  0  0
 15 16  1  0  0  0  0
 16 17  1  0  0  0  0
 16 35  1  0  0  0  0
 16 36  1  0  0  0  0
 17 18  1  0  0  0  0
 17 37  1  0  0  0  0
 17 38  1  0  0  0  0
 18 19  1  0  0  0  0
 18 20  1  0  0  0  0
 18 39  1  1  0  0  0
 19 40  1  0  0  0  0
 20 21  1  0  0  0  0
 20 41  1  0  0  0  0
 20 42  1  0  0  0  0
 21 22  1  0  0  0  0
 21 23  2  0  0  0  0
M  CHG  1  22  -1
M  END
