2woa_ligand
 OpenBabel08222323343D

 38 40  0  0  1  0  0  0  0  0999 V2000
   16.0320   25.3990    1.3780 O   0  0  0  0  0  0  0  0  0  0  0  0
   16.8480   26.5840    1.5250 C   0  0  2  0  0  0  0  0  0  0  0  0
   16.2970   27.5170    2.6270 C   0  0  0  0  0  0  0  0  0  0  0  0
   16.8190   28.9530    2.5700 C   0  0  0  0  0  0  0  0  0  0  0  0
   16.1310   29.8320    1.9890 O   0  5  0  0  0  0  0  0  0  0  0  0
   17.9250   29.1310    3.1370 O   0  0  0  0  0  0  0  0  0  0  0  0
   17.1360   27.1920    0.1340 C   0  0  0  0  0  0  0  0  0  0  0  0
   18.3950   26.5710   -0.5080 C   0  0  0  0  0  0  0  0  0  0  0  0
   18.8240   27.0780   -1.8750 C   0  0  0  0  0  0  0  0  0  0  0  0
   19.9100   26.4380   -2.5100 C   0  0  0  0  0  0  0  0  0  0  0  0
   20.3140   26.8800   -3.7670 C   0  0  0  0  0  0  0  0  0  0  0  0
   21.4410   26.3180   -4.6230 C   0  0  0  0  0  0  0  0  0  0  0  0
   21.3590   27.2290   -5.8580 C   0  0  0  0  0  0  0  0  0  0  0  0
   22.1830   27.1830   -7.0100 C   0  0  0  0  0  0  0  0  0  0  0  0
   21.9570   28.1070   -8.0620 C   0  0  0  0  0  0  0  0  0  0  0  0
   20.9120   29.0550   -7.9290 C   0  0  0  0  0  0  0  0  0  0  0  0
   20.0980   29.0880   -6.7580 C   0  0  0  0  0  0  0  0  0  0  0  0
   20.3340   28.1660   -5.7230 C   0  0  0  0  0  0  0  0  0  0  0  0
   19.6780   27.9490   -4.4150 C   0  0  0  0  0  0  0  0  0  0  0  0
   18.6110   28.6020   -3.8110 C   0  0  0  0  0  0  0  0  0  0  0  0
   18.1900   28.1560   -2.5350 C   0  0  0  0  0  0  0  0  0  0  0  0
   15.1469   25.6524    1.1437 H   0  0  0  0  0  0  0  0  0  0  0  0
   17.8252   26.2474    1.9016 H   0  0  0  0  0  0  0  0  0  0  0  0
   16.5705   27.0918    3.6039 H   0  0  0  0  0  0  0  0  0  0  0  0
   15.2014   27.5471    2.5339 H   0  0  0  0  0  0  0  0  0  0  0  0
   17.2885   28.2759    0.2428 H   0  0  0  0  0  0  0  0  0  0  0  0
   16.2727   27.0072   -0.5221 H   0  0  0  0  0  0  0  0  0  0  0  0
   18.2146   25.4900   -0.6022 H   0  0  0  0  0  0  0  0  0  0  0  0
   19.2334   26.7441    0.1827 H   0  0  0  0  0  0  0  0  0  0  0  0
   20.4221   25.6142   -2.0260 H   0  0  0  0  0  0  0  0  0  0  0  0
   21.2612   25.2651   -4.8859 H   0  0  0  0  0  0  0  0  0  0  0  0
   22.4143   26.4090   -4.1187 H   0  0  0  0  0  0  0  0  0  0  0  0
   22.9775   26.4495   -7.0863 H   0  0  0  0  0  0  0  0  0  0  0  0
   22.5736   28.0884   -8.9534 H   0  0  0  0  0  0  0  0  0  0  0  0
   20.7288   29.7645   -8.7278 H   0  0  0  0  0  0  0  0  0  0  0  0
   19.3028   29.8190   -6.6667 H   0  0  0  0  0  0  0  0  0  0  0  0
   18.1143   29.4303   -4.3032 H   0  0  0  0  0  0  0  0  0  0  0  0
   17.3585   28.6548   -2.0504 H   0  0  0  0  0  0  0  0  0  0  0  0
  1  2  1  0  0  0  0
  1 22  1  0  0  0  0
  2  3  1  0  0  0  0
  2  7  1  0  0  0  0
  2 23  1  1  0  0  0
  3  4  1  0  0  0  0
  3 24  1  0  0  0  0
  3 25  1  0  0  0  0
  4  5  1  0  0  0  0
  4  6  2  0  0  0  0
  7  8  1  0  0  0  0
  7 26  1  0  0  0  0
  7 27  1  0  0  0  0
  8  9  1  0  0  0  0
  8 28  1  0  0  0  0
  8 29  1  0  0  0  0
  9 10  2  0  0  0  0
  9 21  1  0  0  0  0
 10 11  1  0  0  0  0
 10 30  1  0  0  0  0
 11 12  1  0  0  0  0
 11 19  2  0  0  0  0
 12 13  1  0  0  0  0
 12 31  1  0  0  0  0
 12 32  1  0  0  0  0
 13 14  2  0  0  0  0
 13 18  1  0  0  0  0
 14 15  1  0  0  0  0
 14 33  1  0  0  0  0
 15 16  2  0  0  0  0
 15 34  1  0  0  0  0
 16 17  1  0  0  0  0
 16 35  1  0  0  0  0
 17 18  2  0  0  0  0
 17 36  1  0  0  0  0
 18 19  1  0  0  0  0
 19 20  1  0  0  0  0
 20 21  2  0  0  0  0
 20 37  1  0  0  0  0
 21 38  1  0  0  0  0
M  CHG  1   5  -1
M  END
