2wou_ligand
 OpenBabel08222323343D

 44 46  0  0  0  0  0  0  0  0999 V2000
    9.2100   11.7400    5.1300 C   0  0  0  0  0  0  0  0  0  0  0  0
    7.8490   11.1780    4.9490 C   0  0  0  0  0  0  0  0  0  0  0  0
    6.9910   11.7310    4.0230 C   0  0  0  0  0  0  0  0  0  0  0  0
    5.7310   11.1900    3.8690 C   0  0  0  0  0  0  0  0  0  0  0  0
    5.3730   10.1170    4.6500 C   0  0  0  0  0  0  0  0  0  0  0  0
    6.2680    9.6090    5.5680 C   0  0  0  0  0  0  0  0  0  0  0  0
    7.4920   10.1350    5.7060 N   0  0  0  0  0  0  0  0  0  0  0  0
    5.8940    8.4420    6.4340 C   0  0  0  0  0  0  0  0  0  0  0  0
    4.1140    9.5600    4.5180 O   0  0  0  0  0  0  0  0  0  0  0  0
    4.0120    8.5190    3.6060 C   0  0  0  0  0  0  0  0  0  0  0  0
    5.0920    8.0310    2.9060 C   0  0  0  0  0  0  0  0  0  0  0  0
    4.8660    6.9980    2.0250 C   0  0  0  0  0  0  0  0  0  0  0  0
    3.6690    6.4400    1.8090 N   0  0  0  0  0  0  0  0  0  0  0  0
    2.6390    6.9260    2.5090 C   0  0  0  0  0  0  0  0  0  0  0  0
    2.7690    7.9640    3.4100 C   0  0  0  0  0  0  0  0  0  0  0  0
    1.4210    6.3170    2.2640 N   0  0  0  0  0  0  0  0  0  0  0  0
    0.2840    6.2280    3.0980 C   0  0  0  0  0  0  0  0  0  0  0  0
   -0.9450    6.0610    2.4980 C   0  0  0  0  0  0  0  0  0  0  0  0
   -2.0860    5.9600    3.2630 C   0  0  0  0  0  0  0  0  0  0  0  0
   -2.0030    6.0270    4.6380 C   0  0  0  0  0  0  0  0  0  0  0  0
   -0.7880    6.1960    5.2550 C   0  0  0  0  0  0  0  0  0  0  0  0
    0.3500    6.2900    4.4810 C   0  0  0  0  0  0  0  0  0  0  0  0
   -3.5140    5.8900    5.5870 S   0  0  0  0  0  0  0  0  0  0  0  0
   -3.8080    7.2010    6.1360 O   0  0  0  0  0  0  0  0  0  0  0  0
   -4.3650    5.1960    4.6410 O   0  0  0  0  0  0  0  0  0  0  0  0
   -3.2930    4.9990    6.7100 N   0  0  0  0  0  0  0  0  0  0  0  0
    9.3518   12.5861    4.4415 H   0  0  0  0  0  0  0  0  0  0  0  0
    9.9589   10.9634    4.9157 H   0  0  0  0  0  0  0  0  0  0  0  0
    9.3284   12.0874    6.1670 H   0  0  0  0  0  0  0  0  0  0  0  0
    7.3017   12.5793    3.4239 H   0  0  0  0  0  0  0  0  0  0  0  0
    5.0369   11.6032    3.1461 H   0  0  0  0  0  0  0  0  0  0  0  0
    6.7373    8.1899    7.0937 H   0  0  0  0  0  0  0  0  0  0  0  0
    5.6536    7.5764    5.7992 H   0  0  0  0  0  0  0  0  0  0  0  0
    5.0170    8.7042    7.0440 H   0  0  0  0  0  0  0  0  0  0  0  0
    6.0843    8.4451    3.0436 H   0  0  0  0  0  0  0  0  0  0  0  0
    5.7129    6.6112    1.4699 H   0  0  0  0  0  0  0  0  0  0  0  0
    1.9072    8.3347    3.9530 H   0  0  0  0  0  0  0  0  0  0  0  0
    1.3303    5.8644    1.3432 H   0  0  0  0  0  0  0  0  0  0  0  0
   -1.0144    6.0088    1.4175 H   0  0  0  0  0  0  0  0  0  0  0  0
   -3.0495    5.8278    2.7841 H   0  0  0  0  0  0  0  0  0  0  0  0
   -0.7240    6.2547    6.3355 H   0  0  0  0  0  0  0  0  0  0  0  0
    1.3129    6.4146    4.9630 H   0  0  0  0  0  0  0  0  0  0  0  0
   -4.0371    4.8070    7.3499 H   0  0  0  0  0  0  0  0  0  0  0  0
   -2.3965    4.5767    6.8444 H   0  0  0  0  0  0  0  0  0  0  0  0
  1  2  1  0  0  0  0
  1 27  1  0  0  0  0
  1 28  1  0  0  0  0
  1 29  1  0  0  0  0
  2  3  2  0  0  0  0
  2  7  1  0  0  0  0
  3  4  1  0  0  0  0
  3 30  1  0  0  0  0
  4  5  2  0  0  0  0
  4 31  1  0  0  0  0
  5  6  1  0  0  0  0
  5  9  1  0  0  0  0
  6  7  2  0  0  0  0
  6  8  1  0  0  0  0
  8 32  1  0  0  0  0
  8 33  1  0  0  0  0
  8 34  1  0  0  0  0
  9 10  1  0  0  0  0
 10 11  2  0  0  0  0
 10 15  1  0  0  0  0
 11 12  1  0  0  0  0
 11 35  1  0  0  0  0
 12 13  2  0  0  0  0
 12 36  1  0  0  0  0
 13 14  1  0  0  0  0
 14 15  2  0  0  0  0
 14 16  1  0  0  0  0
 15 37  1  0  0  0  0
 16 17  1  0  0  0  0
 16 38  1  0  0  0  0
 17 18  2  0  0  0  0
 17 22  1  0  0  0  0
 18 19  1  0  0  0  0
 18 39  1  0  0  0  0
 19 20  2  0  0  0  0
 19 40  1  0  0  0  0
 20 21  1  0  0  0  0
 20 23  1  0  0  0  0
 21 22  2  0  0  0  0
 21 41  1  0  0  0  0
 22 42  1  0  0  0  0
 23 24  2  0  0  0  0
 23 25  2  0  0  0  0
 23 26  1  0  0  0  0
 26 43  1  0  0  0  0
 26 44  1  0  0  0  0
M  END
