2wp1_ligand
 OpenBabel08222323343D

125125  0  0  1  0  0  0  0  0999 V2000
   -5.4600    4.6300  -29.9230 N   0  3  0  0  0  0  0  0  0  0  0  0
   -6.7840    3.9950  -30.1890 C   0  0  2  0  0  0  0  0  0  0  0  0
   -7.9280    4.9790  -29.9340 C   0  0  0  0  0  0  0  0  0  0  0  0
   -7.8710    5.7910  -29.0080 O   0  0  0  0  0  0  0  0  0  0  0  0
   -6.9530    2.7540  -29.3100 C   0  0  0  0  0  0  0  0  0  0  0  0
   -8.9830    4.9240  -30.7630 N   0  0  0  0  0  0  0  0  0  0  0  0
  -10.1340    5.8200  -30.6090 C   0  0  2  0  0  0  0  0  0  0  0  0
  -10.9120    5.5540  -29.3200 C   0  0  0  0  0  0  0  0  0  0  0  0
  -10.8590    4.4570  -28.7580 O   0  0  0  0  0  0  0  0  0  0  0  0
  -10.9770    5.5190  -31.8470 C   0  0  0  0  0  0  0  0  0  0  0  0
   -9.9750    5.0310  -32.8380 C   0  0  0  0  0  0  0  0  0  0  0  0
   -9.0970    4.1450  -32.0060 C   0  0  0  0  0  0  0  0  0  0  0  0
  -11.6280    6.5720  -28.8560 N   0  0  0  0  0  0  0  0  0  0  0  0
  -12.4360    6.4620  -27.6500 C   0  0  2  0  0  0  0  0  0  0  0  0
  -13.6400    7.3850  -27.7550 C   0  0  0  0  0  0  0  0  0  0  0  0
  -13.5120    8.5730  -28.0580 O   0  0  0  0  0  0  0  0  0  0  0  0
  -11.6120    6.8030  -26.4000 C   0  0  0  0  0  0  0  0  0  0  0  0
  -10.5670    5.7510  -26.0480 C   0  0  0  0  0  0  0  0  0  0  0  0
   -9.8340    6.0910  -24.7610 C   0  0  0  0  0  0  0  0  0  0  0  0
  -10.6990    6.0170  -23.5850 N   0  0  0  0  0  0  0  0  0  0  0  0
  -10.2700    6.1390  -22.3310 C   0  0  0  0  0  3  0  0  0  0  0  0
   -8.9820    6.3440  -22.0840 N   0  0  0  0  0  0  0  0  0  0  0  0
  -11.1250    6.0410  -21.3190 N   0  0  0  0  0  0  0  0  0  0  0  0
  -20.8520    2.4910  -26.9230 O   0  0  0  0  0  0  0  0  0  0  0  0
  -21.6380    3.4360  -27.0360 C   0  0  0  0  0  0  0  0  0  0  0  0
  -23.1300    3.2340  -26.8620 C   0  0  0  0  0  0  0  0  0  0  0  0
  -21.2570    4.6790  -27.3090 N   0  0  0  0  0  0  0  0  0  0  0  0
  -19.8770    5.1080  -27.5070 C   0  0  0  0  0  0  0  0  0  0  0  0
  -19.4960    6.1230  -26.4400 C   0  0  0  0  0  0  0  0  0  0  0  0
  -18.5230    7.1710  -26.9560 C   0  0  0  0  0  0  0  0  0  0  0  0
  -17.2090    6.5440  -27.3410 C   0  0  0  0  0  0  0  0  0  0  0  0
  -16.0710    7.5330  -27.5760 C   0  0  2  0  0  0  0  0  0  0  0  0
  -14.8120    6.8110  -27.5180 N   0  0  0  0  0  0  0  0  0  0  0  0
  -16.1180    8.6570  -26.5410 C   0  0  0  0  0  0  0  0  0  0  0  0
  -15.7080    8.4750  -25.3960 O   0  0  0  0  0  0  0  0  0  0  0  0
  -16.6170    9.8190  -26.9490 N   0  0  0  0  0  0  0  0  0  0  0  0
  -16.7100   10.9650  -26.0470 C   0  0  2  0  0  0  0  0  0  0  0  0
  -18.1560   11.4110  -25.8620 C   0  0  0  0  0  0  0  0  0  0  0  0
  -18.7270   12.0890  -26.7150 O   0  0  0  0  0  0  0  0  0  0  0  0
  -15.8730   12.1340  -26.5820 C   0  0  0  0  0  0  0  0  0  0  0  0
  -14.3800   11.8490  -26.6700 C   0  0  0  0  0  0  0  0  0  0  0  0
  -13.7740   11.4960  -25.3250 C   0  0  0  0  0  0  0  0  0  0  0  0
  -13.9130   12.2450  -24.3570 O   0  0  0  0  0  0  0  0  0  0  0  0
  -13.0920   10.3540  -25.2570 N   0  0  0  0  0  0  0  0  0  0  0  0
  -18.7400   11.0270  -24.7360 N   0  0  0  0  0  0  0  0  0  0  0  0
  -20.1190   11.3770  -24.4310 C   0  0  2  0  0  0  0  0  0  0  0  0
  -20.2190   12.8600  -24.1090 C   0  0  0  0  0  0  0  0  0  0  0  0
  -19.8380   13.2900  -23.0180 O   0  0  0  0  0  0  0  0  0  0  0  0
  -20.6070   10.5520  -23.2410 C   0  0  0  0  0  0  0  0  0  0  0  0
  -20.5410    9.0370  -23.4310 C   0  0  0  0  0  0  0  0  0  0  0  0
  -20.8290    8.3500  -22.1120 C   0  0  0  0  0  0  0  0  0  0  0  0
  -21.5340    8.6070  -24.5000 C   0  0  0  0  0  0  0  0  0  0  0  0
  -20.7290   13.6370  -25.0600 N   0  0  0  0  0  0  0  0  0  0  0  0
  -20.8750   15.0790  -24.8780 C   0  0  2  0  0  0  0  0  0  0  0  0
  -19.7020   15.6700  -24.0880 C   0  0  0  0  0  0  0  0  0  0  0  0
  -19.9560   16.2740  -23.0230 O   0  0  0  0  0  0  0  0  0  0  0  0
  -22.1910   15.3780  -24.1650 C   0  0  0  0  0  0  0  0  0  0  0  0
  -18.5420   15.5170  -24.5380 N   0  0  0  0  0  0  0  0  0  0  0  0
   -4.7257    3.9620  -30.0982 H   0  0  0  0  0  0  0  0  0  0  0  0
   -5.4185    4.9305  -28.9617 H   0  0  0  0  0  0  0  0  0  0  0  0
   -5.3414    5.4264  -30.5294 H   0  0  0  0  0  0  0  0  0  0  0  0
   -6.8178    3.6870  -31.2445 H   0  0  0  0  0  0  0  0  0  0  0  0
   -7.9307    2.2921  -29.5119 H   0  0  0  0  0  0  0  0  0  0  0  0
   -6.8966    3.0446  -28.2506 H   0  0  0  0  0  0  0  0  0  0  0  0
   -6.1533    2.0332  -29.5356 H   0  0  0  0  0  0  0  0  0  0  0  0
   -9.8050    6.8696  -30.6123 H   0  0  0  0  0  0  0  0  0  0  0  0
  -11.4801    6.4270  -32.2108 H   0  0  0  0  0  0  0  0  0  0  0  0
  -11.7281    4.7444  -31.6328 H   0  0  0  0  0  0  0  0  0  0  0  0
   -9.4027    5.8661  -33.2682 H   0  0  0  0  0  0  0  0  0  0  0  0
  -10.4596    4.4637  -33.6463 H   0  0  0  0  0  0  0  0  0  0  0  0
   -9.5688    3.1679  -31.8255 H   0  0  0  0  0  0  0  0  0  0  0  0
   -8.1146    3.9962  -32.4780 H   0  0  0  0  0  0  0  0  0  0  0  0
  -11.6115    7.4410  -29.3505 H   0  0  0  0  0  0  0  0  0  0  0  0
  -12.7922    5.4252  -27.5601 H   0  0  0  0  0  0  0  0  0  0  0  0
  -12.3003    6.9070  -25.5483 H   0  0  0  0  0  0  0  0  0  0  0  0
  -11.0969    7.7592  -26.5741 H   0  0  0  0  0  0  0  0  0  0  0  0
   -9.8361    5.6872  -26.8676 H   0  0  0  0  0  0  0  0  0  0  0  0
  -11.0674    4.7790  -25.9264 H   0  0  0  0  0  0  0  0  0  0  0  0
   -9.4360    7.1133  -24.8418 H   0  0  0  0  0  0  0  0  0  0  0  0
   -9.0023    5.3828  -24.6316 H   0  0  0  0  0  0  0  0  0  0  0  0
  -11.7057    5.8603  -23.7366 H   0  0  0  0  0  0  0  0  0  0  0  0
   -8.6525    6.4381  -21.1127 H   0  0  0  0  0  0  0  0  0  0  0  0
   -8.3121    6.4090  -22.8637 H   0  0  0  0  0  0  0  0  0  0  0  0
  -12.1257    5.8820  -21.5038 H   0  0  0  0  0  0  0  0  0  0  0  0
  -10.7872    6.1241  -20.3495 H   0  0  0  0  0  0  0  0  0  0  0  0
  -23.6487    4.1939  -27.0020 H   0  0  0  0  0  0  0  0  0  0  0  0
  -23.3328    2.8518  -25.8507 H   0  0  0  0  0  0  0  0  0  0  0  0
  -23.4914    2.5099  -27.6070 H   0  0  0  0  0  0  0  0  0  0  0  0
  -21.9716    5.3744  -27.3846 H   0  0  0  0  0  0  0  0  0  0  0  0
  -19.7764    5.5678  -28.5012 H   0  0  0  0  0  0  0  0  0  0  0  0
  -19.2097    4.2363  -27.4369 H   0  0  0  0  0  0  0  0  0  0  0  0
  -19.0284    5.5915  -25.5981 H   0  0  0  0  0  0  0  0  0  0  0  0
  -20.4086    6.6294  -26.0926 H   0  0  0  0  0  0  0  0  0  0  0  0
  -18.3478    7.9183  -26.1680 H   0  0  0  0  0  0  0  0  0  0  0  0
  -18.9588    7.6633  -27.8379 H   0  0  0  0  0  0  0  0  0  0  0  0
  -17.3617    5.9719  -28.2680 H   0  0  0  0  0  0  0  0  0  0  0  0
  -16.9067    5.8605  -26.5339 H   0  0  0  0  0  0  0  0  0  0  0  0
  -16.1811    7.9759  -28.5769 H   0  0  0  0  0  0  0  0  0  0  0  0
  -14.8296    5.8377  -27.2892 H   0  0  0  0  0  0  0  0  0  0  0  0
  -16.9354    9.9111  -27.8925 H   0  0  0  0  0  0  0  0  0  0  0  0
  -16.3102   10.6663  -25.0667 H   0  0  0  0  0  0  0  0  0  0  0  0
  -16.0200   12.9962  -25.9150 H   0  0  0  0  0  0  0  0  0  0  0  0
  -16.2356   12.3841  -27.5899 H   0  0  0  0  0  0  0  0  0  0  0  0
  -13.8729   12.7433  -27.0612 H   0  0  0  0  0  0  0  0  0  0  0  0
  -14.2220   11.0067  -27.3597 H   0  0  0  0  0  0  0  0  0  0  0  0
  -12.6718   10.0732  -24.3941 H   0  0  0  0  0  0  0  0  0  0  0  0
  -13.0002    9.7773  -26.0688 H   0  0  0  0  0  0  0  0  0  0  0  0
  -18.2192   10.4823  -24.0786 H   0  0  0  0  0  0  0  0  0  0  0  0
  -20.7487   11.1559  -25.3054 H   0  0  0  0  0  0  0  0  0  0  0  0
  -21.6541   10.8252  -23.0435 H   0  0  0  0  0  0  0  0  0  0  0  0
  -19.9892   10.8132  -22.3692 H   0  0  0  0  0  0  0  0  0  0  0  0
  -19.5282    8.7611  -23.7597 H   0  0  0  0  0  0  0  0  0  0  0  0
  -20.7815    7.2595  -22.2485 H   0  0  0  0  0  0  0  0  0  0  0  0
  -21.8332    8.6324  -21.7630 H   0  0  0  0  0  0  0  0  0  0  0  0
  -20.0814    8.6590  -21.3667 H   0  0  0  0  0  0  0  0  0  0  0  0
  -21.3011    9.1204  -25.4445 H   0  0  0  0  0  0  0  0  0  0  0  0
  -22.5532    8.8706  -24.1811 H   0  0  0  0  0  0  0  0  0  0  0  0
  -21.4658    7.5191  -24.6476 H   0  0  0  0  0  0  0  0  0  0  0  0
  -21.0203   13.2232  -25.9225 H   0  0  0  0  0  0  0  0  0  0  0  0
  -20.8967   15.5531  -25.8703 H   0  0  0  0  0  0  0  0  0  0  0  0
  -22.2964   16.4646  -24.0303 H   0  0  0  0  0  0  0  0  0  0  0  0
  -22.1958   14.8845  -23.1819 H   0  0  0  0  0  0  0  0  0  0  0  0
  -23.0293   15.0004  -24.7689 H   0  0  0  0  0  0  0  0  0  0  0  0
  -17.7595   15.8929  -24.0416 H   0  0  0  0  0  0  0  0  0  0  0  0
  -18.3992   15.0190  -25.3934 H   0  0  0  0  0  0  0  0  0  0  0  0
  1 59  1  0  0  0  0
  1 60  1  0  0  0  0
  1 61  1  0  0  0  0
  2  1  1  0  0  0  0
  2  5  1  0  0  0  0
  2 62  1  6  0  0  0
  3  2  1  0  0  0  0
  3  4  2  0  0  0  0
  5 63  1  0  0  0  0
  5 64  1  0  0  0  0
  5 65  1  0  0  0  0
  6  3  1  0  0  0  0
  6 12  1  0  0  0  0
  7  6  1  0  0  0  0
  7 10  1  0  0  0  0
  7 66  1  6  0  0  0
  8  7  1  0  0  0  0
  8  9  2  0  0  0  0
 10 11  1  0  0  0  0
 10 67  1  0  0  0  0
 10 68  1  0  0  0  0
 11 12  1  0  0  0  0
 11 69  1  0  0  0  0
 11 70  1  0  0  0  0
 12 71  1  0  0  0  0
 12 72  1  0  0  0  0
 13  8  1  0  0  0  0
 13 73  1  0  0  0  0
 14 13  1  0  0  0  0
 14 17  1  0  0  0  0
 14 74  1  1  0  0  0
 15 14  1  0  0  0  0
 15 16  2  0  0  0  0
 17 18  1  0  0  0  0
 17 75  1  0  0  0  0
 17 76  1  0  0  0  0
 18 19  1  0  0  0  0
 18 77  1  0  0  0  0
 18 78  1  0  0  0  0
 19 20  1  0  0  0  0
 19 79  1  0  0  0  0
 19 80  1  0  0  0  0
 20 21  1  0  0  0  0
 20 81  1  0  0  0  0
 21 22  1  0  0  0  0
 21 23  1  0  0  0  0
 22 82  1  0  0  0  0
 22 83  1  0  0  0  0
 23 84  1  0  0  0  0
 23 85  1  0  0  0  0
 25 24  2  0  0  0  0
 25 26  1  0  0  0  0
 26 86  1  0  0  0  0
 26 87  1  0  0  0  0
 26 88  1  0  0  0  0
 27 25  1  0  0  0  0
 27 89  1  0  0  0  0
 28 27  1  0  0  0  0
 28 90  1  0  0  0  0
 28 91  1  0  0  0  0
 29 28  1  0  0  0  0
 29 92  1  0  0  0  0
 29 93  1  0  0  0  0
 30 29  1  0  0  0  0
 30 94  1  0  0  0  0
 30 95  1  0  0  0  0
 31 30  1  0  0  0  0
 31 96  1  0  0  0  0
 31 97  1  0  0  0  0
 32 31  1  0  0  0  0
 32 33  1  0  0  0  0
 32 34  1  0  0  0  0
 32 98  1  6  0  0  0
 33 15  1  0  0  0  0
 33 99  1  0  0  0  0
 34 35  2  0  0  0  0
 34 36  1  0  0  0  0
 36 37  1  0  0  0  0
 36100  1  0  0  0  0
 37 38  1  0  0  0  0
 37 40  1  0  0  0  0
 37101  1  1  0  0  0
 38 39  2  0  0  0  0
 38 45  1  0  0  0  0
 40 41  1  0  0  0  0
 40102  1  0  0  0  0
 40103  1  0  0  0  0
 41 42  1  0  0  0  0
 41104  1  0  0  0  0
 41105  1  0  0  0  0
 42 43  2  0  0  0  0
 42 44  1  0  0  0  0
 44106  1  0  0  0  0
 44107  1  0  0  0  0
 45 46  1  0  0  0  0
 45108  1  0  0  0  0
 46 47  1  0  0  0  0
 46 49  1  0  0  0  0
 46109  1  6  0  0  0
 47 48  2  0  0  0  0
 47 53  1  0  0  0  0
 49 50  1  0  0  0  0
 49110  1  0  0  0  0
 49111  1  0  0  0  0
 50 51  1  0  0  0  0
 50 52  1  0  0  0  0
 50112  1  0  0  0  0
 51113  1  0  0  0  0
 51114  1  0  0  0  0
 51115  1  0  0  0  0
 52116  1  0  0  0  0
 52117  1  0  0  0  0
 52118  1  0  0  0  0
 53 54  1  0  0  0  0
 53119  1  0  0  0  0
 54 55  1  0  0  0  0
 54 57  1  0  0  0  0
 54120  1  6  0  0  0
 55 56  2  0  0  0  0
 55 58  1  0  0  0  0
 57121  1  0  0  0  0
 57122  1  0  0  0  0
 57123  1  0  0  0  0
 58124  1  0  0  0  0
 58125  1  0  0  0  0
M  CHG  1   1   1
M  END
