2wqb_ligand
 OpenBabel08222323343D

 50 54  0  0  0  0  0  0  0  0999 V2000
   33.1710   42.4900   34.6710 C   0  0  0  0  0  0  0  0  0  0  0  0
   34.5110   42.7900   34.6760 C   0  0  0  0  0  0  0  0  0  0  0  0
   32.7440   41.2340   35.0320 C   0  0  0  0  0  0  0  0  0  0  0  0
   35.4390   41.8280   35.0530 C   0  0  0  0  0  0  0  0  0  0  0  0
   33.6570   40.2670   35.4100 C   0  0  0  0  0  0  0  0  0  0  0  0
   39.9340   44.6280   38.6820 C   0  0  0  0  0  0  0  0  0  0  0  0
   36.8400   37.5910   36.0250 C   0  0  0  0  0  0  0  0  0  0  0  0
   35.0190   40.5520   35.4270 C   0  0  0  0  0  0  0  0  0  0  0  0
   37.9490   42.8740   38.2050 C   0  0  0  0  0  0  0  0  0  0  0  0
   36.0050   39.5310   35.8530 C   0  0  0  0  0  0  0  0  0  0  0  0
   37.1460   39.6760   36.5800 C   0  0  0  0  0  0  0  0  0  0  0  0
   37.6820   44.1050   38.8950 C   0  0  0  0  0  0  0  0  0  0  0  0
   39.2540   42.6780   37.8100 C   0  0  0  0  0  0  0  0  0  0  0  0
   37.7570   40.8770   37.1690 C   0  0  0  0  0  0  0  0  0  0  0  0
   38.4270   37.3010   41.5580 C   0  0  0  0  0  0  0  0  0  0  0  0
   39.7630   37.0380   40.9070 C   0  0  0  0  0  0  0  0  0  0  0  0
   37.2910   37.0000   40.6280 C   0  0  0  0  0  0  0  0  0  0  0  0
   39.8590   37.7820   39.5990 C   0  0  0  0  0  0  0  0  0  0  0  0
   37.4570   37.7670   39.3370 C   0  0  0  0  0  0  0  0  0  0  0  0
   38.7410   37.3700   38.6820 C   0  0  0  0  0  0  0  0  0  0  0  0
   38.9070   37.9740   37.3360 C   0  0  0  0  0  0  0  0  0  0  0  0
   38.7140   44.9690   39.1170 N   0  0  0  0  0  0  0  0  0  0  0  0
   40.2640   43.5060   38.0260 N   0  0  0  0  0  0  0  0  0  0  0  0
   35.8190   38.1980   35.5130 N   0  0  0  0  0  0  0  0  0  0  0  0
   37.1090   41.8160   37.8160 N   0  0  0  0  0  0  0  0  0  0  0  0
   37.6780   38.4040   36.6840 N   0  0  0  0  0  0  0  0  0  0  0  0
   36.4830   44.4680   39.3400 N   0  0  0  0  0  0  0  0  0  0  0  0
   39.4560   41.1800   36.9720 S   0  0  0  0  0  0  0  0  0  0  0  0
   32.4486   43.2448   34.3819 H   0  0  0  0  0  0  0  0  0  0  0  0
   34.8450   43.7794   34.3852 H   0  0  0  0  0  0  0  0  0  0  0  0
   31.6855   41.0005   35.0202 H   0  0  0  0  0  0  0  0  0  0  0  0
   36.4956   42.0704   35.0565 H   0  0  0  0  0  0  0  0  0  0  0  0
   33.3097   39.2805   35.6950 H   0  0  0  0  0  0  0  0  0  0  0  0
   40.7358   45.3301   38.8803 H   0  0  0  0  0  0  0  0  0  0  0  0
   37.0038   36.5186   35.9296 H   0  0  0  0  0  0  0  0  0  0  0  0
   38.3759   38.3595   41.8530 H   0  0  0  0  0  0  0  0  0  0  0  0
   38.3343   36.6664   42.4517 H   0  0  0  0  0  0  0  0  0  0  0  0
   39.8705   35.9593   40.7204 H   0  0  0  0  0  0  0  0  0  0  0  0
   40.5669   37.3761   41.5774 H   0  0  0  0  0  0  0  0  0  0  0  0
   36.3437   37.2919   41.1049 H   0  0  0  0  0  0  0  0  0  0  0  0
   37.2751   35.9218   40.4107 H   0  0  0  0  0  0  0  0  0  0  0  0
   40.8231   37.5535   39.1213 H   0  0  0  0  0  0  0  0  0  0  0  0
   39.7917   38.8631   39.7905 H   0  0  0  0  0  0  0  0  0  0  0  0
   37.4731   38.8458   39.5511 H   0  0  0  0  0  0  0  0  0  0  0  0
   36.6168   37.5391   38.6646 H   0  0  0  0  0  0  0  0  0  0  0  0
   38.7552   36.2761   38.5677 H   0  0  0  0  0  0  0  0  0  0  0  0
   39.3911   37.2287   36.6878 H   0  0  0  0  0  0  0  0  0  0  0  0
   39.5615   38.8522   37.4374 H   0  0  0  0  0  0  0  0  0  0  0  0
   36.3653   45.3676   39.8276 H   0  0  0  0  0  0  0  0  0  0  0  0
   35.6718   43.8496   39.1972 H   0  0  0  0  0  0  0  0  0  0  0  0
  1 29  1  0  0  0  0
  2  1  2  0  0  0  0
  2 30  1  0  0  0  0
  3  1  1  0  0  0  0
  3 31  1  0  0  0  0
  4  2  1  0  0  0  0
  4 32  1  0  0  0  0
  5  3  2  0  0  0  0
  5 33  1  0  0  0  0
  6 22  2  0  0  0  0
  6 34  1  0  0  0  0
  7 24  2  0  0  0  0
  7 35  1  0  0  0  0
  8  4  2  0  0  0  0
  8  5  1  0  0  0  0
  9 12  2  0  0  0  0
 10  8  1  0  0  0  0
 10 24  1  0  0  0  0
 11 10  2  0  0  0  0
 11 14  1  0  0  0  0
 12 22  1  0  0  0  0
 12 27  1  0  0  0  0
 13  9  1  0  0  0  0
 13 23  2  0  0  0  0
 14 25  2  0  0  0  0
 14 28  1  0  0  0  0
 15 36  1  0  0  0  0
 15 37  1  0  0  0  0
 16 15  1  0  0  0  0
 16 38  1  0  0  0  0
 16 39  1  0  0  0  0
 17 15  1  0  0  0  0
 17 40  1  0  0  0  0
 17 41  1  0  0  0  0
 18 16  1  0  0  0  0
 18 42  1  0  0  0  0
 18 43  1  0  0  0  0
 19 17  1  0  0  0  0
 19 44  1  0  0  0  0
 19 45  1  0  0  0  0
 20 18  1  0  0  0  0
 20 19  1  0  0  0  0
 20 46  1  0  0  0  0
 21 20  1  0  0  0  0
 21 26  1  0  0  0  0
 21 47  1  0  0  0  0
 21 48  1  0  0  0  0
 23  6  1  0  0  0  0
 25  9  1  0  0  0  0
 26  7  1  0  0  0  0
 26 11  1  0  0  0  0
 27 49  1  0  0  0  0
 27 50  1  0  0  0  0
 28 13  1  0  0  0  0
M  END
