2wtc_ligand
 OpenBabel08222323343D

 42 44  0  0  0  0  0  0  0  0999 V2000
   -4.9630   50.0070   13.9560 C   0  0  0  0  0  0  0  0  0  0  0  0
   -5.7340   50.8490   13.0880 O   0  0  0  0  0  0  0  0  0  0  0  0
   -6.0490   50.4290   11.7420 C   0  0  0  0  0  0  0  0  0  0  0  0
   -7.4640   50.2720   11.2890 C   0  0  0  0  0  0  0  0  0  0  0  0
   -7.7480   49.8560    9.9510 C   0  0  0  0  0  0  0  0  0  0  0  0
   -9.1060   49.6620    9.5370 C   0  0  0  0  0  0  0  0  0  0  0  0
  -10.1580   49.8930   10.4530 C   0  0  0  0  0  0  0  0  0  0  0  0
  -11.5760   49.6160   10.0860 N   0  0  0  0  0  0  0  0  0  0  0  0
  -11.9050   49.1200    8.7710 C   0  0  0  0  0  0  0  0  0  0  0  0
  -13.2780   48.8780    8.4420 N   0  0  0  0  0  0  0  0  0  0  0  0
  -10.8480   48.8920    7.8210 C   0  0  0  0  0  0  0  0  0  0  0  0
  -11.1510   48.3710    6.5270 C   0  0  0  0  0  0  0  0  0  0  0  0
  -10.2580   47.3310    5.9770 C   0  0  0  0  0  0  0  0  0  0  0  0
  -10.5020   46.7630    4.6310 C   0  0  0  0  0  0  0  0  0  0  0  0
  -11.6340   47.2270    3.8300 C   0  0  0  0  0  0  0  0  0  0  0  0
  -11.8390   46.6160    2.4000 C   0  0  0  0  0  0  0  0  0  0  0  0
  -10.7310   45.9540    1.7730 N   0  0  0  0  0  0  0  0  0  0  0  0
  -12.8080   46.8330    1.7360 O   0  0  0  0  0  0  0  0  0  0  0  0
  -12.5340   48.2730    4.3860 C   0  0  0  0  0  0  0  0  0  0  0  0
  -12.2960   48.8450    5.7310 C   0  0  0  0  0  0  0  0  0  0  0  0
   -9.4440   49.1470    8.1940 C   0  0  0  0  0  0  0  0  0  0  0  0
   -6.6500   49.5470    9.0450 C   0  0  0  0  0  0  0  0  0  0  0  0
   -5.2390   49.7010    9.4990 C   0  0  0  0  0  0  0  0  0  0  0  0
   -4.9590   50.1390   10.8280 C   0  0  0  0  0  0  0  0  0  0  0  0
   -3.6290   50.3160   11.2620 O   0  0  0  0  0  0  0  0  0  0  0  0
   -4.8339   50.5037   14.9289 H   0  0  0  0  0  0  0  0  0  0  0  0
   -3.9769   49.8210   13.5055 H   0  0  0  0  0  0  0  0  0  0  0  0
   -5.4869   49.0505   14.0994 H   0  0  0  0  0  0  0  0  0  0  0  0
   -8.2774   50.4740   11.9765 H   0  0  0  0  0  0  0  0  0  0  0  0
   -9.9293   50.2785   11.4400 H   0  0  0  0  0  0  0  0  0  0  0  0
  -13.5291   48.5241    7.5079 H   0  0  0  0  0  0  0  0  0  0  0  0
  -14.0142   49.0579    9.1396 H   0  0  0  0  0  0  0  0  0  0  0  0
   -9.4166   46.9803    6.5636 H   0  0  0  0  0  0  0  0  0  0  0  0
   -9.8390   46.0006    4.2383 H   0  0  0  0  0  0  0  0  0  0  0  0
  -10.8368   45.5564    0.8616 H   0  0  0  0  0  0  0  0  0  0  0  0
   -9.8530   45.8903    2.2475 H   0  0  0  0  0  0  0  0  0  0  0  0
  -13.3757   48.6213    3.7984 H   0  0  0  0  0  0  0  0  0  0  0  0
  -12.9589   49.6061    6.1264 H   0  0  0  0  0  0  0  0  0  0  0  0
   -8.6538   48.9551    7.4772 H   0  0  0  0  0  0  0  0  0  0  0  0
   -6.8598   49.2042    8.0382 H   0  0  0  0  0  0  0  0  0  0  0  0
   -4.4243   49.4800    8.8189 H   0  0  0  0  0  0  0  0  0  0  0  0
   -3.6283   50.6087   12.1658 H   0  0  0  0  0  0  0  0  0  0  0  0
  1  2  1  0  0  0  0
  1 26  1  0  0  0  0
  1 27  1  0  0  0  0
  1 28  1  0  0  0  0
  2  3  1  0  0  0  0
  3  4  2  0  0  0  0
  3 24  1  0  0  0  0
  4  5  1  0  0  0  0
  4 29  1  0  0  0  0
  5  6  1  0  0  0  0
  5 22  2  0  0  0  0
  6  7  2  0  0  0  0
  6 21  1  0  0  0  0
  7  8  1  0  0  0  0
  7 30  1  0  0  0  0
  8  9  2  0  0  0  0
  9 10  1  0  0  0  0
  9 11  1  0  0  0  0
 10 31  1  0  0  0  0
 10 32  1  0  0  0  0
 11 12  1  0  0  0  0
 11 21  2  0  0  0  0
 12 13  2  0  0  0  0
 12 20  1  0  0  0  0
 13 14  1  0  0  0  0
 13 33  1  0  0  0  0
 14 15  2  0  0  0  0
 14 34  1  0  0  0  0
 15 16  1  0  0  0  0
 15 19  1  0  0  0  0
 16 17  1  0  0  0  0
 16 18  2  0  0  0  0
 17 35  1  0  0  0  0
 17 36  1  0  0  0  0
 19 20  2  0  0  0  0
 19 37  1  0  0  0  0
 20 38  1  0  0  0  0
 21 39  1  0  0  0  0
 22 23  1  0  0  0  0
 22 40  1  0  0  0  0
 23 24  2  0  0  0  0
 23 41  1  0  0  0  0
 24 25  1  0  0  0  0
 25 42  1  0  0  0  0
M  END
