2ww2_ligand
 OpenBabel08222323343D

 28 29  0  0  1  0  0  0  0  0999 V2000
  -25.3520  -30.6910   88.4460 C   0  0  1  0  0  0  0  0  0  0  0  0
  -25.7860  -31.8930   87.7980 O   0  0  0  0  0  0  0  0  0  0  0  0
  -26.1290  -29.5160   87.8660 C   0  0  1  0  0  0  0  0  0  0  0  0
  -25.7080  -28.2800   88.5330 N   0  3  2  0  0  0  0  0  0  0  0  0
  -26.1110  -28.3050   89.9520 C   0  0  0  0  0  0  0  0  0  0  0  0
  -25.3210  -29.4160   90.6620 C   0  0  0  0  0  0  0  0  0  0  0  0
  -25.5510  -30.7750   89.9740 C   0  0  0  0  0  0  0  0  0  0  0  0
  -26.3940  -27.2500   87.7290 C   0  0  0  0  0  0  0  0  0  0  0  0
  -26.2730  -27.7790   86.2790 C   0  0  1  0  0  0  0  0  0  0  0  0
  -25.3690  -26.9640   85.5080 O   0  0  0  0  0  0  0  0  0  0  0  0
  -25.7280  -29.2110   86.4290 C   0  0  1  0  0  0  0  0  0  0  0  0
  -24.2960  -29.2270   86.3090 O   0  0  0  0  0  0  0  0  0  0  0  0
  -24.2808  -30.5455   88.2427 H   0  0  0  0  0  0  0  0  0  0  0  0
  -25.6213  -31.8255   86.8648 H   0  0  0  0  0  0  0  0  0  0  0  0
  -27.2103  -29.6954   87.9586 H   0  0  0  0  0  0  0  0  0  0  0  0
  -24.7087  -28.1588   88.4808 H   0  0  0  0  0  0  0  0  0  0  0  0
  -27.1892  -28.5092   90.0283 H   0  0  0  0  0  0  0  0  0  0  0  0
  -25.8877  -27.3343   90.4187 H   0  0  0  0  0  0  0  0  0  0  0  0
  -25.6518  -29.4812   91.7091 H   0  0  0  0  0  0  0  0  0  0  0  0
  -24.2487  -29.1727   90.6306 H   0  0  0  0  0  0  0  0  0  0  0  0
  -24.8392  -31.5060   90.3851 H   0  0  0  0  0  0  0  0  0  0  0  0
  -26.5789  -31.1079   90.1804 H   0  0  0  0  0  0  0  0  0  0  0  0
  -25.8968  -26.2744   87.8338 H   0  0  0  0  0  0  0  0  0  0  0  0
  -27.4490  -27.1577   88.0265 H   0  0  0  0  0  0  0  0  0  0  0  0
  -27.2582  -27.7910   85.7899 H   0  0  0  0  0  0  0  0  0  0  0  0
  -24.5091  -26.9782   85.9116 H   0  0  0  0  0  0  0  0  0  0  0  0
  -26.1820  -29.9075   85.7087 H   0  0  0  0  0  0  0  0  0  0  0  0
  -23.9164  -28.6815   86.9878 H   0  0  0  0  0  0  0  0  0  0  0  0
  1  2  1  0  0  0  0
  1  3  1  0  0  0  0
  1  7  1  0  0  0  0
  1 13  1  6  0  0  0
  2 14  1  0  0  0  0
  3  4  1  0  0  0  0
  3 11  1  0  0  0  0
  3 15  1  1  0  0  0
  4  5  1  0  0  0  0
  4  8  1  0  0  0  0
  4 16  1  6  0  0  0
  5  6  1  0  0  0  0
  5 17  1  0  0  0  0
  5 18  1  0  0  0  0
  6  7  1  0  0  0  0
  6 19  1  0  0  0  0
  6 20  1  0  0  0  0
  7 21  1  0  0  0  0
  7 22  1  0  0  0  0
  8  9  1  0  0  0  0
  8 23  1  0  0  0  0
  8 24  1  0  0  0  0
  9 10  1  0  0  0  0
  9 11  1  0  0  0  0
  9 25  1  6  0  0  0
 10 26  1  0  0  0  0
 11 12  1  0  0  0  0
 11 27  1  6  0  0  0
 12 28  1  0  0  0  0
M  CHG  1   4   1
M  END
