2x2i_ligand
 OpenBabel08222323343D

 88 91  0  0  1  0  0  0  0  0999 V2000
   24.9240    1.6930   65.9570 C   0  0  2  0  0  0  0  0  0  0  0  0
   25.9790    0.5910   65.9420 C   0  0  1  0  0  0  0  0  0  0  0  0
   26.0680   -0.1140   64.6020 C   0  0  2  0  0  0  0  0  0  0  0  0
   24.7240   -0.7420   64.2270 C   0  0  1  0  0  0  0  0  0  0  0  0
   23.5460    0.1240   64.5520 C   0  0  0  0  0  0  0  0  0  0  0  0
   22.2020   -0.2470   63.9790 C   0  0  0  0  0  0  0  0  0  0  0  0
   23.6390    1.2110   65.3250 C   0  0  0  0  0  0  0  0  0  0  0  0
   27.2630    1.0790   66.3560 O   0  0  0  0  0  0  0  0  0  0  0  0
   26.9730   -1.1900   64.8180 O   0  0  0  0  0  0  0  0  0  0  0  0
   24.6960   -1.0010   62.8270 O   0  0  0  0  0  0  0  0  0  0  0  0
   21.5800   -1.2120   64.8300 O   0  0  0  0  0  0  0  0  0  0  0  0
   23.1740    6.5900   65.4520 C   0  0  2  0  0  0  0  0  0  0  0  0
   23.5940    5.9140   66.7620 C   0  0  1  0  0  0  0  0  0  0  0  0
   24.7910    5.0060   66.5300 C   0  0  2  0  0  0  0  0  0  0  0  0
   24.3750    4.0010   65.4740 C   0  0  1  0  0  0  0  0  0  0  0  0
   23.9670    4.7360   64.1960 C   0  0  1  0  0  0  0  0  0  0  0  0
   23.5730    3.8080   63.0670 C   0  0  0  0  0  0  0  0  0  0  0  0
   25.3570    2.9330   65.3450 N   0  3  0  0  0  0  0  0  0  0  0  0
   23.9210    6.8600   67.7800 O   0  0  0  0  0  0  0  0  0  0  0  0
   25.1050    4.3240   67.7390 O   0  0  0  0  0  0  0  0  0  0  0  0
   22.8350    5.5430   64.5380 O   0  0  0  0  0  0  0  0  0  0  0  0
   24.5080   11.3120   63.2590 C   0  0  2  0  0  0  0  0  0  0  0  0
   24.5190   11.1600   64.7660 C   0  0  1  0  0  0  0  0  0  0  0  0
   24.8270    9.7260   65.1980 C   0  0  2  0  0  0  0  0  0  0  0  0
   23.9010    8.7390   64.4990 C   0  0  1  0  0  0  0  0  0  0  0  0
   23.9670    8.9930   62.9840 C   0  0  1  0  0  0  0  0  0  0  0  0
   23.0670    8.0570   62.1720 C   0  0  0  0  0  0  0  0  0  0  0  0
   25.5420   12.0240   65.2540 O   0  0  0  0  0  0  0  0  0  0  0  0
   24.6620    9.5680   66.6130 O   0  0  0  0  0  0  0  0  0  0  0  0
   24.2480    7.3910   64.8980 O   0  0  0  0  0  0  0  0  0  0  0  0
   23.6270   10.3590   62.6890 O   0  0  0  0  0  0  0  0  0  0  0  0
   23.4160    8.1940   60.7850 O   0  0  0  0  0  0  0  0  0  0  0  0
   28.7270   12.9720   60.6790 C   0  0  2  0  0  0  0  0  0  0  0  0
   27.8880   13.9550   61.4810 C   0  0  1  0  0  0  0  0  0  0  0  0
   27.0650   13.1460   62.4860 C   0  0  2  0  0  0  0  0  0  0  0  0
   26.3100   11.9860   61.8240 C   0  0  1  0  0  0  0  0  0  0  0  0
   27.2640   11.2300   60.9040 C   0  0  1  0  0  0  0  0  0  0  0  0
   26.6490   10.0630   60.1490 C   0  0  0  0  0  0  0  0  0  0  0  0
   29.6640   13.6030   59.7870 O   0  0  0  0  0  0  0  0  0  0  0  0
   28.7500   14.8770   62.1570 O   0  0  0  0  0  0  0  0  0  0  0  0
   26.1490   13.9960   63.1780 O   0  0  0  0  0  0  0  0  0  0  0  0
   25.8340   11.0620   62.8090 O   0  0  0  0  0  0  0  0  0  0  0  0
   27.7960   12.1550   59.9730 O   0  0  0  0  0  0  0  0  0  0  0  0
   27.6550    9.4970   59.2820 O   0  0  0  0  0  0  0  0  0  0  0  0
   24.7108    1.9156   67.0129 H   0  0  0  0  0  0  0  0  0  0  0  0
   25.6647   -0.1614   66.6803 H   0  0  0  0  0  0  0  0  0  0  0  0
   26.4162    0.5693   63.8134 H   0  0  0  0  0  0  0  0  0  0  0  0
   24.6230   -1.6901   64.7756 H   0  0  0  0  0  0  0  0  0  0  0  0
   22.3354   -0.6740   62.9741 H   0  0  0  0  0  0  0  0  0  0  0  0
   21.5686    0.6501   63.9152 H   0  0  0  0  0  0  0  0  0  0  0  0
   22.7321    1.7846   65.5106 H   0  0  0  0  0  0  0  0  0  0  0  0
   27.5902    1.6939   65.7100 H   0  0  0  0  0  0  0  0  0  0  0  0
   27.8251   -0.8430   65.0545 H   0  0  0  0  0  0  0  0  0  0  0  0
   23.8865   -1.4456   62.6045 H   0  0  0  0  0  0  0  0  0  0  0  0
   21.4666   -0.8414   65.6973 H   0  0  0  0  0  0  0  0  0  0  0  0
   22.2998    7.2333   65.6305 H   0  0  0  0  0  0  0  0  0  0  0  0
   22.7506    5.3028   67.1157 H   0  0  0  0  0  0  0  0  0  0  0  0
   25.6595    5.5886   66.1889 H   0  0  0  0  0  0  0  0  0  0  0  0
   23.4601    3.5128   65.8409 H   0  0  0  0  0  0  0  0  0  0  0  0
   24.8003    5.3707   63.8603 H   0  0  0  0  0  0  0  0  0  0  0  0
   23.2932    4.4023   62.1847 H   0  0  0  0  0  0  0  0  0  0  0  0
   22.7174    3.1918   63.3804 H   0  0  0  0  0  0  0  0  0  0  0  0
   24.4221    3.1556   62.8153 H   0  0  0  0  0  0  0  0  0  0  0  0
   25.5247    2.7668   64.3651 H   0  0  0  0  0  0  0  0  0  0  0  0
   26.2134    3.2282   65.7872 H   0  0  0  0  0  0  0  0  0  0  0  0
   24.1350    6.3987   68.5825 H   0  0  0  0  0  0  0  0  0  0  0  0
   25.3654    4.9556   68.3992 H   0  0  0  0  0  0  0  0  0  0  0  0
   24.1924   12.3277   62.9784 H   0  0  0  0  0  0  0  0  0  0  0  0
   23.5421   11.4578   65.1747 H   0  0  0  0  0  0  0  0  0  0  0  0
   25.8685    9.4955   64.9294 H   0  0  0  0  0  0  0  0  0  0  0  0
   22.8681    8.9281   64.8267 H   0  0  0  0  0  0  0  0  0  0  0  0
   25.0051    8.8192   62.6643 H   0  0  0  0  0  0  0  0  0  0  0  0
   22.0124    8.3326   62.3200 H   0  0  0  0  0  0  0  0  0  0  0  0
   23.2230    7.0170   62.4947 H   0  0  0  0  0  0  0  0  0  0  0  0
   25.3548   12.9165   64.9879 H   0  0  0  0  0  0  0  0  0  0  0  0
   24.8859    8.6782   66.8594 H   0  0  0  0  0  0  0  0  0  0  0  0
   22.8674    7.6200   60.2634 H   0  0  0  0  0  0  0  0  0  0  0  0
   29.3017   12.3453   61.3768 H   0  0  0  0  0  0  0  0  0  0  0  0
   27.2150   14.5096   60.8106 H   0  0  0  0  0  0  0  0  0  0  0  0
   27.7609   12.7181   63.2226 H   0  0  0  0  0  0  0  0  0  0  0  0
   25.4623   12.3827   61.2460 H   0  0  0  0  0  0  0  0  0  0  0  0
   28.0822   10.8317   61.5219 H   0  0  0  0  0  0  0  0  0  0  0  0
   25.7981   10.4168   59.5484 H   0  0  0  0  0  0  0  0  0  0  0  0
   26.3026    9.3007   60.8624 H   0  0  0  0  0  0  0  0  0  0  0  0
   30.2672   14.1378   60.2897 H   0  0  0  0  0  0  0  0  0  0  0  0
   29.2510   15.3682   61.5166 H   0  0  0  0  0  0  0  0  0  0  0  0
   25.6974   13.4950   63.8469 H   0  0  0  0  0  0  0  0  0  0  0  0
   27.9526   10.1594   58.6695 H   0  0  0  0  0  0  0  0  0  0  0  0
  1  2  1  0  0  0  0
  1  7  1  0  0  0  0
  1 45  1  1  0  0  0
  2  3  1  0  0  0  0
  2  8  1  0  0  0  0
  2 46  1  1  0  0  0
  3  4  1  0  0  0  0
  3  9  1  0  0  0  0
  3 47  1  6  0  0  0
  4 10  1  0  0  0  0
  4 48  1  1  0  0  0
  5  4  1  0  0  0  0
  5  6  1  0  0  0  0
  6 11  1  0  0  0  0
  6 49  1  0  0  0  0
  6 50  1  0  0  0  0
  7  5  2  0  0  0  0
  7 51  1  0  0  0  0
  8 52  1  0  0  0  0
  9 53  1  0  0  0  0
 10 54  1  0  0  0  0
 11 55  1  0  0  0  0
 12 13  1  0  0  0  0
 12 21  1  0  0  0  0
 12 56  1  1  0  0  0
 13 14  1  0  0  0  0
 13 19  1  0  0  0  0
 13 57  1  1  0  0  0
 14 15  1  0  0  0  0
 14 20  1  0  0  0  0
 14 58  1  6  0  0  0
 15 18  1  0  0  0  0
 15 59  1  1  0  0  0
 16 15  1  0  0  0  0
 16 17  1  0  0  0  0
 16 60  1  6  0  0  0
 17 61  1  0  0  0  0
 17 62  1  0  0  0  0
 17 63  1  0  0  0  0
 18  1  1  0  0  0  0
 18 64  1  0  0  0  0
 18 65  1  0  0  0  0
 19 66  1  0  0  0  0
 20 67  1  0  0  0  0
 21 16  1  0  0  0  0
 22 23  1  0  0  0  0
 22 31  1  0  0  0  0
 22 68  1  6  0  0  0
 23 24  1  0  0  0  0
 23 28  1  0  0  0  0
 23 69  1  1  0  0  0
 24 25  1  0  0  0  0
 24 29  1  0  0  0  0
 24 70  1  6  0  0  0
 25 30  1  0  0  0  0
 25 71  1  1  0  0  0
 26 25  1  0  0  0  0
 26 27  1  0  0  0  0
 26 72  1  6  0  0  0
 27 32  1  0  0  0  0
 27 73  1  0  0  0  0
 27 74  1  0  0  0  0
 28 75  1  0  0  0  0
 29 76  1  0  0  0  0
 30 12  1  0  0  0  0
 31 26  1  0  0  0  0
 32 77  1  0  0  0  0
 33 39  1  0  0  0  0
 33 43  1  0  0  0  0
 33 78  1  1  0  0  0
 34 33  1  0  0  0  0
 34 40  1  0  0  0  0
 34 79  1  6  0  0  0
 35 34  1  0  0  0  0
 35 41  1  0  0  0  0
 35 80  1  1  0  0  0
 36 35  1  0  0  0  0
 36 37  1  0  0  0  0
 36 42  1  0  0  0  0
 36 81  1  6  0  0  0
 37 38  1  0  0  0  0
 37 43  1  0  0  0  0
 37 82  1  1  0  0  0
 38 44  1  0  0  0  0
 38 83  1  0  0  0  0
 38 84  1  0  0  0  0
 39 85  1  0  0  0  0
 40 86  1  0  0  0  0
 41 87  1  0  0  0  0
 42 22  1  0  0  0  0
 44 88  1  0  0  0  0
M  CHG  1  18   1
M  END
