2x38_ligand
 OpenBabel08222323343D

 49 53  0  0  0  0  0  0  0  0999 V2000
   -3.0010   -1.7860   23.8780 C   0  0  0  0  0  0  0  0  0  0  0  0
   -3.8720   -3.0510   23.7680 C   0  0  0  0  0  0  0  0  0  0  0  0
   -3.5140   -4.1750   24.5140 C   0  0  0  0  0  0  0  0  0  0  0  0
   -4.2960   -5.3330   24.4490 C   0  0  0  0  0  0  0  0  0  0  0  0
   -5.4300   -5.3810   23.6320 C   0  0  0  0  0  0  0  0  0  0  0  0
   -5.7890   -4.2660   22.8820 C   0  0  0  0  0  0  0  0  0  0  0  0
   -5.0150   -3.1000   22.9630 C   0  0  0  0  0  0  0  0  0  0  0  0
   -5.4420   -2.0210   22.1710 N   0  0  0  0  0  0  0  0  0  0  0  0
   -4.9080   -1.8500   20.8650 C   0  0  0  0  0  0  0  0  0  0  0  0
   -4.0480   -2.6120   20.4640 O   0  0  0  0  0  0  0  0  0  0  0  0
   -5.3280   -0.8080   20.0480 C   0  0  0  0  0  0  0  0  0  0  0  0
   -4.8110   -0.5850   18.7490 C   0  0  0  0  0  0  0  0  0  0  0  0
   -3.7190   -1.4610   18.0980 C   0  0  0  0  0  0  0  0  0  0  0  0
   -5.2970    0.4850   18.0000 C   0  0  0  0  0  0  0  0  0  0  0  0
   -6.2830    1.3100   18.5130 C   0  0  0  0  0  0  0  0  0  0  0  0
   -6.8010    1.0900   19.7920 C   0  0  0  0  0  0  0  0  0  0  0  0
   -6.3180    0.0300   20.5690 C   0  0  0  0  0  0  0  0  0  0  0  0
   -6.8210   -0.1710   21.8020 N   0  0  0  0  0  0  0  0  0  0  0  0
   -6.4410   -1.1600   22.6090 C   0  0  0  0  0  0  0  0  0  0  0  0
   -7.0830   -1.3080   24.0190 C   0  0  0  0  0  0  0  0  0  0  0  0
   -7.4530    0.0430   24.4880 N   0  0  0  0  0  0  0  0  0  0  0  0
   -8.6750    0.6050   24.3880 C   0  0  0  0  0  0  0  0  0  0  0  0
   -8.5940    1.8480   24.8910 N   0  0  0  0  0  0  0  0  0  0  0  0
   -7.3340    2.0300   25.3100 C   0  0  0  0  0  0  0  0  0  0  0  0
   -6.6040    0.8810   25.0440 C   0  0  0  0  0  0  0  0  0  0  0  0
   -5.3090    0.8030   25.3620 N   0  0  0  0  0  0  0  0  0  0  0  0
   -4.6940    1.8320   25.9330 C   0  0  0  0  0  0  0  0  0  0  0  0
   -5.3710    2.9540   26.2090 N   0  0  0  0  0  0  0  0  0  0  0  0
   -6.6830    3.0820   25.9120 C   0  0  0  0  0  0  0  0  0  0  0  0
   -7.3590    4.2060   26.1890 N   0  0  0  0  0  0  0  0  0  0  0  0
   -2.1614   -1.9773   24.5625 H   0  0  0  0  0  0  0  0  0  0  0  0
   -3.6085   -0.9551   24.2661 H   0  0  0  0  0  0  0  0  0  0  0  0
   -2.6108   -1.5219   22.8840 H   0  0  0  0  0  0  0  0  0  0  0  0
   -2.6313   -4.1506   25.1428 H   0  0  0  0  0  0  0  0  0  0  0  0
   -4.0205   -6.2009   25.0372 H   0  0  0  0  0  0  0  0  0  0  0  0
   -6.0273   -6.2843   23.5834 H   0  0  0  0  0  0  0  0  0  0  0  0
   -6.6613   -4.2984   22.2393 H   0  0  0  0  0  0  0  0  0  0  0  0
   -3.4945   -1.0791   17.0911 H   0  0  0  0  0  0  0  0  0  0  0  0
   -4.0764   -2.4988   18.0253 H   0  0  0  0  0  0  0  0  0  0  0  0
   -2.8080   -1.4292   18.7137 H   0  0  0  0  0  0  0  0  0  0  0  0
   -4.9001    0.6725   17.0088 H   0  0  0  0  0  0  0  0  0  0  0  0
   -6.6569    2.1346   17.9169 H   0  0  0  0  0  0  0  0  0  0  0  0
   -7.5762    1.7394   20.1824 H   0  0  0  0  0  0  0  0  0  0  0  0
   -6.3606   -1.7610   24.7139 H   0  0  0  0  0  0  0  0  0  0  0  0
   -7.9799   -1.9419   23.9577 H   0  0  0  0  0  0  0  0  0  0  0  0
   -9.5664    0.1358   23.9742 H   0  0  0  0  0  0  0  0  0  0  0  0
   -3.6400    1.7636   26.1767 H   0  0  0  0  0  0  0  0  0  0  0  0
   -6.8788    4.9980   26.6396 H   0  0  0  0  0  0  0  0  0  0  0  0
   -8.3586    4.2776   25.9513 H   0  0  0  0  0  0  0  0  0  0  0  0
  1  2  1  0  0  0  0
  1 31  1  0  0  0  0
  1 32  1  0  0  0  0
  1 33  1  0  0  0  0
  2  3  2  0  0  0  0
  2  7  1  0  0  0  0
  3  4  1  0  0  0  0
  3 34  1  0  0  0  0
  4  5  2  0  0  0  0
  4 35  1  0  0  0  0
  5  6  1  0  0  0  0
  5 36  1  0  0  0  0
  6  7  2  0  0  0  0
  6 37  1  0  0  0  0
  7  8  1  0  0  0  0
  8  9  1  0  0  0  0
  8 19  1  0  0  0  0
  9 10  2  0  0  0  0
  9 11  1  0  0  0  0
 11 12  2  0  0  0  0
 11 17  1  0  0  0  0
 12 13  1  0  0  0  0
 12 14  1  0  0  0  0
 13 38  1  0  0  0  0
 13 39  1  0  0  0  0
 13 40  1  0  0  0  0
 14 15  2  0  0  0  0
 14 41  1  0  0  0  0
 15 16  1  0  0  0  0
 15 42  1  0  0  0  0
 16 17  2  0  0  0  0
 16 43  1  0  0  0  0
 17 18  1  0  0  0  0
 18 19  2  0  0  0  0
 19 20  1  0  0  0  0
 20 21  1  0  0  0  0
 20 44  1  0  0  0  0
 20 45  1  0  0  0  0
 21 22  1  0  0  0  0
 21 25  1  0  0  0  0
 22 23  2  0  0  0  0
 22 46  1  0  0  0  0
 23 24  1  0  0  0  0
 24 25  2  0  0  0  0
 24 29  1  0  0  0  0
 25 26  1  0  0  0  0
 26 27  2  0  0  0  0
 27 28  1  0  0  0  0
 27 47  1  0  0  0  0
 28 29  2  0  0  0  0
 29 30  1  0  0  0  0
 30 48  1  0  0  0  0
 30 49  1  0  0  0  0
M  END
