2x4r_ligand
 OpenBabel08222323343D

139139  0  0  1  0  0  0  0  0999 V2000
   22.0490   35.3720   43.8010 N   0  3  0  0  0  0  0  0  0  0  0  0
   23.4520   35.3200   44.2050 C   0  0  2  0  0  0  0  0  0  0  0  0
   24.3820   35.4850   43.0080 C   0  0  0  0  0  0  0  0  0  0  0  0
   24.4680   34.5980   42.1620 O   0  0  0  0  0  0  0  0  0  0  0  0
   23.7500   34.0060   44.9300 C   0  0  0  0  0  0  0  0  0  0  0  0
   25.0270   34.0670   45.7740 C   0  0  0  0  0  0  0  0  0  0  0  0
   25.0360   33.6510   46.9310 O   0  0  0  0  0  0  0  0  0  0  0  0
   26.1060   34.5650   45.1920 N   0  0  0  0  0  0  0  0  0  0  0  0
   25.0730   36.6270   42.9620 N   0  0  0  0  0  0  0  0  0  0  0  0
   25.9790   36.9940   41.8740 C   0  0  2  0  0  0  0  0  0  0  0  0
   27.2800   36.2080   41.8810 C   0  0  0  0  0  0  0  0  0  0  0  0
   27.6990   35.7120   42.9260 O   0  0  0  0  0  0  0  0  0  0  0  0
   26.3570   38.4630   41.9980 C   0  0  0  0  0  0  0  0  0  0  0  0
   25.2680   39.5060   41.8010 C   0  0  0  0  0  0  0  0  0  0  0  0
   25.7220   40.7840   42.4750 C   0  0  0  0  0  0  0  0  0  0  0  0
   25.0080   39.7230   40.3200 C   0  0  0  0  0  0  0  0  0  0  0  0
   27.9290   36.1190   40.7190 N   0  0  0  0  0  0  0  0  0  0  0  0
   29.2800   35.5760   40.6380 C   0  0  2  0  0  0  0  0  0  0  0  0
   30.2360   36.4330   41.5040 C   0  0  0  0  0  0  0  0  0  0  0  0
   30.2050   37.6750   41.4450 O   0  0  0  0  0  0  0  0  0  0  0  0
   29.7600   35.4860   39.1770 C   0  0  0  0  0  0  0  0  0  0  0  0
   30.1150   36.8710   38.6300 C   0  0  0  0  0  0  0  0  0  0  0  0
   30.9450   34.5170   39.0560 C   0  0  0  0  0  0  0  0  0  0  0  0
   31.0710   35.7690   42.3310 N   0  0  0  0  0  0  0  0  0  0  0  0
   31.9310   36.4630   43.3050 C   0  0  2  0  0  0  0  0  0  0  0  0
   33.0810   37.2690   42.7000 C   0  0  0  0  0  0  0  0  0  0  0  0
   33.5040   38.2550   43.2960 O   0  0  0  0  0  0  0  0  0  0  0  0
   32.4870   35.3230   44.1620 C   0  0  0  0  0  0  0  0  0  0  0  0
   31.6570   34.1120   43.8400 C   0  0  0  0  0  0  0  0  0  0  0  0
   31.1790   34.3030   42.4440 C   0  0  0  0  0  0  0  0  0  0  0  0
   33.5700   36.8530   41.5390 N   0  0  0  0  0  0  0  0  0  0  0  0
   34.6770   37.5360   40.8860 C   0  0  2  0  0  0  0  0  0  0  0  0
   34.3600   37.7900   39.4240 C   0  0  0  0  0  0  0  0  0  0  0  0
   33.8710   36.9040   38.7380 O   0  0  0  0  0  0  0  0  0  0  0  0
   35.9630   36.7090   40.9930 C   0  0  0  0  0  0  0  0  0  0  0  0
   36.9880   36.9330   39.8540 C   0  0  0  0  0  0  0  0  0  0  0  0
   37.9280   38.4660   39.9490 S   0  0  0  0  0  0  0  0  0  0  0  0
   38.0640   38.7170   41.7000 C   0  0  0  0  0  0  0  0  0  0  0  0
   34.6570   38.9980   38.9520 N   0  0  0  0  0  0  0  0  0  0  0  0
   34.3890   39.3950   37.5730 C   0  0  2  0  0  0  0  0  0  0  0  0
   35.6570   39.9090   36.8990 C   0  0  0  0  0  0  0  0  0  0  0  0
   36.0690   41.0430   37.1220 O   0  0  0  0  0  0  0  0  0  0  0  0
   33.2860   40.4730   37.5160 C   0  0  0  0  0  0  0  0  0  0  0  0
   33.1950   41.0810   36.1290 C   0  0  0  0  0  0  0  0  0  0  0  0
   31.9540   39.8750   37.9140 C   0  0  0  0  0  0  0  0  0  0  0  0
   36.2780   39.0660   36.0810 N   0  0  0  0  0  0  0  0  0  0  0  0
   37.5200   39.4400   35.4150 C   0  0  2  0  0  0  0  0  0  0  0  0
   37.2810   40.4200   34.2740 C   0  0  0  0  0  0  0  0  0  0  0  0
   36.2200   40.4150   33.6440 O   0  0  0  0  0  0  0  0  0  0  0  0
   38.2640   38.2120   34.9180 C   0  0  0  0  0  0  0  0  0  0  0  0
   38.2940   41.2490   34.0230 N   0  0  0  0  0  0  0  0  0  0  0  0
   38.2600   42.3140   33.0200 C   0  0  2  0  0  0  0  0  0  0  0  0
   38.6080   41.7900   31.6190 C   0  0  0  0  0  0  0  0  0  0  0  0
   39.3520   40.8080   31.4790 O   0  0  0  0  0  0  0  0  0  0  0  0
   39.2200   43.4740   33.4400 C   0  0  2  0  0  0  0  0  0  0  0  0
   38.4820   44.6870   33.6720 O   0  0  0  0  0  0  0  0  0  0  0  0
   40.2640   43.7170   32.3800 C   0  0  0  0  0  0  0  0  0  0  0  0
   38.0490   42.4270   30.5890 N   0  0  0  0  0  0  0  0  0  0  0  0
   38.2740   41.9950   29.2090 C   0  0  2  0  0  0  0  0  0  0  0  0
   39.6280   42.4460   28.6910 C   0  0  0  0  0  0  0  0  0  0  0  0
   40.3360   43.2020   29.3480 O   0  5  0  0  0  0  0  0  0  0  0  0
   37.1810   42.5110   28.2350 C   0  0  0  0  0  0  0  0  0  0  0  0
   35.7980   42.0850   28.7070 C   0  0  0  0  0  0  0  0  0  0  0  0
   37.2740   44.0200   28.0890 C   0  0  0  0  0  0  0  0  0  0  0  0
   40.0350   42.0630   27.6010 O   0  0  0  0  0  0  0  0  0  0  0  0
   21.4614   35.2603   44.6123 H   0  0  0  0  0  0  0  0  0  0  0  0
   21.8605   34.6303   43.1449 H   0  0  0  0  0  0  0  0  0  0  0  0
   21.8570   36.2613   43.3671 H   0  0  0  0  0  0  0  0  0  0  0  0
   23.6389   36.1504   44.9017 H   0  0  0  0  0  0  0  0  0  0  0  0
   23.8627   33.2091   44.1801 H   0  0  0  0  0  0  0  0  0  0  0  0
   22.9032   33.7701   45.5913 H   0  0  0  0  0  0  0  0  0  0  0  0
   26.9650   34.6265   45.7003 H   0  0  0  0  0  0  0  0  0  0  0  0
   26.0625   34.8798   44.2439 H   0  0  0  0  0  0  0  0  0  0  0  0
   24.9641   37.2715   43.7188 H   0  0  0  0  0  0  0  0  0  0  0  0
   25.4621   36.8223   40.9184 H   0  0  0  0  0  0  0  0  0  0  0  0
   27.1384   38.6626   41.2500 H   0  0  0  0  0  0  0  0  0  0  0  0
   26.7694   38.6093   43.0072 H   0  0  0  0  0  0  0  0  0  0  0  0
   24.3384   39.1579   42.2750 H   0  0  0  0  0  0  0  0  0  0  0  0
   24.9516   41.5589   42.3484 H   0  0  0  0  0  0  0  0  0  0  0  0
   26.6632   41.1248   42.0189 H   0  0  0  0  0  0  0  0  0  0  0  0
   25.8809   40.5966   43.5472 H   0  0  0  0  0  0  0  0  0  0  0  0
   24.6809   38.7775   39.8628 H   0  0  0  0  0  0  0  0  0  0  0  0
   25.9322   40.0658   39.8318 H   0  0  0  0  0  0  0  0  0  0  0  0
   24.2227   40.4827   40.1930 H   0  0  0  0  0  0  0  0  0  0  0  0
   27.4782   36.4322   39.8832 H   0  0  0  0  0  0  0  0  0  0  0  0
   29.2661   34.5564   41.0504 H   0  0  0  0  0  0  0  0  0  0  0  0
   28.9330   35.0864   38.5718 H   0  0  0  0  0  0  0  0  0  0  0  0
   30.4539   36.7777   37.5877 H   0  0  0  0  0  0  0  0  0  0  0  0
   30.9187   37.3108   39.2388 H   0  0  0  0  0  0  0  0  0  0  0  0
   29.2276   37.5197   38.6704 H   0  0  0  0  0  0  0  0  0  0  0  0
   30.6571   33.5339   39.4569 H   0  0  0  0  0  0  0  0  0  0  0  0
   31.7995   34.9097   39.6266 H   0  0  0  0  0  0  0  0  0  0  0  0
   31.2272   34.4131   37.9979 H   0  0  0  0  0  0  0  0  0  0  0  0
   31.3188   37.1427   43.9159 H   0  0  0  0  0  0  0  0  0  0  0  0
   32.4001   35.5716   45.2300 H   0  0  0  0  0  0  0  0  0  0  0  0
   33.5425   35.1388   43.9131 H   0  0  0  0  0  0  0  0  0  0  0  0
   30.8033   34.0391   44.5298 H   0  0  0  0  0  0  0  0  0  0  0  0
   32.2670   33.1997   43.9138 H   0  0  0  0  0  0  0  0  0  0  0  0
   31.9032   33.9024   41.7194 H   0  0  0  0  0  0  0  0  0  0  0  0
   30.2021   33.8211   42.2907 H   0  0  0  0  0  0  0  0  0  0  0  0
   33.1675   36.0491   41.1011 H   0  0  0  0  0  0  0  0  0  0  0  0
   34.8355   38.5024   41.3869 H   0  0  0  0  0  0  0  0  0  0  0  0
   35.6841   35.6450   40.9953 H   0  0  0  0  0  0  0  0  0  0  0  0
   36.4520   36.9620   41.9453 H   0  0  0  0  0  0  0  0  0  0  0  0
   36.4408   36.9294   38.8998 H   0  0  0  0  0  0  0  0  0  0  0  0
   37.7017   36.0961   39.8706 H   0  0  0  0  0  0  0  0  0  0  0  0
   38.6288   39.6405   41.8952 H   0  0  0  0  0  0  0  0  0  0  0  0
   38.5892   37.8633   42.1531 H   0  0  0  0  0  0  0  0  0  0  0  0
   37.0583   38.8029   42.1373 H   0  0  0  0  0  0  0  0  0  0  0  0
   35.0816   39.6618   39.5677 H   0  0  0  0  0  0  0  0  0  0  0  0
   34.0378   38.5099   37.0224 H   0  0  0  0  0  0  0  0  0  0  0  0
   33.5402   41.2704   38.2298 H   0  0  0  0  0  0  0  0  0  0  0  0
   32.4034   41.8447   36.1147 H   0  0  0  0  0  0  0  0  0  0  0  0
   32.9581   40.2936   35.3983 H   0  0  0  0  0  0  0  0  0  0  0  0
   34.1574   41.5456   35.8684 H   0  0  0  0  0  0  0  0  0  0  0  0
   32.0342   39.4383   38.9204 H   0  0  0  0  0  0  0  0  0  0  0  0
   31.6747   39.0906   37.1952 H   0  0  0  0  0  0  0  0  0  0  0  0
   31.1849   40.6614   37.9159 H   0  0  0  0  0  0  0  0  0  0  0  0
   35.8870   38.1599   35.9194 H   0  0  0  0  0  0  0  0  0  0  0  0
   38.1571   39.9420   36.1580 H   0  0  0  0  0  0  0  0  0  0  0  0
   39.1947   38.5233   34.4211 H   0  0  0  0  0  0  0  0  0  0  0  0
   37.6320   37.6647   34.2031 H   0  0  0  0  0  0  0  0  0  0  0  0
   38.5041   37.5589   35.7700 H   0  0  0  0  0  0  0  0  0  0  0  0
   39.1329   41.1357   34.5554 H   0  0  0  0  0  0  0  0  0  0  0  0
   37.2358   42.7136   32.9839 H   0  0  0  0  0  0  0  0  0  0  0  0
   39.7262   43.1854   34.3730 H   0  0  0  0  0  0  0  0  0  0  0  0
   38.0276   44.9371   32.8760 H   0  0  0  0  0  0  0  0  0  0  0  0
   40.9259   44.5360   32.6982 H   0  0  0  0  0  0  0  0  0  0  0  0
   39.7709   43.9901   31.4354 H   0  0  0  0  0  0  0  0  0  0  0  0
   40.8571   42.8024   32.2330 H   0  0  0  0  0  0  0  0  0  0  0  0
   37.4627   43.2180   30.7638 H   0  0  0  0  0  0  0  0  0  0  0  0
   38.2493   40.8953   29.1993 H   0  0  0  0  0  0  0  0  0  0  0  0
   37.3584   42.0601   27.2475 H   0  0  0  0  0  0  0  0  0  0  0  0
   35.0392   42.4599   28.0044 H   0  0  0  0  0  0  0  0  0  0  0  0
   35.6080   42.5002   29.7077 H   0  0  0  0  0  0  0  0  0  0  0  0
   35.7472   40.9870   28.7499 H   0  0  0  0  0  0  0  0  0  0  0  0
   38.2831   44.2938   27.7475 H   0  0  0  0  0  0  0  0  0  0  0  0
   37.0742   44.4954   29.0606 H   0  0  0  0  0  0  0  0  0  0  0  0
   36.5321   44.3636   27.3532 H   0  0  0  0  0  0  0  0  0  0  0  0
  1  2  1  0  0  0  0
  1 66  1  0  0  0  0
  1 67  1  0  0  0  0
  1 68  1  0  0  0  0
  2  3  1  0  0  0  0
  2  5  1  0  0  0  0
  2 69  1  1  0  0  0
  3  4  2  0  0  0  0
  3  9  1  0  0  0  0
  5  6  1  0  0  0  0
  5 70  1  0  0  0  0
  5 71  1  0  0  0  0
  6  7  2  0  0  0  0
  6  8  1  0  0  0  0
  8 72  1  0  0  0  0
  8 73  1  0  0  0  0
  9 10  1  0  0  0  0
  9 74  1  0  0  0  0
 10 11  1  0  0  0  0
 10 13  1  0  0  0  0
 10 75  1  6  0  0  0
 11 12  2  0  0  0  0
 11 17  1  0  0  0  0
 13 14  1  0  0  0  0
 13 76  1  0  0  0  0
 13 77  1  0  0  0  0
 14 15  1  0  0  0  0
 14 16  1  0  0  0  0
 14 78  1  0  0  0  0
 15 79  1  0  0  0  0
 15 80  1  0  0  0  0
 15 81  1  0  0  0  0
 16 82  1  0  0  0  0
 16 83  1  0  0  0  0
 16 84  1  0  0  0  0
 17 18  1  0  0  0  0
 17 85  1  0  0  0  0
 18 19  1  0  0  0  0
 18 21  1  0  0  0  0
 18 86  1  1  0  0  0
 19 20  2  0  0  0  0
 19 24  1  0  0  0  0
 21 22  1  0  0  0  0
 21 23  1  0  0  0  0
 21 87  1  0  0  0  0
 22 88  1  0  0  0  0
 22 89  1  0  0  0  0
 22 90  1  0  0  0  0
 23 91  1  0  0  0  0
 23 92  1  0  0  0  0
 23 93  1  0  0  0  0
 24 25  1  0  0  0  0
 24 30  1  0  0  0  0
 25 26  1  0  0  0  0
 25 28  1  0  0  0  0
 25 94  1  1  0  0  0
 26 27  2  0  0  0  0
 26 31  1  0  0  0  0
 28 29  1  0  0  0  0
 28 95  1  0  0  0  0
 28 96  1  0  0  0  0
 29 30  1  0  0  0  0
 29 97  1  0  0  0  0
 29 98  1  0  0  0  0
 30 99  1  0  0  0  0
 30100  1  0  0  0  0
 31 32  1  0  0  0  0
 31101  1  0  0  0  0
 32 33  1  0  0  0  0
 32 35  1  0  0  0  0
 32102  1  1  0  0  0
 33 34  2  0  0  0  0
 33 39  1  0  0  0  0
 35 36  1  0  0  0  0
 35103  1  0  0  0  0
 35104  1  0  0  0  0
 36 37  1  0  0  0  0
 36105  1  0  0  0  0
 36106  1  0  0  0  0
 37 38  1  0  0  0  0
 38107  1  0  0  0  0
 38108  1  0  0  0  0
 38109  1  0  0  0  0
 39 40  1  0  0  0  0
 39110  1  0  0  0  0
 40 41  1  0  0  0  0
 40 43  1  0  0  0  0
 40111  1  6  0  0  0
 41 42  2  0  0  0  0
 41 46  1  0  0  0  0
 43 44  1  0  0  0  0
 43 45  1  0  0  0  0
 43112  1  0  0  0  0
 44113  1  0  0  0  0
 44114  1  0  0  0  0
 44115  1  0  0  0  0
 45116  1  0  0  0  0
 45117  1  0  0  0  0
 45118  1  0  0  0  0
 46 47  1  0  0  0  0
 46119  1  0  0  0  0
 47 48  1  0  0  0  0
 47 50  1  0  0  0  0
 47120  1  1  0  0  0
 48 49  2  0  0  0  0
 48 51  1  0  0  0  0
 50121  1  0  0  0  0
 50122  1  0  0  0  0
 50123  1  0  0  0  0
 51 52  1  0  0  0  0
 51124  1  0  0  0  0
 52 53  1  0  0  0  0
 52 55  1  0  0  0  0
 52125  1  6  0  0  0
 53 54  2  0  0  0  0
 53 58  1  0  0  0  0
 55 56  1  0  0  0  0
 55 57  1  0  0  0  0
 55126  1  1  0  0  0
 56127  1  0  0  0  0
 57128  1  0  0  0  0
 57129  1  0  0  0  0
 57130  1  0  0  0  0
 58 59  1  0  0  0  0
 58131  1  0  0  0  0
 59 60  1  0  0  0  0
 59 62  1  0  0  0  0
 59132  1  6  0  0  0
 60 61  1  0  0  0  0
 60 65  2  0  0  0  0
 62 63  1  0  0  0  0
 62 64  1  0  0  0  0
 62133  1  0  0  0  0
 63134  1  0  0  0  0
 63135  1  0  0  0  0
 63136  1  0  0  0  0
 64137  1  0  0  0  0
 64138  1  0  0  0  0
 64139  1  0  0  0  0
M  CHG  2   1   1  61  -1
M  END
