2x5o_ligand
 OpenBabel08222323343D

 53 55  0  0  1  0  0  0  0  0999 V2000
   -5.2560   32.2760   20.3570 O   0  5  0  0  0  0  0  0  0  0  0  0
   -5.1380   31.4770   21.3430 C   0  0  0  0  0  0  0  0  0  0  0  0
   -4.2400   31.5580   22.2100 O   0  0  0  0  0  0  0  0  0  0  0  0
   -6.1220   30.4400   21.6740 C   0  0  0  0  0  0  0  0  0  0  0  0
   -7.0320   30.2010   20.5310 C   0  0  0  0  0  0  0  0  0  0  0  0
   -7.4690   27.7330   20.9710 C   0  0  0  0  0  0  0  0  0  0  0  0
   -7.3780   27.0000   19.9660 O   0  5  0  0  0  0  0  0  0  0  0  0
   -7.2160   27.2660   22.1080 O   0  0  0  0  0  0  0  0  0  0  0  0
   -9.1420   29.2310   20.0480 N   0  0  0  0  0  0  0  0  0  0  0  0
  -10.3900   28.6220   20.4100 C   0  0  0  0  0  0  0  0  0  0  0  0
  -10.4880   27.7830   21.3110 O   0  0  0  0  0  0  0  0  0  0  0  0
  -11.4820   29.0280   19.4990 C   0  0  0  0  0  0  0  0  0  0  0  0
  -11.4510   30.3290   18.9490 C   0  0  0  0  0  0  0  0  0  0  0  0
  -12.5580   28.1810   19.2840 C   0  0  0  0  0  0  0  0  0  0  0  0
  -13.6150   28.6070   18.5120 C   0  0  0  0  0  0  0  0  0  0  0  0
  -13.6080   29.8530   17.9540 C   0  0  0  0  0  0  0  0  0  0  0  0
  -12.5530   30.7260   18.1630 C   0  0  0  0  0  0  0  0  0  0  0  0
  -12.5560   32.0470   17.4000 C   0  0  0  0  0  0  0  0  0  0  0  0
  -13.7920   32.6660   17.3600 N   0  0  0  0  0  0  0  0  0  0  0  0
  -14.4480   33.1070   18.4730 C   0  0  0  0  0  0  0  0  0  0  0  0
  -13.9230   32.9450   19.7650 C   0  0  0  0  0  0  0  0  0  0  0  0
  -14.6430   33.2930   20.9030 C   0  0  0  0  0  0  0  0  0  0  0  0
  -15.7120   33.7040   18.3310 C   0  0  0  0  0  0  0  0  0  0  0  0
  -16.4430   34.0720   19.4680 C   0  0  0  0  0  0  0  0  0  0  0  0
  -15.9330   33.8370   20.7430 C   0  0  0  0  0  0  0  0  0  0  0  0
  -16.6900   34.1480   22.0080 C   0  0  0  0  0  0  0  0  0  0  0  0
  -18.0230   34.3970   22.2250 C   0  0  0  0  0  0  0  0  0  0  0  0
  -19.3050   34.5130   21.0350 S   0  0  0  0  0  0  0  0  0  0  0  0
  -20.4640   34.8440   22.2920 C   0  0  0  0  0  0  0  0  0  0  0  0
  -20.0110   34.7720   23.6050 N   0  0  0  0  0  0  0  0  0  0  0  0
   -8.0570   29.1470   20.9980 C   0  0  2  0  0  0  0  0  0  0  0  0
  -18.6290   34.5130   23.5390 C   0  0  0  0  0  0  0  0  0  0  0  0
  -17.9270   34.5010   24.5410 O   0  0  0  0  0  0  0  0  0  0  0  0
  -21.6530   35.0060   22.0820 O   0  0  0  0  0  0  0  0  0  0  0  0
   -6.7118   30.7657   22.5435 H   0  0  0  0  0  0  0  0  0  0  0  0
   -5.5947   29.5059   21.9176 H   0  0  0  0  0  0  0  0  0  0  0  0
   -6.4655   29.8230   19.6672 H   0  0  0  0  0  0  0  0  0  0  0  0
   -7.5457   31.1332   20.2532 H   0  0  0  0  0  0  0  0  0  0  0  0
   -9.0276   29.6964   19.1703 H   0  0  0  0  0  0  0  0  0  0  0  0
  -10.6141   30.9953   19.1240 H   0  0  0  0  0  0  0  0  0  0  0  0
  -12.5670   27.1891   19.7212 H   0  0  0  0  0  0  0  0  0  0  0  0
  -14.4595   27.9480   18.3458 H   0  0  0  0  0  0  0  0  0  0  0  0
  -14.4427   30.1646   17.3366 H   0  0  0  0  0  0  0  0  0  0  0  0
  -12.2326   31.8515   16.3670 H   0  0  0  0  0  0  0  0  0  0  0  0
  -11.8422   32.7291   17.8849 H   0  0  0  0  0  0  0  0  0  0  0  0
  -14.2409   32.8013   16.4429 H   0  0  0  0  0  0  0  0  0  0  0  0
  -12.9256   32.5360   19.8792 H   0  0  0  0  0  0  0  0  0  0  0  0
  -14.2211   33.1489   21.8911 H   0  0  0  0  0  0  0  0  0  0  0  0
  -16.1211   33.8796   17.3426 H   0  0  0  0  0  0  0  0  0  0  0  0
  -17.4127   34.5431   19.3549 H   0  0  0  0  0  0  0  0  0  0  0  0
  -16.0737   34.1810   22.9052 H   0  0  0  0  0  0  0  0  0  0  0  0
  -20.5597   34.8826   24.4337 H   0  0  0  0  0  0  0  0  0  0  0  0
   -8.4080   29.3794   22.0142 H   0  0  0  0  0  0  0  0  0  0  0  0
  2  1  1  0  0  0  0
  2  3  2  0  0  0  0
  4  2  1  0  0  0  0
  4 35  1  0  0  0  0
  4 36  1  0  0  0  0
  5  4  1  0  0  0  0
  5 37  1  0  0  0  0
  5 38  1  0  0  0  0
  6  7  1  0  0  0  0
  6  8  2  0  0  0  0
  9 10  1  0  0  0  0
  9 31  1  0  0  0  0
  9 39  1  0  0  0  0
 10 11  2  0  0  0  0
 10 12  1  0  0  0  0
 12 13  2  0  0  0  0
 12 14  1  0  0  0  0
 13 17  1  0  0  0  0
 13 40  1  0  0  0  0
 14 15  2  0  0  0  0
 14 41  1  0  0  0  0
 15 16  1  0  0  0  0
 15 42  1  0  0  0  0
 16 17  2  0  0  0  0
 16 43  1  0  0  0  0
 17 18  1  0  0  0  0
 18 19  1  0  0  0  0
 18 44  1  0  0  0  0
 18 45  1  0  0  0  0
 19 20  1  0  0  0  0
 19 46  1  0  0  0  0
 20 21  2  0  0  0  0
 20 23  1  0  0  0  0
 21 22  1  0  0  0  0
 21 47  1  0  0  0  0
 22 25  2  0  0  0  0
 22 48  1  0  0  0  0
 23 24  2  0  0  0  0
 23 49  1  0  0  0  0
 24 25  1  0  0  0  0
 24 50  1  0  0  0  0
 25 26  1  0  0  0  0
 26 27  2  0  0  0  0
 26 51  1  0  0  0  0
 27 28  1  0  0  0  0
 27 32  1  0  0  0  0
 28 29  1  0  0  0  0
 29 30  1  0  0  0  0
 29 34  2  0  0  0  0
 30 32  1  0  0  0  0
 30 52  1  0  0  0  0
 31  5  1  0  0  0  0
 31  6  1  0  0  0  0
 31 53  1  1  0  0  0
 32 33  2  0  0  0  0
M  CHG  2   1  -1   7  -1
M  END
