2x6f_ligand
 OpenBabel08222323343D

 19 20  0  0  1  0  0  0  0  0999 V2000
   18.6280   36.5340    6.2340 N   0  0  0  0  0  0  0  0  0  0  0  0
   17.4110   36.9660    6.6110 C   0  0  1  0  0  3  0  0  0  0  0  0
   16.5410   37.8870    6.1510 N   0  0  0  0  0  0  0  0  0  0  0  0
   16.8800   38.6810    4.9480 C   0  0  0  0  0  0  0  0  0  0  0  0
   15.3610   38.0770    6.7930 C   0  0  0  0  0  0  0  0  0  0  0  0
   14.9670   37.4030    7.8980 N   0  0  0  0  0  0  0  0  0  0  0  0
   15.7560   36.4480    8.4510 C   0  0  0  0  0  0  0  0  0  0  0  0
   15.4060   35.7420    9.5530 N   0  0  0  0  0  0  0  0  0  0  0  0
   17.0550   36.1720    7.8110 C   0  0  0  0  0  0  0  0  0  0  0  0
   18.0750   35.3280    8.0640 N   0  0  0  0  0  0  0  0  0  0  0  0
   19.0160   35.5530    7.1070 C   0  0  0  0  0  0  0  0  0  0  0  0
   16.1331   38.5029    4.1743 H   0  0  0  0  0  0  0  0  0  0  0  0
   16.8932   39.7402    5.2051 H   0  0  0  0  0  0  0  0  0  0  0  0
   17.8624   38.3824    4.5821 H   0  0  0  0  0  0  0  0  0  0  0  0
   14.6810   38.8271    6.3892 H   0  0  0  0  0  0  0  0  0  0  0  0
   16.0374   35.0332    9.9264 H   0  0  0  0  0  0  0  0  0  0  0  0
   14.5111   35.9192   10.0093 H   0  0  0  0  0  0  0  0  0  0  0  0
   19.9632   35.0175    7.0432 H   0  0  0  0  0  0  0  0  0  0  0  0
   19.1718   36.8800    5.4306 H   0  0  0  0  0  0  0  0  0  0  0  0
  1  2  1  0  0  0  0
  1 11  1  0  0  0  0
  1 19  1  0  0  0  0
  2  3  1  0  0  0  0
  2  9  1  6  0  0  0
  3  4  1  0  0  0  0
  3  5  1  0  0  0  0
  4 12  1  0  0  0  0
  4 13  1  0  0  0  0
  4 14  1  0  0  0  0
  5  6  2  0  0  0  0
  5 15  1  0  0  0  0
  6  7  1  0  0  0  0
  7  8  1  0  0  0  0
  7  9  2  0  0  0  0
  8 16  1  0  0  0  0
  8 17  1  0  0  0  0
  9 10  1  0  0  0  0
 10 11  2  0  0  0  0
 11 18  1  0  0  0  0
M  END
