2x7d_ligand
 OpenBabel08222323343D

 42 44  0  0  1  0  0  0  0  0999 V2000
   -8.3160   12.2300   34.3450 O   0  0  0  0  0  0  0  0  0  0  0  0
   -7.3830   13.0190   33.7290 C   0  0  0  0  0  0  0  0  0  0  0  0
   -7.4140   13.1510   32.3250 C   0  0  0  0  0  0  0  0  0  0  0  0
   -6.4240   13.6850   34.4880 C   0  0  0  0  0  0  0  0  0  0  0  0
   -5.4880   14.4790   33.8150 C   0  0  0  0  0  0  0  0  0  0  0  0
   -5.5150   14.5990   32.4090 C   0  0  0  0  0  0  0  0  0  0  0  0
   -6.4620   13.9050   31.6310 C   0  0  0  0  0  0  0  0  0  0  0  0
   -6.5500   14.0070   30.0820 C   0  0  1  0  0  0  0  0  0  0  0  0
   -6.9250   15.4310   29.6360 C   0  0  0  0  0  0  0  0  0  0  0  0
   -8.1950   15.9250   29.9200 C   0  0  0  0  0  0  0  0  0  0  0  0
   -8.9970   15.1350   30.4080 O   0  0  0  0  0  0  0  0  0  0  0  0
   -8.6820   17.3460   29.5590 C   0  0  0  0  0  0  0  0  0  0  0  0
   -7.4820   18.3370   29.5540 C   0  0  0  0  0  0  0  0  0  0  0  0
   -6.8650   18.4810   30.9520 C   0  0  0  0  0  0  0  0  0  0  0  0
   -7.9560   19.7280   29.0970 C   0  0  0  0  0  0  0  0  0  0  0  0
   -6.4070   17.7490   28.6130 C   0  0  0  0  0  0  0  0  0  0  0  0
   -6.0230   16.2830   29.0230 C   0  0  0  0  0  0  0  0  0  0  0  0
   -4.7990   15.8390   28.6810 N   0  0  0  0  0  0  0  0  0  0  0  0
   -4.3290   14.6130   29.3070 C   0  0  2  0  0  0  0  0  0  0  0  0
   -2.8540   14.0330   28.4520 S   0  0  0  0  0  0  0  0  0  0  0  0
   -5.3260   13.5580   29.3740 N   0  3  0  0  0  0  0  0  0  0  0  0
   -9.1854   12.5638   34.1569 H   0  0  0  0  0  0  0  0  0  0  0  0
   -8.1990   12.6533   31.7672 H   0  0  0  0  0  0  0  0  0  0  0  0
   -6.4030   13.5913   35.5677 H   0  0  0  0  0  0  0  0  0  0  0  0
   -4.7315   15.0094   34.3819 H   0  0  0  0  0  0  0  0  0  0  0  0
   -4.7913   15.2390   31.9173 H   0  0  0  0  0  0  0  0  0  0  0  0
   -7.3645   13.3377   29.7679 H   0  0  0  0  0  0  0  0  0  0  0  0
   -9.4234   17.6762   30.3015 H   0  0  0  0  0  0  0  0  0  0  0  0
   -9.1445   17.3296   28.5611 H   0  0  0  0  0  0  0  0  0  0  0  0
   -6.0224   19.1869   30.9099 H   0  0  0  0  0  0  0  0  0  0  0  0
   -6.5049   17.5004   31.2967 H   0  0  0  0  0  0  0  0  0  0  0  0
   -7.6254   18.8590   31.6513 H   0  0  0  0  0  0  0  0  0  0  0  0
   -8.4034   19.6520   28.0950 H   0  0  0  0  0  0  0  0  0  0  0  0
   -7.0978   20.4153   29.0642 H   0  0  0  0  0  0  0  0  0  0  0  0
   -8.7056   20.1109   29.8051 H   0  0  0  0  0  0  0  0  0  0  0  0
   -5.5074   18.3803   28.6594 H   0  0  0  0  0  0  0  0  0  0  0  0
   -6.7974   17.7418   27.5846 H   0  0  0  0  0  0  0  0  0  0  0  0
   -4.2168   16.3486   28.0011 H   0  0  0  0  0  0  0  0  0  0  0  0
   -4.0489   14.8599   30.3417 H   0  0  0  0  0  0  0  0  0  0  0  0
   -2.5280   13.1834   28.8855 H   0  0  0  0  0  0  0  0  0  0  0  0
   -5.5731   13.2816   28.4367 H   0  0  0  0  0  0  0  0  0  0  0  0
   -4.9350   12.7692   29.8649 H   0  0  0  0  0  0  0  0  0  0  0  0
  1  2  1  0  0  0  0
  1 22  1  0  0  0  0
  2  3  2  0  0  0  0
  2  4  1  0  0  0  0
  3  7  1  0  0  0  0
  3 23  1  0  0  0  0
  4  5  2  0  0  0  0
  4 24  1  0  0  0  0
  5  6  1  0  0  0  0
  5 25  1  0  0  0  0
  6  7  2  0  0  0  0
  6 26  1  0  0  0  0
  7  8  1  0  0  0  0
  8  9  1  0  0  0  0
  8 21  1  0  0  0  0
  8 27  1  6  0  0  0
  9 10  1  0  0  0  0
  9 17  2  0  0  0  0
 10 11  2  0  0  0  0
 10 12  1  0  0  0  0
 12 13  1  0  0  0  0
 12 28  1  0  0  0  0
 12 29  1  0  0  0  0
 13 14  1  0  0  0  0
 13 15  1  0  0  0  0
 13 16  1  0  0  0  0
 14 30  1  0  0  0  0
 14 31  1  0  0  0  0
 14 32  1  0  0  0  0
 15 33  1  0  0  0  0
 15 34  1  0  0  0  0
 15 35  1  0  0  0  0
 16 17  1  0  0  0  0
 16 36  1  0  0  0  0
 16 37  1  0  0  0  0
 17 18  1  0  0  0  0
 18 19  1  0  0  0  0
 18 38  1  0  0  0  0
 19 20  1  0  0  0  0
 19 21  1  0  0  0  0
 19 39  1  1  0  0  0
 20 40  1  0  0  0  0
 21 41  1  0  0  0  0
 21 42  1  0  0  0  0
M  CHG  1  21   1
M  END
