2x8i_ligand
 OpenBabel08222323343D

 36 39  0  0  0  0  0  0  0  0999 V2000
    5.7500   -7.8680   38.1250 C   0  0  0  0  0  0  0  0  0  0  0  0
    5.4030   -6.9260   39.0690 C   0  0  0  0  0  0  0  0  0  0  0  0
    5.2900   -4.5210   40.7990 C   0  0  0  0  0  0  0  0  0  0  0  0
    4.9810   -3.5660   41.7390 C   0  0  0  0  0  0  0  0  0  0  0  0
    5.5700   -7.6100   36.7850 C   0  0  0  0  0  0  0  0  0  0  0  0
    3.3710   -3.9220   39.5430 C   0  0  0  0  0  3  0  0  0  0  0  0
    4.6890   -5.4510   37.3540 C   0  0  0  0  0  0  0  0  0  0  0  0
    4.4950   -4.7130   39.6910 C   0  0  0  0  0  0  0  0  0  0  0  0
    4.8630   -5.7080   38.7000 C   0  0  0  0  0  0  0  0  0  0  0  0
    3.0470   -2.9550   40.4770 C   0  0  0  0  0  0  0  0  0  0  0  0
    3.8610   -2.7870   41.5730 C   0  0  0  0  0  0  0  0  0  0  0  0
    5.0390   -6.3970   36.4140 C   0  0  0  0  0  0  0  0  0  0  0  0
    1.5940   -1.1570   41.2300 C   0  0  0  0  0  0  0  0  0  0  0  0
    1.8680   -2.1040   40.3240 C   0  0  0  0  0  0  0  0  0  0  0  0
    2.5210   -1.0130   42.3640 C   0  0  0  0  0  0  0  0  0  0  0  0
    4.2330   -1.3090   43.7860 C   0  0  0  0  0  0  0  0  0  0  0  0
    0.9850   -2.3180   39.1440 C   0  0  0  0  0  0  0  0  0  0  0  0
    2.4060   -0.1200   43.3100 N   0  0  0  0  0  0  0  0  0  0  0  0
    3.4450   -0.2750   44.1910 N   0  0  0  0  0  0  0  0  0  0  0  0
    3.5310   -1.7880   42.5020 N   0  0  0  0  0  0  0  0  0  0  0  0
    5.2470   -1.8320   44.2280 O   0  0  0  0  0  0  0  0  0  0  0  0
    4.8530   -6.1260   35.0750 O   0  0  0  0  0  0  0  0  0  0  0  0
    6.1672   -8.8178   38.4396 H   0  0  0  0  0  0  0  0  0  0  0  0
    5.5562   -7.1439   40.1198 H   0  0  0  0  0  0  0  0  0  0  0  0
    6.1746   -5.1332   40.9325 H   0  0  0  0  0  0  0  0  0  0  0  0
    5.6171   -3.4284   42.6059 H   0  0  0  0  0  0  0  0  0  0  0  0
    5.8411   -8.3473   36.0380 H   0  0  0  0  0  0  0  0  0  0  0  0
    2.7318   -4.0623   38.6789 H   0  0  0  0  0  0  0  0  0  0  0  0
    4.2753   -4.5011   37.0352 H   0  0  0  0  0  0  0  0  0  0  0  0
    0.7222   -0.5203   41.1319 H   0  0  0  0  0  0  0  0  0  0  0  0
    1.3863   -3.1374   38.5296 H   0  0  0  0  0  0  0  0  0  0  0  0
    0.9441   -1.3965   38.5447 H   0  0  0  0  0  0  0  0  0  0  0  0
   -0.0275   -2.5782   39.4861 H   0  0  0  0  0  0  0  0  0  0  0  0
    1.6581    0.5845   43.3823 H   0  0  0  0  0  0  0  0  0  0  0  0
    3.6001    0.2847   45.0051 H   0  0  0  0  0  0  0  0  0  0  0  0
    3.9315   -5.9627   34.9111 H   0  0  0  0  0  0  0  0  0  0  0  0
  1  5  1  0  0  0  0
  1 23  1  0  0  0  0
  2  1  2  0  0  0  0
  2 24  1  0  0  0  0
  3  8  2  0  0  0  0
  3 25  1  0  0  0  0
  4  3  1  0  0  0  0
  4 26  1  0  0  0  0
  5 27  1  0  0  0  0
  6  8  1  0  0  0  0
  6 28  1  0  0  0  0
  7 12  1  0  0  0  0
  7 29  1  0  0  0  0
  8  9  1  0  0  0  0
  9  2  1  0  0  0  0
  9  7  2  0  0  0  0
 10  6  1  0  0  0  0
 10 14  2  0  0  0  0
 11  4  2  0  0  0  0
 11 10  1  0  0  0  0
 12  5  2  0  0  0  0
 12 22  1  0  0  0  0
 13 14  1  0  0  0  0
 13 30  1  0  0  0  0
 14 17  1  0  0  0  0
 15 13  2  0  0  0  0
 15 18  1  0  0  0  0
 16 19  1  0  0  0  0
 16 20  1  0  0  0  0
 16 21  2  0  0  0  0
 17 31  1  0  0  0  0
 17 32  1  0  0  0  0
 17 33  1  0  0  0  0
 18 19  1  0  0  0  0
 18 34  1  0  0  0  0
 19 35  1  0  0  0  0
 20 11  1  0  0  0  0
 20 15  1  0  0  0  0
 22 36  1  0  0  0  0
M  END
