2xct_ligand
 OpenBabel08222323343D

 43 46  0  0  1  0  0  0  0  0999 V2000
    3.4710   40.5350   73.0810 O   0  5  0  0  0  0  0  0  0  0  0  0
    2.9970   41.9090   73.0340 C   0  0  0  0  0  0  0  0  0  0  0  0
    2.7240   42.4920   74.0840 O   0  0  0  0  0  0  0  0  0  0  0  0
    2.8510   42.5690   71.6880 C   0  0  0  0  0  0  0  0  0  0  0  0
    2.4030   43.8890   71.5720 C   0  0  0  0  0  0  0  0  0  0  0  0
    2.2870   44.4660   70.3630 N   0  0  0  0  0  0  0  0  0  0  0  0
    2.5820   43.7780   69.2480 C   0  0  1  0  0  3  0  0  0  0  0  0
    2.4370   44.4080   68.0220 C   0  0  0  0  0  0  0  0  0  0  0  0
    2.7360   43.7310   66.8560 C   0  0  0  0  0  0  0  0  0  0  0  0
    2.5970   44.4380   65.6610 N   0  0  0  0  0  0  0  0  0  0  0  0
    2.2360   45.8450   65.7660 C   0  0  0  0  0  0  0  0  0  0  0  0
    3.3020   46.5560   64.9430 C   0  0  0  0  0  0  0  0  0  0  0  0
    3.1910   46.1330   63.5680 N   0  3  0  0  0  0  0  0  0  0  0  0
    2.5000   44.8870   63.3130 C   0  0  0  0  0  0  0  0  0  0  0  0
    2.8590   43.8290   64.3550 C   0  0  0  0  0  0  0  0  0  0  0  0
    3.1880   42.4240   66.9000 C   0  0  0  0  0  0  0  0  0  0  0  0
    3.4910   41.7660   65.7640 F   0  0  0  0  0  0  0  0  0  0  0  0
    3.3330   41.7790   68.1220 C   0  0  0  0  0  0  0  0  0  0  0  0
    3.0320   42.4580   69.3010 C   0  0  0  0  0  0  0  0  0  0  0  0
    3.1650   41.8460   70.5460 C   0  0  0  0  0  0  0  0  0  0  0  0
    3.6030   40.5430   70.6600 O   0  0  0  0  0  0  0  0  0  0  0  0
    1.8090   45.8460   70.2200 C   0  0  0  0  0  0  0  0  0  0  0  0
    1.9450   46.5890   71.5390 C   0  0  0  0  0  0  0  0  0  0  0  0
    2.9770   46.7880   70.4370 C   0  0  0  0  0  0  0  0  0  0  0  0
    2.1461   44.4539   72.4681 H   0  0  0  0  0  0  0  0  0  0  0  0
    2.0865   45.4392   67.9780 H   0  0  0  0  0  0  0  0  0  0  0  0
    2.2103   46.1908   66.7994 H   0  0  0  0  0  0  0  0  0  0  0  0
    1.2285   46.0433   65.4003 H   0  0  0  0  0  0  0  0  0  0  0  0
    4.2911   46.3058   65.3266 H   0  0  0  0  0  0  0  0  0  0  0  0
    3.1597   47.6346   65.0091 H   0  0  0  0  0  0  0  0  0  0  0  0
    4.1476   45.9905   63.2440 H   0  0  0  0  0  0  0  0  0  0  0  0
    2.6429   46.8545   63.0997 H   0  0  0  0  0  0  0  0  0  0  0  0
    2.7970   44.5206   62.3303 H   0  0  0  0  0  0  0  0  0  0  0  0
    1.4265   45.0699   63.3602 H   0  0  0  0  0  0  0  0  0  0  0  0
    2.2671   42.9242   64.2170 H   0  0  0  0  0  0  0  0  0  0  0  0
    3.9020   43.5257   64.2645 H   0  0  0  0  0  0  0  0  0  0  0  0
    3.6806   40.7466   68.1583 H   0  0  0  0  0  0  0  0  0  0  0  0
    3.6308   40.2959   71.5872 H   0  0  0  0  0  0  0  0  0  0  0  0
    1.0171   45.7326   69.4797 H   0  0  0  0  0  0  0  0  0  0  0  0
    1.9181   46.3738   72.6072 H   0  0  0  0  0  0  0  0  0  0  0  0
    1.3308   47.1946   72.2054 H   0  0  0  0  0  0  0  0  0  0  0  0
    3.4714   47.6097   69.9190 H   0  0  0  0  0  0  0  0  0  0  0  0
    4.0609   46.7859   70.3223 H   0  0  0  0  0  0  0  0  0  0  0  0
  1  2  1  0  0  0  0
  2  3  2  0  0  0  0
  2  4  1  0  0  0  0
  4  5  2  0  0  0  0
  4 20  1  0  0  0  0
  5  6  1  0  0  0  0
  5 25  1  0  0  0  0
  6  7  1  0  0  0  0
  6 22  1  0  0  0  0
  7  8  1  1  0  0  0
  7 19  1  0  0  0  0
  8  9  2  0  0  0  0
  8 26  1  0  0  0  0
  9 10  1  0  0  0  0
  9 16  1  0  0  0  0
 10 11  1  0  0  0  0
 10 15  1  0  0  0  0
 11 12  1  0  0  0  0
 11 27  1  0  0  0  0
 11 28  1  0  0  0  0
 12 13  1  0  0  0  0
 12 29  1  0  0  0  0
 12 30  1  0  0  0  0
 13 14  1  0  0  0  0
 13 31  1  0  0  0  0
 13 32  1  0  0  0  0
 14 15  1  0  0  0  0
 14 33  1  0  0  0  0
 14 34  1  0  0  0  0
 15 35  1  0  0  0  0
 15 36  1  0  0  0  0
 16 17  1  0  0  0  0
 16 18  2  0  0  0  0
 18 19  1  0  0  0  0
 18 37  1  0  0  0  0
 19 20  2  0  0  0  0
 20 21  1  0  0  0  0
 21 38  1  0  0  0  0
 22 23  1  0  0  0  0
 22 24  1  0  0  0  0
 22 39  1  0  0  0  0
 23 24  1  0  0  0  0
 23 40  1  0  0  0  0
 23 41  1  0  0  0  0
 24 42  1  0  0  0  0
 24 43  1  0  0  0  0
M  CHG  2   1  -1  13   1
M  END
