2xfj_ligand
 OpenBabel08222323343D

 87 90  0  0  1  0  0  0  0  0999 V2000
   31.2150   -0.8160   37.2620 C   0  0  0  0  0  0  0  0  0  0  0  0
   31.1000    0.2670   36.4170 C   0  0  0  0  0  0  0  0  0  0  0  0
   30.4960    0.1200   35.1780 C   0  0  0  0  0  0  0  0  0  0  0  0
   29.9840   -1.1100   34.7910 C   0  0  0  0  0  0  0  0  0  0  0  0
   30.0820   -2.1960   35.6560 C   0  0  0  0  0  0  0  0  0  0  0  0
   30.7110   -2.0430   36.8970 C   0  0  0  0  0  0  0  0  0  0  0  0
   30.3960    1.3190   34.3130 C   0  0  0  0  0  0  0  0  0  0  0  0
   29.1550    1.4690   33.7620 N   0  0  0  0  0  0  0  0  0  0  0  0
   31.3360    2.1030   34.1630 O   0  0  0  0  0  0  0  0  0  0  0  0
   28.9190    2.3760   32.6420 C   0  0  1  0  0  0  0  0  0  0  0  0
   28.2150    1.6280   31.5050 C   0  0  0  0  0  0  0  0  0  0  0  0
   28.1150    3.5750   33.1580 C   0  0  2  0  0  0  0  0  0  0  0  0
   27.7510    4.4470   32.0750 O   0  0  0  0  0  0  0  0  0  0  0  0
   28.9390    0.3470   31.1690 C   0  0  0  0  0  0  0  0  0  0  0  0
   28.9190    4.4620   34.1270 C   0  0  0  0  0  0  0  0  0  0  0  0
   28.0690    5.5800   34.5670 N   0  3  0  0  0  0  0  0  0  0  0  0
   28.8320    6.7690   35.0310 C   0  0  2  0  0  0  0  0  0  0  0  0
   29.8700    7.2150   34.0190 C   0  0  0  0  0  0  0  0  0  0  0  0
   29.3280    7.9270   32.9840 N   0  0  0  0  0  0  0  0  0  0  0  0
   31.0720    6.9750   34.1130 O   0  0  0  0  0  0  0  0  0  0  0  0
   30.1690    8.3710   31.8710 C   0  0  0  0  0  0  0  0  0  0  0  0
   29.4850    6.5020   36.3620 C   0  0  0  0  0  0  0  0  0  0  0  0
   29.3720    8.3130   30.5880 C   0  0  0  0  0  0  0  0  0  0  0  0
   30.1630    8.8230   29.3930 C   0  0  0  0  0  0  0  0  0  0  0  0
   30.6930   10.2300   29.6380 C   0  0  0  0  0  0  0  0  0  0  0  0
   31.4840   10.2850   30.9420 C   0  0  0  0  0  0  0  0  0  0  0  0
   30.6330    9.8010   32.1120 C   0  0  0  0  0  0  0  0  0  0  0  0
   30.3110    0.3300   30.9710 C   0  0  0  0  0  0  0  0  0  0  0  0
   30.9290   -0.8780   30.6840 C   0  0  0  0  0  0  0  0  0  0  0  0
   30.1950   -2.0490   30.5820 C   0  0  0  0  0  0  0  0  0  0  0  0
   28.8290   -2.0250   30.7740 C   0  0  0  0  0  0  0  0  0  0  0  0
   28.2110   -0.8230   31.0740 C   0  0  0  0  0  0  0  0  0  0  0  0
   29.6100   -3.4890   35.3840 N   0  0  0  0  0  0  0  0  0  0  0  0
   29.0850   -3.6860   34.0370 C   0  0  0  0  0  0  0  0  0  0  0  0
   27.5850   -3.7200   34.0980 C   0  0  0  0  0  0  0  0  0  0  0  0
   31.8580   -0.6610   38.5110 N   0  0  0  0  0  0  0  0  0  0  0  0
   33.1370    0.0010   38.5710 C   0  0  0  0  0  0  0  0  0  0  0  0
   33.5930   -0.2080   40.0040 C   0  0  0  0  0  0  0  0  0  0  0  0
   32.4720   -0.9060   40.7350 C   0  0  0  0  0  0  0  0  0  0  0  0
   31.4020   -1.1390   39.7030 C   0  0  0  0  0  0  0  0  0  0  0  0
   30.3180   -1.6550   39.9250 O   0  0  0  0  0  0  0  0  0  0  0  0
   31.4823    1.2345   36.7217 H   0  0  0  0  0  0  0  0  0  0  0  0
   29.5112   -1.2244   33.8223 H   0  0  0  0  0  0  0  0  0  0  0  0
   30.8008   -2.8890   37.5687 H   0  0  0  0  0  0  0  0  0  0  0  0
   28.3893    0.9448   34.1348 H   0  0  0  0  0  0  0  0  0  0  0  0
   29.8856    2.7411   32.2648 H   0  0  0  0  0  0  0  0  0  0  0  0
   28.1897    2.2712   30.6130 H   0  0  0  0  0  0  0  0  0  0  0  0
   27.1867    1.3892   31.8142 H   0  0  0  0  0  0  0  0  0  0  0  0
   27.2120    3.2000   33.6618 H   0  0  0  0  0  0  0  0  0  0  0  0
   27.2211    3.9681   31.4487 H   0  0  0  0  0  0  0  0  0  0  0  0
   29.8099    4.8548   33.6151 H   0  0  0  0  0  0  0  0  0  0  0  0
   29.2293    3.8685   34.9996 H   0  0  0  0  0  0  0  0  0  0  0  0
   27.4893    5.2585   35.3264 H   0  0  0  0  0  0  0  0  0  0  0  0
   27.4857    5.8590   33.7937 H   0  0  0  0  0  0  0  0  0  0  0  0
   28.1159    7.5935   35.1627 H   0  0  0  0  0  0  0  0  0  0  0  0
   28.3521    8.1453   32.9878 H   0  0  0  0  0  0  0  0  0  0  0  0
   31.0454    7.7113   31.7892 H   0  0  0  0  0  0  0  0  0  0  0  0
   30.0420    7.3947   36.6828 H   0  0  0  0  0  0  0  0  0  0  0  0
   30.1772    5.6524   36.2670 H   0  0  0  0  0  0  0  0  0  0  0  0
   28.7127    6.2640   37.1082 H   0  0  0  0  0  0  0  0  0  0  0  0
   28.4693    8.9307   30.7042 H   0  0  0  0  0  0  0  0  0  0  0  0
   29.0804    7.2692   30.3996 H   0  0  0  0  0  0  0  0  0  0  0  0
   29.5082    8.8359   28.5093 H   0  0  0  0  0  0  0  0  0  0  0  0
   31.0117    8.1474   29.2107 H   0  0  0  0  0  0  0  0  0  0  0  0
   29.8466   10.9300   29.6985 H   0  0  0  0  0  0  0  0  0  0  0  0
   31.3495   10.5196   28.8042 H   0  0  0  0  0  0  0  0  0  0  0  0
   31.7986   11.3222   31.1296 H   0  0  0  0  0  0  0  0  0  0  0  0
   32.3725    9.6428   30.8523 H   0  0  0  0  0  0  0  0  0  0  0  0
   31.2302    9.8382   33.0350 H   0  0  0  0  0  0  0  0  0  0  0  0
   29.7547   10.4549   32.2169 H   0  0  0  0  0  0  0  0  0  0  0  0
   30.8900    1.2439   31.0392 H   0  0  0  0  0  0  0  0  0  0  0  0
   32.0026   -0.9066   30.5372 H   0  0  0  0  0  0  0  0  0  0  0  0
   30.6939   -2.9834   30.3515 H   0  0  0  0  0  0  0  0  0  0  0  0
   28.2470   -2.9357   30.6910 H   0  0  0  0  0  0  0  0  0  0  0  0
   27.1395   -0.7997   31.2368 H   0  0  0  0  0  0  0  0  0  0  0  0
   29.6325   -4.2441   36.0842 H   0  0  0  0  0  0  0  0  0  0  0  0
   29.4593   -4.6371   33.6305 H   0  0  0  0  0  0  0  0  0  0  0  0
   29.4092   -2.8577   33.3898 H   0  0  0  0  0  0  0  0  0  0  0  0
   27.1802   -3.8683   33.0860 H   0  0  0  0  0  0  0  0  0  0  0  0
   27.2129   -2.7686   34.5059 H   0  0  0  0  0  0  0  0  0  0  0  0
   27.2631   -4.5480   34.7466 H   0  0  0  0  0  0  0  0  0  0  0  0
   33.0333    1.0728   38.3463 H   0  0  0  0  0  0  0  0  0  0  0  0
   33.8465   -0.4548   37.8647 H   0  0  0  0  0  0  0  0  0  0  0  0
   33.8040    0.7624   40.4771 H   0  0  0  0  0  0  0  0  0  0  0  0
   34.4998   -0.8303   40.0234 H   0  0  0  0  0  0  0  0  0  0  0  0
   32.0898   -0.2716   41.5483 H   0  0  0  0  0  0  0  0  0  0  0  0
   32.8209   -1.8632   41.1497 H   0  0  0  0  0  0  0  0  0  0  0  0
  1  2  2  0  0  0  0
  1  6  1  0  0  0  0
  1 36  1  0  0  0  0
  2  3  1  0  0  0  0
  2 42  1  0  0  0  0
  3  4  2  0  0  0  0
  3  7  1  0  0  0  0
  4  5  1  0  0  0  0
  4 43  1  0  0  0  0
  5  6  2  0  0  0  0
  5 33  1  0  0  0  0
  6 44  1  0  0  0  0
  7  8  1  0  0  0  0
  7  9  2  0  0  0  0
  8 10  1  0  0  0  0
  8 45  1  0  0  0  0
 10 11  1  0  0  0  0
 10 12  1  0  0  0  0
 10 46  1  6  0  0  0
 11 14  1  0  0  0  0
 11 47  1  0  0  0  0
 11 48  1  0  0  0  0
 12 13  1  0  0  0  0
 12 15  1  0  0  0  0
 12 49  1  1  0  0  0
 13 50  1  0  0  0  0
 14 28  2  0  0  0  0
 14 32  1  0  0  0  0
 15 16  1  0  0  0  0
 15 51  1  0  0  0  0
 15 52  1  0  0  0  0
 16 17  1  0  0  0  0
 16 53  1  0  0  0  0
 16 54  1  0  0  0  0
 17 18  1  0  0  0  0
 17 22  1  0  0  0  0
 17 55  1  1  0  0  0
 18 19  1  0  0  0  0
 18 20  2  0  0  0  0
 19 21  1  0  0  0  0
 19 56  1  0  0  0  0
 21 23  1  0  0  0  0
 21 27  1  0  0  0  0
 21 57  1  0  0  0  0
 22 58  1  0  0  0  0
 22 59  1  0  0  0  0
 22 60  1  0  0  0  0
 23 24  1  0  0  0  0
 23 61  1  0  0  0  0
 23 62  1  0  0  0  0
 24 25  1  0  0  0  0
 24 63  1  0  0  0  0
 24 64  1  0  0  0  0
 25 26  1  0  0  0  0
 25 65  1  0  0  0  0
 25 66  1  0  0  0  0
 26 27  1  0  0  0  0
 26 67  1  0  0  0  0
 26 68  1  0  0  0  0
 27 69  1  0  0  0  0
 27 70  1  0  0  0  0
 28 29  1  0  0  0  0
 28 71  1  0  0  0  0
 29 30  2  0  0  0  0
 29 72  1  0  0  0  0
 30 31  1  0  0  0  0
 30 73  1  0  0  0  0
 31 32  2  0  0  0  0
 31 74  1  0  0  0  0
 32 75  1  0  0  0  0
 33 34  1  0  0  0  0
 33 76  1  0  0  0  0
 34 35  1  0  0  0  0
 34 77  1  0  0  0  0
 34 78  1  0  0  0  0
 35 79  1  0  0  0  0
 35 80  1  0  0  0  0
 35 81  1  0  0  0  0
 36 37  1  0  0  0  0
 36 40  1  0  0  0  0
 37 38  1  0  0  0  0
 37 82  1  0  0  0  0
 37 83  1  0  0  0  0
 38 39  1  0  0  0  0
 38 84  1  0  0  0  0
 38 85  1  0  0  0  0
 39 40  1  0  0  0  0
 39 86  1  0  0  0  0
 39 87  1  0  0  0  0
 40 41  2  0  0  0  0
M  CHG  1  16   1
M  END
