2xix_ligand
 OpenBabel08222323343D

 12 12  0  0  0  0  0  0  0  0999 V2000
  -21.9010  -35.5170   -1.1330 N   0  0  0  0  0  0  0  0  0  0  0  0
  -22.2900  -36.5810   -0.6270 N   0  0  0  0  0  0  0  0  0  0  0  0
  -22.9500  -37.2780    1.5330 N   0  0  0  0  0  0  0  0  0  0  0  0
  -21.8610  -34.5620   -0.1850 C   0  0  0  0  0  0  0  0  0  0  0  0
  -22.2530  -35.0680    0.9850 N   0  0  0  0  0  0  0  0  0  0  0  0
  -21.4820  -33.2940   -0.3950 N   0  0  0  0  0  0  0  0  0  0  0  0
  -22.5150  -36.3480    0.6760 C   0  0  0  0  0  0  0  0  0  0  0  0
  -23.1250  -38.2387    1.2053 H   0  0  0  0  0  0  0  0  0  0  0  0
  -23.1100  -37.0336    2.5207 H   0  0  0  0  0  0  0  0  0  0  0  0
  -22.3343  -34.5955    1.8966 H   0  0  0  0  0  0  0  0  0  0  0  0
  -21.1940  -32.9918   -1.3366 H   0  0  0  0  0  0  0  0  0  0  0  0
  -21.4786  -32.6216    0.3852 H   0  0  0  0  0  0  0  0  0  0  0  0
  1  2  1  0  0  0  0
  1  4  2  0  0  0  0
  2  7  2  0  0  0  0
  3  8  1  0  0  0  0
  3  9  1  0  0  0  0
  4  5  1  0  0  0  0
  4  6  1  0  0  0  0
  5  7  1  0  0  0  0
  5 10  1  0  0  0  0
  6 11  1  0  0  0  0
  6 12  1  0  0  0  0
  7  3  1  0  0  0  0
M  END
