2xoi_ligand
 OpenBabel08222323343D

 65 69  0  0  1  0  0  0  0  0999 V2000
   35.3620    5.9940   22.3830 N   0  0  0  0  0  0  0  0  0  0  0  0
   38.9350    5.5860   18.6820 C   0  0  1  0  0  0  0  0  0  0  0  0
   37.3860   -0.2510   12.0990 C   0  0  1  0  0  0  0  0  0  0  0  0
   36.5960   -1.4920   12.2300 N   0  0  0  0  0  0  0  0  0  0  0  0
   39.2850    1.8510   14.4210 C   0  0  0  0  0  0  0  0  0  0  0  0
   39.6900    0.6350   16.6700 O   0  0  0  0  0  0  0  0  0  0  0  0
   35.7660    6.9150   21.4920 C   0  0  0  0  0  0  0  0  0  0  0  0
   40.3690    5.8780   19.1020 C   0  0  2  0  0  0  0  0  0  0  0  0
   40.4600    7.2290   19.5570 O   0  0  0  0  0  0  0  0  0  0  0  0
   37.3980    0.5450   13.4020 C   0  0  0  0  0  0  0  0  0  0  0  0
   35.4470   -1.6890   11.4240 C   0  0  0  0  0  0  0  0  0  0  0  0
   35.0920   -0.8160   10.6040 O   0  0  0  0  0  0  0  0  0  0  0  0
   41.6100    1.1550   15.2970 O   0  0  0  0  0  0  0  0  0  0  0  0
   36.7180    6.6300   20.5870 N   0  0  0  0  0  0  0  0  0  0  0  0
   41.2090    5.6520   17.8590 C   0  0  2  0  0  0  0  0  0  0  0  0
   41.9250    6.8360   17.4930 O   0  0  0  0  0  0  0  0  0  0  0  0
   38.8410    0.4990   13.8760 C   0  0  1  0  0  0  0  0  0  0  0  0
   34.7250   -2.8160   11.5350 N   0  0  0  0  0  0  0  0  0  0  0  0
   40.4590    2.9330   16.5100 N   0  0  0  0  0  0  0  0  0  0  0  0
   37.2940    5.3990   20.5540 C   0  0  0  0  0  0  0  0  0  0  0  0
   40.2060    5.2790   16.7710 C   0  0  2  0  0  0  0  0  0  0  0  0
   39.0130    4.8640   17.4520 O   0  0  0  0  0  0  0  0  0  0  0  0
   39.6620    0.0360   12.6800 C   0  0  2  0  0  0  0  0  0  0  0  0
   38.7460   -0.5440   11.7470 O   0  0  0  0  0  0  0  0  0  0  0  0
   35.0710   -3.7780   12.4060 C   0  0  0  0  0  0  0  0  0  0  0  0
   34.3850   -4.8200   12.4950 O   0  0  0  0  0  0  0  0  0  0  0  0
   36.8950    4.4320   21.4640 C   0  0  0  0  0  0  0  0  0  0  0  0
   40.7050    4.1930   15.8200 C   0  0  1  0  0  0  0  0  0  0  0  0
   42.1070    4.3380   15.5500 O   0  0  0  0  0  0  0  0  0  0  0  0
   40.7350   -0.9830   13.0580 C   0  0  0  0  0  0  0  0  0  0  0  0
   40.1470   -2.1440   13.6590 O   0  0  0  0  0  0  0  0  0  0  0  0
   36.1960   -3.6180   13.2110 C   0  0  0  0  0  0  0  0  0  0  0  0
   35.9080    4.7530   22.3930 C   0  0  0  0  0  0  0  0  0  0  0  0
   35.4940    3.8330   23.2950 N   0  0  0  0  0  0  0  0  0  0  0  0
   36.9520   -2.4530   13.1020 C   0  0  0  0  0  0  0  0  0  0  0  0
   37.6160    3.3210   21.2120 N   0  0  0  0  0  0  0  0  0  0  0  0
   38.4430    3.5940   20.1740 C   0  0  0  0  0  0  0  0  0  0  0  0
   38.2380    4.8600   19.7760 N   0  0  0  0  0  0  0  0  0  0  0  0
   40.2800    1.6320   15.7430 S   0  0  0  0  0  0  0  0  0  0  0  0
   38.4008    6.5308   18.5033 H   0  0  0  0  0  0  0  0  0  0  0  0
   36.9347    0.3655   11.3077 H   0  0  0  0  0  0  0  0  0  0  0  0
   38.4003    2.4310   14.7226 H   0  0  0  0  0  0  0  0  0  0  0  0
   39.8326    2.3974   13.6390 H   0  0  0  0  0  0  0  0  0  0  0  0
   35.3178    7.9019   21.5032 H   0  0  0  0  0  0  0  0  0  0  0  0
   40.6862    5.1970   19.9055 H   0  0  0  0  0  0  0  0  0  0  0  0
   40.2074    7.8163   18.8544 H   0  0  0  0  0  0  0  0  0  0  0  0
   36.7319    0.0815   14.1447 H   0  0  0  0  0  0  0  0  0  0  0  0
   37.0823    1.5835   13.2238 H   0  0  0  0  0  0  0  0  0  0  0  0
   41.9233    4.8318   18.0234 H   0  0  0  0  0  0  0  0  0  0  0  0
   41.3077    7.5367   17.3181 H   0  0  0  0  0  0  0  0  0  0  0  0
   38.9368   -0.2412   14.6841 H   0  0  0  0  0  0  0  0  0  0  0  0
   33.9166   -2.9409   10.9598 H   0  0  0  0  0  0  0  0  0  0  0  0
   40.4068    2.9237   17.5086 H   0  0  0  0  0  0  0  0  0  0  0  0
   39.9874    6.1747   16.1710 H   0  0  0  0  0  0  0  0  0  0  0  0
   40.1541    0.9071   12.2228 H   0  0  0  0  0  0  0  0  0  0  0  0
   40.1461    4.2300   14.8733 H   0  0  0  0  0  0  0  0  0  0  0  0
   42.2583    5.1611   15.1005 H   0  0  0  0  0  0  0  0  0  0  0  0
   41.4338   -0.5225   13.7718 H   0  0  0  0  0  0  0  0  0  0  0  0
   41.2815   -1.2839   12.1520 H   0  0  0  0  0  0  0  0  0  0  0  0
   39.5449   -2.5468   13.0444 H   0  0  0  0  0  0  0  0  0  0  0  0
   36.4817   -4.3953   13.9182 H   0  0  0  0  0  0  0  0  0  0  0  0
   35.9116    2.8914   23.2990 H   0  0  0  0  0  0  0  0  0  0  0  0
   34.7613    4.0743   23.9775 H   0  0  0  0  0  0  0  0  0  0  0  0
   37.8350   -2.3194   13.7252 H   0  0  0  0  0  0  0  0  0  0  0  0
   39.1575    2.8998   19.7342 H   0  0  0  0  0  0  0  0  0  0  0  0
  1 33  1  0  0  0  0
  2  8  1  0  0  0  0
  2 38  1  0  0  0  0
  2 40  1  6  0  0  0
  3  4  1  0  0  0  0
  3 24  1  0  0  0  0
  3 41  1  6  0  0  0
  4 11  1  0  0  0  0
  4 35  1  0  0  0  0
  5 17  1  0  0  0  0
  5 42  1  0  0  0  0
  5 43  1  0  0  0  0
  7  1  2  0  0  0  0
  7 44  1  0  0  0  0
  8  9  1  0  0  0  0
  8 45  1  1  0  0  0
  9 46  1  0  0  0  0
 10  3  1  0  0  0  0
 10 47  1  0  0  0  0
 10 48  1  0  0  0  0
 11 12  2  0  0  0  0
 11 18  1  0  0  0  0
 14  7  1  0  0  0  0
 15  8  1  0  0  0  0
 15 16  1  0  0  0  0
 15 49  1  1  0  0  0
 16 50  1  0  0  0  0
 17 10  1  0  0  0  0
 17 23  1  0  0  0  0
 17 51  1  1  0  0  0
 18 25  1  0  0  0  0
 18 52  1  0  0  0  0
 19 39  1  0  0  0  0
 19 53  1  0  0  0  0
 20 14  2  0  0  0  0
 20 27  1  0  0  0  0
 21 15  1  0  0  0  0
 21 22  1  0  0  0  0
 21 28  1  0  0  0  0
 21 54  1  6  0  0  0
 22  2  1  0  0  0  0
 23 24  1  0  0  0  0
 23 30  1  0  0  0  0
 23 55  1  6  0  0  0
 25 26  2  0  0  0  0
 25 32  1  0  0  0  0
 27 33  2  0  0  0  0
 27 36  1  0  0  0  0
 28 19  1  0  0  0  0
 28 29  1  0  0  0  0
 28 56  1  6  0  0  0
 29 57  1  0  0  0  0
 30 31  1  0  0  0  0
 30 58  1  0  0  0  0
 30 59  1  0  0  0  0
 31 60  1  0  0  0  0
 32 35  2  0  0  0  0
 32 61  1  0  0  0  0
 33 34  1  0  0  0  0
 34 62  1  0  0  0  0
 34 63  1  0  0  0  0
 35 64  1  0  0  0  0
 36 37  2  0  0  0  0
 37 38  1  0  0  0  0
 37 65  1  0  0  0  0
 38 20  1  0  0  0  0
 39  5  1  0  0  0  0
 39  6  2  0  0  0  0
 39 13  2  0  0  0  0
M  END
