2xp5_ligand
 OpenBabel08222323343D

 24 25  0  0  0  0  0  0  0  0999 V2000
  -37.4850   28.4410   27.3900 O   0  5  0  0  0  0  0  0  0  0  0  0
  -37.7380   28.1510   26.1990 C   0  0  0  0  0  0  0  0  0  0  0  0
  -38.7680   28.5830   25.6820 O   0  0  0  0  0  0  0  0  0  0  0  0
  -36.8500   27.1730   25.3390 C   0  0  0  0  0  0  0  0  0  0  0  0
  -37.1340   26.7090   24.0460 C   0  0  0  0  0  0  0  0  0  0  0  0
  -36.1190   25.8980   23.6800 N   0  0  0  0  0  0  0  0  0  0  0  0
  -35.2250   25.8500   24.7240 C   0  0  0  0  0  0  0  0  0  0  0  0
  -35.6900   26.6570   25.7080 N   0  0  0  0  0  0  0  0  0  0  0  0
  -34.0100   25.1430   24.7950 C   0  0  0  0  0  0  0  0  0  0  0  0
  -33.3370   24.7610   23.6170 C   0  0  0  0  0  0  0  0  0  0  0  0
  -32.1150   24.0540   23.6470 C   0  0  0  0  0  0  0  0  0  0  0  0
  -31.5520   23.7450   24.8990 C   0  0  0  0  0  0  0  0  0  0  0  0
  -32.1830   24.1480   26.0950 C   0  0  0  0  0  0  0  0  0  0  0  0
  -33.4200   24.8350   26.0280 C   0  0  0  0  0  0  0  0  0  0  0  0
  -38.3780   27.0810   23.1580 C   0  0  0  0  0  0  0  0  0  0  0  0
  -36.0300   25.4039   22.7806 H   0  0  0  0  0  0  0  0  0  0  0  0
  -33.7712   25.0181   22.6576 H   0  0  0  0  0  0  0  0  0  0  0  0
  -31.6228   23.7566   22.7281 H   0  0  0  0  0  0  0  0  0  0  0  0
  -30.6218   23.1904   24.9453 H   0  0  0  0  0  0  0  0  0  0  0  0
  -31.7262   23.9342   27.0545 H   0  0  0  0  0  0  0  0  0  0  0  0
  -33.9182   25.1271   26.9454 H   0  0  0  0  0  0  0  0  0  0  0  0
  -39.0388   27.7588   23.7182 H   0  0  0  0  0  0  0  0  0  0  0  0
  -38.9287   26.1654   22.8963 H   0  0  0  0  0  0  0  0  0  0  0  0
  -38.0365   27.5789   22.2386 H   0  0  0  0  0  0  0  0  0  0  0  0
  1  2  1  0  0  0  0
  2  3  2  0  0  0  0
  2  4  1  0  0  0  0
  4  5  2  0  0  0  0
  4  8  1  0  0  0  0
  5  6  1  0  0  0  0
  5 15  1  0  0  0  0
  6  7  1  0  0  0  0
  6 16  1  0  0  0  0
  7  8  2  0  0  0  0
  7  9  1  0  0  0  0
  9 10  2  0  0  0  0
  9 14  1  0  0  0  0
 10 11  1  0  0  0  0
 10 17  1  0  0  0  0
 11 12  2  0  0  0  0
 11 18  1  0  0  0  0
 12 13  1  0  0  0  0
 12 19  1  0  0  0  0
 13 14  2  0  0  0  0
 13 20  1  0  0  0  0
 14 21  1  0  0  0  0
 15 22  1  0  0  0  0
 15 23  1  0  0  0  0
 15 24  1  0  0  0  0
M  CHG  1   1  -1
M  END
