2xp6_ligand
 OpenBabel08222323343D

 24 25  0  0  0  0  0  0  0  0999 V2000
  -37.8530   28.3630   27.6200 O   0  5  0  0  0  0  0  0  0  0  0  0
  -38.1060   28.1520   26.4360 C   0  0  0  0  0  0  0  0  0  0  0  0
  -39.0270   28.7820   25.9190 O   0  0  0  0  0  0  0  0  0  0  0  0
  -37.2130   27.1770   25.6380 C   0  0  0  0  0  0  0  0  0  0  0  0
  -37.4050   26.6840   24.3470 C   0  0  0  0  0  0  0  0  0  0  0  0
  -36.3630   25.9020   24.0970 N   0  0  0  0  0  0  0  0  0  0  0  0
  -35.5230   25.9250   25.1470 C   0  0  0  0  0  0  0  0  0  0  0  0
  -36.0250   26.7200   26.1020 N   0  0  0  0  0  0  0  0  0  0  0  0
  -34.3210   25.2570   25.2120 C   0  0  0  0  0  0  0  0  0  0  0  0
  -33.6760   25.1900   26.4180 C   0  0  0  0  0  0  0  0  0  0  0  0
  -32.4260   24.5200   26.4710 C   0  0  0  0  0  0  0  0  0  0  0  0
  -31.8520   23.9350   25.3210 C   0  0  0  0  0  0  0  0  0  0  0  0
  -32.5000   24.0560   24.0850 C   0  0  0  0  0  0  0  0  0  0  0  0
  -33.7410   24.7260   24.0510 C   0  0  0  0  0  0  0  0  0  0  0  0
  -31.5940   24.4120   27.9890 Cl  0  0  0  0  0  0  0  0  0  0  0  0
  -38.5780   26.9250   23.3700 C   0  0  0  0  0  0  0  0  0  0  0  0
  -35.5925   26.9403   27.0105 H   0  0  0  0  0  0  0  0  0  0  0  0
  -34.1077   25.6359   27.3067 H   0  0  0  0  0  0  0  0  0  0  0  0
  -30.9149   23.3951   25.3943 H   0  0  0  0  0  0  0  0  0  0  0  0
  -32.0612   23.6472   23.1820 H   0  0  0  0  0  0  0  0  0  0  0  0
  -34.2587   24.8329   23.1046 H   0  0  0  0  0  0  0  0  0  0  0  0
  -38.3951   26.3755   22.4348 H   0  0  0  0  0  0  0  0  0  0  0  0
  -38.6598   28.0003   23.1533 H   0  0  0  0  0  0  0  0  0  0  0  0
  -39.5140   26.5707   23.8263 H   0  0  0  0  0  0  0  0  0  0  0  0
  1  2  1  0  0  0  0
  2  3  2  0  0  0  0
  2  4  1  0  0  0  0
  4  5  2  0  0  0  0
  4  8  1  0  0  0  0
  5  6  1  0  0  0  0
  5 16  1  0  0  0  0
  6  7  2  0  0  0  0
  7  8  1  0  0  0  0
  7  9  1  0  0  0  0
  8 17  1  0  0  0  0
  9 10  2  0  0  0  0
  9 14  1  0  0  0  0
 10 11  1  0  0  0  0
 10 18  1  0  0  0  0
 11 12  2  0  0  0  0
 11 15  1  0  0  0  0
 12 13  1  0  0  0  0
 12 19  1  0  0  0  0
 13 14  2  0  0  0  0
 13 20  1  0  0  0  0
 14 21  1  0  0  0  0
 16 22  1  0  0  0  0
 16 23  1  0  0  0  0
 16 24  1  0  0  0  0
M  CHG  1   1  -1
M  END
