2xs8_ligand
 OpenBabel08222323343D

154155  0  0  1  0  0  0  0  0999 V2000
  -70.7150  -39.2870  -59.3330 N   0  3  0  0  0  0  0  0  0  0  0  0
  -70.9560  -38.4510  -60.5090 C   0  0  2  0  0  0  0  0  0  0  0  0
  -70.1590  -37.1500  -60.4230 C   0  0  0  0  0  0  0  0  0  0  0  0
  -69.7130  -36.6060  -61.4400 O   0  0  0  0  0  0  0  0  0  0  0  0
  -72.4460  -38.1540  -60.6650 C   0  0  0  0  0  0  0  0  0  0  0  0
  -69.9970  -36.6510  -59.2000 N   0  0  0  0  0  0  0  0  0  0  0  0
  -69.1560  -35.4860  -58.9470 C   0  0  2  0  0  0  0  0  0  0  0  0
  -67.8190  -35.9010  -58.3270 C   0  0  0  0  0  0  0  0  0  0  0  0
  -67.0100  -35.0570  -57.9350 O   0  0  0  0  0  0  0  0  0  0  0  0
  -69.8820  -34.4740  -58.0560 C   0  0  0  0  0  0  0  0  0  0  0  0
  -71.0210  -33.7920  -58.7570 C   0  0  0  0  0  0  0  0  0  0  0  0
  -70.8070  -32.6690  -59.5400 C   0  0  0  0  0  0  0  0  0  0  0  0
  -72.3140  -34.2830  -58.6570 C   0  0  0  0  0  0  0  0  0  0  0  0
  -71.8510  -32.0450  -60.1950 C   0  0  0  0  0  0  0  0  0  0  0  0
  -73.3680  -33.6640  -59.3090 C   0  0  0  0  0  0  0  0  0  0  0  0
  -73.1300  -32.5490  -60.0760 C   0  0  0  0  0  0  0  0  0  0  0  0
  -74.1770  -31.9360  -60.7220 O   0  0  0  0  0  0  0  0  0  0  0  0
  -67.5960  -37.2090  -58.2420 N   0  0  0  0  0  0  0  0  0  0  0  0
  -66.3070  -37.7290  -57.8020 C   0  0  2  0  0  0  0  0  0  0  0  0
  -65.1640  -37.2520  -58.7060 C   0  0  0  0  0  0  0  0  0  0  0  0
  -64.1160  -36.8530  -58.2100 O   0  0  0  0  0  0  0  0  0  0  0  0
  -66.3330  -39.2590  -57.7180 C   0  0  0  0  0  0  0  0  0  0  0  0
  -67.3800  -39.7740  -56.7400 C   0  0  0  0  0  0  0  0  0  0  0  0
  -67.8440  -38.9770  -55.8940 O   0  5  0  0  0  0  0  0  0  0  0  0
  -67.7320  -40.9740  -56.8130 O   0  0  0  0  0  0  0  0  0  0  0  0
  -65.3670  -37.2780  -60.0360 N   0  0  0  0  0  0  0  0  0  0  0  0
  -64.3190  -36.8330  -60.9620 C   0  0  2  0  0  0  0  0  0  0  0  0
  -63.8850  -35.3830  -60.7270 C   0  0  0  0  0  0  0  0  0  0  0  0
  -62.7510  -35.0170  -61.0490 O   0  0  0  0  0  0  0  0  0  0  0  0
  -64.9900  -36.9680  -62.3370 C   0  0  0  0  0  0  0  0  0  0  0  0
  -66.4510  -36.9530  -62.0560 C   0  0  0  0  0  0  0  0  0  0  0  0
  -66.5860  -37.6810  -60.7560 C   0  0  0  0  0  0  0  0  0  0  0  0
  -64.7800  -34.5690  -60.1770 N   0  0  0  0  0  0  0  0  0  0  0  0
  -64.4760  -33.1650  -59.9320 C   0  0  2  0  0  0  0  0  0  0  0  0
  -63.8390  -32.9700  -58.5620 C   0  0  0  0  0  0  0  0  0  0  0  0
  -62.9720  -32.1180  -58.3960 O   0  0  0  0  0  0  0  0  0  0  0  0
  -65.7230  -32.3070  -60.0760 C   0  0  0  0  0  0  0  0  0  0  0  0
  -64.2660  -33.7560  -57.5790 N   0  0  0  0  0  0  0  0  0  0  0  0
  -63.6320  -33.7100  -56.2650 C   0  0  2  0  0  0  0  0  0  0  0  0
  -62.1660  -34.1170  -56.3530 C   0  0  0  0  0  0  0  0  0  0  0  0
  -61.3370  -33.6720  -55.5570 O   0  0  0  0  0  0  0  0  0  0  0  0
  -64.3440  -34.6250  -55.2760 C   0  0  0  0  0  0  0  0  0  0  0  0
  -65.6810  -34.1240  -54.8050 C   0  0  0  0  0  0  0  0  0  0  0  0
  -66.0420  -34.7950  -53.5030 C   0  0  0  0  0  0  0  0  0  0  0  0
  -67.4790  -34.7870  -53.2710 N   0  0  0  0  0  0  0  0  0  0  0  0
  -68.1420  -33.7600  -52.7560 C   0  0  0  0  0  3  0  0  0  0  0  0
  -67.4900  -32.6550  -52.4250 N   0  0  0  0  0  0  0  0  0  0  0  0
  -69.4560  -33.8360  -52.5790 N   0  0  0  0  0  0  0  0  0  0  0  0
  -61.8560  -34.9740  -57.3190 N   0  0  0  0  0  0  0  0  0  0  0  0
  -60.4920  -35.4440  -57.5060 C   0  0  2  0  0  0  0  0  0  0  0  0
  -59.5600  -34.2700  -57.7790 C   0  0  0  0  0  0  0  0  0  0  0  0
  -58.4310  -34.2330  -57.2830 O   0  0  0  0  0  0  0  0  0  0  0  0
  -60.4230  -36.4390  -58.6670 C   0  0  0  0  0  0  0  0  0  0  0  0
  -59.0450  -37.0510  -58.8910 C   0  0  0  0  0  0  0  0  0  0  0  0
  -58.7460  -37.1880  -60.3770 C   0  0  0  0  0  0  0  0  0  0  0  0
  -57.6670  -38.2200  -60.6370 C   0  0  0  0  0  0  0  0  0  0  0  0
  -58.0800  -39.5740  -60.1710 N   0  3  0  0  0  0  0  0  0  0  0  0
  -60.0450  -33.3080  -58.5600 N   0  0  0  0  0  0  0  0  0  0  0  0
  -59.2220  -32.1830  -58.9970 C   0  0  2  0  0  0  0  0  0  0  0  0
  -58.9780  -31.1500  -57.8940 C   0  0  0  0  0  0  0  0  0  0  0  0
  -58.1450  -30.2510  -58.0460 O   0  0  0  0  0  0  0  0  0  0  0  0
  -59.8240  -31.5300  -60.2420 C   0  0  0  0  0  0  0  0  0  0  0  0
  -59.9360  -32.4660  -61.4490 C   0  0  0  0  0  0  0  0  0  0  0  0
  -60.4100  -31.7170  -62.6900 C   0  0  0  0  0  0  0  0  0  0  0  0
  -58.5950  -33.1500  -61.7090 C   0  0  0  0  0  0  0  0  0  0  0  0
  -59.7060  -31.2880  -56.7880 N   0  0  0  0  0  0  0  0  0  0  0  0
  -59.4530  -30.4860  -55.5950 C   0  0  2  0  0  0  0  0  0  0  0  0
  -58.2520  -31.0460  -54.8220 C   0  0  0  0  0  0  0  0  0  0  0  0
  -58.3000  -31.2290  -53.6020 O   0  5  0  0  0  0  0  0  0  0  0  0
  -60.6940  -30.4380  -54.7020 C   0  0  0  0  0  0  0  0  0  0  0  0
  -61.9550  -29.8170  -55.3110 C   0  0  0  0  0  0  0  0  0  0  0  0
  -63.0660  -29.7350  -54.2790 C   0  0  0  0  0  0  0  0  0  0  0  0
  -61.6640  -28.4410  -55.8730 C   0  0  0  0  0  0  0  0  0  0  0  0
  -57.1960  -31.3330  -55.3930 O   0  0  0  0  0  0  0  0  0  0  0  0
  -71.2495  -40.1381  -59.4106 H   0  0  0  0  0  0  0  0  0  0  0  0
  -70.9957  -38.7885  -58.5031 H   0  0  0  0  0  0  0  0  0  0  0  0
  -69.7338  -39.5105  -59.2750 H   0  0  0  0  0  0  0  0  0  0  0  0
  -70.6193  -39.0036  -61.3985 H   0  0  0  0  0  0  0  0  0  0  0  0
  -72.6034  -37.5253  -61.5538 H   0  0  0  0  0  0  0  0  0  0  0  0
  -72.8098  -37.6244  -59.7722 H   0  0  0  0  0  0  0  0  0  0  0  0
  -72.9979  -39.0983  -60.7815 H   0  0  0  0  0  0  0  0  0  0  0  0
  -70.4655  -37.0874  -58.4318 H   0  0  0  0  0  0  0  0  0  0  0  0
  -68.9471  -35.0011  -59.9120 H   0  0  0  0  0  0  0  0  0  0  0  0
  -69.1603  -33.7094  -57.7326 H   0  0  0  0  0  0  0  0  0  0  0  0
  -70.2770  -35.0013  -57.1751 H   0  0  0  0  0  0  0  0  0  0  0  0
  -69.8028  -32.2732  -59.6403 H   0  0  0  0  0  0  0  0  0  0  0  0
  -72.5033  -35.1666  -58.0582 H   0  0  0  0  0  0  0  0  0  0  0  0
  -71.6664  -31.1641  -60.7992 H   0  0  0  0  0  0  0  0  0  0  0  0
  -74.3740  -34.0567  -59.2147 H   0  0  0  0  0  0  0  0  0  0  0  0
  -73.8530  -31.1859  -61.2068 H   0  0  0  0  0  0  0  0  0  0  0  0
  -68.3260  -37.8480  -58.4844 H   0  0  0  0  0  0  0  0  0  0  0  0
  -66.1178  -37.3395  -56.7908 H   0  0  0  0  0  0  0  0  0  0  0  0
  -65.3431  -39.6108  -57.3919 H   0  0  0  0  0  0  0  0  0  0  0  0
  -66.5550  -39.6630  -58.7167 H   0  0  0  0  0  0  0  0  0  0  0  0
  -63.4381  -37.4875  -60.8870 H   0  0  0  0  0  0  0  0  0  0  0  0
  -64.6986  -37.9133  -62.8182 H   0  0  0  0  0  0  0  0  0  0  0  0
  -64.7127  -36.1250  -62.9869 H   0  0  0  0  0  0  0  0  0  0  0  0
  -67.0061  -37.4711  -62.8519 H   0  0  0  0  0  0  0  0  0  0  0  0
  -66.8194  -35.9206  -61.9643 H   0  0  0  0  0  0  0  0  0  0  0  0
  -67.4900  -37.3642  -60.2152 H   0  0  0  0  0  0  0  0  0  0  0  0
  -66.6142  -38.7696  -60.9113 H   0  0  0  0  0  0  0  0  0  0  0  0
  -65.6795  -34.9269  -59.9264 H   0  0  0  0  0  0  0  0  0  0  0  0
  -63.7504  -32.8388  -60.6917 H   0  0  0  0  0  0  0  0  0  0  0  0
  -65.4674  -31.2540  -59.8866 H   0  0  0  0  0  0  0  0  0  0  0  0
  -66.4808  -32.6366  -59.3500 H   0  0  0  0  0  0  0  0  0  0  0  0
  -66.1229  -32.4095  -61.0956 H   0  0  0  0  0  0  0  0  0  0  0  0
  -65.0274  -34.3837  -57.7408 H   0  0  0  0  0  0  0  0  0  0  0  0
  -63.6889  -32.6770  -55.8912 H   0  0  0  0  0  0  0  0  0  0  0  0
  -63.6955  -34.7489  -54.3962 H   0  0  0  0  0  0  0  0  0  0  0  0
  -64.4954  -35.6010  -55.7603 H   0  0  0  0  0  0  0  0  0  0  0  0
  -66.4459  -34.3557  -55.5608 H   0  0  0  0  0  0  0  0  0  0  0  0
  -65.6320  -33.0354  -54.6547 H   0  0  0  0  0  0  0  0  0  0  0  0
  -65.5453  -34.2628  -52.6784 H   0  0  0  0  0  0  0  0  0  0  0  0
  -65.6916  -35.8373  -53.5305 H   0  0  0  0  0  0  0  0  0  0  0  0
  -68.0139  -35.6306  -53.5222 H   0  0  0  0  0  0  0  0  0  0  0  0
  -68.0015  -31.8555  -52.0249 H   0  0  0  0  0  0  0  0  0  0  0  0
  -66.4717  -32.5955  -52.5678 H   0  0  0  0  0  0  0  0  0  0  0  0
  -69.9615  -34.6956  -52.8368 H   0  0  0  0  0  0  0  0  0  0  0  0
  -69.9696  -33.0353  -52.1840 H   0  0  0  0  0  0  0  0  0  0  0  0
  -62.5753  -35.3032  -57.9307 H   0  0  0  0  0  0  0  0  0  0  0  0
  -60.1648  -35.9502  -56.5858 H   0  0  0  0  0  0  0  0  0  0  0  0
  -60.7203  -35.9150  -59.5873 H   0  0  0  0  0  0  0  0  0  0  0  0
  -61.1326  -37.2545  -58.4638 H   0  0  0  0  0  0  0  0  0  0  0  0
  -59.0129  -38.0464  -58.4241 H   0  0  0  0  0  0  0  0  0  0  0  0
  -58.2845  -36.4045  -58.4289 H   0  0  0  0  0  0  0  0  0  0  0  0
  -58.4098  -36.2150  -60.7645 H   0  0  0  0  0  0  0  0  0  0  0  0
  -59.6648  -37.4931  -60.8992 H   0  0  0  0  0  0  0  0  0  0  0  0
  -56.7522  -37.9224  -60.1035 H   0  0  0  0  0  0  0  0  0  0  0  0
  -57.4646  -38.2606  -61.7174 H   0  0  0  0  0  0  0  0  0  0  0  0
  -57.3414  -40.2337  -60.3588 H   0  0  0  0  0  0  0  0  0  0  0  0
  -58.9153  -39.8570  -60.6590 H   0  0  0  0  0  0  0  0  0  0  0  0
  -58.2626  -39.5471  -59.1800 H   0  0  0  0  0  0  0  0  0  0  0  0
  -60.9990  -33.3565  -58.8559 H   0  0  0  0  0  0  0  0  0  0  0  0
  -58.2399  -32.5904  -59.2788 H   0  0  0  0  0  0  0  0  0  0  0  0
  -59.1902  -30.6766  -60.5248 H   0  0  0  0  0  0  0  0  0  0  0  0
  -60.8324  -31.1702  -59.9896 H   0  0  0  0  0  0  0  0  0  0  0  0
  -60.6797  -33.2417  -61.2141 H   0  0  0  0  0  0  0  0  0  0  0  0
  -60.4794  -32.4164  -63.5362 H   0  0  0  0  0  0  0  0  0  0  0  0
  -59.6934  -30.9184  -62.9323 H   0  0  0  0  0  0  0  0  0  0  0  0
  -61.3990  -31.2760  -62.4967 H   0  0  0  0  0  0  0  0  0  0  0  0
  -58.2733  -33.6829  -60.8021 H   0  0  0  0  0  0  0  0  0  0  0  0
  -57.8428  -32.3930  -61.9756 H   0  0  0  0  0  0  0  0  0  0  0  0
  -58.7032  -33.8667  -62.5364 H   0  0  0  0  0  0  0  0  0  0  0  0
  -60.4467  -31.9597  -56.7742 H   0  0  0  0  0  0  0  0  0  0  0  0
  -59.2146  -29.4597  -55.9110 H   0  0  0  0  0  0  0  0  0  0  0  0
  -60.4365  -29.8571  -53.8041 H   0  0  0  0  0  0  0  0  0  0  0  0
  -60.9372  -31.4711  -54.4131 H   0  0  0  0  0  0  0  0  0  0  0  0
  -62.2933  -30.4629  -56.1346 H   0  0  0  0  0  0  0  0  0  0  0  0
  -63.9599  -29.2869  -54.7374 H   0  0  0  0  0  0  0  0  0  0  0  0
  -62.7363  -29.1128  -53.4339 H   0  0  0  0  0  0  0  0  0  0  0  0
  -63.3067  -30.7459  -53.9182 H   0  0  0  0  0  0  0  0  0  0  0  0
  -60.8585  -28.5124  -56.6187 H   0  0  0  0  0  0  0  0  0  0  0  0
  -61.3514  -27.7709  -55.0586 H   0  0  0  0  0  0  0  0  0  0  0  0
  -62.5707  -28.0404  -56.3499 H   0  0  0  0  0  0  0  0  0  0  0  0
  1  2  1  0  0  0  0
  1 75  1  0  0  0  0
  1 76  1  0  0  0  0
  1 77  1  0  0  0  0
  2  3  1  0  0  0  0
  2  5  1  0  0  0  0
  2 78  1  6  0  0  0
  3  4  2  0  0  0  0
  3  6  1  0  0  0  0
  5 79  1  0  0  0  0
  5 80  1  0  0  0  0
  5 81  1  0  0  0  0
  6  7  1  0  0  0  0
  6 82  1  0  0  0  0
  7  8  1  0  0  0  0
  7 10  1  0  0  0  0
  7 83  1  6  0  0  0
  8  9  2  0  0  0  0
  8 18  1  0  0  0  0
 10 11  1  0  0  0  0
 10 84  1  0  0  0  0
 10 85  1  0  0  0  0
 11 12  2  0  0  0  0
 11 13  1  0  0  0  0
 12 14  1  0  0  0  0
 12 86  1  0  0  0  0
 13 15  2  0  0  0  0
 13 87  1  0  0  0  0
 14 16  2  0  0  0  0
 14 88  1  0  0  0  0
 15 16  1  0  0  0  0
 15 89  1  0  0  0  0
 16 17  1  0  0  0  0
 17 90  1  0  0  0  0
 18 19  1  0  0  0  0
 18 91  1  0  0  0  0
 19 20  1  0  0  0  0
 19 22  1  0  0  0  0
 19 92  1  1  0  0  0
 20 21  2  0  0  0  0
 20 26  1  0  0  0  0
 22 23  1  0  0  0  0
 22 93  1  0  0  0  0
 22 94  1  0  0  0  0
 23 24  1  0  0  0  0
 23 25  2  0  0  0  0
 26 27  1  0  0  0  0
 26 32  1  0  0  0  0
 27 28  1  0  0  0  0
 27 30  1  0  0  0  0
 27 95  1  1  0  0  0
 28 29  2  0  0  0  0
 28 33  1  0  0  0  0
 30 31  1  0  0  0  0
 30 96  1  0  0  0  0
 30 97  1  0  0  0  0
 31 32  1  0  0  0  0
 31 98  1  0  0  0  0
 31 99  1  0  0  0  0
 32100  1  0  0  0  0
 32101  1  0  0  0  0
 33 34  1  0  0  0  0
 33102  1  0  0  0  0
 34 35  1  0  0  0  0
 34 37  1  0  0  0  0
 34103  1  6  0  0  0
 35 36  2  0  0  0  0
 35 38  1  0  0  0  0
 37104  1  0  0  0  0
 37105  1  0  0  0  0
 37106  1  0  0  0  0
 38 39  1  0  0  0  0
 38107  1  0  0  0  0
 39 40  1  0  0  0  0
 39 42  1  0  0  0  0
 39108  1  1  0  0  0
 40 41  2  0  0  0  0
 40 49  1  0  0  0  0
 42 43  1  0  0  0  0
 42109  1  0  0  0  0
 42110  1  0  0  0  0
 43 44  1  0  0  0  0
 43111  1  0  0  0  0
 43112  1  0  0  0  0
 44 45  1  0  0  0  0
 44113  1  0  0  0  0
 44114  1  0  0  0  0
 45 46  1  0  0  0  0
 45115  1  0  0  0  0
 46 47  1  0  0  0  0
 46 48  1  0  0  0  0
 47116  1  0  0  0  0
 47117  1  0  0  0  0
 48118  1  0  0  0  0
 48119  1  0  0  0  0
 49 50  1  0  0  0  0
 49120  1  0  0  0  0
 50 51  1  0  0  0  0
 50 53  1  0  0  0  0
 50121  1  1  0  0  0
 51 52  2  0  0  0  0
 51 58  1  0  0  0  0
 53 54  1  0  0  0  0
 53122  1  0  0  0  0
 53123  1  0  0  0  0
 54 55  1  0  0  0  0
 54124  1  0  0  0  0
 54125  1  0  0  0  0
 55 56  1  0  0  0  0
 55126  1  0  0  0  0
 55127  1  0  0  0  0
 56 57  1  0  0  0  0
 56128  1  0  0  0  0
 56129  1  0  0  0  0
 57130  1  0  0  0  0
 57131  1  0  0  0  0
 57132  1  0  0  0  0
 58 59  1  0  0  0  0
 58133  1  0  0  0  0
 59 60  1  0  0  0  0
 59 62  1  0  0  0  0
 59134  1  6  0  0  0
 60 61  2  0  0  0  0
 60 66  1  0  0  0  0
 62 63  1  0  0  0  0
 62135  1  0  0  0  0
 62136  1  0  0  0  0
 63 64  1  0  0  0  0
 63 65  1  0  0  0  0
 63137  1  0  0  0  0
 64138  1  0  0  0  0
 64139  1  0  0  0  0
 64140  1  0  0  0  0
 65141  1  0  0  0  0
 65142  1  0  0  0  0
 65143  1  0  0  0  0
 66 67  1  0  0  0  0
 66144  1  0  0  0  0
 67 68  1  0  0  0  0
 67 70  1  0  0  0  0
 67145  1  6  0  0  0
 68 69  1  0  0  0  0
 68 74  2  0  0  0  0
 70 71  1  0  0  0  0
 70146  1  0  0  0  0
 70147  1  0  0  0  0
 71 72  1  0  0  0  0
 71 73  1  0  0  0  0
 71148  1  0  0  0  0
 72149  1  0  0  0  0
 72150  1  0  0  0  0
 72151  1  0  0  0  0
 73152  1  0  0  0  0
 73153  1  0  0  0  0
 73154  1  0  0  0  0
M  CHG  4   1   1  24  -1  57   1  69  -1
M  END
