2xx2_ligand
 OpenBabel08222323343D

 45 46  0  0  0  0  0  0  0  0999 V2000
   12.0590   15.1390    6.2820 C   0  0  0  0  0  0  0  0  0  0  0  0
   11.3010   15.8100    5.1330 C   0  0  0  0  0  0  0  0  0  0  0  0
   11.1010   17.1880    5.1920 C   0  0  0  0  0  0  0  0  0  0  0  0
   10.4330   17.8550    4.1680 C   0  0  0  0  0  0  0  0  0  0  0  0
    9.9590   17.1010    3.0910 C   0  0  0  0  0  0  0  0  0  0  0  0
   10.1630   15.7260    3.0370 C   0  0  0  0  0  0  0  0  0  0  0  0
   10.8330   15.0680    4.0560 C   0  0  0  0  0  0  0  0  0  0  0  0
   11.0300   13.5430    3.9620 C   0  0  0  0  0  0  0  0  0  0  0  0
    9.7690   12.6610    4.0870 C   0  0  0  0  0  0  0  0  0  0  0  0
    9.8710   11.1480    3.8670 C   0  0  0  0  0  0  0  0  0  0  0  0
    9.9940   10.4700    5.2490 C   0  0  0  0  0  0  0  0  0  0  0  0
    8.6040   10.4170    5.9120 C   0  0  0  0  0  0  0  0  0  0  0  0
    8.7750   10.3980    7.4420 C   0  0  0  0  0  0  0  0  0  0  0  0
    9.3350   11.7410    7.9450 C   0  0  0  0  0  0  0  0  0  0  0  0
   10.6830   11.8000    8.5260 C   0  0  0  0  0  0  0  0  0  0  0  0
   11.1370   13.0330    9.3340 C   0  0  0  0  0  0  0  0  0  0  0  0
   12.0720   13.9120    8.4790 C   0  0  0  0  0  0  0  0  0  0  0  0
   13.2480   15.2980    6.3700 O   0  0  0  0  0  0  0  0  0  0  0  0
   11.6070   17.8900    6.3150 O   0  0  0  0  0  0  0  0  0  0  0  0
    9.2670   17.7310    2.0230 O   0  0  0  0  0  0  0  0  0  0  0  0
    9.5770   14.8320    1.6510 Cl  0  0  0  0  0  0  0  0  0  0  0  0
   11.3500   14.3310    7.2690 N   0  0  0  0  0  0  0  0  0  0  0  0
    8.7090   13.1460    4.3860 O   0  0  0  0  0  0  0  0  0  0  0  0
   10.2850   18.9282    4.2053 H   0  0  0  0  0  0  0  0  0  0  0  0
   11.7212   13.2482    4.7653 H   0  0  0  0  0  0  0  0  0  0  0  0
   11.4891   13.3279    2.9858 H   0  0  0  0  0  0  0  0  0  0  0  0
   10.7584   10.9185    3.2588 H   0  0  0  0  0  0  0  0  0  0  0  0
    8.9695   10.7844    3.3522 H   0  0  0  0  0  0  0  0  0  0  0  0
   10.6822   11.0485    5.8828 H   0  0  0  0  0  0  0  0  0  0  0  0
   10.3815    9.4481    5.1245 H   0  0  0  0  0  0  0  0  0  0  0  0
    8.0765    9.5073    5.5892 H   0  0  0  0  0  0  0  0  0  0  0  0
    8.0216   11.3025    5.6176 H   0  0  0  0  0  0  0  0  0  0  0  0
    9.4703    9.5913    7.7174 H   0  0  0  0  0  0  0  0  0  0  0  0
    7.7974   10.2160    7.9122 H   0  0  0  0  0  0  0  0  0  0  0  0
    8.6403   12.1069    8.7153 H   0  0  0  0  0  0  0  0  0  0  0  0
    9.3277   12.4300    7.0875 H   0  0  0  0  0  0  0  0  0  0  0  0
   11.3906   11.6935    7.6906 H   0  0  0  0  0  0  0  0  0  0  0  0
   10.7746   10.9331    9.1969 H   0  0  0  0  0  0  0  0  0  0  0  0
   11.6735   12.7003   10.2348 H   0  0  0  0  0  0  0  0  0  0  0  0
   10.2546   13.6200    9.6286 H   0  0  0  0  0  0  0  0  0  0  0  0
   12.9652   13.3358    8.1960 H   0  0  0  0  0  0  0  0  0  0  0  0
   12.3750   14.7989    9.0548 H   0  0  0  0  0  0  0  0  0  0  0  0
   12.2388   18.5371    6.0242 H   0  0  0  0  0  0  0  0  0  0  0  0
    9.2028   18.6632    2.1949 H   0  0  0  0  0  0  0  0  0  0  0  0
   10.3957   14.0686    7.1256 H   0  0  0  0  0  0  0  0  0  0  0  0
  1  2  1  0  0  0  0
  1 18  2  0  0  0  0
  1 22  1  0  0  0  0
  2  3  2  0  0  0  0
  2  7  1  0  0  0  0
  3  4  1  0  0  0  0
  3 19  1  0  0  0  0
  4  5  2  0  0  0  0
  4 24  1  0  0  0  0
  5  6  1  0  0  0  0
  5 20  1  0  0  0  0
  6  7  2  0  0  0  0
  6 21  1  0  0  0  0
  7  8  1  0  0  0  0
  8  9  1  0  0  0  0
  8 25  1  0  0  0  0
  8 26  1  0  0  0  0
  9 10  1  0  0  0  0
  9 23  2  0  0  0  0
 10 11  1  0  0  0  0
 10 27  1  0  0  0  0
 10 28  1  0  0  0  0
 11 12  1  0  0  0  0
 11 29  1  0  0  0  0
 11 30  1  0  0  0  0
 12 13  1  0  0  0  0
 12 31  1  0  0  0  0
 12 32  1  0  0  0  0
 13 14  1  0  0  0  0
 13 33  1  0  0  0  0
 13 34  1  0  0  0  0
 14 15  1  0  0  0  0
 14 35  1  0  0  0  0
 14 36  1  0  0  0  0
 15 16  1  0  0  0  0
 15 37  1  0  0  0  0
 15 38  1  0  0  0  0
 16 17  1  0  0  0  0
 16 39  1  0  0  0  0
 16 40  1  0  0  0  0
 17 22  1  0  0  0  0
 17 41  1  0  0  0  0
 17 42  1  0  0  0  0
 19 43  1  0  0  0  0
 20 44  1  0  0  0  0
 22 45  1  0  0  0  0
M  END
