2xxw_ligand
 OpenBabel08222323343D

 18 17  0  0  1  0  0  0  0  0999 V2000
  -21.9170   -5.4720  -22.9830 N   0  3  0  0  0  0  0  0  0  0  0  0
  -22.5870   -6.1030  -21.8560 C   0  0  2  0  0  0  0  0  0  0  0  0
  -24.0640   -5.7230  -21.7950 C   0  0  0  0  0  0  0  0  0  0  0  0
  -24.6500   -5.3150  -22.7930 O   0  5  0  0  0  0  0  0  0  0  0  0
  -21.8870   -5.7400  -20.5460 C   0  0  0  0  0  0  0  0  0  0  0  0
  -20.6030   -6.5140  -20.2960 C   0  0  0  0  0  0  0  0  0  0  0  0
  -20.8590   -7.9100  -19.7620 C   0  0  0  0  0  0  0  0  0  0  0  0
  -21.9670   -8.1540  -19.2380 O   0  5  0  0  0  0  0  0  0  0  0  0
  -19.9480   -8.7600  -19.8610 O   0  0  0  0  0  0  0  0  0  0  0  0
  -24.7140   -5.8220  -20.7530 O   0  0  0  0  0  0  0  0  0  0  0  0
  -20.9465   -5.7442  -22.9922 H   0  0  0  0  0  0  0  0  0  0  0  0
  -21.9841   -4.4700  -22.8957 H   0  0  0  0  0  0  0  0  0  0  0  0
  -22.3562   -5.7646  -23.8418 H   0  0  0  0  0  0  0  0  0  0  0  0
  -22.5222   -7.1929  -21.9895 H   0  0  0  0  0  0  0  0  0  0  0  0
  -22.5799   -5.9422  -19.7160 H   0  0  0  0  0  0  0  0  0  0  0  0
  -21.6452   -4.6671  -20.5687 H   0  0  0  0  0  0  0  0  0  0  0  0
  -19.9959   -5.9623  -19.5632 H   0  0  0  0  0  0  0  0  0  0  0  0
  -20.0502   -6.5951  -21.2435 H   0  0  0  0  0  0  0  0  0  0  0  0
  1  2  1  0  0  0  0
  1 11  1  0  0  0  0
  1 12  1  0  0  0  0
  1 13  1  0  0  0  0
  2  3  1  0  0  0  0
  2  5  1  0  0  0  0
  2 14  1  6  0  0  0
  3  4  1  0  0  0  0
  3 10  2  0  0  0  0
  5  6  1  0  0  0  0
  5 15  1  0  0  0  0
  5 16  1  0  0  0  0
  6  7  1  0  0  0  0
  6 17  1  0  0  0  0
  6 18  1  0  0  0  0
  7  8  1  0  0  0  0
  7  9  2  0  0  0  0
M  CHG  3   1   1   4  -1   8  -1
M  END
