2y34_ligand
 OpenBabel08222323343D

 27 28  0  0  0  0  0  0  0  0999 V2000
   36.3880  -16.7700    2.8300 O   0  5  0  0  0  0  0  0  0  0  0  0
   35.7900  -17.3170    1.8810 C   0  0  0  0  0  0  0  0  0  0  0  0
   34.6200  -17.0780    1.5110 O   0  0  0  0  0  0  0  0  0  0  0  0
   36.5440  -18.3850    1.0890 C   0  0  0  0  0  0  0  0  0  0  0  0
   37.9180  -18.5160    1.5930 N   0  0  0  0  0  0  0  0  0  0  0  0
   38.7190  -19.4490    1.0920 C   0  0  0  0  0  0  0  0  0  0  0  0
   38.3740  -20.2330    0.2060 O   0  0  0  0  0  0  0  0  0  0  0  0
   40.1290  -19.5310    1.6740 C   0  0  0  0  0  0  0  0  0  0  0  0
   40.8050  -20.6740    1.4890 N   0  0  0  0  0  0  0  0  0  0  0  0
   42.0280  -20.8830    1.9960 C   0  0  0  0  0  0  0  0  0  0  0  0
   42.7230  -22.4560    1.7570 Cl  0  0  0  0  0  0  0  0  0  0  0  0
   42.6510  -19.8780    2.7360 C   0  0  0  0  0  0  0  0  0  0  0  0
   40.6960  -18.4990    2.4140 C   0  0  0  0  0  0  0  0  0  0  0  0
   40.0200  -17.3440    2.6630 O   0  0  0  0  0  0  0  0  0  0  0  0
   41.9710  -18.6780    2.9400 C   0  0  0  0  0  0  0  0  0  0  0  0
   42.5530  -17.6500    3.6730 C   0  0  0  0  0  0  0  0  0  0  0  0
   43.8250  -17.8110    4.2140 C   0  0  0  0  0  0  0  0  0  0  0  0
   44.5060  -19.0070    4.0100 C   0  0  0  0  0  0  0  0  0  0  0  0
   43.9240  -20.0390    3.2760 C   0  0  0  0  0  0  0  0  0  0  0  0
   36.5724  -18.0977    0.0276 H   0  0  0  0  0  0  0  0  0  0  0  0
   36.0251  -19.3492    1.1942 H   0  0  0  0  0  0  0  0  0  0  0  0
   38.2490  -17.9041    2.3114 H   0  0  0  0  0  0  0  0  0  0  0  0
   39.7995  -16.9238    1.8401 H   0  0  0  0  0  0  0  0  0  0  0  0
   42.0149  -16.7211    3.8234 H   0  0  0  0  0  0  0  0  0  0  0  0
   44.2806  -17.0127    4.7885 H   0  0  0  0  0  0  0  0  0  0  0  0
   45.4985  -19.1374    4.4258 H   0  0  0  0  0  0  0  0  0  0  0  0
   44.4628  -20.9675    3.1255 H   0  0  0  0  0  0  0  0  0  0  0  0
  1  2  1  0  0  0  0
  2  3  2  0  0  0  0
  2  4  1  0  0  0  0
  4  5  1  0  0  0  0
  4 20  1  0  0  0  0
  4 21  1  0  0  0  0
  5  6  1  0  0  0  0
  5 22  1  0  0  0  0
  6  7  2  0  0  0  0
  6  8  1  0  0  0  0
  8  9  2  0  0  0  0
  8 13  1  0  0  0  0
  9 10  1  0  0  0  0
 10 11  1  0  0  0  0
 10 12  2  0  0  0  0
 12 15  1  0  0  0  0
 12 19  1  0  0  0  0
 13 14  1  0  0  0  0
 13 15  2  0  0  0  0
 14 23  1  0  0  0  0
 15 16  1  0  0  0  0
 16 17  2  0  0  0  0
 16 24  1  0  0  0  0
 17 18  1  0  0  0  0
 17 25  1  0  0  0  0
 18 19  2  0  0  0  0
 18 26  1  0  0  0  0
 19 27  1  0  0  0  0
M  CHG  1   1  -1
M  END
