2y5k_ligand
 OpenBabel08222323343D

 53 54  0  0  0  0  0  0  0  0999 V2000
   16.6550   58.9840   18.5350 S   0  0  0  0  0  0  0  0  0  0  0  0
   18.3840   58.7730   18.7280 C   0  0  0  0  0  0  0  0  0  0  0  0
   16.0970   59.9680   19.7540 N   0  0  0  0  0  0  0  0  0  0  0  0
   19.5360   59.9090   18.0840 S   0  0  0  0  0  0  0  0  0  0  0  0
   15.8220   59.5850   21.0300 C   0  0  0  0  0  0  0  0  0  0  0  0
   15.0190   60.5190   23.1800 C   0  0  0  0  0  0  0  0  0  0  0  0
   14.2000   61.7640   24.9610 C   0  0  0  0  0  0  0  0  0  0  0  0
   19.0280   57.7710   19.3340 C   0  0  0  0  0  0  0  0  0  0  0  0
   14.6430   61.6700   23.7180 N   0  0  0  0  0  0  0  0  0  0  0  0
   20.8830   58.9560   18.6800 C   0  0  0  0  0  0  0  0  0  0  0  0
   15.4180   60.5790   21.8520 N   0  0  0  0  0  0  0  0  0  0  0  0
   13.8110   62.9990   25.4800 N   0  0  0  0  0  0  0  0  0  0  0  0
   20.4100   57.8750   19.3050 C   0  0  0  0  0  0  0  0  0  0  0  0
   13.3370   63.9940   24.6880 C   0  0  0  0  0  0  0  0  0  0  0  0
   14.9370   59.3380   23.9110 C   0  0  0  0  0  0  0  0  0  0  0  0
   14.1100   60.6330   25.7630 C   0  0  0  0  0  0  0  0  0  0  0  0
   16.5320   59.7420   17.3380 O   0  0  0  0  0  0  0  0  0  0  0  0
   16.0790   57.7050   18.7020 O   0  0  0  0  0  0  0  0  0  0  0  0
   14.4760   59.3950   25.2350 C   0  0  0  0  0  0  0  0  0  0  0  0
   15.9600   58.4300   21.4120 O   0  0  0  0  0  0  0  0  0  0  0  0
   12.9920   65.0360   25.2040 O   0  0  0  0  0  0  0  0  0  0  0  0
   13.2610   63.8500   23.3430 N   0  0  0  0  0  0  0  0  0  0  0  0
   22.3510   59.3070   18.5230 C   0  0  0  0  0  0  0  0  0  0  0  0
   14.3920   58.2790   26.0190 O   0  0  0  0  0  0  0  0  0  0  0  0
   21.3280   56.8500   19.9330 C   0  0  0  0  0  0  0  0  0  0  0  0
   24.2230   59.5130   16.9840 O   0  0  0  0  0  0  0  0  0  0  0  0
   22.8150   59.2090   17.0600 C   0  0  0  0  0  0  0  0  0  0  0  0
   12.7790   64.9050   22.4410 C   0  0  0  0  0  0  0  0  0  0  0  0
   13.5380   58.3570   27.1660 C   0  0  0  0  0  0  0  0  0  0  0  0
   24.7280   59.8130   15.6740 C   0  0  0  0  0  0  0  0  0  0  0  0
   15.9499   60.9310   19.5279 H   0  0  0  0  0  0  0  0  0  0  0  0
   18.5096   56.9408   19.8115 H   0  0  0  0  0  0  0  0  0  0  0  0
   15.4046   61.4916   21.4433 H   0  0  0  0  0  0  0  0  0  0  0  0
   13.8836   63.1559   26.4650 H   0  0  0  0  0  0  0  0  0  0  0  0
   15.2238   58.3920   23.4662 H   0  0  0  0  0  0  0  0  0  0  0  0
   13.7598   60.7118   26.7859 H   0  0  0  0  0  0  0  0  0  0  0  0
   13.5481   62.9796   22.9430 H   0  0  0  0  0  0  0  0  0  0  0  0
   22.9489   58.6131   19.1321 H   0  0  0  0  0  0  0  0  0  0  0  0
   22.5097   60.3362   18.8774 H   0  0  0  0  0  0  0  0  0  0  0  0
   20.7266   56.0498   20.3891 H   0  0  0  0  0  0  0  0  0  0  0  0
   21.9424   57.3333   20.7068 H   0  0  0  0  0  0  0  0  0  0  0  0
   21.9825   56.4213   19.1598 H   0  0  0  0  0  0  0  0  0  0  0  0
   22.2507   59.9270   16.4468 H   0  0  0  0  0  0  0  0  0  0  0  0
   22.6387   58.1896   16.6863 H   0  0  0  0  0  0  0  0  0  0  0  0
   12.8139   64.5438   21.4026 H   0  0  0  0  0  0  0  0  0  0  0  0
   13.4189   65.7941   22.5416 H   0  0  0  0  0  0  0  0  0  0  0  0
   11.7434   65.1669   22.7034 H   0  0  0  0  0  0  0  0  0  0  0  0
   13.5610   57.3990   27.7061 H   0  0  0  0  0  0  0  0  0  0  0  0
   12.5086   58.5710   26.8428 H   0  0  0  0  0  0  0  0  0  0  0  0
   13.8885   59.1608   27.8301 H   0  0  0  0  0  0  0  0  0  0  0  0
   25.8051   60.0276   15.7365 H   0  0  0  0  0  0  0  0  0  0  0  0
   24.2021   60.6908   15.2704 H   0  0  0  0  0  0  0  0  0  0  0  0
   24.5639   58.9505   15.0113 H   0  0  0  0  0  0  0  0  0  0  0  0
  1  2  1  0  0  0  0
  1 17  2  0  0  0  0
  1 18  2  0  0  0  0
  2  4  1  0  0  0  0
  2  8  2  0  0  0  0
  3  1  1  0  0  0  0
  3 31  1  0  0  0  0
  4 10  1  0  0  0  0
  5  3  1  0  0  0  0
  5 20  2  0  0  0  0
  6  9  2  0  0  0  0
  6 11  1  0  0  0  0
  6 15  1  0  0  0  0
  7 12  1  0  0  0  0
  7 16  2  0  0  0  0
  8 13  1  0  0  0  0
  8 32  1  0  0  0  0
  9  7  1  0  0  0  0
 10 13  2  0  0  0  0
 10 23  1  0  0  0  0
 11  5  1  0  0  0  0
 11 33  1  0  0  0  0
 12 14  1  0  0  0  0
 12 34  1  0  0  0  0
 13 25  1  0  0  0  0
 14 21  2  0  0  0  0
 14 22  1  0  0  0  0
 15 19  2  0  0  0  0
 15 35  1  0  0  0  0
 16 19  1  0  0  0  0
 16 36  1  0  0  0  0
 19 24  1  0  0  0  0
 22 28  1  0  0  0  0
 22 37  1  0  0  0  0
 23 27  1  0  0  0  0
 23 38  1  0  0  0  0
 23 39  1  0  0  0  0
 24 29  1  0  0  0  0
 25 40  1  0  0  0  0
 25 41  1  0  0  0  0
 25 42  1  0  0  0  0
 26 30  1  0  0  0  0
 27 26  1  0  0  0  0
 27 43  1  0  0  0  0
 27 44  1  0  0  0  0
 28 45  1  0  0  0  0
 28 46  1  0  0  0  0
 28 47  1  0  0  0  0
 29 48  1  0  0  0  0
 29 49  1  0  0  0  0
 29 50  1  0  0  0  0
 30 51  1  0  0  0  0
 30 52  1  0  0  0  0
 30 53  1  0  0  0  0
M  END
