2y5l_ligand
 OpenBabel08222323343D

 27 28  0  0  0  0  0  0  0  0999 V2000
   33.7980   12.4810  -19.3920 Cl  0  0  0  0  0  0  0  0  0  0  0  0
   39.4370    7.9450  -21.0730 S   0  0  0  0  0  0  0  0  0  0  0  0
   40.0940    8.6230  -22.5310 C   0  0  0  0  0  0  0  0  0  0  0  0
   40.9220    7.8190  -23.2570 N   0  0  0  0  0  0  0  0  0  0  0  0
   40.9880    6.6010  -22.6640 C   0  0  0  0  0  0  0  0  0  0  0  0
   40.2640    6.5190  -21.5150 C   0  0  0  0  0  0  0  0  0  0  0  0
   40.1210    4.9580  -20.4050 Br  0  0  0  0  0  0  0  0  0  0  0  0
   39.8710    9.9060  -22.8230 N   0  0  0  0  0  0  0  0  0  0  0  0
   38.6720   13.2420  -21.7080 S   0  0  0  0  0  0  0  0  0  0  0  0
   39.2370   12.0260  -22.4440 N   0  0  0  0  0  0  0  0  0  0  0  0
   39.3100   10.7760  -21.9930 C   0  0  0  0  0  0  0  0  0  0  0  0
   38.8730   10.4310  -20.9060 O   0  0  0  0  0  0  0  0  0  0  0  0
   39.1030   13.2680  -20.3350 O   0  0  0  0  0  0  0  0  0  0  0  0
   39.2000   14.4150  -22.3500 O   0  0  0  0  0  0  0  0  0  0  0  0
   36.9650   13.2740  -21.7790 C   0  0  0  0  0  0  0  0  0  0  0  0
   36.2050   12.9090  -20.6810 C   0  0  0  0  0  0  0  0  0  0  0  0
   36.3450   13.7120  -22.9290 C   0  0  0  0  0  0  0  0  0  0  0  0
   34.8100   12.9570  -20.7820 C   0  0  0  0  0  0  0  0  0  0  0  0
   34.9520   13.7670  -23.0230 C   0  0  0  0  0  0  0  0  0  0  0  0
   34.1770   13.3810  -21.9440 C   0  0  0  0  0  0  0  0  0  0  0  0
   41.5642    5.7699  -23.0680 H   0  0  0  0  0  0  0  0  0  0  0  0
   40.1449   10.2334  -23.7273 H   0  0  0  0  0  0  0  0  0  0  0  0
   39.5904   12.1880  -23.3653 H   0  0  0  0  0  0  0  0  0  0  0  0
   36.6814   12.5920  -19.7604 H   0  0  0  0  0  0  0  0  0  0  0  0
   36.9485   14.0192  -23.7755 H   0  0  0  0  0  0  0  0  0  0  0  0
   34.4809   14.1104  -23.9369 H   0  0  0  0  0  0  0  0  0  0  0  0
   33.0950   13.4088  -22.0040 H   0  0  0  0  0  0  0  0  0  0  0  0
  2  6  1  0  0  0  0
  3  2  1  0  0  0  0
  3  4  2  0  0  0  0
  4  5  1  0  0  0  0
  5  6  2  0  0  0  0
  5 21  1  0  0  0  0
  6  7  1  0  0  0  0
  8  3  1  0  0  0  0
  8 22  1  0  0  0  0
  9 10  1  0  0  0  0
  9 13  2  0  0  0  0
  9 14  2  0  0  0  0
 10 11  1  0  0  0  0
 10 23  1  0  0  0  0
 11  8  1  0  0  0  0
 11 12  2  0  0  0  0
 15  9  1  0  0  0  0
 15 17  1  0  0  0  0
 16 15  2  0  0  0  0
 16 18  1  0  0  0  0
 16 24  1  0  0  0  0
 17 19  2  0  0  0  0
 17 25  1  0  0  0  0
 18  1  1  0  0  0  0
 18 20  2  0  0  0  0
 19 20  1  0  0  0  0
 19 26  1  0  0  0  0
 20 27  1  0  0  0  0
M  END
