2y7p_ligand
 OpenBabel08222323343D

 15 15  0  0  0  0  0  0  0  0999 V2000
   14.8160   48.6310    3.5540 C   0  0  0  0  0  0  0  0  0  0  0  0
   15.5390   49.3720    2.8170 O   0  5  0  0  0  0  0  0  0  0  0  0
   14.9820   48.6050    4.7950 O   0  0  0  0  0  0  0  0  0  0  0  0
   13.7830   47.7510    2.9810 C   0  0  0  0  0  0  0  0  0  0  0  0
   12.9860   46.8930    3.8750 C   0  0  0  0  0  0  0  0  0  0  0  0
   12.0430   46.0320    3.3440 C   0  0  0  0  0  0  0  0  0  0  0  0
   11.8180   45.9740    1.9480 C   0  0  0  0  0  0  0  0  0  0  0  0
   12.5750   46.7800    1.1220 C   0  0  0  0  0  0  0  0  0  0  0  0
   13.5620   47.6770    1.5970 C   0  0  0  0  0  0  0  0  0  0  0  0
   13.1930   46.9800    5.2290 O   0  0  0  0  0  0  0  0  0  0  0  0
   11.4689   45.3934    4.0055 H   0  0  0  0  0  0  0  0  0  0  0  0
   11.0666   45.3102    1.5359 H   0  0  0  0  0  0  0  0  0  0  0  0
   12.4048   46.7232    0.0529 H   0  0  0  0  0  0  0  0  0  0  0  0
   14.1324   48.2909    0.9094 H   0  0  0  0  0  0  0  0  0  0  0  0
   13.8740   47.6190    5.4037 H   0  0  0  0  0  0  0  0  0  0  0  0
  1  2  1  0  0  0  0
  1  3  2  0  0  0  0
  1  4  1  0  0  0  0
  4  5  2  0  0  0  0
  4  9  1  0  0  0  0
  5  6  1  0  0  0  0
  5 10  1  0  0  0  0
  6  7  2  0  0  0  0
  6 11  1  0  0  0  0
  7  8  1  0  0  0  0
  7 12  1  0  0  0  0
  8  9  2  0  0  0  0
  8 13  1  0  0  0  0
  9 14  1  0  0  0  0
 10 15  1  0  0  0  0
M  CHG  1   2  -1
M  END
