2ybs_ligand
 OpenBabel08222323343D

 16 15  0  0  1  0  0  0  0  0999 V2000
   11.2850   18.8850    1.6690 C   0  0  0  0  0  0  0  0  0  0  0  0
    8.8500   19.2890    1.2680 C   0  0  0  0  0  0  0  0  0  0  0  0
    7.4760   19.3740    1.9260 C   0  0  0  0  0  0  0  0  0  0  0  0
    6.3730   19.6680    0.8990 C   0  0  0  0  0  0  0  0  0  0  0  0
   12.2670   19.3450    2.2910 O   0  5  0  0  0  0  0  0  0  0  0  0
   11.3170   18.3240    0.5510 O   0  0  0  0  0  0  0  0  0  0  0  0
    9.8880   20.0540    3.2960 O   0  0  0  0  0  0  0  0  0  0  0  0
    5.1970   19.5680    1.3010 O   0  5  0  0  0  0  0  0  0  0  0  0
    9.9100   18.9970    2.3330 C   0  0  2  0  0  0  0  0  0  0  0  0
    6.7410   19.9830   -0.2540 O   0  0  0  0  0  0  0  0  0  0  0  0
    9.0777   20.2365    0.7796 H   0  0  0  0  0  0  0  0  0  0  0  0
    8.8491   18.4887    0.5280 H   0  0  0  0  0  0  0  0  0  0  0  0
    7.4930   20.1850    2.6540 H   0  0  0  0  0  0  0  0  0  0  0  0
    7.2604   18.4150    2.3971 H   0  0  0  0  0  0  0  0  0  0  0  0
   10.5489   19.8840    3.9712 H   0  0  0  0  0  0  0  0  0  0  0  0
    9.7004   18.0528    2.8356 H   0  0  0  0  0  0  0  0  0  0  0  0
  1  5  1  0  0  0  0
  1  6  2  0  0  0  0
  2  3  1  0  0  0  0
  2  9  1  0  0  0  0
  2 11  1  0  0  0  0
  2 12  1  0  0  0  0
  3  4  1  0  0  0  0
  3 13  1  0  0  0  0
  3 14  1  0  0  0  0
  4  8  1  0  0  0  0
  4 10  2  0  0  0  0
  7 15  1  0  0  0  0
  9  1  1  0  0  0  0
  9  7  1  0  0  0  0
  9 16  1  1  0  0  0
M  CHG  2   5  -1   8  -1
M  END
