2ybu_ligand
 OpenBabel08222323343D

 46 49  0  0  0  0  0  0  0  0999 V2000
   26.2630  -36.9630  -42.8820 O   0  0  0  0  0  0  0  0  0  0  0  0
   27.4710  -37.1950  -42.7660 C   0  0  0  0  0  0  0  0  0  0  0  0
   27.9460  -38.4690  -42.5360 C   0  0  0  0  0  0  0  0  0  0  0  0
   28.4110  -36.1940  -42.9100 N   0  0  0  0  0  0  0  0  0  0  0  0
   27.3270  -39.6150  -42.3560 N   0  0  0  0  0  0  0  0  0  0  0  0
   29.2970  -38.7440  -42.4460 C   0  0  0  0  0  0  0  0  0  0  0  0
   25.8540  -39.8250  -42.4170 C   0  0  0  0  0  0  0  0  0  0  0  0
   28.2690  -40.5710  -42.1940 C   0  0  0  0  0  0  0  0  0  0  0  0
   29.5010  -40.0080  -42.2380 N   0  0  0  0  0  0  0  0  0  0  0  0
   30.2210  -37.7760  -42.5470 N   0  0  0  0  0  0  0  0  0  0  0  0
   31.7360  -38.1630  -42.4400 C   0  0  0  0  0  0  0  0  0  0  0  0
   29.7510  -36.5110  -42.8020 C   0  0  0  0  0  0  0  0  0  0  0  0
   30.5670  -35.6250  -42.8730 O   0  0  0  0  0  0  0  0  0  0  0  0
   27.9510  -34.8270  -43.1830 C   0  0  0  0  0  0  0  0  0  0  0  0
   27.5260  -34.0460  -41.9380 C   0  0  0  0  0  0  0  0  0  0  0  0
   27.2560  -32.6530  -42.5100 C   0  0  0  0  0  0  0  0  0  0  0  0
   26.5970  -31.8070  -41.5000 N   0  0  0  0  0  0  0  0  0  0  0  0
   25.2540  -31.9750  -41.2150 C   0  0  0  0  0  0  0  0  0  0  0  0
   27.3770  -30.8700  -40.8470 C   0  0  0  0  0  0  0  0  0  0  0  0
   24.6020  -32.8790  -41.8320 O   0  0  0  0  0  0  0  0  0  0  0  0
   24.6840  -31.1210  -40.2810 C   0  0  0  0  0  0  0  0  0  0  0  0
   23.4410  -31.0510  -39.7770 N   0  0  0  0  0  0  0  0  0  0  0  0
   25.4600  -30.1810  -39.6020 C   0  0  0  0  0  0  0  0  0  0  0  0
   23.3920  -30.0950  -38.8330 C   0  0  0  0  0  0  0  0  0  0  0  0
   24.6380  -29.5220  -38.7460 N   0  0  0  0  0  0  0  0  0  0  0  0
   26.8340  -30.0430  -39.9220 N   0  0  0  0  0  0  0  0  0  0  0  0
   27.7730  -29.0380  -39.2860 C   0  0  0  0  0  0  0  0  0  0  0  0
   28.5820  -30.7580  -41.1290 O   0  0  0  0  0  0  0  0  0  0  0  0
   25.6265  -40.8843  -42.2268 H   0  0  0  0  0  0  0  0  0  0  0  0
   25.4845  -39.5440  -43.4142 H   0  0  0  0  0  0  0  0  0  0  0  0
   25.3629  -39.2020  -41.6550 H   0  0  0  0  0  0  0  0  0  0  0  0
   28.0685  -41.6317  -42.0501 H   0  0  0  0  0  0  0  0  0  0  0  0
   31.8256  -39.2390  -42.2297 H   0  0  0  0  0  0  0  0  0  0  0  0
   32.2042  -37.5901  -41.6260 H   0  0  0  0  0  0  0  0  0  0  0  0
   32.2415  -37.9317  -43.3892 H   0  0  0  0  0  0  0  0  0  0  0  0
   27.0900  -34.8829  -43.8653 H   0  0  0  0  0  0  0  0  0  0  0  0
   28.7704  -34.2786  -43.6707 H   0  0  0  0  0  0  0  0  0  0  0  0
   28.3307  -34.0207  -41.1885 H   0  0  0  0  0  0  0  0  0  0  0  0
   26.6189  -34.4753  -41.4877 H   0  0  0  0  0  0  0  0  0  0  0  0
   26.6033  -32.7422  -43.3909 H   0  0  0  0  0  0  0  0  0  0  0  0
   28.2093  -32.1904  -42.8052 H   0  0  0  0  0  0  0  0  0  0  0  0
   22.5190  -29.8228  -38.2417 H   0  0  0  0  0  0  0  0  0  0  0  0
   24.9014  -28.7326  -38.1390 H   0  0  0  0  0  0  0  0  0  0  0  0
   28.7778  -29.1497  -39.7195 H   0  0  0  0  0  0  0  0  0  0  0  0
   27.8199  -29.2153  -38.2014 H   0  0  0  0  0  0  0  0  0  0  0  0
   27.4031  -28.0196  -39.4755 H   0  0  0  0  0  0  0  0  0  0  0  0
  1  2  2  0  0  0  0
  2  3  1  0  0  0  0
  2  4  1  0  0  0  0
  3  5  1  0  0  0  0
  3  6  2  0  0  0  0
  4 12  1  0  0  0  0
  4 14  1  0  0  0  0
  5  7  1  0  0  0  0
  5  8  1  0  0  0  0
  6  9  1  0  0  0  0
  6 10  1  0  0  0  0
  7 29  1  0  0  0  0
  7 30  1  0  0  0  0
  7 31  1  0  0  0  0
  8  9  2  0  0  0  0
  8 32  1  0  0  0  0
 10 11  1  0  0  0  0
 10 12  1  0  0  0  0
 11 33  1  0  0  0  0
 11 34  1  0  0  0  0
 11 35  1  0  0  0  0
 12 13  2  0  0  0  0
 14 15  1  0  0  0  0
 14 36  1  0  0  0  0
 14 37  1  0  0  0  0
 15 16  1  0  0  0  0
 15 38  1  0  0  0  0
 15 39  1  0  0  0  0
 16 17  1  0  0  0  0
 16 40  1  0  0  0  0
 16 41  1  0  0  0  0
 17 18  1  0  0  0  0
 17 19  1  0  0  0  0
 18 20  2  0  0  0  0
 18 21  1  0  0  0  0
 19 26  1  0  0  0  0
 19 28  2  0  0  0  0
 21 22  1  0  0  0  0
 21 23  2  0  0  0  0
 22 24  2  0  0  0  0
 23 25  1  0  0  0  0
 23 26  1  0  0  0  0
 24 25  1  0  0  0  0
 24 42  1  0  0  0  0
 25 43  1  0  0  0  0
 26 27  1  0  0  0  0
 27 44  1  0  0  0  0
 27 45  1  0  0  0  0
 27 46  1  0  0  0  0
M  END
