2ydi_ligand
 OpenBabel08222323343D

 45 46  0  0  0  0  0  0  0  0999 V2000
    2.7040   -3.2270   19.9480 S   0  0  0  0  0  0  0  0  0  0  0  0
    3.9910   -3.9740   19.0660 C   0  0  0  0  0  0  0  0  0  0  0  0
    3.5570   -5.1270   18.4340 C   0  0  0  0  0  0  0  0  0  0  0  0
    2.1780   -5.3590   18.6910 C   0  0  0  0  0  0  0  0  0  0  0  0
    1.5620   -4.4230   19.5050 C   0  0  0  0  0  0  0  0  0  0  0  0
    5.2890   -3.4650   19.0100 N   0  0  0  0  0  0  0  0  0  0  0  0
    5.6100   -2.2280   19.5250 C   0  0  0  0  0  0  0  0  0  0  0  0
    6.8540   -1.7920   19.1610 N   0  0  0  0  0  0  0  0  0  0  0  0
    4.8580   -1.5750   20.2450 O   0  0  0  0  0  0  0  0  0  0  0  0
    4.4510   -5.9240   17.6230 C   0  0  0  0  0  0  0  0  0  0  0  0
    5.6370   -5.6480   17.4900 O   0  0  0  0  0  0  0  0  0  0  0  0
    3.8280   -6.9810   16.9920 N   0  0  0  0  0  0  0  0  0  0  0  0
   -7.2820   -3.6610   20.3140 C   0  0  0  0  0  0  0  0  0  0  0  0
   -6.0700   -2.8400   20.5130 N   0  3  0  0  0  0  0  0  0  0  0  0
   -5.5990   -2.8700   21.9200 C   0  0  0  0  0  0  0  0  0  0  0  0
   -4.0970   -3.0410   21.8770 C   0  0  0  0  0  0  0  0  0  0  0  0
    0.1870   -4.3280   19.9610 C   0  0  0  0  0  0  0  0  0  0  0  0
   -0.2480   -3.2880   20.7620 C   0  0  0  0  0  0  0  0  0  0  0  0
   -1.5700   -3.1930   21.1620 C   0  0  0  0  0  0  0  0  0  0  0  0
   -2.4600   -4.1660   20.7440 C   0  0  0  0  0  0  0  0  0  0  0  0
   -6.2480   -1.4570   20.0080 C   0  0  0  0  0  0  0  0  0  0  0  0
   -2.0380   -5.2080   19.9460 C   0  0  0  0  0  0  0  0  0  0  0  0
   -0.7220   -5.2820   19.5530 C   0  0  0  0  0  0  0  0  0  0  0  0
   -3.8040   -4.1800   21.0820 O   0  0  0  0  0  0  0  0  0  0  0  0
    1.6436   -6.2127   18.2769 H   0  0  0  0  0  0  0  0  0  0  0  0
    6.0076   -4.0143   18.5834 H   0  0  0  0  0  0  0  0  0  0  0  0
    7.1864   -0.9048   19.4811 H   0  0  0  0  0  0  0  0  0  0  0  0
    7.4313   -2.3604   18.5747 H   0  0  0  0  0  0  0  0  0  0  0  0
    4.3565   -7.5955   16.4062 H   0  0  0  0  0  0  0  0  0  0  0  0
    2.8479   -7.1326   17.1204 H   0  0  0  0  0  0  0  0  0  0  0  0
   -7.5920   -3.6076   19.2599 H   0  0  0  0  0  0  0  0  0  0  0  0
   -8.0917   -3.2806   20.9540 H   0  0  0  0  0  0  0  0  0  0  0  0
   -7.0647   -4.7060   20.5798 H   0  0  0  0  0  0  0  0  0  0  0  0
   -5.3418   -3.2592   19.9563 H   0  0  0  0  0  0  0  0  0  0  0  0
   -6.0604   -3.7128   22.4555 H   0  0  0  0  0  0  0  0  0  0  0  0
   -5.8581   -1.9282   22.4258 H   0  0  0  0  0  0  0  0  0  0  0  0
   -3.7094   -3.1881   22.8959 H   0  0  0  0  0  0  0  0  0  0  0  0
   -3.6328   -2.1478   21.4335 H   0  0  0  0  0  0  0  0  0  0  0  0
    0.4599   -2.5324   21.0829 H   0  0  0  0  0  0  0  0  0  0  0  0
   -1.9007   -2.3733   21.7896 H   0  0  0  0  0  0  0  0  0  0  0  0
   -6.5967   -1.4895   18.9652 H   0  0  0  0  0  0  0  0  0  0  0  0
   -5.2880   -0.9223   20.0570 H   0  0  0  0  0  0  0  0  0  0  0  0
   -6.9914   -0.9334   20.6270 H   0  0  0  0  0  0  0  0  0  0  0  0
   -2.7426   -5.9682   19.6286 H   0  0  0  0  0  0  0  0  0  0  0  0
   -0.3963   -6.0972   18.9170 H   0  0  0  0  0  0  0  0  0  0  0  0
  1  2  1  0  0  0  0
  2  6  1  0  0  0  0
  3  2  2  0  0  0  0
  3 10  1  0  0  0  0
  4  3  1  0  0  0  0
  4 25  1  0  0  0  0
  5  1  1  0  0  0  0
  5  4  2  0  0  0  0
  6  7  1  0  0  0  0
  6 26  1  0  0  0  0
  7  8  1  0  0  0  0
  7  9  2  0  0  0  0
  8 27  1  0  0  0  0
  8 28  1  0  0  0  0
 10 11  2  0  0  0  0
 10 12  1  0  0  0  0
 12 29  1  0  0  0  0
 12 30  1  0  0  0  0
 13 31  1  0  0  0  0
 13 32  1  0  0  0  0
 13 33  1  0  0  0  0
 14 13  1  0  0  0  0
 14 21  1  0  0  0  0
 14 34  1  0  0  0  0
 15 14  1  0  0  0  0
 15 35  1  0  0  0  0
 15 36  1  0  0  0  0
 16 15  1  0  0  0  0
 16 37  1  0  0  0  0
 16 38  1  0  0  0  0
 17  5  1  0  0  0  0
 17 23  1  0  0  0  0
 18 17  2  0  0  0  0
 18 39  1  0  0  0  0
 19 18  1  0  0  0  0
 19 40  1  0  0  0  0
 20 19  2  0  0  0  0
 20 22  1  0  0  0  0
 20 24  1  0  0  0  0
 21 41  1  0  0  0  0
 21 42  1  0  0  0  0
 21 43  1  0  0  0  0
 22 23  2  0  0  0  0
 22 44  1  0  0  0  0
 23 45  1  0  0  0  0
 24 16  1  0  0  0  0
M  CHG  1  14   1
M  END
