2ydj_ligand
 OpenBabel08222323343D

 45 47  0  0  1  0  0  0  0  0999 V2000
    9.2180   -1.2330   46.6090 C   0  0  0  0  0  0  0  0  0  0  0  0
    7.9690   -1.2940   46.0070 C   0  0  0  0  0  0  0  0  0  0  0  0
    7.2630   -2.4770   45.9420 C   0  0  0  0  0  0  0  0  0  0  0  0
    7.8150   -3.6100   46.5010 C   0  0  0  0  0  0  0  0  0  0  0  0
    9.0580   -3.5510   47.0900 C   0  0  0  0  0  0  0  0  0  0  0  0
    9.7740   -2.3710   47.1510 C   0  0  0  0  0  0  0  0  0  0  0  0
    9.5570   -4.6800   47.6230 F   0  0  0  0  0  0  0  0  0  0  0  0
    5.9730   -2.5440   45.2730 C   0  0  0  0  0  0  0  0  0  0  0  0
    5.4240   -1.7070   44.3220 C   0  0  0  0  0  0  0  0  0  0  0  0
    4.1240   -2.0850   43.9010 C   0  0  0  0  0  0  0  0  0  0  0  0
    3.6650   -3.2280   44.5210 C   0  0  0  0  0  0  0  0  0  0  0  0
    4.8540   -3.8030   45.6210 S   0  0  0  0  0  0  0  0  0  0  0  0
    2.3830   -3.8490   44.2870 C   0  0  0  0  0  0  0  0  0  0  0  0
    1.5590   -3.3440   43.5240 O   0  0  0  0  0  0  0  0  0  0  0  0
    2.1110   -5.0300   44.9490 N   0  0  0  0  0  0  0  0  0  0  0  0
    0.7140   -5.4280   44.9620 C   0  0  1  0  0  0  0  0  0  0  0  0
    0.5650   -6.9220   44.7110 C   0  0  0  0  0  0  0  0  0  0  0  0
   -0.8490   -7.4230   44.9750 C   0  0  0  0  0  0  0  0  0  0  0  0
   -1.2520   -7.1160   46.4030 C   0  0  0  0  0  0  0  0  0  0  0  0
   -1.2310   -5.6220   46.4710 N   0  3  0  0  0  0  0  0  0  0  0  0
    0.1070   -4.9850   46.2820 C   0  0  0  0  0  0  0  0  0  0  0  0
    3.3350   -1.4360   42.9570 N   0  0  0  0  0  0  0  0  0  0  0  0
    3.5890   -0.1590   42.5230 C   0  0  0  0  0  0  0  0  0  0  0  0
    4.6340    0.4540   42.7080 O   0  0  0  0  0  0  0  0  0  0  0  0
    2.5050    0.3420   41.8320 N   0  0  0  0  0  0  0  0  0  0  0  0
    9.7548   -0.2922   46.6526 H   0  0  0  0  0  0  0  0  0  0  0  0
    7.5402   -0.3947   45.5798 H   0  0  0  0  0  0  0  0  0  0  0  0
    7.2705   -4.5470   46.4768 H   0  0  0  0  0  0  0  0  0  0  0  0
   10.7529   -2.3412   47.6157 H   0  0  0  0  0  0  0  0  0  0  0  0
    5.9435   -0.8338   43.9300 H   0  0  0  0  0  0  0  0  0  0  0  0
    2.8260   -5.5734   45.3888 H   0  0  0  0  0  0  0  0  0  0  0  0
    0.1922   -4.9005   44.1499 H   0  0  0  0  0  0  0  0  0  0  0  0
    1.2589   -7.4612   45.3727 H   0  0  0  0  0  0  0  0  0  0  0  0
    0.8222   -7.1302   43.6620 H   0  0  0  0  0  0  0  0  0  0  0  0
   -0.8861   -8.5103   44.8123 H   0  0  0  0  0  0  0  0  0  0  0  0
   -1.5462   -6.9250   44.2852 H   0  0  0  0  0  0  0  0  0  0  0  0
   -0.5336   -7.5500   47.1140 H   0  0  0  0  0  0  0  0  0  0  0  0
   -2.2591   -7.5031   46.6170 H   0  0  0  0  0  0  0  0  0  0  0  0
   -1.5796   -5.3480   47.3762 H   0  0  0  0  0  0  0  0  0  0  0  0
   -1.8457   -5.2704   45.7537 H   0  0  0  0  0  0  0  0  0  0  0  0
   -0.0078   -3.8910   46.2808 H   0  0  0  0  0  0  0  0  0  0  0  0
    0.7715   -5.2831   47.1063 H   0  0  0  0  0  0  0  0  0  0  0  0
    2.5475   -1.9216   42.5776 H   0  0  0  0  0  0  0  0  0  0  0  0
    2.5382    1.2662   41.4516 H   0  0  0  0  0  0  0  0  0  0  0  0
    1.6861   -0.2191   41.7115 H   0  0  0  0  0  0  0  0  0  0  0  0
  1  2  2  0  0  0  0
  1  6  1  0  0  0  0
  1 26  1  0  0  0  0
  2  3  1  0  0  0  0
  2 27  1  0  0  0  0
  3  4  2  0  0  0  0
  3  8  1  0  0  0  0
  4  5  1  0  0  0  0
  4 28  1  0  0  0  0
  5  6  2  0  0  0  0
  5  7  1  0  0  0  0
  6 29  1  0  0  0  0
  8  9  2  0  0  0  0
  8 12  1  0  0  0  0
  9 10  1  0  0  0  0
  9 30  1  0  0  0  0
 10 11  2  0  0  0  0
 10 22  1  0  0  0  0
 11 12  1  0  0  0  0
 11 13  1  0  0  0  0
 13 14  2  0  0  0  0
 13 15  1  0  0  0  0
 15 16  1  0  0  0  0
 15 31  1  0  0  0  0
 16 17  1  0  0  0  0
 16 21  1  0  0  0  0
 16 32  1  6  0  0  0
 17 18  1  0  0  0  0
 17 33  1  0  0  0  0
 17 34  1  0  0  0  0
 18 19  1  0  0  0  0
 18 35  1  0  0  0  0
 18 36  1  0  0  0  0
 19 20  1  0  0  0  0
 19 37  1  0  0  0  0
 19 38  1  0  0  0  0
 20 21  1  0  0  0  0
 20 39  1  0  0  0  0
 20 40  1  0  0  0  0
 21 41  1  0  0  0  0
 21 42  1  0  0  0  0
 22 23  1  0  0  0  0
 22 43  1  0  0  0  0
 23 24  2  0  0  0  0
 23 25  1  0  0  0  0
 25 44  1  0  0  0  0
 25 45  1  0  0  0  0
M  CHG  1  20   1
M  END
