2yhd_ligand
 OpenBabel08222323343D

 35 38  0  0  0  0  0  0  0  0999 V2000
   36.2180    7.8790   18.3740 C   0  0  0  0  0  0  0  0  0  0  0  0
   36.7990    9.0900   18.9480 C   0  0  0  0  0  0  0  0  0  0  0  0
   37.8270    9.7420   18.3180 C   0  0  0  0  0  0  0  0  0  0  0  0
   38.3090    9.2370   17.1260 C   0  0  0  0  0  0  0  0  0  0  0  0
   37.8020    8.0890   16.5360 C   0  0  0  0  0  0  0  0  0  0  0  0
   36.7570    7.3820   17.0950 C   0  0  0  0  0  0  0  0  0  0  0  0
   36.2160    6.2530   16.5130 C   0  0  0  0  0  0  0  0  0  0  0  0
   35.1810    5.6340   17.1940 C   0  0  0  0  0  0  0  0  0  0  0  0
   34.6390    6.0660   18.4070 C   0  0  0  0  0  0  0  0  0  0  0  0
   35.1240    7.1750   19.0490 C   0  0  0  0  0  0  0  0  0  0  0  0
   34.6580    7.6400   20.2060 N   0  0  0  0  0  0  0  0  0  0  0  0
   35.2290    8.8680   20.7600 C   0  0  0  0  0  0  0  0  0  0  0  0
   36.3210    9.5460   20.0800 N   0  0  0  0  0  0  0  0  0  0  0  0
   35.1250    9.2720   22.1570 C   0  0  0  0  0  0  0  0  0  0  0  0
   36.0870   10.1510   22.6860 C   0  0  0  0  0  0  0  0  0  0  0  0
   36.0150   10.5610   24.0110 C   0  0  0  0  0  0  0  0  0  0  0  0
   34.8950   10.0450   24.8040 C   0  0  0  0  0  0  0  0  0  0  0  0
   33.9740    9.2000   24.2240 C   0  0  0  0  0  0  0  0  0  0  0  0
   34.0800    8.8340   22.9060 C   0  0  0  0  0  0  0  0  0  0  0  0
   34.7290   10.3930   26.0940 O   0  0  0  0  0  0  0  0  0  0  0  0
   36.9390   11.3910   24.5560 O   0  0  0  0  0  0  0  0  0  0  0  0
   38.2575   10.6450   18.7509 H   0  0  0  0  0  0  0  0  0  0  0  0
   39.1229    9.7636   16.6277 H   0  0  0  0  0  0  0  0  0  0  0  0
   38.2417    7.7348   15.6036 H   0  0  0  0  0  0  0  0  0  0  0  0
   36.5858    5.8672   15.5630 H   0  0  0  0  0  0  0  0  0  0  0  0
   34.7543    4.7361   16.7469 H   0  0  0  0  0  0  0  0  0  0  0  0
   33.8138    5.5097   18.8515 H   0  0  0  0  0  0  0  0  0  0  0  0
   36.8955   10.5134   22.0511 H   0  0  0  0  0  0  0  0  0  0  0  0
   33.1476    8.8160   24.8222 H   0  0  0  0  0  0  0  0  0  0  0  0
   33.3232    8.1897   22.4585 H   0  0  0  0  0  0  0  0  0  0  0  0
   34.7422    9.6044   26.6412 H   0  0  0  0  0  0  0  0  0  0  0  0
   37.5912   11.6229   23.8908 H   0  0  0  0  0  0  0  0  0  0  0  0
   33.9062    7.1425   20.7041 H   0  0  0  0  0  0  0  0  0  0  0  0
   34.4196    9.5145   20.3900 H   0  0  0  0  0  0  0  0  0  0  0  0
   36.7252   10.3979   20.4944 H   0  0  0  0  0  0  0  0  0  0  0  0
  1  2  2  0  0  0  0
  1  6  1  0  0  0  0
  1 10  1  0  0  0  0
  2  3  1  0  0  0  0
  2 13  1  0  0  0  0
  3  4  2  0  0  0  0
  3 22  1  0  0  0  0
  4  5  1  0  0  0  0
  4 23  1  0  0  0  0
  5  6  2  0  0  0  0
  5 24  1  0  0  0  0
  6  7  1  0  0  0  0
  7  8  2  0  0  0  0
  7 25  1  0  0  0  0
  8  9  1  0  0  0  0
  8 26  1  0  0  0  0
  9 10  2  0  0  0  0
  9 27  1  0  0  0  0
 10 11  1  0  0  0  0
 11 12  1  0  0  0  0
 11 33  1  0  0  0  0
 12 13  1  0  0  0  0
 12 14  1  0  0  0  0
 12 34  1  0  0  0  0
 13 35  1  0  0  0  0
 14 15  2  0  0  0  0
 14 19  1  0  0  0  0
 15 16  1  0  0  0  0
 15 28  1  0  0  0  0
 16 17  2  0  0  0  0
 16 21  1  0  0  0  0
 17 18  1  0  0  0  0
 17 20  1  0  0  0  0
 18 19  2  0  0  0  0
 18 29  1  0  0  0  0
 19 30  1  0  0  0  0
 20 31  1  0  0  0  0
 21 32  1  0  0  0  0
M  END
