2yim_ligand
 OpenBabel08222323343D

 93 95  0  0  1  0  0  0  0  0999 V2000
  125.4820   28.4460  -11.1800 C   0  0  0  0  0  0  0  0  0  0  0  0
  125.6440   29.6670  -11.1920 O   0  0  0  0  0  0  0  0  0  0  0  0
  126.4800   27.6130  -10.6360 C   0  0  1  0  0  0  0  0  0  0  0  0
  126.3730   26.0720  -10.5710 C   0  0  0  0  0  0  0  0  0  0  0  0
  127.3940   25.4170   -9.9450 O   0  0  0  0  0  0  0  0  0  0  0  0
  125.3310   25.3460  -11.1360 C   0  0  0  0  0  0  0  0  0  0  0  0
  112.6770   17.7030  -22.4040 N   0  0  0  0  0  0  0  0  0  0  0  0
  118.9350   26.9720  -21.2860 O   0  0  0  0  0  1  0  0  0  0  0  0
  119.6270   26.2860  -22.4380 P   0  0  1  0  0  0  0  0  0  0  0  0
  115.9060   21.6500  -23.4890 C   0  0  1  0  0  0  0  0  0  0  0  0
  123.9570   27.8240  -11.8060 S   0  0  0  0  0  0  0  0  0  0  0  0
  113.2820   18.0300  -23.5680 C   0  0  0  0  0  0  0  0  0  0  0  0
  120.2270   27.3660  -23.5800 O   0  0  0  0  0  0  0  0  0  0  0  0
  122.3270   25.2950  -22.0590 P   0  0  2  0  0  0  0  0  0  0  0  0
  115.2970   22.9650  -23.9300 C   0  0  2  0  0  0  0  0  0  0  0  0
  114.2810   22.7630  -24.9140 O   0  0  0  0  0  0  0  0  0  0  0  0
  123.3550   29.2510  -12.7420 C   0  0  0  0  0  0  0  0  0  0  0  0
  114.1030   19.0900  -23.7190 N   0  0  0  0  0  0  0  0  0  0  0  0
  120.7290   25.2720  -21.8370 O   0  0  0  0  0  0  0  0  0  0  0  0
  116.5060   23.6860  -24.4860 C   0  0  2  0  0  0  0  0  0  0  0  0
  116.6980   23.2960  -25.8440 O   0  0  0  0  0  0  0  0  0  0  0  0
  116.9770   24.3460  -27.0360 P   0  0  0  0  0  0  0  0  0  0  0  0
  123.5420   29.0730  -14.2460 C   0  0  0  0  0  0  0  0  0  0  0  0
  114.3630   19.8910  -22.6770 C   0  0  0  0  0  0  0  0  0  0  0  0
  122.7630   25.6940  -23.6350 O   0  0  0  0  0  1  0  0  0  0  0  0
  117.6560   23.1730  -23.6260 C   0  0  2  0  0  0  0  0  0  0  0  0
  117.2020   21.9780  -22.9880 O   0  0  0  0  0  0  0  0  0  0  0  0
  122.9050   30.1380  -15.0060 N   0  0  0  0  0  0  0  0  0  0  0  0
  127.7480   28.2820  -10.0840 C   0  0  0  0  0  0  0  0  0  0  0  0
  113.7400   19.5910  -21.3930 C   0  0  0  0  0  0  0  0  0  0  0  0
  122.8550   23.9540  -21.6120 O   0  0  0  0  0  0  0  0  0  0  0  0
  118.0470   24.1680  -22.5440 C   0  0  0  0  0  0  0  0  0  0  0  0
  118.5960   25.3100  -23.1860 O   0  0  0  0  0  0  0  0  0  0  0  0
  121.5840   30.1850  -15.2000 C   0  0  0  0  0  0  0  0  0  0  0  0
  120.8070   29.3490  -14.7540 O   0  0  0  0  0  0  0  0  0  0  0  0
  112.8490   18.4190  -21.2800 C   0  0  0  0  0  0  0  0  0  0  0  0
  112.2430   18.0840  -20.1190 N   0  0  0  0  0  0  0  0  0  0  0  0
  122.8630   26.4480  -21.0720 O   0  0  0  0  0  0  0  0  0  0  0  0
  121.0710   31.3570  -16.0050 C   0  0  0  0  0  0  0  0  0  0  0  0
  114.1220   20.5010  -20.4980 N   0  0  0  0  0  0  0  0  0  0  0  0
  116.0050   25.5020  -26.9680 O   0  0  0  0  0  1  0  0  0  0  0  0
  119.9780   30.9380  -16.9920 C   0  0  0  0  0  0  0  0  0  0  0  0
  114.9440   21.3430  -21.1570 C   0  0  0  0  0  0  0  0  0  0  0  0
  118.5630   24.9270  -26.9310 O   0  0  0  0  0  1  0  0  0  0  0  0
  120.3040   29.7190  -17.7250 N   0  0  0  0  0  0  0  0  0  0  0  0
  115.0880   20.9830  -22.4550 N   0  0  0  0  0  0  0  0  0  0  0  0
  116.7780   23.5090  -28.4990 O   0  0  0  0  0  0  0  0  0  0  0  0
  121.2180   29.6630  -18.6990 C   0  0  0  0  0  0  0  0  0  0  0  0
  121.8470   30.6430  -19.0800 O   0  0  0  0  0  0  0  0  0  0  0  0
  121.4310   28.3120  -19.3480 C   0  0  2  0  0  0  0  0  0  0  0  0
  120.3050   27.4640  -19.0430 O   0  0  0  0  0  0  0  0  0  0  0  0
  122.7530   27.6170  -18.9580 C   0  0  0  0  0  0  0  0  0  0  0  0
  122.8430   26.2670  -19.6570 C   0  0  0  0  0  0  0  0  0  0  0  0
  122.8230   27.3700  -17.4540 C   0  0  0  0  0  0  0  0  0  0  0  0
  123.9460   28.4580  -19.3980 C   0  0  0  0  0  0  0  0  0  0  0  0
  125.9945   27.6815   -9.6513 H   0  0  0  0  0  0  0  0  0  0  0  0
  127.2270   24.4820   -9.9628 H   0  0  0  0  0  0  0  0  0  0  0  0
  125.3165   24.2602  -11.0536 H   0  0  0  0  0  0  0  0  0  0  0  0
  124.5291   25.8630  -11.6610 H   0  0  0  0  0  0  0  0  0  0  0  0
  115.9985   20.9754  -24.3529 H   0  0  0  0  0  0  0  0  0  0  0  0
  113.0962   17.4026  -24.4323 H   0  0  0  0  0  0  0  0  0  0  0  0
  114.8687   23.5123  -23.0774 H   0  0  0  0  0  0  0  0  0  0  0  0
  113.9186   23.6029  -25.1705 H   0  0  0  0  0  0  0  0  0  0  0  0
  123.9082   30.1454  -12.4195 H   0  0  0  0  0  0  0  0  0  0  0  0
  122.2839   29.3866  -12.5317 H   0  0  0  0  0  0  0  0  0  0  0  0
  116.4004   24.7783  -24.4105 H   0  0  0  0  0  0  0  0  0  0  0  0
  123.1023   28.1106  -14.5468 H   0  0  0  0  0  0  0  0  0  0  0  0
  124.6185   29.0709  -14.4719 H   0  0  0  0  0  0  0  0  0  0  0  0
  118.5283   22.9617  -24.2620 H   0  0  0  0  0  0  0  0  0  0  0  0
  123.4760   30.8600  -15.3967 H   0  0  0  0  0  0  0  0  0  0  0  0
  127.6688   29.3726  -10.2036 H   0  0  0  0  0  0  0  0  0  0  0  0
  128.6260   27.9154  -10.6360 H   0  0  0  0  0  0  0  0  0  0  0  0
  127.8571   28.0371   -9.0172 H   0  0  0  0  0  0  0  0  0  0  0  0
  118.7952   23.7187  -21.8744 H   0  0  0  0  0  0  0  0  0  0  0  0
  117.1595   24.4561  -21.9614 H   0  0  0  0  0  0  0  0  0  0  0  0
  112.3959   18.6542  -19.2750 H   0  0  0  0  0  0  0  0  0  0  0  0
  111.6283   17.2585  -20.0784 H   0  0  0  0  0  0  0  0  0  0  0  0
  121.9084   31.7958  -16.5673 H   0  0  0  0  0  0  0  0  0  0  0  0
  120.6584   32.1084  -15.3157 H   0  0  0  0  0  0  0  0  0  0  0  0
  119.8295   31.7526  -17.7162 H   0  0  0  0  0  0  0  0  0  0  0  0
  119.0461   30.7708  -16.4319 H   0  0  0  0  0  0  0  0  0  0  0  0
  115.4310   22.2045  -20.7025 H   0  0  0  0  0  0  0  0  0  0  0  0
  119.8168   28.8792  -17.4855 H   0  0  0  0  0  0  0  0  0  0  0  0
  121.4574   28.4700  -20.4363 H   0  0  0  0  0  0  0  0  0  0  0  0
  119.5105   27.8610  -19.3802 H   0  0  0  0  0  0  0  0  0  0  0  0
  123.7645   25.7553  -19.3426 H   0  0  0  0  0  0  0  0  0  0  0  0
  121.9714   25.6555  -19.3807 H   0  0  0  0  0  0  0  0  0  0  0  0
  122.7601   28.3304  -16.9214 H   0  0  0  0  0  0  0  0  0  0  0  0
  123.7742   26.8756  -17.2075 H   0  0  0  0  0  0  0  0  0  0  0  0
  121.9851   26.7260  -17.1488 H   0  0  0  0  0  0  0  0  0  0  0  0
  123.8910   28.6332  -20.4826 H   0  0  0  0  0  0  0  0  0  0  0  0
  124.8782   27.9250  -19.1596 H   0  0  0  0  0  0  0  0  0  0  0  0
  123.9296   29.4226  -18.8695 H   0  0  0  0  0  0  0  0  0  0  0  0
  1  2  2  0  0  0  0
  1  3  1  0  0  0  0
  3  4  1  0  0  0  0
  3 29  1  0  0  0  0
  3 56  1  1  0  0  0
  4  5  1  0  0  0  0
  4  6  2  0  0  0  0
  5 57  1  0  0  0  0
  6 58  1  0  0  0  0
  6 59  1  0  0  0  0
  9  8  1  1  0  0  0
  9 13  2  0  0  0  0
  9 33  1  0  0  0  0
 10 15  1  0  0  0  0
 10 46  1  0  0  0  0
 10 60  1  6  0  0  0
 11  1  1  0  0  0  0
 12  7  2  0  0  0  0
 12 61  1  0  0  0  0
 14 19  1  0  0  0  0
 14 25  1  6  0  0  0
 14 31  2  0  0  0  0
 15 16  1  0  0  0  0
 15 62  1  1  0  0  0
 16 63  1  0  0  0  0
 17 11  1  0  0  0  0
 17 64  1  0  0  0  0
 17 65  1  0  0  0  0
 18 12  1  0  0  0  0
 19  9  1  0  0  0  0
 20 15  1  0  0  0  0
 20 21  1  0  0  0  0
 20 66  1  1  0  0  0
 21 22  1  0  0  0  0
 22 41  1  0  0  0  0
 22 44  1  0  0  0  0
 22 47  2  0  0  0  0
 23 17  1  0  0  0  0
 23 67  1  0  0  0  0
 23 68  1  0  0  0  0
 24 18  2  0  0  0  0
 24 30  1  0  0  0  0
 26 20  1  0  0  0  0
 26 27  1  0  0  0  0
 26 69  1  6  0  0  0
 27 10  1  0  0  0  0
 28 23  1  0  0  0  0
 28 70  1  0  0  0  0
 29 71  1  0  0  0  0
 29 72  1  0  0  0  0
 29 73  1  0  0  0  0
 30 36  2  0  0  0  0
 32 26  1  0  0  0  0
 32 74  1  0  0  0  0
 32 75  1  0  0  0  0
 33 32  1  0  0  0  0
 34 28  1  0  0  0  0
 34 35  2  0  0  0  0
 36  7  1  0  0  0  0
 36 37  1  0  0  0  0
 37 76  1  0  0  0  0
 37 77  1  0  0  0  0
 38 14  1  0  0  0  0
 39 34  1  0  0  0  0
 39 78  1  0  0  0  0
 39 79  1  0  0  0  0
 40 30  1  0  0  0  0
 42 39  1  0  0  0  0
 42 80  1  0  0  0  0
 42 81  1  0  0  0  0
 43 40  2  0  0  0  0
 43 82  1  0  0  0  0
 45 42  1  0  0  0  0
 45 83  1  0  0  0  0
 46 24  1  0  0  0  0
 46 43  1  0  0  0  0
 48 45  1  0  0  0  0
 48 49  2  0  0  0  0
 50 48  1  0  0  0  0
 50 51  1  0  0  0  0
 50 84  1  6  0  0  0
 51 85  1  0  0  0  0
 52 50  1  0  0  0  0
 52 53  1  0  0  0  0
 52 54  1  0  0  0  0
 52 55  1  0  0  0  0
 53 38  1  0  0  0  0
 53 86  1  0  0  0  0
 53 87  1  0  0  0  0
 54 88  1  0  0  0  0
 54 89  1  0  0  0  0
 54 90  1  0  0  0  0
 55 91  1  0  0  0  0
 55 92  1  0  0  0  0
 55 93  1  0  0  0  0
M  END
