2yiv_ligand
 OpenBabel08222323343D

 17 16  0  0  0  0  0  0  0  0999 V2000
   56.3270    5.3160   35.4000 C   0  0  0  0  0  0  0  0  0  0  0  0
   57.2480    6.2230   35.2670 N   0  0  0  0  0  0  0  0  0  0  0  0
   58.6160    6.6310   35.5190 C   0  0  0  0  0  0  0  0  0  0  0  0
   59.8390    6.0250   34.8440 C   0  0  0  0  0  0  0  0  0  0  0  0
   59.7980    5.6050   33.3820 C   0  0  0  0  0  0  0  0  0  0  0  0
   61.1440    5.0040   32.9980 C   0  0  0  0  0  0  0  0  0  0  0  0
   55.3316    5.4869   34.9927 H   0  0  0  0  0  0  0  0  0  0  0  0
   56.5506    4.3849   35.9187 H   0  0  0  0  0  0  0  0  0  0  0  0
   58.7728    6.4863   36.5981 H   0  0  0  0  0  0  0  0  0  0  0  0
   58.6514    7.7050   35.2840 H   0  0  0  0  0  0  0  0  0  0  0  0
   60.1015    5.1258   35.4207 H   0  0  0  0  0  0  0  0  0  0  0  0
   60.6461    6.7670   34.9340 H   0  0  0  0  0  0  0  0  0  0  0  0
   59.5937    6.4833   32.7520 H   0  0  0  0  0  0  0  0  0  0  0  0
   59.0053    4.8565   33.2359 H   0  0  0  0  0  0  0  0  0  0  0  0
   61.1210    4.6981   31.9416 H   0  0  0  0  0  0  0  0  0  0  0  0
   61.3473    4.1265   33.6294 H   0  0  0  0  0  0  0  0  0  0  0  0
   61.9357    5.7533   33.1456 H   0  0  0  0  0  0  0  0  0  0  0  0
  1  2  2  0  0  0  0
  1  7  1  0  0  0  0
  1  8  1  0  0  0  0
  2  3  1  0  0  0  0
  3  4  1  0  0  0  0
  3  9  1  0  0  0  0
  3 10  1  0  0  0  0
  4  5  1  0  0  0  0
  4 11  1  0  0  0  0
  4 12  1  0  0  0  0
  5  6  1  0  0  0  0
  5 13  1  0  0  0  0
  5 14  1  0  0  0  0
  6 15  1  0  0  0  0
  6 16  1  0  0  0  0
  6 17  1  0  0  0  0
M  END
