2yk9_ligand
 OpenBabel08222323343D

 34 38  0  0  0  0  0  0  0  0999 V2000
    8.5650   10.3360   23.4420 C   0  0  0  0  0  0  0  0  0  0  0  0
    7.4890    9.7420   22.7970 C   0  0  0  0  0  0  0  0  0  0  0  0
    8.4020   11.5240   24.1480 C   0  0  0  0  0  0  0  0  0  0  0  0
    6.2270   10.3040   22.8680 C   0  0  0  0  0  0  0  0  0  0  0  0
   11.5690   14.6830   28.1450 C   0  0  0  0  0  0  0  0  0  0  0  0
   12.8560   14.7080   27.6500 C   0  0  0  0  0  0  0  0  0  0  0  0
   12.1460   14.4460   25.4870 C   0  0  0  0  0  0  0  0  0  0  0  0
    7.1370   12.1100   24.2230 C   0  0  0  0  0  0  0  0  0  0  0  0
    6.0390   11.4810   23.5950 C   0  0  0  0  0  0  0  0  0  0  0  0
   10.5450   14.5280   27.2130 C   0  0  0  0  0  0  0  0  0  0  0  0
   10.8000   14.3880   25.8500 C   0  0  0  0  0  0  0  0  0  0  0  0
    8.6590   14.3160   26.0820 C   0  0  0  0  0  0  0  0  0  0  0  0
    6.6390   13.3040   24.9400 C   0  0  0  0  0  0  0  0  0  0  0  0
    4.7970   12.2440   23.8900 C   0  0  0  0  0  0  0  0  0  0  0  0
    7.2080   14.2690   25.7920 C   0  0  0  0  0  0  0  0  0  0  0  0
    6.4000   15.2490   26.3950 C   0  0  0  0  0  0  0  0  0  0  0  0
    5.0280   15.2860   26.1720 C   0  0  0  0  0  0  0  0  0  0  0  0
    4.4410   14.3620   25.3290 C   0  0  0  0  0  0  0  0  0  0  0  0
   13.1530   14.5980   26.3500 N   0  0  0  0  0  0  0  0  0  0  0  0
    9.1650   14.4930   27.3340 N   0  0  0  0  0  0  0  0  0  0  0  0
    5.2310   13.3810   24.7390 C   0  0  0  0  0  0  0  0  0  0  0  0
    9.6050   14.2430   25.1550 N   0  0  0  0  0  0  0  0  0  0  0  0
    3.6480   11.9920   23.5050 O   0  0  0  0  0  0  0  0  0  0  0  0
    9.5424    9.8696   23.3953 H   0  0  0  0  0  0  0  0  0  0  0  0
    7.6391    8.8290   22.2322 H   0  0  0  0  0  0  0  0  0  0  0  0
    9.2502   11.9906   24.6357 H   0  0  0  0  0  0  0  0  0  0  0  0
    5.3906    9.8342   22.3632 H   0  0  0  0  0  0  0  0  0  0  0  0
   11.3645   14.7791   29.2052 H   0  0  0  0  0  0  0  0  0  0  0  0
   13.6726   14.8232   28.3535 H   0  0  0  0  0  0  0  0  0  0  0  0
   12.3902   14.3620   24.4342 H   0  0  0  0  0  0  0  0  0  0  0  0
    6.8543   15.9882   27.0448 H   0  0  0  0  0  0  0  0  0  0  0  0
    4.4194   16.0392   26.6592 H   0  0  0  0  0  0  0  0  0  0  0  0
    3.3762   14.4012   25.1296 H   0  0  0  0  0  0  0  0  0  0  0  0
    9.4811   14.1083   24.1414 H   0  0  0  0  0  0  0  0  0  0  0  0
  1  2  2  0  0  0  0
  1 24  1  0  0  0  0
  2 25  1  0  0  0  0
  3  1  1  0  0  0  0
  3 26  1  0  0  0  0
  4  2  1  0  0  0  0
  4 27  1  0  0  0  0
  5  6  2  0  0  0  0
  5 28  1  0  0  0  0
  6 29  1  0  0  0  0
  7 19  2  0  0  0  0
  7 30  1  0  0  0  0
  8  3  2  0  0  0  0
  8  9  1  0  0  0  0
  9  4  2  0  0  0  0
  9 14  1  0  0  0  0
 10  5  1  0  0  0  0
 11  7  1  0  0  0  0
 11 10  2  0  0  0  0
 12 20  2  0  0  0  0
 12 22  1  0  0  0  0
 13  8  1  0  0  0  0
 13 15  2  0  0  0  0
 13 21  1  0  0  0  0
 14 21  1  0  0  0  0
 14 23  2  0  0  0  0
 15 12  1  0  0  0  0
 15 16  1  0  0  0  0
 16 17  2  0  0  0  0
 16 31  1  0  0  0  0
 17 18  1  0  0  0  0
 17 32  1  0  0  0  0
 18 21  2  0  0  0  0
 18 33  1  0  0  0  0
 19  6  1  0  0  0  0
 20 10  1  0  0  0  0
 22 11  1  0  0  0  0
 22 34  1  0  0  0  0
M  END
