2ynd_ligand
 OpenBabel08222323343D

 57 60  0  0  0  0  0  0  0  0999 V2000
  -20.9130   10.5990  -25.7300 C   0  0  0  0  0  0  0  0  0  0  0  0
  -25.9680   12.1440  -26.4570 C   0  0  0  0  0  0  0  0  0  0  0  0
  -25.6380   10.8960  -23.7680 C   0  0  0  0  0  0  0  0  0  0  0  0
  -21.0630   13.4850  -26.8280 O   0  0  0  0  0  0  0  0  0  0  0  0
  -21.4930   13.3780  -29.3120 O   0  0  0  0  0  0  0  0  0  0  0  0
  -24.7160   13.5590  -29.7220 Cl  0  0  0  0  0  0  0  0  0  0  0  0
  -21.6920   15.7720  -25.5930 Cl  0  0  0  0  0  0  0  0  0  0  0  0
  -28.8780   17.5230  -26.7580 C   0  0  0  0  0  0  0  0  0  0  0  0
  -27.6820   17.0370  -27.2870 C   0  0  0  0  0  0  0  0  0  0  0  0
  -25.4640   15.4590  -27.9570 C   0  0  0  0  0  0  0  0  0  0  0  0
  -24.1550   16.3910  -26.2110 C   0  0  0  0  0  0  0  0  0  0  0  0
  -26.6260   17.4980  -25.1670 C   0  0  0  0  0  0  0  0  0  0  0  0
  -29.4310   19.5100  -21.4520 C   0  0  0  0  0  0  0  0  0  0  0  0
  -27.1520   18.8770  -21.1340 C   0  0  0  0  0  0  0  0  0  0  0  0
  -29.3670   18.7590  -22.8080 C   0  0  0  0  0  0  0  0  0  0  0  0
  -26.7730   18.7330  -22.5900 C   0  0  0  0  0  0  0  0  0  0  0  0
  -28.9410   17.9640  -25.4900 N   0  0  0  0  0  0  0  0  0  0  0  0
  -23.1640   10.5840  -24.4350 N   0  0  0  0  0  0  0  0  0  0  0  0
  -28.1110   19.9910  -20.9920 N   0  3  0  0  0  0  0  0  0  0  0  0
  -22.7900   11.9910  -27.8460 N   0  0  0  0  0  0  0  0  0  0  0  0
  -22.3620   10.8420  -25.5370 C   0  0  0  0  0  0  0  0  0  0  0  0
  -24.6220   11.6330  -25.9890 C   0  0  0  0  0  0  0  0  0  0  0  0
  -24.4160   14.6140  -28.3090 C   0  0  0  0  0  0  0  0  0  0  0  0
  -23.1310   15.5210  -26.5750 C   0  0  0  0  0  0  0  0  0  0  0  0
  -26.5090   17.1250  -26.5320 C   0  0  0  0  0  0  0  0  0  0  0  0
  -25.3160   16.4180  -26.9590 C   0  0  0  0  0  0  0  0  0  0  0  0
  -27.8610   17.9720  -24.6640 C   0  0  0  0  0  0  0  0  0  0  0  0
  -23.2410   11.5050  -26.5390 C   0  0  0  0  0  0  0  0  0  0  0  0
  -23.1950   14.5950  -27.6410 C   0  0  0  0  0  0  0  0  0  0  0  0
  -28.0010   18.4740  -23.3410 N   0  0  0  0  0  0  0  0  0  0  0  0
  -24.5270   10.9080  -24.7380 N   0  0  0  0  0  0  0  0  0  0  0  0
  -22.0240   13.4290  -27.9420 S   0  0  0  0  0  0  0  0  0  0  0  0
  -20.6165   10.9305  -26.7361 H   0  0  0  0  0  0  0  0  0  0  0  0
  -20.7037    9.5246  -25.6215 H   0  0  0  0  0  0  0  0  0  0  0  0
  -20.3432   11.1616  -24.9758 H   0  0  0  0  0  0  0  0  0  0  0  0
  -25.8482   12.6657  -27.4180 H   0  0  0  0  0  0  0  0  0  0  0  0
  -26.3756   12.8409  -25.7099 H   0  0  0  0  0  0  0  0  0  0  0  0
  -26.6582   11.2968  -26.5833 H   0  0  0  0  0  0  0  0  0  0  0  0
  -26.5703   11.1856  -24.2748 H   0  0  0  0  0  0  0  0  0  0  0  0
  -25.4248   11.6084  -22.9574 H   0  0  0  0  0  0  0  0  0  0  0  0
  -25.7475    9.8851  -23.3484 H   0  0  0  0  0  0  0  0  0  0  0  0
  -29.7674   17.5452  -27.3773 H   0  0  0  0  0  0  0  0  0  0  0  0
  -27.6626   16.5944  -28.2763 H   0  0  0  0  0  0  0  0  0  0  0  0
  -26.4146   15.3687  -28.4702 H   0  0  0  0  0  0  0  0  0  0  0  0
  -24.0425   17.0401  -25.3501 H   0  0  0  0  0  0  0  0  0  0  0  0
  -25.7680   17.4196  -24.5091 H   0  0  0  0  0  0  0  0  0  0  0  0
  -29.8386   18.8268  -20.6924 H   0  0  0  0  0  0  0  0  0  0  0  0
  -30.0999   20.3762  -21.5629 H   0  0  0  0  0  0  0  0  0  0  0  0
  -26.2517   19.0879  -20.5382 H   0  0  0  0  0  0  0  0  0  0  0  0
  -27.6158   17.9444  -20.7802 H   0  0  0  0  0  0  0  0  0  0  0  0
  -29.8979   19.3682  -23.5543 H   0  0  0  0  0  0  0  0  0  0  0  0
  -29.8859   17.7971  -22.6836 H   0  0  0  0  0  0  0  0  0  0  0  0
  -26.0728   17.8939  -22.7145 H   0  0  0  0  0  0  0  0  0  0  0  0
  -26.3020   19.6600  -22.9488 H   0  0  0  0  0  0  0  0  0  0  0  0
  -28.1666   20.2750  -20.0264 H   0  0  0  0  0  0  0  0  0  0  0  0
  -27.8150   20.7725  -21.5556 H   0  0  0  0  0  0  0  0  0  0  0  0
  -22.9499   11.4475  -28.6700 H   0  0  0  0  0  0  0  0  0  0  0  0
  1 33  1  0  0  0  0
  1 34  1  0  0  0  0
  1 35  1  0  0  0  0
  2 36  1  0  0  0  0
  2 37  1  0  0  0  0
  2 38  1  0  0  0  0
  3 39  1  0  0  0  0
  3 40  1  0  0  0  0
  3 41  1  0  0  0  0
  8 17  1  0  0  0  0
  8 42  1  0  0  0  0
  9  8  2  0  0  0  0
  9 43  1  0  0  0  0
 10 26  1  0  0  0  0
 10 44  1  0  0  0  0
 11 26  2  0  0  0  0
 11 45  1  0  0  0  0
 12 27  1  0  0  0  0
 12 46  1  0  0  0  0
 13 19  1  0  0  0  0
 13 47  1  0  0  0  0
 13 48  1  0  0  0  0
 14 19  1  0  0  0  0
 14 49  1  0  0  0  0
 14 50  1  0  0  0  0
 15 13  1  0  0  0  0
 15 51  1  0  0  0  0
 15 52  1  0  0  0  0
 16 14  1  0  0  0  0
 16 53  1  0  0  0  0
 16 54  1  0  0  0  0
 19 55  1  0  0  0  0
 19 56  1  0  0  0  0
 20 28  1  0  0  0  0
 20 57  1  0  0  0  0
 21  1  1  0  0  0  0
 21 18  2  0  0  0  0
 22  2  1  0  0  0  0
 22 31  1  0  0  0  0
 23  6  1  0  0  0  0
 23 10  2  0  0  0  0
 24  7  1  0  0  0  0
 24 11  1  0  0  0  0
 25  9  1  0  0  0  0
 25 12  2  0  0  0  0
 26 25  1  0  0  0  0
 27 17  2  0  0  0  0
 27 30  1  0  0  0  0
 28 21  1  0  0  0  0
 28 22  2  0  0  0  0
 29 23  1  0  0  0  0
 29 24  2  0  0  0  0
 29 32  1  0  0  0  0
 30 15  1  0  0  0  0
 30 16  1  0  0  0  0
 31  3  1  0  0  0  0
 31 18  1  0  0  0  0
 32  4  2  0  0  0  0
 32  5  2  0  0  0  0
 32 20  1  0  0  0  0
M  CHG  1  19   1
M  END
