2ynr_ligand
 OpenBabel08222323343D

138138  0  0  1  0  0  0  0  0999 V2000
    2.3450   12.5670    5.0130 N   0  3  0  0  0  0  0  0  0  0  0  0
    1.6200   12.6770    3.7520 C   0  0  2  0  0  0  0  0  0  0  0  0
    0.8320   11.4140    3.4220 C   0  0  0  0  0  0  0  0  0  0  0  0
    1.3970   10.3720    3.0980 O   0  0  0  0  0  0  0  0  0  0  0  0
    2.5600   13.0500    2.6040 C   0  0  0  0  0  0  0  0  0  0  0  0
    2.6090   14.5510    2.3300 C   0  0  0  0  0  0  0  0  0  0  0  0
    3.4390   15.2600    3.3870 C   0  0  0  0  0  0  0  0  0  0  0  0
    3.1190   14.8520    0.9330 C   0  0  0  0  0  0  0  0  0  0  0  0
   -0.4860   11.5390    3.5030 N   0  0  0  0  0  0  0  0  0  0  0  0
   -1.3890   10.4370    3.2750 C   0  0  0  0  0  0  0  0  0  0  0  0
   -1.4960    9.6130    4.5350 C   0  0  0  0  0  0  0  0  0  0  0  0
   -1.8100   10.1240    5.6060 O   0  0  0  0  0  0  0  0  0  0  0  0
   -1.2130    8.3270    4.4040 N   0  0  0  0  0  0  0  0  0  0  0  0
   -1.2960    7.4220    5.5270 C   0  0  2  0  0  0  0  0  0  0  0  0
    0.0670    6.8240    5.8590 C   0  0  0  0  0  0  0  0  0  0  0  0
    0.9220    6.6820    4.9960 O   0  0  0  0  0  0  0  0  0  0  0  0
   -2.3180    6.3260    5.2370 C   0  0  0  0  0  0  0  0  0  0  0  0
   -3.7590    6.8010    5.2570 C   0  0  0  0  0  0  0  0  0  0  0  0
   -4.5770    6.1500    4.1610 C   0  0  0  0  0  0  0  0  0  0  0  0
   -6.0270    6.5970    4.2280 C   0  0  0  0  0  0  0  0  0  0  0  0
   -6.8760    5.9640    3.1850 N   0  3  0  0  0  0  0  0  0  0  0  0
    0.2460    6.4930    7.1280 N   0  0  0  0  0  0  0  0  0  0  0  0
    1.4860    5.9260    7.6550 C   0  0  2  0  0  0  0  0  0  0  0  0
    1.2240    4.6080    8.4170 C   0  0  0  0  0  0  0  0  0  0  0  0
    0.4900    4.6030    9.4040 O   0  0  0  0  0  0  0  0  0  0  0  0
    2.1710    6.9740    8.5680 C   0  0  0  0  0  0  0  0  0  0  0  0
    3.5290    6.5850    9.1240 C   0  0  0  0  0  0  0  0  0  0  0  0
    4.2870    7.8150    9.5840 C   0  0  0  0  0  0  0  0  0  0  0  0
    5.0930    7.5550   10.7800 N   0  0  0  0  0  0  0  0  0  0  0  0
    4.7740    7.9740   12.0010 C   0  0  0  0  0  3  0  0  0  0  0  0
    3.6690    8.6810   12.2020 N   0  0  0  0  0  0  0  0  0  0  0  0
    5.5640    7.6960   13.0300 N   0  0  0  0  0  0  0  0  0  0  0  0
    1.8440    3.5000    7.9550 N   0  0  0  0  0  0  0  0  0  0  0  0
    1.7550    2.1740    8.6050 C   0  0  2  0  0  0  0  0  0  0  0  0
    2.8700    1.9930    9.6490 C   0  0  0  0  0  0  0  0  0  0  0  0
    3.9780    2.5090    9.4500 O   0  0  0  0  0  0  0  0  0  0  0  0
    1.8020    1.0240    7.5740 C   0  0  0  0  0  0  0  0  0  0  0  0
    3.0270    1.0070    6.6460 C   0  0  0  0  0  0  0  0  0  0  0  0
    3.5670   -0.4170    6.4180 C   0  0  0  0  0  0  0  0  0  0  0  0
    2.8630   -1.1860    5.3150 C   0  0  0  0  0  0  0  0  0  0  0  0
    3.3650   -2.5830    5.1950 N   0  3  0  0  0  0  0  0  0  0  0  0
    2.5850    1.2680   10.7530 N   0  0  0  0  0  0  0  0  0  0  0  0
    3.6130    0.9940   11.7690 C   0  0  2  0  0  0  0  0  0  0  0  0
    4.3860   -0.3040   11.4430 C   0  0  0  0  0  0  0  0  0  0  0  0
    3.7760   -1.3760   11.3240 O   0  0  0  0  0  0  0  0  0  0  0  0
    3.0440    0.9330   13.2020 C   0  0  0  0  0  0  0  0  0  0  0  0
    4.1540    0.7080   14.2310 C   0  0  0  0  0  0  0  0  0  0  0  0
    3.7540    0.8870   15.6730 C   0  0  0  0  0  0  0  0  0  0  0  0
    4.9270    0.7550   16.5380 N   0  0  0  0  0  0  0  0  0  0  0  0
    4.9390    0.9710   17.8500 C   0  0  0  0  0  3  0  0  0  0  0  0
    3.8330    1.3470   18.4780 N   0  0  0  0  0  0  0  0  0  0  0  0
    6.0610    0.8210   18.5430 N   0  0  0  0  0  0  0  0  0  0  0  0
    5.7410   -0.1880   11.3450 N   0  0  0  0  0  0  0  0  0  0  0  0
    6.7140   -1.2730   11.1090 C   0  0  2  0  0  0  0  0  0  0  0  0
    6.4880   -1.9510    9.7530 C   0  0  0  0  0  0  0  0  0  0  0  0
    6.6149   -1.2963    8.6840 O   0  5  0  0  0  0  0  0  0  0  0  0
    6.6470   -2.3080   12.2490 C   0  0  0  0  0  0  0  0  0  0  0  0
    7.8600   -3.1660   12.3910 C   0  0  0  0  0  0  0  0  0  0  0  0
    7.8690   -4.4800   11.9540 N   0  0  0  0  0  0  0  0  0  0  0  0
    9.0530   -2.8870   12.9660 C   0  0  0  0  0  0  0  0  0  0  0  0
    9.0690   -4.9490   12.2550 C   0  0  0  0  0  0  0  0  0  0  0  0
    9.8160   -4.0260   12.8650 N   0  0  0  0  0  0  0  0  0  0  0  0
    6.1735   -3.1702    9.7071 O   0  0  0  0  0  0  0  0  0  0  0  0
    2.8484   13.4228    5.1869 H   0  0  0  0  0  0  0  0  0  0  0  0
    2.9959   11.7991    4.9605 H   0  0  0  0  0  0  0  0  0  0  0  0
    1.6918   12.4031    5.7630 H   0  0  0  0  0  0  0  0  0  0  0  0
    0.8936   13.4953    3.8643 H   0  0  0  0  0  0  0  0  0  0  0  0
    2.2177   12.5392    1.6919 H   0  0  0  0  0  0  0  0  0  0  0  0
    3.5742   12.7077    2.8574 H   0  0  0  0  0  0  0  0  0  0  0  0
    1.5809   14.9362    2.3970 H   0  0  0  0  0  0  0  0  0  0  0  0
    3.4622   16.3386    3.1724 H   0  0  0  0  0  0  0  0  0  0  0  0
    4.4644   14.8619    3.3760 H   0  0  0  0  0  0  0  0  0  0  0  0
    2.9913   15.0929    4.3778 H   0  0  0  0  0  0  0  0  0  0  0  0
    2.4976   14.3246    0.1943 H   0  0  0  0  0  0  0  0  0  0  0  0
    4.1619   14.5142    0.8427 H   0  0  0  0  0  0  0  0  0  0  0  0
    3.0671   15.9353    0.7492 H   0  0  0  0  0  0  0  0  0  0  0  0
   -0.8696   12.4338    3.7315 H   0  0  0  0  0  0  0  0  0  0  0  0
   -1.0048    9.8099    2.4571 H   0  0  0  0  0  0  0  0  0  0  0  0
   -2.3819   10.8252    3.0041 H   0  0  0  0  0  0  0  0  0  0  0  0
   -0.9362    7.9746    3.5100 H   0  0  0  0  0  0  0  0  0  0  0  0
   -1.6400    7.9915    6.4030 H   0  0  0  0  0  0  0  0  0  0  0  0
   -2.2037    5.5377    5.9956 H   0  0  0  0  0  0  0  0  0  0  0  0
   -2.1053    5.9102    4.2411 H   0  0  0  0  0  0  0  0  0  0  0  0
   -3.7771    7.8917    5.1157 H   0  0  0  0  0  0  0  0  0  0  0  0
   -4.2039    6.5500    6.2312 H   0  0  0  0  0  0  0  0  0  0  0  0
   -4.5314    5.0572    4.2784 H   0  0  0  0  0  0  0  0  0  0  0  0
   -4.1583    6.4316    3.1836 H   0  0  0  0  0  0  0  0  0  0  0  0
   -6.0643    7.6884    4.0962 H   0  0  0  0  0  0  0  0  0  0  0  0
   -6.4304    6.3330    5.2167 H   0  0  0  0  0  0  0  0  0  0  0  0
   -7.8236    6.2954    3.2764 H   0  0  0  0  0  0  0  0  0  0  0  0
   -6.8579    4.9627    3.2991 H   0  0  0  0  0  0  0  0  0  0  0  0
   -6.5224    6.2047    2.2723 H   0  0  0  0  0  0  0  0  0  0  0  0
   -0.5118    6.6395    7.7638 H   0  0  0  0  0  0  0  0  0  0  0  0
    2.1560    5.7053    6.8110 H   0  0  0  0  0  0  0  0  0  0  0  0
    1.5017    7.1678    9.4192 H   0  0  0  0  0  0  0  0  0  0  0  0
    2.2983    7.8974    7.9840 H   0  0  0  0  0  0  0  0  0  0  0  0
    4.1084    6.0749    8.3403 H   0  0  0  0  0  0  0  0  0  0  0  0
    3.3895    5.9056    9.9778 H   0  0  0  0  0  0  0  0  0  0  0  0
    3.5638    8.6122    9.8110 H   0  0  0  0  0  0  0  0  0  0  0  0
    4.9532    8.1442    8.7729 H   0  0  0  0  0  0  0  0  0  0  0  0
    5.9618    7.0133   10.6677 H   0  0  0  0  0  0  0  0  0  0  0  0
    3.4285    9.0021   13.1507 H   0  0  0  0  0  0  0  0  0  0  0  0
    3.0519    8.9086   11.4093 H   0  0  0  0  0  0  0  0  0  0  0  0
    6.4241    7.1480   12.8856 H   0  0  0  0  0  0  0  0  0  0  0  0
    5.3172    8.0281   13.9732 H   0  0  0  0  0  0  0  0  0  0  0  0
    2.3955    3.5810    7.1248 H   0  0  0  0  0  0  0  0  0  0  0  0
    0.7879    2.1213    9.1265 H   0  0  0  0  0  0  0  0  0  0  0  0
    0.9029    1.0981    6.9446 H   0  0  0  0  0  0  0  0  0  0  0  0
    1.7848    0.0736    8.1275 H   0  0  0  0  0  0  0  0  0  0  0  0
    3.8218    1.6186    7.0979 H   0  0  0  0  0  0  0  0  0  0  0  0
    2.7411    1.4367    5.6746 H   0  0  0  0  0  0  0  0  0  0  0  0
    3.4557   -0.9813    7.3556 H   0  0  0  0  0  0  0  0  0  0  0  0
    4.6335   -0.3430    6.1589 H   0  0  0  0  0  0  0  0  0  0  0  0
    3.0287   -0.6667    4.3596 H   0  0  0  0  0  0  0  0  0  0  0  0
    1.7856   -1.2144    5.5349 H   0  0  0  0  0  0  0  0  0  0  0  0
    2.8716   -3.0547    4.4533 H   0  0  0  0  0  0  0  0  0  0  0  0
    3.2119   -3.0708    6.0637 H   0  0  0  0  0  0  0  0  0  0  0  0
    4.3511   -2.5690    4.9867 H   0  0  0  0  0  0  0  0  0  0  0  0
    1.6595    0.9116   10.8816 H   0  0  0  0  0  0  0  0  0  0  0  0
    4.3306    1.8271   11.7372 H   0  0  0  0  0  0  0  0  0  0  0  0
    2.3225    0.1052   13.2663 H   0  0  0  0  0  0  0  0  0  0  0  0
    2.5345    1.8818   13.4261 H   0  0  0  0  0  0  0  0  0  0  0  0
    4.9649    1.4190   14.0144 H   0  0  0  0  0  0  0  0  0  0  0  0
    4.5253   -0.3201   14.1084 H   0  0  0  0  0  0  0  0  0  0  0  0
    3.0137    0.1197   15.9436 H   0  0  0  0  0  0  0  0  0  0  0  0
    3.3129    1.8857   15.8074 H   0  0  0  0  0  0  0  0  0  0  0  0
    5.8132    0.4725   16.0956 H   0  0  0  0  0  0  0  0  0  0  0  0
    3.8489    1.5127   19.4945 H   0  0  0  0  0  0  0  0  0  0  0  0
    2.9581    1.4733   17.9493 H   0  0  0  0  0  0  0  0  0  0  0  0
    6.9260    0.5294   18.0658 H   0  0  0  0  0  0  0  0  0  0  0  0
    6.0668    0.9962   19.5580 H   0  0  0  0  0  0  0  0  0  0  0  0
    6.1171    0.7333   11.4438 H   0  0  0  0  0  0  0  0  0  0  0  0
    7.7214   -0.8314   11.1038 H   0  0  0  0  0  0  0  0  0  0  0  0
    5.7839   -2.9645   12.0642 H   0  0  0  0  0  0  0  0  0  0  0  0
    6.4995   -1.7657   13.1946 H   0  0  0  0  0  0  0  0  0  0  0  0
    7.1012   -4.9869   11.4909 H   0  0  0  0  0  0  0  0  0  0  0  0
    9.3507   -1.9432   13.4205 H   0  0  0  0  0  0  0  0  0  0  0  0
    9.4051   -5.9608   12.0330 H   0  0  0  0  0  0  0  0  0  0  0  0
  1  2  1  0  0  0  0
  1 64  1  0  0  0  0
  1 65  1  0  0  0  0
  1 66  1  0  0  0  0
  2  3  1  0  0  0  0
  2  5  1  0  0  0  0
  2 67  1  1  0  0  0
  3  4  2  0  0  0  0
  3  9  1  0  0  0  0
  5  6  1  0  0  0  0
  5 68  1  0  0  0  0
  5 69  1  0  0  0  0
  6  7  1  0  0  0  0
  6  8  1  0  0  0  0
  6 70  1  0  0  0  0
  7 71  1  0  0  0  0
  7 72  1  0  0  0  0
  7 73  1  0  0  0  0
  8 74  1  0  0  0  0
  8 75  1  0  0  0  0
  8 76  1  0  0  0  0
  9 10  1  0  0  0  0
  9 77  1  0  0  0  0
 10 11  1  0  0  0  0
 10 78  1  0  0  0  0
 10 79  1  0  0  0  0
 11 12  2  0  0  0  0
 11 13  1  0  0  0  0
 13 14  1  0  0  0  0
 13 80  1  0  0  0  0
 14 15  1  0  0  0  0
 14 17  1  0  0  0  0
 14 81  1  1  0  0  0
 15 16  2  0  0  0  0
 15 22  1  0  0  0  0
 17 18  1  0  0  0  0
 17 82  1  0  0  0  0
 17 83  1  0  0  0  0
 18 19  1  0  0  0  0
 18 84  1  0  0  0  0
 18 85  1  0  0  0  0
 19 20  1  0  0  0  0
 19 86  1  0  0  0  0
 19 87  1  0  0  0  0
 20 21  1  0  0  0  0
 20 88  1  0  0  0  0
 20 89  1  0  0  0  0
 21 90  1  0  0  0  0
 21 91  1  0  0  0  0
 21 92  1  0  0  0  0
 22 23  1  0  0  0  0
 22 93  1  0  0  0  0
 23 24  1  0  0  0  0
 23 26  1  0  0  0  0
 23 94  1  6  0  0  0
 24 25  2  0  0  0  0
 24 33  1  0  0  0  0
 26 27  1  0  0  0  0
 26 95  1  0  0  0  0
 26 96  1  0  0  0  0
 27 28  1  0  0  0  0
 27 97  1  0  0  0  0
 27 98  1  0  0  0  0
 28 29  1  0  0  0  0
 28 99  1  0  0  0  0
 28100  1  0  0  0  0
 29 30  1  0  0  0  0
 29101  1  0  0  0  0
 30 31  1  0  0  0  0
 30 32  1  0  0  0  0
 31102  1  0  0  0  0
 31103  1  0  0  0  0
 32104  1  0  0  0  0
 32105  1  0  0  0  0
 33 34  1  0  0  0  0
 33106  1  0  0  0  0
 34 35  1  0  0  0  0
 34 37  1  0  0  0  0
 34107  1  1  0  0  0
 35 36  2  0  0  0  0
 35 42  1  0  0  0  0
 37 38  1  0  0  0  0
 37108  1  0  0  0  0
 37109  1  0  0  0  0
 38 39  1  0  0  0  0
 38110  1  0  0  0  0
 38111  1  0  0  0  0
 39 40  1  0  0  0  0
 39112  1  0  0  0  0
 39113  1  0  0  0  0
 40 41  1  0  0  0  0
 40114  1  0  0  0  0
 40115  1  0  0  0  0
 41116  1  0  0  0  0
 41117  1  0  0  0  0
 41118  1  0  0  0  0
 42 43  1  0  0  0  0
 42119  1  0  0  0  0
 43 44  1  0  0  0  0
 43 46  1  0  0  0  0
 43120  1  6  0  0  0
 44 45  2  0  0  0  0
 44 53  1  0  0  0  0
 46 47  1  0  0  0  0
 46121  1  0  0  0  0
 46122  1  0  0  0  0
 47 48  1  0  0  0  0
 47123  1  0  0  0  0
 47124  1  0  0  0  0
 48 49  1  0  0  0  0
 48125  1  0  0  0  0
 48126  1  0  0  0  0
 49 50  1  0  0  0  0
 49127  1  0  0  0  0
 50 51  1  0  0  0  0
 50 52  1  0  0  0  0
 51128  1  0  0  0  0
 51129  1  0  0  0  0
 52130  1  0  0  0  0
 52131  1  0  0  0  0
 53 54  1  0  0  0  0
 53132  1  0  0  0  0
 54 55  1  0  0  0  0
 54 57  1  0  0  0  0
 54133  1  6  0  0  0
 55 56  1  0  0  0  0
 55 63  2  0  0  0  0
 57 58  1  0  0  0  0
 57134  1  0  0  0  0
 57135  1  0  0  0  0
 58 59  1  0  0  0  0
 58 60  2  0  0  0  0
 59 61  1  0  0  0  0
 59136  1  0  0  0  0
 60 62  1  0  0  0  0
 60137  1  0  0  0  0
 61 62  2  0  0  0  0
 61138  1  0  0  0  0
M  CHG  4   1   1  21   1  41   1  56  -1
M  END
