2yns_ligand
 OpenBabel08222323343D

165165  0  0  1  0  0  0  0  0999 V2000
    6.3050  -18.1190   23.8860 N   0  3  0  0  0  0  0  0  0  0  0  0
    6.2140  -17.4330   22.5970 C   0  0  2  0  0  0  0  0  0  0  0  0
    6.7740  -16.0030   22.6950 C   0  0  0  0  0  0  0  0  0  0  0  0
    7.6370  -15.6490   21.9010 O   0  0  0  0  0  0  0  0  0  0  0  0
    4.7770  -17.4150   22.0890 C   0  0  0  0  0  0  0  0  0  0  0  0
    4.6490  -16.6550   20.8950 O   0  0  0  0  0  0  0  0  0  0  0  0
    6.3030  -15.1920   23.6590 N   0  0  0  0  0  0  0  0  0  0  0  0
    6.8300  -13.8320   23.8380 C   0  0  2  0  0  0  0  0  0  0  0  0
    7.7840  -13.7790   25.0590 C   0  0  0  0  0  0  0  0  0  0  0  0
    8.6090  -12.8670   25.1540 O   0  0  0  0  0  0  0  0  0  0  0  0
    5.7360  -12.7220   23.9180 C   0  0  0  0  0  0  0  0  0  0  0  0
    4.8810  -12.6840   22.6600 C   0  0  0  0  0  0  0  0  0  0  0  0
    4.8680  -12.8380   25.1670 C   0  0  0  0  0  0  0  0  0  0  0  0
    7.6720  -14.7630   25.9740 N   0  0  0  0  0  0  0  0  0  0  0  0
    8.4290  -14.8110   27.2270 C   0  0  2  0  0  0  0  0  0  0  0  0
    9.8320  -15.3470   27.0500 C   0  0  0  0  0  0  0  0  0  0  0  0
   10.1030  -16.0860   26.1010 O   0  0  0  0  0  0  0  0  0  0  0  0
    7.6930  -15.6470   28.2740 C   0  0  0  0  0  0  0  0  0  0  0  0
    6.3010  -15.1680   28.6650 C   0  0  0  0  0  0  0  0  0  0  0  0
    5.5830  -16.2120   29.4550 C   0  0  0  0  0  0  0  0  0  0  0  0
    6.3540  -13.8400   29.4020 C   0  0  0  0  0  0  0  0  0  0  0  0
   10.7080  -14.9660   27.9830 N   0  0  0  0  0  0  0  0  0  0  0  0
   12.0980  -15.3980   27.9890 C   0  0  0  0  0  0  0  0  0  0  0  0
   13.0770  -14.2880   28.2840 C   0  0  0  0  0  0  0  0  0  0  0  0
   12.6920  -13.2270   28.7800 O   0  0  0  0  0  0  0  0  0  0  0  0
   14.3580  -14.5360   27.9820 N   0  0  0  0  0  0  0  0  0  0  0  0
   15.4390  -13.5830   28.2160 C   0  0  2  0  0  0  0  0  0  0  0  0
   15.3150  -12.3530   27.3430 C   0  0  0  0  0  0  0  0  0  0  0  0
   15.0610  -12.4710   26.1380 O   0  0  0  0  0  0  0  0  0  0  0  0
   16.8050  -14.2350   27.9600 C   0  0  0  0  0  0  0  0  0  0  0  0
   17.1360  -15.4220   28.8660 C   0  0  0  0  0  0  0  0  0  0  0  0
   17.8350  -14.9950   30.1140 C   0  0  0  0  0  0  0  0  0  0  0  0
   18.1850  -16.1850   30.9610 C   0  0  0  0  0  0  0  0  0  0  0  0
   19.0240  -15.7580   32.1210 N   0  3  0  0  0  0  0  0  0  0  0  0
   15.5230  -11.1760   27.9520 N   0  0  0  0  0  0  0  0  0  0  0  0
   15.5080   -9.8870   27.2650 C   0  0  2  0  0  0  0  0  0  0  0  0
   16.8350   -9.2000   27.4540 C   0  0  0  0  0  0  0  0  0  0  0  0
   17.2510   -8.9800   28.5930 O   0  0  0  0  0  0  0  0  0  0  0  0
   14.3970   -8.9880   27.8090 C   0  0  0  0  0  0  0  0  0  0  0  0
   12.9830   -9.3560   27.3920 C   0  0  0  0  0  0  0  0  0  0  0  0
   12.0130   -8.4340   28.0730 C   0  0  0  0  0  0  0  0  0  0  0  0
   12.0910   -8.5690   29.5340 N   0  0  0  0  0  0  0  0  0  0  0  0
   11.7060   -7.6410   30.4010 C   0  0  0  0  0  3  0  0  0  0  0  0
   11.1960   -6.4920   29.9720 N   0  0  0  0  0  0  0  0  0  0  0  0
   11.8250   -7.8550   31.7050 N   0  0  0  0  0  0  0  0  0  0  0  0
   17.4970   -8.8350   26.3560 N   0  0  0  0  0  0  0  0  0  0  0  0
   18.7460   -8.0780   26.3890 C   0  0  2  0  0  0  0  0  0  0  0  0
   18.3910   -6.6230   26.6580 C   0  0  0  0  0  0  0  0  0  0  0  0
   17.2050   -6.2720   26.6010 O   0  0  0  0  0  0  0  0  0  0  0  0
   19.5270   -8.2340   25.0640 C   0  0  0  0  0  0  0  0  0  0  0  0
   20.1810   -9.6030   24.8470 C   0  0  0  0  0  0  0  0  0  0  0  0
   21.5620   -9.6960   25.5170 C   0  0  0  0  0  0  0  0  0  0  0  0
   22.0590  -11.1150   25.5200 C   0  0  0  0  0  0  0  0  0  0  0  0
   23.3100  -11.2250   26.2970 N   0  3  0  0  0  0  0  0  0  0  0  0
   19.3920   -5.7750   26.9770 N   0  0  0  0  0  0  0  0  0  0  0  0
   19.1550   -4.3480   27.2070 C   0  0  2  0  0  0  0  0  0  0  0  0
   18.7640   -3.6780   25.8720 C   0  0  0  0  0  0  0  0  0  0  0  0
   19.4750   -3.8600   24.8810 O   0  0  0  0  0  0  0  0  0  0  0  0
   20.3990   -3.6840   27.8250 C   0  0  0  0  0  0  0  0  0  0  0  0
   20.1040   -2.2970   28.3740 C   0  0  0  0  0  0  0  0  0  0  0  0
   21.2760   -1.6660   29.1050 C   0  0  0  0  0  0  0  0  0  0  0  0
   21.6000   -2.3330   30.3700 N   0  0  0  0  0  0  0  0  0  0  0  0
   20.9280   -2.1790   31.5100 C   0  0  0  0  0  3  0  0  0  0  0  0
   19.8520   -1.4040   31.5560 N   0  0  0  0  0  0  0  0  0  0  0  0
   21.3080   -2.8230   32.6010 N   0  0  0  0  0  0  0  0  0  0  0  0
   17.5810   -3.0070   25.8300 N   0  0  0  0  0  0  0  0  0  0  0  0
   17.0010   -2.3120   24.6600 C   0  0  2  0  0  0  0  0  0  0  0  0
   17.2320   -3.0380   23.3170 C   0  0  0  0  0  0  0  0  0  0  0  0
   17.0602   -4.2815   23.2086 O   0  5  0  0  0  0  0  0  0  0  0  0
   17.5390   -0.8770   24.5520 C   0  0  0  0  0  0  0  0  0  0  0  0
   17.1870   -0.0220   25.7290 C   0  0  0  0  0  0  0  0  0  0  0  0
   15.9130    0.4860   25.8960 N   0  0  0  0  0  0  0  0  0  0  0  0
   17.9560    0.3740   26.7700 C   0  0  0  0  0  0  0  0  0  0  0  0
   15.9470    1.1760   27.0240 C   0  0  0  0  0  0  0  0  0  0  0  0
   17.1550    1.1360   27.5860 N   0  0  0  0  0  0  0  0  0  0  0  0
   17.5991   -2.3746   22.3107 O   0  0  0  0  0  0  0  0  0  0  0  0
    5.9331  -19.0517   23.7972 H   0  0  0  0  0  0  0  0  0  0  0  0
    5.7746  -17.6100   24.5757 H   0  0  0  0  0  0  0  0  0  0  0  0
    7.2700  -18.1680   24.1732 H   0  0  0  0  0  0  0  0  0  0  0  0
    6.8252  -17.9898   21.8714 H   0  0  0  0  0  0  0  0  0  0  0  0
    4.1313  -16.9740   22.8627 H   0  0  0  0  0  0  0  0  0  0  0  0
    4.4569  -18.4483   21.8894 H   0  0  0  0  0  0  0  0  0  0  0  0
    3.7430  -16.6664   20.6092 H   0  0  0  0  0  0  0  0  0  0  0  0
    5.5797  -15.5211   24.2661 H   0  0  0  0  0  0  0  0  0  0  0  0
    7.4329  -13.6090   22.9454 H   0  0  0  0  0  0  0  0  0  0  0  0
    6.2632  -11.7587   23.9818 H   0  0  0  0  0  0  0  0  0  0  0  0
    4.1242  -11.8913   22.7548 H   0  0  0  0  0  0  0  0  0  0  0  0
    4.3807  -13.6546   22.5272 H   0  0  0  0  0  0  0  0  0  0  0  0
    5.5199  -12.4785   21.7885 H   0  0  0  0  0  0  0  0  0  0  0  0
    5.5109  -12.8633   26.0592 H   0  0  0  0  0  0  0  0  0  0  0  0
    4.2745  -13.7627   25.1165 H   0  0  0  0  0  0  0  0  0  0  0  0
    4.1928  -11.9716   25.2261 H   0  0  0  0  0  0  0  0  0  0  0  0
    7.0314  -15.5073   25.7852 H   0  0  0  0  0  0  0  0  0  0  0  0
    8.5088  -13.7809   27.6045 H   0  0  0  0  0  0  0  0  0  0  0  0
    8.3099  -15.6622   29.1846 H   0  0  0  0  0  0  0  0  0  0  0  0
    7.5968  -16.6692   27.8792 H   0  0  0  0  0  0  0  0  0  0  0  0
    5.7329  -15.0060   27.7371 H   0  0  0  0  0  0  0  0  0  0  0  0
    4.5823  -15.8437   29.7252 H   0  0  0  0  0  0  0  0  0  0  0  0
    6.1512  -16.4347   30.3702 H   0  0  0  0  0  0  0  0  0  0  0  0
    5.4865  -17.1267   28.8516 H   0  0  0  0  0  0  0  0  0  0  0  0
    6.8894  -13.1010   28.7878 H   0  0  0  0  0  0  0  0  0  0  0  0
    6.8807  -13.9723   30.3586 H   0  0  0  0  0  0  0  0  0  0  0  0
    5.3304  -13.4855   29.5929 H   0  0  0  0  0  0  0  0  0  0  0  0
   10.3948  -14.3560   28.7109 H   0  0  0  0  0  0  0  0  0  0  0  0
   12.3357  -15.8170   27.0001 H   0  0  0  0  0  0  0  0  0  0  0  0
   12.2160  -16.1779   28.7557 H   0  0  0  0  0  0  0  0  0  0  0  0
   14.5861  -15.4204   27.5748 H   0  0  0  0  0  0  0  0  0  0  0  0
   15.3916  -13.2674   29.2687 H   0  0  0  0  0  0  0  0  0  0  0  0
   17.5810  -13.4689   28.1046 H   0  0  0  0  0  0  0  0  0  0  0  0
   16.8255  -14.5856   26.9176 H   0  0  0  0  0  0  0  0  0  0  0  0
   17.7856  -16.1185   28.3157 H   0  0  0  0  0  0  0  0  0  0  0  0
   16.2004  -15.9317   29.1397 H   0  0  0  0  0  0  0  0  0  0  0  0
   17.1755  -14.3261   30.6863 H   0  0  0  0  0  0  0  0  0  0  0  0
   18.7574  -14.4591   29.8458 H   0  0  0  0  0  0  0  0  0  0  0  0
   18.7452  -16.9117   30.3544 H   0  0  0  0  0  0  0  0  0  0  0  0
   17.2610  -16.6522   31.3323 H   0  0  0  0  0  0  0  0  0  0  0  0
   19.2539  -16.5623   32.6834 H   0  0  0  0  0  0  0  0  0  0  0  0
   18.5120  -15.0929   32.6792 H   0  0  0  0  0  0  0  0  0  0  0  0
   19.8721  -15.3308   31.7831 H   0  0  0  0  0  0  0  0  0  0  0  0
   15.6991  -11.1814   28.9364 H   0  0  0  0  0  0  0  0  0  0  0  0
   15.3369  -10.0574   26.1918 H   0  0  0  0  0  0  0  0  0  0  0  0
   14.5940   -7.9622   27.4642 H   0  0  0  0  0  0  0  0  0  0  0  0
   14.4440   -9.0210   28.9075 H   0  0  0  0  0  0  0  0  0  0  0  0
   12.7713  -10.3948   27.6852 H   0  0  0  0  0  0  0  0  0  0  0  0
   12.8828   -9.2552   26.3012 H   0  0  0  0  0  0  0  0  0  0  0  0
   10.9925   -8.6793   27.7436 H   0  0  0  0  0  0  0  0  0  0  0  0
   12.2485   -7.3961   27.7952 H   0  0  0  0  0  0  0  0  0  0  0  0
   12.4722   -9.4477   29.9128 H   0  0  0  0  0  0  0  0  0  0  0  0
   10.8989   -5.7755   30.6497 H   0  0  0  0  0  0  0  0  0  0  0  0
   11.0976   -6.3175   28.9617 H   0  0  0  0  0  0  0  0  0  0  0  0
   12.2193   -8.7428   32.0473 H   0  0  0  0  0  0  0  0  0  0  0  0
   11.5231   -7.1333   32.3750 H   0  0  0  0  0  0  0  0  0  0  0  0
   17.1201   -9.0920   25.4661 H   0  0  0  0  0  0  0  0  0  0  0  0
   19.3752   -8.4534   27.2095 H   0  0  0  0  0  0  0  0  0  0  0  0
   20.3198   -7.4717   25.0450 H   0  0  0  0  0  0  0  0  0  0  0  0
   18.8273   -8.0562   24.2340 H   0  0  0  0  0  0  0  0  0  0  0  0
   20.2986   -9.7729   23.7666 H   0  0  0  0  0  0  0  0  0  0  0  0
   19.5277  -10.3796   25.2713 H   0  0  0  0  0  0  0  0  0  0  0  0
   21.4844   -9.3388   26.5545 H   0  0  0  0  0  0  0  0  0  0  0  0
   22.2742   -9.0656   24.9645 H   0  0  0  0  0  0  0  0  0  0  0  0
   22.2472  -11.4345   24.4844 H   0  0  0  0  0  0  0  0  0  0  0  0
   21.2948  -11.7650   25.9711 H   0  0  0  0  0  0  0  0  0  0  0  0
   23.6280  -12.1815   26.2881 H   0  0  0  0  0  0  0  0  0  0  0  0
   23.1416  -10.9358   27.2478 H   0  0  0  0  0  0  0  0  0  0  0  0
   24.0144  -10.6329   25.8854 H   0  0  0  0  0  0  0  0  0  0  0  0
   20.3227   -6.1317   27.0587 H   0  0  0  0  0  0  0  0  0  0  0  0
   18.3185   -4.2380   27.9127 H   0  0  0  0  0  0  0  0  0  0  0  0
   21.1756   -3.5994   27.0506 H   0  0  0  0  0  0  0  0  0  0  0  0
   20.7667   -4.3177   28.6455 H   0  0  0  0  0  0  0  0  0  0  0  0
   19.2590   -2.3734   29.0741 H   0  0  0  0  0  0  0  0  0  0  0  0
   19.8264   -1.6432   27.5341 H   0  0  0  0  0  0  0  0  0  0  0  0
   21.0295   -0.6153   29.3179 H   0  0  0  0  0  0  0  0  0  0  0  0
   22.1595   -1.7102   28.4512 H   0  0  0  0  0  0  0  0  0  0  0  0
   22.4096   -2.9697   30.3778 H   0  0  0  0  0  0  0  0  0  0  0  0
   19.3373   -1.2895   32.4408 H   0  0  0  0  0  0  0  0  0  0  0  0
   19.5315   -0.9169   30.7069 H   0  0  0  0  0  0  0  0  0  0  0  0
   22.1415   -3.4276   32.5781 H   0  0  0  0  0  0  0  0  0  0  0  0
   20.7704   -2.7199   33.4735 H   0  0  0  0  0  0  0  0  0  0  0  0
   17.0493   -2.9810   26.6766 H   0  0  0  0  0  0  0  0  0  0  0  0
   15.9145   -2.2577   24.8227 H   0  0  0  0  0  0  0  0  0  0  0  0
   17.1195   -0.4142   23.6466 H   0  0  0  0  0  0  0  0  0  0  0  0
   18.6349   -0.9205   24.4676 H   0  0  0  0  0  0  0  0  0  0  0  0
   15.1044    0.3546   25.2716 H   0  0  0  0  0  0  0  0  0  0  0  0
   19.0063    0.1350   26.9299 H   0  0  0  0  0  0  0  0  0  0  0  0
   15.0946    1.7100   27.4414 H   0  0  0  0  0  0  0  0  0  0  0  0
  1  2  1  0  0  0  0
  1 77  1  0  0  0  0
  1 78  1  0  0  0  0
  1 79  1  0  0  0  0
  2  3  1  0  0  0  0
  2  5  1  0  0  0  0
  2 80  1  6  0  0  0
  3  4  2  0  0  0  0
  3  7  1  0  0  0  0
  5  6  1  0  0  0  0
  5 81  1  0  0  0  0
  5 82  1  0  0  0  0
  6 83  1  0  0  0  0
  7  8  1  0  0  0  0
  7 84  1  0  0  0  0
  8  9  1  0  0  0  0
  8 11  1  0  0  0  0
  8 85  1  6  0  0  0
  9 10  2  0  0  0  0
  9 14  1  0  0  0  0
 11 12  1  0  0  0  0
 11 13  1  0  0  0  0
 11 86  1  0  0  0  0
 12 87  1  0  0  0  0
 12 88  1  0  0  0  0
 12 89  1  0  0  0  0
 13 90  1  0  0  0  0
 13 91  1  0  0  0  0
 13 92  1  0  0  0  0
 14 15  1  0  0  0  0
 14 93  1  0  0  0  0
 15 16  1  0  0  0  0
 15 18  1  0  0  0  0
 15 94  1  1  0  0  0
 16 17  2  0  0  0  0
 16 22  1  0  0  0  0
 18 19  1  0  0  0  0
 18 95  1  0  0  0  0
 18 96  1  0  0  0  0
 19 20  1  0  0  0  0
 19 21  1  0  0  0  0
 19 97  1  0  0  0  0
 20 98  1  0  0  0  0
 20 99  1  0  0  0  0
 20100  1  0  0  0  0
 21101  1  0  0  0  0
 21102  1  0  0  0  0
 21103  1  0  0  0  0
 22 23  1  0  0  0  0
 22104  1  0  0  0  0
 23 24  1  0  0  0  0
 23105  1  0  0  0  0
 23106  1  0  0  0  0
 24 25  2  0  0  0  0
 24 26  1  0  0  0  0
 26 27  1  0  0  0  0
 26107  1  0  0  0  0
 27 28  1  0  0  0  0
 27 30  1  0  0  0  0
 27108  1  1  0  0  0
 28 29  2  0  0  0  0
 28 35  1  0  0  0  0
 30 31  1  0  0  0  0
 30109  1  0  0  0  0
 30110  1  0  0  0  0
 31 32  1  0  0  0  0
 31111  1  0  0  0  0
 31112  1  0  0  0  0
 32 33  1  0  0  0  0
 32113  1  0  0  0  0
 32114  1  0  0  0  0
 33 34  1  0  0  0  0
 33115  1  0  0  0  0
 33116  1  0  0  0  0
 34117  1  0  0  0  0
 34118  1  0  0  0  0
 34119  1  0  0  0  0
 35 36  1  0  0  0  0
 35120  1  0  0  0  0
 36 37  1  0  0  0  0
 36 39  1  0  0  0  0
 36121  1  6  0  0  0
 37 38  2  0  0  0  0
 37 46  1  0  0  0  0
 39 40  1  0  0  0  0
 39122  1  0  0  0  0
 39123  1  0  0  0  0
 40 41  1  0  0  0  0
 40124  1  0  0  0  0
 40125  1  0  0  0  0
 41 42  1  0  0  0  0
 41126  1  0  0  0  0
 41127  1  0  0  0  0
 42 43  1  0  0  0  0
 42128  1  0  0  0  0
 43 44  1  0  0  0  0
 43 45  1  0  0  0  0
 44129  1  0  0  0  0
 44130  1  0  0  0  0
 45131  1  0  0  0  0
 45132  1  0  0  0  0
 46 47  1  0  0  0  0
 46133  1  0  0  0  0
 47 48  1  0  0  0  0
 47 50  1  0  0  0  0
 47134  1  1  0  0  0
 48 49  2  0  0  0  0
 48 55  1  0  0  0  0
 50 51  1  0  0  0  0
 50135  1  0  0  0  0
 50136  1  0  0  0  0
 51 52  1  0  0  0  0
 51137  1  0  0  0  0
 51138  1  0  0  0  0
 52 53  1  0  0  0  0
 52139  1  0  0  0  0
 52140  1  0  0  0  0
 53 54  1  0  0  0  0
 53141  1  0  0  0  0
 53142  1  0  0  0  0
 54143  1  0  0  0  0
 54144  1  0  0  0  0
 54145  1  0  0  0  0
 55 56  1  0  0  0  0
 55146  1  0  0  0  0
 56 57  1  0  0  0  0
 56 59  1  0  0  0  0
 56147  1  1  0  0  0
 57 58  2  0  0  0  0
 57 66  1  0  0  0  0
 59 60  1  0  0  0  0
 59148  1  0  0  0  0
 59149  1  0  0  0  0
 60 61  1  0  0  0  0
 60150  1  0  0  0  0
 60151  1  0  0  0  0
 61 62  1  0  0  0  0
 61152  1  0  0  0  0
 61153  1  0  0  0  0
 62 63  1  0  0  0  0
 62154  1  0  0  0  0
 63 64  1  0  0  0  0
 63 65  1  0  0  0  0
 64155  1  0  0  0  0
 64156  1  0  0  0  0
 65157  1  0  0  0  0
 65158  1  0  0  0  0
 66 67  1  0  0  0  0
 66159  1  0  0  0  0
 67 68  1  0  0  0  0
 67 70  1  0  0  0  0
 67160  1  1  0  0  0
 68 69  1  0  0  0  0
 68 76  2  0  0  0  0
 70 71  1  0  0  0  0
 70161  1  0  0  0  0
 70162  1  0  0  0  0
 71 72  1  0  0  0  0
 71 73  2  0  0  0  0
 72 74  1  0  0  0  0
 72163  1  0  0  0  0
 73 75  1  0  0  0  0
 73164  1  0  0  0  0
 74 75  2  0  0  0  0
 74165  1  0  0  0  0
M  CHG  4   1   1  34   1  54   1  69  -1
M  END
