2z3h_ligand
 OpenBabel08222323343D

 56 57  0  0  1  0  0  0  0  0999 V2000
   22.3430   32.4620  106.1530 O   0  0  0  0  0  0  0  0  0  0  0  0
   22.1350   33.6630  106.0430 C   0  0  0  0  0  0  0  0  0  0  0  0
   20.8110   34.3200  106.3880 C   0  0  0  0  0  0  0  0  0  0  0  0
   19.6000   33.5110  105.9650 C   0  0  2  0  0  0  0  0  0  0  0  0
   18.3650   34.3800  106.1790 C   0  0  0  0  0  0  0  0  0  0  0  0
   17.6890   34.7410  104.8590 C   0  0  0  0  0  0  0  0  0  0  0  0
   16.7790   35.8840  105.0450 N   0  0  0  0  0  0  0  0  0  0  0  0
   15.5020   35.7360  105.6580 C   0  0  0  0  0  3  0  0  0  0  0  0
   15.0380   34.5380  106.0180 N   0  0  0  0  0  0  0  0  0  0  0  0
   14.7450   36.8130  105.8930 N   0  0  0  0  0  0  0  0  0  0  0  0
   17.2370   37.2180  104.6300 C   0  0  0  0  0  0  0  0  0  0  0  0
   19.5210   32.3470  106.8220 N   0  3  0  0  0  0  0  0  0  0  0  0
   23.0500   34.5180  105.6150 N   0  0  0  0  0  0  0  0  0  0  0  0
   24.4140   34.1440  105.2410 C   0  0  1  0  0  0  0  0  0  0  0  0
   24.7990   34.5580  103.8200 C   0  0  0  0  0  0  0  0  0  0  0  0
   25.8490   35.2520  103.5750 C   0  0  0  0  0  0  0  0  0  0  0  0
   25.3420   34.9440  106.1670 C   0  0  1  0  0  0  0  0  0  0  0  0
   25.3650   34.4530  107.5860 C   0  0  0  0  0  0  0  0  0  0  0  0
   24.6820   35.0880  108.4120 O   0  5  0  0  0  0  0  0  0  0  0  0
   26.0700   33.4720  107.8920 O   0  0  0  0  0  0  0  0  0  0  0  0
   26.6920   34.8280  105.7190 O   0  0  0  0  0  0  0  0  0  0  0  0
   26.8710   35.1500  104.3580 C   0  0  1  0  0  0  0  0  0  0  0  0
   28.1290   34.9710  103.8950 N   0  0  0  0  0  0  0  0  0  0  0  0
   28.2760   33.6580  103.6480 C   0  0  0  0  0  0  0  0  0  0  0  0
   29.4590   33.1670  103.1400 C   0  0  0  0  0  0  0  0  0  0  0  0
   30.4470   34.0990  102.8880 C   0  0  0  0  0  0  0  0  0  0  0  0
   31.5770   33.6910  102.3200 O   0  0  0  0  0  0  0  0  0  0  0  0
   30.3040   35.4090  103.1950 N   0  0  0  0  0  0  0  0  0  0  0  0
   29.1210   35.8680  103.6780 C   0  0  0  0  0  0  0  0  0  0  0  0
   29.0190   37.1010  103.8850 O   0  0  0  0  0  0  0  0  0  0  0  0
   20.7676   35.2980  105.8864 H   0  0  0  0  0  0  0  0  0  0  0  0
   20.7686   34.4645  107.4776 H   0  0  0  0  0  0  0  0  0  0  0  0
   19.6808   33.2081  104.9106 H   0  0  0  0  0  0  0  0  0  0  0  0
   18.6660   35.3066  106.6897 H   0  0  0  0  0  0  0  0  0  0  0  0
   17.6482   33.8311  106.8074 H   0  0  0  0  0  0  0  0  0  0  0  0
   17.1147   33.8755  104.4971 H   0  0  0  0  0  0  0  0  0  0  0  0
   18.4579   35.0065  104.1185 H   0  0  0  0  0  0  0  0  0  0  0  0
   14.1112   34.4562  106.4598 H   0  0  0  0  0  0  0  0  0  0  0  0
   15.6066   33.6950  105.8541 H   0  0  0  0  0  0  0  0  0  0  0  0
   15.0823   37.7482  105.6238 H   0  0  0  0  0  0  0  0  0  0  0  0
   13.8246   36.7073  106.3432 H   0  0  0  0  0  0  0  0  0  0  0  0
   16.4477   37.9565  104.8339 H   0  0  0  0  0  0  0  0  0  0  0  0
   17.4622   37.2099  103.5533 H   0  0  0  0  0  0  0  0  0  0  0  0
   18.1437   37.4858  105.1923 H   0  0  0  0  0  0  0  0  0  0  0  0
   20.3363   31.7710  106.6823 H   0  0  0  0  0  0  0  0  0  0  0  0
   18.6933   31.8183  106.5952 H   0  0  0  0  0  0  0  0  0  0  0  0
   19.4785   32.6411  107.7852 H   0  0  0  0  0  0  0  0  0  0  0  0
   22.7925   35.4816  105.5426 H   0  0  0  0  0  0  0  0  0  0  0  0
   24.5527   33.0601  105.3674 H   0  0  0  0  0  0  0  0  0  0  0  0
   24.1619   34.2541  102.9908 H   0  0  0  0  0  0  0  0  0  0  0  0
   25.8787   35.9204  102.7157 H   0  0  0  0  0  0  0  0  0  0  0  0
   25.0248   35.9971  106.1505 H   0  0  0  0  0  0  0  0  0  0  0  0
   26.9693   36.2350  104.5100 H   0  0  0  0  0  0  0  0  0  0  0  0
   27.4521   32.9756  103.8514 H   0  0  0  0  0  0  0  0  0  0  0  0
   29.6066   32.1052  102.9482 H   0  0  0  0  0  0  0  0  0  0  0  0
   31.0697   36.0392  103.0661 H   0  0  0  0  0  0  0  0  0  0  0  0
  1  2  2  0  0  0  0
  2  3  1  0  0  0  0
  2 13  1  0  0  0  0
  3  4  1  0  0  0  0
  3 31  1  0  0  0  0
  3 32  1  0  0  0  0
  4  5  1  0  0  0  0
  4 12  1  0  0  0  0
  4 33  1  6  0  0  0
  5  6  1  0  0  0  0
  5 34  1  0  0  0  0
  5 35  1  0  0  0  0
  6  7  1  0  0  0  0
  6 36  1  0  0  0  0
  6 37  1  0  0  0  0
  7  8  1  0  0  0  0
  7 11  1  0  0  0  0
  8  9  1  0  0  0  0
  8 10  1  0  0  0  0
  9 38  1  0  0  0  0
  9 39  1  0  0  0  0
 10 40  1  0  0  0  0
 10 41  1  0  0  0  0
 11 42  1  0  0  0  0
 11 43  1  0  0  0  0
 11 44  1  0  0  0  0
 12 45  1  0  0  0  0
 12 46  1  0  0  0  0
 12 47  1  0  0  0  0
 13 14  1  0  0  0  0
 13 48  1  0  0  0  0
 14 15  1  0  0  0  0
 14 17  1  0  0  0  0
 14 49  1  1  0  0  0
 15 16  2  0  0  0  0
 15 50  1  0  0  0  0
 16 22  1  0  0  0  0
 16 51  1  0  0  0  0
 17 18  1  0  0  0  0
 17 21  1  0  0  0  0
 17 52  1  6  0  0  0
 18 19  1  0  0  0  0
 18 20  2  0  0  0  0
 21 22  1  0  0  0  0
 22 23  1  0  0  0  0
 22 53  1  1  0  0  0
 23 24  1  0  0  0  0
 23 29  1  0  0  0  0
 24 25  2  0  0  0  0
 24 54  1  0  0  0  0
 25 26  1  0  0  0  0
 25 55  1  0  0  0  0
 26 27  2  0  0  0  0
 26 28  1  0  0  0  0
 28 29  1  0  0  0  0
 28 56  1  0  0  0  0
 29 30  2  0  0  0  0
M  CHG  2  12   1  19  -1
M  END
