2z4b_ligand
 OpenBabel08222323343D

 39 42  0  0  1  0  0  0  0  0999 V2000
   78.2600   40.8340   69.8430 C   0  0  0  0  0  0  0  0  0  0  0  0
   77.1140   38.7230   70.0700 C   0  0  1  0  0  0  0  0  0  0  0  0
   76.6010   38.8260   68.6060 C   0  0  1  0  0  0  0  0  0  0  0  0
   75.2700   39.6550   68.4640 C   0  0  0  0  0  0  0  0  0  0  0  0
   77.5710   39.6040   67.6790 C   0  0  2  0  0  0  0  0  0  0  0  0
   78.3850   40.6910   68.4310 C   0  0  0  0  0  0  0  0  0  0  0  0
   75.3940   36.7880   70.6010 C   0  0  0  0  0  0  0  0  0  0  0  0
   74.5450   36.0760   71.4990 C   0  0  0  0  0  0  0  0  0  0  0  0
   74.4340   36.4900   72.8470 C   0  0  0  0  0  0  0  0  0  0  0  0
   75.1660   37.6160   73.3030 C   0  0  0  0  0  0  0  0  0  0  0  0
   80.0240   42.5650   68.3980 C   0  0  0  0  0  0  0  0  0  0  0  0
   79.8840   42.7000   69.7970 C   0  0  0  0  0  0  0  0  0  0  0  0
   79.0180   41.8470   70.5110 C   0  0  0  0  0  0  0  0  0  0  0  0
   77.4200   40.0300   70.6300 O   0  0  0  0  0  0  0  0  0  0  0  0
   75.3500   40.4150   67.1180 C   0  0  0  0  0  0  0  0  0  0  0  0
   74.2950   40.0060   66.2830 F   0  0  0  0  0  0  0  0  0  0  0  0
   75.2520   41.8020   67.3130 F   0  0  0  0  0  0  0  0  0  0  0  0
   76.7040   40.1040   66.4950 C   0  0  0  0  0  0  0  0  0  0  0  0
   79.2840   41.5630   67.7070 C   0  0  0  0  0  0  0  0  0  0  0  0
   76.1450   37.9260   71.0440 C   0  0  0  0  0  0  0  0  0  0  0  0
   73.6130   35.8070   73.7130 O   0  0  0  0  0  0  0  0  0  0  0  0
   76.0110   38.3250   72.4150 C   0  0  0  0  0  0  0  0  0  0  0  0
   80.8680   43.4340   67.7210 O   0  0  0  0  0  0  0  0  0  0  0  0
   78.0569   38.1579   70.0294 H   0  0  0  0  0  0  0  0  0  0  0  0
   76.4513   37.8045   68.2264 H   0  0  0  0  0  0  0  0  0  0  0  0
   75.1794   40.3690   69.2958 H   0  0  0  0  0  0  0  0  0  0  0  0
   74.4023   38.9790   68.4648 H   0  0  0  0  0  0  0  0  0  0  0  0
   78.3070   38.8928   67.2759 H   0  0  0  0  0  0  0  0  0  0  0  0
   75.4725   36.4643   69.5694 H   0  0  0  0  0  0  0  0  0  0  0  0
   73.9844   35.2170   71.1483 H   0  0  0  0  0  0  0  0  0  0  0  0
   75.0783   37.9351   74.3353 H   0  0  0  0  0  0  0  0  0  0  0  0
   80.4451   43.4631   70.3241 H   0  0  0  0  0  0  0  0  0  0  0  0
   78.9248   41.9606   71.5850 H   0  0  0  0  0  0  0  0  0  0  0  0
   76.6080   39.3229   65.7264 H   0  0  0  0  0  0  0  0  0  0  0  0
   77.1424   41.0078   66.0466 H   0  0  0  0  0  0  0  0  0  0  0  0
   79.3950   41.4535   66.6343 H   0  0  0  0  0  0  0  0  0  0  0  0
   74.1283   35.4692   74.4361 H   0  0  0  0  0  0  0  0  0  0  0  0
   76.5655   39.1831   72.7773 H   0  0  0  0  0  0  0  0  0  0  0  0
   80.3656   43.9316   67.0866 H   0  0  0  0  0  0  0  0  0  0  0  0
  1 13  1  0  0  0  0
  1 14  1  0  0  0  0
  2 20  1  0  0  0  0
  2 24  1  6  0  0  0
  3  2  1  0  0  0  0
  3  4  1  0  0  0  0
  3 25  1  6  0  0  0
  4 15  1  0  0  0  0
  4 26  1  0  0  0  0
  4 27  1  0  0  0  0
  5  3  1  0  0  0  0
  5 18  1  0  0  0  0
  5 28  1  6  0  0  0
  6  1  2  0  0  0  0
  6  5  1  0  0  0  0
  7  8  2  0  0  0  0
  7 29  1  0  0  0  0
  8  9  1  0  0  0  0
  8 30  1  0  0  0  0
  9 10  2  0  0  0  0
  9 21  1  0  0  0  0
 10 22  1  0  0  0  0
 10 31  1  0  0  0  0
 11 12  1  0  0  0  0
 11 19  2  0  0  0  0
 11 23  1  0  0  0  0
 12 13  2  0  0  0  0
 12 32  1  0  0  0  0
 13 33  1  0  0  0  0
 14  2  1  0  0  0  0
 15 16  1  0  0  0  0
 15 17  1  0  0  0  0
 15 18  1  0  0  0  0
 18 34  1  0  0  0  0
 18 35  1  0  0  0  0
 19  6  1  0  0  0  0
 19 36  1  0  0  0  0
 20  7  1  0  0  0  0
 20 22  2  0  0  0  0
 21 37  1  0  0  0  0
 22 38  1  0  0  0  0
 23 39  1  0  0  0  0
M  END
