2z5o_ligand
 OpenBabel08222323343D

103102  0  0  1  0  0  0  0  0999 V2000
   35.9310  -34.4600  -37.5320 N   0  3  0  0  0  0  0  0  0  0  0  0
   34.4870  -34.7120  -37.2310 C   0  0  2  0  0  0  0  0  0  0  0  0
   33.8050  -35.6090  -38.2750 C   0  0  0  0  0  0  0  0  0  0  0  0
   32.5790  -35.7400  -38.2710 O   0  0  0  0  0  0  0  0  0  0  0  0
   33.7310  -33.3830  -37.0730 C   0  0  0  0  0  0  0  0  0  0  0  0
   34.6100  -36.2300  -39.1440 N   0  0  0  0  0  0  0  0  0  0  0  0
   34.1350  -37.0960  -40.2380 C   0  0  2  0  0  0  0  0  0  0  0  0
   33.0770  -36.4190  -41.1230 C   0  0  0  0  0  0  0  0  0  0  0  0
   33.3170  -35.3300  -41.6460 O   0  0  0  0  0  0  0  0  0  0  0  0
   33.6490  -38.4590  -39.7040 C   0  0  0  0  0  0  0  0  0  0  0  0
   31.9180  -37.0610  -41.2790 N   0  0  0  0  0  0  0  0  0  0  0  0
   30.8170  -36.5260  -42.0840 C   0  0  2  0  0  0  0  0  0  0  0  0
   30.0910  -35.3950  -41.3490 C   0  0  0  0  0  0  0  0  0  0  0  0
   30.3530  -35.1690  -40.1750 O   0  0  0  0  0  0  0  0  0  0  0  0
   29.8500  -37.6420  -42.4530 C   0  0  0  0  0  0  0  0  0  0  0  0
   29.1920  -34.6850  -42.0340 N   0  0  0  0  0  0  0  0  0  0  0  0
   28.4540  -33.5630  -41.4270 C   0  0  2  0  0  0  0  0  0  0  0  0
   27.2700  -34.0390  -40.6020 C   0  0  0  0  0  0  0  0  0  0  0  0
   26.4380  -34.7920  -41.0900 O   0  0  0  0  0  0  0  0  0  0  0  0
   27.9790  -32.5770  -42.4880 C   0  0  0  0  0  0  0  0  0  0  0  0
   27.2020  -33.6100  -39.3470 N   0  0  0  0  0  0  0  0  0  0  0  0
   26.0370  -33.8830  -38.5100 C   0  0  2  0  0  0  0  0  0  0  0  0
   25.4550  -32.5530  -38.0320 C   0  0  0  0  0  0  0  0  0  0  0  0
   26.1860  -31.6840  -37.5550 O   0  0  0  0  0  0  0  0  0  0  0  0
   26.3970  -34.8030  -37.3360 C   0  0  0  0  0  0  0  0  0  0  0  0
   24.1400  -32.4010  -38.1840 N   0  0  0  0  0  0  0  0  0  0  0  0
   23.4470  -31.1310  -37.9540 C   0  0  2  0  0  0  0  0  0  0  0  0
   23.6770  -30.5230  -36.5390 C   0  0  0  0  0  0  0  0  0  0  0  0
   23.8150  -29.3060  -36.3750 O   0  0  0  0  0  0  0  0  0  0  0  0
   21.9650  -31.3080  -38.2630 C   0  0  0  0  0  0  0  0  0  0  0  0
   23.7300  -31.3930  -35.5350 N   0  0  0  0  0  0  0  0  0  0  0  0
   24.0230  -31.0400  -34.1480 C   0  0  2  0  0  0  0  0  0  0  0  0
   24.9040  -32.1780  -33.5780 C   0  0  0  0  0  0  0  0  0  0  0  0
   25.4440  -32.9700  -34.3540 O   0  0  0  0  0  0  0  0  0  0  0  0
   22.7240  -30.8910  -33.3720 C   0  0  0  0  0  0  0  0  0  0  0  0
   25.0710  -32.2630  -32.2570 N   0  0  0  0  0  0  0  0  0  0  0  0
   25.9210  -33.3130  -31.6590 C   0  0  2  0  0  0  0  0  0  0  0  0
   25.5130  -33.6470  -30.2260 C   0  0  0  0  0  0  0  0  0  0  0  0
   25.1730  -32.7480  -29.4510 O   0  0  0  0  0  0  0  0  0  0  0  0
   27.3980  -32.9170  -31.7040 C   0  0  0  0  0  0  0  0  0  0  0  0
   25.5500  -34.9340  -29.8670 N   0  0  0  0  0  0  0  0  0  0  0  0
   25.2330  -35.3350  -28.4930 C   0  0  2  0  0  0  0  0  0  0  0  0
   26.1720  -34.6220  -27.4820 C   0  0  0  0  0  0  0  0  0  0  0  0
   26.6530  -35.3010  -26.4090 O   0  0  0  0  0  0  0  0  0  0  0  0
   25.3410  -36.8680  -28.3460 C   0  0  0  0  0  0  0  0  0  0  0  0
   26.4280  -33.2500  -27.8520 N   0  0  0  0  0  0  0  0  0  0  0  0
   27.2890  -32.3510  -27.0560 C   0  0  2  0  0  0  0  0  0  0  0  0
   28.7640  -33.1660  -26.6160 C   0  0  0  0  0  0  0  0  0  0  0  0
   29.5780  -32.5150  -25.7860 O   0  5  0  0  0  0  0  0  0  0  0  0
   26.4270  -31.9710  -25.6060 C   0  0  0  0  0  0  0  0  0  0  0  0
   29.2090  -34.2610  -27.1850 O   0  0  0  0  0  0  0  0  0  0  0  0
   36.3250  -33.8685  -36.8171 H   0  0  0  0  0  0  0  0  0  0  0  0
   36.0131  -34.0048  -38.4276 H   0  0  0  0  0  0  0  0  0  0  0  0
   36.4277  -35.3369  -37.5539 H   0  0  0  0  0  0  0  0  0  0  0  0
   34.4407  -35.2403  -36.2673 H   0  0  0  0  0  0  0  0  0  0  0  0
   32.6728  -33.5871  -36.8524 H   0  0  0  0  0  0  0  0  0  0  0  0
   33.8062  -32.8052  -38.0060 H   0  0  0  0  0  0  0  0  0  0  0  0
   34.1728  -32.8057  -36.2475 H   0  0  0  0  0  0  0  0  0  0  0  0
   35.5964  -36.0985  -39.0453 H   0  0  0  0  0  0  0  0  0  0  0  0
   35.0034  -37.2958  -40.8830 H   0  0  0  0  0  0  0  0  0  0  0  0
   33.3023  -39.0792  -40.5437 H   0  0  0  0  0  0  0  0  0  0  0  0
   32.8205  -38.3018  -38.9977 H   0  0  0  0  0  0  0  0  0  0  0  0
   34.4776  -38.9680  -39.1899 H   0  0  0  0  0  0  0  0  0  0  0  0
   31.7956  -37.9448  -40.8274 H   0  0  0  0  0  0  0  0  0  0  0  0
   31.2386  -36.1137  -43.0125 H   0  0  0  0  0  0  0  0  0  0  0  0
   29.0279  -37.2301  -43.0567 H   0  0  0  0  0  0  0  0  0  0  0  0
   29.4417  -38.0916  -41.5359 H   0  0  0  0  0  0  0  0  0  0  0  0
   30.3814  -38.4108  -43.0331 H   0  0  0  0  0  0  0  0  0  0  0  0
   29.0136  -34.9218  -42.9890 H   0  0  0  0  0  0  0  0  0  0  0  0
   29.1452  -33.0343  -40.7541 H   0  0  0  0  0  0  0  0  0  0  0  0
   27.4331  -31.7533  -42.0048 H   0  0  0  0  0  0  0  0  0  0  0  0
   27.3133  -33.0925  -43.1959 H   0  0  0  0  0  0  0  0  0  0  0  0
   28.8477  -32.1736  -43.0289 H   0  0  0  0  0  0  0  0  0  0  0  0
   27.9657  -33.0883  -38.9667 H   0  0  0  0  0  0  0  0  0  0  0  0
   25.2792  -34.3949  -39.1212 H   0  0  0  0  0  0  0  0  0  0  0  0
   25.4999  -34.9883  -36.7270 H   0  0  0  0  0  0  0  0  0  0  0  0
   27.1680  -34.3219  -36.7162 H   0  0  0  0  0  0  0  0  0  0  0  0
   26.7811  -35.7583  -37.7231 H   0  0  0  0  0  0  0  0  0  0  0  0
   23.5997  -33.1927  -38.4691 H   0  0  0  0  0  0  0  0  0  0  0  0
   23.8521  -30.4065  -38.6758 H   0  0  0  0  0  0  0  0  0  0  0  0
   21.4388  -30.3573  -38.0921 H   0  0  0  0  0  0  0  0  0  0  0  0
   21.5436  -32.0834  -37.6064 H   0  0  0  0  0  0  0  0  0  0  0  0
   21.8431  -31.6109  -39.3134 H   0  0  0  0  0  0  0  0  0  0  0  0
   23.5574  -32.3556  -35.7437 H   0  0  0  0  0  0  0  0  0  0  0  0
   24.5754  -30.0896  -34.1090 H   0  0  0  0  0  0  0  0  0  0  0  0
   22.9487  -30.6253  -32.3285 H   0  0  0  0  0  0  0  0  0  0  0  0
   22.1707  -31.8413  -33.3973 H   0  0  0  0  0  0  0  0  0  0  0  0
   22.1129  -30.0986  -33.8287 H   0  0  0  0  0  0  0  0  0  0  0  0
   24.6125  -31.6040  -31.6608 H   0  0  0  0  0  0  0  0  0  0  0  0
   25.7955  -34.2236  -32.2631 H   0  0  0  0  0  0  0  0  0  0  0  0
   28.0056  -33.7155  -31.2531 H   0  0  0  0  0  0  0  0  0  0  0  0
   27.5445  -31.9830  -31.1418 H   0  0  0  0  0  0  0  0  0  0  0  0
   27.7060  -32.7679  -32.7494 H   0  0  0  0  0  0  0  0  0  0  0  0
   25.7962  -35.6297  -30.5418 H   0  0  0  0  0  0  0  0  0  0  0  0
   24.1973  -35.0364  -28.2738 H   0  0  0  0  0  0  0  0  0  0  0  0
   25.1009  -37.1549  -27.3116 H   0  0  0  0  0  0  0  0  0  0  0  0
   26.3654  -37.1882  -28.5869 H   0  0  0  0  0  0  0  0  0  0  0  0
   24.6336  -37.3532  -29.0346 H   0  0  0  0  0  0  0  0  0  0  0  0
   26.0037  -32.8924  -28.6839 H   0  0  0  0  0  0  0  0  0  0  0  0
   27.5166  -31.4372  -27.6245 H   0  0  0  0  0  0  0  0  0  0  0  0
   27.0363  -31.3004  -24.9823 H   0  0  0  0  0  0  0  0  0  0  0  0
   26.2165  -32.8972  -25.0511 H   0  0  0  0  0  0  0  0  0  0  0  0
   25.4799  -31.4736  -25.8621 H   0  0  0  0  0  0  0  0  0  0  0  0
  1  2  1  0  0  0  0
  1 52  1  0  0  0  0
  1 53  1  0  0  0  0
  1 54  1  0  0  0  0
  2  3  1  0  0  0  0
  2  5  1  0  0  0  0
  2 55  1  1  0  0  0
  3  4  2  0  0  0  0
  3  6  1  0  0  0  0
  5 56  1  0  0  0  0
  5 57  1  0  0  0  0
  5 58  1  0  0  0  0
  6  7  1  0  0  0  0
  6 59  1  0  0  0  0
  7  8  1  0  0  0  0
  7 10  1  0  0  0  0
  7 60  1  6  0  0  0
  8  9  2  0  0  0  0
  8 11  1  0  0  0  0
 10 61  1  0  0  0  0
 10 62  1  0  0  0  0
 10 63  1  0  0  0  0
 11 12  1  0  0  0  0
 11 64  1  0  0  0  0
 12 13  1  0  0  0  0
 12 15  1  0  0  0  0
 12 65  1  6  0  0  0
 13 14  2  0  0  0  0
 13 16  1  0  0  0  0
 15 66  1  0  0  0  0
 15 67  1  0  0  0  0
 15 68  1  0  0  0  0
 16 17  1  0  0  0  0
 16 69  1  0  0  0  0
 17 18  1  0  0  0  0
 17 20  1  0  0  0  0
 17 70  1  1  0  0  0
 18 19  2  0  0  0  0
 18 21  1  0  0  0  0
 20 71  1  0  0  0  0
 20 72  1  0  0  0  0
 20 73  1  0  0  0  0
 21 22  1  0  0  0  0
 21 74  1  0  0  0  0
 22 23  1  0  0  0  0
 22 25  1  0  0  0  0
 22 75  1  6  0  0  0
 23 24  2  0  0  0  0
 23 26  1  0  0  0  0
 25 76  1  0  0  0  0
 25 77  1  0  0  0  0
 25 78  1  0  0  0  0
 26 27  1  0  0  0  0
 26 79  1  0  0  0  0
 27 28  1  0  0  0  0
 27 30  1  0  0  0  0
 27 80  1  6  0  0  0
 28 29  2  0  0  0  0
 28 31  1  0  0  0  0
 30 81  1  0  0  0  0
 30 82  1  0  0  0  0
 30 83  1  0  0  0  0
 31 32  1  0  0  0  0
 31 84  1  0  0  0  0
 32 33  1  0  0  0  0
 32 35  1  0  0  0  0
 32 85  1  1  0  0  0
 33 34  2  0  0  0  0
 33 36  1  0  0  0  0
 35 86  1  0  0  0  0
 35 87  1  0  0  0  0
 35 88  1  0  0  0  0
 36 37  1  0  0  0  0
 36 89  1  0  0  0  0
 37 38  1  0  0  0  0
 37 40  1  0  0  0  0
 37 90  1  6  0  0  0
 38 39  2  0  0  0  0
 38 41  1  0  0  0  0
 40 91  1  0  0  0  0
 40 92  1  0  0  0  0
 40 93  1  0  0  0  0
 41 42  1  0  0  0  0
 41 94  1  0  0  0  0
 42 43  1  0  0  0  0
 42 45  1  0  0  0  0
 42 95  1  1  0  0  0
 43 44  2  0  0  0  0
 43 46  1  0  0  0  0
 45 96  1  0  0  0  0
 45 97  1  0  0  0  0
 45 98  1  0  0  0  0
 46 47  1  0  0  0  0
 46 99  1  0  0  0  0
 47 48  1  0  0  0  0
 47 50  1  0  0  0  0
 47100  1  6  0  0  0
 48 49  1  0  0  0  0
 48 51  2  0  0  0  0
 50101  1  0  0  0  0
 50102  1  0  0  0  0
 50103  1  0  0  0  0
M  CHG  2   1   1  49  -1
M  END
