2z60_ligand
 OpenBabel08222323343D

 48 51  0  0  0  0  0  0  0  0999 V2000
   16.5060   -9.2590    8.3320 N   0  0  0  0  0  0  0  0  0  0  0  0
   17.2470   -8.4830    7.4880 C   0  0  0  0  0  0  0  0  0  0  0  0
   18.1980   -7.5600    7.9830 C   0  0  0  0  0  0  0  0  0  0  0  0
   18.3460   -7.4790    9.3900 C   0  0  0  0  0  0  0  0  0  0  0  0
   17.5490   -8.3090   10.2520 C   0  0  0  0  0  0  0  0  0  0  0  0
   16.6440   -9.1800    9.6830 C   0  0  0  0  0  0  0  0  0  0  0  0
   17.4640   -8.4560   11.6670 C   0  0  0  0  0  0  0  0  0  0  0  0
   16.4730   -9.4440   11.7990 C   0  0  0  0  0  0  0  0  0  0  0  0
   15.9650   -9.8960   10.6090 N   0  0  0  0  0  0  0  0  0  0  0  0
   18.2100   -7.7730   12.7840 C   0  0  0  0  0  0  0  0  0  0  0  0
   18.3520   -6.3410   12.8870 C   0  0  0  0  0  0  0  0  0  0  0  0
   19.0910   -5.7890   14.0020 C   0  0  0  0  0  0  0  0  0  0  0  0
   19.6640   -6.6250   14.9760 C   0  0  0  0  0  0  0  0  0  0  0  0
   19.5160   -8.0170   14.8690 C   0  0  0  0  0  0  0  0  0  0  0  0
   18.8000   -8.5850   13.7850 C   0  0  0  0  0  0  0  0  0  0  0  0
   17.7490   -5.5430   11.8760 O   0  0  0  0  0  0  0  0  0  0  0  0
   19.0080   -6.7250    7.0540 C   0  0  0  0  0  0  0  0  0  0  0  0
   19.2180   -5.3330    7.2550 C   0  0  0  0  0  0  0  0  0  0  0  0
   19.9670   -4.5750    6.3890 N   0  0  0  0  0  0  0  0  0  0  0  0
   20.5360   -5.1640    5.2910 C   0  0  0  0  0  0  0  0  0  0  0  0
   20.3730   -6.5440    5.0260 C   0  0  0  0  0  0  0  0  0  0  0  0
   19.6030   -7.3100    5.9250 C   0  0  0  0  0  0  0  0  0  0  0  0
   21.0130   -7.1580    3.8420 C   0  0  0  0  0  0  0  0  0  0  0  0
   22.2250   -7.4060    3.8850 O   0  0  0  0  0  0  0  0  0  0  0  0
   20.2490   -7.4680    2.6990 N   0  0  0  0  0  0  0  0  0  0  0  0
   18.7740   -7.4760    2.6120 C   0  0  0  0  0  0  0  0  0  0  0  0
   21.0070   -7.9270    1.5160 C   0  0  0  0  0  0  0  0  0  0  0  0
   17.6720   -4.1120   12.0080 C   0  0  0  0  0  0  0  0  0  0  0  0
   17.1039   -8.5759    6.4175 H   0  0  0  0  0  0  0  0  0  0  0  0
   19.0633   -6.7882    9.8183 H   0  0  0  0  0  0  0  0  0  0  0  0
   16.1373   -9.8186   12.7649 H   0  0  0  0  0  0  0  0  0  0  0  0
   15.2392  -10.6106   10.4560 H   0  0  0  0  0  0  0  0  0  0  0  0
   19.2044   -4.7143   14.0874 H   0  0  0  0  0  0  0  0  0  0  0  0
   20.2168   -6.1975   15.8047 H   0  0  0  0  0  0  0  0  0  0  0  0
   19.9530   -8.6632   15.6217 H   0  0  0  0  0  0  0  0  0  0  0  0
   18.7017   -9.6626   13.7204 H   0  0  0  0  0  0  0  0  0  0  0  0
   18.7724   -4.8548    8.1198 H   0  0  0  0  0  0  0  0  0  0  0  0
   21.1241   -4.5593    4.6102 H   0  0  0  0  0  0  0  0  0  0  0  0
   19.4680   -8.3697    5.7411 H   0  0  0  0  0  0  0  0  0  0  0  0
   18.4683   -7.7564    1.5932 H   0  0  0  0  0  0  0  0  0  0  0  0
   18.3873   -6.4736    2.8479 H   0  0  0  0  0  0  0  0  0  0  0  0
   18.3683   -8.2039    3.3300 H   0  0  0  0  0  0  0  0  0  0  0  0
   22.0852   -7.8662    1.7252 H   0  0  0  0  0  0  0  0  0  0  0  0
   20.7641   -7.2879    0.6543 H   0  0  0  0  0  0  0  0  0  0  0  0
   20.7359   -8.9684    1.2882 H   0  0  0  0  0  0  0  0  0  0  0  0
   17.1726   -3.6886   11.1241 H   0  0  0  0  0  0  0  0  0  0  0  0
   18.6871   -3.6962   12.0899 H   0  0  0  0  0  0  0  0  0  0  0  0
   17.0974   -3.8574   12.9108 H   0  0  0  0  0  0  0  0  0  0  0  0
  1  2  2  0  0  0  0
  1  6  1  0  0  0  0
  2  3  1  0  0  0  0
  2 29  1  0  0  0  0
  3  4  2  0  0  0  0
  3 17  1  0  0  0  0
  4  5  1  0  0  0  0
  4 30  1  0  0  0  0
  5  6  2  0  0  0  0
  5  7  1  0  0  0  0
  6  9  1  0  0  0  0
  7  8  2  0  0  0  0
  7 10  1  0  0  0  0
  8  9  1  0  0  0  0
  8 31  1  0  0  0  0
  9 32  1  0  0  0  0
 10 11  2  0  0  0  0
 10 15  1  0  0  0  0
 11 12  1  0  0  0  0
 11 16  1  0  0  0  0
 12 13  2  0  0  0  0
 12 33  1  0  0  0  0
 13 14  1  0  0  0  0
 13 34  1  0  0  0  0
 14 15  2  0  0  0  0
 14 35  1  0  0  0  0
 15 36  1  0  0  0  0
 16 28  1  0  0  0  0
 17 18  2  0  0  0  0
 17 22  1  0  0  0  0
 18 19  1  0  0  0  0
 18 37  1  0  0  0  0
 19 20  2  0  0  0  0
 20 21  1  0  0  0  0
 20 38  1  0  0  0  0
 21 22  2  0  0  0  0
 21 23  1  0  0  0  0
 22 39  1  0  0  0  0
 23 24  2  0  0  0  0
 23 25  1  0  0  0  0
 25 26  1  0  0  0  0
 25 27  1  0  0  0  0
 26 40  1  0  0  0  0
 26 41  1  0  0  0  0
 26 42  1  0  0  0  0
 27 43  1  0  0  0  0
 27 44  1  0  0  0  0
 27 45  1  0  0  0  0
 28 46  1  0  0  0  0
 28 47  1  0  0  0  0
 28 48  1  0  0  0  0
M  END
