2z78_ligand
 OpenBabel08222323343D

 66 67  0  0  0  0  0  0  0  0999 V2000
   39.2900   53.7080   12.4160 C   0  0  0  0  0  0  0  0  0  0  0  0
   38.0870   54.6400   12.2560 C   0  0  0  0  0  0  0  0  0  0  0  0
   36.7800   53.8490   12.2090 C   0  0  0  0  0  0  0  0  0  0  0  0
   36.6960   53.0080   10.9350 C   0  0  0  0  0  0  0  0  0  0  0  0
   35.4070   52.1850   10.9000 C   0  0  0  0  0  0  0  0  0  0  0  0
   35.2350   51.5180    9.5340 C   0  0  0  0  0  0  0  0  0  0  0  0
   33.9600   50.6750    9.4930 C   0  0  0  0  0  0  0  0  0  0  0  0
   32.7940   51.4730   10.0800 C   0  0  0  0  0  0  0  0  0  0  0  0
   31.5570   51.3660    9.1880 C   0  0  0  0  0  0  0  0  0  0  0  0
   31.1460   49.9100    8.9690 C   0  0  0  0  0  0  0  0  0  0  0  0
   30.9080   49.3290   10.2570 O   0  0  0  0  0  0  0  0  0  0  0  0
   30.2540   48.1430   10.1330 C   0  0  0  0  0  0  0  0  0  0  0  0
   29.5500   47.6580   11.2270 C   0  0  0  0  0  0  0  0  0  0  0  0
   30.3330   47.3940    8.9630 C   0  0  0  0  0  0  0  0  0  0  0  0
   29.6930   46.1500    8.8920 N   0  0  0  0  0  0  0  0  0  0  0  0
   29.8130   45.3090    7.6790 C   0  0  0  0  0  0  0  0  0  0  0  0
   29.2230   45.9790    6.4350 C   0  0  0  0  0  0  0  0  0  0  0  0
   29.7630   45.1030    4.9110 P   0  0  0  0  0  0  0  0  0  0  0  0
   28.8970   45.7200    3.6980 O   0  0  0  0  0  1  0  0  0  0  0  0
   31.2850   45.5290    4.6180 O   0  0  0  0  0  1  0  0  0  0  0  0
   29.5760   43.6430    5.0640 O   0  0  0  0  0  0  0  0  0  0  0  0
   27.3870   46.0550    6.4820 P   0  0  0  0  0  0  0  0  0  0  0  0
   26.7940   44.5670    6.3060 O   0  0  0  0  0  1  0  0  0  0  0  0
   26.9470   46.4730    7.9720 O   0  0  0  0  0  1  0  0  0  0  0  0
   26.8860   47.0010    5.4600 O   0  0  0  0  0  0  0  0  0  0  0  0
   28.9860   45.6630    9.9980 C   0  0  0  0  0  0  0  0  0  0  0  0
   28.9270   46.4170   11.1640 C   0  0  0  0  0  0  0  0  0  0  0  0
   28.3320   45.8850   12.3000 C   0  0  0  0  0  0  0  0  0  0  0  0
   28.3660   44.5090   12.4920 C   0  0  0  0  0  0  0  0  0  0  0  0
   27.8900   43.9650   13.6780 C   0  0  0  0  0  0  0  0  0  0  0  0
   27.9690   42.6360   13.8840 F   0  0  0  0  0  0  0  0  0  0  0  0
   27.3710   44.7930   14.6650 C   0  0  0  0  0  0  0  0  0  0  0  0
   27.3340   46.1680   14.4650 C   0  0  0  0  0  0  0  0  0  0  0  0
   26.8570   46.9660   15.4400 F   0  0  0  0  0  0  0  0  0  0  0  0
   27.8130   46.7210   13.2830 C   0  0  0  0  0  0  0  0  0  0  0  0
   40.2140   54.3040   12.4466 H   0  0  0  0  0  0  0  0  0  0  0  0
   39.3306   53.0122   11.5650 H   0  0  0  0  0  0  0  0  0  0  0  0
   39.1903   53.1378   13.3514 H   0  0  0  0  0  0  0  0  0  0  0  0
   38.1958   55.2097   11.3214 H   0  0  0  0  0  0  0  0  0  0  0  0
   38.0555   55.3353   13.1078 H   0  0  0  0  0  0  0  0  0  0  0  0
   35.9333   54.5508   12.2335 H   0  0  0  0  0  0  0  0  0  0  0  0
   36.7302   53.1836   13.0835 H   0  0  0  0  0  0  0  0  0  0  0  0
   37.5583   52.3261   10.8976 H   0  0  0  0  0  0  0  0  0  0  0  0
   36.7189   53.6763   10.0616 H   0  0  0  0  0  0  0  0  0  0  0  0
   34.5494   52.8470   11.0902 H   0  0  0  0  0  0  0  0  0  0  0  0
   35.4513   51.4093   11.6787 H   0  0  0  0  0  0  0  0  0  0  0  0
   36.1016   50.8693    9.3386 H   0  0  0  0  0  0  0  0  0  0  0  0
   35.1770   52.2959    8.7585 H   0  0  0  0  0  0  0  0  0  0  0  0
   34.1088   49.7583   10.0824 H   0  0  0  0  0  0  0  0  0  0  0  0
   33.7319   50.4078    8.4506 H   0  0  0  0  0  0  0  0  0  0  0  0
   33.0870   52.5299   10.1644 H   0  0  0  0  0  0  0  0  0  0  0  0
   32.5536   51.0783   11.0782 H   0  0  0  0  0  0  0  0  0  0  0  0
   31.7789   51.8248    8.2132 H   0  0  0  0  0  0  0  0  0  0  0  0
   30.7248   51.9039    9.6655 H   0  0  0  0  0  0  0  0  0  0  0  0
   31.9521   49.3658    8.4552 H   0  0  0  0  0  0  0  0  0  0  0  0
   30.2294   49.8661    8.3625 H   0  0  0  0  0  0  0  0  0  0  0  0
   29.4857   48.2519   12.1376 H   0  0  0  0  0  0  0  0  0  0  0  0
   31.4010   47.2149    8.7701 H   0  0  0  0  0  0  0  0  0  0  0  0
   29.9139   48.0149    8.1575 H   0  0  0  0  0  0  0  0  0  0  0  0
   29.2821   44.3616    7.8536 H   0  0  0  0  0  0  0  0  0  0  0  0
   30.8783   45.1042    7.4966 H   0  0  0  0  0  0  0  0  0  0  0  0
   29.6047   47.0099    6.3958 H   0  0  0  0  0  0  0  0  0  0  0  0
   28.4846   44.6978    9.9449 H   0  0  0  0  0  0  0  0  0  0  0  0
   28.7630   43.8620   11.7182 H   0  0  0  0  0  0  0  0  0  0  0  0
   26.9958   44.3680   15.5889 H   0  0  0  0  0  0  0  0  0  0  0  0
   27.7823   47.7936   13.1289 H   0  0  0  0  0  0  0  0  0  0  0  0
  1  2  1  0  0  0  0
  1 36  1  0  0  0  0
  1 37  1  0  0  0  0
  1 38  1  0  0  0  0
  2  3  1  0  0  0  0
  2 39  1  0  0  0  0
  2 40  1  0  0  0  0
  3  4  1  0  0  0  0
  3 41  1  0  0  0  0
  3 42  1  0  0  0  0
  4  5  1  0  0  0  0
  4 43  1  0  0  0  0
  4 44  1  0  0  0  0
  5  6  1  0  0  0  0
  5 45  1  0  0  0  0
  5 46  1  0  0  0  0
  6  7  1  0  0  0  0
  6 47  1  0  0  0  0
  6 48  1  0  0  0  0
  7  8  1  0  0  0  0
  7 49  1  0  0  0  0
  7 50  1  0  0  0  0
  8  9  1  0  0  0  0
  8 51  1  0  0  0  0
  8 52  1  0  0  0  0
  9 10  1  0  0  0  0
  9 53  1  0  0  0  0
  9 54  1  0  0  0  0
 10 11  1  0  0  0  0
 10 55  1  0  0  0  0
 10 56  1  0  0  0  0
 11 12  1  0  0  0  0
 12 13  2  0  0  0  0
 12 14  1  0  0  0  0
 13 27  1  0  0  0  0
 13 57  1  0  0  0  0
 14 15  1  0  0  0  0
 14 58  1  0  0  0  0
 14 59  1  0  0  0  0
 15 16  1  0  0  0  0
 15 26  1  0  0  0  0
 16 17  1  0  0  0  0
 16 60  1  0  0  0  0
 16 61  1  0  0  0  0
 17 18  1  0  0  0  0
 17 22  1  0  0  0  0
 17 62  1  0  0  0  0
 18 19  1  0  0  0  0
 18 20  1  0  0  0  0
 18 21  2  0  0  0  0
 22 23  1  0  0  0  0
 22 24  1  0  0  0  0
 22 25  2  0  0  0  0
 26 27  2  0  0  0  0
 26 63  1  0  0  0  0
 27 28  1  0  0  0  0
 28 29  2  0  0  0  0
 28 35  1  0  0  0  0
 29 30  1  0  0  0  0
 29 64  1  0  0  0  0
 30 31  1  0  0  0  0
 30 32  2  0  0  0  0
 32 33  1  0  0  0  0
 32 65  1  0  0  0  0
 33 34  1  0  0  0  0
 33 35  2  0  0  0  0
 35 66  1  0  0  0  0
M  END
