2zas_ligand
 OpenBabel08222323343D

 32 33  0  0  0  0  0  0  0  0999 V2000
   16.5670   23.4480   42.3290 O   0  0  0  0  0  0  0  0  0  0  0  0
   16.2750   24.7520   42.0490 C   0  0  0  0  0  0  0  0  0  0  0  0
   15.1420   25.3580   42.5920 C   0  0  0  0  0  0  0  0  0  0  0  0
   14.8560   26.6920   42.2850 C   0  0  0  0  0  0  0  0  0  0  0  0
   17.1220   25.4780   41.2100 C   0  0  0  0  0  0  0  0  0  0  0  0
   16.8410   26.8040   40.9150 C   0  0  0  0  0  0  0  0  0  0  0  0
   15.7020   27.4270   41.4470 C   0  0  0  0  0  0  0  0  0  0  0  0
   15.4160   28.8740   41.1150 C   0  0  0  0  0  0  0  0  0  0  0  0
   16.4640   29.7570   41.7830 C   0  0  0  0  0  0  0  0  0  0  0  0
   14.0620   29.3260   41.6500 C   0  0  0  0  0  0  0  0  0  0  0  0
   15.4480   29.0210   39.6100 C   0  0  0  0  0  0  0  0  0  0  0  0
   16.6270   29.3760   38.9420 C   0  0  0  0  0  0  0  0  0  0  0  0
   16.6470   29.4930   37.5520 C   0  0  0  0  0  0  0  0  0  0  0  0
   15.4890   29.2540   36.8190 C   0  0  0  0  0  0  0  0  0  0  0  0
   14.3140   28.8950   37.4770 C   0  0  0  0  0  0  0  0  0  0  0  0
   14.2960   28.7700   38.8640 C   0  0  0  0  0  0  0  0  0  0  0  0
   16.6838   23.3450   43.2661 H   0  0  0  0  0  0  0  0  0  0  0  0
   14.4864   24.7976   43.2487 H   0  0  0  0  0  0  0  0  0  0  0  0
   13.9711   27.1609   42.6999 H   0  0  0  0  0  0  0  0  0  0  0  0
   18.0012   25.0046   40.7881 H   0  0  0  0  0  0  0  0  0  0  0  0
   17.5070   27.3635   40.2681 H   0  0  0  0  0  0  0  0  0  0  0  0
   16.4128   29.6255   42.8739 H   0  0  0  0  0  0  0  0  0  0  0  0
   16.2706   30.8102   41.5312 H   0  0  0  0  0  0  0  0  0  0  0  0
   17.4648   29.4725   41.4260 H   0  0  0  0  0  0  0  0  0  0  0  0
   13.2665   28.7166   41.1963 H   0  0  0  0  0  0  0  0  0  0  0  0
   13.9025   30.3845   41.3968 H   0  0  0  0  0  0  0  0  0  0  0  0
   14.0399   29.2030   42.7429 H   0  0  0  0  0  0  0  0  0  0  0  0
   17.5315   29.5614   39.5100 H   0  0  0  0  0  0  0  0  0  0  0  0
   17.5636   29.7698   37.0438 H   0  0  0  0  0  0  0  0  0  0  0  0
   15.5005   29.3467   35.7390 H   0  0  0  0  0  0  0  0  0  0  0  0
   13.4103   28.7123   36.9068 H   0  0  0  0  0  0  0  0  0  0  0  0
   13.3818   28.4760   39.3668 H   0  0  0  0  0  0  0  0  0  0  0  0
  1  2  1  0  0  0  0
  1 17  1  0  0  0  0
  2  3  2  0  0  0  0
  2  5  1  0  0  0  0
  3  4  1  0  0  0  0
  3 18  1  0  0  0  0
  4  7  2  0  0  0  0
  4 19  1  0  0  0  0
  5  6  2  0  0  0  0
  5 20  1  0  0  0  0
  6  7  1  0  0  0  0
  6 21  1  0  0  0  0
  7  8  1  0  0  0  0
  8  9  1  0  0  0  0
  8 10  1  0  0  0  0
  8 11  1  0  0  0  0
  9 22  1  0  0  0  0
  9 23  1  0  0  0  0
  9 24  1  0  0  0  0
 10 25  1  0  0  0  0
 10 26  1  0  0  0  0
 10 27  1  0  0  0  0
 11 12  2  0  0  0  0
 11 16  1  0  0  0  0
 12 13  1  0  0  0  0
 12 28  1  0  0  0  0
 13 14  2  0  0  0  0
 13 29  1  0  0  0  0
 14 15  1  0  0  0  0
 14 30  1  0  0  0  0
 15 16  2  0  0  0  0
 15 31  1  0  0  0  0
 16 32  1  0  0  0  0
M  END
