2zaz_ligand
 OpenBabel08222323343D

 41 44  0  0  0  0  0  0  0  0999 V2000
   49.3680   37.8820   27.0200 O   0  0  0  0  0  0  0  0  0  0  0  0
   50.1020   36.8910   27.0670 C   0  0  0  0  0  0  0  0  0  0  0  0
   49.5180   35.5620   27.3840 C   0  0  0  0  0  0  0  0  0  0  0  0
   50.2330   33.9970   26.9910 S   0  0  0  0  0  0  0  0  0  0  0  0
   48.8620   33.1110   27.7030 C   0  0  0  0  0  0  0  0  0  0  0  0
   48.3400   35.4040   28.0110 N   0  0  0  0  0  0  0  0  0  0  0  0
   47.9570   34.0830   28.1830 C   0  0  0  0  0  0  0  0  0  0  0  0
   46.7750   33.7320   28.8360 C   0  0  0  0  0  0  0  0  0  0  0  0
   46.2280   34.6450   29.7290 C   0  0  0  0  0  0  0  0  0  0  0  0
   46.1720   32.4940   28.6220 C   0  0  0  0  0  0  0  0  0  0  0  0
   44.9950   32.1990   29.3200 C   0  0  0  0  0  0  0  0  0  0  0  0
   44.4430   33.1180   30.2250 C   0  0  0  0  0  0  0  0  0  0  0  0
   45.0610   34.3530   30.4300 C   0  0  0  0  0  0  0  0  0  0  0  0
   44.5430   35.2660   31.2940 N   0  0  0  0  0  0  0  0  0  0  0  0
   43.4200   34.9990   31.9880 C   0  0  0  0  0  0  0  0  0  0  0  0
   42.7700   33.7810   31.8200 C   0  0  0  0  0  0  0  0  0  0  0  0
   43.2770   32.8240   30.9390 C   0  0  0  0  0  0  0  0  0  0  0  0
   42.6560   31.6210   30.7410 N   0  0  0  0  0  0  0  0  0  0  0  0
   41.5420   31.2130   31.4230 C   0  0  0  0  0  0  0  0  0  0  0  0
   40.2650   31.5900   30.9830 C   0  0  0  0  0  0  0  0  0  0  0  0
   40.0780   32.4540   29.7580 C   0  0  0  0  0  0  0  0  0  0  0  0
   41.6840   30.4070   32.5770 C   0  0  0  0  0  0  0  0  0  0  0  0
   40.5430   29.9810   33.2800 C   0  0  0  0  0  0  0  0  0  0  0  0
   40.6600   29.2120   34.4090 O   0  0  0  0  0  0  0  0  0  0  0  0
   39.2700   30.3630   32.8240 C   0  0  0  0  0  0  0  0  0  0  0  0
   39.1400   31.1510   31.6800 C   0  0  0  0  0  0  0  0  0  0  0  0
   51.1698   36.9898   26.8775 H   0  0  0  0  0  0  0  0  0  0  0  0
   48.7444   32.0297   27.7576 H   0  0  0  0  0  0  0  0  0  0  0  0
   46.7176   35.5999   29.8824 H   0  0  0  0  0  0  0  0  0  0  0  0
   46.6035   31.7775   27.9324 H   0  0  0  0  0  0  0  0  0  0  0  0
   44.5029   31.2466   29.1589 H   0  0  0  0  0  0  0  0  0  0  0  0
   43.0224   35.7342   32.6782 H   0  0  0  0  0  0  0  0  0  0  0  0
   41.8635   33.5733   32.3769 H   0  0  0  0  0  0  0  0  0  0  0  0
   43.0513   30.9833   30.0353 H   0  0  0  0  0  0  0  0  0  0  0  0
   39.0046   32.6283   29.5927 H   0  0  0  0  0  0  0  0  0  0  0  0
   40.5060   31.9453   28.8817 H   0  0  0  0  0  0  0  0  0  0  0  0
   40.5871   33.4175   29.9076 H   0  0  0  0  0  0  0  0  0  0  0  0
   42.6713   30.1181   32.9189 H   0  0  0  0  0  0  0  0  0  0  0  0
   39.7947   29.0188   34.7503 H   0  0  0  0  0  0  0  0  0  0  0  0
   38.3853   30.0442   33.3632 H   0  0  0  0  0  0  0  0  0  0  0  0
   38.1519   31.4254   31.3286 H   0  0  0  0  0  0  0  0  0  0  0  0
  1  2  2  0  0  0  0
  2  3  1  0  0  0  0
  2 27  1  0  0  0  0
  3  4  1  0  0  0  0
  3  6  2  0  0  0  0
  4  5  1  0  0  0  0
  5  7  2  0  0  0  0
  5 28  1  0  0  0  0
  6  7  1  0  0  0  0
  7  8  1  0  0  0  0
  8  9  2  0  0  0  0
  8 10  1  0  0  0  0
  9 13  1  0  0  0  0
  9 29  1  0  0  0  0
 10 11  2  0  0  0  0
 10 30  1  0  0  0  0
 11 12  1  0  0  0  0
 11 31  1  0  0  0  0
 12 13  2  0  0  0  0
 12 17  1  0  0  0  0
 13 14  1  0  0  0  0
 14 15  2  0  0  0  0
 15 16  1  0  0  0  0
 15 32  1  0  0  0  0
 16 17  2  0  0  0  0
 16 33  1  0  0  0  0
 17 18  1  0  0  0  0
 18 19  1  0  0  0  0
 18 34  1  0  0  0  0
 19 20  2  0  0  0  0
 19 22  1  0  0  0  0
 20 21  1  0  0  0  0
 20 26  1  0  0  0  0
 21 35  1  0  0  0  0
 21 36  1  0  0  0  0
 21 37  1  0  0  0  0
 22 23  2  0  0  0  0
 22 38  1  0  0  0  0
 23 24  1  0  0  0  0
 23 25  1  0  0  0  0
 24 39  1  0  0  0  0
 25 26  2  0  0  0  0
 25 40  1  0  0  0  0
 26 41  1  0  0  0  0
M  END
