2zdz_ligand
 OpenBabel08222323343D

 59 62  0  0  0  0  0  0  0  0999 V2000
   16.8280  -10.7960   19.2680 C   0  0  0  0  0  0  0  0  0  0  0  0
   15.8920  -11.0840   18.2520 C   0  0  0  0  0  0  0  0  0  0  0  0
   16.7370   -5.6460   16.2110 C   0  0  0  0  0  3  0  0  0  0  0  0
   15.5540   -7.7230   17.0410 C   0  0  0  0  0  0  0  0  0  0  0  0
   18.1300  -11.3060   19.1990 C   0  0  0  0  0  0  0  0  0  0  0  0
   17.6040  -12.4040   17.1030 C   0  0  0  0  0  0  0  0  0  0  0  0
   16.2970  -11.8940   17.1690 C   0  0  0  0  0  0  0  0  0  0  0  0
   14.5410  -10.5230   18.3710 C   0  0  0  0  0  0  0  0  0  0  0  0
    9.5910   -7.6380   16.5140 C   0  0  0  0  0  0  0  0  0  0  0  0
   10.2010   -4.2120   14.0010 C   0  0  0  0  0  0  0  0  0  0  0  0
    8.4350   -3.2380   15.3500 C   0  0  0  0  0  0  0  0  0  0  0  0
    9.2480   -4.3320   15.0240 C   0  0  0  0  0  0  0  0  0  0  0  0
    8.5670    0.3980   13.0210 C   0  0  0  0  0  0  0  0  0  0  0  0
    9.6850   -0.5900   12.9200 C   0  0  0  0  0  0  0  0  0  0  0  0
    9.5460   -1.8940   13.6380 C   0  0  0  0  0  0  0  0  0  0  0  0
    8.5840   -2.0220   14.6650 C   0  0  0  0  0  0  0  0  0  0  0  0
   10.4820   -8.5730   17.0590 C   0  0  0  0  0  0  0  0  0  0  0  0
   11.8030   -8.2100   17.3690 C   0  0  0  0  0  0  0  0  0  0  0  0
   12.2070   -6.8770   17.1260 C   0  0  0  0  0  0  0  0  0  0  0  0
   11.3160   -5.9390   16.5770 C   0  0  0  0  0  0  0  0  0  0  0  0
   12.7120   -9.2130   17.9550 C   0  0  0  0  0  0  0  0  0  0  0  0
   12.4290  -10.0550   19.0210 C   0  0  0  0  0  0  0  0  0  0  0  0
   13.5580  -10.8670   19.2770 C   0  0  0  0  0  0  0  0  0  0  0  0
   10.4860   -0.4680   11.9910 O   0  0  0  0  0  0  0  0  0  0  0  0
   10.3480   -2.9990   13.3120 C   0  0  0  0  0  0  0  0  0  0  0  0
    9.0160   -5.4940   15.7400 O   0  0  0  0  0  0  0  0  0  0  0  0
   10.0000   -6.3210   16.2660 C   0  0  0  0  0  0  0  0  0  0  0  0
   14.0180   -9.5130   17.5700 N   0  0  0  0  0  0  0  0  0  0  0  0
   14.7530   -8.8700   16.4900 C   0  0  0  0  0  0  0  0  0  0  0  0
   15.8030   -7.5820   18.2340 O   0  0  0  0  0  0  0  0  0  0  0  0
   15.9900   -6.8080   16.0230 N   0  0  0  0  0  0  0  0  0  0  0  0
   16.8940   -4.8080   15.1160 N   0  0  0  0  0  0  0  0  0  0  0  0
   16.9930   -5.1500   17.4870 N   0  0  0  0  0  0  0  0  0  0  0  0
   18.5170  -12.1060   18.1200 C   0  0  0  0  0  0  0  0  0  0  0  0
   15.2190  -12.3030   15.8810 Cl  0  0  0  0  0  0  0  0  0  0  0  0
   16.5369  -10.1755   20.1078 H   0  0  0  0  0  0  0  0  0  0  0  0
   18.8408  -11.0796   19.9855 H   0  0  0  0  0  0  0  0  0  0  0  0
   17.9040  -13.0260   16.2674 H   0  0  0  0  0  0  0  0  0  0  0  0
    8.5752   -7.9369   16.2820 H   0  0  0  0  0  0  0  0  0  0  0  0
   10.8256   -5.0594   13.7424 H   0  0  0  0  0  0  0  0  0  0  0  0
    7.6902   -3.3310   16.1321 H   0  0  0  0  0  0  0  0  0  0  0  0
    8.8202    1.2986   12.4423 H   0  0  0  0  0  0  0  0  0  0  0  0
    8.4131    0.6710   14.0754 H   0  0  0  0  0  0  0  0  0  0  0  0
    7.6455   -0.0487   12.6196 H   0  0  0  0  0  0  0  0  0  0  0  0
    7.9576   -1.1764   14.9253 H   0  0  0  0  0  0  0  0  0  0  0  0
   10.1477   -9.5876   17.2433 H   0  0  0  0  0  0  0  0  0  0  0  0
   13.2195   -6.5739   17.3668 H   0  0  0  0  0  0  0  0  0  0  0  0
   11.6436   -4.9221   16.3937 H   0  0  0  0  0  0  0  0  0  0  0  0
   11.4897  -10.0855   19.5712 H   0  0  0  0  0  0  0  0  0  0  0  0
   13.6378  -11.6285   20.0514 H   0  0  0  0  0  0  0  0  0  0  0  0
   11.0859   -2.9144   12.5225 H   0  0  0  0  0  0  0  0  0  0  0  0
   15.4310   -9.5996   16.0230 H   0  0  0  0  0  0  0  0  0  0  0  0
   14.0443   -8.4940   15.7375 H   0  0  0  0  0  0  0  0  0  0  0  0
   15.7309   -7.0272   15.0823 H   0  0  0  0  0  0  0  0  0  0  0  0
   17.4378   -3.9380   15.2071 H   0  0  0  0  0  0  0  0  0  0  0  0
   16.4667   -5.0560   14.2122 H   0  0  0  0  0  0  0  0  0  0  0  0
   16.8807   -5.7605   18.3090 H   0  0  0  0  0  0  0  0  0  0  0  0
   17.2946   -4.1727   17.6087 H   0  0  0  0  0  0  0  0  0  0  0  0
   19.5271  -12.4964   18.0713 H   0  0  0  0  0  0  0  0  0  0  0  0
  1  5  1  0  0  0  0
  1 36  1  0  0  0  0
  2  1  2  0  0  0  0
  2  7  1  0  0  0  0
  3 32  1  0  0  0  0
  3 33  1  0  0  0  0
  4 30  2  0  0  0  0
  4 31  1  0  0  0  0
  5 34  2  0  0  0  0
  5 37  1  0  0  0  0
  6 34  1  0  0  0  0
  6 38  1  0  0  0  0
  7  6  2  0  0  0  0
  7 35  1  0  0  0  0
  8  2  1  0  0  0  0
  8 23  2  0  0  0  0
  9 27  1  0  0  0  0
  9 39  1  0  0  0  0
 10 25  1  0  0  0  0
 10 40  1  0  0  0  0
 11 16  2  0  0  0  0
 11 41  1  0  0  0  0
 12 10  2  0  0  0  0
 12 11  1  0  0  0  0
 13 42  1  0  0  0  0
 13 43  1  0  0  0  0
 13 44  1  0  0  0  0
 14 13  1  0  0  0  0
 14 24  2  0  0  0  0
 15 14  1  0  0  0  0
 16 15  1  0  0  0  0
 16 45  1  0  0  0  0
 17  9  2  0  0  0  0
 17 46  1  0  0  0  0
 18 17  1  0  0  0  0
 18 19  2  0  0  0  0
 19 20  1  0  0  0  0
 19 47  1  0  0  0  0
 20 27  2  0  0  0  0
 20 48  1  0  0  0  0
 21 18  1  0  0  0  0
 21 22  2  0  0  0  0
 22 23  1  0  0  0  0
 22 49  1  0  0  0  0
 23 50  1  0  0  0  0
 25 15  2  0  0  0  0
 25 51  1  0  0  0  0
 26 12  1  0  0  0  0
 27 26  1  0  0  0  0
 28  8  1  0  0  0  0
 28 21  1  0  0  0  0
 28 29  1  0  0  0  0
 29  4  1  0  0  0  0
 29 52  1  0  0  0  0
 29 53  1  0  0  0  0
 31  3  1  0  0  0  0
 31 54  1  0  0  0  0
 32 55  1  0  0  0  0
 32 56  1  0  0  0  0
 33 57  1  0  0  0  0
 33 58  1  0  0  0  0
 34 59  1  0  0  0  0
M  END
