2zgm_ligand
 OpenBabel08222323343D

 45 46  0  0  1  0  0  0  0  0999 V2000
    9.5060   -8.0180   40.8820 C   0  0  2  0  0  0  0  0  0  0  0  0
   10.7320   -7.9960   39.9460 C   0  0  1  0  0  0  0  0  0  0  0  0
   10.4040   -7.1080   38.7420 C   0  0  2  0  0  0  0  0  0  0  0  0
    9.1630   -7.6750   38.0200 C   0  0  2  0  0  0  0  0  0  0  0  0
    7.9920   -7.7170   39.0530 C   0  0  1  0  0  0  0  0  0  0  0  0
    6.7630   -8.2950   38.3670 C   0  0  0  0  0  0  0  0  0  0  0  0
    9.8470   -8.8610   42.0000 O   0  0  0  0  0  0  0  0  0  0  0  0
   11.8810   -7.4560   40.6390 O   0  0  0  0  0  0  0  0  0  0  0  0
   11.5270   -7.0720   37.8460 O   0  0  0  0  0  0  0  0  0  0  0  0
    9.4520   -9.0030   37.5230 O   0  0  0  0  0  0  0  0  0  0  0  0
    8.3540   -8.5640   40.1890 O   0  0  0  0  0  0  0  0  0  0  0  0
    5.6630   -8.3480   39.2860 O   0  0  0  0  0  0  0  0  0  0  0  0
    7.9870   -9.6400   45.6890 C   0  0  2  0  0  0  0  0  0  0  0  0
    7.5830  -10.5300   44.4890 C   0  0  1  0  0  0  0  0  0  0  0  0
    8.6700  -10.4210   43.4340 C   0  0  2  0  0  0  0  0  0  0  0  0
    8.7900   -8.9450   42.9960 C   0  0  1  0  0  0  0  0  0  0  0  0
    9.1300   -8.1060   44.2720 C   0  0  1  0  0  0  0  0  0  0  0  0
    9.2110   -6.6170   43.9020 C   0  0  0  0  0  0  0  0  0  0  0  0
    6.9690   -9.7430   46.6960 O   0  0  0  0  0  0  0  0  0  0  0  0
    7.4800  -11.9000   44.8940 O   0  0  0  0  0  0  0  0  0  0  0  0
    8.3320  -11.2280   42.3090 O   0  0  0  0  0  0  0  0  0  0  0  0
    8.0900   -8.2560   45.2810 O   0  0  0  0  0  0  0  0  0  0  0  0
    9.5130   -5.8360   45.0640 O   0  0  0  0  0  0  0  0  0  0  0  0
    9.2775   -6.9998   41.2297 H   0  0  0  0  0  0  0  0  0  0  0  0
   10.9561   -9.0179   39.6061 H   0  0  0  0  0  0  0  0  0  0  0  0
   10.1870   -6.0872   39.0897 H   0  0  0  0  0  0  0  0  0  0  0  0
    8.8904   -7.0231   37.1770 H   0  0  0  0  0  0  0  0  0  0  0  0
    7.7760   -6.6988   39.4087 H   0  0  0  0  0  0  0  0  0  0  0  0
    6.9891   -9.3112   38.0117 H   0  0  0  0  0  0  0  0  0  0  0  0
    6.4915   -7.6593   37.5114 H   0  0  0  0  0  0  0  0  0  0  0  0
   12.0859   -8.0057   41.3862 H   0  0  0  0  0  0  0  0  0  0  0  0
   11.3197   -6.5185   37.1022 H   0  0  0  0  0  0  0  0  0  0  0  0
   10.1654   -8.9574   36.8973 H   0  0  0  0  0  0  0  0  0  0  0  0
    5.8953   -8.8980   40.0249 H   0  0  0  0  0  0  0  0  0  0  0  0
    8.9523   -9.9794   46.0926 H   0  0  0  0  0  0  0  0  0  0  0  0
    6.6202  -10.1900   44.0798 H   0  0  0  0  0  0  0  0  0  0  0  0
    9.6280  -10.7612   43.8541 H   0  0  0  0  0  0  0  0  0  0  0  0
    7.8428   -8.5931   42.5612 H   0  0  0  0  0  0  0  0  0  0  0  0
   10.0937   -8.4426   44.6817 H   0  0  0  0  0  0  0  0  0  0  0  0
    8.2456   -6.2924   43.4866 H   0  0  0  0  0  0  0  0  0  0  0  0
   10.0011   -6.4714   43.1506 H   0  0  0  0  0  0  0  0  0  0  0  0
    6.8903  -10.6481   46.9738 H   0  0  0  0  0  0  0  0  0  0  0  0
    7.2577  -12.4356   44.1416 H   0  0  0  0  0  0  0  0  0  0  0  0
    7.5024  -10.9366   41.9495 H   0  0  0  0  0  0  0  0  0  0  0  0
    8.8307   -5.9595   45.7133 H   0  0  0  0  0  0  0  0  0  0  0  0
  1  2  1  0  0  0  0
  1 11  1  0  0  0  0
  1 24  1  1  0  0  0
  2  3  1  0  0  0  0
  2  8  1  0  0  0  0
  2 25  1  6  0  0  0
  3  4  1  0  0  0  0
  3  9  1  0  0  0  0
  3 26  1  1  0  0  0
  4 10  1  0  0  0  0
  4 27  1  6  0  0  0
  5  4  1  0  0  0  0
  5  6  1  0  0  0  0
  5 28  1  1  0  0  0
  6 12  1  0  0  0  0
  6 29  1  0  0  0  0
  6 30  1  0  0  0  0
  7  1  1  0  0  0  0
  8 31  1  0  0  0  0
  9 32  1  0  0  0  0
 10 33  1  0  0  0  0
 11  5  1  0  0  0  0
 12 34  1  0  0  0  0
 13 19  1  0  0  0  0
 13 22  1  0  0  0  0
 13 35  1  1  0  0  0
 14 13  1  0  0  0  0
 14 20  1  0  0  0  0
 14 36  1  6  0  0  0
 15 14  1  0  0  0  0
 15 16  1  0  0  0  0
 15 21  1  0  0  0  0
 15 37  1  1  0  0  0
 16  7  1  0  0  0  0
 16 17  1  0  0  0  0
 16 38  1  6  0  0  0
 17 18  1  0  0  0  0
 17 22  1  0  0  0  0
 17 39  1  1  0  0  0
 18 23  1  0  0  0  0
 18 40  1  0  0  0  0
 18 41  1  0  0  0  0
 19 42  1  0  0  0  0
 20 43  1  0  0  0  0
 21 44  1  0  0  0  0
 23 45  1  0  0  0  0
M  END
