2zjv_ligand
 OpenBabel08222323343D

 24 24  0  0  1  0  0  0  0  0999 V2000
   30.8480  -27.0810  -28.5190 N   0  0  0  0  0  0  0  0  0  0  0  0
   30.0040  -27.3870  -27.4620 C   0  0  1  0  0  3  0  0  0  0  0  0
   30.6110  -26.9700  -26.2840 N   0  0  0  0  0  0  0  0  0  0  0  0
   28.8410  -27.9650  -27.7360 N   0  0  0  0  0  0  0  0  0  0  0  0
   30.5540  -27.3640  -29.9180 C   0  0  0  0  0  0  0  0  0  0  0  0
   30.1890  -26.1590  -30.7360 C   0  0  0  0  0  0  0  0  0  0  0  0
   31.8990  -26.3320  -26.0630 C   0  0  0  0  0  0  0  0  0  0  0  0
   29.7710  -26.3170  -32.3990 S   0  0  0  0  0  0  0  0  0  0  0  0
   29.5470  -24.6300  -32.4690 C   0  0  0  0  0  0  0  0  0  0  0  0
   29.7510  -23.9410  -31.3700 N   0  0  0  0  0  0  0  0  0  0  0  0
   30.1210  -24.8210  -30.3730 C   0  0  0  0  0  0  0  0  0  0  0  0
   29.0740  -23.8930  -33.9390 Cl  0  0  0  0  0  0  0  0  0  0  0  0
   27.9500  -28.2990  -26.7700 N   0  0  0  0  0  0  0  0  0  0  0  0
   26.8880  -28.8470  -27.1360 O   0  0  0  0  0  0  0  0  0  0  0  0
   28.1910  -28.0530  -25.5610 O   0  0  0  0  0  0  0  0  0  0  0  0
   31.7439  -26.6223  -28.3003 H   0  0  0  0  0  0  0  0  0  0  0  0
   30.0605  -27.1400  -25.4302 H   0  0  0  0  0  0  0  0  0  0  0  0
   28.6067  -28.1672  -28.7184 H   0  0  0  0  0  0  0  0  0  0  0  0
   29.7128  -28.0717  -29.9555 H   0  0  0  0  0  0  0  0  0  0  0  0
   31.4438  -27.8278  -30.3686 H   0  0  0  0  0  0  0  0  0  0  0  0
   32.0379  -26.1493  -24.9872 H   0  0  0  0  0  0  0  0  0  0  0  0
   31.9320  -25.3752  -26.6047 H   0  0  0  0  0  0  0  0  0  0  0  0
   32.7014  -26.9889  -26.4298 H   0  0  0  0  0  0  0  0  0  0  0  0
   30.3462  -24.4855  -29.3617 H   0  0  0  0  0  0  0  0  0  0  0  0
  1  5  1  0  0  0  0
  1 16  1  0  0  0  0
  2  1  1  6  0  0  0
  2  3  1  0  0  0  0
  2  4  1  0  0  0  0
  3  7  1  0  0  0  0
  3 17  1  0  0  0  0
  4 13  1  0  0  0  0
  4 18  1  0  0  0  0
  5  6  1  0  0  0  0
  5 19  1  0  0  0  0
  5 20  1  0  0  0  0
  6  8  1  0  0  0  0
  6 11  2  0  0  0  0
  7 21  1  0  0  0  0
  7 22  1  0  0  0  0
  7 23  1  0  0  0  0
  8  9  1  0  0  0  0
  9 10  2  0  0  0  0
  9 12  1  0  0  0  0
 10 11  1  0  0  0  0
 11 24  1  0  0  0  0
 13 14  2  0  0  0  0
 13 15  2  0  0  0  0
M  END
