2zlg_ligand
 OpenBabel08222323343D

139144  0  0  1  0  0  0  0  0999 V2000
   11.8780   19.0230   -1.9680 O   0  0  0  0  0  0  0  0  0  0  0  0
   10.9920   20.4400   -3.5320 O   0  0  0  0  0  0  0  0  0  0  0  0
   10.5730   21.7970   -3.4270 C   0  0  0  0  0  0  0  0  0  0  0  0
   11.7660   22.6290   -3.8750 C   0  0  0  0  0  0  0  0  0  0  0  0
   11.5700   24.0540   -3.6170 C   0  0  0  0  0  0  0  0  0  0  0  0
   11.4090   24.6640   -2.3830 C   0  0  0  0  0  0  0  0  0  0  0  0
   11.2370   26.0450   -2.3730 C   0  0  0  0  0  0  0  0  0  0  0  0
   11.2290   26.7740   -3.5660 C   0  0  0  0  0  0  0  0  0  0  0  0
   11.8690   22.6430   -5.3340 C   0  0  0  0  0  0  0  0  0  0  0  0
   12.0620   21.5530   -6.1670 C   0  0  0  0  0  0  0  0  0  0  0  0
   12.1300   21.7950   -7.5360 C   0  0  0  0  0  0  0  0  0  0  0  0
   12.0070   23.0900   -8.0440 C   0  0  0  0  0  0  0  0  0  0  0  0
   11.8120   24.1800   -7.1970 C   0  0  0  0  0  0  0  0  0  0  0  0
   11.7490   23.9140   -5.8410 C   0  0  0  0  0  0  0  0  0  0  0  0
   11.5670   24.7820   -4.7860 C   0  0  0  0  0  0  0  0  0  0  0  0
   11.3980   26.1530   -4.8010 C   0  0  0  0  0  0  0  0  0  0  0  0
   12.1030   19.9570   -2.7190 C   0  0  0  0  0  0  0  0  0  0  0  0
   16.4120   21.5540   -2.8190 C   0  0  0  0  0  0  0  0  0  0  0  0
   15.8480   20.2900   -3.4610 C   0  0  0  0  0  0  0  0  0  0  0  0
   16.4690   19.7920   -4.3950 O   0  0  0  0  0  0  0  0  0  0  0  0
   14.5660   19.6170   -2.9890 C   0  0  1  0  0  0  0  0  0  0  0  0
   14.8980   18.7490   -1.8130 C   0  0  0  0  0  0  0  0  0  0  0  0
   16.0760   18.0050   -1.8650 C   0  0  0  0  0  0  0  0  0  0  0  0
   16.4340   17.1720   -0.8080 C   0  0  0  0  0  0  0  0  0  0  0  0
   15.6200   17.0680    0.3160 C   0  0  0  0  0  0  0  0  0  0  0  0
   14.4430   17.8040    0.3780 C   0  0  0  0  0  0  0  0  0  0  0  0
   14.0910   18.6370   -0.6800 C   0  0  0  0  0  0  0  0  0  0  0  0
   13.4150   20.5650   -2.8440 N   0  0  0  0  0  0  0  0  0  0  0  0
   13.6710   21.5540   -1.7730 C   0  0  0  0  0  0  0  0  0  0  0  0
   19.3260   21.1210   -2.2710 O   0  0  0  0  0  0  0  0  0  0  0  0
   19.1710   21.7260   -1.2180 C   0  0  0  0  0  0  0  0  0  0  0  0
   17.7910   21.9410   -0.6390 C   0  0  2  0  0  0  0  0  0  0  0  0
   17.8000   21.2650    0.7340 C   0  0  0  0  0  0  0  0  0  0  0  0
   16.4360   21.2760    1.4110 C   0  0  0  0  0  0  0  0  0  0  0  0
   16.2940   22.4640    2.3520 C   0  0  0  0  0  0  0  0  0  0  0  0
   16.2020   19.9830    2.1790 C   0  0  0  0  0  0  0  0  0  0  0  0
   16.6780   21.3710   -1.3960 N   0  3  0  0  0  0  0  0  0  0  0  0
   20.1980   22.2090   -0.5040 N   0  0  0  0  0  0  0  0  0  0  0  0
   21.5890   22.0570   -0.9330 C   0  0  1  0  0  0  0  0  0  0  0  0
   21.8110   22.9490   -2.1570 C   0  0  0  0  0  0  0  0  0  0  0  0
   21.7980   24.4240   -1.8180 C   0  0  0  0  0  0  0  0  0  0  0  0
   22.6490   24.8810   -1.0210 O   0  5  0  0  0  0  0  0  0  0  0  0
   20.9340   25.1430   -2.3680 O   0  0  0  0  0  0  0  0  0  0  0  0
   22.5780   22.4150    0.1480 C   0  0  0  0  0  0  0  0  0  0  0  0
   22.1860   22.8410    1.2220 O   0  0  0  0  0  0  0  0  0  0  0  0
   23.8730   22.2380   -0.1390 N   0  0  0  0  0  0  0  0  0  0  0  0
   24.9440   22.5310    0.8130 C   0  0  1  0  0  0  0  0  0  0  0  0
   25.5310   21.1800    1.2180 C   0  0  0  0  0  0  0  0  0  0  0  0
   26.4410   21.3160    2.4370 C   0  0  0  0  0  0  0  0  0  0  0  0
   25.6530   21.7120    3.6810 C   0  0  0  0  0  0  0  0  0  0  0  0
   24.5480   20.7000    3.9650 C   0  0  0  0  0  0  0  0  0  0  0  0
   23.6360   20.5460    2.7540 C   0  0  0  0  0  0  0  0  0  0  0  0
   24.4380   20.1580    1.5150 C   0  0  0  0  0  0  0  0  0  0  0  0
   26.0310   23.4080    0.2370 C   0  0  0  0  0  0  0  0  0  0  0  0
   26.8890   23.8810    0.9730 O   0  0  0  0  0  0  0  0  0  0  0  0
   26.0040   23.6410   -1.0840 N   0  0  0  0  0  0  0  0  0  0  0  0
   26.9840   24.5000   -1.7500 C   0  0  1  0  0  0  0  0  0  0  0  0
   26.8690   24.2280   -3.2480 C   0  0  0  0  0  0  0  0  0  0  0  0
   25.7000   24.9820   -3.8400 C   0  0  0  0  0  0  0  0  0  0  0  0
   25.9140   26.0840   -4.3980 O   0  5  0  0  0  0  0  0  0  0  0  0
   24.5590   24.4700   -3.7640 O   0  0  0  0  0  0  0  0  0  0  0  0
   26.6290   25.9170   -1.4000 C   0  0  0  0  0  0  0  0  0  0  0  0
   27.1840   26.8860   -1.8920 O   0  0  0  0  0  0  0  0  0  0  0  0
   25.6430   25.9460   -0.5090 N   0  0  0  0  0  0  0  0  0  0  0  0
   24.9800   27.0340    0.1710 C   0  0  2  0  0  0  0  0  0  0  0  0
   26.0620   27.8790    0.7660 C   0  0  0  0  0  0  0  0  0  0  0  0
   25.9330   29.1320    0.7810 O   0  5  0  0  0  0  0  0  0  0  0  0
   27.0740   27.2700    1.2120 O   0  0  0  0  0  0  0  0  0  0  0  0
   24.2430   26.2120    1.2000 C   0  0  0  0  0  0  0  0  0  0  0  0
   24.0820   26.3970    2.6610 C   0  0  0  0  0  0  0  0  0  0  0  0
   24.5880   27.4880    3.3520 C   0  0  0  0  0  0  0  0  0  0  0  0
   24.3890   27.5910    4.7210 C   0  0  0  0  0  0  0  0  0  0  0  0
   23.6820   26.6080    5.3970 C   0  0  0  0  0  0  0  0  0  0  0  0
   23.1710   25.5140    4.7110 C   0  0  0  0  0  0  0  0  0  0  0  0
   23.3740   25.4130    3.3420 C   0  0  0  0  0  0  0  0  0  0  0  0
   10.3061   22.0372   -2.3873 H   0  0  0  0  0  0  0  0  0  0  0  0
    9.7078   21.9835   -4.0802 H   0  0  0  0  0  0  0  0  0  0  0  0
   12.6826   22.2500   -3.3993 H   0  0  0  0  0  0  0  0  0  0  0  0
   11.4167   24.0894   -1.4639 H   0  0  0  0  0  0  0  0  0  0  0  0
   11.1077   26.5617   -1.4289 H   0  0  0  0  0  0  0  0  0  0  0  0
   11.0879   27.8481   -3.5288 H   0  0  0  0  0  0  0  0  0  0  0  0
   12.1565   20.5496   -5.7677 H   0  0  0  0  0  0  0  0  0  0  0  0
   12.2807   20.9660   -8.2180 H   0  0  0  0  0  0  0  0  0  0  0  0
   12.0641   23.2503   -9.1146 H   0  0  0  0  0  0  0  0  0  0  0  0
   11.7144   25.1883   -7.5828 H   0  0  0  0  0  0  0  0  0  0  0  0
   11.3970   26.7167   -5.7269 H   0  0  0  0  0  0  0  0  0  0  0  0
   15.6849   22.3701   -2.9425 H   0  0  0  0  0  0  0  0  0  0  0  0
   17.3518   21.8205   -3.3247 H   0  0  0  0  0  0  0  0  0  0  0  0
   14.2612   18.9282   -3.7906 H   0  0  0  0  0  0  0  0  0  0  0  0
   16.7184   18.0755   -2.7353 H   0  0  0  0  0  0  0  0  0  0  0  0
   17.3535   16.6004   -0.8611 H   0  0  0  0  0  0  0  0  0  0  0  0
   15.9019   16.4181    1.1365 H   0  0  0  0  0  0  0  0  0  0  0  0
   13.8007   17.7296    1.2480 H   0  0  0  0  0  0  0  0  0  0  0  0
   13.1724   19.2097   -0.6228 H   0  0  0  0  0  0  0  0  0  0  0  0
   12.8112   22.2350   -1.6897 H   0  0  0  0  0  0  0  0  0  0  0  0
   14.5745   22.1323   -2.0162 H   0  0  0  0  0  0  0  0  0  0  0  0
   13.8175   21.0298   -0.8171 H   0  0  0  0  0  0  0  0  0  0  0  0
   17.6197   23.0224   -0.5331 H   0  0  0  0  0  0  0  0  0  0  0  0
   18.5164   21.7933    1.3803 H   0  0  0  0  0  0  0  0  0  0  0  0
   18.1206   20.2203    0.6084 H   0  0  0  0  0  0  0  0  0  0  0  0
   15.6669   21.3601    0.6291 H   0  0  0  0  0  0  0  0  0  0  0  0
   15.3002   22.4418    2.8231 H   0  0  0  0  0  0  0  0  0  0  0  0
   16.4092   23.3983    1.7830 H   0  0  0  0  0  0  0  0  0  0  0  0
   17.0698   22.4104    3.1300 H   0  0  0  0  0  0  0  0  0  0  0  0
   16.3054   19.1270    1.4959 H   0  0  0  0  0  0  0  0  0  0  0  0
   15.1891   19.9895    2.6080 H   0  0  0  0  0  0  0  0  0  0  0  0
   16.9424   19.8979    2.9881 H   0  0  0  0  0  0  0  0  0  0  0  0
   16.7595   20.3741   -1.2708 H   0  0  0  0  0  0  0  0  0  0  0  0
   15.8477   21.7015   -0.9297 H   0  0  0  0  0  0  0  0  0  0  0  0
   20.0068   22.6900    0.3517 H   0  0  0  0  0  0  0  0  0  0  0  0
   21.7549   21.0072   -1.2167 H   0  0  0  0  0  0  0  0  0  0  0  0
   21.0127   22.7492   -2.8869 H   0  0  0  0  0  0  0  0  0  0  0  0
   22.7856   22.6993   -2.6018 H   0  0  0  0  0  0  0  0  0  0  0  0
   24.1192   21.8903   -1.0437 H   0  0  0  0  0  0  0  0  0  0  0  0
   24.5186   23.0347    1.6935 H   0  0  0  0  0  0  0  0  0  0  0  0
   26.1328   20.8067    0.3763 H   0  0  0  0  0  0  0  0  0  0  0  0
   27.1986   22.0871    2.2333 H   0  0  0  0  0  0  0  0  0  0  0  0
   26.9387   20.3524    2.6209 H   0  0  0  0  0  0  0  0  0  0  0  0
   25.2027   22.7031    3.5228 H   0  0  0  0  0  0  0  0  0  0  0  0
   26.3354   21.7526    4.5428 H   0  0  0  0  0  0  0  0  0  0  0  0
   23.9534   21.0457    4.8234 H   0  0  0  0  0  0  0  0  0  0  0  0
   25.0018   19.7263    4.2016 H   0  0  0  0  0  0  0  0  0  0  0  0
   23.1222   21.5003    2.5662 H   0  0  0  0  0  0  0  0  0  0  0  0
   22.8915   19.7632    2.9609 H   0  0  0  0  0  0  0  0  0  0  0  0
   24.9027   19.1752    1.6826 H   0  0  0  0  0  0  0  0  0  0  0  0
   23.7582   20.0998    0.6522 H   0  0  0  0  0  0  0  0  0  0  0  0
   25.2876   23.2117   -1.6340 H   0  0  0  0  0  0  0  0  0  0  0  0
   28.0041   24.2739   -1.4061 H   0  0  0  0  0  0  0  0  0  0  0  0
   26.7220   23.1498   -3.4090 H   0  0  0  0  0  0  0  0  0  0  0  0
   27.7956   24.5501   -3.7456 H   0  0  0  0  0  0  0  0  0  0  0  0
   25.2937   25.0420   -0.2625 H   0  0  0  0  0  0  0  0  0  0  0  0
   24.3094   27.6297   -0.4658 H   0  0  0  0  0  0  0  0  0  0  0  0
   24.6934   25.2125    1.1097 H   0  0  0  0  0  0  0  0  0  0  0  0
   23.2099   26.1840    0.8232 H   0  0  0  0  0  0  0  0  0  0  0  0
   25.1377   28.2584    2.8235 H   0  0  0  0  0  0  0  0  0  0  0  0
   24.7868   28.4412    5.2632 H   0  0  0  0  0  0  0  0  0  0  0  0
   23.5274   26.6940    6.4665 H   0  0  0  0  0  0  0  0  0  0  0  0
   22.6186   24.7459    5.2401 H   0  0  0  0  0  0  0  0  0  0  0  0
   22.9782   24.5617    2.8001 H   0  0  0  0  0  0  0  0  0  0  0  0
  2  3  1  0  0  0  0
  3  4  1  0  0  0  0
  3 76  1  0  0  0  0
  3 77  1  0  0  0  0
  4  5  1  0  0  0  0
  4  9  1  0  0  0  0
  4 78  1  0  0  0  0
  5  6  2  0  0  0  0
  5 15  1  0  0  0  0
  6  7  1  0  0  0  0
  6 79  1  0  0  0  0
  7  8  2  0  0  0  0
  7 80  1  0  0  0  0
  8 81  1  0  0  0  0
  9 10  2  0  0  0  0
  9 14  1  0  0  0  0
 10 11  1  0  0  0  0
 10 82  1  0  0  0  0
 11 12  2  0  0  0  0
 11 83  1  0  0  0  0
 12 84  1  0  0  0  0
 13 12  1  0  0  0  0
 13 85  1  0  0  0  0
 14 13  2  0  0  0  0
 14 15  1  0  0  0  0
 15 16  2  0  0  0  0
 16  8  1  0  0  0  0
 16 86  1  0  0  0  0
 17  1  2  0  0  0  0
 17  2  1  0  0  0  0
 18 19  1  0  0  0  0
 18 87  1  0  0  0  0
 18 88  1  0  0  0  0
 19 20  2  0  0  0  0
 19 21  1  0  0  0  0
 21 22  1  0  0  0  0
 21 28  1  0  0  0  0
 21 89  1  6  0  0  0
 22 23  2  0  0  0  0
 22 27  1  0  0  0  0
 23 24  1  0  0  0  0
 23 90  1  0  0  0  0
 24 25  2  0  0  0  0
 24 91  1  0  0  0  0
 25 92  1  0  0  0  0
 26 25  1  0  0  0  0
 26 93  1  0  0  0  0
 27 26  2  0  0  0  0
 27 94  1  0  0  0  0
 28 17  1  0  0  0  0
 28 29  1  0  0  0  0
 29 95  1  0  0  0  0
 29 96  1  0  0  0  0
 29 97  1  0  0  0  0
 31 30  2  0  0  0  0
 31 38  1  0  0  0  0
 32 31  1  0  0  0  0
 32 33  1  0  0  0  0
 32 37  1  0  0  0  0
 32 98  1  1  0  0  0
 33 34  1  0  0  0  0
 33 99  1  0  0  0  0
 33100  1  0  0  0  0
 34 35  1  0  0  0  0
 34 36  1  0  0  0  0
 34101  1  0  0  0  0
 35102  1  0  0  0  0
 35103  1  0  0  0  0
 35104  1  0  0  0  0
 36105  1  0  0  0  0
 36106  1  0  0  0  0
 36107  1  0  0  0  0
 37 18  1  0  0  0  0
 37108  1  0  0  0  0
 37109  1  0  0  0  0
 38 39  1  0  0  0  0
 38110  1  0  0  0  0
 39 40  1  0  0  0  0
 39 44  1  0  0  0  0
 39111  1  6  0  0  0
 40 41  1  0  0  0  0
 40112  1  0  0  0  0
 40113  1  0  0  0  0
 41 42  1  0  0  0  0
 41 43  2  0  0  0  0
 44 45  2  0  0  0  0
 44 46  1  0  0  0  0
 46 47  1  0  0  0  0
 46114  1  0  0  0  0
 47 48  1  0  0  0  0
 47 54  1  0  0  0  0
 47115  1  1  0  0  0
 48 49  1  0  0  0  0
 48 53  1  0  0  0  0
 48116  1  0  0  0  0
 49 50  1  0  0  0  0
 49117  1  0  0  0  0
 49118  1  0  0  0  0
 50 51  1  0  0  0  0
 50119  1  0  0  0  0
 50120  1  0  0  0  0
 51 52  1  0  0  0  0
 51121  1  0  0  0  0
 51122  1  0  0  0  0
 52 53  1  0  0  0  0
 52123  1  0  0  0  0
 52124  1  0  0  0  0
 53125  1  0  0  0  0
 53126  1  0  0  0  0
 54 55  2  0  0  0  0
 54 56  1  0  0  0  0
 56 57  1  0  0  0  0
 56127  1  0  0  0  0
 57 58  1  0  0  0  0
 57 62  1  0  0  0  0
 57128  1  1  0  0  0
 58 59  1  0  0  0  0
 58129  1  0  0  0  0
 58130  1  0  0  0  0
 59 60  1  0  0  0  0
 59 61  2  0  0  0  0
 62 63  2  0  0  0  0
 62 64  1  0  0  0  0
 64 65  1  0  0  0  0
 64131  1  0  0  0  0
 65 66  1  0  0  0  0
 65 69  1  0  0  0  0
 65132  1  6  0  0  0
 66 67  1  0  0  0  0
 66 68  2  0  0  0  0
 69 70  1  0  0  0  0
 69133  1  0  0  0  0
 69134  1  0  0  0  0
 70 71  2  0  0  0  0
 70 75  1  0  0  0  0
 71 72  1  0  0  0  0
 71135  1  0  0  0  0
 72 73  2  0  0  0  0
 72136  1  0  0  0  0
 73 74  1  0  0  0  0
 73137  1  0  0  0  0
 74 75  2  0  0  0  0
 74138  1  0  0  0  0
 75139  1  0  0  0  0
M  CHG  4  37   1  42  -1  60  -1  67  -1
M  END
