2zmd_ligand
 OpenBabel08222323343D

 25 28  0  0  0  0  0  0  0  0999 V2000
  -34.3530  -15.2190   -9.1230 C   0  0  0  0  0  0  0  0  0  0  0  0
  -34.6840  -16.5450   -9.3830 C   0  0  0  0  0  0  0  0  0  0  0  0
  -35.4830  -16.8540  -10.4760 C   0  0  0  0  0  0  0  0  0  0  0  0
  -35.9470  -15.8320  -11.3160 C   0  0  0  0  0  0  0  0  0  0  0  0
  -35.6110  -14.5060  -11.0540 C   0  0  0  0  0  0  0  0  0  0  0  0
  -34.8140  -14.2010   -9.9560 C   0  0  0  0  0  0  0  0  0  0  0  0
  -36.6090  -18.5350  -11.8240 C   0  0  0  0  0  0  0  0  0  0  0  0
  -36.8250  -19.8820  -11.9150 C   0  0  0  0  0  0  0  0  0  0  0  0
  -37.6070  -20.3640  -12.9600 C   0  0  0  0  0  0  0  0  0  0  0  0
  -38.1510  -19.4600  -13.8830 C   0  0  0  0  0  0  0  0  0  0  0  0
  -37.9150  -18.0860  -13.7670 C   0  0  0  0  0  0  0  0  0  0  0  0
  -37.1300  -17.6200  -12.7180 C   0  0  0  0  0  0  0  0  0  0  0  0
  -36.8080  -16.1830  -12.4900 C   0  0  0  0  0  0  0  0  0  0  0  0
  -35.8310  -18.1730  -10.7630 C   0  0  0  0  0  0  0  0  0  0  0  0
  -37.2430  -15.3030  -13.2600 O   0  0  0  0  0  0  0  0  0  0  0  0
  -35.5250  -19.3330  -10.1330 N   0  0  0  0  0  0  0  0  0  0  0  0
  -36.1470  -20.3950  -10.8550 N   0  0  0  0  0  0  0  0  0  0  0  0
  -33.7330  -14.9761   -8.2676 H   0  0  0  0  0  0  0  0  0  0  0  0
  -34.3197  -17.3339   -8.7350 H   0  0  0  0  0  0  0  0  0  0  0  0
  -35.9692  -13.7152  -11.7031 H   0  0  0  0  0  0  0  0  0  0  0  0
  -34.5509  -13.1702   -9.7477 H   0  0  0  0  0  0  0  0  0  0  0  0
  -37.7936  -21.4272  -13.0594 H   0  0  0  0  0  0  0  0  0  0  0  0
  -38.7627  -19.8306  -14.6976 H   0  0  0  0  0  0  0  0  0  0  0  0
  -38.3385  -17.3936  -14.4855 H   0  0  0  0  0  0  0  0  0  0  0  0
  -34.9475  -19.4306   -9.2857 H   0  0  0  0  0  0  0  0  0  0  0  0
  1  6  1  0  0  0  0
  1 18  1  0  0  0  0
  2  1  2  0  0  0  0
  2 19  1  0  0  0  0
  3  2  1  0  0  0  0
  3  4  2  0  0  0  0
  4  5  1  0  0  0  0
  4 13  1  0  0  0  0
  5  6  2  0  0  0  0
  5 20  1  0  0  0  0
  6 21  1  0  0  0  0
  7  8  1  0  0  0  0
  7 12  1  0  0  0  0
  7 14  2  0  0  0  0
  8  9  1  0  0  0  0
  8 17  2  0  0  0  0
  9 10  2  0  0  0  0
  9 22  1  0  0  0  0
 10 11  1  0  0  0  0
 10 23  1  0  0  0  0
 11 12  2  0  0  0  0
 11 24  1  0  0  0  0
 12 13  1  0  0  0  0
 13 15  2  0  0  0  0
 14  3  1  0  0  0  0
 14 16  1  0  0  0  0
 16 17  1  0  0  0  0
 16 25  1  0  0  0  0
M  END
