2zns_ligand
 OpenBabel08222323343D

 18 17  0  0  1  0  0  0  0  0999 V2000
   20.3010   -1.8800   10.9680 N   0  3  0  0  0  0  0  0  0  0  0  0
   21.5960   -2.6680   10.8410 C   0  0  2  0  0  0  0  0  0  0  0  0
   21.2320   -4.0760   10.4370 C   0  0  0  0  0  0  0  0  0  0  0  0
   22.0780   -4.9660   10.3610 O   0  5  0  0  0  0  0  0  0  0  0  0
   22.3560   -2.7070   12.1990 C   0  0  0  0  0  0  0  0  0  0  0  0
   23.2200   -1.4750   12.4880 C   0  0  0  0  0  0  0  0  0  0  0  0
   24.4120   -1.3520   11.5310 C   0  0  0  0  0  0  0  0  0  0  0  0
   24.7760   -2.3850   10.9700 O   0  5  0  0  0  0  0  0  0  0  0  0
   24.9760   -0.2290   11.3710 O   0  0  0  0  0  0  0  0  0  0  0  0
   20.0600   -4.3610   10.1410 O   0  0  0  0  0  0  0  0  0  0  0  0
   20.5099   -0.9315   11.2378 H   0  0  0  0  0  0  0  0  0  0  0  0
   19.7151   -2.3071   11.6682 H   0  0  0  0  0  0  0  0  0  0  0  0
   19.8199   -1.8791   10.0822 H   0  0  0  0  0  0  0  0  0  0  0  0
   22.2379   -2.2084   10.0751 H   0  0  0  0  0  0  0  0  0  0  0  0
   23.0102   -3.5913   12.1997 H   0  0  0  0  0  0  0  0  0  0  0  0
   21.6127   -2.8001   13.0045 H   0  0  0  0  0  0  0  0  0  0  0  0
   23.6009   -1.5456   13.5175 H   0  0  0  0  0  0  0  0  0  0  0  0
   22.5948   -0.5754   12.3892 H   0  0  0  0  0  0  0  0  0  0  0  0
  1  2  1  0  0  0  0
  1 11  1  0  0  0  0
  1 12  1  0  0  0  0
  1 13  1  0  0  0  0
  2  3  1  0  0  0  0
  2  5  1  0  0  0  0
  2 14  1  6  0  0  0
  3  4  1  0  0  0  0
  3 10  2  0  0  0  0
  5  6  1  0  0  0  0
  5 15  1  0  0  0  0
  5 16  1  0  0  0  0
  6  7  1  0  0  0  0
  6 17  1  0  0  0  0
  6 18  1  0  0  0  0
  7  8  1  0  0  0  0
  7  9  2  0  0  0  0
M  CHG  3   1   1   4  -1   8  -1
M  END
