2znu_ligand
 OpenBabel08222323343D

 36 37  0  0  1  0  0  0  0  0999 V2000
   20.3130   -4.2050   10.3510 O   0  5  0  0  0  0  0  0  0  0  0  0
   21.5280   -4.0600   10.5950 C   0  0  0  0  0  0  0  0  0  0  0  0
   22.4160   -4.9430   10.4850 O   0  0  0  0  0  0  0  0  0  0  0  0
   21.9670   -2.6970   11.0970 C   0  0  1  0  0  0  0  0  0  0  0  0
   20.7760   -1.8810   11.3530 N   0  3  0  0  0  0  0  0  0  0  0  0
   22.7350   -2.9500   12.4040 C   0  0  0  0  0  0  0  0  0  0  0  0
   23.5720   -1.7280   12.8120 C   0  0  2  0  0  0  0  0  0  0  0  0
   24.5790   -1.3020   11.6850 C   0  0  0  0  0  0  0  0  0  0  0  0
   24.6650   -0.0890   11.3990 O   0  5  0  0  0  0  0  0  0  0  0  0
   25.2510   -2.2150   11.1440 O   0  0  0  0  0  0  0  0  0  0  0  0
   24.3220   -2.0680   14.1260 C   0  0  0  0  0  0  0  0  0  0  0  0
   22.6660   -0.6190   13.1200 O   0  0  0  0  0  0  0  0  0  0  0  0
   22.7930   -0.3040   14.5350 C   0  0  1  0  0  0  0  0  0  0  0  0
   24.2020   -0.7930   14.9570 C   0  0  2  0  0  0  0  0  0  0  0  0
   25.2510    0.0910   14.5080 O   0  0  0  0  0  0  0  0  0  0  0  0
   25.0600    1.4670   14.9480 C   0  0  0  0  0  0  0  0  0  0  0  0
   23.7740    2.0710   14.3580 C   0  0  1  0  0  0  0  0  0  0  0  0
   23.8800    2.1570   12.9200 O   0  0  0  0  0  0  0  0  0  0  0  0
   22.5440    1.2120   14.7480 C   0  0  1  0  0  0  0  0  0  0  0  0
   21.3490    1.6210   14.0130 O   0  0  0  0  0  0  0  0  0  0  0  0
   22.6136   -2.1979   10.3602 H   0  0  0  0  0  0  0  0  0  0  0  0
   21.0567   -0.9724   11.6873 H   0  0  0  0  0  0  0  0  0  0  0  0
   20.2025   -2.3323   12.0483 H   0  0  0  0  0  0  0  0  0  0  0  0
   20.2500   -1.7772   10.4994 H   0  0  0  0  0  0  0  0  0  0  0  0
   23.4049   -3.8111   12.2638 H   0  0  0  0  0  0  0  0  0  0  0  0
   22.0142   -3.1727   13.2045 H   0  0  0  0  0  0  0  0  0  0  0  0
   25.3768   -2.3060   13.9244 H   0  0  0  0  0  0  0  0  0  0  0  0
   23.8465   -2.9164   14.6399 H   0  0  0  0  0  0  0  0  0  0  0  0
   22.0381   -0.8593   15.1109 H   0  0  0  0  0  0  0  0  0  0  0  0
   24.2721   -0.9694   16.0405 H   0  0  0  0  0  0  0  0  0  0  0  0
   25.9206    2.0697   14.6224 H   0  0  0  0  0  0  0  0  0  0  0  0
   24.9934    1.4859   16.0458 H   0  0  0  0  0  0  0  0  0  0  0  0
   23.6408    3.0842   14.7650 H   0  0  0  0  0  0  0  0  0  0  0  0
   24.0099    1.2873   12.5606 H   0  0  0  0  0  0  0  0  0  0  0  0
   22.3552    1.3745   15.8194 H   0  0  0  0  0  0  0  0  0  0  0  0
   21.1547    2.5304   14.2075 H   0  0  0  0  0  0  0  0  0  0  0  0
  1  2  1  0  0  0  0
  2  3  2  0  0  0  0
  2  4  1  0  0  0  0
  4  5  1  0  0  0  0
  4  6  1  0  0  0  0
  4 21  1  6  0  0  0
  5 22  1  0  0  0  0
  5 23  1  0  0  0  0
  5 24  1  0  0  0  0
  6  7  1  0  0  0  0
  6 25  1  0  0  0  0
  6 26  1  0  0  0  0
  7  8  1  6  0  0  0
  7 11  1  0  0  0  0
  7 12  1  0  0  0  0
  8  9  1  0  0  0  0
  8 10  2  0  0  0  0
 11 14  1  0  0  0  0
 11 27  1  0  0  0  0
 11 28  1  0  0  0  0
 12 13  1  0  0  0  0
 13 14  1  0  0  0  0
 13 19  1  0  0  0  0
 13 29  1  1  0  0  0
 14 15  1  0  0  0  0
 14 30  1  1  0  0  0
 15 16  1  0  0  0  0
 16 17  1  0  0  0  0
 16 31  1  0  0  0  0
 16 32  1  0  0  0  0
 17 18  1  0  0  0  0
 17 19  1  0  0  0  0
 17 33  1  1  0  0  0
 18 34  1  0  0  0  0
 19 20  1  0  0  0  0
 19 35  1  1  0  0  0
 20 36  1  0  0  0  0
M  CHG  3   1  -1   5   1   9  -1
M  END
