2zu3_ligand
 OpenBabel08222323343D

 93 94  0  0  1  0  0  0  0  0999 V2000
   15.3670   15.9910   29.1240 C   0  0  0  0  0  0  0  0  0  0  0  0
   16.4970   15.1660   29.6360 C   0  0  0  0  0  0  0  0  0  0  0  0
   16.2720   14.1920   30.5900 C   0  0  0  0  0  0  0  0  0  0  0  0
   14.9040   13.9680   31.1110 C   0  0  0  0  0  0  0  0  0  0  0  0
   13.8770   14.7230   30.6450 C   0  0  0  0  0  0  0  0  0  0  0  0
   14.1090   15.7790   29.6070 C   0  0  0  0  0  0  0  0  0  0  0  0
   17.4060   13.3320   31.1210 C   0  0  0  0  0  0  0  0  0  0  0  0
   18.2500   12.8500   30.0280 O   0  0  0  0  0  0  0  0  0  0  0  0
   17.5530   11.9850   29.1580 C   0  0  0  0  0  0  0  0  0  0  0  0
   17.4470   12.3090   27.9600 O   0  0  0  0  0  0  0  0  0  0  0  0
   16.9140   10.8240   29.7430 N   0  0  0  0  0  0  0  0  0  0  0  0
   16.0280    9.8390   29.1250 C   0  0  1  0  0  0  0  0  0  0  0  0
   14.6310    9.9620   29.7650 C   0  0  0  0  0  0  0  0  0  0  0  0
   14.6700    9.9730   31.2690 N   0  0  0  0  0  0  0  0  0  0  0  0
   15.3200    8.9230   32.0440 C   0  0  0  0  0  0  0  0  0  0  0  0
   16.0790    9.9330   27.5880 C   0  0  0  0  0  0  0  0  0  0  0  0
   15.3270   10.9270   26.7940 N   0  0  0  0  0  0  0  0  0  0  0  0
   16.8520    9.1690   27.0510 O   0  0  0  0  0  0  0  0  0  0  0  0
   15.4400   10.3880   25.3150 C   0  0  2  0  0  0  0  0  0  0  0  0
   16.7670   10.7830   24.6610 C   0  0  0  0  0  0  0  0  0  0  0  0
   14.3130   11.0970   24.6830 C   0  0  0  0  0  0  0  0  0  0  0  0
   15.8690    7.9850   31.4520 O   0  0  0  0  0  0  0  0  0  0  0  0
   15.3310    8.9450   33.5810 C   0  0  0  0  0  0  0  0  0  0  0  0
   17.6720   11.5990   24.8180 O   0  0  0  0  0  0  0  0  0  0  0  0
   17.0400    9.6220   23.8300 N   0  0  0  0  0  0  0  0  0  0  0  0
   12.7270   11.0060   24.8770 C   0  0  0  0  0  0  0  0  0  0  0  0
   12.0160   11.7870   23.7790 C   0  0  0  0  0  0  0  0  0  0  0  0
   11.8730    9.7860   25.2290 C   0  0  0  0  0  0  0  0  0  0  0  0
   18.3690    9.4680   23.1710 C   0  0  1  0  0  0  0  0  0  0  0  0
   19.1890    8.3520   23.8930 C   0  0  0  0  0  0  0  0  0  0  0  0
   19.6840    8.6650   25.3270 C   0  0  1  0  0  0  0  0  0  0  0  0
   18.1580    9.1470   21.6680 C   0  0  0  0  0  0  0  0  0  0  0  0
   20.6410    7.6710   25.8190 C   0  0  0  0  0  0  0  0  0  0  0  0
   20.7120    6.4940   25.4160 O   0  0  0  0  0  0  0  0  0  0  0  0
   21.4790    8.2360   26.8230 N   0  0  0  0  0  0  0  0  0  0  0  0
   21.0790    9.6570   27.0130 C   0  0  0  0  0  0  0  0  0  0  0  0
   20.4960    9.9640   25.6050 C   0  0  0  0  0  0  0  0  0  0  0  0
   13.9440    8.5900   34.1660 C   0  0  0  0  0  0  0  0  0  0  0  0
   15.7860   10.3540   34.0710 C   0  0  0  0  0  0  0  0  0  0  0  0
   16.3840    7.9450   34.1270 C   0  0  0  0  0  0  0  0  0  0  0  0
   17.3770   10.2940   20.9780 C   0  0  0  0  0  0  0  0  0  0  0  0
   18.3070   11.3840   20.4470 C   0  0  0  0  0  0  0  0  0  0  0  0
   17.7730   12.7770   20.1780 C   0  0  0  0  0  0  0  0  0  0  0  0
   19.5060   11.1380   20.2270 O   0  0  0  0  0  0  0  0  0  0  0  0
   15.5431   16.7534   28.3738 H   0  0  0  0  0  0  0  0  0  0  0  0
   17.4998   15.3305   29.2586 H   0  0  0  0  0  0  0  0  0  0  0  0
   14.7240   13.2055   31.8602 H   0  0  0  0  0  0  0  0  0  0  0  0
   12.8762   14.5602   31.0284 H   0  0  0  0  0  0  0  0  0  0  0  0
   13.2792   16.3728   29.2410 H   0  0  0  0  0  0  0  0  0  0  0  0
   16.9835   12.4695   31.6573 H   0  0  0  0  0  0  0  0  0  0  0  0
   18.0182   13.9296   31.8124 H   0  0  0  0  0  0  0  0  0  0  0  0
   17.1075   10.6742   30.7126 H   0  0  0  0  0  0  0  0  0  0  0  0
   16.4073    8.8395   29.3842 H   0  0  0  0  0  0  0  0  0  0  0  0
   14.0192    9.1088   29.4369 H   0  0  0  0  0  0  0  0  0  0  0  0
   14.1690   10.8987   29.4199 H   0  0  0  0  0  0  0  0  0  0  0  0
   14.2333   10.7296   31.7558 H   0  0  0  0  0  0  0  0  0  0  0  0
   14.8570   11.7481   27.1178 H   0  0  0  0  0  0  0  0  0  0  0  0
   15.3156    9.2960   25.2698 H   0  0  0  0  0  0  0  0  0  0  0  0
   14.4507   10.8901   23.6114 H   0  0  0  0  0  0  0  0  0  0  0  0
   14.5337   12.1558   24.8834 H   0  0  0  0  0  0  0  0  0  0  0  0
   16.3350    8.9249   23.6999 H   0  0  0  0  0  0  0  0  0  0  0  0
   12.5987   11.6183   25.7817 H   0  0  0  0  0  0  0  0  0  0  0  0
   10.9280   11.7161   23.9244 H   0  0  0  0  0  0  0  0  0  0  0  0
   12.2830   11.3666   22.7982 H   0  0  0  0  0  0  0  0  0  0  0  0
   12.3235   12.8423   23.8216 H   0  0  0  0  0  0  0  0  0  0  0  0
   12.3696    9.2072   26.0217 H   0  0  0  0  0  0  0  0  0  0  0  0
   11.7498    9.1548   24.3366 H   0  0  0  0  0  0  0  0  0  0  0  0
   10.8858   10.1189   25.5818 H   0  0  0  0  0  0  0  0  0  0  0  0
   18.9218   10.4155   23.2531 H   0  0  0  0  0  0  0  0  0  0  0  0
   20.0735    8.1368   23.2754 H   0  0  0  0  0  0  0  0  0  0  0  0
   18.5537    7.4557   23.9487 H   0  0  0  0  0  0  0  0  0  0  0  0
   18.7869    8.6724   25.9635 H   0  0  0  0  0  0  0  0  0  0  0  0
   17.5875    8.2113   21.5733 H   0  0  0  0  0  0  0  0  0  0  0  0
   19.1373    9.0304   21.1808 H   0  0  0  0  0  0  0  0  0  0  0  0
   22.2088    7.7607   27.3145 H   0  0  0  0  0  0  0  0  0  0  0  0
   21.9431   10.2968   27.2453 H   0  0  0  0  0  0  0  0  0  0  0  0
   20.3199    9.7655   27.8016 H   0  0  0  0  0  0  0  0  0  0  0  0
   19.8453   10.8507   25.6223 H   0  0  0  0  0  0  0  0  0  0  0  0
   21.2932   10.1086   24.8610 H   0  0  0  0  0  0  0  0  0  0  0  0
   13.9919    8.6162   35.2646 H   0  0  0  0  0  0  0  0  0  0  0  0
   13.6538    7.5817   33.8356 H   0  0  0  0  0  0  0  0  0  0  0  0
   13.1999    9.3196   33.8140 H   0  0  0  0  0  0  0  0  0  0  0  0
   16.7728   10.5891   33.6456 H   0  0  0  0  0  0  0  0  0  0  0  0
   15.8499   10.3574   35.1691 H   0  0  0  0  0  0  0  0  0  0  0  0
   15.0563   11.1093   33.7438 H   0  0  0  0  0  0  0  0  0  0  0  0
   16.1179    6.9248   33.8134 H   0  0  0  0  0  0  0  0  0  0  0  0
   16.4043    7.9973   35.2256 H   0  0  0  0  0  0  0  0  0  0  0  0
   17.3763    8.2038   33.7292 H   0  0  0  0  0  0  0  0  0  0  0  0
   16.6860   10.7417   21.7075 H   0  0  0  0  0  0  0  0  0  0  0  0
   16.8031    9.8769   20.1374 H   0  0  0  0  0  0  0  0  0  0  0  0
   18.5865   13.4154   19.8031 H   0  0  0  0  0  0  0  0  0  0  0  0
   17.3728   13.2026   21.1100 H   0  0  0  0  0  0  0  0  0  0  0  0
   16.9723   12.7238   19.4257 H   0  0  0  0  0  0  0  0  0  0  0  0
  1  2  2  0  0  0  0
  1  6  1  0  0  0  0
  1 45  1  0  0  0  0
  2  3  1  0  0  0  0
  2 46  1  0  0  0  0
  3  4  2  0  0  0  0
  3  7  1  0  0  0  0
  4  5  1  0  0  0  0
  4 47  1  0  0  0  0
  5  6  2  0  0  0  0
  5 48  1  0  0  0  0
  6 49  1  0  0  0  0
  7  8  1  0  0  0  0
  7 50  1  0  0  0  0
  7 51  1  0  0  0  0
  8  9  1  0  0  0  0
  9 10  2  0  0  0  0
  9 11  1  0  0  0  0
 11 12  1  0  0  0  0
 11 52  1  0  0  0  0
 12 13  1  0  0  0  0
 12 16  1  0  0  0  0
 12 53  1  1  0  0  0
 13 14  1  0  0  0  0
 13 54  1  0  0  0  0
 13 55  1  0  0  0  0
 14 15  1  0  0  0  0
 14 56  1  0  0  0  0
 15 22  2  0  0  0  0
 15 23  1  0  0  0  0
 16 17  1  0  0  0  0
 16 18  2  0  0  0  0
 17 19  1  0  0  0  0
 17 57  1  0  0  0  0
 19 20  1  0  0  0  0
 19 21  1  0  0  0  0
 19 58  1  6  0  0  0
 20 24  2  0  0  0  0
 20 25  1  0  0  0  0
 21 26  1  0  0  0  0
 21 59  1  0  0  0  0
 21 60  1  0  0  0  0
 23 38  1  0  0  0  0
 23 39  1  0  0  0  0
 23 40  1  0  0  0  0
 25 29  1  0  0  0  0
 25 61  1  0  0  0  0
 26 27  1  0  0  0  0
 26 28  1  0  0  0  0
 26 62  1  0  0  0  0
 27 63  1  0  0  0  0
 27 64  1  0  0  0  0
 27 65  1  0  0  0  0
 28 66  1  0  0  0  0
 28 67  1  0  0  0  0
 28 68  1  0  0  0  0
 29 30  1  0  0  0  0
 29 32  1  0  0  0  0
 29 69  1  1  0  0  0
 30 31  1  0  0  0  0
 30 70  1  0  0  0  0
 30 71  1  0  0  0  0
 31 33  1  0  0  0  0
 31 37  1  0  0  0  0
 31 72  1  1  0  0  0
 32 41  1  0  0  0  0
 32 73  1  0  0  0  0
 32 74  1  0  0  0  0
 33 34  2  0  0  0  0
 33 35  1  0  0  0  0
 35 36  1  0  0  0  0
 35 75  1  0  0  0  0
 36 37  1  0  0  0  0
 36 76  1  0  0  0  0
 36 77  1  0  0  0  0
 37 78  1  0  0  0  0
 37 79  1  0  0  0  0
 38 80  1  0  0  0  0
 38 81  1  0  0  0  0
 38 82  1  0  0  0  0
 39 83  1  0  0  0  0
 39 84  1  0  0  0  0
 39 85  1  0  0  0  0
 40 86  1  0  0  0  0
 40 87  1  0  0  0  0
 40 88  1  0  0  0  0
 41 42  1  0  0  0  0
 41 89  1  0  0  0  0
 41 90  1  0  0  0  0
 42 43  1  0  0  0  0
 42 44  2  0  0  0  0
 43 91  1  0  0  0  0
 43 92  1  0  0  0  0
 43 93  1  0  0  0  0
M  END
