2zyn_ligand
 OpenBabel08222323343D

147154  0  0  1  0  0  0  0  0999 V2000
  -20.8460    7.2990  -31.3000 C   0  0  2  0  0  0  0  0  0  0  0  0
  -22.3320    7.4520  -30.9930 C   0  0  2  0  0  0  0  0  0  0  0  0
  -22.6340    8.7610  -30.5260 O   0  0  0  0  0  0  0  0  0  0  0  0
  -22.7700    6.4590  -29.9360 C   0  0  1  0  0  0  0  0  0  0  0  0
  -24.1630    6.5750  -29.6640 O   0  0  0  0  0  0  0  0  0  0  0  0
  -22.4330    5.0050  -30.3390 C   0  0  2  0  0  0  0  0  0  0  0  0
  -22.8040    4.1600  -29.2790 O   0  0  0  0  0  0  0  0  0  0  0  0
  -20.9270    4.8530  -30.6460 C   0  0  2  0  0  0  0  0  0  0  0  0
  -20.3930    5.9170  -31.5110 O   0  0  0  0  0  0  0  0  0  0  0  0
  -20.6180    3.5210  -31.3160 C   0  0  0  0  0  0  0  0  0  0  0  0
  -19.5740    2.9510  -30.5670 O   0  0  0  0  0  0  0  0  0  0  0  0
  -23.9510    3.3390  -29.5810 C   0  0  2  0  0  0  0  0  0  0  0  0
  -24.8510    3.1700  -28.3750 C   0  0  2  0  0  0  0  0  0  0  0  0
  -25.3580    4.4170  -27.8660 O   0  0  0  0  0  0  0  0  0  0  0  0
  -24.1510    2.3980  -27.2400 C   0  0  1  0  0  0  0  0  0  0  0  0
  -25.0750    2.1870  -26.1700 O   0  0  0  0  0  0  0  0  0  0  0  0
  -23.5370    1.0440  -27.6830 C   0  0  2  0  0  0  0  0  0  0  0  0
  -22.5830    0.7240  -26.6770 O   0  0  0  0  0  0  0  0  0  0  0  0
  -22.7970    1.1670  -29.0970 C   0  0  2  0  0  0  0  0  0  0  0  0
  -23.4190    2.1050  -30.0560 O   0  0  0  0  0  0  0  0  0  0  0  0
  -22.6710   -0.1630  -29.8530 C   0  0  0  0  0  0  0  0  0  0  0  0
  -23.9600   -0.7380  -29.9930 O   0  0  0  0  0  0  0  0  0  0  0  0
  -22.3660   -0.7270  -26.4740 C   0  0  2  0  0  0  0  0  0  0  0  0
  -22.2440   -1.0100  -24.9710 C   0  0  2  0  0  0  0  0  0  0  0  0
  -23.4290   -0.6950  -24.2720 O   0  0  0  0  0  0  0  0  0  0  0  0
  -21.0650   -0.2320  -24.4260 C   0  0  1  0  0  0  0  0  0  0  0  0
  -20.8900   -0.4460  -23.0200 O   0  0  0  0  0  0  0  0  0  0  0  0
  -19.7340   -0.5670  -25.1770 C   0  0  2  0  0  0  0  0  0  0  0  0
  -18.7050    0.2700  -24.6790 O   0  0  0  0  0  0  0  0  0  0  0  0
  -19.9190   -0.3940  -26.7150 C   0  0  2  0  0  0  0  0  0  0  0  0
  -21.1480   -1.0470  -27.1420 O   0  0  0  0  0  0  0  0  0  0  0  0
  -18.7870   -0.9960  -27.5470 C   0  0  0  0  0  0  0  0  0  0  0  0
  -19.0540   -0.8190  -28.9190 O   0  0  0  0  0  0  0  0  0  0  0  0
  -17.4590   -0.3600  -24.4260 C   0  0  2  0  0  0  0  0  0  0  0  0
  -17.1020    0.0070  -22.9680 C   0  0  2  0  0  0  0  0  0  0  0  0
  -18.2460   -0.1160  -22.1040 O   0  0  0  0  0  0  0  0  0  0  0  0
  -16.4990    1.4630  -22.8270 C   0  0  1  0  0  0  0  0  0  0  0  0
  -15.7390    1.5650  -21.6340 O   0  0  0  0  0  0  0  0  0  0  0  0
  -15.5390    1.8560  -23.9720 C   0  0  2  0  0  0  0  0  0  0  0  0
  -15.2360    3.2480  -23.8950 O   0  0  0  0  0  0  0  0  0  0  0  0
  -16.1590    1.5530  -25.3550 C   0  0  2  0  0  0  0  0  0  0  0  0
  -16.5400    0.1670  -25.4570 O   0  0  0  0  0  0  0  0  0  0  0  0
  -15.2080    1.8930  -26.5120 C   0  0  0  0  0  0  0  0  0  0  0  0
  -15.9660    2.0310  -27.6870 O   0  0  0  0  0  0  0  0  0  0  0  0
  -13.9000    3.6020  -23.5390 C   0  0  2  0  0  0  0  0  0  0  0  0
  -13.9660    4.6380  -22.4280 C   0  0  2  0  0  0  0  0  0  0  0  0
  -14.6060    4.1320  -21.2690 O   0  0  0  0  0  0  0  0  0  0  0  0
  -14.6630    5.9110  -22.9190 C   0  0  1  0  0  0  0  0  0  0  0  0
  -14.7570    6.9230  -21.9590 O   0  0  0  0  0  0  0  0  0  0  0  0
  -14.0210    6.4630  -24.2380 C   0  0  2  0  0  0  0  0  0  0  0  0
  -14.8940    7.4340  -24.7500 O   0  0  0  0  0  0  0  0  0  0  0  0
  -13.8780    5.3450  -25.2910 C   0  0  2  0  0  0  0  0  0  0  0  0
  -13.2740    4.1560  -24.7100 O   0  0  0  0  0  0  0  0  0  0  0  0
  -13.0450    5.7430  -26.4890 C   0  0  0  0  0  0  0  0  0  0  0  0
  -13.2750    4.8420  -27.5500 O   0  0  0  0  0  0  0  0  0  0  0  0
  -14.3790    8.7850  -24.6410 C   0  0  2  0  0  0  0  0  0  0  0  0
  -15.5430    9.6930  -24.3310 C   0  0  2  0  0  0  0  0  0  0  0  0
  -16.1930    9.3500  -23.1040 O   0  0  0  0  0  0  0  0  0  0  0  0
  -16.5450    9.7040  -25.4820 C   0  0  1  0  0  0  0  0  0  0  0  0
  -17.6500   10.5330  -25.2730 O   0  0  0  0  0  0  0  0  0  0  0  0
  -15.8980   10.0180  -26.8790 C   0  0  2  0  0  0  0  0  0  0  0  0
  -16.8910    9.6070  -27.8200 O   0  0  0  0  0  0  0  0  0  0  0  0
  -14.6260    9.1420  -27.0800 C   0  0  2  0  0  0  0  0  0  0  0  0
  -13.7730    9.1320  -25.9050 O   0  0  0  0  0  0  0  0  0  0  0  0
  -13.7230    9.5370  -28.2590 C   0  0  0  0  0  0  0  0  0  0  0  0
  -13.3520   10.9250  -28.0870 O   0  0  0  0  0  0  0  0  0  0  0  0
  -17.0130   10.3500  -29.0770 C   0  0  2  0  0  0  0  0  0  0  0  0
  -18.4390   10.8920  -29.1160 C   0  0  2  0  0  0  0  0  0  0  0  0
  -18.6310   11.7890  -28.0510 O   0  0  0  0  0  0  0  0  0  0  0  0
  -19.4460    9.7160  -29.1000 C   0  0  1  0  0  0  0  0  0  0  0  0
  -20.7980   10.1550  -29.1400 O   0  0  0  0  0  0  0  0  0  0  0  0
  -19.1910    8.7540  -30.2690 C   0  0  2  0  0  0  0  0  0  0  0  0
  -20.1240    7.6950  -30.1320 O   0  0  0  0  0  0  0  0  0  0  0  0
  -17.7010    8.2790  -30.2100 C   0  0  2  0  0  0  0  0  0  0  0  0
  -16.7510    9.3970  -30.1370 O   0  0  0  0  0  0  0  0  0  0  0  0
  -17.3320    7.3250  -31.3880 C   0  0  0  0  0  0  0  0  0  0  0  0
  -17.2240    8.0680  -32.6250 O   0  0  0  0  0  0  0  0  0  0  0  0
  -20.5881    7.9205  -32.1702 H   0  0  0  0  0  0  0  0  0  0  0  0
  -22.8981    7.2642  -31.9173 H   0  0  0  0  0  0  0  0  0  0  0  0
  -22.1424    8.9339  -29.7317 H   0  0  0  0  0  0  0  0  0  0  0  0
  -22.2211    6.6908  -29.0114 H   0  0  0  0  0  0  0  0  0  0  0  0
  -24.4085    5.9420  -28.9995 H   0  0  0  0  0  0  0  0  0  0  0  0
  -23.0069    4.7356  -31.2379 H   0  0  0  0  0  0  0  0  0  0  0  0
  -20.3922    4.8923  -29.6856 H   0  0  0  0  0  0  0  0  0  0  0  0
  -20.3005    3.6800  -32.3571 H   0  0  0  0  0  0  0  0  0  0  0  0
  -21.5033    2.8683  -31.2982 H   0  0  0  0  0  0  0  0  0  0  0  0
  -19.3381    2.1110  -30.9429 H   0  0  0  0  0  0  0  0  0  0  0  0
  -24.5399    3.8112  -30.3811 H   0  0  0  0  0  0  0  0  0  0  0  0
  -25.7150    2.5726  -28.7014 H   0  0  0  0  0  0  0  0  0  0  0  0
  -25.8632    4.8520  -28.5428 H   0  0  0  0  0  0  0  0  0  0  0  0
  -23.3286    3.0272  -26.8688 H   0  0  0  0  0  0  0  0  0  0  0  0
  -25.3775    3.0265  -25.8441 H   0  0  0  0  0  0  0  0  0  0  0  0
  -24.3172    0.2708  -27.7425 H   0  0  0  0  0  0  0  0  0  0  0  0
  -21.7825    1.5326  -28.8798 H   0  0  0  0  0  0  0  0  0  0  0  0
  -22.0209   -0.8479  -29.2888 H   0  0  0  0  0  0  0  0  0  0  0  0
  -22.2377    0.0177  -30.8478 H   0  0  0  0  0  0  0  0  0  0  0  0
  -23.8889   -1.5620  -30.4604 H   0  0  0  0  0  0  0  0  0  0  0  0
  -23.1991   -1.3074  -26.8970 H   0  0  0  0  0  0  0  0  0  0  0  0
  -22.0476   -2.0838  -24.8355 H   0  0  0  0  0  0  0  0  0  0  0  0
  -24.1454   -1.2168  -24.6142 H   0  0  0  0  0  0  0  0  0  0  0  0
  -21.2777    0.8361  -24.5807 H   0  0  0  0  0  0  0  0  0  0  0  0
  -20.1437    0.0564  -22.7148 H   0  0  0  0  0  0  0  0  0  0  0  0
  -19.4648   -1.6144  -24.9758 H   0  0  0  0  0  0  0  0  0  0  0  0
  -19.9810    0.6826  -26.9321 H   0  0  0  0  0  0  0  0  0  0  0  0
  -18.7044   -2.0706  -27.3272 H   0  0  0  0  0  0  0  0  0  0  0  0
  -17.8411   -0.4958  -27.2920 H   0  0  0  0  0  0  0  0  0  0  0  0
  -19.8704   -1.2517  -29.1400 H   0  0  0  0  0  0  0  0  0  0  0  0
  -17.5312   -1.4534  -24.5222 H   0  0  0  0  0  0  0  0  0  0  0  0
  -16.3378   -0.7072  -22.6275 H   0  0  0  0  0  0  0  0  0  0  0  0
  -18.9325    0.4681  -22.4042 H   0  0  0  0  0  0  0  0  0  0  0  0
  -17.3340    2.1784  -22.7983 H   0  0  0  0  0  0  0  0  0  0  0  0
  -15.3827    2.4426  -21.5609 H   0  0  0  0  0  0  0  0  0  0  0  0
  -14.6091    1.2782  -23.8654 H   0  0  0  0  0  0  0  0  0  0  0  0
  -17.0625    2.1715  -25.4605 H   0  0  0  0  0  0  0  0  0  0  0  0
  -14.4728    1.0845  -26.6377 H   0  0  0  0  0  0  0  0  0  0  0  0
  -14.6834    2.8354  -26.2962 H   0  0  0  0  0  0  0  0  0  0  0  0
  -16.4189    1.2157  -27.8680 H   0  0  0  0  0  0  0  0  0  0  0  0
  -13.3436    2.7175  -23.1955 H   0  0  0  0  0  0  0  0  0  0  0  0
  -12.9338    4.9005  -22.1528 H   0  0  0  0  0  0  0  0  0  0  0  0
  -14.6273    4.8065  -20.6004 H   0  0  0  0  0  0  0  0  0  0  0  0
  -15.6946    5.6188  -23.1645 H   0  0  0  0  0  0  0  0  0  0  0  0
  -13.8847    7.1739  -21.6785 H   0  0  0  0  0  0  0  0  0  0  0  0
  -13.0358    6.9024  -24.0228 H   0  0  0  0  0  0  0  0  0  0  0  0
  -14.8883    5.0912  -25.6443 H   0  0  0  0  0  0  0  0  0  0  0  0
  -11.9795    5.7222  -26.2164 H   0  0  0  0  0  0  0  0  0  0  0  0
  -13.3227    6.7591  -26.8059 H   0  0  0  0  0  0  0  0  0  0  0  0
  -14.1950    4.8605  -27.7858 H   0  0  0  0  0  0  0  0  0  0  0  0
  -13.6300    8.8489  -23.8379 H   0  0  0  0  0  0  0  0  0  0  0  0
  -15.1454   10.7127  -24.2209 H   0  0  0  0  0  0  0  0  0  0  0  0
  -16.5217    8.4603  -23.1590 H   0  0  0  0  0  0  0  0  0  0  0  0
  -16.9357    8.6776  -25.5436 H   0  0  0  0  0  0  0  0  0  0  0  0
  -17.3548   11.4278  -25.1517 H   0  0  0  0  0  0  0  0  0  0  0  0
  -15.6542   11.0857  -26.9817 H   0  0  0  0  0  0  0  0  0  0  0  0
  -14.9794    8.1160  -27.2600 H   0  0  0  0  0  0  0  0  0  0  0  0
  -14.2676    9.4100  -29.2063 H   0  0  0  0  0  0  0  0  0  0  0  0
  -12.8213    8.9070  -28.2671 H   0  0  0  0  0  0  0  0  0  0  0  0
  -12.8859   11.0276  -27.2656 H   0  0  0  0  0  0  0  0  0  0  0  0
  -16.2914   11.1788  -29.1259 H   0  0  0  0  0  0  0  0  0  0  0  0
  -18.5788   11.4456  -30.0562 H   0  0  0  0  0  0  0  0  0  0  0  0
  -18.4866   11.3372  -27.2279 H   0  0  0  0  0  0  0  0  0  0  0  0
  -19.2967    9.1634  -28.1607 H   0  0  0  0  0  0  0  0  0  0  0  0
  -21.3752    9.4006  -29.1284 H   0  0  0  0  0  0  0  0  0  0  0  0
  -19.3626    9.2666  -31.2270 H   0  0  0  0  0  0  0  0  0  0  0  0
  -17.5911    7.7016  -29.2802 H   0  0  0  0  0  0  0  0  0  0  0  0
  -18.1145    6.5590  -31.4926 H   0  0  0  0  0  0  0  0  0  0  0  0
  -16.3692    6.8386  -31.1724 H   0  0  0  0  0  0  0  0  0  0  0  0
  -16.5471    8.7289  -32.5381 H   0  0  0  0  0  0  0  0  0  0  0  0
  1  2  1  0  0  0  0
  1  9  1  0  0  0  0
  1 73  1  0  0  0  0
  1 78  1  6  0  0  0
  2  3  1  0  0  0  0
  2  4  1  0  0  0  0
  2 79  1  6  0  0  0
  3 80  1  0  0  0  0
  4  5  1  0  0  0  0
  4  6  1  0  0  0  0
  4 81  1  1  0  0  0
  5 82  1  0  0  0  0
  6  7  1  0  0  0  0
  6  8  1  0  0  0  0
  6 83  1  6  0  0  0
  7 12  1  0  0  0  0
  8  9  1  0  0  0  0
  8 10  1  0  0  0  0
  8 84  1  1  0  0  0
 10 11  1  0  0  0  0
 10 85  1  0  0  0  0
 10 86  1  0  0  0  0
 11 87  1  0  0  0  0
 12 13  1  0  0  0  0
 12 20  1  0  0  0  0
 12 88  1  6  0  0  0
 13 14  1  0  0  0  0
 13 15  1  0  0  0  0
 13 89  1  6  0  0  0
 14 90  1  0  0  0  0
 15 16  1  0  0  0  0
 15 17  1  0  0  0  0
 15 91  1  1  0  0  0
 16 92  1  0  0  0  0
 17 18  1  0  0  0  0
 17 19  1  0  0  0  0
 17 93  1  6  0  0  0
 18 23  1  0  0  0  0
 19 20  1  0  0  0  0
 19 21  1  0  0  0  0
 19 94  1  1  0  0  0
 21 22  1  0  0  0  0
 21 95  1  0  0  0  0
 21 96  1  0  0  0  0
 22 97  1  0  0  0  0
 23 24  1  0  0  0  0
 23 31  1  0  0  0  0
 23 98  1  6  0  0  0
 24 25  1  0  0  0  0
 24 26  1  0  0  0  0
 24 99  1  1  0  0  0
 25100  1  0  0  0  0
 26 27  1  0  0  0  0
 26 28  1  0  0  0  0
 26101  1  6  0  0  0
 27102  1  0  0  0  0
 28 29  1  0  0  0  0
 28 30  1  0  0  0  0
 28103  1  1  0  0  0
 29 34  1  0  0  0  0
 30 31  1  0  0  0  0
 30 32  1  0  0  0  0
 30104  1  6  0  0  0
 32 33  1  0  0  0  0
 32105  1  0  0  0  0
 32106  1  0  0  0  0
 33107  1  0  0  0  0
 34 35  1  0  0  0  0
 34 42  1  0  0  0  0
 34108  1  6  0  0  0
 35 36  1  0  0  0  0
 35 37  1  0  0  0  0
 35109  1  1  0  0  0
 36110  1  0  0  0  0
 37 38  1  0  0  0  0
 37 39  1  0  0  0  0
 37111  1  1  0  0  0
 38112  1  0  0  0  0
 39 40  1  0  0  0  0
 39 41  1  0  0  0  0
 39113  1  1  0  0  0
 40 45  1  0  0  0  0
 41 42  1  0  0  0  0
 41 43  1  0  0  0  0
 41114  1  6  0  0  0
 43 44  1  0  0  0  0
 43115  1  0  0  0  0
 43116  1  0  0  0  0
 44117  1  0  0  0  0
 45 46  1  0  0  0  0
 45 53  1  0  0  0  0
 45118  1  1  0  0  0
 46 47  1  0  0  0  0
 46 48  1  0  0  0  0
 46119  1  1  0  0  0
 47120  1  0  0  0  0
 48 49  1  0  0  0  0
 48 50  1  0  0  0  0
 48121  1  6  0  0  0
 49122  1  0  0  0  0
 50 51  1  0  0  0  0
 50 52  1  0  0  0  0
 50123  1  1  0  0  0
 51 56  1  0  0  0  0
 52 53  1  0  0  0  0
 52 54  1  0  0  0  0
 52124  1  6  0  0  0
 54 55  1  0  0  0  0
 54125  1  0  0  0  0
 54126  1  0  0  0  0
 55127  1  0  0  0  0
 56 57  1  0  0  0  0
 56 64  1  0  0  0  0
 56128  1  1  0  0  0
 57 58  1  0  0  0  0
 57 59  1  0  0  0  0
 57129  1  1  0  0  0
 58130  1  0  0  0  0
 59 60  1  0  0  0  0
 59 61  1  0  0  0  0
 59131  1  6  0  0  0
 60132  1  0  0  0  0
 61 62  1  0  0  0  0
 61 63  1  0  0  0  0
 61133  1  6  0  0  0
 62 67  1  0  0  0  0
 63 64  1  0  0  0  0
 63 65  1  0  0  0  0
 63134  1  6  0  0  0
 65 66  1  0  0  0  0
 65135  1  0  0  0  0
 65136  1  0  0  0  0
 66137  1  0  0  0  0
 67 68  1  0  0  0  0
 67 75  1  0  0  0  0
 67138  1  6  0  0  0
 68 69  1  0  0  0  0
 68 70  1  0  0  0  0
 68139  1  6  0  0  0
 69140  1  0  0  0  0
 70 71  1  0  0  0  0
 70 72  1  0  0  0  0
 70141  1  1  0  0  0
 71142  1  0  0  0  0
 72 73  1  0  0  0  0
 72 74  1  0  0  0  0
 72143  1  6  0  0  0
 74 75  1  0  0  0  0
 74 76  1  0  0  0  0
 74144  1  1  0  0  0
 76 77  1  0  0  0  0
 76145  1  0  0  0  0
 76146  1  0  0  0  0
 77147  1  0  0  0  0
M  END
