3a29_ligand
 OpenBabel08222323343D

 28 30  0  0  0  0  0  0  0  0999 V2000
   17.7880   60.6800   15.6990 C   0  0  0  0  0  0  0  0  0  0  0  0
   18.7150   61.3960   14.9470 C   0  0  0  0  0  0  0  0  0  0  0  0
   20.0810   61.1890   15.1760 C   0  0  0  0  0  0  0  0  0  0  0  0
   20.5280   60.2780   16.1470 C   0  0  0  0  0  0  0  0  0  0  0  0
   19.5730   59.5760   16.8880 C   0  0  0  0  0  0  0  0  0  0  0  0
   18.2210   59.7790   16.6610 C   0  0  0  0  0  0  0  0  0  0  0  0
   15.2470   60.0030   16.1080 P   0  0  0  0  0  0  0  0  0  0  0  0
   21.3670   58.3110   18.0420 C   0  0  0  0  0  0  0  0  0  0  0  0
   20.0180   58.6130   17.9010 C   0  0  0  0  0  0  0  0  0  0  0  0
   21.5380   57.1860   19.2920 S   0  0  0  0  0  0  0  0  0  0  0  0
   19.8750   57.1460   19.5950 C   0  0  0  0  0  0  0  0  0  0  0  0
   19.1840   57.9640   18.7690 N   0  0  0  0  0  0  0  0  0  0  0  0
   19.2940   56.3120   20.6400 N   0  0  0  0  0  0  0  0  0  0  0  0
   16.3970   60.8690   15.4880 O   0  0  0  0  0  0  0  0  0  0  0  0
   22.5100   58.8510   17.2270 C   0  0  0  0  0  0  0  0  0  0  0  0
   22.0430   60.0770   16.3760 C   0  0  0  0  0  0  0  0  0  0  0  0
   15.2700   60.0420   17.6430 O   0  0  0  0  0  1  0  0  0  0  0  0
   13.8840   60.5320   15.6340 O   0  0  0  0  0  1  0  0  0  0  0  0
   15.3560   58.5130   15.7030 O   0  0  0  0  0  0  0  0  0  0  0  0
   18.3844   62.1035   14.1951 H   0  0  0  0  0  0  0  0  0  0  0  0
   20.8075   61.7427   14.5924 H   0  0  0  0  0  0  0  0  0  0  0  0
   17.4921   59.2265   17.2428 H   0  0  0  0  0  0  0  0  0  0  0  0
   18.2756   56.3147   20.7944 H   0  0  0  0  0  0  0  0  0  0  0  0
   19.9019   55.7200   21.2239 H   0  0  0  0  0  0  0  0  0  0  0  0
   22.8794   58.0629   16.5544 H   0  0  0  0  0  0  0  0  0  0  0  0
   23.3193   59.1660   17.9022 H   0  0  0  0  0  0  0  0  0  0  0  0
   22.4194   60.9819   16.8755 H   0  0  0  0  0  0  0  0  0  0  0  0
   22.5120   59.9829   15.3855 H   0  0  0  0  0  0  0  0  0  0  0  0
  1  2  2  0  0  0  0
  1  6  1  0  0  0  0
  1 14  1  0  0  0  0
  2  3  1  0  0  0  0
  2 20  1  0  0  0  0
  3  4  2  0  0  0  0
  3 21  1  0  0  0  0
  4  5  1  0  0  0  0
  4 16  1  0  0  0  0
  5  6  2  0  0  0  0
  5  9  1  0  0  0  0
  6 22  1  0  0  0  0
  7 17  1  0  0  0  0
  7 18  1  0  0  0  0
  7 19  2  0  0  0  0
  8 10  1  0  0  0  0
  8 15  1  0  0  0  0
  9  8  2  0  0  0  0
  9 12  1  0  0  0  0
 10 11  1  0  0  0  0
 11 12  2  0  0  0  0
 11 13  1  0  0  0  0
 13 23  1  0  0  0  0
 13 24  1  0  0  0  0
 14  7  1  0  0  0  0
 15 16  1  0  0  0  0
 15 25  1  0  0  0  0
 15 26  1  0  0  0  0
 16 27  1  0  0  0  0
 16 28  1  0  0  0  0
M  END
