3arz_ligand
 OpenBabel08222323343D

 28 30  0  0  0  0  0  0  0  0999 V2000
   -1.0570  -15.2870    1.6010 C   0  0  0  0  0  0  0  0  0  0  0  0
   -2.3600  -15.7660    1.3450 C   0  0  0  0  0  0  0  0  0  0  0  0
   -3.4470  -14.8650    1.2950 C   0  0  0  0  0  0  0  0  0  0  0  0
   -3.2160  -13.4990    1.4960 C   0  0  0  0  0  0  0  0  0  0  0  0
   -1.9430  -13.0270    1.7550 C   0  0  0  0  0  0  0  0  0  0  0  0
   -0.8830  -13.9170    1.8090 C   0  0  0  0  0  0  0  0  0  0  0  0
   -4.7790  -15.0140    1.0900 C   0  0  0  0  0  0  0  0  0  0  0  0
   -5.3970  -13.8070    1.1530 C   0  0  0  0  0  0  0  0  0  0  0  0
   -4.4220  -12.8530    1.4090 O   0  0  0  0  0  0  0  0  0  0  0  0
   -6.7750  -13.4520    1.0420 C   0  0  0  0  0  0  0  0  0  0  0  0
   -7.2430  -12.1870    1.0750 N   0  0  0  0  0  0  0  0  0  0  0  0
   -8.7270  -12.1260    1.0170 C   0  0  0  0  0  0  0  0  0  0  0  0
   -9.1270  -13.6040    1.0380 C   0  0  0  0  0  0  0  0  0  0  0  0
   -7.8210  -14.3080    1.1040 N   0  0  0  0  0  0  0  0  0  0  0  0
    0.0310  -16.1050    1.6690 N   0  0  0  0  0  0  0  0  0  0  0  0
    0.9180  -15.9430    2.6640 C   0  0  0  0  0  0  0  0  0  0  0  0
    2.3170  -16.8890    2.9820 S   0  0  0  0  0  0  0  0  0  0  0  0
   -2.5265  -16.8254    1.1868 H   0  0  0  0  0  0  0  0  0  0  0  0
   -1.7754  -11.9680    1.9147 H   0  0  0  0  0  0  0  0  0  0  0  0
    0.1110  -13.5390    2.0189 H   0  0  0  0  0  0  0  0  0  0  0  0
   -5.2796  -15.9628    0.9023 H   0  0  0  0  0  0  0  0  0  0  0  0
   -9.0679  -11.6362    0.0929 H   0  0  0  0  0  0  0  0  0  0  0  0
   -9.1362  -11.5922    1.8874 H   0  0  0  0  0  0  0  0  0  0  0  0
   -9.6765  -13.8770    0.1250 H   0  0  0  0  0  0  0  0  0  0  0  0
   -9.7437  -13.8333    1.9195 H   0  0  0  0  0  0  0  0  0  0  0  0
   -7.7228  -15.3299    1.1874 H   0  0  0  0  0  0  0  0  0  0  0  0
    0.1676  -16.8201    0.9834 H   0  0  0  0  0  0  0  0  0  0  0  0
    0.7291  -15.1171    3.3482 H   0  0  0  0  0  0  0  0  0  0  0  0
  1  2  2  0  0  0  0
  1  6  1  0  0  0  0
  1 15  1  0  0  0  0
  2  3  1  0  0  0  0
  2 18  1  0  0  0  0
  3  4  2  0  0  0  0
  3  7  1  0  0  0  0
  4  5  1  0  0  0  0
  4  9  1  0  0  0  0
  5  6  2  0  0  0  0
  5 19  1  0  0  0  0
  6 20  1  0  0  0  0
  7  8  2  0  0  0  0
  7 21  1  0  0  0  0
  8  9  1  0  0  0  0
  8 10  1  0  0  0  0
 10 11  2  0  0  0  0
 10 14  1  0  0  0  0
 11 12  1  0  0  0  0
 12 13  1  0  0  0  0
 12 22  1  0  0  0  0
 12 23  1  0  0  0  0
 13 14  1  0  0  0  0
 13 24  1  0  0  0  0
 13 25  1  0  0  0  0
 14 26  1  0  0  0  0
 15 16  1  0  0  0  0
 15 27  1  0  0  0  0
 16 17  2  0  0  0  0
 16 28  1  0  0  0  0
M  END
