3as2_ligand
 OpenBabel08222323343D

 44 45  0  0  0  0  0  0  0  0999 V2000
   -1.6390    7.6160   18.5800 N   0  0  0  0  0  0  0  0  0  0  0  0
   -0.5910    6.7430   18.9880 C   0  0  0  0  0  0  0  0  0  0  0  0
   -0.6850    6.0480   20.1990 C   0  0  0  0  0  0  0  0  0  0  0  0
   -1.8250    6.2130   21.0330 C   0  0  0  0  0  0  0  0  0  0  0  0
   -2.9130    7.0960   20.6710 N   0  0  0  0  0  0  0  0  0  0  0  0
   -2.8080    7.8020   19.4080 C   0  0  0  0  0  0  0  0  0  0  0  0
    0.1420    5.1870   20.8120 N   0  0  0  0  0  0  0  0  0  0  0  0
   -0.4300    4.8140   21.9660 C   0  0  0  0  0  0  0  0  0  0  0  0
   -1.6170    5.4310   22.0990 N   0  0  0  0  0  0  0  0  0  0  0  0
   -1.5140    8.3210   17.2810 C   0  0  0  0  0  0  0  0  0  0  0  0
   -0.9280    9.7080   17.4940 C   0  0  0  0  0  0  0  0  0  0  0  0
   -1.3590   10.6150   16.3420 C   0  0  0  0  0  0  0  0  0  0  0  0
   -0.1720   10.8480   15.4400 C   0  0  0  0  0  0  0  0  0  0  0  0
   -0.5690   11.7580   14.3110 C   0  0  0  0  0  0  0  0  0  0  0  0
   -0.6090   11.2250   12.8740 C   0  0  0  0  0  0  0  0  0  0  0  0
   -0.7200   12.9350   14.5290 O   0  0  0  0  0  0  0  0  0  0  0  0
    0.4080    6.5840   18.2870 O   0  0  0  0  0  0  0  0  0  0  0  0
   -3.6940    8.5680   19.0120 O   0  0  0  0  0  0  0  0  0  0  0  0
   -4.1030    7.2530   21.5720 C   0  0  0  0  0  0  0  0  0  0  0  0
    1.4810    4.6910   20.3370 C   0  0  0  0  0  0  0  0  0  0  0  0
    2.6620    5.6310   20.7500 C   0  0  0  0  0  0  0  0  0  0  0  0
    3.5760    5.1730   21.9280 C   0  0  0  0  0  0  0  0  0  0  0  0
    0.0006    4.1184   22.6848 H   0  0  0  0  0  0  0  0  0  0  0  0
   -2.5083    8.4130   16.8197 H   0  0  0  0  0  0  0  0  0  0  0  0
   -0.8533    7.7450   16.6164 H   0  0  0  0  0  0  0  0  0  0  0  0
    0.1698    9.6439   17.5215 H   0  0  0  0  0  0  0  0  0  0  0  0
   -1.2951   10.1210   18.4451 H   0  0  0  0  0  0  0  0  0  0  0  0
   -1.7151   11.5763   16.7409 H   0  0  0  0  0  0  0  0  0  0  0  0
   -2.1671   10.1321   15.7730 H   0  0  0  0  0  0  0  0  0  0  0  0
    0.1721    9.8863   15.0316 H   0  0  0  0  0  0  0  0  0  0  0  0
    0.6408   11.3133   16.0170 H   0  0  0  0  0  0  0  0  0  0  0  0
   -0.9192   12.0309   12.1926 H   0  0  0  0  0  0  0  0  0  0  0  0
   -1.3275   10.3945   12.8108 H   0  0  0  0  0  0  0  0  0  0  0  0
    0.3910   10.8673   12.5876 H   0  0  0  0  0  0  0  0  0  0  0  0
   -3.9694    6.6289   22.4679 H   0  0  0  0  0  0  0  0  0  0  0  0
   -5.0115    6.9379   21.0378 H   0  0  0  0  0  0  0  0  0  0  0  0
   -4.2003    8.3072   21.8707 H   0  0  0  0  0  0  0  0  0  0  0  0
    1.4586    4.6175   19.2397 H   0  0  0  0  0  0  0  0  0  0  0  0
    1.6588    3.6946   20.7677 H   0  0  0  0  0  0  0  0  0  0  0  0
    2.2267    6.6015   21.0303 H   0  0  0  0  0  0  0  0  0  0  0  0
    3.3045    5.7588   19.8664 H   0  0  0  0  0  0  0  0  0  0  0  0
    4.3557    5.9291   22.1025 H   0  0  0  0  0  0  0  0  0  0  0  0
    4.0474    4.2121   21.6742 H   0  0  0  0  0  0  0  0  0  0  0  0
    2.9696    5.0549   22.8381 H   0  0  0  0  0  0  0  0  0  0  0  0
  1  2  1  0  0  0  0
  1  6  1  0  0  0  0
  1 10  1  0  0  0  0
  2  3  1  0  0  0  0
  2 17  2  0  0  0  0
  3  4  2  0  0  0  0
  3  7  1  0  0  0  0
  4  5  1  0  0  0  0
  4  9  1  0  0  0  0
  5  6  1  0  0  0  0
  5 19  1  0  0  0  0
  6 18  2  0  0  0  0
  7  8  1  0  0  0  0
  7 20  1  0  0  0  0
  8  9  2  0  0  0  0
  8 23  1  0  0  0  0
 10 11  1  0  0  0  0
 10 24  1  0  0  0  0
 10 25  1  0  0  0  0
 11 12  1  0  0  0  0
 11 26  1  0  0  0  0
 11 27  1  0  0  0  0
 12 13  1  0  0  0  0
 12 28  1  0  0  0  0
 12 29  1  0  0  0  0
 13 14  1  0  0  0  0
 13 30  1  0  0  0  0
 13 31  1  0  0  0  0
 14 15  1  0  0  0  0
 14 16  2  0  0  0  0
 15 32  1  0  0  0  0
 15 33  1  0  0  0  0
 15 34  1  0  0  0  0
 19 35  1  0  0  0  0
 19 36  1  0  0  0  0
 19 37  1  0  0  0  0
 20 21  1  0  0  0  0
 20 38  1  0  0  0  0
 20 39  1  0  0  0  0
 21 22  1  0  0  0  0
 21 40  1  0  0  0  0
 21 41  1  0  0  0  0
 22 42  1  0  0  0  0
 22 43  1  0  0  0  0
 22 44  1  0  0  0  0
M  END
