3asx_ligand
 OpenBabel08222323343D

 70 72  0  0  1  0  0  0  0  0999 V2000
   17.1720   -3.6090   55.0720 C   0  0  0  0  0  0  0  0  0  0  0  0
   17.7110   -4.4110   56.1220 N   0  0  0  0  0  0  0  0  0  0  0  0
   18.2250   -0.9550   56.5470 O   0  0  0  0  0  0  0  0  0  0  0  0
   20.8020   -3.0400   53.5230 Cl  0  0  0  0  0  0  0  0  0  0  0  0
   16.0590   -4.1290   54.3920 C   0  0  0  0  0  0  0  0  0  0  0  0
   16.6720   -2.1020   60.8980 N   0  0  0  0  0  0  0  0  0  0  0  0
   17.3800   -5.0240   58.2240 O   0  0  0  0  0  0  0  0  0  0  0  0
   15.2160   -1.1440   51.7320 Cl  0  0  0  0  0  0  0  0  0  0  0  0
   15.4900   -3.3920   53.3120 C   0  0  0  0  0  0  0  0  0  0  0  0
   17.6730   -2.0720   58.8660 O   0  0  0  0  0  0  0  0  0  0  0  0
   15.9900   -2.1250   53.0290 C   0  0  0  0  0  0  0  0  0  0  0  0
   13.3240   -2.0530   63.5300 O   0  5  0  0  0  0  0  0  0  0  0  0
   17.1170   -1.6100   53.7100 C   0  0  0  0  0  0  0  0  0  0  0  0
   13.8630   -0.0160   64.1890 O   0  0  0  0  0  0  0  0  0  0  0  0
   17.6860   -2.3480   54.7330 C   0  0  0  0  0  0  0  0  0  0  0  0
   18.8270   -1.7400   55.4850 C   0  0  1  0  0  0  0  0  0  0  0  0
   19.7400   -0.8120   54.7180 C   0  0  0  0  0  0  0  0  0  0  0  0
   20.6910   -1.2910   53.8320 C   0  0  0  0  0  0  0  0  0  0  0  0
   21.5820   -0.4420   53.1940 C   0  0  0  0  0  0  0  0  0  0  0  0
   21.4820    0.9240   53.4140 C   0  0  0  0  0  0  0  0  0  0  0  0
   20.5160    1.4400   54.2820 C   0  0  0  0  0  0  0  0  0  0  0  0
   19.6330    0.5850   54.9270 C   0  0  0  0  0  0  0  0  0  0  0  0
   17.0270   -4.3600   57.2880 C   0  0  0  0  0  0  0  0  0  0  0  0
   15.7980   -3.4450   57.4440 C   0  0  0  0  0  0  0  0  0  0  0  0
   15.5750   -3.1990   58.9680 C   0  0  0  0  0  0  0  0  0  0  0  0
   16.7170   -2.4000   59.5700 C   0  0  0  0  0  0  0  0  0  0  0  0
   15.4230   -2.1920   61.6970 C   0  0  0  0  0  0  0  0  0  0  0  0
   15.5800   -1.4330   63.0240 C   0  0  1  0  0  0  0  0  0  0  0  0
   16.3650   -0.1270   62.7840 C   0  0  0  0  0  0  0  0  0  0  0  0
   17.7540   -0.3790   62.1790 C   0  0  0  0  0  0  0  0  0  0  0  0
   17.9060   -1.8010   61.6380 C   0  0  0  0  0  0  0  0  0  0  0  0
   14.1910   -1.1810   63.5930 C   0  0  0  0  0  0  0  0  0  0  0  0
   18.9500   -5.2230   55.9130 C   0  0  0  0  0  0  0  0  0  0  0  0
   18.7830   -6.6130   55.3220 C   0  0  0  0  0  0  0  0  0  0  0  0
   17.6280   -7.4140   55.9390 C   0  0  0  0  0  0  0  0  0  0  0  0
   20.0960   -7.2870   55.6750 C   0  0  0  0  0  0  0  0  0  0  0  0
   18.6620   -6.5330   53.7790 C   0  0  0  0  0  0  0  0  0  0  0  0
   17.7072   -1.5234   57.1049 H   0  0  0  0  0  0  0  0  0  0  0  0
   15.6358   -5.0828   54.6856 H   0  0  0  0  0  0  0  0  0  0  0  0
   14.6827   -3.8112   52.7224 H   0  0  0  0  0  0  0  0  0  0  0  0
   17.5310   -0.6471   53.4336 H   0  0  0  0  0  0  0  0  0  0  0  0
   19.4379   -2.5524   55.9054 H   0  0  0  0  0  0  0  0  0  0  0  0
   22.3446   -0.8391   52.5338 H   0  0  0  0  0  0  0  0  0  0  0  0
   22.1614    1.5993   52.9065 H   0  0  0  0  0  0  0  0  0  0  0  0
   20.4562    2.5090   54.4518 H   0  0  0  0  0  0  0  0  0  0  0  0
   18.8685    0.9827   55.5846 H   0  0  0  0  0  0  0  0  0  0  0  0
   14.9120   -3.9317   57.0103 H   0  0  0  0  0  0  0  0  0  0  0  0
   15.9774   -2.4875   56.9331 H   0  0  0  0  0  0  0  0  0  0  0  0
   15.5068   -4.1694   59.4815 H   0  0  0  0  0  0  0  0  0  0  0  0
   14.6361   -2.6433   59.1078 H   0  0  0  0  0  0  0  0  0  0  0  0
   15.2030   -3.2489   61.9079 H   0  0  0  0  0  0  0  0  0  0  0  0
   14.5936   -1.7521   61.1238 H   0  0  0  0  0  0  0  0  0  0  0  0
   16.1457   -2.0541   63.7341 H   0  0  0  0  0  0  0  0  0  0  0  0
   16.4880    0.3926   63.7457 H   0  0  0  0  0  0  0  0  0  0  0  0
   15.7900    0.5087   62.0947 H   0  0  0  0  0  0  0  0  0  0  0  0
   18.5134   -0.2145   62.9576 H   0  0  0  0  0  0  0  0  0  0  0  0
   17.9142    0.3314   61.3546 H   0  0  0  0  0  0  0  0  0  0  0  0
   18.7754   -1.8609   60.9668 H   0  0  0  0  0  0  0  0  0  0  0  0
   18.0338   -2.5114   62.4681 H   0  0  0  0  0  0  0  0  0  0  0  0
   19.4389   -5.3371   56.8917 H   0  0  0  0  0  0  0  0  0  0  0  0
   19.6074   -4.6545   55.2387 H   0  0  0  0  0  0  0  0  0  0  0  0
   17.5719   -8.4034   55.4616 H   0  0  0  0  0  0  0  0  0  0  0  0
   16.6821   -6.8757   55.7794 H   0  0  0  0  0  0  0  0  0  0  0  0
   17.8024   -7.5370   57.0181 H   0  0  0  0  0  0  0  0  0  0  0  0
   20.9294   -6.7187   55.2363 H   0  0  0  0  0  0  0  0  0  0  0  0
   20.1009   -8.3120   55.2759 H   0  0  0  0  0  0  0  0  0  0  0  0
   20.2095   -7.3187   56.7687 H   0  0  0  0  0  0  0  0  0  0  0  0
   17.7131   -6.0457   53.5104 H   0  0  0  0  0  0  0  0  0  0  0  0
   18.6853   -7.5482   53.3562 H   0  0  0  0  0  0  0  0  0  0  0  0
   19.5016   -5.9482   53.3752 H   0  0  0  0  0  0  0  0  0  0  0  0
  1  5  2  0  0  0  0
  1 15  1  0  0  0  0
  2  1  1  0  0  0  0
  2 33  1  0  0  0  0
  3 38  1  0  0  0  0
  5  9  1  0  0  0  0
  5 39  1  0  0  0  0
  6 26  1  0  0  0  0
  6 31  1  0  0  0  0
  9 11  2  0  0  0  0
  9 40  1  0  0  0  0
 11  8  1  0  0  0  0
 13 11  1  0  0  0  0
 13 41  1  0  0  0  0
 15 13  2  0  0  0  0
 15 16  1  0  0  0  0
 16  3  1  0  0  0  0
 16 17  1  0  0  0  0
 16 42  1  1  0  0  0
 17 18  2  0  0  0  0
 17 22  1  0  0  0  0
 18  4  1  0  0  0  0
 18 19  1  0  0  0  0
 19 20  2  0  0  0  0
 19 43  1  0  0  0  0
 20 44  1  0  0  0  0
 21 20  1  0  0  0  0
 21 45  1  0  0  0  0
 22 21  2  0  0  0  0
 22 46  1  0  0  0  0
 23  2  1  0  0  0  0
 23  7  2  0  0  0  0
 24 23  1  0  0  0  0
 24 47  1  0  0  0  0
 24 48  1  0  0  0  0
 25 24  1  0  0  0  0
 25 49  1  0  0  0  0
 25 50  1  0  0  0  0
 26 10  2  0  0  0  0
 26 25  1  0  0  0  0
 27  6  1  0  0  0  0
 27 51  1  0  0  0  0
 27 52  1  0  0  0  0
 28 27  1  0  0  0  0
 28 29  1  0  0  0  0
 28 32  1  0  0  0  0
 28 53  1  1  0  0  0
 29 30  1  0  0  0  0
 29 54  1  0  0  0  0
 29 55  1  0  0  0  0
 30 31  1  0  0  0  0
 30 56  1  0  0  0  0
 30 57  1  0  0  0  0
 31 58  1  0  0  0  0
 31 59  1  0  0  0  0
 32 12  1  0  0  0  0
 32 14  2  0  0  0  0
 33 34  1  0  0  0  0
 33 60  1  0  0  0  0
 33 61  1  0  0  0  0
 34 35  1  0  0  0  0
 34 36  1  0  0  0  0
 34 37  1  0  0  0  0
 35 62  1  0  0  0  0
 35 63  1  0  0  0  0
 35 64  1  0  0  0  0
 36 65  1  0  0  0  0
 36 66  1  0  0  0  0
 36 67  1  0  0  0  0
 37 68  1  0  0  0  0
 37 69  1  0  0  0  0
 37 70  1  0  0  0  0
M  CHG  1  12  -1
M  END
