3at1_ligand
 OpenBabel08222323343D

 12 11  0  0  0  0  0  0  0  0999 V2000
   46.1560   30.0400   16.5110 P   0  0  0  0  0  0  0  0  0  0  0  0
   46.0560   30.4960   18.0210 O   0  0  0  0  0  1  0  0  0  0  0  0
   47.3050   28.9990   16.2310 O   0  0  0  0  0  1  0  0  0  0  0  0
   46.3110   31.2930   15.5680 O   0  0  0  0  0  0  0  0  0  0  0  0
   44.6090   29.1120   16.1580 C   0  0  0  0  0  0  0  0  0  0  0  0
   43.3160   29.8900   16.1500 C   0  0  0  0  0  0  0  0  0  0  0  0
   43.2440   31.1230   16.1660 O   0  0  0  0  0  0  0  0  0  0  0  0
   42.2620   29.0600   16.1120 N   0  0  0  0  0  0  0  0  0  0  0  0
   44.5153   28.3253   16.9211 H   0  0  0  0  0  0  0  0  0  0  0  0
   44.7213   28.6495   15.1663 H   0  0  0  0  0  0  0  0  0  0  0  0
   41.3335   29.4311   16.1022 H   0  0  0  0  0  0  0  0  0  0  0  0
   42.4052   28.0705   16.0935 H   0  0  0  0  0  0  0  0  0  0  0  0
  1  2  1  0  0  0  0
  1  3  1  0  0  0  0
  1  4  2  0  0  0  0
  1  5  1  0  0  0  0
  5  6  1  0  0  0  0
  5  9  1  0  0  0  0
  5 10  1  0  0  0  0
  6  7  2  0  0  0  0
  6  8  1  0  0  0  0
  8 11  1  0  0  0  0
  8 12  1  0  0  0  0
M  END
