3at4_ligand
 OpenBabel08222323343D

 47 50  0  0  0  0  0  0  0  0999 V2000
  -25.1630   -9.1420  -29.5900 N   0  0  0  0  0  0  0  0  0  0  0  0
  -25.3790  -10.4650  -29.7320 C   0  0  0  0  0  0  0  0  0  0  0  0
  -25.6700  -11.2840  -28.6050 C   0  0  0  0  0  0  0  0  0  0  0  0
  -25.7230  -10.7100  -27.3800 N   0  0  0  0  0  0  0  0  0  0  0  0
  -25.4890   -9.4050  -27.2670 C   0  0  0  0  0  0  0  0  0  0  0  0
  -25.2030   -8.5860  -28.3890 C   0  0  0  0  0  0  0  0  0  0  0  0
  -25.9000  -12.6170  -28.7640 N   0  0  0  0  0  0  0  0  0  0  0  0
  -25.5210   -8.8510  -26.0470 N   0  0  0  0  0  0  0  0  0  0  0  0
  -26.0000  -13.6020  -27.8370 C   0  0  0  0  0  0  0  0  0  0  0  0
  -26.2570  -14.8190  -28.4690 C   0  0  0  0  0  0  0  0  0  0  0  0
  -26.3040  -14.4370  -29.8220 C   0  0  0  0  0  0  0  0  0  0  0  0
  -26.0490  -13.1210  -29.8910 N   0  0  0  0  0  0  0  0  0  0  0  0
  -25.8140   -9.4160  -24.7480 C   0  0  0  0  0  0  0  0  0  0  0  0
  -25.8410   -8.5280  -23.7030 C   0  0  0  0  0  0  0  0  0  0  0  0
  -25.4930   -7.2670  -24.2330 C   0  0  0  0  0  0  0  0  0  0  0  0
  -25.3040   -7.4750  -25.6030 C   0  0  0  0  0  0  0  0  0  0  0  0
  -26.4110  -16.0510  -27.8340 C   0  0  0  0  0  0  0  0  0  0  0  0
  -26.2910  -16.0500  -26.4310 C   0  0  0  0  0  0  0  0  0  0  0  0
  -26.0320  -14.8380  -25.7380 C   0  0  0  0  0  0  0  0  0  0  0  0
  -25.8850  -13.5920  -26.4340 C   0  0  0  0  0  0  0  0  0  0  0  0
  -25.9190  -14.8940  -24.3800 N   0  0  0  0  0  0  0  0  0  0  0  0
  -26.0530  -13.7080  -23.5480 C   0  0  0  0  0  0  0  0  0  0  0  0
  -24.7970  -13.4200  -22.7100 C   0  0  0  0  0  0  0  0  0  0  0  0
  -27.3490  -13.7310  -22.7350 C   0  0  0  0  0  0  0  0  0  0  0  0
  -26.2210   -8.9040  -22.2910 C   0  0  0  0  0  0  0  0  0  0  0  0
  -25.4200   -8.1890  -21.2120 C   0  0  0  0  0  0  0  0  0  0  0  0
  -24.7790   -7.1440  -21.4800 O   0  5  0  0  0  0  0  0  0  0  0  0
  -25.4780   -8.7170  -20.1000 O   0  0  0  0  0  0  0  0  0  0  0  0
  -25.3304  -10.9114  -30.7186 H   0  0  0  0  0  0  0  0  0  0  0  0
  -25.0206   -7.5246  -28.2656 H   0  0  0  0  0  0  0  0  0  0  0  0
  -26.5110  -15.0938  -30.6656 H   0  0  0  0  0  0  0  0  0  0  0  0
  -26.0014  -10.4797  -24.6085 H   0  0  0  0  0  0  0  0  0  0  0  0
  -25.3927   -6.3288  -23.6892 H   0  0  0  0  0  0  0  0  0  0  0  0
  -25.0179   -6.6756  -26.2849 H   0  0  0  0  0  0  0  0  0  0  0  0
  -26.6121  -16.9596  -28.3900 H   0  0  0  0  0  0  0  0  0  0  0  0
  -26.3966  -16.9767  -25.8786 H   0  0  0  0  0  0  0  0  0  0  0  0
  -25.6913  -12.6711  -25.8960 H   0  0  0  0  0  0  0  0  0  0  0  0
  -25.7335  -15.8020  -23.9305 H   0  0  0  0  0  0  0  0  0  0  0  0
  -26.1479  -12.8591  -24.2411 H   0  0  0  0  0  0  0  0  0  0  0  0
  -24.9592  -12.5156  -22.1052 H   0  0  0  0  0  0  0  0  0  0  0  0
  -23.9376  -13.2645  -23.3788 H   0  0  0  0  0  0  0  0  0  0  0  0
  -24.5953  -14.2737  -22.0462 H   0  0  0  0  0  0  0  0  0  0  0  0
  -27.4129  -12.8205  -22.1211 H   0  0  0  0  0  0  0  0  0  0  0  0
  -27.3559  -14.6154  -22.0809 H   0  0  0  0  0  0  0  0  0  0  0  0
  -28.2099  -13.7736  -23.4184 H   0  0  0  0  0  0  0  0  0  0  0  0
  -26.0697   -9.9869  -22.1709 H   0  0  0  0  0  0  0  0  0  0  0  0
  -27.2846   -8.6640  -22.1456 H   0  0  0  0  0  0  0  0  0  0  0  0
  1  2  2  0  0  0  0
  1  6  1  0  0  0  0
  2  3  1  0  0  0  0
  2 29  1  0  0  0  0
  3  4  2  0  0  0  0
  3  7  1  0  0  0  0
  4  5  1  0  0  0  0
  5  6  2  0  0  0  0
  5  8  1  0  0  0  0
  6 30  1  0  0  0  0
  7  9  1  0  0  0  0
  7 12  1  0  0  0  0
  8 13  1  0  0  0  0
  8 16  1  0  0  0  0
  9 10  2  0  0  0  0
  9 20  1  0  0  0  0
 10 11  1  0  0  0  0
 10 17  1  0  0  0  0
 11 12  2  0  0  0  0
 11 31  1  0  0  0  0
 13 14  2  0  0  0  0
 13 32  1  0  0  0  0
 14 15  1  0  0  0  0
 14 25  1  0  0  0  0
 15 16  2  0  0  0  0
 15 33  1  0  0  0  0
 16 34  1  0  0  0  0
 17 18  2  0  0  0  0
 17 35  1  0  0  0  0
 18 19  1  0  0  0  0
 18 36  1  0  0  0  0
 19 20  2  0  0  0  0
 19 21  1  0  0  0  0
 20 37  1  0  0  0  0
 21 22  1  0  0  0  0
 21 38  1  0  0  0  0
 22 23  1  0  0  0  0
 22 24  1  0  0  0  0
 22 39  1  0  0  0  0
 23 40  1  0  0  0  0
 23 41  1  0  0  0  0
 23 42  1  0  0  0  0
 24 43  1  0  0  0  0
 24 44  1  0  0  0  0
 24 45  1  0  0  0  0
 25 26  1  0  0  0  0
 25 46  1  0  0  0  0
 25 47  1  0  0  0  0
 26 27  1  0  0  0  0
 26 28  2  0  0  0  0
M  CHG  1  27  -1
M  END
