3atv_ligand
 OpenBabel08222323343D

 39 41  0  0  1  0  0  0  0  0999 V2000
   -4.5050   18.9420   18.2000 P   0  0  0  0  0  0  0  0  0  0  0  0
   -3.8370   19.6500   19.3680 O   0  0  0  0  0  1  0  0  0  0  0  0
   -5.2460   19.8030   17.2230 O   0  0  0  0  0  1  0  0  0  0  0  0
   -5.4110   17.8230   18.6840 O   0  0  0  0  0  0  0  0  0  0  0  0
   -2.9810   17.0400   16.4270 P   0  0  1  0  0  0  0  0  0  0  0  0
   -2.8260   17.6630   15.0510 O   0  0  0  0  0  1  0  0  0  0  0  0
   -1.8230   16.2640   16.9970 O   0  0  0  0  0  0  0  0  0  0  0  0
   -3.2240   18.2120   17.5050 O   0  0  0  0  0  0  0  0  0  0  0  0
   -4.3060   16.1420   16.3600 O   0  0  0  0  0  0  0  0  0  0  0  0
   -4.5510   15.1020   17.3070 C   0  0  0  0  0  0  0  0  0  0  0  0
   -5.5480   14.0970   16.7460 C   0  0  1  0  0  0  0  0  0  0  0  0
   -4.9160   13.4330   15.6450 O   0  0  0  0  0  0  0  0  0  0  0  0
   -5.8800   12.9800   17.7220 C   0  0  1  0  0  0  0  0  0  0  0  0
   -7.2800   12.7420   17.6200 O   0  0  0  0  0  0  0  0  0  0  0  0
   -5.1240   11.7650   17.1790 C   0  0  1  0  0  0  0  0  0  0  0  0
   -5.6730   10.4840   17.4940 O   0  0  0  0  0  0  0  0  0  0  0  0
   -5.2210   12.0620   15.6920 C   0  0  2  0  0  0  0  0  0  0  0  0
   -4.2420   11.3250   14.8860 N   0  0  0  0  0  0  0  0  0  0  0  0
   -2.8950   11.3910   14.9950 C   0  0  0  0  0  0  0  0  0  0  0  0
   -2.2980   10.5880   14.0810 N   0  0  0  0  0  0  0  0  0  0  0  0
   -3.2920    9.9900   13.3810 C   0  0  0  0  0  0  0  0  0  0  0  0
   -3.3390    9.0270   12.2840 C   0  0  0  0  0  0  0  0  0  0  0  0
   -2.1730    8.5330   11.7770 N   0  0  0  0  0  0  0  0  0  0  0  0
   -4.5700    8.6830   11.8270 N   0  0  0  0  0  0  0  0  0  0  0  0
   -5.7080    9.1800   12.3520 C   0  0  0  0  0  0  0  0  0  0  0  0
   -5.7460   10.0740   13.3590 N   0  0  0  0  0  0  0  0  0  0  0  0
   -4.5670   10.4960   13.9020 C   0  0  0  0  0  0  0  0  0  0  0  0
   -4.9589   15.5406   18.2296 H   0  0  0  0  0  0  0  0  0  0  0  0
   -3.6055   14.5871   17.5326 H   0  0  0  0  0  0  0  0  0  0  0  0
   -6.4650   14.6170   16.4320 H   0  0  0  0  0  0  0  0  0  0  0  0
   -5.5860   13.2217   18.7540 H   0  0  0  0  0  0  0  0  0  0  0  0
   -7.5263   12.0465   18.2185 H   0  0  0  0  0  0  0  0  0  0  0  0
   -4.0793   11.7805   17.5230 H   0  0  0  0  0  0  0  0  0  0  0  0
   -5.6995   10.3753   18.4374 H   0  0  0  0  0  0  0  0  0  0  0  0
   -6.2344   11.8565   15.3169 H   0  0  0  0  0  0  0  0  0  0  0  0
   -2.3627   12.0060   15.7191 H   0  0  0  0  0  0  0  0  0  0  0  0
   -2.1949    7.8534   11.0033 H   0  0  0  0  0  0  0  0  0  0  0  0
   -1.2707    8.8396   12.1678 H   0  0  0  0  0  0  0  0  0  0  0  0
   -6.6503    8.8393   11.9384 H   0  0  0  0  0  0  0  0  0  0  0  0
  1  2  1  0  0  0  0
  1  3  1  0  0  0  0
  1  4  2  0  0  0  0
  5  6  1  6  0  0  0
  5  7  2  0  0  0  0
  5  8  1  0  0  0  0
  5  9  1  0  0  0  0
  8  1  1  0  0  0  0
  9 10  1  0  0  0  0
 10 11  1  0  0  0  0
 10 28  1  0  0  0  0
 10 29  1  0  0  0  0
 11 12  1  0  0  0  0
 11 13  1  0  0  0  0
 11 30  1  6  0  0  0
 12 17  1  0  0  0  0
 13 14  1  0  0  0  0
 13 15  1  0  0  0  0
 13 31  1  1  0  0  0
 14 32  1  0  0  0  0
 15 16  1  0  0  0  0
 15 17  1  0  0  0  0
 15 33  1  1  0  0  0
 16 34  1  0  0  0  0
 17 18  1  0  0  0  0
 17 35  1  6  0  0  0
 18 19  1  0  0  0  0
 18 27  1  0  0  0  0
 19 20  2  0  0  0  0
 19 36  1  0  0  0  0
 20 21  1  0  0  0  0
 21 22  2  0  0  0  0
 21 27  1  0  0  0  0
 22 23  1  0  0  0  0
 22 24  1  0  0  0  0
 23 37  1  0  0  0  0
 23 38  1  0  0  0  0
 24 25  2  0  0  0  0
 25 26  1  0  0  0  0
 25 39  1  0  0  0  0
 26 27  2  0  0  0  0
M  END
