3au6_ligand
 OpenBabel08222323343D

 43 45  0  0  1  0  0  0  0  0999 V2000
    1.5300  -30.7990    1.8770 P   0  0  0  0  0  0  0  0  0  0  0  0
    0.0500  -30.5600    1.6300 O   0  0  0  0  0  1  0  0  0  0  0  0
    1.8060  -31.7320    3.0160 O   0  0  0  0  0  1  0  0  0  0  0  0
    2.2310  -31.1540    0.5950 O   0  0  0  0  0  0  0  0  0  0  0  0
    2.1860  -29.4630    2.5280 O   0  0  0  0  0  0  0  0  0  0  0  0
    1.3550  -28.4640    3.5250 P   0  0  1  0  0  0  0  0  0  0  0  0
    2.1380  -28.1280    4.7860 O   0  0  0  0  0  1  0  0  0  0  0  0
    0.9990  -27.2680    2.6870 O   0  0  0  0  0  0  0  0  0  0  0  0
   -0.0040  -29.2610    3.9780 O   0  0  0  0  0  0  0  0  0  0  0  0
   -0.0950  -30.2830    5.2360 P   0  0  1  0  0  0  0  0  0  0  0  0
   -0.7300  -31.5300    4.7370 O   0  0  0  0  0  1  0  0  0  0  0  0
    1.2020  -30.3100    6.0350 O   0  0  0  0  0  0  0  0  0  0  0  0
   -1.1870  -29.6980    6.2460 O   0  0  0  0  0  0  0  0  0  0  0  0
   -1.8120  -28.4150    6.1380 C   0  0  0  0  0  0  0  0  0  0  0  0
   -1.5000  -27.3580    7.2350 C   0  0  1  0  0  0  0  0  0  0  0  0
   -1.5030  -27.7820    8.6170 O   0  0  0  0  0  0  0  0  0  0  0  0
   -0.1540  -26.6450    7.0610 C   0  0  0  0  0  0  0  0  0  0  0  0
    0.0450  -25.9600    8.4080 C   0  0  0  0  0  0  0  0  0  0  0  0
   -0.8200  -26.7670    9.3680 C   0  0  2  0  0  0  0  0  0  0  0  0
    0.1160  -27.3560   10.3220 N   0  0  0  0  0  0  0  0  0  0  0  0
    0.8670  -28.4440   10.0860 C   0  0  0  0  0  0  0  0  0  0  0  0
    1.6560  -28.7340   11.1520 N   0  0  0  0  0  0  0  0  0  0  0  0
    1.4030  -27.8090   12.0890 C   0  0  0  0  0  0  0  0  0  0  0  0
    1.9010  -27.5340   13.4590 C   0  0  0  0  0  0  0  0  0  0  0  0
    2.7700  -28.2730   14.0090 O   0  0  0  0  0  0  0  0  0  0  0  0
    1.3690  -26.4660   14.0950 N   0  0  0  0  0  0  0  0  0  0  0  0
    0.4370  -25.6570   13.5340 C   0  0  2  0  0  3  0  0  0  0  0  0
   -0.0220  -24.6060   14.2590 N   0  0  0  0  0  0  0  0  0  0  0  0
   -0.0540  -25.8580   12.2770 N   0  0  0  0  0  0  0  0  0  0  0  0
    0.3880  -26.8940   11.5300 C   0  0  0  0  0  0  0  0  0  0  0  0
   -2.8996  -28.5793    6.1416 H   0  0  0  0  0  0  0  0  0  0  0  0
   -1.5095  -27.9837    5.1724 H   0  0  0  0  0  0  0  0  0  0  0  0
   -2.2926  -26.6021    7.1329 H   0  0  0  0  0  0  0  0  0  0  0  0
   -0.1988  -25.9084    6.2453 H   0  0  0  0  0  0  0  0  0  0  0  0
    0.6526  -27.3656    6.8605 H   0  0  0  0  0  0  0  0  0  0  0  0
   -0.2901  -24.9131    8.3668 H   0  0  0  0  0  0  0  0  0  0  0  0
    1.1017  -25.9951    8.7114 H   0  0  0  0  0  0  0  0  0  0  0  0
   -1.5488  -26.1251    9.8844 H   0  0  0  0  0  0  0  0  0  0  0  0
    0.8459  -29.0183    9.1610 H   0  0  0  0  0  0  0  0  0  0  0  0
    1.6780  -26.2630   15.0242 H   0  0  0  0  0  0  0  0  0  0  0  0
   -0.7302  -23.9743   13.8587 H   0  0  0  0  0  0  0  0  0  0  0  0
    0.3378  -24.4398   15.2097 H   0  0  0  0  0  0  0  0  0  0  0  0
   -0.7647  -25.2174   11.8956 H   0  0  0  0  0  0  0  0  0  0  0  0
  1  2  1  0  0  0  0
  1  3  1  0  0  0  0
  1  4  2  0  0  0  0
  1  5  1  0  0  0  0
  5  6  1  0  0  0  0
  6  7  1  1  0  0  0
  6  8  2  0  0  0  0
  6  9  1  0  0  0  0
  9 10  1  0  0  0  0
 10 11  1  6  0  0  0
 10 12  2  0  0  0  0
 10 13  1  0  0  0  0
 13 14  1  0  0  0  0
 14 15  1  0  0  0  0
 14 31  1  0  0  0  0
 14 32  1  0  0  0  0
 15 16  1  0  0  0  0
 15 17  1  0  0  0  0
 15 33  1  6  0  0  0
 16 19  1  0  0  0  0
 17 18  1  0  0  0  0
 17 34  1  0  0  0  0
 17 35  1  0  0  0  0
 18 19  1  0  0  0  0
 18 36  1  0  0  0  0
 18 37  1  0  0  0  0
 19 20  1  0  0  0  0
 19 38  1  1  0  0  0
 20 21  1  0  0  0  0
 20 30  1  0  0  0  0
 21 22  2  0  0  0  0
 21 39  1  0  0  0  0
 22 23  1  0  0  0  0
 23 24  1  0  0  0  0
 23 30  2  0  0  0  0
 24 25  2  0  0  0  0
 24 26  1  0  0  0  0
 26 27  1  0  0  0  0
 26 40  1  0  0  0  0
 27 28  1  1  0  0  0
 27 29  1  0  0  0  0
 28 41  1  0  0  0  0
 28 42  1  0  0  0  0
 29 30  1  0  0  0  0
 29 43  1  0  0  0  0
M  END
