3avi_ligand
 OpenBabel08222323343D

126126  0  0  1  0  0  0  0  0999 V2000
    9.1190  -52.9960   13.1520 N   0  0  0  0  0  0  0  0  0  0  0  0
    9.5400  -53.1060   14.5370 C   0  0  2  0  0  0  0  0  0  0  0  0
    8.7870  -52.1540   15.4550 C   0  0  0  0  0  0  0  0  0  0  0  0
    9.2700  -51.9040   16.5750 O   0  0  0  0  0  0  0  0  0  0  0  0
   11.0150  -52.7710   14.6540 C   0  0  0  0  0  0  0  0  0  0  0  0
   11.7620  -53.6980   13.9000 O   0  0  0  0  0  0  0  0  0  0  0  0
    7.6180  -51.7000   14.9960 N   0  0  0  0  0  0  0  0  0  0  0  0
    6.6950  -50.7910   15.6500 C   0  0  2  0  0  0  0  0  0  0  0  0
    7.4010  -49.4870   16.1230 C   0  0  0  0  0  0  0  0  0  0  0  0
    7.1090  -49.0020   17.2320 O   0  0  0  0  0  0  0  0  0  0  0  0
    5.8850  -51.4530   16.8510 C   0  0  0  0  0  0  0  0  0  0  0  0
    4.9010  -52.6150   16.4820 C   0  0  0  0  0  0  0  0  0  0  0  0
    4.2670  -53.1980   17.7400 C   0  0  0  0  0  0  0  0  0  0  0  0
    3.7670  -52.1810   15.5210 C   0  0  0  0  0  0  0  0  0  0  0  0
    8.3010  -48.9520   15.2860 N   0  0  0  0  0  0  0  0  0  0  0  0
    8.9620  -47.6690   15.5120 C   0  0  2  0  0  0  0  0  0  0  0  0
    8.5050  -46.7590   14.3750 C   0  0  0  0  0  0  0  0  0  0  0  0
    8.1550  -47.2520   13.2880 O   0  0  0  0  0  0  0  0  0  0  0  0
   10.4520  -47.8240   15.4150 C   0  0  0  0  0  0  0  0  0  0  0  0
   10.9630  -48.8740   16.4250 C   0  0  0  0  0  0  0  0  0  0  0  0
   10.7510  -48.4320   17.8450 C   0  0  0  0  0  0  0  0  0  0  0  0
   11.4510  -49.4770   18.7920 C   0  0  0  0  0  0  0  0  0  0  0  0
   10.9110  -49.2050   20.1280 N   0  3  0  0  0  0  0  0  0  0  0  0
    8.5270  -45.4410   14.6140 N   0  0  0  0  0  0  0  0  0  0  0  0
    8.0170  -44.5300   13.6010 C   0  0  2  0  0  0  0  0  0  0  0  0
    8.8420  -44.5940   12.3300 C   0  0  0  0  0  0  0  0  0  0  0  0
    8.3330  -44.2450   11.2250 O   0  0  0  0  0  0  0  0  0  0  0  0
    8.0090  -43.0810   14.1950 C   0  0  2  0  0  0  0  0  0  0  0  0
    7.0440  -43.0050   15.4310 C   0  0  0  0  0  0  0  0  0  0  0  0
    7.5580  -42.0390   13.1440 C   0  0  0  0  0  0  0  0  0  0  0  0
    5.4870  -43.2250   15.1000 C   0  0  0  0  0  0  0  0  0  0  0  0
   10.1260  -44.8780   12.5040 N   0  0  0  0  0  0  0  0  0  0  0  0
   11.0340  -45.0430   11.3910 C   0  0  2  0  0  0  0  0  0  0  0  0
   11.1610  -46.4900   10.9060 C   0  0  0  0  0  0  0  0  0  0  0  0
   11.9330  -46.7020    9.9330 O   0  0  0  0  0  0  0  0  0  0  0  0
   12.4710  -44.4760   11.6970 C   0  0  0  0  0  0  0  0  0  0  0  0
   13.1040  -45.0820   12.9550 C   0  0  0  0  0  0  0  0  0  0  0  0
   14.3340  -44.8320   13.2170 O   0  5  0  0  0  0  0  0  0  0  0  0
   12.4100  -45.7860   13.7320 O   0  0  0  0  0  0  0  0  0  0  0  0
   10.3500  -47.4150   11.4340 N   0  0  0  0  0  0  0  0  0  0  0  0
   10.4050  -48.8370   11.0200 C   0  0  2  0  0  0  0  0  0  0  0  0
    9.2850  -49.5750   11.6020 C   0  0  0  0  0  0  0  0  0  0  0  0
    9.4480  -50.1090   12.7260 O   0  0  0  0  0  0  0  0  0  0  0  0
   11.7410  -49.4740   11.4860 C   0  0  0  0  0  0  0  0  0  0  0  0
   11.8670  -50.9470   11.0200 C   0  0  0  0  0  0  0  0  0  0  0  0
   10.9200  -51.5050   10.5290 O   0  0  0  0  0  0  0  0  0  0  0  0
   13.0720  -51.5230   11.1290 N   0  0  0  0  0  0  0  0  0  0  0  0
    8.1330  -49.5310   10.9310 N   0  0  0  0  0  0  0  0  0  0  0  0
    6.9180  -50.0420   11.5780 C   0  0  2  0  0  0  0  0  0  0  0  0
    6.9260  -51.5920   11.6600 C   0  0  0  0  0  0  0  0  0  0  0  0
    6.1370  -52.1600   12.4490 O   0  0  0  0  0  0  0  0  0  0  0  0
    5.6580  -49.5240   10.9070 C   0  0  0  0  0  0  0  0  0  0  0  0
    5.3050  -48.0990   11.4130 C   0  0  0  0  0  0  0  0  0  0  0  0
    5.0040  -47.9900   13.2250 S   0  0  0  0  0  0  0  0  0  0  0  0
    3.3970  -48.6100   13.1640 C   0  0  0  0  0  0  0  0  0  0  0  0
    7.7960  -52.2510   10.8900 N   0  0  0  0  0  0  0  0  0  0  0  0
    7.9210  -53.7190   11.0900 C   0  0  2  0  0  0  0  0  0  0  0  0
    8.4260  -53.9650   12.5440 C   0  0  0  0  0  0  0  0  0  0  0  0
    8.2020  -55.0590   13.0850 O   0  0  0  0  0  0  0  0  0  0  0  0
    8.9820  -54.2880   10.2040 C   0  0  0  0  0  0  0  0  0  0  0  0
    8.5810  -54.2840    8.7060 C   0  0  0  0  0  0  0  0  0  0  0  0
    7.3600  -54.1120    8.4320 O   0  5  0  0  0  0  0  0  0  0  0  0
    9.4940  -54.4820    7.8720 O   0  0  0  0  0  0  0  0  0  0  0  0
    9.3541  -52.1714   12.6374 H   0  0  0  0  0  0  0  0  0  0  0  0
    9.3686  -54.1392   14.8734 H   0  0  0  0  0  0  0  0  0  0  0  0
   11.3215  -52.8230   15.7091 H   0  0  0  0  0  0  0  0  0  0  0  0
   11.1933  -51.7558   14.2700 H   0  0  0  0  0  0  0  0  0  0  0  0
   12.6863  -53.4908   13.9713 H   0  0  0  0  0  0  0  0  0  0  0  0
    7.3453  -52.0263   14.0909 H   0  0  0  0  0  0  0  0  0  0  0  0
    5.9540  -50.5002   14.8909 H   0  0  0  0  0  0  0  0  0  0  0  0
    5.2964  -50.6588   17.3334 H   0  0  0  0  0  0  0  0  0  0  0  0
    6.6183  -51.8524   17.5671 H   0  0  0  0  0  0  0  0  0  0  0  0
    5.4864  -53.4027   15.9852 H   0  0  0  0  0  0  0  0  0  0  0  0
    3.5804  -54.0111   17.4615 H   0  0  0  0  0  0  0  0  0  0  0  0
    3.7083  -52.4109   18.2676 H   0  0  0  0  0  0  0  0  0  0  0  0
    5.0548  -53.5927   18.3985 H   0  0  0  0  0  0  0  0  0  0  0  0
    4.2047  -51.7568   14.6053 H   0  0  0  0  0  0  0  0  0  0  0  0
    3.1397  -51.4229   16.0127 H   0  0  0  0  0  0  0  0  0  0  0  0
    3.1511  -53.0549   15.2622 H   0  0  0  0  0  0  0  0  0  0  0  0
    8.5338  -49.4614   14.4576 H   0  0  0  0  0  0  0  0  0  0  0  0
    8.6838  -47.2536   16.4918 H   0  0  0  0  0  0  0  0  0  0  0  0
   10.9295  -46.8564   15.6287 H   0  0  0  0  0  0  0  0  0  0  0  0
   10.7152  -48.1459   14.3966 H   0  0  0  0  0  0  0  0  0  0  0  0
   12.0385  -49.0339   16.2588 H   0  0  0  0  0  0  0  0  0  0  0  0
   10.4223  -49.8179   16.2615 H   0  0  0  0  0  0  0  0  0  0  0  0
    9.6742  -48.3912   18.0661 H   0  0  0  0  0  0  0  0  0  0  0  0
   11.1943  -47.4366   17.9959 H   0  0  0  0  0  0  0  0  0  0  0  0
   12.5421  -49.3377   18.7810 H   0  0  0  0  0  0  0  0  0  0  0  0
   11.2092  -50.5036   18.4796 H   0  0  0  0  0  0  0  0  0  0  0  0
   11.3197  -49.8438   20.7920 H   0  0  0  0  0  0  0  0  0  0  0  0
    9.9104  -49.3263   20.1171 H   0  0  0  0  0  0  0  0  0  0  0  0
   11.1318  -48.2579   20.3933 H   0  0  0  0  0  0  0  0  0  0  0  0
    8.8890  -45.0883   15.4769 H   0  0  0  0  0  0  0  0  0  0  0  0
    6.9842  -44.8179   13.3552 H   0  0  0  0  0  0  0  0  0  0  0  0
    9.0296  -42.8334   14.5223 H   0  0  0  0  0  0  0  0  0  0  0  0
    7.1569  -42.0117   15.8900 H   0  0  0  0  0  0  0  0  0  0  0  0
    7.3512  -43.7784   16.1503 H   0  0  0  0  0  0  0  0  0  0  0  0
    8.2279  -42.0835   12.2727 H   0  0  0  0  0  0  0  0  0  0  0  0
    7.5972  -41.0323   13.5855 H   0  0  0  0  0  0  0  0  0  0  0  0
    6.5284  -42.2604   12.8265 H   0  0  0  0  0  0  0  0  0  0  0  0
    4.9011  -43.1527   16.0282 H   0  0  0  0  0  0  0  0  0  0  0  0
    5.3442  -44.2198   14.6528 H   0  0  0  0  0  0  0  0  0  0  0  0
    5.1499  -42.4531   14.3925 H   0  0  0  0  0  0  0  0  0  0  0  0
   10.4771  -44.9813   13.4346 H   0  0  0  0  0  0  0  0  0  0  0  0
   10.6183  -44.4564   10.5585 H   0  0  0  0  0  0  0  0  0  0  0  0
   12.3955  -43.3871   11.8335 H   0  0  0  0  0  0  0  0  0  0  0  0
   13.1229  -44.6936   10.8381 H   0  0  0  0  0  0  0  0  0  0  0  0
    9.6867  -47.1380   12.1292 H   0  0  0  0  0  0  0  0  0  0  0  0
   10.3420  -48.8932    9.9233 H   0  0  0  0  0  0  0  0  0  0  0  0
   11.7869  -49.4425   12.5846 H   0  0  0  0  0  0  0  0  0  0  0  0
   12.5772  -48.8949   11.0673 H   0  0  0  0  0  0  0  0  0  0  0  0
   13.2005  -52.4719   10.8407 H   0  0  0  0  0  0  0  0  0  0  0  0
   13.8427  -51.0040   11.4986 H   0  0  0  0  0  0  0  0  0  0  0  0
    8.0975  -49.1569   10.0043 H   0  0  0  0  0  0  0  0  0  0  0  0
    6.9154  -49.6614   12.6100 H   0  0  0  0  0  0  0  0  0  0  0  0
    4.8236  -50.2037   11.1346 H   0  0  0  0  0  0  0  0  0  0  0  0
    5.8173  -49.4904    9.8191 H   0  0  0  0  0  0  0  0  0  0  0  0
    4.3957  -47.7642   10.8923 H   0  0  0  0  0  0  0  0  0  0  0  0
    6.1396  -47.4279   11.1618 H   0  0  0  0  0  0  0  0  0  0  0  0
    2.9783  -48.6440   14.1806 H   0  0  0  0  0  0  0  0  0  0  0  0
    3.4113  -49.6246   12.7392 H   0  0  0  0  0  0  0  0  0  0  0  0
    2.7758  -47.9571   12.5333 H   0  0  0  0  0  0  0  0  0  0  0  0
    8.3441  -51.7738   10.2031 H   0  0  0  0  0  0  0  0  0  0  0  0
    6.9545  -54.2128   10.9107 H   0  0  0  0  0  0  0  0  0  0  0  0
    9.1781  -55.3255   10.5124 H   0  0  0  0  0  0  0  0  0  0  0  0
    9.8977  -53.6905   10.3241 H   0  0  0  0  0  0  0  0  0  0  0  0
  1  2  1  0  0  0  0
  1 58  1  0  0  0  0
  1 64  1  0  0  0  0
  2  3  1  0  0  0  0
  2  5  1  0  0  0  0
  2 65  1  1  0  0  0
  3  4  2  0  0  0  0
  3  7  1  0  0  0  0
  5  6  1  0  0  0  0
  5 66  1  0  0  0  0
  5 67  1  0  0  0  0
  6 68  1  0  0  0  0
  7  8  1  0  0  0  0
  7 69  1  0  0  0  0
  8  9  1  0  0  0  0
  8 11  1  0  0  0  0
  8 70  1  6  0  0  0
  9 10  2  0  0  0  0
  9 15  1  0  0  0  0
 11 12  1  0  0  0  0
 11 71  1  0  0  0  0
 11 72  1  0  0  0  0
 12 13  1  0  0  0  0
 12 14  1  0  0  0  0
 12 73  1  0  0  0  0
 13 74  1  0  0  0  0
 13 75  1  0  0  0  0
 13 76  1  0  0  0  0
 14 77  1  0  0  0  0
 14 78  1  0  0  0  0
 14 79  1  0  0  0  0
 15 16  1  0  0  0  0
 15 80  1  0  0  0  0
 16 17  1  0  0  0  0
 16 19  1  0  0  0  0
 16 81  1  1  0  0  0
 17 18  2  0  0  0  0
 17 24  1  0  0  0  0
 19 20  1  0  0  0  0
 19 82  1  0  0  0  0
 19 83  1  0  0  0  0
 20 21  1  0  0  0  0
 20 84  1  0  0  0  0
 20 85  1  0  0  0  0
 21 22  1  0  0  0  0
 21 86  1  0  0  0  0
 21 87  1  0  0  0  0
 22 23  1  0  0  0  0
 22 88  1  0  0  0  0
 22 89  1  0  0  0  0
 23 90  1  0  0  0  0
 23 91  1  0  0  0  0
 23 92  1  0  0  0  0
 24 25  1  0  0  0  0
 24 93  1  0  0  0  0
 25 26  1  0  0  0  0
 25 28  1  0  0  0  0
 25 94  1  6  0  0  0
 26 27  2  0  0  0  0
 26 32  1  0  0  0  0
 28 29  1  0  0  0  0
 28 30  1  0  0  0  0
 28 95  1  1  0  0  0
 29 31  1  0  0  0  0
 29 96  1  0  0  0  0
 29 97  1  0  0  0  0
 30 98  1  0  0  0  0
 30 99  1  0  0  0  0
 30100  1  0  0  0  0
 31101  1  0  0  0  0
 31102  1  0  0  0  0
 31103  1  0  0  0  0
 32 33  1  0  0  0  0
 32104  1  0  0  0  0
 33 34  1  0  0  0  0
 33 36  1  0  0  0  0
 33105  1  6  0  0  0
 34 35  2  0  0  0  0
 34 40  1  0  0  0  0
 36 37  1  0  0  0  0
 36106  1  0  0  0  0
 36107  1  0  0  0  0
 37 38  1  0  0  0  0
 37 39  2  0  0  0  0
 40 41  1  0  0  0  0
 40108  1  0  0  0  0
 41 42  1  0  0  0  0
 41 44  1  0  0  0  0
 41109  1  6  0  0  0
 42 43  2  0  0  0  0
 42 48  1  0  0  0  0
 44 45  1  0  0  0  0
 44110  1  0  0  0  0
 44111  1  0  0  0  0
 45 46  2  0  0  0  0
 45 47  1  0  0  0  0
 47112  1  0  0  0  0
 47113  1  0  0  0  0
 48 49  1  0  0  0  0
 48114  1  0  0  0  0
 49 50  1  0  0  0  0
 49 52  1  0  0  0  0
 49115  1  1  0  0  0
 50 51  2  0  0  0  0
 50 56  1  0  0  0  0
 52 53  1  0  0  0  0
 52116  1  0  0  0  0
 52117  1  0  0  0  0
 53 54  1  0  0  0  0
 53118  1  0  0  0  0
 53119  1  0  0  0  0
 54 55  1  0  0  0  0
 55120  1  0  0  0  0
 55121  1  0  0  0  0
 55122  1  0  0  0  0
 56 57  1  0  0  0  0
 56123  1  0  0  0  0
 57 58  1  0  0  0  0
 57 60  1  0  0  0  0
 57124  1  6  0  0  0
 58 59  2  0  0  0  0
 60 61  1  0  0  0  0
 60125  1  0  0  0  0
 60126  1  0  0  0  0
 61 62  1  0  0  0  0
 61 63  2  0  0  0  0
M  CHG  3  23   1  38  -1  62  -1
M  END
