3aw0_ligand
 OpenBabel08222323343D

 80 80  0  0  1  0  0  0  0  0999 V2000
  -27.3610  -30.1340    5.7140 C   0  0  0  0  0  0  0  0  0  0  0  0
  -27.2580  -30.1760    6.9490 O   0  0  0  0  0  0  0  0  0  0  0  0
  -27.5350  -28.8320    4.9450 C   0  0  0  0  0  0  0  0  0  0  0  0
  -27.5090  -31.2680    5.0110 N   0  0  0  0  0  0  0  0  0  0  0  0
  -27.4930  -32.6210    5.5990 C   0  0  2  0  0  0  0  0  0  0  0  0
  -26.1150  -33.3010    5.5080 C   0  0  0  0  0  0  0  0  0  0  0  0
  -25.3150  -33.0490    4.5900 O   0  0  0  0  0  0  0  0  0  0  0  0
  -28.5570  -33.5370    4.9270 C   0  0  0  0  0  0  0  0  0  0  0  0
  -29.8800  -33.2670    5.3760 O   0  0  0  0  0  0  0  0  0  0  0  0
  -25.8580  -34.1830    6.4670 N   0  0  0  0  0  0  0  0  0  0  0  0
  -24.8080  -35.1900    6.3170 C   0  0  2  0  0  0  0  0  0  0  0  0
  -25.2010  -36.1950    5.2090 C   0  0  0  0  0  0  0  0  0  0  0  0
  -26.3970  -36.3810    4.9220 O   0  0  0  0  0  0  0  0  0  0  0  0
  -24.5810  -35.8930    7.6300 C   0  0  0  0  0  0  0  0  0  0  0  0
  -24.2020  -36.8140    4.5770 N   0  0  0  0  0  0  0  0  0  0  0  0
  -24.4390  -37.8110    3.5290 C   0  0  2  0  0  0  0  0  0  0  0  0
  -23.6720  -39.0880    3.8930 C   0  0  0  0  0  0  0  0  0  0  0  0
  -22.4500  -39.1000    3.9890 O   0  0  0  0  0  0  0  0  0  0  0  0
  -24.0740  -37.2800    2.0710 C   0  0  0  0  0  0  0  0  0  0  0  0
  -24.0590  -38.4200    1.0050 C   0  0  0  0  0  0  0  0  0  0  0  0
  -25.0050  -36.1150    1.6370 C   0  0  0  0  0  0  0  0  0  0  0  0
  -24.4030  -40.1790    4.0930 N   0  0  0  0  0  0  0  0  0  0  0  0
  -23.7730  -41.4540    4.4180 C   0  0  2  0  0  0  0  0  0  0  0  0
  -23.2920  -42.1570    3.1510 C   0  0  0  0  0  0  0  0  0  0  0  0
  -24.1020  -42.5780    2.3260 O   0  0  0  0  0  0  0  0  0  0  0  0
  -24.7450  -42.3540    5.1830 C   0  0  0  0  0  0  0  0  0  0  0  0
  -25.3030  -41.7890    6.4910 C   0  0  0  0  0  0  0  0  0  0  0  0
  -26.1440  -42.8320    7.2120 C   0  0  0  0  0  0  0  0  0  0  0  0
  -24.1780  -41.2900    7.3850 C   0  0  0  0  0  0  0  0  0  0  0  0
  -21.9760  -42.2830    2.9950 N   0  0  0  0  0  0  0  0  0  0  0  0
  -21.4250  -42.9160    1.7940 C   0  0  1  0  0  0  0  0  0  0  0  0
  -19.9510  -42.5330    1.6080 C   0  0  0  0  0  0  0  0  0  0  0  0
  -19.7420  -41.1060    1.1920 C   0  0  0  0  0  0  0  0  0  0  0  0
  -18.8110  -40.2850    1.7870 N   0  0  0  0  0  0  0  0  0  0  0  0
  -20.3290  -40.3620    0.2230 C   0  0  0  0  0  0  0  0  0  0  0  0
  -18.8240  -39.1030    1.1990 C   0  0  0  0  0  0  0  0  0  0  0  0
  -19.7380  -39.1220    0.2480 N   0  0  0  0  0  0  0  0  0  0  0  0
  -21.6850  -44.4520    1.8610 C   0  0  0  0  0  0  0  0  0  0  0  0
  -20.8920  -45.2900    1.4270 O   0  5  0  0  0  0  0  0  0  0  0  0
  -22.7577  -44.8562    2.3841 O   0  0  0  0  0  0  0  0  0  0  0  0
  -27.6030  -29.0482    3.8686 H   0  0  0  0  0  0  0  0  0  0  0  0
  -26.6719  -28.1766    5.1335 H   0  0  0  0  0  0  0  0  0  0  0  0
  -28.4559  -28.3303    5.2770 H   0  0  0  0  0  0  0  0  0  0  0  0
  -27.6388  -31.1905    4.0225 H   0  0  0  0  0  0  0  0  0  0  0  0
  -27.7493  -32.5205    6.6640 H   0  0  0  0  0  0  0  0  0  0  0  0
  -28.3147  -34.5849    5.1577 H   0  0  0  0  0  0  0  0  0  0  0  0
  -28.5169  -33.3823    3.8387 H   0  0  0  0  0  0  0  0  0  0  0  0
  -30.4875  -33.8507    4.9370 H   0  0  0  0  0  0  0  0  0  0  0  0
  -26.3944  -34.1581    7.3106 H   0  0  0  0  0  0  0  0  0  0  0  0
  -23.8745  -34.6889    6.0215 H   0  0  0  0  0  0  0  0  0  0  0  0
  -23.7905  -36.6484    7.5096 H   0  0  0  0  0  0  0  0  0  0  0  0
  -25.5121  -36.3843    7.9487 H   0  0  0  0  0  0  0  0  0  0  0  0
  -24.2745  -35.1596    8.3904 H   0  0  0  0  0  0  0  0  0  0  0  0
  -23.2599  -36.5902    4.8268 H   0  0  0  0  0  0  0  0  0  0  0  0
  -25.5129  -38.0490    3.5267 H   0  0  0  0  0  0  0  0  0  0  0  0
  -23.0521  -36.8763    2.1240 H   0  0  0  0  0  0  0  0  0  0  0  0
  -23.8025  -37.9991    0.0216 H   0  0  0  0  0  0  0  0  0  0  0  0
  -25.0529  -38.8886    0.9552 H   0  0  0  0  0  0  0  0  0  0  0  0
  -23.3110  -39.1757    1.2868 H   0  0  0  0  0  0  0  0  0  0  0  0
  -24.9935  -35.3300    2.4075 H   0  0  0  0  0  0  0  0  0  0  0  0
  -26.0309  -36.4921    1.5131 H   0  0  0  0  0  0  0  0  0  0  0  0
  -24.6500  -35.6978    0.6831 H   0  0  0  0  0  0  0  0  0  0  0  0
  -25.3989  -40.1256    4.0198 H   0  0  0  0  0  0  0  0  0  0  0  0
  -22.9014  -41.2569    5.0595 H   0  0  0  0  0  0  0  0  0  0  0  0
  -24.2194  -43.2909    5.4195 H   0  0  0  0  0  0  0  0  0  0  0  0
  -25.5962  -42.5684    4.5201 H   0  0  0  0  0  0  0  0  0  0  0  0
  -25.9514  -40.9347    6.2469 H   0  0  0  0  0  0  0  0  0  0  0  0
  -26.5343  -42.4053    8.1477 H   0  0  0  0  0  0  0  0  0  0  0  0
  -25.5223  -43.7101    7.4408 H   0  0  0  0  0  0  0  0  0  0  0  0
  -26.9835  -43.1346    6.5688 H   0  0  0  0  0  0  0  0  0  0  0  0
  -23.5850  -40.5385    6.8432 H   0  0  0  0  0  0  0  0  0  0  0  0
  -23.5312  -42.1341    7.6662 H   0  0  0  0  0  0  0  0  0  0  0  0
  -24.6041  -40.8365    8.2920 H   0  0  0  0  0  0  0  0  0  0  0  0
  -21.3581  -41.9426    3.7037 H   0  0  0  0  0  0  0  0  0  0  0  0
  -21.9719  -42.5282    0.9219 H   0  0  0  0  0  0  0  0  0  0  0  0
  -19.5181  -43.1859    0.8358 H   0  0  0  0  0  0  0  0  0  0  0  0
  -19.4276  -42.6961    2.5617 H   0  0  0  0  0  0  0  0  0  0  0  0
  -21.1213  -40.6866   -0.4499 H   0  0  0  0  0  0  0  0  0  0  0  0
  -18.1885  -38.2566    1.4554 H   0  0  0  0  0  0  0  0  0  0  0  0
  -19.9707  -38.3351   -0.3746 H   0  0  0  0  0  0  0  0  0  0  0  0
  1  2  2  0  0  0  0
  1  3  1  0  0  0  0
  1  4  1  0  0  0  0
  3 41  1  0  0  0  0
  3 42  1  0  0  0  0
  3 43  1  0  0  0  0
  4  5  1  0  0  0  0
  4 44  1  0  0  0  0
  5  6  1  0  0  0  0
  5  8  1  0  0  0  0
  5 45  1  1  0  0  0
  6  7  2  0  0  0  0
  6 10  1  0  0  0  0
  8  9  1  0  0  0  0
  8 46  1  0  0  0  0
  8 47  1  0  0  0  0
  9 48  1  0  0  0  0
 10 11  1  0  0  0  0
 10 49  1  0  0  0  0
 11 12  1  0  0  0  0
 11 14  1  0  0  0  0
 11 50  1  6  0  0  0
 12 13  2  0  0  0  0
 12 15  1  0  0  0  0
 14 51  1  0  0  0  0
 14 52  1  0  0  0  0
 14 53  1  0  0  0  0
 15 16  1  0  0  0  0
 15 54  1  0  0  0  0
 16 17  1  0  0  0  0
 16 19  1  0  0  0  0
 16 55  1  1  0  0  0
 17 18  2  0  0  0  0
 17 22  1  0  0  0  0
 19 20  1  0  0  0  0
 19 21  1  0  0  0  0
 19 56  1  0  0  0  0
 20 57  1  0  0  0  0
 20 58  1  0  0  0  0
 20 59  1  0  0  0  0
 21 60  1  0  0  0  0
 21 61  1  0  0  0  0
 21 62  1  0  0  0  0
 22 23  1  0  0  0  0
 22 63  1  0  0  0  0
 23 24  1  0  0  0  0
 23 26  1  0  0  0  0
 23 64  1  1  0  0  0
 24 25  2  0  0  0  0
 24 30  1  0  0  0  0
 26 27  1  0  0  0  0
 26 65  1  0  0  0  0
 26 66  1  0  0  0  0
 27 28  1  0  0  0  0
 27 29  1  0  0  0  0
 27 67  1  0  0  0  0
 28 68  1  0  0  0  0
 28 69  1  0  0  0  0
 28 70  1  0  0  0  0
 29 71  1  0  0  0  0
 29 72  1  0  0  0  0
 29 73  1  0  0  0  0
 30 31  1  0  0  0  0
 30 74  1  0  0  0  0
 31 32  1  0  0  0  0
 31 38  1  0  0  0  0
 31 75  1  6  0  0  0
 32 33  1  0  0  0  0
 32 76  1  0  0  0  0
 32 77  1  0  0  0  0
 33 34  1  0  0  0  0
 33 35  2  0  0  0  0
 34 36  2  0  0  0  0
 35 37  1  0  0  0  0
 35 78  1  0  0  0  0
 36 37  1  0  0  0  0
 36 79  1  0  0  0  0
 37 80  1  0  0  0  0
 38 39  1  0  0  0  0
 38 40  2  0  0  0  0
M  CHG  1  39  -1
M  END
