3b0w_ligand
 OpenBabel08222323343D

119126  0  0  1  0  0  0  0  0999 V2000
   25.4880   18.9970   -1.4820 C   0  0  0  0  0  0  0  0  0  0  0  0
   25.5040   19.4360   -2.9610 C   0  0  0  0  0  0  0  0  0  0  0  0
   26.5860   20.4940   -3.2030 C   0  0  2  0  0  0  0  0  0  0  0  0
   27.8720   19.9200   -2.9540 O   0  0  0  0  0  0  0  0  0  0  0  0
   26.3410   21.6990   -2.2700 C   0  0  0  0  0  0  0  0  0  0  0  0
   26.2840   21.3090   -0.7680 C   0  0  1  0  0  0  0  0  0  0  0  0
   25.9780   22.5680    0.0850 C   0  0  0  0  0  0  0  0  0  0  0  0
   24.5330   23.0700   -0.1130 C   0  0  0  0  0  0  0  0  0  0  0  0
   23.5000   21.9500    0.1490 C   0  0  2  0  0  0  0  0  0  0  0  0
   23.8060   20.7110   -0.7390 C   0  0  1  0  0  0  0  0  0  0  0  0
   25.2380   20.1850   -0.5190 C   0  0  1  0  0  0  0  0  0  0  0  0
   22.7430   19.5850   -0.5680 C   0  0  0  0  0  0  0  0  0  0  0  0
   21.3630   20.1500   -0.9110 C   0  0  1  0  0  0  0  0  0  0  0  0
   20.3770   19.1090   -0.8930 O   0  0  0  0  0  0  0  0  0  0  0  0
   20.9740   21.3030    0.0600 C   0  0  1  0  0  0  0  0  0  0  0  0
   22.0460   22.4370    0.0000 C   0  0  1  0  0  0  0  0  0  0  0  0
   21.8000   23.4240    1.0060 O   0  0  0  0  0  0  0  0  0  0  0  0
   21.7390   23.1450   -1.3380 C   0  0  0  0  0  0  0  0  0  0  0  0
   20.2000   23.1850   -1.3860 C   0  0  0  0  0  0  0  0  0  0  0  0
   19.7020   21.9640   -0.5630 C   0  0  2  0  0  0  0  0  0  0  0  0
   20.7700   20.7700    1.4860 C   0  0  0  0  0  0  0  0  0  0  0  0
   25.4200   19.6170    0.9020 C   0  0  0  0  0  0  0  0  0  0  0  0
   29.0030   20.6740   -3.4180 C   0  0  1  0  0  0  0  0  0  0  0  0
   33.5800   21.3390   -6.0770 C   0  0  2  0  0  0  0  0  0  0  0  0
   38.6700   19.7950   -6.4360 C   0  0  2  0  0  0  0  0  0  0  0  0
   18.6120   22.4290    0.3850 C   0  0  0  0  0  0  0  0  0  0  0  0
   17.3070   21.7190    0.7130 C   0  0  0  0  0  0  0  0  0  0  0  0
   16.5270   22.6590    1.5240 O   0  0  0  0  0  0  0  0  0  0  0  0
   18.5810   23.5790    1.0500 C   0  0  0  0  0  0  0  0  0  0  0  0
   17.3360   23.6900    1.8140 C   0  0  0  0  0  0  0  0  0  0  0  0
   17.0770   24.6100    2.5750 O   0  0  0  0  0  0  0  0  0  0  0  0
   30.2800   20.0070   -2.9150 C   0  0  0  0  0  0  0  0  0  0  0  0
   34.7390   22.3430   -6.0050 C   0  0  0  0  0  0  0  0  0  0  0  0
   39.7060   19.9740   -7.5620 C   0  0  0  0  0  0  0  0  0  0  0  0
   31.5360   20.6690   -3.5170 C   0  0  2  0  0  0  0  0  0  0  0  0
   31.7640   21.9650   -2.9650 O   0  0  0  0  0  0  0  0  0  0  0  0
   35.9100   21.7880   -6.8320 C   0  0  2  0  0  0  0  0  0  0  0  0
   35.5200   21.7590   -8.2110 O   0  0  0  0  0  0  0  0  0  0  0  0
   41.0840   20.3500   -6.9960 C   0  0  2  0  0  0  0  0  0  0  0  0
   41.6030   19.2410   -6.2510 O   0  0  0  0  0  0  0  0  0  0  0  0
   31.4530   20.8750   -5.0360 C   0  0  2  0  0  0  0  0  0  0  0  0
   32.4560   21.8480   -5.3540 O   0  0  0  0  0  0  0  0  0  0  0  0
   36.2950   20.3810   -6.3110 C   0  0  2  0  0  0  0  0  0  0  0  0
   37.3750   19.8050   -7.0690 O   0  0  0  0  0  0  0  0  0  0  0  0
   40.9640   21.5980   -6.0970 C   0  0  2  0  0  0  0  0  0  0  0  0
   42.2570   22.0020   -5.6170 O   0  0  0  0  0  0  0  0  0  0  0  0
   30.0950   21.4760   -5.4320 C   0  0  2  0  0  0  0  0  0  0  0  0
   29.0370   20.7100   -4.8550 O   0  0  0  0  0  0  0  0  0  0  0  0
   35.0560   19.4650   -6.3170 C   0  0  2  0  0  0  0  0  0  0  0  0
   34.0280   20.0940   -5.5340 O   0  0  0  0  0  0  0  0  0  0  0  0
   40.0170   21.2840   -4.9220 C   0  0  2  0  0  0  0  0  0  0  0  0
   38.7440   20.8280   -5.4180 O   0  0  0  0  0  0  0  0  0  0  0  0
   29.9510   21.5050   -6.9540 C   0  0  0  0  0  0  0  0  0  0  0  0
   35.4000   18.0940   -5.7270 C   0  0  0  0  0  0  0  0  0  0  0  0
   39.8100   22.5490   -4.0750 C   0  0  0  0  0  0  0  0  0  0  0  0
   26.4590   18.5417   -1.2375 H   0  0  0  0  0  0  0  0  0  0  0  0
   24.6890   18.2540   -1.3421 H   0  0  0  0  0  0  0  0  0  0  0  0
   24.5224   19.8578   -3.2226 H   0  0  0  0  0  0  0  0  0  0  0  0
   25.7077   18.5604   -3.5949 H   0  0  0  0  0  0  0  0  0  0  0  0
   26.5383   20.8323   -4.2486 H   0  0  0  0  0  0  0  0  0  0  0  0
   25.3842   22.1661   -2.5463 H   0  0  0  0  0  0  0  0  0  0  0  0
   27.1570   22.4228   -2.4123 H   0  0  0  0  0  0  0  0  0  0  0  0
   27.2714   20.9245   -0.4729 H   0  0  0  0  0  0  0  0  0  0  0  0
   26.6739   23.3693   -0.2041 H   0  0  0  0  0  0  0  0  0  0  0  0
   26.1244   22.3205    1.1467 H   0  0  0  0  0  0  0  0  0  0  0  0
   24.4177   23.4270   -1.1470 H   0  0  0  0  0  0  0  0  0  0  0  0
   24.3446   23.8995    0.5845 H   0  0  0  0  0  0  0  0  0  0  0  0
   23.6221   21.6361    1.1961 H   0  0  0  0  0  0  0  0  0  0  0  0
   23.7469   21.0475   -1.7846 H   0  0  0  0  0  0  0  0  0  0  0  0
   22.7475   19.2278    0.4724 H   0  0  0  0  0  0  0  0  0  0  0  0
   22.9782   18.7494   -1.2436 H   0  0  0  0  0  0  0  0  0  0  0  0
   21.4060   20.5631   -1.9295 H   0  0  0  0  0  0  0  0  0  0  0  0
   20.3455   18.7191   -0.0272 H   0  0  0  0  0  0  0  0  0  0  0  0
   22.4626   24.1025    0.9511 H   0  0  0  0  0  0  0  0  0  0  0  0
   22.1430   22.5728   -2.1862 H   0  0  0  0  0  0  0  0  0  0  0  0
   22.1582   24.1619   -1.3488 H   0  0  0  0  0  0  0  0  0  0  0  0
   19.8500   23.1106   -2.4262 H   0  0  0  0  0  0  0  0  0  0  0  0
   19.8299   24.1202   -0.9405 H   0  0  0  0  0  0  0  0  0  0  0  0
   19.2464   21.2285   -1.2423 H   0  0  0  0  0  0  0  0  0  0  0  0
   21.7078   20.3234    1.8481 H   0  0  0  0  0  0  0  0  0  0  0  0
   19.9779   20.0068    1.4824 H   0  0  0  0  0  0  0  0  0  0  0  0
   20.4784   21.5981    2.1488 H   0  0  0  0  0  0  0  0  0  0  0  0
   26.4508   19.2522    1.0218 H   0  0  0  0  0  0  0  0  0  0  0  0
   24.7166   18.7858    1.0575 H   0  0  0  0  0  0  0  0  0  0  0  0
   25.2226   20.4075    1.6410 H   0  0  0  0  0  0  0  0  0  0  0  0
   28.9413   21.7009   -3.0285 H   0  0  0  0  0  0  0  0  0  0  0  0
   33.2892   21.1900   -7.1273 H   0  0  0  0  0  0  0  0  0  0  0  0
   38.8347   18.8220   -5.9501 H   0  0  0  0  0  0  0  0  0  0  0  0
   17.5054   20.7980    1.2808 H   0  0  0  0  0  0  0  0  0  0  0  0
   16.7646   21.4704   -0.2111 H   0  0  0  0  0  0  0  0  0  0  0  0
   19.3683   24.3312    1.0299 H   0  0  0  0  0  0  0  0  0  0  0  0
   30.2646   18.9445   -3.1992 H   0  0  0  0  0  0  0  0  0  0  0  0
   30.3208   20.0929   -1.8191 H   0  0  0  0  0  0  0  0  0  0  0  0
   35.0522   22.4753   -4.9589 H   0  0  0  0  0  0  0  0  0  0  0  0
   34.4186   23.3113   -6.4171 H   0  0  0  0  0  0  0  0  0  0  0  0
   39.3662   20.7722   -8.2384 H   0  0  0  0  0  0  0  0  0  0  0  0
   39.7935   19.0313   -8.1220 H   0  0  0  0  0  0  0  0  0  0  0  0
   32.3964   20.0217   -3.2919 H   0  0  0  0  0  0  0  0  0  0  0  0
   32.5428   22.3424   -3.3569 H   0  0  0  0  0  0  0  0  0  0  0  0
   36.7794   22.4529   -6.7226 H   0  0  0  0  0  0  0  0  0  0  0  0
   36.2357   21.4175   -8.7342 H   0  0  0  0  0  0  0  0  0  0  0  0
   41.7672   20.5752   -7.8282 H   0  0  0  0  0  0  0  0  0  0  0  0
   42.4554   19.4687   -5.8988 H   0  0  0  0  0  0  0  0  0  0  0  0
   31.6257   19.9281   -5.5686 H   0  0  0  0  0  0  0  0  0  0  0  0
   36.6364   20.4863   -5.2707 H   0  0  0  0  0  0  0  0  0  0  0  0
   40.5367   22.4221   -6.6871 H   0  0  0  0  0  0  0  0  0  0  0  0
   42.6416   21.2947   -5.1127 H   0  0  0  0  0  0  0  0  0  0  0  0
   30.0378   22.5062   -5.0506 H   0  0  0  0  0  0  0  0  0  0  0  0
   34.7028   19.3335   -7.3504 H   0  0  0  0  0  0  0  0  0  0  0  0
   40.4650   20.4971   -4.2975 H   0  0  0  0  0  0  0  0  0  0  0  0
   28.9755   21.9371   -7.2218 H   0  0  0  0  0  0  0  0  0  0  0  0
   30.0188   20.4804   -7.3483 H   0  0  0  0  0  0  0  0  0  0  0  0
   30.7550   22.1184   -7.3868 H   0  0  0  0  0  0  0  0  0  0  0  0
   34.5051   17.4545   -5.7394 H   0  0  0  0  0  0  0  0  0  0  0  0
   35.7480   18.2175   -4.6909 H   0  0  0  0  0  0  0  0  0  0  0  0
   36.1938   17.6253   -6.3271 H   0  0  0  0  0  0  0  0  0  0  0  0
   39.1340   22.3227   -3.2372 H   0  0  0  0  0  0  0  0  0  0  0  0
   39.3684   23.3399   -4.6990 H   0  0  0  0  0  0  0  0  0  0  0  0
   40.7792   22.8900   -3.6822 H   0  0  0  0  0  0  0  0  0  0  0  0
  1 11  1  0  0  0  0
  1 56  1  0  0  0  0
  1 57  1  0  0  0  0
  2  1  1  0  0  0  0
  2 58  1  0  0  0  0
  2 59  1  0  0  0  0
  3  2  1  0  0  0  0
  3  5  1  0  0  0  0
  3 60  1  6  0  0  0
  4  3  1  0  0  0  0
  5  6  1  0  0  0  0
  5 61  1  0  0  0  0
  5 62  1  0  0  0  0
  6  7  1  0  0  0  0
  6 11  1  0  0  0  0
  6 63  1  1  0  0  0
  7  8  1  0  0  0  0
  7 64  1  0  0  0  0
  7 65  1  0  0  0  0
  8  9  1  0  0  0  0
  8 66  1  0  0  0  0
  8 67  1  0  0  0  0
  9 16  1  0  0  0  0
  9 68  1  1  0  0  0
 10  9  1  0  0  0  0
 10 12  1  0  0  0  0
 10 69  1  6  0  0  0
 11 10  1  0  0  0  0
 11 22  1  1  0  0  0
 12 13  1  0  0  0  0
 12 70  1  0  0  0  0
 12 71  1  0  0  0  0
 13 14  1  0  0  0  0
 13 15  1  0  0  0  0
 13 72  1  6  0  0  0
 14 73  1  0  0  0  0
 15 20  1  0  0  0  0
 15 21  1  1  0  0  0
 16 15  1  0  0  0  0
 16 17  1  1  0  0  0
 16 18  1  0  0  0  0
 17 74  1  0  0  0  0
 18 19  1  0  0  0  0
 18 75  1  0  0  0  0
 18 76  1  0  0  0  0
 19 77  1  0  0  0  0
 19 78  1  0  0  0  0
 20 19  1  0  0  0  0
 20 26  1  0  0  0  0
 20 79  1  6  0  0  0
 21 80  1  0  0  0  0
 21 81  1  0  0  0  0
 21 82  1  0  0  0  0
 22 83  1  0  0  0  0
 22 84  1  0  0  0  0
 22 85  1  0  0  0  0
 23  4  1  0  0  0  0
 23 48  1  0  0  0  0
 23 86  1  1  0  0  0
 24 42  1  0  0  0  0
 24 50  1  0  0  0  0
 24 87  1  6  0  0  0
 25 34  1  0  0  0  0
 25 52  1  0  0  0  0
 25 88  1  1  0  0  0
 26 27  1  0  0  0  0
 26 29  2  0  0  0  0
 27 28  1  0  0  0  0
 27 89  1  0  0  0  0
 27 90  1  0  0  0  0
 29 30  1  0  0  0  0
 29 91  1  0  0  0  0
 30 28  1  0  0  0  0
 30 31  2  0  0  0  0
 32 23  1  0  0  0  0
 32 92  1  0  0  0  0
 32 93  1  0  0  0  0
 33 24  1  0  0  0  0
 33 94  1  0  0  0  0
 33 95  1  0  0  0  0
 34 39  1  0  0  0  0
 34 96  1  0  0  0  0
 34 97  1  0  0  0  0
 35 32  1  0  0  0  0
 35 36  1  0  0  0  0
 35 98  1  1  0  0  0
 36 99  1  0  0  0  0
 37 33  1  0  0  0  0
 37 38  1  0  0  0  0
 37100  1  1  0  0  0
 38101  1  0  0  0  0
 39 40  1  0  0  0  0
 39 45  1  0  0  0  0
 39102  1  6  0  0  0
 40103  1  0  0  0  0
 41 35  1  0  0  0  0
 41 47  1  0  0  0  0
 41104  1  6  0  0  0
 42 41  1  0  0  0  0
 43 37  1  0  0  0  0
 43 44  1  0  0  0  0
 43 49  1  0  0  0  0
 43105  1  1  0  0  0
 44 25  1  0  0  0  0
 45 46  1  0  0  0  0
 45 51  1  0  0  0  0
 45106  1  6  0  0  0
 46107  1  0  0  0  0
 47 48  1  0  0  0  0
 47 53  1  0  0  0  0
 47108  1  1  0  0  0
 49 50  1  0  0  0  0
 49 54  1  0  0  0  0
 49109  1  6  0  0  0
 51 52  1  0  0  0  0
 51 55  1  0  0  0  0
 51110  1  1  0  0  0
 53111  1  0  0  0  0
 53112  1  0  0  0  0
 53113  1  0  0  0  0
 54114  1  0  0  0  0
 54115  1  0  0  0  0
 54116  1  0  0  0  0
 55117  1  0  0  0  0
 55118  1  0  0  0  0
 55119  1  0  0  0  0
M  END
