3b2t_ligand
 OpenBabel08222323343D

 42 44  0  0  1  0  0  0  0  0999 V2000
   26.8760  -22.2150  -31.7810 P   0  0  2  0  0  0  0  0  0  0  0  0
   27.1880  -20.8710  -31.2450 O   0  0  0  0  0  1  0  0  0  0  0  0
   27.2500  -23.4960  -31.1410 O   0  0  0  0  0  0  0  0  0  0  0  0
   26.5580  -22.3560  -33.5580 C   0  0  0  0  0  0  0  0  0  0  0  0
   24.7770  -22.6150  -29.9560 P   0  0  2  0  0  0  0  0  0  0  0  0
   23.6300  -21.7370  -29.6320 O   0  0  0  0  0  1  0  0  0  0  0  0
   25.9420  -22.6180  -29.0410 O   0  0  0  0  0  0  0  0  0  0  0  0
   25.3040  -22.2250  -31.4290 O   0  0  0  0  0  0  0  0  0  0  0  0
   24.2520  -24.1260  -30.1430 O   0  0  0  0  0  0  0  0  0  0  0  0
   25.1070  -25.2350  -29.8470 C   0  0  0  0  0  0  0  0  0  0  0  0
   24.4420  -26.5720  -30.1880 C   0  0  1  0  0  0  0  0  0  0  0  0
   23.1590  -26.6290  -29.5350 O   0  0  0  0  0  0  0  0  0  0  0  0
   24.1430  -26.6170  -31.6890 C   0  0  1  0  0  0  0  0  0  0  0  0
   23.9260  -27.9690  -32.1010 O   0  0  0  0  0  0  0  0  0  0  0  0
   22.8200  -25.8570  -31.7160 C   0  0  1  0  0  0  0  0  0  0  0  0
   22.1350  -26.1610  -32.9340 O   0  0  0  0  0  0  0  0  0  0  0  0
   22.1420  -26.5800  -30.5520 C   0  0  2  0  0  0  0  0  0  0  0  0
   20.9480  -25.8420  -30.0810 N   0  0  0  0  0  0  0  0  0  0  0  0
   20.9100  -24.5550  -29.7410 C   0  0  0  0  0  0  0  0  0  0  0  0
   19.6740  -24.2220  -29.3770 N   0  0  0  0  0  0  0  0  0  0  0  0
   18.9120  -25.3080  -29.4840 C   0  0  0  0  0  0  0  0  0  0  0  0
   17.5680  -25.5720  -29.2530 C   0  0  0  0  0  0  0  0  0  0  0  0
   16.7480  -24.6130  -28.8330 N   0  0  0  0  0  0  0  0  0  0  0  0
   17.1090  -26.8130  -29.4710 N   0  0  0  0  0  0  0  0  0  0  0  0
   17.9110  -27.7730  -29.8970 C   0  0  0  0  0  0  0  0  0  0  0  0
   19.1940  -27.5560  -30.1270 N   0  0  0  0  0  0  0  0  0  0  0  0
   19.7240  -26.3410  -29.9320 C   0  0  0  0  0  0  0  0  0  0  0  0
   27.5143  -22.3747  -34.1012 H   0  0  0  0  0  0  0  0  0  0  0  0
   25.9625  -21.4941  -33.8935 H   0  0  0  0  0  0  0  0  0  0  0  0
   26.0041  -23.2849  -33.7588 H   0  0  0  0  0  0  0  0  0  0  0  0
   25.3496  -25.2213  -28.7742 H   0  0  0  0  0  0  0  0  0  0  0  0
   26.0325  -25.1377  -30.4335 H   0  0  0  0  0  0  0  0  0  0  0  0
   25.0835  -27.4124  -29.8842 H   0  0  0  0  0  0  0  0  0  0  0  0
   24.9258  -26.1398  -32.2968 H   0  0  0  0  0  0  0  0  0  0  0  0
   23.7412  -27.9892  -33.0326 H   0  0  0  0  0  0  0  0  0  0  0  0
   22.9231  -24.7720  -31.5675 H   0  0  0  0  0  0  0  0  0  0  0  0
   21.9698  -27.0954  -32.9784 H   0  0  0  0  0  0  0  0  0  0  0  0
   21.8434  -27.5960  -30.8496 H   0  0  0  0  0  0  0  0  0  0  0  0
   21.7621  -23.8771  -29.7582 H   0  0  0  0  0  0  0  0  0  0  0  0
   15.7535  -24.8225  -28.6656 H   0  0  0  0  0  0  0  0  0  0  0  0
   17.1074  -23.6607  -28.6751 H   0  0  0  0  0  0  0  0  0  0  0  0
   17.5057  -28.7647  -30.0621 H   0  0  0  0  0  0  0  0  0  0  0  0
  1  2  1  1  0  0  0
  1  3  2  0  0  0  0
  1  4  1  0  0  0  0
  4 28  1  0  0  0  0
  4 29  1  0  0  0  0
  4 30  1  0  0  0  0
  5  6  1  1  0  0  0
  5  7  2  0  0  0  0
  5  8  1  0  0  0  0
  5  9  1  0  0  0  0
  8  1  1  0  0  0  0
  9 10  1  0  0  0  0
 10 11  1  0  0  0  0
 10 31  1  0  0  0  0
 10 32  1  0  0  0  0
 11 12  1  0  0  0  0
 11 13  1  0  0  0  0
 11 33  1  1  0  0  0
 12 17  1  0  0  0  0
 13 14  1  0  0  0  0
 13 15  1  0  0  0  0
 13 34  1  6  0  0  0
 14 35  1  0  0  0  0
 15 16  1  0  0  0  0
 15 17  1  0  0  0  0
 15 36  1  1  0  0  0
 16 37  1  0  0  0  0
 17 18  1  0  0  0  0
 17 38  1  6  0  0  0
 18 19  1  0  0  0  0
 18 27  1  0  0  0  0
 19 20  2  0  0  0  0
 19 39  1  0  0  0  0
 20 21  1  0  0  0  0
 21 22  2  0  0  0  0
 21 27  1  0  0  0  0
 22 23  1  0  0  0  0
 22 24  1  0  0  0  0
 23 40  1  0  0  0  0
 23 41  1  0  0  0  0
 24 25  2  0  0  0  0
 25 26  1  0  0  0  0
 25 42  1  0  0  0  0
 26 27  2  0  0  0  0
M  END
