3b82_ligand
 OpenBabel08222323343D

 70 74  0  0  1  0  0  0  0  0999 V2000
    3.9580   -5.2490   94.2850 P   0  0  2  0  0  0  0  0  0  0  0  0
    2.5650   -4.9230   94.7560 O   0  0  0  0  0  1  0  0  0  0  0  0
    4.9940   -5.7210   95.2780 O   0  0  0  0  0  0  0  0  0  0  0  0
    4.4890   -3.9060   93.5710 O   0  0  0  0  0  0  0  0  0  0  0  0
    3.5710   -3.1380   92.7910 C   0  0  0  0  0  0  0  0  0  0  0  0
    4.1130   -2.8040   91.3970 C   0  0  1  0  0  0  0  0  0  0  0  0
    4.5330   -1.4380   91.2540 O   0  0  0  0  0  0  0  0  0  0  0  0
    5.2810   -3.6720   90.9280 C   0  0  1  0  0  0  0  0  0  0  0  0
    4.8600   -4.5390   89.8700 O   0  0  0  0  0  0  0  0  0  0  0  0
    6.3220   -2.7030   90.3970 C   0  0  1  0  0  0  0  0  0  0  0  0
    6.8670   -3.1440   89.1500 O   0  0  0  0  0  0  0  0  0  0  0  0
    5.5300   -1.4170   90.2250 C   0  0  2  0  0  0  0  0  0  0  0  0
    6.3980   -0.2030   90.1650 N   0  0  0  0  0  0  0  0  0  0  0  0
    6.2540    0.7700   89.2510 C   0  0  0  0  0  0  0  0  0  0  0  0
    7.1820    1.7240   89.4620 N   0  0  0  0  0  0  0  0  0  0  0  0
    7.9150    1.3460   90.5240 C   0  0  0  0  0  0  0  0  0  0  0  0
    8.9870    1.9410   91.1680 C   0  0  0  0  0  0  0  0  0  0  0  0
    9.4650    3.1310   90.7250 N   0  0  0  0  0  0  0  0  0  0  0  0
    9.5340    1.3140   92.2310 N   0  0  0  0  0  0  0  0  0  0  0  0
    9.0440    0.1360   92.6520 C   0  0  0  0  0  0  0  0  0  0  0  0
    8.0040   -0.4600   92.0450 N   0  0  0  0  0  0  0  0  0  0  0  0
    7.4140    0.1320   90.9760 C   0  0  0  0  0  0  0  0  0  0  0  0
    3.8810   -6.3540   93.1180 O   0  0  0  0  0  0  0  0  0  0  0  0
    5.1470   -7.3030   92.8100 P   0  0  2  0  0  0  0  0  0  0  0  0
    6.4150   -6.5320   93.0850 O   0  0  0  0  0  1  0  0  0  0  0  0
    4.9560   -7.9470   91.4610 O   0  0  0  0  0  0  0  0  0  0  0  0
    4.9080   -8.4120   93.9520 O   0  0  0  0  0  0  0  0  0  0  0  0
    3.8250   -9.3250   93.7900 C   0  0  0  0  0  0  0  0  0  0  0  0
    4.1160  -10.6410   94.4940 C   0  0  1  0  0  0  0  0  0  0  0  0
    4.9140  -11.4380   93.6190 O   0  0  0  0  0  0  0  0  0  0  0  0
    4.8690  -10.4730   95.7950 C   0  0  1  0  0  0  0  0  0  0  0  0
    3.9750  -10.7210   96.8800 O   0  0  0  0  0  0  0  0  0  0  0  0
    5.9340  -11.5500   95.7230 C   0  0  1  0  0  0  0  0  0  0  0  0
    5.6450  -12.5580   96.6980 O   0  0  0  0  0  0  0  0  0  0  0  0
    5.8840  -12.1830   94.3390 C   0  0  2  0  0  0  0  0  0  0  0  0
    7.1740  -12.0220   93.6590 N   0  0  0  0  0  0  0  0  0  0  0  0
    7.2810  -11.1450   92.6470 C   0  0  0  0  0  3  0  0  0  0  0  0
    8.4910  -10.9640   91.9780 C   0  0  0  0  0  0  0  0  0  0  0  0
    8.6100   -9.9830   90.8460 C   0  0  0  0  0  0  0  0  0  0  0  0
    9.5050  -10.1340   90.0310 O   0  0  0  0  0  0  0  0  0  0  0  0
    7.7360   -8.9830   90.7530 N   0  0  0  0  0  0  0  0  0  0  0  0
    9.5980  -11.7120   92.3570 C   0  0  0  0  0  0  0  0  0  0  0  0
    9.4640  -12.6160   93.4010 C   0  0  0  0  0  0  0  0  0  0  0  0
    8.2310  -12.7600   94.0330 C   0  0  0  0  0  0  0  0  0  0  0  0
    3.3601   -2.1975   93.3210 H   0  0  0  0  0  0  0  0  0  0  0  0
    2.6395   -3.7120   92.6779 H   0  0  0  0  0  0  0  0  0  0  0  0
    3.2792   -2.9715   90.6994 H   0  0  0  0  0  0  0  0  0  0  0  0
    5.6851   -4.2647   91.7619 H   0  0  0  0  0  0  0  0  0  0  0  0
    5.5940   -5.0722   89.5880 H   0  0  0  0  0  0  0  0  0  0  0  0
    7.1383   -2.5687   91.1220 H   0  0  0  0  0  0  0  0  0  0  0  0
    6.1698   -3.2160   88.5088 H   0  0  0  0  0  0  0  0  0  0  0  0
    5.0067   -1.4639   89.2586 H   0  0  0  0  0  0  0  0  0  0  0  0
    5.5038    0.7857   88.4618 H   0  0  0  0  0  0  0  0  0  0  0  0
   10.2622    3.5756   91.2022 H   0  0  0  0  0  0  0  0  0  0  0  0
    9.0307    3.5898   89.9115 H   0  0  0  0  0  0  0  0  0  0  0  0
    9.5015   -0.3482   93.5072 H   0  0  0  0  0  0  0  0  0  0  0  0
    3.6722   -9.5162   92.7176 H   0  0  0  0  0  0  0  0  0  0  0  0
    2.9132   -8.8819   94.2170 H   0  0  0  0  0  0  0  0  0  0  0  0
    3.1635  -11.1511   94.7001 H   0  0  0  0  0  0  0  0  0  0  0  0
    5.3138   -9.4710   95.8853 H   0  0  0  0  0  0  0  0  0  0  0  0
    4.4400  -10.6176   97.7019 H   0  0  0  0  0  0  0  0  0  0  0  0
    6.9275  -11.1159   95.9087 H   0  0  0  0  0  0  0  0  0  0  0  0
    6.3093  -13.2358   96.6575 H   0  0  0  0  0  0  0  0  0  0  0  0
    5.6111  -13.2468   94.4011 H   0  0  0  0  0  0  0  0  0  0  0  0
    6.4134  -10.5692   92.3458 H   0  0  0  0  0  0  0  0  0  0  0  0
    7.8069   -8.3251   90.0033 H   0  0  0  0  0  0  0  0  0  0  0  0
    7.0086   -8.8898   91.4329 H   0  0  0  0  0  0  0  0  0  0  0  0
   10.5473  -11.5921   91.8476 H   0  0  0  0  0  0  0  0  0  0  0  0
   10.3139  -13.2068   93.7230 H   0  0  0  0  0  0  0  0  0  0  0  0
    8.1236  -13.4780   94.8380 H   0  0  0  0  0  0  0  0  0  0  0  0
  1  2  1  1  0  0  0
  1  3  2  0  0  0  0
  1  4  1  0  0  0  0
  1 23  1  0  0  0  0
  4  5  1  0  0  0  0
  5  6  1  0  0  0  0
  5 45  1  0  0  0  0
  5 46  1  0  0  0  0
  6  7  1  0  0  0  0
  6  8  1  0  0  0  0
  6 47  1  6  0  0  0
  7 12  1  0  0  0  0
  8  9  1  0  0  0  0
  8 10  1  0  0  0  0
  8 48  1  1  0  0  0
  9 49  1  0  0  0  0
 10 11  1  0  0  0  0
 10 12  1  0  0  0  0
 10 50  1  1  0  0  0
 11 51  1  0  0  0  0
 12 13  1  0  0  0  0
 12 52  1  6  0  0  0
 13 14  1  0  0  0  0
 13 22  1  0  0  0  0
 14 15  2  0  0  0  0
 14 53  1  0  0  0  0
 15 16  1  0  0  0  0
 16 17  2  0  0  0  0
 16 22  1  0  0  0  0
 17 18  1  0  0  0  0
 17 19  1  0  0  0  0
 18 54  1  0  0  0  0
 18 55  1  0  0  0  0
 19 20  2  0  0  0  0
 20 21  1  0  0  0  0
 20 56  1  0  0  0  0
 21 22  2  0  0  0  0
 23 24  1  0  0  0  0
 24 25  1  1  0  0  0
 24 26  2  0  0  0  0
 24 27  1  0  0  0  0
 27 28  1  0  0  0  0
 28 29  1  0  0  0  0
 28 57  1  0  0  0  0
 28 58  1  0  0  0  0
 29 30  1  0  0  0  0
 29 31  1  0  0  0  0
 29 59  1  1  0  0  0
 30 35  1  0  0  0  0
 31 32  1  0  0  0  0
 31 33  1  0  0  0  0
 31 60  1  1  0  0  0
 32 61  1  0  0  0  0
 33 34  1  0  0  0  0
 33 35  1  0  0  0  0
 33 62  1  1  0  0  0
 34 63  1  0  0  0  0
 35 36  1  0  0  0  0
 35 64  1  1  0  0  0
 36 37  1  0  0  0  0
 36 44  1  0  0  0  0
 37 38  1  0  0  0  0
 37 65  1  0  0  0  0
 38 39  1  0  0  0  0
 38 42  2  0  0  0  0
 39 40  2  0  0  0  0
 39 41  1  0  0  0  0
 41 66  1  0  0  0  0
 41 67  1  0  0  0  0
 42 43  1  0  0  0  0
 42 68  1  0  0  0  0
 43 44  2  0  0  0  0
 43 69  1  0  0  0  0
 44 70  1  0  0  0  0
M  END
