3bcn_ligand
 OpenBabel08222323343D

 54 53  0  0  1  0  0  0  0  0999 V2000
    1.1740   -8.6320   22.3530 C   0  0  0  0  0  0  0  0  0  0  0  0
    1.7820   -8.5140   21.2080 O   0  5  0  0  0  0  0  0  0  0  0  0
    1.2860   -9.6220   23.0690 O   0  0  0  0  0  0  0  0  0  0  0  0
    0.3120   -7.4730   22.7650 C   0  0  0  0  0  0  0  0  0  0  0  0
   -1.0960   -7.8990   23.1800 C   0  0  2  0  0  0  0  0  0  0  0  0
   -1.8670   -8.8310   22.4130 O   0  0  0  0  0  0  0  0  0  0  0  0
   -1.8320   -6.7020   23.7500 C   0  0  0  0  0  0  0  0  0  0  0  0
   -2.0740   -6.6030   24.9620 O   0  0  0  0  0  0  0  0  0  0  0  0
   -2.1640   -5.7930   22.8350 N   0  0  0  0  0  0  0  0  0  0  0  0
   -2.9030   -4.5760   23.1380 C   0  0  1  0  0  0  0  0  0  0  0  0
   -2.2520   -3.3850   22.4290 C   0  0  0  0  0  0  0  0  0  0  0  0
   -1.6420   -2.2600   23.2690 C   0  0  0  0  0  0  0  0  0  0  0  0
   -2.4820   -1.0090   23.0950 C   0  0  0  0  0  0  0  0  0  0  0  0
   -1.5660   -2.6640   24.7320 C   0  0  0  0  0  0  0  0  0  0  0  0
   -4.3540   -4.7190   22.6770 C   0  0  0  0  0  0  0  0  0  0  0  0
   -4.9590   -3.7650   22.1760 O   0  0  0  0  0  0  0  0  0  0  0  0
   -4.9040   -5.9160   22.8550 N   0  0  0  0  0  0  0  0  0  0  0  0
   -6.3190   -6.1970   22.6590 C   0  0  0  0  0  0  0  0  0  0  0  0
   -6.8290   -7.2840   23.5830 C   0  0  0  0  0  0  0  0  0  0  0  0
   -7.4250   -8.4460   22.7900 C   0  0  0  0  0  0  0  0  0  0  0  0
   -8.1720   -7.9670   21.5430 C   0  0  0  0  0  0  0  0  0  0  0  0
   -8.1010   -8.9270   20.4390 N   0  0  0  0  0  0  0  0  0  0  0  0
   -9.1230   -9.6890   20.0460 C   0  0  0  0  0  3  0  0  0  0  0  0
   -9.9940   -9.9390   21.0230 N   0  0  0  0  0  0  0  0  0  0  0  0
   -9.3350  -10.1980   18.8270 N   0  0  0  0  0  0  0  0  0  0  0  0
    0.2327   -6.7756   21.9180 H   0  0  0  0  0  0  0  0  0  0  0  0
    0.7900   -6.9644   23.6152 H   0  0  0  0  0  0  0  0  0  0  0  0
   -0.8905   -8.5051   24.0747 H   0  0  0  0  0  0  0  0  0  0  0  0
   -2.7087   -8.9651   22.8327 H   0  0  0  0  0  0  0  0  0  0  0  0
   -1.8904   -5.9556   21.8870 H   0  0  0  0  0  0  0  0  0  0  0  0
   -2.8848   -4.4041   24.2243 H   0  0  0  0  0  0  0  0  0  0  0  0
   -3.0240   -2.9285   21.7922 H   0  0  0  0  0  0  0  0  0  0  0  0
   -1.4465   -3.7877   21.7973 H   0  0  0  0  0  0  0  0  0  0  0  0
   -0.6226   -2.0576   22.9088 H   0  0  0  0  0  0  0  0  0  0  0  0
   -2.0528   -0.1928   23.6947 H   0  0  0  0  0  0  0  0  0  0  0  0
   -3.5106   -1.2084   23.4301 H   0  0  0  0  0  0  0  0  0  0  0  0
   -2.4918   -0.7185   22.0341 H   0  0  0  0  0  0  0  0  0  0  0  0
   -0.9526   -3.5718   24.8303 H   0  0  0  0  0  0  0  0  0  0  0  0
   -2.5794   -2.8635   25.1104 H   0  0  0  0  0  0  0  0  0  0  0  0
   -1.1110   -1.8492   25.3143 H   0  0  0  0  0  0  0  0  0  0  0  0
   -4.3104   -6.6684   23.1406 H   0  0  0  0  0  0  0  0  0  0  0  0
   -6.4740   -6.5176   21.6182 H   0  0  0  0  0  0  0  0  0  0  0  0
   -6.8908   -5.2765   22.8482 H   0  0  0  0  0  0  0  0  0  0  0  0
   -7.6042   -6.8625   24.2399 H   0  0  0  0  0  0  0  0  0  0  0  0
   -5.9938   -7.6571   24.1939 H   0  0  0  0  0  0  0  0  0  0  0  0
   -8.1272   -8.9934   23.4360 H   0  0  0  0  0  0  0  0  0  0  0  0
   -6.6115   -9.1184   22.4800 H   0  0  0  0  0  0  0  0  0  0  0  0
   -7.7300   -7.0159   21.2114 H   0  0  0  0  0  0  0  0  0  0  0  0
   -9.2287   -7.8088   21.8046 H   0  0  0  0  0  0  0  0  0  0  0  0
   -7.2073   -9.0194   19.9353 H   0  0  0  0  0  0  0  0  0  0  0  0
  -10.8250  -10.5182   20.8363 H   0  0  0  0  0  0  0  0  0  0  0  0
   -9.8362   -9.5531   21.9648 H   0  0  0  0  0  0  0  0  0  0  0  0
   -8.6663  -10.0092   18.0667 H   0  0  0  0  0  0  0  0  0  0  0  0
  -10.1669  -10.7786   18.6489 H   0  0  0  0  0  0  0  0  0  0  0  0
  1  2  1  0  0  0  0
  1  3  2  0  0  0  0
  1  4  1  0  0  0  0
  4  5  1  0  0  0  0
  4 26  1  0  0  0  0
  4 27  1  0  0  0  0
  5  6  1  0  0  0  0
  5  7  1  0  0  0  0
  5 28  1  1  0  0  0
  6 29  1  0  0  0  0
  7  8  2  0  0  0  0
  7  9  1  0  0  0  0
  9 10  1  0  0  0  0
  9 30  1  0  0  0  0
 10 11  1  0  0  0  0
 10 15  1  0  0  0  0
 10 31  1  1  0  0  0
 11 12  1  0  0  0  0
 11 32  1  0  0  0  0
 11 33  1  0  0  0  0
 12 13  1  0  0  0  0
 12 14  1  0  0  0  0
 12 34  1  0  0  0  0
 13 35  1  0  0  0  0
 13 36  1  0  0  0  0
 13 37  1  0  0  0  0
 14 38  1  0  0  0  0
 14 39  1  0  0  0  0
 14 40  1  0  0  0  0
 15 16  2  0  0  0  0
 15 17  1  0  0  0  0
 17 18  1  0  0  0  0
 17 41  1  0  0  0  0
 18 19  1  0  0  0  0
 18 42  1  0  0  0  0
 18 43  1  0  0  0  0
 19 20  1  0  0  0  0
 19 44  1  0  0  0  0
 19 45  1  0  0  0  0
 20 21  1  0  0  0  0
 20 46  1  0  0  0  0
 20 47  1  0  0  0  0
 21 22  1  0  0  0  0
 21 48  1  0  0  0  0
 21 49  1  0  0  0  0
 22 23  1  0  0  0  0
 22 50  1  0  0  0  0
 23 24  1  0  0  0  0
 23 25  1  0  0  0  0
 24 51  1  0  0  0  0
 24 52  1  0  0  0  0
 25 53  1  0  0  0  0
 25 54  1  0  0  0  0
M  CHG  1   2  -1
M  END
