3bet_ligand
 OpenBabel08222323343D

 56 59  0  0  1  0  0  0  0  0999 V2000
   -4.4080    2.6770   14.5810 C   0  0  0  0  0  0  0  0  0  0  0  0
   -6.8790    1.2400   16.3670 O   0  0  0  0  0  0  0  0  0  0  0  0
   -4.5970    1.6080   17.2620 O   0  0  0  0  0  0  0  0  0  0  0  0
   -5.1710    3.8760   14.6790 C   0  0  0  0  0  0  0  0  0  0  0  0
   -4.5390    5.0890   14.3360 C   0  0  0  0  0  0  0  0  0  0  0  0
   -3.1680    5.1750   13.8930 C   0  0  0  0  0  0  0  0  0  0  0  0
   -5.4840    0.9790   16.3420 S   0  0  0  0  0  0  0  0  0  0  0  0
   -5.2610   -0.5800   16.3840 N   0  0  0  0  0  0  0  0  0  0  0  0
   -5.0280    1.4330   14.8830 O   0  0  0  0  0  0  0  0  0  0  0  0
   -2.4330    3.9510   13.8200 C   0  0  0  0  0  0  0  0  0  0  0  0
   -3.0490    2.7230   14.1560 C   0  0  0  0  0  0  0  0  0  0  0  0
   -6.4900    3.9680   15.0750 O   0  0  0  0  0  0  0  0  0  0  0  0
   -6.8080    4.3590   16.4060 C   0  0  0  0  0  0  0  0  0  0  0  0
   -2.5450    6.5110   13.4940 C   0  0  2  0  0  0  0  0  0  0  0  0
   -0.9610    6.4820   13.5260 C   0  0  1  0  0  0  0  0  0  0  0  0
   -0.4680    5.2600   12.7240 C   0  0  0  0  0  0  0  0  0  0  0  0
   -0.9740    3.9310   13.3540 C   0  0  0  0  0  0  0  0  0  0  0  0
   -3.1340    7.6950   14.3210 C   0  0  0  0  0  0  0  0  0  0  0  0
   -2.5530    9.0820   13.9080 C   0  0  0  0  0  0  0  0  0  0  0  0
   -1.0300    9.1110   13.8770 C   0  0  2  0  0  0  0  0  0  0  0  0
   -0.5160    7.8900   13.0240 C   0  0  1  0  0  0  0  0  0  0  0  0
   -0.5070    9.1600   15.3370 C   0  0  0  0  0  0  0  0  0  0  0  0
   -0.3620   10.1910   12.9460 C   0  0  2  0  0  0  0  0  0  0  0  0
    1.0720    9.7350   12.8200 C   0  0  0  0  0  0  0  0  0  0  0  0
    0.9990    8.2010   12.8830 C   0  0  0  0  0  0  0  0  0  0  0  0
   -0.3800   11.5900   13.5030 C   0  0  0  0  0  0  0  0  0  0  0  0
   -1.6340   12.3280   13.1810 C   0  0  0  0  0  0  0  0  0  0  0  0
   -2.6060   12.8820   12.9830 N   0  0  0  0  0  0  0  0  0  0  0  0
   -5.1133    6.0055   14.4089 H   0  0  0  0  0  0  0  0  0  0  0  0
   -5.4809   -1.0944   17.2129 H   0  0  0  0  0  0  0  0  0  0  0  0
   -4.8996   -1.0552   15.5818 H   0  0  0  0  0  0  0  0  0  0  0  0
   -2.4788    1.8035   14.0892 H   0  0  0  0  0  0  0  0  0  0  0  0
   -7.9006    4.3750   16.5323 H   0  0  0  0  0  0  0  0  0  0  0  0
   -6.4017    5.3626   16.6004 H   0  0  0  0  0  0  0  0  0  0  0  0
   -6.3675    3.6416   17.1141 H   0  0  0  0  0  0  0  0  0  0  0  0
   -2.8306    6.6880   12.4466 H   0  0  0  0  0  0  0  0  0  0  0  0
   -0.6102    6.3607   14.5615 H   0  0  0  0  0  0  0  0  0  0  0  0
    0.6319    5.2567   12.7153 H   0  0  0  0  0  0  0  0  0  0  0  0
   -0.8426    5.3332   11.6924 H   0  0  0  0  0  0  0  0  0  0  0  0
   -0.8663    3.1345   12.6030 H   0  0  0  0  0  0  0  0  0  0  0  0
   -0.3408    3.7028   14.2240 H   0  0  0  0  0  0  0  0  0  0  0  0
   -2.9095    7.5246   15.3843 H   0  0  0  0  0  0  0  0  0  0  0  0
   -4.2241    7.7152   14.1751 H   0  0  0  0  0  0  0  0  0  0  0  0
   -2.9021    9.8358   14.6290 H   0  0  0  0  0  0  0  0  0  0  0  0
   -2.9277    9.3330   12.9047 H   0  0  0  0  0  0  0  0  0  0  0  0
   -0.9557    7.9749   12.0193 H   0  0  0  0  0  0  0  0  0  0  0  0
   -0.9206   10.0436   15.8451 H   0  0  0  0  0  0  0  0  0  0  0  0
    0.5913    9.2210   15.3312 H   0  0  0  0  0  0  0  0  0  0  0  0
   -0.8210    8.2503   15.8697 H   0  0  0  0  0  0  0  0  0  0  0  0
   -0.8597   10.1937   11.9651 H   0  0  0  0  0  0  0  0  0  0  0  0
    1.6789   10.1290   13.6485 H   0  0  0  0  0  0  0  0  0  0  0  0
    1.5013   10.0641   11.8622 H   0  0  0  0  0  0  0  0  0  0  0  0
    1.4038    7.7543   11.9629 H   0  0  0  0  0  0  0  0  0  0  0  0
    1.5566    7.8205   13.7515 H   0  0  0  0  0  0  0  0  0  0  0  0
    0.4715   12.1456   13.0832 H   0  0  0  0  0  0  0  0  0  0  0  0
   -0.2775   11.5334   14.5967 H   0  0  0  0  0  0  0  0  0  0  0  0
  1  4  2  0  0  0  0
  1 11  1  0  0  0  0
  4  5  1  0  0  0  0
  4 12  1  0  0  0  0
  5  6  2  0  0  0  0
  5 29  1  0  0  0  0
  6 10  1  0  0  0  0
  6 14  1  0  0  0  0
  7  2  2  0  0  0  0
  7  3  2  0  0  0  0
  7  8  1  0  0  0  0
  7  9  1  0  0  0  0
  8 30  1  0  0  0  0
  8 31  1  0  0  0  0
  9  1  1  0  0  0  0
 10 11  2  0  0  0  0
 10 17  1  0  0  0  0
 11 32  1  0  0  0  0
 12 13  1  0  0  0  0
 13 33  1  0  0  0  0
 13 34  1  0  0  0  0
 13 35  1  0  0  0  0
 14 15  1  0  0  0  0
 14 18  1  0  0  0  0
 14 36  1  6  0  0  0
 15 16  1  0  0  0  0
 15 21  1  0  0  0  0
 15 37  1  1  0  0  0
 16 17  1  0  0  0  0
 16 38  1  0  0  0  0
 16 39  1  0  0  0  0
 17 40  1  0  0  0  0
 17 41  1  0  0  0  0
 18 19  1  0  0  0  0
 18 42  1  0  0  0  0
 18 43  1  0  0  0  0
 19 20  1  0  0  0  0
 19 44  1  0  0  0  0
 19 45  1  0  0  0  0
 20 21  1  0  0  0  0
 20 22  1  1  0  0  0
 20 23  1  0  0  0  0
 21 25  1  0  0  0  0
 21 46  1  6  0  0  0
 22 47  1  0  0  0  0
 22 48  1  0  0  0  0
 22 49  1  0  0  0  0
 23 24  1  0  0  0  0
 23 26  1  0  0  0  0
 23 50  1  6  0  0  0
 24 25  1  0  0  0  0
 24 51  1  0  0  0  0
 24 52  1  0  0  0  0
 25 53  1  0  0  0  0
 25 54  1  0  0  0  0
 26 27  1  0  0  0  0
 26 55  1  0  0  0  0
 26 56  1  0  0  0  0
 27 28  3  0  0  0  0
M  END
