3bg8_ligand
 OpenBabel08222323343D

 26 25  0  0  0  0  0  0  0  0999 V2000
   50.5930   24.8570   11.6280 C   0  0  0  0  0  0  0  0  0  0  0  0
   50.6080   24.7300   10.4260 O   0  0  0  0  0  0  0  0  0  0  0  0
   51.0020   23.8640   12.4520 N   0  0  0  0  0  0  0  0  0  0  0  0
   51.4800   22.6030   11.8750 C   0  0  0  0  0  0  0  0  0  0  0  0
   50.3110   21.7560   11.3590 C   0  0  0  0  0  0  0  0  0  0  0  0
   49.3640   21.4900   12.5340 C   0  0  0  0  0  0  0  0  0  0  0  0
   48.1690   20.6280   12.1230 C   0  0  0  0  0  0  0  0  0  0  0  0
   48.5680   19.2220   12.0290 N   0  0  0  0  0  0  0  0  0  0  0  0
   47.6950   18.2860   11.5050 C   0  0  0  0  0  3  0  0  0  0  0  0
   46.3850   18.6010   11.2230 N   0  0  0  0  0  0  0  0  0  0  0  0
   48.1090   17.0770   11.2580 N   0  0  0  0  0  0  0  0  0  0  0  0
   50.2417   25.7935   12.0587 H   0  0  0  0  0  0  0  0  0  0  0  0
   50.9785   23.9888   13.4439 H   0  0  0  0  0  0  0  0  0  0  0  0
   52.0211   22.0365   12.6472 H   0  0  0  0  0  0  0  0  0  0  0  0
   52.1597   22.8249   11.0391 H   0  0  0  0  0  0  0  0  0  0  0  0
   50.6881   20.8027   10.9604 H   0  0  0  0  0  0  0  0  0  0  0  0
   49.7776   22.2999   10.5655 H   0  0  0  0  0  0  0  0  0  0  0  0
   48.9929   22.4525   12.9160 H   0  0  0  0  0  0  0  0  0  0  0  0
   49.9204   20.9703   13.3279 H   0  0  0  0  0  0  0  0  0  0  0  0
   47.7964   20.9661   11.1448 H   0  0  0  0  0  0  0  0  0  0  0  0
   47.3719   20.7300   12.8742 H   0  0  0  0  0  0  0  0  0  0  0  0
   49.5007   18.9296   12.3538 H   0  0  0  0  0  0  0  0  0  0  0  0
   45.7556   17.8849   10.8331 H   0  0  0  0  0  0  0  0  0  0  0  0
   46.0342   19.5528   11.4019 H   0  0  0  0  0  0  0  0  0  0  0  0
   49.0846   16.8154   11.4598 H   0  0  0  0  0  0  0  0  0  0  0  0
   47.4610   16.3819   10.8607 H   0  0  0  0  0  0  0  0  0  0  0  0
  1  2  2  0  0  0  0
  1  3  1  0  0  0  0
  1 12  1  0  0  0  0
  3  4  1  0  0  0  0
  3 13  1  0  0  0  0
  4  5  1  0  0  0  0
  4 14  1  0  0  0  0
  4 15  1  0  0  0  0
  5  6  1  0  0  0  0
  5 16  1  0  0  0  0
  5 17  1  0  0  0  0
  6  7  1  0  0  0  0
  6 18  1  0  0  0  0
  6 19  1  0  0  0  0
  7  8  1  0  0  0  0
  7 20  1  0  0  0  0
  7 21  1  0  0  0  0
  8  9  1  0  0  0  0
  8 22  1  0  0  0  0
  9 10  1  0  0  0  0
  9 11  1  0  0  0  0
 10 23  1  0  0  0  0
 10 24  1  0  0  0  0
 11 25  1  0  0  0  0
 11 26  1  0  0  0  0
M  END
