3bgl_ligand
 OpenBabel08222323343D

 77 80  0  0  1  0  0  0  0  0999 V2000
    3.5320    6.3320  -11.8520 N   0  0  0  0  0  0  0  0  0  0  0  0
    0.5930    6.7530  -15.5360 N   0  0  0  0  0  0  0  0  0  0  0  0
    3.2870    5.1110  -12.3100 C   0  0  0  0  0  0  0  0  0  0  0  0
    2.6960    8.6620  -11.9900 C   0  0  0  0  0  0  0  0  0  0  0  0
    4.6720    6.6130  -10.9710 C   0  0  0  0  0  0  0  0  0  0  0  0
    4.2520    6.6630   -9.5220 C   0  0  0  0  0  0  0  0  0  0  0  0
    5.0850    6.1690   -7.2390 C   0  0  0  0  0  0  0  0  0  0  0  0
    1.4040    9.1500  -11.3240 C   0  0  0  0  0  0  0  0  0  0  0  0
    5.5120    2.0760  -12.4930 C   0  0  0  0  0  0  0  0  0  0  0  0
    1.7930    7.3120  -16.1590 C   0  0  0  0  0  0  0  0  0  0  0  0
    2.0200    6.6010  -17.4920 C   0  0  0  0  0  0  0  0  0  0  0  0
    3.4430    3.0970  -10.9510 C   0  0  0  0  0  0  0  0  0  0  0  0
   -0.0260    2.1260  -13.9490 C   0  0  0  0  0  0  0  0  0  0  0  0
    3.9920    1.8660  -10.6230 C   0  0  0  0  0  0  0  0  0  0  0  0
   -0.6260    6.6820  -16.3520 C   0  0  0  0  0  0  0  0  0  0  0  0
    0.5390    1.7080  -15.1450 C   0  0  0  0  0  0  0  0  0  0  0  0
   -0.7840    6.3690  -13.6010 O   0  0  0  0  0  0  0  0  0  0  0  0
    0.4110    7.0330  -14.0530 S   0  0  0  0  0  0  0  0  0  0  0  0
    0.2650    8.4510  -13.9000 O   0  0  0  0  0  0  0  0  0  0  0  0
   -0.2590    6.0000  -17.6670 C   0  0  0  0  0  0  0  0  0  0  0  0
    0.8370    6.6730  -18.2880 O   0  0  0  0  0  0  0  0  0  0  0  0
    1.7200    6.4860  -13.1760 C   0  0  0  0  0  0  0  0  0  0  0  0
    2.0980    5.1660  -13.1560 C   0  0  0  0  0  0  0  0  0  0  0  0
    1.5300    3.9720  -13.8440 C   0  0  0  0  0  0  0  0  0  0  0  0
    0.4730    3.2530  -13.2980 C   0  0  0  0  0  0  0  0  0  0  0  0
    1.6080    2.4170  -15.6900 C   0  0  0  0  0  0  0  0  0  0  0  0
    2.1090    3.5430  -15.0340 C   0  0  0  0  0  0  0  0  0  0  0  0
    2.6220    7.2140  -12.3540 C   0  0  0  0  0  0  0  0  0  0  0  0
    3.1040    9.4910  -13.1890 C   0  0  0  0  0  0  0  0  0  0  0  0
    3.9250    3.8070  -12.0490 C   0  0  0  0  0  0  0  0  0  0  0  0
    5.0240    1.3630  -11.4000 C   0  0  0  0  0  0  0  0  0  0  0  0
    5.5450    0.1770  -11.0800 F   0  0  0  0  0  0  0  0  0  0  0  0
    4.9660    3.3130  -12.8200 C   0  0  0  0  0  0  0  0  0  0  0  0
    5.4850    6.6240   -8.6300 C   0  0  2  0  0  0  0  0  0  0  0  0
    6.0470    7.9190   -8.5640 O   0  0  0  0  0  0  0  0  0  0  0  0
    4.9460    4.6550   -7.1820 C   0  0  1  0  0  0  0  0  0  0  0  0
    6.2040    4.0640   -7.4530 O   0  0  0  0  0  0  0  0  0  0  0  0
    4.4590    4.2280   -5.8020 C   0  0  0  0  0  0  0  0  0  0  0  0
    3.9800    2.7930   -5.8530 C   0  0  0  0  0  0  0  0  0  0  0  0
    2.9190    2.5100   -6.3990 O   0  5  0  0  0  0  0  0  0  0  0  0
    4.7200    1.8340   -5.3020 O   0  0  0  0  0  0  0  0  0  0  0  0
    3.4952    8.7683  -11.2417 H   0  0  0  0  0  0  0  0  0  0  0  0
    5.1089    7.5831  -11.2502 H   0  0  0  0  0  0  0  0  0  0  0  0
    5.4253    5.8215  -11.0977 H   0  0  0  0  0  0  0  0  0  0  0  0
    3.6103    5.7984   -9.2970 H   0  0  0  0  0  0  0  0  0  0  0  0
    3.6942    7.5924   -9.3346 H   0  0  0  0  0  0  0  0  0  0  0  0
    4.1222    6.6293   -6.9725 H   0  0  0  0  0  0  0  0  0  0  0  0
    5.8549    6.4872   -6.5207 H   0  0  0  0  0  0  0  0  0  0  0  0
    1.5010   10.2167  -11.0734 H   0  0  0  0  0  0  0  0  0  0  0  0
    1.2242    8.5724  -10.4053 H   0  0  0  0  0  0  0  0  0  0  0  0
    0.5599    9.0111  -12.0155 H   0  0  0  0  0  0  0  0  0  0  0  0
    6.3187    1.6660  -13.0898 H   0  0  0  0  0  0  0  0  0  0  0  0
    2.6607    7.1545  -15.5015 H   0  0  0  0  0  0  0  0  0  0  0  0
    1.6545    8.3895  -16.3316 H   0  0  0  0  0  0  0  0  0  0  0  0
    2.2703    5.5463  -17.3050 H   0  0  0  0  0  0  0  0  0  0  0  0
    2.8499    7.0855  -18.0273 H   0  0  0  0  0  0  0  0  0  0  0  0
    2.6378    3.5073  -10.3523 H   0  0  0  0  0  0  0  0  0  0  0  0
   -0.8560    1.5759  -13.5205 H   0  0  0  0  0  0  0  0  0  0  0  0
    3.6199    1.3062   -9.7725 H   0  0  0  0  0  0  0  0  0  0  0  0
   -1.0063    7.6954  -16.5480 H   0  0  0  0  0  0  0  0  0  0  0  0
   -1.3955    6.0966  -15.8274 H   0  0  0  0  0  0  0  0  0  0  0  0
    0.1505    0.8332  -15.6538 H   0  0  0  0  0  0  0  0  0  0  0  0
   -1.1274    6.0226  -18.3417 H   0  0  0  0  0  0  0  0  0  0  0  0
    0.0231    4.9557  -17.4673 H   0  0  0  0  0  0  0  0  0  0  0  0
    0.0337    3.5710  -12.3594 H   0  0  0  0  0  0  0  0  0  0  0  0
    2.0512    2.0936  -16.6249 H   0  0  0  0  0  0  0  0  0  0  0  0
    2.9502    4.0837  -15.4524 H   0  0  0  0  0  0  0  0  0  0  0  0
    4.0340    9.0866  -13.6150 H   0  0  0  0  0  0  0  0  0  0  0  0
    3.2667   10.5329  -12.8762 H   0  0  0  0  0  0  0  0  0  0  0  0
    2.3078    9.4558  -13.9472 H   0  0  0  0  0  0  0  0  0  0  0  0
    5.3472    3.8799  -13.6616 H   0  0  0  0  0  0  0  0  0  0  0  0
    6.2223    5.9230   -9.0483 H   0  0  0  0  0  0  0  0  0  0  0  0
    6.2959    8.1998   -9.4367 H   0  0  0  0  0  0  0  0  0  0  0  0
    4.2185    4.3273   -7.9392 H   0  0  0  0  0  0  0  0  0  0  0  0
    6.8346    4.3524   -6.8036 H   0  0  0  0  0  0  0  0  0  0  0  0
    3.6299    4.8795   -5.4888 H   0  0  0  0  0  0  0  0  0  0  0  0
    5.2847    4.3126   -5.0802 H   0  0  0  0  0  0  0  0  0  0  0  0
  1  5  1  0  0  0  0
  2 10  1  0  0  0  0
  2 15  1  0  0  0  0
  3  1  1  0  0  0  0
  3 30  1  0  0  0  0
  4  8  1  0  0  0  0
  4 29  1  0  0  0  0
  4 42  1  0  0  0  0
  5  6  1  0  0  0  0
  5 43  1  0  0  0  0
  5 44  1  0  0  0  0
  6 34  1  0  0  0  0
  6 45  1  0  0  0  0
  6 46  1  0  0  0  0
  7 36  1  0  0  0  0
  7 47  1  0  0  0  0
  7 48  1  0  0  0  0
  8 49  1  0  0  0  0
  8 50  1  0  0  0  0
  8 51  1  0  0  0  0
  9 33  1  0  0  0  0
  9 52  1  0  0  0  0
 10 11  1  0  0  0  0
 10 53  1  0  0  0  0
 10 54  1  0  0  0  0
 11 21  1  0  0  0  0
 11 55  1  0  0  0  0
 11 56  1  0  0  0  0
 12 14  2  0  0  0  0
 12 57  1  0  0  0  0
 13 16  2  0  0  0  0
 13 58  1  0  0  0  0
 14 31  1  0  0  0  0
 14 59  1  0  0  0  0
 15 20  1  0  0  0  0
 15 60  1  0  0  0  0
 15 61  1  0  0  0  0
 16 26  1  0  0  0  0
 16 62  1  0  0  0  0
 18  2  1  0  0  0  0
 18 17  2  0  0  0  0
 18 19  2  0  0  0  0
 20 21  1  0  0  0  0
 20 63  1  0  0  0  0
 20 64  1  0  0  0  0
 22 18  1  0  0  0  0
 22 28  2  0  0  0  0
 23  3  2  0  0  0  0
 23 22  1  0  0  0  0
 24 23  1  0  0  0  0
 24 25  2  0  0  0  0
 24 27  1  0  0  0  0
 25 13  1  0  0  0  0
 25 65  1  0  0  0  0
 26 27  2  0  0  0  0
 26 66  1  0  0  0  0
 27 67  1  0  0  0  0
 28  1  1  0  0  0  0
 28  4  1  0  0  0  0
 29 68  1  0  0  0  0
 29 69  1  0  0  0  0
 29 70  1  0  0  0  0
 30 12  1  0  0  0  0
 30 33  2  0  0  0  0
 31  9  2  0  0  0  0
 31 32  1  0  0  0  0
 33 71  1  0  0  0  0
 34  7  1  0  0  0  0
 34 35  1  0  0  0  0
 34 72  1  6  0  0  0
 35 73  1  0  0  0  0
 36 37  1  0  0  0  0
 36 38  1  0  0  0  0
 36 74  1  6  0  0  0
 37 75  1  0  0  0  0
 38 39  1  0  0  0  0
 38 76  1  0  0  0  0
 38 77  1  0  0  0  0
 39 40  1  0  0  0  0
 39 41  2  0  0  0  0
M  CHG  1  40  -1
M  END
