3bh3_ligand
 OpenBabel08222323343D

 16 15  0  0  0  0  0  0  0  0999 V2000
    3.8040  -31.9540  -16.1460 C   0  0  0  0  0  0  0  0  0  0  0  0
    3.4510  -33.3260  -13.8830 C   0  0  0  0  0  0  0  0  0  0  0  0
    4.8510  -33.1870  -13.3390 C   0  0  0  0  0  0  0  0  0  0  0  0
    5.6030  -32.3340  -13.7870 O   0  0  0  0  0  0  0  0  0  0  0  0
    5.2680  -34.1500  -12.2450 C   0  0  0  0  0  0  0  0  0  0  0  0
    2.9820  -32.3350  -14.9320 C   0  0  0  0  0  0  0  0  0  0  0  0
    3.2478  -31.2224  -16.7505 H   0  0  0  0  0  0  0  0  0  0  0  0
    4.0045  -32.8515  -16.7495 H   0  0  0  0  0  0  0  0  0  0  0  0
    4.7566  -31.5113  -15.8196 H   0  0  0  0  0  0  0  0  0  0  0  0
    2.7613  -33.2469  -13.0297 H   0  0  0  0  0  0  0  0  0  0  0  0
    3.3725  -34.3298  -14.3260 H   0  0  0  0  0  0  0  0  0  0  0  0
    6.3045  -33.9369  -11.9445 H   0  0  0  0  0  0  0  0  0  0  0  0
    5.1996  -35.1821  -12.6193 H   0  0  0  0  0  0  0  0  0  0  0  0
    4.6026  -34.0297  -11.3774 H   0  0  0  0  0  0  0  0  0  0  0  0
    2.0354  -32.7362  -15.3232 H   0  0  0  0  0  0  0  0  0  0  0  0
    2.7875  -31.3959  -14.3933 H   0  0  0  0  0  0  0  0  0  0  0  0
  1  7  1  0  0  0  0
  1  8  1  0  0  0  0
  1  9  1  0  0  0  0
  2  3  1  0  0  0  0
  2  6  1  0  0  0  0
  2 10  1  0  0  0  0
  2 11  1  0  0  0  0
  3  4  2  0  0  0  0
  3  5  1  0  0  0  0
  5 12  1  0  0  0  0
  5 13  1  0  0  0  0
  5 14  1  0  0  0  0
  6  1  1  0  0  0  0
  6 15  1  0  0  0  0
  6 16  1  0  0  0  0
M  END
