3bh8_ligand
 OpenBabel08222323343D

163163  0  0  1  0  0  0  0  0999 V2000
  -25.1590  -37.8150    5.5060 N   0  3  0  0  0  0  0  0  0  0  0  0
  -26.5700  -37.7610    4.9850 C   0  0  2  0  0  0  0  0  0  0  0  0
  -27.5550  -37.4800    6.0970 C   0  0  0  0  0  0  0  0  0  0  0  0
  -27.5630  -38.1750    7.1180 O   0  0  0  0  0  0  0  0  0  0  0  0
  -26.9220  -39.0700    4.2510 C   0  0  0  0  0  0  0  0  0  0  0  0
  -28.3580  -39.1410    3.6830 C   0  0  0  0  0  0  0  0  0  0  0  0
  -28.6070  -40.5290    3.0710 C   0  0  0  0  0  0  0  0  0  0  0  0
  -29.9930  -40.5860    2.5770 N   0  0  0  0  0  0  0  0  0  0  0  0
  -30.3710  -40.9720    1.3620 C   0  0  0  0  0  3  0  0  0  0  0  0
  -29.4730  -41.3930    0.4690 N   0  0  0  0  0  0  0  0  0  0  0  0
  -31.6740  -40.9620    1.0510 N   0  0  0  0  0  0  0  0  0  0  0  0
  -28.3970  -36.4610    5.8940 N   0  0  0  0  0  0  0  0  0  0  0  0
  -29.3880  -36.0550    6.9060 C   0  0  2  0  0  0  0  0  0  0  0  0
  -30.5430  -37.0660    7.0570 C   0  0  0  0  0  0  0  0  0  0  0  0
  -30.9050  -37.7550    6.0990 O   0  0  0  0  0  0  0  0  0  0  0  0
  -30.0000  -34.7140    6.5200 C   0  0  0  0  0  0  0  0  0  0  0  0
  -29.1450  -33.5110    6.7900 C   0  0  0  0  0  0  0  0  0  0  0  0
  -29.6980  -32.3030    6.1140 C   0  0  0  0  0  0  0  0  0  0  0  0
  -30.3060  -31.4570    6.7610 O   0  0  0  0  0  0  0  0  0  0  0  0
  -29.5620  -32.2430    4.7990 N   0  0  0  0  0  0  0  0  0  0  0  0
  -31.1350  -37.1080    8.2450 N   0  0  0  0  0  0  0  0  0  0  0  0
  -32.3860  -37.9000    8.4560 C   0  0  2  0  0  0  0  0  0  0  0  0
  -33.5410  -37.4540    7.5430 C   0  0  0  0  0  0  0  0  0  0  0  0
  -33.7470  -36.2430    7.3100 O   0  0  0  0  0  0  0  0  0  0  0  0
  -32.8180  -37.8160    9.9290 C   0  0  0  0  0  0  0  0  0  0  0  0
  -34.2880  -38.4330    7.0330 N   0  0  0  0  0  0  0  0  0  0  0  0
  -35.4890  -38.1320    6.2400 C   0  0  1  0  0  0  0  0  0  0  0  0
  -35.6530  -39.1380    5.1080 C   0  0  0  0  0  0  0  0  0  0  0  0
  -34.4560  -39.1740    4.3560 O   0  0  0  0  0  0  0  0  0  0  0  0
  -36.7260  -38.1150    7.1210 C   0  0  0  0  0  0  0  0  0  0  0  0
  -37.6230  -38.9570    6.9700 O   0  0  0  0  0  0  0  0  0  0  0  0
  -34.6320  -39.0170    2.7830 P   0  0  0  0  0  0  0  0  0  0  0  0
  -33.1690  -38.7950    2.1660 O   0  0  0  0  0  1  0  0  0  0  0  0
  -35.6680  -37.8490    2.3870 O   0  0  0  0  0  1  0  0  0  0  0  0
  -35.2630  -40.3770    2.2560 O   0  0  0  0  0  0  0  0  0  0  0  0
  -36.7430  -37.1720    8.0460 N   0  0  0  0  0  0  0  0  0  0  0  0
  -37.7780  -37.0840    9.0790 C   0  0  2  0  0  0  0  0  0  0  0  0
  -38.1830  -35.6230    9.1900 C   0  0  0  0  0  0  0  0  0  0  0  0
  -37.3230  -34.7580    9.3310 O   0  0  0  0  0  0  0  0  0  0  0  0
  -37.2230  -37.5800   10.4450 C   0  0  2  0  0  0  0  0  0  0  0  0
  -36.7980  -39.0500   10.3500 C   0  0  0  0  0  0  0  0  0  0  0  0
  -38.2410  -37.3340   11.5970 C   0  0  0  0  0  0  0  0  0  0  0  0
  -35.9820  -39.5730   11.5550 C   0  0  0  0  0  0  0  0  0  0  0  0
  -39.4770  -35.3470    9.0860 N   0  0  0  0  0  0  0  0  0  0  0  0
  -40.0060  -34.0360    9.4450 C   0  0  2  0  0  0  0  0  0  0  0  0
  -40.4080  -34.1080   10.9240 C   0  0  0  0  0  0  0  0  0  0  0  0
  -41.2400  -34.9190   11.2990 O   0  0  0  0  0  0  0  0  0  0  0  0
  -41.1860  -33.6450    8.5400 C   0  0  0  0  0  0  0  0  0  0  0  0
  -40.8210  -32.7920    7.3120 C   0  0  0  0  0  0  0  0  0  0  0  0
  -40.8230  -33.5890    6.0120 C   0  0  0  0  0  0  0  0  0  0  0  0
  -41.6260  -34.5520    5.8950 O   0  5  0  0  0  0  0  0  0  0  0  0
  -40.0200  -33.2510    5.1050 O   0  0  0  0  0  0  0  0  0  0  0  0
  -39.7710  -33.3080   11.7760 N   0  0  0  0  0  0  0  0  0  0  0  0
  -40.0910  -33.3430   13.2050 C   0  0  2  0  0  0  0  0  0  0  0  0
  -41.3770  -32.5550   13.4830 C   0  0  0  0  0  0  0  0  0  0  0  0
  -41.6830  -31.6120   12.7490 O   0  0  0  0  0  0  0  0  0  0  0  0
  -38.9110  -32.8430   14.0440 C   0  0  0  0  0  0  0  0  0  0  0  0
  -37.8240  -33.9150   14.2000 C   0  0  0  0  0  0  0  0  0  0  0  0
  -36.8330  -33.8800   13.0290 C   0  0  0  0  0  0  0  0  0  0  0  0
  -37.1210  -33.7620   15.5260 C   0  0  0  0  0  0  0  0  0  0  0  0
  -42.1560  -32.9550   14.5090 N   0  0  0  0  0  0  0  0  0  0  0  0
  -43.3930  -32.2210   14.7580 C   0  0  2  0  0  0  0  0  0  0  0  0
  -43.0650  -30.8690   15.3580 C   0  0  0  0  0  0  0  0  0  0  0  0
  -41.9280  -30.6470   15.7940 O   0  0  0  0  0  0  0  0  0  0  0  0
  -44.1350  -33.0900   15.7910 C   0  0  0  0  0  0  0  0  0  0  0  0
  -43.3820  -34.3780   15.8530 C   0  0  0  0  0  0  0  0  0  0  0  0
  -41.9740  -34.0480   15.4780 C   0  0  0  0  0  0  0  0  0  0  0  0
  -44.0440  -29.9680   15.3490 N   0  0  0  0  0  0  0  0  0  0  0  0
  -43.9060  -28.6970   16.0440 C   0  0  2  0  0  0  0  0  0  0  0  0
  -43.5500  -28.9560   17.5040 C   0  0  0  0  0  0  0  0  0  0  0  0
  -44.0070  -29.9290   18.1020 O   0  0  0  0  0  0  0  0  0  0  0  0
  -45.2160  -27.9020   15.9630 C   0  0  0  0  0  0  0  0  0  0  0  0
  -45.2810  -27.1830   14.7470 O   0  0  0  0  0  0  0  0  0  0  0  0
  -42.7390  -28.0760   18.0740 N   0  0  0  0  0  0  0  0  0  0  0  0
  -42.4860  -28.1230   19.5000 C   0  0  2  0  0  0  0  0  0  0  0  0
  -43.6880  -27.6630   20.3140 C   0  0  0  0  0  0  0  0  0  0  0  0
  -43.7030  -27.8490   21.5340 O   0  5  0  0  0  0  0  0  0  0  0  0
  -41.2740  -27.2900   19.8420 C   0  0  0  0  0  0  0  0  0  0  0  0
  -39.9670  -27.9640   19.4620 C   0  0  0  0  0  0  0  0  0  0  0  0
  -38.6870  -26.9030   20.0610 S   0  0  0  0  0  0  0  0  0  0  0  0
  -39.4820  -26.3550   21.5410 C   0  0  0  0  0  0  0  0  0  0  0  0
  -44.6500  -27.1200   19.7660 O   0  0  0  0  0  0  0  0  0  0  0  0
  -24.5265  -38.0033    4.7441 H   0  0  0  0  0  0  0  0  0  0  0  0
  -25.0829  -38.5471    6.1946 H   0  0  0  0  0  0  0  0  0  0  0  0
  -24.9226  -36.9307    5.9281 H   0  0  0  0  0  0  0  0  0  0  0  0
  -26.6339  -36.9359    4.2604 H   0  0  0  0  0  0  0  0  0  0  0  0
  -26.7948  -39.9020    4.9592 H   0  0  0  0  0  0  0  0  0  0  0  0
  -26.2187  -39.1903    3.4138 H   0  0  0  0  0  0  0  0  0  0  0  0
  -28.4822  -38.3718    2.9065 H   0  0  0  0  0  0  0  0  0  0  0  0
  -29.0806  -38.9641    4.4933 H   0  0  0  0  0  0  0  0  0  0  0  0
  -28.4550  -41.3038    3.8369 H   0  0  0  0  0  0  0  0  0  0  0  0
  -27.9097  -40.6961    2.2368 H   0  0  0  0  0  0  0  0  0  0  0  0
  -30.7361  -40.3014    3.2310 H   0  0  0  0  0  0  0  0  0  0  0  0
  -29.7791  -41.6893   -0.4688 H   0  0  0  0  0  0  0  0  0  0  0  0
  -28.4739  -41.4217    0.7176 H   0  0  0  0  0  0  0  0  0  0  0  0
  -32.3658  -40.6368    1.7414 H   0  0  0  0  0  0  0  0  0  0  0  0
  -31.9841  -41.2795    0.1215 H   0  0  0  0  0  0  0  0  0  0  0  0
  -28.3527  -35.9598    5.0298 H   0  0  0  0  0  0  0  0  0  0  0  0
  -28.8742  -35.9574    7.8737 H   0  0  0  0  0  0  0  0  0  0  0  0
  -30.9383  -34.5956    7.0818 H   0  0  0  0  0  0  0  0  0  0  0  0
  -30.2186  -34.7391    5.4422 H   0  0  0  0  0  0  0  0  0  0  0  0
  -28.1284  -33.7000    6.4147 H   0  0  0  0  0  0  0  0  0  0  0  0
  -29.1080  -33.3315    7.8746 H   0  0  0  0  0  0  0  0  0  0  0  0
  -29.9150  -31.4545    4.2953 H   0  0  0  0  0  0  0  0  0  0  0  0
  -29.1063  -32.9861    4.3090 H   0  0  0  0  0  0  0  0  0  0  0  0
  -30.7380  -36.6020    9.0107 H   0  0  0  0  0  0  0  0  0  0  0  0
  -32.1606  -38.9507    8.2213 H   0  0  0  0  0  0  0  0  0  0  0  0
  -33.7381  -38.4008   10.0751 H   0  0  0  0  0  0  0  0  0  0  0  0
  -33.0047  -36.7656   10.1970 H   0  0  0  0  0  0  0  0  0  0  0  0
  -32.0204  -38.2215   10.5688 H   0  0  0  0  0  0  0  0  0  0  0  0
  -34.0280  -39.3854    7.1919 H   0  0  0  0  0  0  0  0  0  0  0  0
  -35.3674  -37.1322    5.7977 H   0  0  0  0  0  0  0  0  0  0  0  0
  -36.4880  -38.8332    4.4601 H   0  0  0  0  0  0  0  0  0  0  0  0
  -35.8578  -40.1348    5.5255 H   0  0  0  0  0  0  0  0  0  0  0  0
  -36.0153  -36.4861    8.0408 H   0  0  0  0  0  0  0  0  0  0  0  0
  -38.6464  -37.6955    8.7927 H   0  0  0  0  0  0  0  0  0  0  0  0
  -36.3230  -36.9901   10.6729 H   0  0  0  0  0  0  0  0  0  0  0  0
  -36.1849  -39.1703    9.4447 H   0  0  0  0  0  0  0  0  0  0  0  0
  -37.7070  -39.6631   10.2615 H   0  0  0  0  0  0  0  0  0  0  0  0
  -38.5140  -36.2687   11.6238 H   0  0  0  0  0  0  0  0  0  0  0  0
  -37.7852  -37.6199   12.5564 H   0  0  0  0  0  0  0  0  0  0  0  0
  -39.1431  -37.9394   11.4247 H   0  0  0  0  0  0  0  0  0  0  0  0
  -35.7263  -40.6306   11.3933 H   0  0  0  0  0  0  0  0  0  0  0  0
  -36.5806  -39.4767   12.4728 H   0  0  0  0  0  0  0  0  0  0  0  0
  -35.0586  -38.9839   11.6560 H   0  0  0  0  0  0  0  0  0  0  0  0
  -40.1028  -36.0530    8.7544 H   0  0  0  0  0  0  0  0  0  0  0  0
  -39.2157  -33.2805    9.3242 H   0  0  0  0  0  0  0  0  0  0  0  0
  -41.9053  -33.0757    9.1470 H   0  0  0  0  0  0  0  0  0  0  0  0
  -41.6602  -34.5706    8.1816 H   0  0  0  0  0  0  0  0  0  0  0  0
  -39.8162  -32.3710    7.4636 H   0  0  0  0  0  0  0  0  0  0  0  0
  -41.5516  -31.9745    7.2232 H   0  0  0  0  0  0  0  0  0  0  0  0
  -39.0701  -32.6796   11.4387 H   0  0  0  0  0  0  0  0  0  0  0  0
  -40.2752  -34.3908   13.4845 H   0  0  0  0  0  0  0  0  0  0  0  0
  -39.2783  -32.5614   15.0419 H   0  0  0  0  0  0  0  0  0  0  0  0
  -38.4732  -31.9618   13.5522 H   0  0  0  0  0  0  0  0  0  0  0  0
  -38.3161  -34.8987   14.1912 H   0  0  0  0  0  0  0  0  0  0  0  0
  -36.0693  -34.6587   13.1716 H   0  0  0  0  0  0  0  0  0  0  0  0
  -36.3478  -32.8936   12.9886 H   0  0  0  0  0  0  0  0  0  0  0  0
  -37.3714  -34.0627   12.0874 H   0  0  0  0  0  0  0  0  0  0  0  0
  -37.8613  -33.7918   16.3391 H   0  0  0  0  0  0  0  0  0  0  0  0
  -36.5887  -32.7997   15.5500 H   0  0  0  0  0  0  0  0  0  0  0  0
  -36.4005  -34.5829   15.6559 H   0  0  0  0  0  0  0  0  0  0  0  0
  -43.9828  -32.0981   13.8377 H   0  0  0  0  0  0  0  0  0  0  0  0
  -45.1717  -33.2673   15.4688 H   0  0  0  0  0  0  0  0  0  0  0  0
  -44.1358  -32.5988   16.7752 H   0  0  0  0  0  0  0  0  0  0  0  0
  -43.8066  -35.1039   15.1439 H   0  0  0  0  0  0  0  0  0  0  0  0
  -43.4193  -34.7944   16.8705 H   0  0  0  0  0  0  0  0  0  0  0  0
  -41.3968  -33.7132   16.3525 H   0  0  0  0  0  0  0  0  0  0  0  0
  -41.4721  -34.9108   15.0158 H   0  0  0  0  0  0  0  0  0  0  0  0
  -44.8904  -30.1680   14.8554 H   0  0  0  0  0  0  0  0  0  0  0  0
  -43.1017  -28.1133   15.5725 H   0  0  0  0  0  0  0  0  0  0  0  0
  -45.2642  -27.1956   16.8049 H   0  0  0  0  0  0  0  0  0  0  0  0
  -46.0663  -28.5976   16.0188 H   0  0  0  0  0  0  0  0  0  0  0  0
  -46.0962  -26.6965   14.7113 H   0  0  0  0  0  0  0  0  0  0  0  0
  -42.2980  -27.3737   17.5152 H   0  0  0  0  0  0  0  0  0  0  0  0
  -42.2743  -29.1678   19.7713 H   0  0  0  0  0  0  0  0  0  0  0  0
  -41.2706  -27.1039   20.9261 H   0  0  0  0  0  0  0  0  0  0  0  0
  -41.3438  -26.3321   19.3057 H   0  0  0  0  0  0  0  0  0  0  0  0
  -39.8951  -28.0722   18.3697 H   0  0  0  0  0  0  0  0  0  0  0  0
  -39.8955  -28.9549   19.9341 H   0  0  0  0  0  0  0  0  0  0  0  0
  -38.8198  -25.6589   22.0767 H   0  0  0  0  0  0  0  0  0  0  0  0
  -39.6995  -27.2214   22.1828 H   0  0  0  0  0  0  0  0  0  0  0  0
  -40.4215  -25.8434   21.2848 H   0  0  0  0  0  0  0  0  0  0  0  0
  1  2  1  0  0  0  0
  1 83  1  0  0  0  0
  1 84  1  0  0  0  0
  1 85  1  0  0  0  0
  2  3  1  0  0  0  0
  2  5  1  0  0  0  0
  2 86  1  6  0  0  0
  3  4  2  0  0  0  0
  3 12  1  0  0  0  0
  5  6  1  0  0  0  0
  5 87  1  0  0  0  0
  5 88  1  0  0  0  0
  6  7  1  0  0  0  0
  6 89  1  0  0  0  0
  6 90  1  0  0  0  0
  7  8  1  0  0  0  0
  7 91  1  0  0  0  0
  7 92  1  0  0  0  0
  8  9  1  0  0  0  0
  8 93  1  0  0  0  0
  9 10  1  0  0  0  0
  9 11  1  0  0  0  0
 10 94  1  0  0  0  0
 10 95  1  0  0  0  0
 11 96  1  0  0  0  0
 11 97  1  0  0  0  0
 12 13  1  0  0  0  0
 12 98  1  0  0  0  0
 13 14  1  0  0  0  0
 13 16  1  0  0  0  0
 13 99  1  1  0  0  0
 14 15  2  0  0  0  0
 14 21  1  0  0  0  0
 16 17  1  0  0  0  0
 16100  1  0  0  0  0
 16101  1  0  0  0  0
 17 18  1  0  0  0  0
 17102  1  0  0  0  0
 17103  1  0  0  0  0
 18 19  2  0  0  0  0
 18 20  1  0  0  0  0
 20104  1  0  0  0  0
 20105  1  0  0  0  0
 21 22  1  0  0  0  0
 21106  1  0  0  0  0
 22 23  1  0  0  0  0
 22 25  1  0  0  0  0
 22107  1  6  0  0  0
 23 24  2  0  0  0  0
 23 26  1  0  0  0  0
 25108  1  0  0  0  0
 25109  1  0  0  0  0
 25110  1  0  0  0  0
 26 27  1  0  0  0  0
 26111  1  0  0  0  0
 27 28  1  0  0  0  0
 27 30  1  0  0  0  0
 27112  1  6  0  0  0
 28 29  1  0  0  0  0
 28113  1  0  0  0  0
 28114  1  0  0  0  0
 29 32  1  0  0  0  0
 30 31  2  0  0  0  0
 30 36  1  0  0  0  0
 32 33  1  0  0  0  0
 32 34  1  0  0  0  0
 32 35  2  0  0  0  0
 36 37  1  0  0  0  0
 36115  1  0  0  0  0
 37 38  1  0  0  0  0
 37 40  1  0  0  0  0
 37116  1  6  0  0  0
 38 39  2  0  0  0  0
 38 44  1  0  0  0  0
 40 41  1  0  0  0  0
 40 42  1  0  0  0  0
 40117  1  1  0  0  0
 41 43  1  0  0  0  0
 41118  1  0  0  0  0
 41119  1  0  0  0  0
 42120  1  0  0  0  0
 42121  1  0  0  0  0
 42122  1  0  0  0  0
 43123  1  0  0  0  0
 43124  1  0  0  0  0
 43125  1  0  0  0  0
 44 45  1  0  0  0  0
 44126  1  0  0  0  0
 45 46  1  0  0  0  0
 45 48  1  0  0  0  0
 45127  1  6  0  0  0
 46 47  2  0  0  0  0
 46 53  1  0  0  0  0
 48 49  1  0  0  0  0
 48128  1  0  0  0  0
 48129  1  0  0  0  0
 49 50  1  0  0  0  0
 49130  1  0  0  0  0
 49131  1  0  0  0  0
 50 51  1  0  0  0  0
 50 52  2  0  0  0  0
 53 54  1  0  0  0  0
 53132  1  0  0  0  0
 54 55  1  0  0  0  0
 54 57  1  0  0  0  0
 54133  1  1  0  0  0
 55 56  2  0  0  0  0
 55 61  1  0  0  0  0
 57 58  1  0  0  0  0
 57134  1  0  0  0  0
 57135  1  0  0  0  0
 58 59  1  0  0  0  0
 58 60  1  0  0  0  0
 58136  1  0  0  0  0
 59137  1  0  0  0  0
 59138  1  0  0  0  0
 59139  1  0  0  0  0
 60140  1  0  0  0  0
 60141  1  0  0  0  0
 60142  1  0  0  0  0
 61 62  1  0  0  0  0
 61 67  1  0  0  0  0
 62 63  1  0  0  0  0
 62 65  1  0  0  0  0
 62143  1  6  0  0  0
 63 64  2  0  0  0  0
 63 68  1  0  0  0  0
 65 66  1  0  0  0  0
 65144  1  0  0  0  0
 65145  1  0  0  0  0
 66 67  1  0  0  0  0
 66146  1  0  0  0  0
 66147  1  0  0  0  0
 67148  1  0  0  0  0
 67149  1  0  0  0  0
 68 69  1  0  0  0  0
 68150  1  0  0  0  0
 69 70  1  0  0  0  0
 69 72  1  0  0  0  0
 69151  1  6  0  0  0
 70 71  2  0  0  0  0
 70 74  1  0  0  0  0
 72 73  1  0  0  0  0
 72152  1  0  0  0  0
 72153  1  0  0  0  0
 73154  1  0  0  0  0
 74 75  1  0  0  0  0
 74155  1  0  0  0  0
 75 76  1  0  0  0  0
 75 78  1  0  0  0  0
 75156  1  1  0  0  0
 76 77  1  0  0  0  0
 76 82  2  0  0  0  0
 78 79  1  0  0  0  0
 78157  1  0  0  0  0
 78158  1  0  0  0  0
 79 80  1  0  0  0  0
 79159  1  0  0  0  0
 79160  1  0  0  0  0
 80 81  1  0  0  0  0
 81161  1  0  0  0  0
 81162  1  0  0  0  0
 81163  1  0  0  0  0
M  CHG  3   1   1  51  -1  77  -1
M  END
