3bh9_ligand
 OpenBabel08222323343D

166167  0  0  1  0  0  0  0  0999 V2000
  -25.5860  -37.5680    5.7020 N   0  3  0  0  0  0  0  0  0  0  0  0
  -26.9120  -37.3830    5.1240 C   0  0  2  0  0  0  0  0  0  0  0  0
  -27.9460  -37.0770    6.2020 C   0  0  0  0  0  0  0  0  0  0  0  0
  -27.7700  -37.4410    7.3650 O   0  0  0  0  0  0  0  0  0  0  0  0
  -27.3290  -38.6230    4.3310 C   0  0  0  0  0  0  0  0  0  0  0  0
  -28.7570  -38.5770    3.8120 C   0  0  0  0  0  0  0  0  0  0  0  0
  -29.2480  -39.9610    3.4220 C   0  0  0  0  0  0  0  0  0  0  0  0
  -30.5100  -39.9080    2.6900 N   0  0  0  0  0  0  0  0  0  0  0  0
  -30.6120  -40.0050    1.3690 C   0  0  0  0  0  3  0  0  0  0  0  0
  -29.5240  -40.1610    0.6270 N   0  0  0  0  0  0  0  0  0  0  0  0
  -31.8030  -39.9470    0.7880 N   0  0  0  0  0  0  0  0  0  0  0  0
  -29.0250  -36.4080    5.8090 N   0  0  0  0  0  0  0  0  0  0  0  0
  -29.8650  -35.6840    6.7550 C   0  0  2  0  0  0  0  0  0  0  0  0
  -31.1300  -36.4710    7.0830 C   0  0  0  0  0  0  0  0  0  0  0  0
  -31.7250  -37.1000    6.2080 O   0  0  0  0  0  0  0  0  0  0  0  0
  -30.2600  -34.2980    6.2140 C   0  0  2  0  0  0  0  0  0  0  0  0
  -30.1040  -33.3160    7.2460 O   0  0  0  0  0  0  0  0  0  0  0  0
  -31.7050  -34.3030    5.7390 C   0  0  0  0  0  0  0  0  0  0  0  0
  -31.5340  -36.4310    8.3480 N   0  0  0  0  0  0  0  0  0  0  0  0
  -32.7560  -37.0970    8.7830 C   0  0  2  0  0  0  0  0  0  0  0  0
  -33.9070  -36.8200    7.8220 C   0  0  0  0  0  0  0  0  0  0  0  0
  -34.1770  -35.6700    7.4760 O   0  0  0  0  0  0  0  0  0  0  0  0
  -33.1340  -36.6530   10.1970 C   0  0  0  0  0  0  0  0  0  0  0  0
  -34.3390  -37.3700   10.7630 C   0  0  0  0  0  0  0  0  0  0  0  0
  -34.4250  -38.7560   10.7330 C   0  0  0  0  0  0  0  0  0  0  0  0
  -35.3910  -36.6610   11.3280 C   0  0  0  0  0  0  0  0  0  0  0  0
  -35.5240  -39.4150   11.2490 C   0  0  0  0  0  0  0  0  0  0  0  0
  -36.4950  -37.3120   11.8460 C   0  0  0  0  0  0  0  0  0  0  0  0
  -36.5560  -38.6890   11.8040 C   0  0  0  0  0  0  0  0  0  0  0  0
  -37.6530  -39.3410   12.3190 O   0  0  0  0  0  0  0  0  0  0  0  0
  -34.5820  -37.8820    7.3930 N   0  0  0  0  0  0  0  0  0  0  0  0
  -35.7260  -37.7530    6.4590 C   0  0  1  0  0  0  0  0  0  0  0  0
  -35.8320  -38.9600    5.5380 C   0  0  0  0  0  0  0  0  0  0  0  0
  -34.6930  -38.9640    4.7330 O   0  0  0  0  0  0  0  0  0  0  0  0
  -37.0670  -37.4570    7.1040 C   0  0  0  0  0  0  0  0  0  0  0  0
  -38.1030  -37.3800    6.4090 O   0  0  0  0  0  0  0  0  0  0  0  0
  -34.9230  -39.2170    3.1710 P   0  0  0  0  0  0  0  0  0  0  0  0
  -33.5210  -38.9120    2.4880 O   0  0  0  0  0  1  0  0  0  0  0  0
  -36.1190  -38.2880    2.6570 O   0  0  0  0  0  1  0  0  0  0  0  0
  -35.2790  -40.7730    2.9940 O   0  0  0  0  0  0  0  0  0  0  0  0
  -37.0540  -37.2920    8.4220 N   0  0  0  0  0  0  0  0  0  0  0  0
  -38.2020  -36.7040    9.1240 C   0  0  0  0  0  0  0  0  0  0  0  0
  -39.3030  -37.7390    9.2610 C   0  0  0  0  0  0  0  0  0  0  0  0
  -39.0270  -38.9530    9.2320 O   0  0  0  0  0  0  0  0  0  0  0  0
  -40.5550  -37.2740    9.4470 N   0  0  0  0  0  0  0  0  0  0  0  0
  -40.9660  -35.8430    9.5690 C   0  0  2  0  0  0  0  0  0  0  0  0
  -40.3680  -35.1230   10.7850 C   0  0  0  0  0  0  0  0  0  0  0  0
  -40.0840  -35.7660   11.7960 O   0  0  0  0  0  0  0  0  0  0  0  0
  -42.4910  -35.9280    9.7610 C   0  0  0  0  0  0  0  0  0  0  0  0
  -42.7460  -37.3580   10.2610 C   0  0  0  0  0  0  0  0  0  0  0  0
  -41.7010  -38.2010    9.5700 C   0  0  0  0  0  0  0  0  0  0  0  0
  -40.1730  -33.8080   10.6910 N   0  0  0  0  0  0  0  0  0  0  0  0
  -39.7030  -33.0290   11.8460 C   0  0  2  0  0  0  0  0  0  0  0  0
  -40.8780  -32.6140   12.7480 C   0  0  0  0  0  0  0  0  0  0  0  0
  -41.5530  -31.6260   12.4740 O   0  0  0  0  0  0  0  0  0  0  0  0
  -38.9390  -31.7690   11.4160 C   0  0  0  0  0  0  0  0  0  0  0  0
  -37.6360  -31.9710   10.6260 C   0  0  0  0  0  0  0  0  0  0  0  0
  -36.5630  -33.2860   11.2340 S   0  0  0  0  0  0  0  0  0  0  0  0
  -36.2480  -32.8350   12.9400 C   0  0  0  0  0  0  0  0  0  0  0  0
  -41.0850  -33.3380   13.8420 N   0  0  0  0  0  0  0  0  0  0  0  0
  -42.2320  -33.0580   14.7140 C   0  0  2  0  0  0  0  0  0  0  0  0
  -42.0540  -31.7380   15.4660 C   0  0  0  0  0  0  0  0  0  0  0  0
  -40.9870  -31.4910   16.0110 O   0  0  0  0  0  0  0  0  0  0  0  0
  -42.4350  -34.2040   15.6920 C   0  0  0  0  0  0  0  0  0  0  0  0
  -43.3370  -35.2920   15.1290 C   0  0  0  0  0  0  0  0  0  0  0  0
  -43.1150  -35.7880   14.0030 O   0  0  0  0  0  0  0  0  0  0  0  0
  -44.3470  -35.6820   15.9020 N   0  0  0  0  0  0  0  0  0  0  0  0
  -43.0920  -30.8960   15.4830 N   0  0  0  0  0  0  0  0  0  0  0  0
  -43.0530  -29.5950   16.1820 C   0  0  2  0  0  0  0  0  0  0  0  0
  -42.9730  -29.7680   17.6900 C   0  0  0  0  0  0  0  0  0  0  0  0
  -43.5220  -30.7430   18.2330 O   0  0  0  0  0  0  0  0  0  0  0  0
  -44.3300  -28.8010   15.8710 C   0  0  0  0  0  0  0  0  0  0  0  0
  -44.2430  -27.8930   14.6520 C   0  0  0  0  0  0  0  0  0  0  0  0
  -44.0020  -28.6530   13.3860 C   0  0  0  0  0  0  0  0  0  0  0  0
  -44.2990  -27.7700   12.1830 C   0  0  0  0  0  0  0  0  0  0  0  0
  -44.0240  -28.5030   10.9200 N   0  3  0  0  0  0  0  0  0  0  0  0
  -42.3650  -28.8030   18.3860 N   0  0  0  0  0  0  0  0  0  0  0  0
  -42.3320  -28.8570   19.8540 C   0  0  2  0  0  0  0  0  0  0  0  0
  -43.6990  -28.5450   20.4660 C   0  0  0  0  0  0  0  0  0  0  0  0
  -43.9320  -28.8510   21.6510 O   0  5  0  0  0  0  0  0  0  0  0  0
  -41.2300  -27.9590   20.4790 C   0  0  0  0  0  0  0  0  0  0  0  0
  -39.8740  -28.3250   19.8970 C   0  0  0  0  0  0  0  0  0  0  0  0
  -41.5320  -26.4510   20.2950 C   0  0  0  0  0  0  0  0  0  0  0  0
  -44.5660  -27.9870   19.7740 O   0  0  0  0  0  0  0  0  0  0  0  0
  -24.9246  -37.7684    4.9682 H   0  0  0  0  0  0  0  0  0  0  0  0
  -25.6078  -38.3366    6.3538 H   0  0  0  0  0  0  0  0  0  0  0  0
  -25.3090  -36.7269    6.1835 H   0  0  0  0  0  0  0  0  0  0  0  0
  -26.8696  -36.5274    4.4340 H   0  0  0  0  0  0  0  0  0  0  0  0
  -27.2274  -39.5016    4.9851 H   0  0  0  0  0  0  0  0  0  0  0  0
  -26.6519  -38.7264    3.4703 H   0  0  0  0  0  0  0  0  0  0  0  0
  -28.7966  -37.9211    2.9298 H   0  0  0  0  0  0  0  0  0  0  0  0
  -29.4113  -38.1733    4.5987 H   0  0  0  0  0  0  0  0  0  0  0  0
  -29.3921  -40.5570    4.3352 H   0  0  0  0  0  0  0  0  0  0  0  0
  -28.4891  -40.4410    2.7868 H   0  0  0  0  0  0  0  0  0  0  0  0
  -31.3771  -39.7877    3.2327 H   0  0  0  0  0  0  0  0  0  0  0  0
  -29.6054  -40.2360   -0.3970 H   0  0  0  0  0  0  0  0  0  0  0  0
  -28.5975  -40.2072    1.0747 H   0  0  0  0  0  0  0  0  0  0  0  0
  -32.6502  -39.8259    1.3611 H   0  0  0  0  0  0  0  0  0  0  0  0
  -31.8806  -40.0231   -0.2363 H   0  0  0  0  0  0  0  0  0  0  0  0
  -29.2670  -36.4011    4.8387 H   0  0  0  0  0  0  0  0  0  0  0  0
  -29.2905  -35.5443    7.6826 H   0  0  0  0  0  0  0  0  0  0  0  0
  -29.6044  -34.0431    5.3684 H   0  0  0  0  0  0  0  0  0  0  0  0
  -30.6628  -33.5393    7.9811 H   0  0  0  0  0  0  0  0  0  0  0  0
  -31.9687  -33.3059    5.3566 H   0  0  0  0  0  0  0  0  0  0  0  0
  -32.3664  -34.5600    6.5795 H   0  0  0  0  0  0  0  0  0  0  0  0
  -31.8249  -35.0466    4.9374 H   0  0  0  0  0  0  0  0  0  0  0  0
  -30.9860  -35.9314    9.0189 H   0  0  0  0  0  0  0  0  0  0  0  0
  -32.5707  -38.1812    8.7967 H   0  0  0  0  0  0  0  0  0  0  0  0
  -33.3513  -35.5749   10.1750 H   0  0  0  0  0  0  0  0  0  0  0  0
  -32.2765  -36.8408   10.8598 H   0  0  0  0  0  0  0  0  0  0  0  0
  -33.6157  -39.3305   10.2971 H   0  0  0  0  0  0  0  0  0  0  0  0
  -35.3457  -35.5785   11.3634 H   0  0  0  0  0  0  0  0  0  0  0  0
  -35.5746  -40.4974   11.2176 H   0  0  0  0  0  0  0  0  0  0  0  0
  -37.3080  -36.7434   12.2827 H   0  0  0  0  0  0  0  0  0  0  0  0
  -38.4334  -39.0600   11.8557 H   0  0  0  0  0  0  0  0  0  0  0  0
  -34.3110  -38.7914    7.7085 H   0  0  0  0  0  0  0  0  0  0  0  0
  -35.4974  -36.8856    5.8223 H   0  0  0  0  0  0  0  0  0  0  0  0
  -36.7344  -38.8803    4.9141 H   0  0  0  0  0  0  0  0  0  0  0  0
  -35.8773  -39.8848    6.1319 H   0  0  0  0  0  0  0  0  0  0  0  0
  -36.2491  -37.5728    8.9448 H   0  0  0  0  0  0  0  0  0  0  0  0
  -38.5786  -35.8432    8.5519 H   0  0  0  0  0  0  0  0  0  0  0  0
  -37.8874  -36.3705   10.1239 H   0  0  0  0  0  0  0  0  0  0  0  0
  -40.7047  -35.2914    8.6539 H   0  0  0  0  0  0  0  0  0  0  0  0
  -43.0117  -35.7524    8.8081 H   0  0  0  0  0  0  0  0  0  0  0  0
  -42.8293  -35.1916   10.5048 H   0  0  0  0  0  0  0  0  0  0  0  0
  -43.7572  -37.6907    9.9840 H   0  0  0  0  0  0  0  0  0  0  0  0
  -42.6281  -37.4133   11.3532 H   0  0  0  0  0  0  0  0  0  0  0  0
  -41.4361  -39.0789   10.1775 H   0  0  0  0  0  0  0  0  0  0  0  0
  -42.0503  -38.5315    8.5807 H   0  0  0  0  0  0  0  0  0  0  0  0
  -40.3489  -33.3445    9.8225 H   0  0  0  0  0  0  0  0  0  0  0  0
  -39.0215  -33.6655   12.4294 H   0  0  0  0  0  0  0  0  0  0  0  0
  -38.6890  -31.2067   12.3277 H   0  0  0  0  0  0  0  0  0  0  0  0
  -39.6159  -31.1696   10.7895 H   0  0  0  0  0  0  0  0  0  0  0  0
  -37.0698  -31.0285   10.6575 H   0  0  0  0  0  0  0  0  0  0  0  0
  -37.9025  -32.2041    9.5845 H   0  0  0  0  0  0  0  0  0  0  0  0
  -35.5929  -33.5875   13.4032 H   0  0  0  0  0  0  0  0  0  0  0  0
  -37.2000  -32.7899   13.4892 H   0  0  0  0  0  0  0  0  0  0  0  0
  -35.7577  -31.8509   12.9746 H   0  0  0  0  0  0  0  0  0  0  0  0
  -40.4549  -34.0792   14.0733 H   0  0  0  0  0  0  0  0  0  0  0  0
  -43.1304  -32.9751   14.0847 H   0  0  0  0  0  0  0  0  0  0  0  0
  -42.8907  -33.8077   16.6114 H   0  0  0  0  0  0  0  0  0  0  0  0
  -41.4553  -34.6445   15.9288 H   0  0  0  0  0  0  0  0  0  0  0  0
  -44.9734  -36.3940   15.5848 H   0  0  0  0  0  0  0  0  0  0  0  0
  -44.4798  -35.2631   16.8003 H   0  0  0  0  0  0  0  0  0  0  0  0
  -43.9293  -31.1574   15.0029 H   0  0  0  0  0  0  0  0  0  0  0  0
  -42.1741  -29.0319   15.8349 H   0  0  0  0  0  0  0  0  0  0  0  0
  -44.5648  -28.1764   16.7455 H   0  0  0  0  0  0  0  0  0  0  0  0
  -45.1461  -29.5193   15.7037 H   0  0  0  0  0  0  0  0  0  0  0  0
  -43.4160  -27.1829   14.7997 H   0  0  0  0  0  0  0  0  0  0  0  0
  -45.1889  -27.3397   14.5563 H   0  0  0  0  0  0  0  0  0  0  0  0
  -44.6581  -29.5355   13.3606 H   0  0  0  0  0  0  0  0  0  0  0  0
  -42.9512  -28.9762   13.3498 H   0  0  0  0  0  0  0  0  0  0  0  0
  -43.6640  -26.8729   12.2266 H   0  0  0  0  0  0  0  0  0  0  0  0
  -45.3575  -27.4715   12.2053 H   0  0  0  0  0  0  0  0  0  0  0  0
  -44.2255  -27.9051   10.1339 H   0  0  0  0  0  0  0  0  0  0  0  0
  -44.6059  -29.3248   10.8749 H   0  0  0  0  0  0  0  0  0  0  0  0
  -43.0541  -28.7762   10.8944 H   0  0  0  0  0  0  0  0  0  0  0  0
  -41.9306  -28.0409   17.9059 H   0  0  0  0  0  0  0  0  0  0  0  0
  -42.0866  -29.8947   20.1242 H   0  0  0  0  0  0  0  0  0  0  0  0
  -41.2024  -28.1624   21.5597 H   0  0  0  0  0  0  0  0  0  0  0  0
  -39.0985  -27.6855   20.3438 H   0  0  0  0  0  0  0  0  0  0  0  0
  -39.8900  -28.1749   18.8074 H   0  0  0  0  0  0  0  0  0  0  0  0
  -39.6523  -29.3793   20.1187 H   0  0  0  0  0  0  0  0  0  0  0  0
  -42.5174  -26.2192   20.7255 H   0  0  0  0  0  0  0  0  0  0  0  0
  -41.5334  -26.2055   19.2228 H   0  0  0  0  0  0  0  0  0  0  0  0
  -40.7598  -25.8573   20.8062 H   0  0  0  0  0  0  0  0  0  0  0  0
  1  2  1  0  0  0  0
  1 85  1  0  0  0  0
  1 86  1  0  0  0  0
  1 87  1  0  0  0  0
  2  3  1  0  0  0  0
  2  5  1  0  0  0  0
  2 88  1  6  0  0  0
  3  4  2  0  0  0  0
  3 12  1  0  0  0  0
  5  6  1  0  0  0  0
  5 89  1  0  0  0  0
  5 90  1  0  0  0  0
  6  7  1  0  0  0  0
  6 91  1  0  0  0  0
  6 92  1  0  0  0  0
  7  8  1  0  0  0  0
  7 93  1  0  0  0  0
  7 94  1  0  0  0  0
  8  9  1  0  0  0  0
  8 95  1  0  0  0  0
  9 10  1  0  0  0  0
  9 11  1  0  0  0  0
 10 96  1  0  0  0  0
 10 97  1  0  0  0  0
 11 98  1  0  0  0  0
 11 99  1  0  0  0  0
 12 13  1  0  0  0  0
 12100  1  0  0  0  0
 13 14  1  0  0  0  0
 13 16  1  0  0  0  0
 13101  1  1  0  0  0
 14 15  2  0  0  0  0
 14 19  1  0  0  0  0
 16 17  1  0  0  0  0
 16 18  1  0  0  0  0
 16102  1  6  0  0  0
 17103  1  0  0  0  0
 18104  1  0  0  0  0
 18105  1  0  0  0  0
 18106  1  0  0  0  0
 19 20  1  0  0  0  0
 19107  1  0  0  0  0
 20 21  1  0  0  0  0
 20 23  1  0  0  0  0
 20108  1  1  0  0  0
 21 22  2  0  0  0  0
 21 31  1  0  0  0  0
 23 24  1  0  0  0  0
 23109  1  0  0  0  0
 23110  1  0  0  0  0
 24 25  2  0  0  0  0
 24 26  1  0  0  0  0
 25 27  1  0  0  0  0
 25111  1  0  0  0  0
 26 28  2  0  0  0  0
 26112  1  0  0  0  0
 27 29  2  0  0  0  0
 27113  1  0  0  0  0
 28 29  1  0  0  0  0
 28114  1  0  0  0  0
 29 30  1  0  0  0  0
 30115  1  0  0  0  0
 31 32  1  0  0  0  0
 31116  1  0  0  0  0
 32 33  1  0  0  0  0
 32 35  1  0  0  0  0
 32117  1  6  0  0  0
 33 34  1  0  0  0  0
 33118  1  0  0  0  0
 33119  1  0  0  0  0
 34 37  1  0  0  0  0
 35 36  2  0  0  0  0
 35 41  1  0  0  0  0
 37 38  1  0  0  0  0
 37 39  1  0  0  0  0
 37 40  2  0  0  0  0
 41 42  1  0  0  0  0
 41120  1  0  0  0  0
 42 43  1  0  0  0  0
 42121  1  0  0  0  0
 42122  1  0  0  0  0
 43 44  2  0  0  0  0
 43 45  1  0  0  0  0
 45 46  1  0  0  0  0
 45 51  1  0  0  0  0
 46 47  1  0  0  0  0
 46 49  1  0  0  0  0
 46123  1  6  0  0  0
 47 48  2  0  0  0  0
 47 52  1  0  0  0  0
 49 50  1  0  0  0  0
 49124  1  0  0  0  0
 49125  1  0  0  0  0
 50 51  1  0  0  0  0
 50126  1  0  0  0  0
 50127  1  0  0  0  0
 51128  1  0  0  0  0
 51129  1  0  0  0  0
 52 53  1  0  0  0  0
 52130  1  0  0  0  0
 53 54  1  0  0  0  0
 53 56  1  0  0  0  0
 53131  1  1  0  0  0
 54 55  2  0  0  0  0
 54 60  1  0  0  0  0
 56 57  1  0  0  0  0
 56132  1  0  0  0  0
 56133  1  0  0  0  0
 57 58  1  0  0  0  0
 57134  1  0  0  0  0
 57135  1  0  0  0  0
 58 59  1  0  0  0  0
 59136  1  0  0  0  0
 59137  1  0  0  0  0
 59138  1  0  0  0  0
 60 61  1  0  0  0  0
 60139  1  0  0  0  0
 61 62  1  0  0  0  0
 61 64  1  0  0  0  0
 61140  1  6  0  0  0
 62 63  2  0  0  0  0
 62 68  1  0  0  0  0
 64 65  1  0  0  0  0
 64141  1  0  0  0  0
 64142  1  0  0  0  0
 65 66  2  0  0  0  0
 65 67  1  0  0  0  0
 67143  1  0  0  0  0
 67144  1  0  0  0  0
 68 69  1  0  0  0  0
 68145  1  0  0  0  0
 69 70  1  0  0  0  0
 69 72  1  0  0  0  0
 69146  1  6  0  0  0
 70 71  2  0  0  0  0
 70 77  1  0  0  0  0
 72 73  1  0  0  0  0
 72147  1  0  0  0  0
 72148  1  0  0  0  0
 73 74  1  0  0  0  0
 73149  1  0  0  0  0
 73150  1  0  0  0  0
 74 75  1  0  0  0  0
 74151  1  0  0  0  0
 74152  1  0  0  0  0
 75 76  1  0  0  0  0
 75153  1  0  0  0  0
 75154  1  0  0  0  0
 76155  1  0  0  0  0
 76156  1  0  0  0  0
 76157  1  0  0  0  0
 77 78  1  0  0  0  0
 77158  1  0  0  0  0
 78 79  1  0  0  0  0
 78 81  1  0  0  0  0
 78159  1  1  0  0  0
 79 80  1  0  0  0  0
 79 84  2  0  0  0  0
 81 82  1  0  0  0  0
 81 83  1  0  0  0  0
 81160  1  0  0  0  0
 82161  1  0  0  0  0
 82162  1  0  0  0  0
 82163  1  0  0  0  0
 83164  1  0  0  0  0
 83165  1  0  0  0  0
 83166  1  0  0  0  0
M  CHG  3   1   1  76   1  80  -1
M  END
