3bho_ligand_experimental
 OpenBabel08222323343D

 81 86  0  0  1  0  0  0  0  0999 V2000
   22.2010    6.0890   19.4520 P   0  0  1  0  0  0  0  0  0  0  0  0
   22.4160    6.7450   18.1440 O   0  0  0  0  0  0  0  0  0  0  0  0
   21.4760    6.8640   20.4780 O   0  0  0  0  0  0  0  0  0  0  0  0
   21.7700    4.5490   19.2900 O   0  0  0  0  0  0  0  0  0  0  0  0
   20.3440    3.8960   18.9170 P   0  0  2  0  0  0  0  0  0  0  0  0
   20.8570    2.6430   18.3770 O   0  0  0  0  0  0  0  0  0  0  0  0
   19.5610    4.7000   17.9510 O   0  0  0  0  0  0  0  0  0  0  0  0
   19.5800    3.5560   20.3040 O   0  0  0  0  0  0  0  0  0  0  0  0
   17.9850    3.5570   20.6060 P   0  0  1  0  0  0  0  0  0  0  0  0
   17.4760    4.9260   20.8660 O   0  0  0  0  0  0  0  0  0  0  0  0
   17.2890    2.7600   19.5580 O   0  0  0  0  0  0  0  0  0  0  0  0
   18.0820    2.6800   21.9670 O   0  0  0  0  0  0  0  0  0  0  0  0
   16.9450    2.3260   23.1010 P   0  0  1  0  0  0  0  0  0  0  0  0
   16.9750    0.8380   23.2480 O   0  0  0  0  0  0  0  0  0  0  0  0
   17.3170    3.0500   24.3360 O   0  0  0  0  0  0  0  0  0  0  0  0
   23.6940    5.9840   20.0100 O   0  0  0  0  0  0  0  0  0  0  0  0
   23.8630    5.5330   21.3430 C   0  0  0  0  0  0  0  0  0  0  0  0
   24.8680    6.4170   22.0620 C   0  0  1  0  0  0  0  0  0  0  0  0
   26.1970    6.2030   21.5830 O   0  0  0  0  0  0  0  0  0  0  0  0
   24.6770    7.9450   21.9240 C   0  0  1  0  0  0  0  0  0  0  0  0
   25.3460    8.5320   23.0160 O   0  0  0  0  0  0  0  0  0  0  0  0
   25.4430    8.2950   20.6280 C   0  0  1  0  0  0  0  0  0  0  0  0
   26.1450    9.5480   20.7160 O   0  0  0  0  0  0  0  0  0  0  0  0
   26.4210    7.1500   20.5620 C   0  0  2  0  0  0  0  0  0  0  0  0
   27.1120    6.8240   19.3450 N   0  0  0  0  0  0  0  0  0  0  0  0
   26.4890    6.6950   18.1350 C   0  0  0  0  0  0  0  0  0  0  0  0
   27.2950    6.2750   17.2230 N   0  0  0  0  0  0  0  0  0  0  0  0
   28.5290    6.1240   17.7970 C   0  0  0  0  0  0  0  0  0  0  0  0
   29.7350    5.6490   17.2850 C   0  0  0  0  0  0  0  0  0  0  0  0
   29.7710    5.1900   16.0240 N   0  0  0  0  0  4  0  0  0  0  0  0
   30.7930    5.6690   18.1300 N   0  0  0  0  0  4  0  0  0  0  0  0
   30.5950    6.0100   19.4140 C   0  0  0  0  0  0  0  0  0  0  0  0
   29.5080    6.4640   20.0230 N   0  0  0  0  0  0  0  0  0  0  0  0
   28.4400    6.4870   19.1680 C   0  0  0  0  0  0  0  0  0  0  0  0
   13.1780    3.3990   22.7440 O   0  0  0  0  0  0  0  0  0  0  0  0
   13.0960    3.3700   24.1770 C   0  0  0  0  0  0  0  0  0  0  0  0
   11.7970    2.6480   24.6460 C   0  0  1  0  0  0  0  0  0  0  0  0
   10.6420    3.0520   23.8720 O   0  0  0  0  0  0  0  0  0  0  0  0
   11.8500    1.1180   24.4420 C   0  0  1  0  0  0  0  0  0  0  0  0
   12.5350    0.4500   25.4900 O   0  0  0  0  0  0  0  0  0  0  0  0
   10.4020    0.6980   24.3180 C   0  0  1  0  0  0  0  0  0  0  0  0
    9.7060    0.8890   25.5190 O   0  0  0  0  0  0  0  0  0  0  0  0
   10.0660    1.8300   23.4140 C   0  0  2  0  0  0  0  0  0  0  0  0
    9.7470    1.6160   22.0230 N   0  0  0  0  0  0  0  0  0  0  0  0
   10.1820    2.3740   20.9670 C   0  0  0  0  0  0  0  0  0  0  0  0
    9.8210    1.8880   19.8150 N   0  0  0  0  0  0  0  0  0  0  0  0
    9.0990    0.7300   20.0870 C   0  0  0  0  0  0  0  0  0  0  0  0
    8.4870   -0.2250   19.2720 C   0  0  0  0  0  0  0  0  0  0  0  0
    8.6690   -0.2220   17.9560 N   0  0  0  0  0  4  0  0  0  0  0  0
    7.7990   -1.1990   19.8790 N   0  0  0  0  0  4  0  0  0  0  0  0
    7.7630   -1.1990   21.2080 C   0  0  0  0  0  0  0  0  0  0  0  0
    8.3730   -0.4260   22.1080 N   0  0  0  0  0  0  0  0  0  0  0  0
    9.0340    0.5710   21.4990 C   0  0  0  0  0  0  0  0  0  0  0  0
   21.3370    6.4420   21.3180 H   0  0  0  0  0  0  0  0  0  0  0  0
   18.7200    4.3150   17.7310 H   0  0  0  0  0  0  0  0  0  0  0  0
   16.3550    2.7600   19.7340 H   0  0  0  0  0  0  0  0  0  0  0  0
   16.6600    2.8450   24.9910 H   0  0  0  0  0  0  0  0  0  0  0  0
   22.8930    5.4690   21.8900 H   0  0  0  0  0  0  0  0  0  0  0  0
   24.1440    4.4550   21.3880 H   0  0  0  0  0  0  0  0  0  0  0  0
   24.6960    6.1140   23.1210 H   0  0  0  0  0  0  0  0  0  0  0  0
   23.6130    8.2800   21.8980 H   0  0  0  0  0  0  0  0  0  0  0  0
   24.9668    8.2140   23.8260 H   0  0  0  0  0  0  0  0  0  0  0  0
   24.7780    8.4140   19.7400 H   0  0  0  0  0  0  0  0  0  0  0  0
   26.5968    9.7147   19.8972 H   0  0  0  0  0  0  0  0  0  0  0  0
   27.4220    7.5750   20.8050 H   0  0  0  0  0  0  0  0  0  0  0  0
   25.4300    6.9100   17.9140 H   0  0  0  0  0  0  0  0  0  0  0  0
   30.6530    4.8420   15.6490 H   0  0  0  0  0  0  0  0  0  0  0  0
   29.4110    5.9130   15.4000 H   0  0  0  0  0  0  0  0  0  0  0  0
   31.4690    5.8980   20.0770 H   0  0  0  0  0  0  0  0  0  0  0  0
   14.0060    2.9150   24.6320 H   0  0  0  0  0  0  0  0  0  0  0  0
   13.1790    4.3920   24.6140 H   0  0  0  0  0  0  0  0  0  0  0  0
   11.7180    2.9240   25.7230 H   0  0  0  0  0  0  0  0  0  0  0  0
   12.4350    0.8390   23.5340 H   0  0  0  0  0  0  0  0  0  0  0  0
   13.4284    0.7693   25.5368 H   0  0  0  0  0  0  0  0  0  0  0  0
   10.1910   -0.3550   24.0210 H   0  0  0  0  0  0  0  0  0  0  0  0
    9.7332    1.8091   25.7569 H   0  0  0  0  0  0  0  0  0  0  0  0
    8.9640    1.9720   23.5080 H   0  0  0  0  0  0  0  0  0  0  0  0
   10.7750    3.3010   21.0380 H   0  0  0  0  0  0  0  0  0  0  0  0
    8.2220   -0.9190   17.3600 H   0  0  0  0  0  0  0  0  0  0  0  0
    9.6720   -0.2480   17.7750 H   0  0  0  0  0  0  0  0  0  0  0  0
    7.1120   -1.9770   21.6400 H   0  0  0  0  0  0  0  0  0  0  0  0
  1  2  2  6  0  0  0
  1  3  2  0  0  0  0
  1 16  1  0  0  0  0
  3 54  1  0  0  0  0
  4  1  1  0  0  0  0
  5  4  1  0  0  0  0
  5  6  2  6  0  0  0
  5  7  2  0  0  0  0
  7 55  1  0  0  0  0
  8  5  1  0  0  0  0
  9  8  1  0  0  0  0
  9 10  2  1  0  0  0
  9 11  2  0  0  0  0
 11 56  1  0  0  0  0
 12  9  1  0  0  0  0
 13 12  1  0  0  0  0
 13 14  2  1  0  0  0
 13 15  2  0  0  0  0
 15 57  1  0  0  0  0
 16 17  1  0  0  0  0
 17 18  1  0  0  0  0
 17 58  1  0  0  0  0
 17 59  1  0  0  0  0
 18 19  1  0  0  0  0
 18 20  1  0  0  0  0
 18 60  1  1  0  0  0
 19 24  1  0  0  0  0
 20 21  1  0  0  0  0
 20 22  1  0  0  0  0
 20 61  1  6  0  0  0
 21 62  1  0  0  0  0
 22 23  1  0  0  0  0
 22 24  1  0  0  0  0
 22 63  1  6  0  0  0
 23 64  1  0  0  0  0
 24 25  1  0  0  0  0
 24 65  1  1  0  0  0
 25 26  1  0  0  0  0
 25 34  1  0  0  0  0
 26 27  2  0  0  0  0
 26 66  1  0  0  0  0
 28 27  1  0  0  0  0
 28 29  1  0  0  0  0
 29 30  2  0  0  0  0
 29 31  2  0  0  0  0
 30 67  1  0  0  0  0
 30 68  1  0  0  0  0
 32 31  2  0  0  0  0
 32 69  1  0  0  0  0
 33 32  2  0  0  0  0
 34 28  2  0  0  0  0
 34 33  1  0  0  0  0
 35 36  1  0  0  0  0
 35 13  1  0  0  0  0
 36 37  1  0  0  0  0
 36 70  1  0  0  0  0
 36 71  1  0  0  0  0
 37 38  1  0  0  0  0
 37 39  1  0  0  0  0
 37 72  1  1  0  0  0
 38 43  1  0  0  0  0
 39 40  1  0  0  0  0
 39 41  1  0  0  0  0
 39 73  1  6  0  0  0
 40 74  1  0  0  0  0
 41 42  1  0  0  0  0
 41 43  1  0  0  0  0
 41 75  1  6  0  0  0
 42 76  1  0  0  0  0
 43 44  1  0  0  0  0
 43 77  1  1  0  0  0
 44 45  1  0  0  0  0
 44 53  1  0  0  0  0
 45 46  2  0  0  0  0
 45 78  1  0  0  0  0
 47 46  1  0  0  0  0
 47 48  1  0  0  0  0
 48 49  2  0  0  0  0
 48 50  2  0  0  0  0
 49 79  1  0  0  0  0
 49 80  1  0  0  0  0
 51 50  2  0  0  0  0
 51 81  1  0  0  0  0
 52 51  2  0  0  0  0
 53 47  2  0  0  0  0
 53 52  1  0  0  0  0
M  HYD  4  24   0  25   0  43   0  44   0
M  ZBO  6   4   0   9   0  14   0  19   0  36   0  70   0
M  END
