3bhx_ligand
 OpenBabel08222323343D

 29 28  0  0  1  0  0  0  0  0999 V2000
   19.6910   46.9650   46.2160 O   0  5  0  0  0  0  0  0  0  0  0  0
   19.8820   46.9110   44.9880 C   0  0  0  0  0  0  0  0  0  0  0  0
   20.4650   47.8730   44.4470 O   0  0  0  0  0  0  0  0  0  0  0  0
   19.3970   45.7670   44.0590 C   0  0  0  0  0  0  0  0  0  0  0  0
   18.6770   44.7510   44.8520 C   0  0  0  0  0  0  0  0  0  0  0  0
   17.5140   43.8580   43.8400 P   0  0  1  0  0  0  0  0  0  0  0  0
   18.2360   42.9430   42.8000 O   0  0  0  0  0  1  0  0  0  0  0  0
   16.7070   43.0670   44.7860 O   0  0  0  0  0  0  0  0  0  0  0  0
   16.3170   44.9200   42.9990 C   0  0  0  0  0  0  0  0  0  0  0  0
   15.9010   44.4150   41.5800 C   0  0  2  0  0  0  0  0  0  0  0  0
   17.0720   44.5110   40.5970 C   0  0  0  0  0  0  0  0  0  0  0  0
   17.9830   45.3720   40.7240 O   0  5  0  0  0  0  0  0  0  0  0  0
   17.0940   43.6960   39.5810 O   0  0  0  0  0  0  0  0  0  0  0  0
   14.6720   45.1840   40.9650 C   0  0  0  0  0  0  0  0  0  0  0  0
   14.9820   46.6890   41.0340 C   0  0  0  0  0  0  0  0  0  0  0  0
   13.9080   47.5000   40.3570 C   0  0  0  0  0  0  0  0  0  0  0  0
   13.1300   46.9540   39.5330 O   0  5  0  0  0  0  0  0  0  0  0  0
   13.9030   48.7330   40.5890 O   0  0  0  0  0  0  0  0  0  0  0  0
   20.2650   45.3008   43.5698 H   0  0  0  0  0  0  0  0  0  0  0  0
   18.7223   46.1788   43.2940 H   0  0  0  0  0  0  0  0  0  0  0  0
   18.1344   45.2500   45.6685 H   0  0  0  0  0  0  0  0  0  0  0  0
   19.4045   44.0424   45.2745 H   0  0  0  0  0  0  0  0  0  0  0  0
   16.7588   45.9218   42.8931 H   0  0  0  0  0  0  0  0  0  0  0  0
   15.4127   44.9820   43.6222 H   0  0  0  0  0  0  0  0  0  0  0  0
   15.6188   43.3565   41.6800 H   0  0  0  0  0  0  0  0  0  0  0  0
   13.7631   44.9616   41.5432 H   0  0  0  0  0  0  0  0  0  0  0  0
   14.5246   44.8792   39.9184 H   0  0  0  0  0  0  0  0  0  0  0  0
   15.9435   46.8802   40.5351 H   0  0  0  0  0  0  0  0  0  0  0  0
   15.0494   46.9931   42.0890 H   0  0  0  0  0  0  0  0  0  0  0  0
  1  2  1  0  0  0  0
  2  3  2  0  0  0  0
  2  4  1  0  0  0  0
  4  5  1  0  0  0  0
  4 19  1  0  0  0  0
  4 20  1  0  0  0  0
  5  6  1  0  0  0  0
  5 21  1  0  0  0  0
  5 22  1  0  0  0  0
  6  7  1  6  0  0  0
  6  8  2  0  0  0  0
  6  9  1  0  0  0  0
  9 10  1  0  0  0  0
  9 23  1  0  0  0  0
  9 24  1  0  0  0  0
 10 11  1  0  0  0  0
 10 14  1  0  0  0  0
 10 25  1  1  0  0  0
 11 12  1  0  0  0  0
 11 13  2  0  0  0  0
 14 15  1  0  0  0  0
 14 26  1  0  0  0  0
 14 27  1  0  0  0  0
 15 16  1  0  0  0  0
 15 28  1  0  0  0  0
 15 29  1  0  0  0  0
 16 17  1  0  0  0  0
 16 18  2  0  0  0  0
M  CHG  3   1  -1  12  -1  17  -1
M  END
