3bi0_ligand
 OpenBabel08222323343D

 35 34  0  0  1  0  0  0  0  0999 V2000
   20.6530   46.6800   44.2620 C   0  0  2  0  0  0  0  0  0  0  0  0
   18.8110   44.9500   44.6870 C   0  0  0  0  0  0  0  0  0  0  0  0
   20.4040   47.0840   45.6850 C   0  0  0  0  0  0  0  0  0  0  0  0
   19.5020   45.8290   43.6730 C   0  0  0  0  0  0  0  0  0  0  0  0
   16.3820   45.1160   42.9370 C   0  0  0  0  0  0  0  0  0  0  0  0
   20.9880   46.4780   46.5960 O   0  5  0  0  0  0  0  0  0  0  0  0
   13.0800   47.1290   39.5810 O   0  5  0  0  0  0  0  0  0  0  0  0
   13.9210   47.6830   40.3260 C   0  0  0  0  0  0  0  0  0  0  0  0
   13.8880   48.9150   40.5370 O   0  0  0  0  0  0  0  0  0  0  0  0
   15.0220   46.8980   41.0680 C   0  0  0  0  0  0  0  0  0  0  0  0
   14.7730   45.3950   40.9220 C   0  0  0  0  0  0  0  0  0  0  0  0
   15.9580   44.5710   41.5140 C   0  0  1  0  0  0  0  0  0  0  0  0
   17.0890   44.6320   40.4990 C   0  0  0  0  0  0  0  0  0  0  0  0
   17.0920   43.8530   39.4850 O   0  5  0  0  0  0  0  0  0  0  0  0
   17.9720   45.4820   40.6520 O   0  0  0  0  0  0  0  0  0  0  0  0
   17.5820   43.9970   43.7870 P   0  0  1  0  0  0  0  0  0  0  0  0
   18.2850   43.1170   42.6950 O   0  0  0  0  0  1  0  0  0  0  0  0
   16.7770   43.2200   44.7730 O   0  0  0  0  0  0  0  0  0  0  0  0
   21.8660   45.8660   44.3100 N   0  3  0  0  0  0  0  0  0  0  0  0
   19.6350   47.9720   45.9510 O   0  0  0  0  0  0  0  0  0  0  0  0
   20.8035   47.5720   43.6362 H   0  0  0  0  0  0  0  0  0  0  0  0
   18.3239   45.5679   45.4557 H   0  0  0  0  0  0  0  0  0  0  0  0
   19.5384   44.2769   45.1642 H   0  0  0  0  0  0  0  0  0  0  0  0
   19.9161   45.1861   42.8823 H   0  0  0  0  0  0  0  0  0  0  0  0
   18.7551   46.5097   43.2386 H   0  0  0  0  0  0  0  0  0  0  0  0
   15.4820   45.2101   43.5624 H   0  0  0  0  0  0  0  0  0  0  0  0
   16.8474   46.1049   42.8129 H   0  0  0  0  0  0  0  0  0  0  0  0
   15.0086   47.1687   42.1341 H   0  0  0  0  0  0  0  0  0  0  0  0
   16.0028   47.1493   40.6382 H   0  0  0  0  0  0  0  0  0  0  0  0
   14.6628   45.1507   39.8551 H   0  0  0  0  0  0  0  0  0  0  0  0
   13.8486   45.1301   41.4562 H   0  0  0  0  0  0  0  0  0  0  0  0
   15.6442   43.5234   41.6323 H   0  0  0  0  0  0  0  0  0  0  0  0
   22.6221   46.4120   44.6925 H   0  0  0  0  0  0  0  0  0  0  0  0
   22.1063   45.5658   43.3782 H   0  0  0  0  0  0  0  0  0  0  0  0
   21.7062   45.0589   44.8924 H   0  0  0  0  0  0  0  0  0  0  0  0
  1  3  1  0  0  0  0
  1 19  1  0  0  0  0
  1 21  1  6  0  0  0
  2  4  1  0  0  0  0
  2 22  1  0  0  0  0
  2 23  1  0  0  0  0
  3  6  1  0  0  0  0
  3 20  2  0  0  0  0
  4  1  1  0  0  0  0
  4 24  1  0  0  0  0
  4 25  1  0  0  0  0
  5 16  1  0  0  0  0
  5 26  1  0  0  0  0
  5 27  1  0  0  0  0
  8  7  1  0  0  0  0
  8  9  2  0  0  0  0
 10  8  1  0  0  0  0
 10 28  1  0  0  0  0
 10 29  1  0  0  0  0
 11 10  1  0  0  0  0
 11 12  1  0  0  0  0
 11 30  1  0  0  0  0
 11 31  1  0  0  0  0
 12  5  1  0  0  0  0
 12 13  1  0  0  0  0
 12 32  1  1  0  0  0
 13 14  1  0  0  0  0
 13 15  2  0  0  0  0
 16  2  1  0  0  0  0
 16 17  1  6  0  0  0
 16 18  2  0  0  0  0
 19 33  1  0  0  0  0
 19 34  1  0  0  0  0
 19 35  1  0  0  0  0
M  CHG  4   6  -1   7  -1  14  -1  19   1
M  END
