3bl7_ligand
 OpenBabel08222323343D

 53 56  0  0  1  0  0  0  0  0999 V2000
    7.8920   -3.6710   17.4080 F   0  0  0  0  0  0  0  0  0  0  0  0
    8.8480   -2.7290   17.4260 C   0  0  0  0  0  0  0  0  0  0  0  0
   10.1800   -3.1080   17.2790 C   0  0  0  0  0  0  0  0  0  0  0  0
   11.1830   -2.1440   17.2910 C   0  0  0  0  0  0  0  0  0  0  0  0
   10.8730   -0.7920   17.4470 C   0  0  0  0  0  0  0  0  0  0  0  0
    9.5500   -0.3640   17.6020 C   0  0  0  0  0  0  0  0  0  0  0  0
    8.5040   -1.2860   17.6170 C   0  0  0  0  0  0  0  0  0  0  0  0
    7.0700   -0.7960   17.7580 C   0  0  0  0  0  0  0  0  0  0  0  0
    6.3590   -1.0270   19.0270 N   0  3  2  0  0  0  0  0  0  0  0  0
    6.7170   -2.0790   19.9790 C   0  0  0  0  0  0  0  0  0  0  0  0
    5.7510   -2.0080   21.1740 C   0  0  0  0  0  0  0  0  0  0  0  0
    5.6670   -0.6070   21.7940 C   0  0  1  0  0  0  0  0  0  0  0  0
    5.3660    0.4310   20.7050 C   0  0  0  0  0  0  0  0  0  0  0  0
    5.2050   -0.1730   19.3120 C   0  0  0  0  0  0  0  0  0  0  0  0
    4.6790   -0.5730   22.9800 C   0  0  0  0  0  0  0  0  0  0  0  0
    3.5770    0.3710   22.9480 O   0  0  0  0  0  0  0  0  0  0  0  0
    3.0010    0.8600   24.1070 C   0  0  0  0  0  0  0  0  0  0  0  0
    1.9820    1.9480   24.0660 C   0  0  0  0  0  0  0  0  0  0  0  0
    1.5010    2.5870   22.8130 C   0  0  0  0  0  0  0  0  0  0  0  0
    1.9620    2.2250   21.5980 N   0  0  0  0  0  0  0  0  0  0  0  0
    0.5870    3.5620   22.9030 N   0  0  0  0  0  0  0  0  0  0  0  0
    0.0860    3.9740   24.0990 C   0  0  0  0  0  0  0  0  0  0  0  0
   -0.8390    4.9540   24.0940 N   0  0  0  0  0  0  0  0  0  0  0  0
    0.4580    3.4310   25.2880 N   0  0  0  0  0  0  0  0  0  0  0  0
    1.3810    2.4480   25.3400 C   0  0  0  0  0  0  0  0  0  0  0  0
    1.7720    1.8950   26.5440 C   0  0  0  0  0  0  0  0  0  0  0  0
    2.7330    0.8840   26.5450 C   0  0  0  0  0  0  0  0  0  0  0  0
    3.3300    0.3840   25.3720 C   0  0  0  0  0  0  0  0  0  0  0  0
   10.4353   -4.1542   17.1552 H   0  0  0  0  0  0  0  0  0  0  0  0
   12.2178   -2.4465   17.1778 H   0  0  0  0  0  0  0  0  0  0  0  0
   11.6724   -0.0598   17.4481 H   0  0  0  0  0  0  0  0  0  0  0  0
    9.3363    0.6931   17.7113 H   0  0  0  0  0  0  0  0  0  0  0  0
    6.4830   -1.2840   16.9660 H   0  0  0  0  0  0  0  0  0  0  0  0
    7.0823    0.2908   17.5885 H   0  0  0  0  0  0  0  0  0  0  0  0
    6.9791   -0.3878   19.4992 H   0  0  0  0  0  0  0  0  0  0  0  0
    7.7494   -1.9280   20.3274 H   0  0  0  0  0  0  0  0  0  0  0  0
    6.6341   -3.0624   19.4933 H   0  0  0  0  0  0  0  0  0  0  0  0
    6.0951   -2.7127   21.9454 H   0  0  0  0  0  0  0  0  0  0  0  0
    4.7475   -2.3005   20.8315 H   0  0  0  0  0  0  0  0  0  0  0  0
    6.6596   -0.3662   22.2022 H   0  0  0  0  0  0  0  0  0  0  0  0
    6.1937    1.1550   20.6764 H   0  0  0  0  0  0  0  0  0  0  0  0
    4.4331    0.9508   20.9685 H   0  0  0  0  0  0  0  0  0  0  0  0
    4.2838   -0.7730   19.2744 H   0  0  0  0  0  0  0  0  0  0  0  0
    5.1487    0.6325   18.5650 H   0  0  0  0  0  0  0  0  0  0  0  0
    5.2666   -0.3527   23.8835 H   0  0  0  0  0  0  0  0  0  0  0  0
    4.2405   -1.5783   23.0638 H   0  0  0  0  0  0  0  0  0  0  0  0
    1.6046    2.6910   20.7518 H   0  0  0  0  0  0  0  0  0  0  0  0
    2.6713    1.4826   21.5165 H   0  0  0  0  0  0  0  0  0  0  0  0
   -1.1346    5.3787   23.2034 H   0  0  0  0  0  0  0  0  0  0  0  0
   -1.2504    5.2784   24.9808 H   0  0  0  0  0  0  0  0  0  0  0  0
    1.3381    2.2418   27.4749 H   0  0  0  0  0  0  0  0  0  0  0  0
    3.0354    0.4621   27.4966 H   0  0  0  0  0  0  0  0  0  0  0  0
    4.0731   -0.4005   25.4578 H   0  0  0  0  0  0  0  0  0  0  0  0
  1  2  1  0  0  0  0
  2  3  2  0  0  0  0
  2  7  1  0  0  0  0
  3  4  1  0  0  0  0
  3 29  1  0  0  0  0
  4  5  2  0  0  0  0
  4 30  1  0  0  0  0
  5  6  1  0  0  0  0
  5 31  1  0  0  0  0
  6  7  2  0  0  0  0
  6 32  1  0  0  0  0
  7  8  1  0  0  0  0
  8  9  1  0  0  0  0
  8 33  1  0  0  0  0
  8 34  1  0  0  0  0
  9 10  1  0  0  0  0
  9 14  1  0  0  0  0
  9 35  1  1  0  0  0
 10 11  1  0  0  0  0
 10 36  1  0  0  0  0
 10 37  1  0  0  0  0
 11 12  1  0  0  0  0
 11 38  1  0  0  0  0
 11 39  1  0  0  0  0
 12 13  1  0  0  0  0
 12 15  1  0  0  0  0
 12 40  1  1  0  0  0
 13 14  1  0  0  0  0
 13 41  1  0  0  0  0
 13 42  1  0  0  0  0
 14 43  1  0  0  0  0
 14 44  1  0  0  0  0
 15 16  1  0  0  0  0
 15 45  1  0  0  0  0
 15 46  1  0  0  0  0
 16 17  1  0  0  0  0
 17 18  2  0  0  0  0
 17 28  1  0  0  0  0
 18 19  1  0  0  0  0
 18 25  1  0  0  0  0
 19 20  1  0  0  0  0
 19 21  2  0  0  0  0
 20 47  1  0  0  0  0
 20 48  1  0  0  0  0
 21 22  1  0  0  0  0
 22 23  1  0  0  0  0
 22 24  2  0  0  0  0
 23 49  1  0  0  0  0
 23 50  1  0  0  0  0
 24 25  1  0  0  0  0
 25 26  2  0  0  0  0
 26 27  1  0  0  0  0
 26 51  1  0  0  0  0
 27 28  2  0  0  0  0
 27 52  1  0  0  0  0
 28 53  1  0  0  0  0
M  CHG  1   9   1
M  END
