3bla_ligand
 OpenBabel08222323343D

 37 39  0  0  1  0  0  0  0  0999 V2000
    5.2650   -0.0070   22.5200 C   0  0  0  0  0  0  0  0  0  0  0  0
    3.7140   -0.0930   20.6220 C   0  0  0  0  0  0  0  0  0  0  0  0
    3.8360    0.0260   22.1340 C   0  0  2  0  0  0  0  0  0  0  0  0
    7.9520   -0.1080   23.2770 C   0  0  0  0  0  0  0  0  0  0  0  0
    7.4030    1.0770   22.8080 C   0  0  0  0  0  0  0  0  0  0  0  0
    6.0620    1.1340   22.4290 C   0  0  0  0  0  0  0  0  0  0  0  0
    0.3140    4.3310   22.9700 N   0  0  0  0  0  0  0  0  0  0  0  0
    2.7870    1.5540   23.7860 C   0  0  0  0  0  0  0  0  0  0  0  0
    2.6910    1.3010   26.2000 C   0  0  0  0  0  0  0  0  0  0  0  0
    1.7320    2.3060   26.3370 C   0  0  0  0  0  0  0  0  0  0  0  0
    1.7730    2.6290   23.8940 C   0  0  0  0  0  0  0  0  0  0  0  0
    1.2330    3.3770   22.7330 C   0  0  0  0  0  0  0  0  0  0  0  0
    5.8170   -1.1980   22.9900 C   0  0  0  0  0  0  0  0  0  0  0  0
    3.2160    0.9260   24.9630 C   0  0  0  0  0  0  0  0  0  0  0  0
    8.4420    2.5340   22.6950 Cl  0  0  0  0  0  0  0  0  0  0  0  0
    7.1630   -1.2530   23.3570 C   0  0  0  0  0  0  0  0  0  0  0  0
    3.2550    1.2590   22.5320 O   0  0  0  0  0  0  0  0  0  0  0  0
    1.2460    2.9930   25.2270 C   0  0  0  0  0  0  0  0  0  0  0  0
    0.3100    3.9740   25.3150 N   0  0  0  0  0  0  0  0  0  0  0  0
    1.6140    3.1680   21.4550 N   0  0  0  0  0  0  0  0  0  0  0  0
   -0.1340    4.6170   24.2080 C   0  0  0  0  0  0  0  0  0  0  0  0
   -1.0590    5.5900   24.2900 N   0  0  0  0  0  0  0  0  0  0  0  0
    2.6519   -0.0683   20.3368 H   0  0  0  0  0  0  0  0  0  0  0  0
    4.1603   -1.0426   20.2917 H   0  0  0  0  0  0  0  0  0  0  0  0
    4.2414    0.7459   20.1444 H   0  0  0  0  0  0  0  0  0  0  0  0
    3.3059   -0.8077   22.6177 H   0  0  0  0  0  0  0  0  0  0  0  0
    8.9921   -0.1425   23.5803 H   0  0  0  0  0  0  0  0  0  0  0  0
    5.6399    2.0635   22.0643 H   0  0  0  0  0  0  0  0  0  0  0  0
    3.0418    0.7916   27.0902 H   0  0  0  0  0  0  0  0  0  0  0  0
    1.3592    2.5560   27.3237 H   0  0  0  0  0  0  0  0  0  0  0  0
    5.1987   -2.0847   23.0708 H   0  0  0  0  0  0  0  0  0  0  0  0
    3.9626    0.1417   24.9119 H   0  0  0  0  0  0  0  0  0  0  0  0
    7.5934   -2.1855   23.7037 H   0  0  0  0  0  0  0  0  0  0  0  0
    2.3154    2.4455   21.2383 H   0  0  0  0  0  0  0  0  0  0  0  0
    1.2033    3.7310   20.6965 H   0  0  0  0  0  0  0  0  0  0  0  0
   -1.3828    6.0661   23.4359 H   0  0  0  0  0  0  0  0  0  0  0  0
   -1.4436    5.8590   25.2069 H   0  0  0  0  0  0  0  0  0  0  0  0
  1  6  2  0  0  0  0
  1 13  1  0  0  0  0
  2 23  1  0  0  0  0
  2 24  1  0  0  0  0
  2 25  1  0  0  0  0
  3  1  1  0  0  0  0
  3  2  1  0  0  0  0
  3 26  1  1  0  0  0
  4 16  1  0  0  0  0
  4 27  1  0  0  0  0
  5  4  2  0  0  0  0
  5 15  1  0  0  0  0
  6  5  1  0  0  0  0
  6 28  1  0  0  0  0
  7 21  1  0  0  0  0
  8 14  1  0  0  0  0
  8 17  1  0  0  0  0
  9 10  1  0  0  0  0
  9 29  1  0  0  0  0
 10 18  2  0  0  0  0
 10 30  1  0  0  0  0
 11  8  2  0  0  0  0
 11 12  1  0  0  0  0
 11 18  1  0  0  0  0
 12  7  2  0  0  0  0
 12 20  1  0  0  0  0
 13 16  2  0  0  0  0
 13 31  1  0  0  0  0
 14  9  2  0  0  0  0
 14 32  1  0  0  0  0
 16 33  1  0  0  0  0
 17  3  1  0  0  0  0
 18 19  1  0  0  0  0
 19 21  2  0  0  0  0
 20 34  1  0  0  0  0
 20 35  1  0  0  0  0
 21 22  1  0  0  0  0
 22 36  1  0  0  0  0
 22 37  1  0  0  0  0
M  END
