3blr_ligand
 OpenBabel08222323343D

 49 52  0  0  1  0  0  0  0  0999 V2000
   49.4980  -21.3640  -10.7920 C   0  0  0  0  0  0  0  0  0  0  0  0
   50.2020  -20.2380  -11.3840 N   0  3  1  0  0  0  0  0  0  0  0  0
   50.9700  -19.3940  -10.4650 C   0  0  0  0  0  0  0  0  0  0  0  0
   50.8570  -17.9390  -10.8980 C   0  0  0  0  0  0  0  0  0  0  0  0
   51.2170  -17.8200  -12.3680 C   0  0  1  0  0  0  0  0  0  0  0  0
   50.1790  -18.5560  -13.2110 C   0  0  1  0  0  0  0  0  0  0  0  0
   50.1310  -20.0360  -12.8400 C   0  0  0  0  0  0  0  0  0  0  0  0
   51.4840  -16.3970  -12.7500 C   0  0  0  0  0  0  0  0  0  0  0  0
   52.8130  -16.0660  -12.9980 C   0  0  0  0  0  0  0  0  0  0  0  0
   53.7580  -17.0500  -12.9140 O   0  0  0  0  0  0  0  0  0  0  0  0
   55.0780  -16.8140  -13.1680 C   0  0  0  0  0  0  0  0  0  0  0  0
   55.5330  -15.5430  -13.4920 C   0  0  0  0  0  0  0  0  0  0  0  0
   54.6270  -14.5020  -13.5910 C   0  0  0  0  0  0  0  0  0  0  0  0
   55.0230  -13.3640  -13.8940 O   0  0  0  0  0  0  0  0  0  0  0  0
   53.1910  -14.7740  -13.3310 C   0  0  0  0  0  0  0  0  0  0  0  0
   52.2280  -13.7770  -13.4060 C   0  0  0  0  0  0  0  0  0  0  0  0
   52.5790  -12.5040  -13.7320 O   0  0  0  0  0  0  0  0  0  0  0  0
   50.8990  -14.0910  -13.1480 C   0  0  0  0  0  0  0  0  0  0  0  0
   50.5220  -15.3850  -12.8020 C   0  0  0  0  0  0  0  0  0  0  0  0
   49.2040  -15.6190  -12.5610 O   0  0  0  0  0  0  0  0  0  0  0  0
   56.0370  -17.9290  -12.9960 C   0  0  0  0  0  0  0  0  0  0  0  0
   55.6820  -19.2670  -13.1310 C   0  0  0  0  0  0  0  0  0  0  0  0
   54.0340  -19.7670  -13.6430 Cl  0  0  0  0  0  0  0  0  0  0  0  0
   56.6420  -20.2480  -12.8930 C   0  0  0  0  0  0  0  0  0  0  0  0
   57.9290  -19.8950  -12.5010 C   0  0  0  0  0  0  0  0  0  0  0  0
   58.2720  -18.5590  -12.3330 C   0  0  0  0  0  0  0  0  0  0  0  0
   57.3160  -17.5810  -12.5690 C   0  0  0  0  0  0  0  0  0  0  0  0
   48.8760  -18.0110  -13.0010 O   0  0  0  0  0  0  0  0  0  0  0  0
   49.6568  -21.3644   -9.7035 H   0  0  0  0  0  0  0  0  0  0  0  0
   49.8822  -22.3021  -11.2189 H   0  0  0  0  0  0  0  0  0  0  0  0
   48.4224  -21.2773  -11.0056 H   0  0  0  0  0  0  0  0  0  0  0  0
   49.3977  -19.6418  -11.2668 H   0  0  0  0  0  0  0  0  0  0  0  0
   52.0263  -19.7005  -10.4816 H   0  0  0  0  0  0  0  0  0  0  0  0
   50.5719  -19.5051   -9.4456 H   0  0  0  0  0  0  0  0  0  0  0  0
   51.5461  -17.3239  -10.3007 H   0  0  0  0  0  0  0  0  0  0  0  0
   49.8256  -17.5893  -10.7435 H   0  0  0  0  0  0  0  0  0  0  0  0
   52.1671  -18.3547  -12.5141 H   0  0  0  0  0  0  0  0  0  0  0  0
   50.4494  -18.4549  -14.2724 H   0  0  0  0  0  0  0  0  0  0  0  0
   49.1900  -20.4661  -13.2135 H   0  0  0  0  0  0  0  0  0  0  0  0
   50.9817  -20.5490  -13.3124 H   0  0  0  0  0  0  0  0  0  0  0  0
   56.5934  -15.3670  -13.6666 H   0  0  0  0  0  0  0  0  0  0  0  0
   53.1981  -12.1735  -13.0916 H   0  0  0  0  0  0  0  0  0  0  0  0
   50.1444  -13.3159  -13.2174 H   0  0  0  0  0  0  0  0  0  0  0  0
   49.0818  -16.5341  -12.3369 H   0  0  0  0  0  0  0  0  0  0  0  0
   56.3842  -21.2939  -13.0142 H   0  0  0  0  0  0  0  0  0  0  0  0
   58.6693  -20.6672  -12.3254 H   0  0  0  0  0  0  0  0  0  0  0  0
   59.2733  -18.2842  -12.0216 H   0  0  0  0  0  0  0  0  0  0  0  0
   57.5671  -16.5371  -12.4196 H   0  0  0  0  0  0  0  0  0  0  0  0
   48.8801  -17.0880  -13.2256 H   0  0  0  0  0  0  0  0  0  0  0  0
  1  2  1  0  0  0  0
  1 29  1  0  0  0  0
  1 30  1  0  0  0  0
  1 31  1  0  0  0  0
  2  3  1  0  0  0  0
  2  7  1  0  0  0  0
  2 32  1  1  0  0  0
  3  4  1  0  0  0  0
  3 33  1  0  0  0  0
  3 34  1  0  0  0  0
  4  5  1  0  0  0  0
  4 35  1  0  0  0  0
  4 36  1  0  0  0  0
  5  6  1  0  0  0  0
  5  8  1  0  0  0  0
  5 37  1  6  0  0  0
  6  7  1  0  0  0  0
  6 28  1  0  0  0  0
  6 38  1  6  0  0  0
  7 39  1  0  0  0  0
  7 40  1  0  0  0  0
  8  9  2  0  0  0  0
  8 19  1  0  0  0  0
  9 10  1  0  0  0  0
  9 15  1  0  0  0  0
 10 11  1  0  0  0  0
 11 12  2  0  0  0  0
 11 21  1  0  0  0  0
 12 13  1  0  0  0  0
 12 41  1  0  0  0  0
 13 14  2  0  0  0  0
 13 15  1  0  0  0  0
 15 16  2  0  0  0  0
 16 17  1  0  0  0  0
 16 18  1  0  0  0  0
 17 42  1  0  0  0  0
 18 19  2  0  0  0  0
 18 43  1  0  0  0  0
 19 20  1  0  0  0  0
 20 44  1  0  0  0  0
 21 22  2  0  0  0  0
 21 27  1  0  0  0  0
 22 23  1  0  0  0  0
 22 24  1  0  0  0  0
 24 25  2  0  0  0  0
 24 45  1  0  0  0  0
 25 26  1  0  0  0  0
 25 46  1  0  0  0  0
 26 27  2  0  0  0  0
 26 47  1  0  0  0  0
 27 48  1  0  0  0  0
 28 49  1  0  0  0  0
M  CHG  1   2   1
M  END
