3bmq_ligand
 OpenBabel08222323343D

 28 29  0  0  0  0  0  0  0  0999 V2000
    9.3070  -11.3280   14.0270 C   0  0  0  0  0  0  0  0  0  0  0  0
    8.1110  -10.8210   14.4490 C   0  0  0  0  0  0  0  0  0  0  0  0
    8.1080   -9.4950   14.9060 C   0  0  0  0  0  0  0  0  0  0  0  0
    9.2770   -8.7820   14.9720 N   0  0  0  0  0  0  0  0  0  0  0  0
   10.4860  -10.6150   14.0970 N   0  0  0  0  0  0  0  0  0  0  0  0
    7.2280  -14.3560   15.3140 C   0  0  0  0  0  0  0  0  0  0  0  0
    6.5010  -15.0500   16.2840 C   0  0  0  0  0  0  0  0  0  0  0  0
    5.1740  -15.4270   16.0390 C   0  0  0  0  0  0  0  0  0  0  0  0
    4.5770  -15.0920   14.8280 C   0  0  0  0  0  0  0  0  0  0  0  0
    5.3100  -14.4130   13.8470 C   0  0  0  0  0  0  0  0  0  0  0  0
    6.6140  -14.0060   14.1000 C   0  0  0  0  0  0  0  0  0  0  0  0
    7.4210  -13.2560   13.0320 C   0  0  0  0  0  0  0  0  0  0  0  0
    9.1800  -13.0210   13.4020 S   0  0  0  0  0  0  0  0  0  0  0  0
   10.4580   -9.3000   14.5580 C   0  0  0  0  0  0  0  0  0  0  0  0
   11.5780   -8.5380   14.6450 N   0  0  0  0  0  0  0  0  0  0  0  0
    6.9480   -9.0070   15.3590 N   0  0  0  0  0  0  0  0  0  0  0  0
    7.2053  -11.4164   14.4315 H   0  0  0  0  0  0  0  0  0  0  0  0
    8.2623  -14.0885   15.4974 H   0  0  0  0  0  0  0  0  0  0  0  0
    6.9659  -15.2982   17.2313 H   0  0  0  0  0  0  0  0  0  0  0  0
    4.6159  -15.9764   16.7885 H   0  0  0  0  0  0  0  0  0  0  0  0
    3.5423  -15.3571   14.6434 H   0  0  0  0  0  0  0  0  0  0  0  0
    4.8573  -14.2037   12.8845 H   0  0  0  0  0  0  0  0  0  0  0  0
    6.9672  -12.2627   12.9002 H   0  0  0  0  0  0  0  0  0  0  0  0
    7.3455  -13.8214   12.0915 H   0  0  0  0  0  0  0  0  0  0  0  0
   11.5166   -7.5698   14.9909 H   0  0  0  0  0  0  0  0  0  0  0  0
   12.4893   -8.9280   14.3651 H   0  0  0  0  0  0  0  0  0  0  0  0
    6.8969   -8.0382   15.7049 H   0  0  0  0  0  0  0  0  0  0  0  0
    6.1058   -9.6000   15.3619 H   0  0  0  0  0  0  0  0  0  0  0  0
  1  2  2  0  0  0  0
  1  5  1  0  0  0  0
  2  3  1  0  0  0  0
  2 17  1  0  0  0  0
  3  4  2  0  0  0  0
  3 16  1  0  0  0  0
  5 14  2  0  0  0  0
  6  7  2  0  0  0  0
  6 18  1  0  0  0  0
  7  8  1  0  0  0  0
  7 19  1  0  0  0  0
  8 20  1  0  0  0  0
  9  8  2  0  0  0  0
  9 21  1  0  0  0  0
 10  9  1  0  0  0  0
 10 22  1  0  0  0  0
 11  6  1  0  0  0  0
 11 10  2  0  0  0  0
 12 11  1  0  0  0  0
 12 13  1  0  0  0  0
 12 23  1  0  0  0  0
 12 24  1  0  0  0  0
 13  1  1  0  0  0  0
 14  4  1  0  0  0  0
 14 15  1  0  0  0  0
 15 25  1  0  0  0  0
 15 26  1  0  0  0  0
 16 27  1  0  0  0  0
 16 28  1  0  0  0  0
M  END
