3bmy_ligand
 OpenBabel08222323343D

 48 51  0  0  0  0  0  0  0  0999 V2000
   -0.4850    4.5650   21.9250 C   0  0  0  0  0  0  0  0  0  0  0  0
    0.5220    5.3270   22.5790 C   0  0  0  0  0  0  0  0  0  0  0  0
    1.8270    5.1250   22.1290 C   0  0  0  0  0  0  0  0  0  0  0  0
    2.1590    4.2460   21.1210 C   0  0  0  0  0  0  0  0  0  0  0  0
    1.1510    3.5140   20.5020 C   0  0  0  0  0  0  0  0  0  0  0  0
   -0.1740    3.6530   20.8940 C   0  0  0  0  0  0  0  0  0  0  0  0
   -1.0830    2.8710   20.2320 N   0  0  0  0  0  0  0  0  0  0  0  0
   -0.7560    1.5420   19.6840 C   0  0  0  0  0  0  0  0  0  0  0  0
   -1.3900    1.2910   18.3290 C   0  0  0  0  0  0  0  0  0  0  0  0
   -0.6190    1.9400   17.2350 N   0  3  0  0  0  0  0  0  0  0  0  0
   -1.3690    1.9210   15.9050 C   0  0  0  0  0  0  0  0  0  0  0  0
   -0.4980    2.5780   14.8400 C   0  0  0  0  0  0  0  0  0  0  0  0
   -0.1870    3.9180   15.1990 O   0  0  0  0  0  0  0  0  0  0  0  0
    0.5700    3.9580   16.4120 C   0  0  0  0  0  0  0  0  0  0  0  0
   -0.2000    3.3940   17.5500 C   0  0  0  0  0  0  0  0  0  0  0  0
    3.5570    4.3440   20.9910 C   0  0  0  0  0  0  0  0  0  0  0  0
    4.0630    5.2240   21.8760 N   0  0  0  0  0  0  0  0  0  0  0  0
    2.9650    5.7120   22.5900 O   0  0  0  0  0  0  0  0  0  0  0  0
    4.3700    3.6220   20.0190 C   0  0  0  0  0  0  0  0  0  0  0  0
    4.0200    2.2960   19.6970 C   0  0  0  0  0  0  0  0  0  0  0  0
    4.7540    1.5790   18.7640 C   0  0  0  0  0  0  0  0  0  0  0  0
    5.8560    2.1680   18.1410 C   0  0  0  0  0  0  0  0  0  0  0  0
    6.2200    3.4910   18.4440 C   0  0  0  0  0  0  0  0  0  0  0  0
    5.4730    4.2090   19.3860 C   0  0  0  0  0  0  0  0  0  0  0  0
    5.8090    5.4970   19.6780 O   0  0  0  0  0  0  0  0  0  0  0  0
    6.6010    1.4940   17.2060 O   0  0  0  0  0  0  0  0  0  0  0  0
    4.2800   -0.0360   18.4130 Cl  0  0  0  0  0  0  0  0  0  0  0  0
   -1.5190    4.6880   22.2265 H   0  0  0  0  0  0  0  0  0  0  0  0
    0.2899    6.0219   23.3779 H   0  0  0  0  0  0  0  0  0  0  0  0
    1.4031    2.8260   19.7031 H   0  0  0  0  0  0  0  0  0  0  0  0
   -2.0413    3.2287   20.1112 H   0  0  0  0  0  0  0  0  0  0  0  0
   -1.1136    0.7748   20.3865 H   0  0  0  0  0  0  0  0  0  0  0  0
    0.3363    1.4639   19.5805 H   0  0  0  0  0  0  0  0  0  0  0  0
   -2.4130    1.6953   18.3331 H   0  0  0  0  0  0  0  0  0  0  0  0
   -1.4249    0.2068   18.1465 H   0  0  0  0  0  0  0  0  0  0  0  0
    0.2253    1.4021   17.1173 H   0  0  0  0  0  0  0  0  0  0  0  0
   -2.3130    2.4768   16.0050 H   0  0  0  0  0  0  0  0  0  0  0  0
   -1.5842    0.8815   15.6168 H   0  0  0  0  0  0  0  0  0  0  0  0
   -1.0379    2.5774   13.8816 H   0  0  0  0  0  0  0  0  0  0  0  0
    0.4361    2.0067   14.7350 H   0  0  0  0  0  0  0  0  0  0  0  0
    0.8290    5.0029   16.6380 H   0  0  0  0  0  0  0  0  0  0  0  0
    1.4916    3.3725   16.2783 H   0  0  0  0  0  0  0  0  0  0  0  0
    0.4259    3.4050   18.4545 H   0  0  0  0  0  0  0  0  0  0  0  0
   -1.0996    4.0040   17.7191 H   0  0  0  0  0  0  0  0  0  0  0  0
    3.1693    1.8319   20.1828 H   0  0  0  0  0  0  0  0  0  0  0  0
    7.0703    3.9510   17.9536 H   0  0  0  0  0  0  0  0  0  0  0  0
    6.6959    5.5226   20.0173 H   0  0  0  0  0  0  0  0  0  0  0  0
    7.5031    1.4420   17.4991 H   0  0  0  0  0  0  0  0  0  0  0  0
  1  2  2  0  0  0  0
  1  6  1  0  0  0  0
  1 28  1  0  0  0  0
  2  3  1  0  0  0  0
  2 29  1  0  0  0  0
  3  4  2  0  0  0  0
  3 18  1  0  0  0  0
  4  5  1  0  0  0  0
  4 16  1  0  0  0  0
  5  6  2  0  0  0  0
  5 30  1  0  0  0  0
  6  7  1  0  0  0  0
  7  8  1  0  0  0  0
  7 31  1  0  0  0  0
  8  9  1  0  0  0  0
  8 32  1  0  0  0  0
  8 33  1  0  0  0  0
  9 10  1  0  0  0  0
  9 34  1  0  0  0  0
  9 35  1  0  0  0  0
 10 11  1  0  0  0  0
 10 15  1  0  0  0  0
 10 36  1  0  0  0  0
 11 12  1  0  0  0  0
 11 37  1  0  0  0  0
 11 38  1  0  0  0  0
 12 13  1  0  0  0  0
 12 39  1  0  0  0  0
 12 40  1  0  0  0  0
 13 14  1  0  0  0  0
 14 15  1  0  0  0  0
 14 41  1  0  0  0  0
 14 42  1  0  0  0  0
 15 43  1  0  0  0  0
 15 44  1  0  0  0  0
 16 17  2  0  0  0  0
 16 19  1  0  0  0  0
 17 18  1  0  0  0  0
 19 20  2  0  0  0  0
 19 24  1  0  0  0  0
 20 21  1  0  0  0  0
 20 45  1  0  0  0  0
 21 22  2  0  0  0  0
 21 27  1  0  0  0  0
 22 23  1  0  0  0  0
 22 26  1  0  0  0  0
 23 24  2  0  0  0  0
 23 46  1  0  0  0  0
 24 25  1  0  0  0  0
 25 47  1  0  0  0  0
 26 48  1  0  0  0  0
M  CHG  1  10   1
M  END
