3bqn_ligand
 OpenBabel08222323343D

 61 64  0  0  0  0  0  0  0  0999 V2000
  -16.4800   14.1720   -6.0020 F   0  0  0  0  0  0  0  0  0  0  0  0
  -17.7030   14.6230   -5.7750 C   0  0  0  0  0  0  0  0  0  0  0  0
  -18.5800   13.8670   -6.3770 F   0  0  0  0  0  0  0  0  0  0  0  0
  -17.8700   14.4780   -4.4710 F   0  0  0  0  0  0  0  0  0  0  0  0
  -17.7770   16.0890   -6.1920 C   0  0  0  0  0  0  0  0  0  0  0  0
  -17.0390   16.5820   -7.2980 C   0  0  0  0  0  0  0  0  0  0  0  0
  -16.2440   15.6510   -8.1910 C   0  0  0  0  0  0  0  0  0  0  0  0
  -15.0300   15.3760   -7.7680 F   0  0  0  0  0  0  0  0  0  0  0  0
  -16.9400   14.5360   -8.3230 F   0  0  0  0  0  0  0  0  0  0  0  0
  -16.1880   16.1090   -9.4230 F   0  0  0  0  0  0  0  0  0  0  0  0
  -18.5370   16.9850   -5.4240 C   0  0  0  0  0  0  0  0  0  0  0  0
  -19.4660   16.4980   -4.0820 S   0  0  0  0  0  0  0  0  0  0  0  0
  -20.3990   17.8290   -3.5760 C   0  0  0  0  0  0  0  0  0  0  0  0
  -21.4770   18.2930   -4.3330 C   0  0  0  0  0  0  0  0  0  0  0  0
  -21.8030   17.6580   -5.5100 O   0  0  0  0  0  0  0  0  0  0  0  0
  -23.0700   17.8350   -6.1600 C   0  0  0  0  0  0  0  0  0  0  0  0
  -22.9720   18.9430   -7.1870 C   0  0  0  0  0  0  0  0  0  0  0  0
  -21.7480   19.2700   -7.7660 C   0  0  0  0  0  0  0  0  0  0  0  0
  -21.6960   20.2970   -8.7080 C   0  0  0  0  0  0  0  0  0  0  0  0
  -22.8710   20.9690   -9.0510 C   0  0  0  0  0  0  0  0  0  0  0  0
  -24.0360   20.6300   -8.4770 N   0  0  0  0  0  0  0  0  0  0  0  0
  -24.1150   19.6460   -7.5650 C   0  0  0  0  0  0  0  0  0  0  0  0
  -22.2140   19.3960   -3.8910 C   0  0  0  0  0  0  0  0  0  0  0  0
  -21.8700   20.0360   -2.7040 C   0  0  0  0  0  0  0  0  0  0  0  0
  -20.7930   19.5720   -1.9520 C   0  0  0  0  0  0  0  0  0  0  0  0
  -20.0600   18.4700   -2.3890 C   0  0  0  0  0  0  0  0  0  0  0  0
  -18.5800   18.3390   -5.7660 C   0  0  0  0  0  0  0  0  0  0  0  0
  -17.8710   18.8190   -6.8580 C   0  0  0  0  0  0  0  0  0  0  0  0
  -17.1120   17.9480   -7.6350 C   0  0  0  0  0  0  0  0  0  0  0  0
  -16.3410   18.4940   -8.7910 C   0  0  0  0  0  0  0  0  0  0  0  0
  -15.9980   19.7810   -8.9150 C   0  0  0  0  0  0  0  0  0  0  0  0
  -15.1820   20.2170  -10.0710 C   0  0  0  0  0  0  0  0  0  0  0  0
  -14.4270   19.4050  -10.5810 O   0  0  0  0  0  0  0  0  0  0  0  0
  -15.2430   21.4760  -10.5150 N   0  0  0  0  0  0  0  0  0  0  0  0
  -16.0540   22.5330   -9.9050 C   0  0  0  0  0  0  0  0  0  0  0  0
  -15.0780   23.6440   -9.5100 C   0  0  0  0  0  0  0  0  0  0  0  0
  -14.2470   24.0100  -10.6240 O   0  0  0  0  0  0  0  0  0  0  0  0
  -13.4870   22.9190  -11.1400 C   0  0  0  0  0  0  0  0  0  0  0  0
  -14.4670   21.8870  -11.6850 C   0  0  0  0  0  0  0  0  0  0  0  0
  -23.8307   18.0987   -5.4105 H   0  0  0  0  0  0  0  0  0  0  0  0
  -23.3573   16.8984   -6.6603 H   0  0  0  0  0  0  0  0  0  0  0  0
  -20.8480   18.7334   -7.4881 H   0  0  0  0  0  0  0  0  0  0  0  0
  -20.7538   20.5706   -9.1689 H   0  0  0  0  0  0  0  0  0  0  0  0
  -22.8422   21.7675   -9.7836 H   0  0  0  0  0  0  0  0  0  0  0  0
  -25.0723   19.3977   -7.1211 H   0  0  0  0  0  0  0  0  0  0  0  0
  -23.0550   19.7534   -4.4741 H   0  0  0  0  0  0  0  0  0  0  0  0
  -22.4391   20.8941   -2.3652 H   0  0  0  0  0  0  0  0  0  0  0  0
  -20.5249   20.0683   -1.0264 H   0  0  0  0  0  0  0  0  0  0  0  0
  -19.2226   18.1111   -1.8016 H   0  0  0  0  0  0  0  0  0  0  0  0
  -19.1745   19.0229   -5.1710 H   0  0  0  0  0  0  0  0  0  0  0  0
  -17.9081   19.8735   -7.1064 H   0  0  0  0  0  0  0  0  0  0  0  0
  -16.0405   17.8047   -9.5787 H   0  0  0  0  0  0  0  0  0  0  0  0
  -16.3180   20.5059   -8.1680 H   0  0  0  0  0  0  0  0  0  0  0  0
  -16.5750   22.1489   -9.0156 H   0  0  0  0  0  0  0  0  0  0  0  0
  -16.7920   22.9124  -10.6271 H   0  0  0  0  0  0  0  0  0  0  0  0
  -14.4415   23.2894   -8.6859 H   0  0  0  0  0  0  0  0  0  0  0  0
  -15.6481   24.5250   -9.1800 H   0  0  0  0  0  0  0  0  0  0  0  0
  -12.8806   22.4726  -10.3381 H   0  0  0  0  0  0  0  0  0  0  0  0
  -12.8268   23.2708  -11.9464 H   0  0  0  0  0  0  0  0  0  0  0  0
  -15.1200   22.3345  -12.4487 H   0  0  0  0  0  0  0  0  0  0  0  0
  -13.9303   21.0299  -12.1179 H   0  0  0  0  0  0  0  0  0  0  0  0
  1  2  1  0  0  0  0
  2  3  1  0  0  0  0
  2  4  1  0  0  0  0
  2  5  1  0  0  0  0
  5  6  2  0  0  0  0
  5 11  1  0  0  0  0
  6  7  1  0  0  0  0
  6 29  1  0  0  0  0
  7  8  1  0  0  0  0
  7  9  1  0  0  0  0
  7 10  1  0  0  0  0
 11 12  1  0  0  0  0
 11 27  2  0  0  0  0
 12 13  1  0  0  0  0
 13 14  2  0  0  0  0
 13 26  1  0  0  0  0
 14 15  1  0  0  0  0
 14 23  1  0  0  0  0
 15 16  1  0  0  0  0
 16 17  1  0  0  0  0
 16 40  1  0  0  0  0
 16 41  1  0  0  0  0
 17 18  2  0  0  0  0
 17 22  1  0  0  0  0
 18 19  1  0  0  0  0
 18 42  1  0  0  0  0
 19 20  2  0  0  0  0
 19 43  1  0  0  0  0
 20 21  1  0  0  0  0
 20 44  1  0  0  0  0
 21 22  2  0  0  0  0
 22 45  1  0  0  0  0
 23 24  2  0  0  0  0
 23 46  1  0  0  0  0
 24 25  1  0  0  0  0
 24 47  1  0  0  0  0
 25 26  2  0  0  0  0
 25 48  1  0  0  0  0
 26 49  1  0  0  0  0
 27 28  1  0  0  0  0
 27 50  1  0  0  0  0
 28 29  2  0  0  0  0
 28 51  1  0  0  0  0
 29 30  1  0  0  0  0
 30 31  2  0  0  0  0
 30 52  1  0  0  0  0
 31 32  1  0  0  0  0
 31 53  1  0  0  0  0
 32 33  2  0  0  0  0
 32 34  1  0  0  0  0
 34 35  1  0  0  0  0
 34 39  1  0  0  0  0
 35 36  1  0  0  0  0
 35 54  1  0  0  0  0
 35 55  1  0  0  0  0
 36 37  1  0  0  0  0
 36 56  1  0  0  0  0
 36 57  1  0  0  0  0
 37 38  1  0  0  0  0
 38 39  1  0  0  0  0
 38 58  1  0  0  0  0
 38 59  1  0  0  0  0
 39 60  1  0  0  0  0
 39 61  1  0  0  0  0
M  END
