3br9_ligand
 OpenBabel08222323343D

 61 64  0  0  1  0  0  0  0  0999 V2000
   94.4020    5.4100   58.5470 O   0  0  0  0  0  0  0  0  0  0  0  0
   95.2020    6.5870   58.2800 S   0  0  0  0  0  0  0  0  0  0  0  0
   96.6290    6.4960   58.3980 O   0  0  0  0  0  0  0  0  0  0  0  0
   94.5310    7.9480   59.2110 C   0  0  0  0  0  0  0  0  0  0  0  0
   94.8060    8.0820   60.5810 C   0  0  0  0  0  0  0  0  0  0  0  0
   94.2640    9.1510   61.3300 C   0  0  0  0  0  0  0  0  0  0  0  0
   94.5280    9.3080   62.6730 O   0  0  0  0  0  0  0  0  0  0  0  0
   95.1580    8.2370   63.3750 C   0  0  2  0  0  0  0  0  0  0  0  0
   94.1310    7.1910   63.7660 C   0  0  0  0  0  0  0  0  0  0  0  0
   95.7710    8.8160   64.6140 C   0  0  0  0  0  0  0  0  0  0  0  0
   96.4700    8.1810   65.3810 O   0  0  0  0  0  0  0  0  0  0  0  0
   95.4740   10.1300   64.7960 N   0  0  0  0  0  0  0  0  0  0  0  0
   93.4340   10.0700   60.7060 C   0  0  0  0  0  0  0  0  0  0  0  0
   94.8500    7.0570   56.7300 N   0  0  0  0  0  0  0  0  0  0  0  0
   93.9850    8.1080   56.4160 C   0  0  0  0  0  0  0  0  0  0  0  0
   93.3280    8.8380   57.2670 N   0  0  0  0  0  0  0  0  0  0  0  0
   93.6750    8.8600   58.5970 C   0  0  0  0  0  0  0  0  0  0  0  0
   93.1400    9.9160   59.3460 C   0  0  0  0  0  0  0  0  0  0  0  0
   93.8360    8.3230   54.9800 C   0  0  0  0  0  0  0  0  0  0  0  0
   94.4790    7.5590   54.0710 C   0  0  0  0  0  0  0  0  0  0  0  0
   94.9820    6.3080   54.3270 O   0  0  0  0  0  0  0  0  0  0  0  0
   92.9690    9.4320   54.5220 C   0  0  0  0  0  0  0  0  0  0  0  0
   92.2860   10.0590   55.3480 O   0  0  0  0  0  0  0  0  0  0  0  0
   93.0890    9.7690   53.1810 N   0  0  0  0  0  0  0  0  0  0  0  0
   92.3550   10.9110   52.6930 C   0  0  0  0  0  0  0  0  0  0  0  0
   90.8970   10.4690   52.6070 C   0  0  0  0  0  0  0  0  0  0  0  0
   90.6870    9.3370   51.5840 C   0  0  0  0  0  0  0  0  0  0  0  0
   89.2500    8.8300   51.5400 C   0  0  0  0  0  0  0  0  0  0  0  0
   91.1220    9.7990   50.1860 C   0  0  0  0  0  0  0  0  0  0  0  0
   93.8710    9.0960   52.2760 N   0  0  0  0  0  0  0  0  0  0  0  0
   94.5340    8.0590   52.6900 C   0  0  0  0  0  0  0  0  0  0  0  0
   95.4000    7.3120   51.7840 C   0  0  0  0  0  0  0  0  0  0  0  0
   95.9370    6.0630   51.9410 C   0  0  0  0  0  0  0  0  0  0  0  0
   95.8850    8.0600   50.3240 S   0  0  0  0  0  0  0  0  0  0  0  0
   96.8290    6.7110   49.9040 C   0  0  0  0  0  0  0  0  0  0  0  0
   96.7430    5.7490   50.8690 C   0  0  0  0  0  0  0  0  0  0  0  0
   95.4432    7.3551   61.0715 H   0  0  0  0  0  0  0  0  0  0  0  0
   95.9338    7.7773   62.7452 H   0  0  0  0  0  0  0  0  0  0  0  0
   94.6290    6.3720   64.3057 H   0  0  0  0  0  0  0  0  0  0  0  0
   93.6492    6.7937   62.8605 H   0  0  0  0  0  0  0  0  0  0  0  0
   93.3703    7.6488   64.4154 H   0  0  0  0  0  0  0  0  0  0  0  0
   95.8316   10.6178   65.5924 H   0  0  0  0  0  0  0  0  0  0  0  0
   94.8979   10.6088   64.1335 H   0  0  0  0  0  0  0  0  0  0  0  0
   93.0170   10.8994   61.2657 H   0  0  0  0  0  0  0  0  0  0  0  0
   95.2813    6.5600   55.9770 H   0  0  0  0  0  0  0  0  0  0  0  0
   92.4836   10.6299   58.8616 H   0  0  0  0  0  0  0  0  0  0  0  0
   95.6277    6.3636   55.0216 H   0  0  0  0  0  0  0  0  0  0  0  0
   92.7239   11.2064   51.6997 H   0  0  0  0  0  0  0  0  0  0  0  0
   92.4574   11.7569   53.3887 H   0  0  0  0  0  0  0  0  0  0  0  0
   90.2830   11.3320   52.3101 H   0  0  0  0  0  0  0  0  0  0  0  0
   90.5762   10.1141   53.5975 H   0  0  0  0  0  0  0  0  0  0  0  0
   91.3286    8.4951   51.8832 H   0  0  0  0  0  0  0  0  0  0  0  0
   89.1674    8.0265   50.7933 H   0  0  0  0  0  0  0  0  0  0  0  0
   88.5779    9.6563   51.2652 H   0  0  0  0  0  0  0  0  0  0  0  0
   88.9678    8.4413   52.5296 H   0  0  0  0  0  0  0  0  0  0  0  0
   92.1592   10.1631   50.2264 H   0  0  0  0  0  0  0  0  0  0  0  0
   90.4617   10.6104   49.8460 H   0  0  0  0  0  0  0  0  0  0  0  0
   91.0569    8.9546   49.4840 H   0  0  0  0  0  0  0  0  0  0  0  0
   95.7531    5.4099   52.7928 H   0  0  0  0  0  0  0  0  0  0  0  0
   97.4196    6.6257   48.9931 H   0  0  0  0  0  0  0  0  0  0  0  0
   97.2738    4.8009   50.7964 H   0  0  0  0  0  0  0  0  0  0  0  0
  1  2  2  0  0  0  0
  2  3  2  0  0  0  0
  2  4  1  0  0  0  0
  2 14  1  0  0  0  0
  4  5  2  0  0  0  0
  4 17  1  0  0  0  0
  5  6  1  0  0  0  0
  5 37  1  0  0  0  0
  6  7  1  0  0  0  0
  6 13  2  0  0  0  0
  7  8  1  0  0  0  0
  8  9  1  0  0  0  0
  8 10  1  0  0  0  0
  8 38  1  6  0  0  0
  9 39  1  0  0  0  0
  9 40  1  0  0  0  0
  9 41  1  0  0  0  0
 10 11  2  0  0  0  0
 10 12  1  0  0  0  0
 12 42  1  0  0  0  0
 12 43  1  0  0  0  0
 13 18  1  0  0  0  0
 13 44  1  0  0  0  0
 14 15  1  0  0  0  0
 14 45  1  0  0  0  0
 15 16  2  0  0  0  0
 15 19  1  0  0  0  0
 16 17  1  0  0  0  0
 17 18  2  0  0  0  0
 18 46  1  0  0  0  0
 19 20  2  0  0  0  0
 19 22  1  0  0  0  0
 20 21  1  0  0  0  0
 20 31  1  0  0  0  0
 21 47  1  0  0  0  0
 22 23  2  0  0  0  0
 22 24  1  0  0  0  0
 24 25  1  0  0  0  0
 24 30  1  0  0  0  0
 25 26  1  0  0  0  0
 25 48  1  0  0  0  0
 25 49  1  0  0  0  0
 26 27  1  0  0  0  0
 26 50  1  0  0  0  0
 26 51  1  0  0  0  0
 27 28  1  0  0  0  0
 27 29  1  0  0  0  0
 27 52  1  0  0  0  0
 28 53  1  0  0  0  0
 28 54  1  0  0  0  0
 28 55  1  0  0  0  0
 29 56  1  0  0  0  0
 29 57  1  0  0  0  0
 29 58  1  0  0  0  0
 30 31  2  0  0  0  0
 31 32  1  0  0  0  0
 32 33  2  0  0  0  0
 32 34  1  0  0  0  0
 33 36  1  0  0  0  0
 33 59  1  0  0  0  0
 34 35  1  0  0  0  0
 35 36  2  0  0  0  0
 35 60  1  0  0  0  0
 36 61  1  0  0  0  0
M  END
