3btj_ligand
 OpenBabel08222323343D

 77 80  0  0  1  0  0  0  0  0999 V2000
  -71.4650  -50.6010    7.7690 C   0  0  0  0  0  0  0  0  0  0  0  0
  -71.7190  -51.7530    6.9500 C   0  0  0  0  0  0  0  0  0  0  0  0
  -73.0510  -52.2530    6.8240 C   0  0  0  0  0  0  0  0  0  0  0  0
  -74.1240  -51.5980    7.5140 C   0  0  0  0  0  0  0  0  0  0  0  0
  -72.5170  -49.8890    8.4970 C   0  0  0  0  0  0  0  0  0  0  0  0
  -73.8920  -50.4240    8.3460 C   0  0  0  0  0  0  0  0  0  0  0  0
  -74.9950  -49.7870    9.0270 C   0  0  0  0  0  0  0  0  0  0  0  0
  -74.7900  -48.6390    9.8420 C   0  0  0  0  0  0  0  0  0  0  0  0
  -73.5350  -48.0330   10.0700 C   0  0  2  0  0  0  0  0  0  0  0  0
  -72.3250  -48.6190    9.4180 N   0  0  0  0  0  0  0  0  0  0  0  0
  -62.5020  -45.4990    1.1680 C   0  0  0  0  0  0  0  0  0  0  0  0
  -62.8040  -45.4990    2.6280 C   0  0  0  0  0  0  0  0  0  0  0  0
  -61.5710  -45.4230    3.6760 N   0  0  0  0  0  0  0  0  0  0  0  0
  -60.1910  -45.3530    2.9320 C   0  0  0  0  0  0  0  0  0  0  0  0
  -60.0630  -45.3620    1.5450 C   0  0  0  0  0  0  0  0  0  0  0  0
  -61.1360  -45.4300    0.6700 C   0  0  2  0  0  0  0  0  0  0  0  0
  -63.5910  -45.5690    0.2180 C   0  0  0  0  0  0  0  0  0  0  0  0
  -64.9640  -45.6360    0.6130 C   0  0  0  0  0  0  0  0  0  0  0  0
  -65.2880  -45.6350    1.9920 C   0  0  0  0  0  0  0  0  0  0  0  0
  -64.2340  -45.5670    2.9600 C   0  0  0  0  0  0  0  0  0  0  0  0
  -61.4080  -45.5430    5.2820 C   0  0  0  0  0  0  0  0  0  0  0  0
  -62.8160  -45.8250    5.7710 C   0  0  0  0  0  0  0  0  0  0  0  0
  -62.9270  -45.9870    7.2830 C   0  0  0  0  0  0  0  0  0  0  0  0
  -64.3700  -46.2850    7.5100 C   0  0  0  0  0  0  0  0  0  0  0  0
  -64.8170  -46.5110    8.9360 C   0  0  0  0  0  0  0  0  0  0  0  0
  -66.3170  -46.8060    8.8010 C   0  0  0  0  0  0  0  0  0  0  0  0
  -67.0350  -47.0750   10.0990 C   0  0  0  0  0  0  0  0  0  0  0  0
  -68.5070  -47.3620    9.8310 C   0  0  0  0  0  0  0  0  0  0  0  0
  -69.5850  -48.2880    9.2460 C   0  0  0  0  0  0  0  0  0  0  0  0
  -70.9840  -47.8770    9.7650 C   0  0  0  0  0  0  0  0  0  0  0  0
  -73.5650  -46.7910   11.0080 C   0  0  0  0  0  0  0  0  0  0  0  0
  -58.8440  -45.2750    3.6590 C   0  0  0  0  0  0  0  0  0  0  0  0
  -76.3600  -50.2320    8.9480 N   0  0  0  0  0  0  0  0  0  0  0  0
  -60.6430  -45.4170   -0.6930 N   0  3  0  0  0  0  0  0  0  0  0  0
  -70.4458  -50.2414    7.8522 H   0  0  0  0  0  0  0  0  0  0  0  0
  -70.9030  -52.2412    6.4295 H   0  0  0  0  0  0  0  0  0  0  0  0
  -73.2499  -53.1236    6.2096 H   0  0  0  0  0  0  0  0  0  0  0  0
  -75.1316  -51.9852    7.4144 H   0  0  0  0  0  0  0  0  0  0  0  0
  -75.6612  -48.1970   10.3233 H   0  0  0  0  0  0  0  0  0  0  0  0
  -73.6643  -47.3742    9.1986 H   0  0  0  0  0  0  0  0  0  0  0  0
  -59.0603  -45.3127    1.1229 H   0  0  0  0  0  0  0  0  0  0  0  0
  -61.1209  -46.5299    0.6702 H   0  0  0  0  0  0  0  0  0  0  0  0
  -63.3558  -45.5707   -0.8402 H   0  0  0  0  0  0  0  0  0  0  0  0
  -65.7476  -45.6870   -0.1343 H   0  0  0  0  0  0  0  0  0  0  0  0
  -66.3226  -45.6852    2.3115 H   0  0  0  0  0  0  0  0  0  0  0  0
  -64.5100  -45.5656    4.0083 H   0  0  0  0  0  0  0  0  0  0  0  0
  -61.0265  -44.6034    5.7081 H   0  0  0  0  0  0  0  0  0  0  0  0
  -60.7295  -46.3675    5.5461 H   0  0  0  0  0  0  0  0  0  0  0  0
  -63.1672  -46.7534    5.2971 H   0  0  0  0  0  0  0  0  0  0  0  0
  -63.4624  -44.9895    5.4644 H   0  0  0  0  0  0  0  0  0  0  0  0
  -62.6337  -45.0603    7.7979 H   0  0  0  0  0  0  0  0  0  0  0  0
  -62.2966  -46.8171    7.6344 H   0  0  0  0  0  0  0  0  0  0  0  0
  -64.6130  -47.1939    6.9400 H   0  0  0  0  0  0  0  0  0  0  0  0
  -64.9484  -45.4377    7.1132 H   0  0  0  0  0  0  0  0  0  0  0  0
  -64.6468  -45.6130    9.5480 H   0  0  0  0  0  0  0  0  0  0  0  0
  -64.2874  -47.3652    9.3830 H   0  0  0  0  0  0  0  0  0  0  0  0
  -66.4339  -47.6903    8.1573 H   0  0  0  0  0  0  0  0  0  0  0  0
  -66.7933  -45.9380    8.3217 H   0  0  0  0  0  0  0  0  0  0  0  0
  -66.9488  -46.1942   10.7522 H   0  0  0  0  0  0  0  0  0  0  0  0
  -66.5787  -47.9448   10.5941 H   0  0  0  0  0  0  0  0  0  0  0  0
  -68.7628  -46.4404    9.2877 H   0  0  0  0  0  0  0  0  0  0  0  0
  -68.8828  -47.2957   10.8627 H   0  0  0  0  0  0  0  0  0  0  0  0
  -69.3759  -49.3248    9.5481 H   0  0  0  0  0  0  0  0  0  0  0  0
  -69.5693  -48.2156    8.1485 H   0  0  0  0  0  0  0  0  0  0  0  0
  -70.9095  -47.9025   10.8622 H   0  0  0  0  0  0  0  0  0  0  0  0
  -71.1278  -46.8388    9.4313 H   0  0  0  0  0  0  0  0  0  0  0  0
  -74.5990  -46.6010   11.3318 H   0  0  0  0  0  0  0  0  0  0  0  0
  -73.1832  -45.9131   10.4663 H   0  0  0  0  0  0  0  0  0  0  0  0
  -72.9341  -46.9813   11.8888 H   0  0  0  0  0  0  0  0  0  0  0  0
  -58.0302  -45.2357    2.9199 H   0  0  0  0  0  0  0  0  0  0  0  0
  -58.7188  -46.1635    4.2953 H   0  0  0  0  0  0  0  0  0  0  0  0
  -58.8162  -44.3698    4.2834 H   0  0  0  0  0  0  0  0  0  0  0  0
  -76.6008  -51.0567    8.3798 H   0  0  0  0  0  0  0  0  0  0  0  0
  -77.0970  -49.7261    9.4596 H   0  0  0  0  0  0  0  0  0  0  0  0
  -61.4209  -45.4663   -1.3321 H   0  0  0  0  0  0  0  0  0  0  0  0
  -60.0375  -46.2096   -0.8389 H   0  0  0  0  0  0  0  0  0  0  0  0
  -60.1278  -44.5661   -0.8559 H   0  0  0  0  0  0  0  0  0  0  0  0
  1  2  2  0  0  0  0
  1 35  1  0  0  0  0
  2  3  1  0  0  0  0
  2 36  1  0  0  0  0
  3 37  1  0  0  0  0
  4  3  2  0  0  0  0
  4 38  1  0  0  0  0
  5  1  1  0  0  0  0
  5  6  2  0  0  0  0
  6  4  1  0  0  0  0
  6  7  1  0  0  0  0
  7 33  1  0  0  0  0
  8  7  2  0  0  0  0
  8 39  1  0  0  0  0
  9  8  1  0  0  0  0
  9 31  1  0  0  0  0
  9 40  1  6  0  0  0
 10  5  1  0  0  0  0
 10  9  1  0  0  0  0
 11 16  1  0  0  0  0
 11 17  1  0  0  0  0
 12 11  2  0  0  0  0
 12 20  1  0  0  0  0
 13 12  1  0  0  0  0
 13 14  1  0  0  0  0
 14 15  2  0  0  0  0
 14 32  1  0  0  0  0
 15 16  1  0  0  0  0
 15 41  1  0  0  0  0
 16 34  1  0  0  0  0
 16 42  1  1  0  0  0
 17 18  2  0  0  0  0
 17 43  1  0  0  0  0
 18 44  1  0  0  0  0
 19 18  1  0  0  0  0
 19 45  1  0  0  0  0
 20 19  2  0  0  0  0
 20 46  1  0  0  0  0
 21 13  1  0  0  0  0
 21 47  1  0  0  0  0
 21 48  1  0  0  0  0
 22 21  1  0  0  0  0
 22 49  1  0  0  0  0
 22 50  1  0  0  0  0
 23 22  1  0  0  0  0
 23 51  1  0  0  0  0
 23 52  1  0  0  0  0
 24 23  1  0  0  0  0
 24 53  1  0  0  0  0
 24 54  1  0  0  0  0
 25 24  1  0  0  0  0
 25 55  1  0  0  0  0
 25 56  1  0  0  0  0
 26 25  1  0  0  0  0
 26 57  1  0  0  0  0
 26 58  1  0  0  0  0
 27 26  1  0  0  0  0
 27 59  1  0  0  0  0
 27 60  1  0  0  0  0
 28 27  1  0  0  0  0
 28 61  1  0  0  0  0
 28 62  1  0  0  0  0
 29 28  1  0  0  0  0
 29 30  1  0  0  0  0
 29 63  1  0  0  0  0
 29 64  1  0  0  0  0
 30 10  1  0  0  0  0
 30 65  1  0  0  0  0
 30 66  1  0  0  0  0
 31 67  1  0  0  0  0
 31 68  1  0  0  0  0
 31 69  1  0  0  0  0
 32 70  1  0  0  0  0
 32 71  1  0  0  0  0
 32 72  1  0  0  0  0
 33 73  1  0  0  0  0
 33 74  1  0  0  0  0
 34 75  1  0  0  0  0
 34 76  1  0  0  0  0
 34 77  1  0  0  0  0
M  CHG  1  34   1
M  END
