3btr_ligand
 OpenBabel08222323343D

238237  0  0  1  0  0  0  0  0999 V2000
   21.5930   80.0350   65.2080 N   0  3  0  0  0  0  0  0  0  0  0  0
   22.8170   80.6590   64.6260 C   0  0  2  0  0  0  0  0  0  0  0  0
   23.3070   79.8200   63.4500 C   0  0  0  0  0  0  0  0  0  0  0  0
   23.6790   78.6650   63.6200 O   0  0  0  0  0  0  0  0  0  0  0  0
   23.9290   80.7650   65.6790 C   0  0  0  0  0  0  0  0  0  0  0  0
   23.4590   81.2330   67.0560 C   0  0  0  0  0  0  0  0  0  0  0  0
   24.5420   81.1490   68.1230 C   0  0  0  0  0  0  0  0  0  0  0  0
   25.5630   80.4590   67.9070 O   0  5  0  0  0  0  0  0  0  0  0  0
   24.3610   81.7750   69.1900 O   0  0  0  0  0  0  0  0  0  0  0  0
   23.2870   80.3940   62.2550 N   0  0  0  0  0  0  0  0  0  0  0  0
   23.8560   79.7380   61.0840 C   0  0  2  0  0  0  0  0  0  0  0  0
   25.2260   80.3340   60.8270 C   0  0  0  0  0  0  0  0  0  0  0  0
   25.6430   81.2860   61.4900 O   0  0  0  0  0  0  0  0  0  0  0  0
   22.9560   79.9180   59.8640 C   0  0  0  0  0  0  0  0  0  0  0  0
   25.9220   79.7670   59.8560 N   0  0  0  0  0  0  0  0  0  0  0  0
   27.2570   80.2140   59.5180 C   0  0  0  0  0  0  0  0  0  0  0  0
   28.0720   78.9960   59.1940 C   0  0  0  0  0  0  0  0  0  0  0  0
   28.8010   78.4850   60.0440 O   0  0  0  0  0  0  0  0  0  0  0  0
   27.9110   78.5240   57.9600 N   0  0  0  0  0  0  0  0  0  0  0  0
   28.6820   77.4000   57.4490 C   0  0  2  0  0  0  0  0  0  0  0  0
   29.9500   77.9490   56.8150 C   0  0  0  0  0  0  0  0  0  0  0  0
   29.8970   78.8620   55.9910 O   0  0  0  0  0  0  0  0  0  0  0  0
   27.8510   76.5740   56.4510 C   0  0  0  0  0  0  0  0  0  0  0  0
   26.8070   75.6880   57.1380 C   0  0  0  0  0  0  0  0  0  0  0  0
   27.3970   74.0650   57.6910 S   0  0  0  0  0  0  0  0  0  0  0  0
   29.1920   74.2150   57.5920 C   0  0  0  0  0  0  0  0  0  0  0  0
   31.0880   77.3950   57.2240 N   0  0  0  0  0  0  0  0  0  0  0  0
   32.3850   77.8560   56.7580 C   0  0  2  0  0  0  0  0  0  0  0  0
   32.5360   77.5420   55.2780 C   0  0  0  0  0  0  0  0  0  0  0  0
   33.2830   78.2160   54.5710 O   0  0  0  0  0  0  0  0  0  0  0  0
   33.5460   77.1720   57.5260 C   0  0  2  0  0  0  0  0  0  0  0  0
   33.0550   76.5460   58.7160 O   0  0  0  0  0  0  0  0  0  0  0  0
   34.5810   78.1870   57.9050 C   0  0  0  0  0  0  0  0  0  0  0  0
   31.8020   76.5270   54.8170 N   0  0  0  0  0  0  0  0  0  0  0  0
   32.1020   75.8710   53.5590 C   0  0  2  0  0  0  0  0  0  0  0  0
   33.5830   75.4770   53.7150 C   0  0  0  0  0  0  0  0  0  0  0  0
   34.0790   75.4130   54.8510 O   0  0  0  0  0  0  0  0  0  0  0  0
   31.7520   76.7780   52.3600 C   0  0  0  0  0  0  0  0  0  0  0  0
   30.2570   77.1810   52.3160 C   0  0  0  0  0  0  0  0  0  0  0  0
   29.9750   78.1960   51.2080 C   0  0  0  0  0  0  0  0  0  0  0  0
   29.3380   75.9600   52.1740 C   0  0  0  0  0  0  0  0  0  0  0  0
   34.3030   75.1710   52.6490 N   0  0  0  0  0  0  0  0  0  0  0  0
   35.6550   74.6680   52.8690 C   0  0  0  0  0  0  0  0  0  0  0  0
   36.6950   75.7640   52.8940 C   0  0  0  0  0  0  0  0  0  0  0  0
   37.7910   75.5370   52.4290 O   0  0  0  0  0  0  0  0  0  0  0  0
   36.3770   76.9390   53.4440 N   0  0  0  0  0  0  0  0  0  0  0  0
   37.1450   78.1760   53.1510 C   0  0  2  0  0  0  0  0  0  0  0  0
   38.5540   78.1890   53.7410 C   0  0  0  0  0  0  0  0  0  0  0  0
   38.7200   77.8870   54.9120 O   0  0  0  0  0  0  0  0  0  0  0  0
   36.3820   79.4170   53.6150 C   0  0  0  0  0  0  0  0  0  0  0  0
   39.5510   78.5550   52.9250 N   0  0  0  0  0  0  0  0  0  0  0  0
   40.9500   78.6610   53.3860 C   0  0  2  0  0  0  0  0  0  0  0  0
   41.0960   79.7830   54.3960 C   0  0  0  0  0  0  0  0  0  0  0  0
   41.7330   79.6000   55.4260 O   0  0  0  0  0  0  0  0  0  0  0  0
   41.9380   78.8830   52.2240 C   0  0  0  0  0  0  0  0  0  0  0  0
   41.8310   77.8230   51.1580 C   0  0  0  0  0  0  0  0  0  0  0  0
   43.0920   77.5780   50.3130 C   0  0  0  0  0  0  0  0  0  0  0  0
   42.7850   76.5330   49.3220 N   0  0  0  0  0  0  0  0  0  0  0  0
   43.4630   76.2740   48.2000 C   0  0  0  0  0  3  0  0  0  0  0  0
   44.5510   76.9650   47.8560 N   0  0  0  0  0  0  0  0  0  0  0  0
   43.0380   75.2960   47.4040 N   0  0  0  0  0  0  0  0  0  0  0  0
   40.4950   80.9370   54.1070 N   0  0  0  0  0  0  0  0  0  0  0  0
   40.5580   82.0830   55.0100 C   0  0  2  0  0  0  0  0  0  0  0  0
   39.1640   82.6710   55.2860 C   0  0  0  0  0  0  0  0  0  0  0  0
   38.2580   82.6140   54.4440 O   0  0  0  0  0  0  0  0  0  0  0  0
   41.5250   83.1420   54.4460 C   0  0  0  0  0  0  0  0  0  0  0  0
   43.0040   82.7050   54.4640 C   0  0  0  0  0  0  0  0  0  0  0  0
   43.8820   83.5400   53.5390 C   0  0  0  0  0  0  0  0  0  0  0  0
   45.3620   83.1160   53.6440 C   0  0  0  0  0  0  0  0  0  0  0  0
   46.2900   83.7610   52.6450 N   0  3  0  0  0  0  0  0  0  0  0  0
   39.0000   83.2000   56.4930 N   0  0  0  0  0  0  0  0  0  0  0  0
   37.7380   83.7990   56.9500 C   0  0  2  0  0  0  0  0  0  0  0  0
   38.0230   85.1780   57.5090 C   0  0  0  0  0  0  0  0  0  0  0  0
   38.8440   85.3240   58.4080 O   0  0  0  0  0  0  0  0  0  0  0  0
   37.0510   82.9560   58.0410 C   0  0  0  0  0  0  0  0  0  0  0  0
   36.2950   81.6760   57.6510 C   0  0  0  0  0  0  0  0  0  0  0  0
   35.5470   81.1420   58.8940 C   0  0  0  0  0  0  0  0  0  0  0  0
   35.3280   81.9040   56.4730 C   0  0  0  0  0  0  0  0  0  0  0  0
   37.3510   86.1770   56.9500 N   0  0  0  0  0  0  0  0  0  0  0  0
   37.4080   87.5500   57.4300 C   0  0  2  0  0  0  0  0  0  0  0  0
   36.3430   87.6840   58.5090 C   0  0  0  0  0  0  0  0  0  0  0  0
   35.2250   87.2020   58.3240 O   0  0  0  0  0  0  0  0  0  0  0  0
   37.1240   88.4780   56.2530 C   0  0  0  0  0  0  0  0  0  0  0  0
   36.9160   89.9530   56.5460 C   0  0  0  0  0  0  0  0  0  0  0  0
   36.6390   90.6430   55.2080 C   0  0  0  0  0  0  0  0  0  0  0  0
   36.3360   92.1210   55.3140 C   0  0  0  0  0  0  0  0  0  0  0  0
   35.6740   92.5860   54.0360 N   0  3  0  0  0  0  0  0  0  0  0  0
   36.6820   88.3060   59.6360 N   0  0  0  0  0  0  0  0  0  0  0  0
   35.6910   88.5090   60.7090 C   0  0  2  0  0  0  0  0  0  0  0  0
   34.8860   89.8000   60.5040 C   0  0  0  0  0  0  0  0  0  0  0  0
   35.4160   90.9050   60.6650 O   0  0  0  0  0  0  0  0  0  0  0  0
   36.3430   88.5260   62.0900 C   0  0  0  0  0  0  0  0  0  0  0  0
   35.3110   88.6890   63.1810 C   0  0  0  0  0  0  0  0  0  0  0  0
   35.8580   88.5170   64.5730 C   0  0  0  0  0  0  0  0  0  0  0  0
   34.7140   88.5910   65.6010 C   0  0  0  0  0  0  0  0  0  0  0  0
   35.1800   88.9200   66.9720 N   0  3  0  0  0  0  0  0  0  0  0  0
   33.6070   89.6560   60.1580 N   0  0  0  0  0  0  0  0  0  0  0  0
   32.7500   90.8140   59.9070 C   0  0  2  0  0  0  0  0  0  0  0  0
   32.3340   91.4770   61.2220 C   0  0  0  0  0  0  0  0  0  0  0  0
   32.3170   90.8330   62.2830 O   0  0  0  0  0  0  0  0  0  0  0  0
   31.5130   90.4280   59.0790 C   0  0  0  0  0  0  0  0  0  0  0  0
   31.7340   90.0220   57.6120 C   0  0  0  0  0  0  0  0  0  0  0  0
   30.3960   89.7790   56.9200 C   0  0  0  0  0  0  0  0  0  0  0  0
   32.5620   91.0480   56.8260 C   0  0  0  0  0  0  0  0  0  0  0  0
   32.0060   92.7690   61.1370 N   0  0  0  0  0  0  0  0  0  0  0  0
   31.6810   93.5890   62.3160 C   0  0  0  0  0  0  0  0  0  0  0  0
   30.4590   93.1150   63.0970 C   0  0  0  0  0  0  0  0  0  0  0  0
   30.5390   92.8450   64.3040 O   0  0  0  0  0  0  0  0  0  0  0  0
   29.2909   92.9897   62.4735 O   0  0  0  0  0  0  0  0  0  0  0  0
   21.2699   80.5900   65.9850 H   0  0  0  0  0  0  0  0  0  0  0  0
   21.8099   79.1039   65.5275 H   0  0  0  0  0  0  0  0  0  0  0  0
   20.8722   79.9896   64.5049 H   0  0  0  0  0  0  0  0  0  0  0  0
   22.5667   81.6690   64.2693 H   0  0  0  0  0  0  0  0  0  0  0  0
   24.6816   81.4787   65.3126 H   0  0  0  0  0  0  0  0  0  0  0  0
   24.3895   79.7726   65.7928 H   0  0  0  0  0  0  0  0  0  0  0  0
   22.6120   80.6043   67.3681 H   0  0  0  0  0  0  0  0  0  0  0  0
   23.1289   82.2792   66.9753 H   0  0  0  0  0  0  0  0  0  0  0  0
   22.8718   81.2982   62.1546 H   0  0  0  0  0  0  0  0  0  0  0  0
   23.9612   78.6623   61.2885 H   0  0  0  0  0  0  0  0  0  0  0  0
   23.4085   79.4143   58.9971 H   0  0  0  0  0  0  0  0  0  0  0  0
   22.8427   80.9904   59.6469 H   0  0  0  0  0  0  0  0  0  0  0  0
   21.9685   79.4790   60.0689 H   0  0  0  0  0  0  0  0  0  0  0  0
   25.5163   79.0109   59.3425 H   0  0  0  0  0  0  0  0  0  0  0  0
   27.7017   80.7474   60.3710 H   0  0  0  0  0  0  0  0  0  0  0  0
   27.2194   80.8835   58.6461 H   0  0  0  0  0  0  0  0  0  0  0  0
   27.2362   78.9571   57.3625 H   0  0  0  0  0  0  0  0  0  0  0  0
   28.9606   76.7460   58.2884 H   0  0  0  0  0  0  0  0  0  0  0  0
   28.5320   75.9314   55.8737 H   0  0  0  0  0  0  0  0  0  0  0  0
   27.3323   77.2643   55.7695 H   0  0  0  0  0  0  0  0  0  0  0  0
   25.9826   75.5244   56.4284 H   0  0  0  0  0  0  0  0  0  0  0  0
   26.4309   76.2292   58.0187 H   0  0  0  0  0  0  0  0  0  0  0  0
   29.6570   73.2704   57.9107 H   0  0  0  0  0  0  0  0  0  0  0  0
   29.5287   75.0297   58.2499 H   0  0  0  0  0  0  0  0  0  0  0  0
   29.4849   74.4362   56.5551 H   0  0  0  0  0  0  0  0  0  0  0  0
   31.0498   76.6359   57.8739 H   0  0  0  0  0  0  0  0  0  0  0  0
   32.4486   78.9438   56.9087 H   0  0  0  0  0  0  0  0  0  0  0  0
   34.0041   76.4102   56.8781 H   0  0  0  0  0  0  0  0  0  0  0  0
   33.7738   76.1199   59.1680 H   0  0  0  0  0  0  0  0  0  0  0  0
   35.3988   77.6913   58.4486 H   0  0  0  0  0  0  0  0  0  0  0  0
   34.1246   78.9534   58.5486 H   0  0  0  0  0  0  0  0  0  0  0  0
   34.9795   78.6613   56.9961 H   0  0  0  0  0  0  0  0  0  0  0  0
   31.0215   76.2093   55.3554 H   0  0  0  0  0  0  0  0  0  0  0  0
   31.5005   74.9552   53.4616 H   0  0  0  0  0  0  0  0  0  0  0  0
   31.9967   76.2406   51.4319 H   0  0  0  0  0  0  0  0  0  0  0  0
   32.3590   77.6931   52.4248 H   0  0  0  0  0  0  0  0  0  0  0  0
   30.0205   77.6635   53.2758 H   0  0  0  0  0  0  0  0  0  0  0  0
   28.9058   78.4546   51.2112 H   0  0  0  0  0  0  0  0  0  0  0  0
   30.2439   77.7603   50.2344 H   0  0  0  0  0  0  0  0  0  0  0  0
   30.5722   79.1034   51.3812 H   0  0  0  0  0  0  0  0  0  0  0  0
   29.5553   75.2421   52.9786 H   0  0  0  0  0  0  0  0  0  0  0  0
   29.5119   75.4816   51.1989 H   0  0  0  0  0  0  0  0  0  0  0  0
   28.2882   76.2812   52.2428 H   0  0  0  0  0  0  0  0  0  0  0  0
   33.9345   75.2803   51.7258 H   0  0  0  0  0  0  0  0  0  0  0  0
   35.9043   73.9665   52.0593 H   0  0  0  0  0  0  0  0  0  0  0  0
   35.6798   74.1390   53.8331 H   0  0  0  0  0  0  0  0  0  0  0  0
   35.5995   76.9872   54.0710 H   0  0  0  0  0  0  0  0  0  0  0  0
   37.2504   78.2357   52.0577 H   0  0  0  0  0  0  0  0  0  0  0  0
   36.9719   80.3169   53.3864 H   0  0  0  0  0  0  0  0  0  0  0  0
   36.2098   79.3573   54.6998 H   0  0  0  0  0  0  0  0  0  0  0  0
   35.4154   79.4698   53.0926 H   0  0  0  0  0  0  0  0  0  0  0  0
   39.3407   78.7639   51.9699 H   0  0  0  0  0  0  0  0  0  0  0  0
   41.2135   77.7140   53.8797 H   0  0  0  0  0  0  0  0  0  0  0  0
   42.9617   78.8751   52.6263 H   0  0  0  0  0  0  0  0  0  0  0  0
   41.7306   79.8624   51.7682 H   0  0  0  0  0  0  0  0  0  0  0  0
   41.0208   78.1159   50.4740 H   0  0  0  0  0  0  0  0  0  0  0  0
   41.5693   76.8757   51.6521 H   0  0  0  0  0  0  0  0  0  0  0  0
   43.9162   77.2458   50.9614 H   0  0  0  0  0  0  0  0  0  0  0  0
   43.3816   78.5060   49.7982 H   0  0  0  0  0  0  0  0  0  0  0  0
   41.9639   75.9413   49.5132 H   0  0  0  0  0  0  0  0  0  0  0  0
   45.0501   76.7392   46.9838 H   0  0  0  0  0  0  0  0  0  0  0  0
   44.8920   77.7244   48.4626 H   0  0  0  0  0  0  0  0  0  0  0  0
   42.1994   74.7540   47.6568 H   0  0  0  0  0  0  0  0  0  0  0  0
   43.5476   75.0810   46.5351 H   0  0  0  0  0  0  0  0  0  0  0  0
   39.9876   81.0203   53.2493 H   0  0  0  0  0  0  0  0  0  0  0  0
   40.9644   81.7332   55.9704 H   0  0  0  0  0  0  0  0  0  0  0  0
   41.4263   84.0576   55.0477 H   0  0  0  0  0  0  0  0  0  0  0  0
   41.2386   83.3544   53.4054 H   0  0  0  0  0  0  0  0  0  0  0  0
   43.0628   81.6530   54.1481 H   0  0  0  0  0  0  0  0  0  0  0  0
   43.3857   82.8013   55.4911 H   0  0  0  0  0  0  0  0  0  0  0  0
   43.7915   84.6001   53.8183 H   0  0  0  0  0  0  0  0  0  0  0  0
   43.5422   83.4038   52.5017 H   0  0  0  0  0  0  0  0  0  0  0  0
   45.4142   82.0265   53.5020 H   0  0  0  0  0  0  0  0  0  0  0  0
   45.7180   83.3718   54.6528 H   0  0  0  0  0  0  0  0  0  0  0  0
   47.2285   83.4236   52.7917 H   0  0  0  0  0  0  0  0  0  0  0  0
   46.2701   84.7616   52.7652 H   0  0  0  0  0  0  0  0  0  0  0  0
   45.9917   83.5288   51.7106 H   0  0  0  0  0  0  0  0  0  0  0  0
   39.7757   83.1903   57.1240 H   0  0  0  0  0  0  0  0  0  0  0  0
   37.0575   83.8864   56.0902 H   0  0  0  0  0  0  0  0  0  0  0  0
   36.3265   83.6138   58.5435 H   0  0  0  0  0  0  0  0  0  0  0  0
   37.8335   82.6593   58.7549 H   0  0  0  0  0  0  0  0  0  0  0  0
   37.0327   80.9223   57.3382 H   0  0  0  0  0  0  0  0  0  0  0  0
   35.0013   80.2248   58.6276 H   0  0  0  0  0  0  0  0  0  0  0  0
   34.8353   81.9022   59.2484 H   0  0  0  0  0  0  0  0  0  0  0  0
   36.2721   80.9189   59.6905 H   0  0  0  0  0  0  0  0  0  0  0  0
   35.8891   82.2830   55.6061 H   0  0  0  0  0  0  0  0  0  0  0  0
   34.5625   82.6385   56.7638 H   0  0  0  0  0  0  0  0  0  0  0  0
   34.8421   80.9533   56.2081 H   0  0  0  0  0  0  0  0  0  0  0  0
   36.7753   85.9758   56.1575 H   0  0  0  0  0  0  0  0  0  0  0  0
   38.3999   87.7739   57.8495 H   0  0  0  0  0  0  0  0  0  0  0  0
   36.2127   88.1105   55.7585 H   0  0  0  0  0  0  0  0  0  0  0  0
   37.9747   88.3984   55.5602 H   0  0  0  0  0  0  0  0  0  0  0  0
   37.8193   90.3768   57.0091 H   0  0  0  0  0  0  0  0  0  0  0  0
   36.0597   90.0860   57.2235 H   0  0  0  0  0  0  0  0  0  0  0  0
   35.7757   90.1484   54.7388 H   0  0  0  0  0  0  0  0  0  0  0  0
   37.5250   90.5193   54.5680 H   0  0  0  0  0  0  0  0  0  0  0  0
   37.2719   92.6783   55.4674 H   0  0  0  0  0  0  0  0  0  0  0  0
   35.6603   92.2980   56.1638 H   0  0  0  0  0  0  0  0  0  0  0  0
   35.4702   93.5710   54.1023 H   0  0  0  0  0  0  0  0  0  0  0  0
   34.8169   92.0743   53.8961 H   0  0  0  0  0  0  0  0  0  0  0  0
   36.2937   92.4228   53.2579 H   0  0  0  0  0  0  0  0  0  0  0  0
   37.6174   88.6387   59.7561 H   0  0  0  0  0  0  0  0  0  0  0  0
   34.9891   87.6627   60.6759 H   0  0  0  0  0  0  0  0  0  0  0  0
   37.0537   89.3641   62.1407 H   0  0  0  0  0  0  0  0  0  0  0  0
   36.8811   87.5791   62.2441 H   0  0  0  0  0  0  0  0  0  0  0  0
   34.5213   87.9393   63.0248 H   0  0  0  0  0  0  0  0  0  0  0  0
   34.8799   89.6978   63.1012 H   0  0  0  0  0  0  0  0  0  0  0  0
   36.5857   89.3155   64.7797 H   0  0  0  0  0  0  0  0  0  0  0  0
   36.3550   87.5388   64.6509 H   0  0  0  0  0  0  0  0  0  0  0  0
   34.2056   87.6159   65.6292 H   0  0  0  0  0  0  0  0  0  0  0  0
   34.0033   89.3659   65.2780 H   0  0  0  0  0  0  0  0  0  0  0  0
   34.3895   88.9539   67.5965 H   0  0  0  0  0  0  0  0  0  0  0  0
   35.6407   89.8165   66.9642 H   0  0  0  0  0  0  0  0  0  0  0  0
   35.8261   88.2129   67.2860 H   0  0  0  0  0  0  0  0  0  0  0  0
   33.2251   88.7362   60.0681 H   0  0  0  0  0  0  0  0  0  0  0  0
   33.3314   91.5451   59.3260 H   0  0  0  0  0  0  0  0  0  0  0  0
   30.8327   91.2924   59.0819 H   0  0  0  0  0  0  0  0  0  0  0  0
   31.0300   89.5795   59.5856 H   0  0  0  0  0  0  0  0  0  0  0  0
   32.2938   89.0751   57.6118 H   0  0  0  0  0  0  0  0  0  0  0  0
   30.5717   89.4900   55.8733 H   0  0  0  0  0  0  0  0  0  0  0  0
   29.7950   90.6998   56.9501 H   0  0  0  0  0  0  0  0  0  0  0  0
   29.8567   88.9720   57.4376 H   0  0  0  0  0  0  0  0  0  0  0  0
   33.5224   91.2125   57.3365 H   0  0  0  0  0  0  0  0  0  0  0  0
   32.0101   91.9978   56.7683 H   0  0  0  0  0  0  0  0  0  0  0  0
   32.7470   90.6690   55.8101 H   0  0  0  0  0  0  0  0  0  0  0  0
   31.9800   93.1978   60.2340 H   0  0  0  0  0  0  0  0  0  0  0  0
   31.4946   94.6190   61.9778 H   0  0  0  0  0  0  0  0  0  0  0  0
   32.5478   93.5766   62.9931 H   0  0  0  0  0  0  0  0  0  0  0  0
   28.6513   93.5597   62.8841 H   0  0  0  0  0  0  0  0  0  0  0  0
  1110  1  0  0  0  0
  1111  1  0  0  0  0
  1112  1  0  0  0  0
  2  1  1  0  0  0  0
  2  5  1  0  0  0  0
  2113  1  6  0  0  0
  3  2  1  0  0  0  0
  3  4  2  0  0  0  0
  5  6  1  0  0  0  0
  5114  1  0  0  0  0
  5115  1  0  0  0  0
  6  7  1  0  0  0  0
  6116  1  0  0  0  0
  6117  1  0  0  0  0
  7  9  2  0  0  0  0
  7  8  1  0  0  0  0
 10  3  1  0  0  0  0
 10118  1  0  0  0  0
 11 10  1  0  0  0  0
 11 14  1  0  0  0  0
 11119  1  1  0  0  0
 12 11  1  0  0  0  0
 12 13  2  0  0  0  0
 14120  1  0  0  0  0
 14121  1  0  0  0  0
 14122  1  0  0  0  0
 15 12  1  0  0  0  0
 15123  1  0  0  0  0
 16 15  1  0  0  0  0
 16124  1  0  0  0  0
 16125  1  0  0  0  0
 17 16  1  0  0  0  0
 17 18  2  0  0  0  0
 19 17  1  0  0  0  0
 19126  1  0  0  0  0
 20 19  1  0  0  0  0
 20 23  1  0  0  0  0
 20127  1  1  0  0  0
 21 20  1  0  0  0  0
 21 22  2  0  0  0  0
 23 24  1  0  0  0  0
 23128  1  0  0  0  0
 23129  1  0  0  0  0
 24 25  1  0  0  0  0
 24130  1  0  0  0  0
 24131  1  0  0  0  0
 25 26  1  0  0  0  0
 26132  1  0  0  0  0
 26133  1  0  0  0  0
 26134  1  0  0  0  0
 27 21  1  0  0  0  0
 27135  1  0  0  0  0
 28 27  1  0  0  0  0
 28 31  1  0  0  0  0
 28136  1  1  0  0  0
 29 28  1  0  0  0  0
 29 30  2  0  0  0  0
 31 33  1  0  0  0  0
 31 32  1  0  0  0  0
 31137  1  6  0  0  0
 32138  1  0  0  0  0
 33139  1  0  0  0  0
 33140  1  0  0  0  0
 33141  1  0  0  0  0
 34 29  1  0  0  0  0
 34142  1  0  0  0  0
 35 34  1  0  0  0  0
 35 38  1  0  0  0  0
 35143  1  6  0  0  0
 36 35  1  0  0  0  0
 36 37  2  0  0  0  0
 38 39  1  0  0  0  0
 38144  1  0  0  0  0
 38145  1  0  0  0  0
 39 40  1  0  0  0  0
 39 41  1  0  0  0  0
 39146  1  0  0  0  0
 40147  1  0  0  0  0
 40148  1  0  0  0  0
 40149  1  0  0  0  0
 41150  1  0  0  0  0
 41151  1  0  0  0  0
 41152  1  0  0  0  0
 42 36  1  0  0  0  0
 42153  1  0  0  0  0
 43 42  1  0  0  0  0
 43154  1  0  0  0  0
 43155  1  0  0  0  0
 44 43  1  0  0  0  0
 44 45  2  0  0  0  0
 46 44  1  0  0  0  0
 46156  1  0  0  0  0
 47 46  1  0  0  0  0
 47 50  1  0  0  0  0
 47157  1  6  0  0  0
 48 47  1  0  0  0  0
 48 49  2  0  0  0  0
 50158  1  0  0  0  0
 50159  1  0  0  0  0
 50160  1  0  0  0  0
 51 48  1  0  0  0  0
 51161  1  0  0  0  0
 52 51  1  0  0  0  0
 52 55  1  0  0  0  0
 52162  1  1  0  0  0
 53 52  1  0  0  0  0
 53 54  2  0  0  0  0
 55 56  1  0  0  0  0
 55163  1  0  0  0  0
 55164  1  0  0  0  0
 56 57  1  0  0  0  0
 56165  1  0  0  0  0
 56166  1  0  0  0  0
 57 58  1  0  0  0  0
 57167  1  0  0  0  0
 57168  1  0  0  0  0
 58 59  1  0  0  0  0
 58169  1  0  0  0  0
 59 61  1  0  0  0  0
 59 60  1  0  0  0  0
 60170  1  0  0  0  0
 60171  1  0  0  0  0
 61172  1  0  0  0  0
 61173  1  0  0  0  0
 62 53  1  0  0  0  0
 62174  1  0  0  0  0
 63 62  1  0  0  0  0
 63 66  1  0  0  0  0
 63175  1  1  0  0  0
 64 63  1  0  0  0  0
 64 65  2  0  0  0  0
 66 67  1  0  0  0  0
 66176  1  0  0  0  0
 66177  1  0  0  0  0
 67 68  1  0  0  0  0
 67178  1  0  0  0  0
 67179  1  0  0  0  0
 68 69  1  0  0  0  0
 68180  1  0  0  0  0
 68181  1  0  0  0  0
 69 70  1  0  0  0  0
 69182  1  0  0  0  0
 69183  1  0  0  0  0
 70184  1  0  0  0  0
 70185  1  0  0  0  0
 70186  1  0  0  0  0
 71 64  1  0  0  0  0
 71187  1  0  0  0  0
 72 71  1  0  0  0  0
 72 75  1  0  0  0  0
 72188  1  6  0  0  0
 73 72  1  0  0  0  0
 73 74  2  0  0  0  0
 75 76  1  0  0  0  0
 75189  1  0  0  0  0
 75190  1  0  0  0  0
 76 77  1  0  0  0  0
 76 78  1  0  0  0  0
 76191  1  0  0  0  0
 77192  1  0  0  0  0
 77193  1  0  0  0  0
 77194  1  0  0  0  0
 78195  1  0  0  0  0
 78196  1  0  0  0  0
 78197  1  0  0  0  0
 79 73  1  0  0  0  0
 79198  1  0  0  0  0
 80 79  1  0  0  0  0
 80 83  1  0  0  0  0
 80199  1  1  0  0  0
 81 80  1  0  0  0  0
 81 82  2  0  0  0  0
 83 84  1  0  0  0  0
 83200  1  0  0  0  0
 83201  1  0  0  0  0
 84 85  1  0  0  0  0
 84202  1  0  0  0  0
 84203  1  0  0  0  0
 85 86  1  0  0  0  0
 85204  1  0  0  0  0
 85205  1  0  0  0  0
 86 87  1  0  0  0  0
 86206  1  0  0  0  0
 86207  1  0  0  0  0
 87208  1  0  0  0  0
 87209  1  0  0  0  0
 87210  1  0  0  0  0
 88 81  1  0  0  0  0
 88211  1  0  0  0  0
 89 88  1  0  0  0  0
 89 92  1  0  0  0  0
 89212  1  6  0  0  0
 90 89  1  0  0  0  0
 90 91  2  0  0  0  0
 92 93  1  0  0  0  0
 92213  1  0  0  0  0
 92214  1  0  0  0  0
 93 94  1  0  0  0  0
 93215  1  0  0  0  0
 93216  1  0  0  0  0
 94 95  1  0  0  0  0
 94217  1  0  0  0  0
 94218  1  0  0  0  0
 95 96  1  0  0  0  0
 95219  1  0  0  0  0
 95220  1  0  0  0  0
 96221  1  0  0  0  0
 96222  1  0  0  0  0
 96223  1  0  0  0  0
 97 90  1  0  0  0  0
 97224  1  0  0  0  0
 98 97  1  0  0  0  0
 98101  1  0  0  0  0
 98225  1  6  0  0  0
 99 98  1  0  0  0  0
 99100  2  0  0  0  0
 99105  1  0  0  0  0
101102  1  0  0  0  0
101226  1  0  0  0  0
101227  1  0  0  0  0
102103  1  0  0  0  0
102104  1  0  0  0  0
102228  1  0  0  0  0
103229  1  0  0  0  0
103230  1  0  0  0  0
103231  1  0  0  0  0
104232  1  0  0  0  0
104233  1  0  0  0  0
104234  1  0  0  0  0
105106  1  0  0  0  0
105235  1  0  0  0  0
106107  1  0  0  0  0
106236  1  0  0  0  0
106237  1  0  0  0  0
107108  2  0  0  0  0
107109  1  0  0  0  0
109238  1  0  0  0  0
M  CHG  5   1   1   8  -1  70   1  87   1  96   1
M  END
