3bu6_ligand
 OpenBabel08222323343D

218222  0  0  1  0  0  0  0  0999 V2000
   -4.9750    3.8910   24.1130 N   0  3  0  0  0  0  0  0  0  0  0  0
   -5.0180    5.3670   24.3490 C   0  0  2  0  0  0  0  0  0  0  0  0
   -5.2260    5.7240   25.8190 C   0  0  0  0  0  0  0  0  0  0  0  0
   -5.1100    6.8970   26.2100 O   0  0  0  0  0  0  0  0  0  0  0  0
   -6.1130    5.9990   23.4880 C   0  0  0  0  0  0  0  0  0  0  0  0
   -5.9230    5.7280   22.0120 C   0  0  0  0  0  0  0  0  0  0  0  0
   -6.6540    4.7240   21.3670 C   0  0  0  0  0  0  0  0  0  0  0  0
   -5.0000    6.4610   21.2610 C   0  0  0  0  0  0  0  0  0  0  0  0
   -6.4820    4.4700   20.0070 C   0  0  0  0  0  0  0  0  0  0  0  0
   -4.8190    6.2060   19.8950 C   0  0  0  0  0  0  0  0  0  0  0  0
   -5.5610    5.2080   19.2800 C   0  0  0  0  0  0  0  0  0  0  0  0
   -5.3920    4.9590   17.9300 O   0  0  0  0  0  0  0  0  0  0  0  0
   -5.5340    4.7060   26.6270 N   0  0  0  0  0  0  0  0  0  0  0  0
   -5.6740    4.8770   28.0690 C   0  0  2  0  0  0  0  0  0  0  0  0
   -4.3280    5.2040   28.7360 C   0  0  0  0  0  0  0  0  0  0  0  0
   -3.3200    4.5310   28.4690 O   0  0  0  0  0  0  0  0  0  0  0  0
   -6.3230    3.6350   28.6940 C   0  0  0  0  0  0  0  0  0  0  0  0
   -7.7920    3.4780   28.3060 C   0  0  0  0  0  0  0  0  0  0  0  0
   -8.5090    4.4600   28.1290 O   0  0  0  0  0  0  0  0  0  0  0  0
   -8.2470    2.2360   28.1920 N   0  0  0  0  0  0  0  0  0  0  0  0
   -4.2900    6.2770   29.5570 N   0  0  0  0  0  0  0  0  0  0  0  0
   -3.0900    6.5880   30.3340 C   0  0  2  0  0  0  0  0  0  0  0  0
   -3.0000    5.7290   31.5930 C   0  0  0  0  0  0  0  0  0  0  0  0
   -4.0340    5.3740   32.1760 O   0  0  0  0  0  0  0  0  0  0  0  0
   -3.2870    8.0630   30.6990 C   0  0  0  0  0  0  0  0  0  0  0  0
   -4.7650    8.2220   30.7820 C   0  0  0  0  0  0  0  0  0  0  0  0
   -5.3620    7.2730   29.7710 C   0  0  0  0  0  0  0  0  0  0  0  0
   -1.7740    5.3890   31.9980 N   0  0  0  0  0  0  0  0  0  0  0  0
   -1.5450    4.5950   33.2110 C   0  0  2  0  0  0  0  0  0  0  0  0
   -0.5560    5.2930   34.1470 C   0  0  0  0  0  0  0  0  0  0  0  0
    0.6290    4.9380   34.1900 O   0  0  0  0  0  0  0  0  0  0  0  0
   -1.0910    3.1660   32.8630 C   0  0  0  0  0  0  0  0  0  0  0  0
   -2.1630    2.3540   32.1730 C   0  0  0  0  0  0  0  0  0  0  0  0
   -3.1170    1.6510   32.9110 C   0  0  0  0  0  0  0  0  0  0  0  0
   -2.2370    2.3090   30.7830 C   0  0  0  0  0  0  0  0  0  0  0  0
   -4.1120    0.9170   32.2810 C   0  0  0  0  0  0  0  0  0  0  0  0
   -3.2220    1.5810   30.1380 C   0  0  0  0  0  0  0  0  0  0  0  0
   -4.1540    0.8880   30.8850 C   0  0  0  0  0  0  0  0  0  0  0  0
   -5.1280    0.1720   30.2370 O   0  0  0  0  0  0  0  0  0  0  0  0
   -1.0390    6.3100   34.8920 N   0  0  0  0  0  0  0  0  0  0  0  0
   -0.1780    7.0980   35.7800 C   0  0  2  0  0  0  0  0  0  0  0  0
    0.5920    6.2560   36.8100 C   0  0  0  0  0  0  0  0  0  0  0  0
    1.7080    6.6190   37.1850 O   0  0  0  0  0  0  0  0  0  0  0  0
   -1.1660    8.0550   36.4780 C   0  0  0  0  0  0  0  0  0  0  0  0
   -2.5270    7.4460   36.2650 C   0  0  0  0  0  0  0  0  0  0  0  0
   -2.4400    6.7770   34.9360 C   0  0  0  0  0  0  0  0  0  0  0  0
    0.0140    5.1350   37.2340 N   0  0  0  0  0  0  0  0  0  0  0  0
    0.6520    4.2610   38.2190 C   0  0  2  0  0  0  0  0  0  0  0  0
    1.8580    3.4770   37.6540 C   0  0  0  0  0  0  0  0  0  0  0  0
    2.6250    2.8970   38.4150 O   0  0  0  0  0  0  0  0  0  0  0  0
   -0.3890    3.3290   38.8490 C   0  0  0  0  0  0  0  0  0  0  0  0
   -1.5710    4.1140   39.4560 C   0  0  0  0  0  0  0  0  0  0  0  0
   -2.6170    3.2480   40.1390 C   0  0  0  0  0  0  0  0  0  0  0  0
   -2.5220    1.9980   40.0580 O   0  5  0  0  0  0  0  0  0  0  0  0
   -3.5440    3.8270   40.7690 O   0  0  0  0  0  0  0  0  0  0  0  0
    2.0130    3.4830   36.3250 N   0  0  0  0  0  0  0  0  0  0  0  0
    3.1270    2.8170   35.6340 C   0  0  2  0  0  0  0  0  0  0  0  0
    4.4060    3.6640   35.6030 C   0  0  0  0  0  0  0  0  0  0  0  0
    5.4280    3.2540   35.0330 O   0  0  0  0  0  0  0  0  0  0  0  0
    2.7210    2.4430   34.1970 C   0  0  0  0  0  0  0  0  0  0  0  0
    1.7200    1.2900   34.1440 C   0  0  0  0  0  0  0  0  0  0  0  0
    1.2590    0.8350   35.2050 O   0  5  0  0  0  0  0  0  0  0  0  0
    1.4020    0.8210   33.0330 O   0  0  0  0  0  0  0  0  0  0  0  0
    4.3440    4.8410   36.2180 N   0  0  0  0  0  0  0  0  0  0  0  0
    5.5090    5.7060   36.3360 C   0  0  2  0  0  0  0  0  0  0  0  0
    5.7930    5.9970   37.8040 C   0  0  0  0  0  0  0  0  0  0  0  0
    4.8750    6.0320   38.6280 O   0  0  0  0  0  0  0  0  0  0  0  0
    5.3540    6.9790   35.4860 C   0  0  0  0  0  0  0  0  0  0  0  0
    5.1520    6.6780   34.0150 C   0  0  0  0  0  0  0  0  0  0  0  0
    3.8750    6.4610   33.4910 C   0  0  0  0  0  0  0  0  0  0  0  0
    6.2450    6.5580   33.1560 C   0  0  0  0  0  0  0  0  0  0  0  0
    3.6950    6.1580   32.1400 C   0  0  0  0  0  0  0  0  0  0  0  0
    6.0740    6.2580   31.8080 C   0  0  0  0  0  0  0  0  0  0  0  0
    4.8010    6.0610   31.3020 C   0  0  0  0  0  0  0  0  0  0  0  0
    4.6840    5.7630   30.0900 O   0  0  0  0  0  0  0  0  0  0  0  0
    3.6640    6.4860   29.0830 P   0  0  0  0  0  0  0  0  0  0  0  0
    4.0010    6.0370   27.7180 O   0  0  0  0  0  1  0  0  0  0  0  0
    3.7980    8.0180   29.1850 O   0  0  0  0  0  1  0  0  0  0  0  0
    2.2100    6.0540   29.3660 O   0  0  0  0  0  0  0  0  0  0  0  0
    7.0690    6.1830   38.1200 N   0  0  0  0  0  0  0  0  0  0  0  0
    7.4890    6.6020   39.4580 C   0  0  0  0  0  0  0  0  0  0  0  0
    8.5510    7.6810   39.3830 C   0  0  0  0  0  0  0  0  0  0  0  0
    9.3150    7.7400   38.4210 O   0  0  0  0  0  0  0  0  0  0  0  0
    8.5890    8.5500   40.3920 N   0  0  0  0  0  0  0  0  0  0  0  0
    9.6480    9.5470   40.5060 C   0  0  2  0  0  0  0  0  0  0  0  0
   10.8890    8.8860   41.0760 C   0  0  0  0  0  0  0  0  0  0  0  0
   10.9550    8.6010   42.2720 O   0  0  0  0  0  0  0  0  0  0  0  0
    9.2100   10.7010   41.4100 C   0  0  0  0  0  0  0  0  0  0  0  0
    8.1220   11.5440   40.7900 C   0  0  0  0  0  0  0  0  0  0  0  0
    8.3820   12.1990   39.7600 O   0  5  0  0  0  0  0  0  0  0  0  0
    7.0100   11.5580   41.3450 O   0  0  0  0  0  0  0  0  0  0  0  0
   11.8590    8.6090   40.2140 N   0  0  0  0  0  0  0  0  0  0  0  0
   13.1050    7.9760   40.6460 C   0  0  2  0  0  0  0  0  0  0  0  0
   14.3000    8.7050   40.0550 C   0  0  0  0  0  0  0  0  0  0  0  0
   14.1390    9.5680   39.1900 O   0  0  0  0  0  0  0  0  0  0  0  0
   13.1810    6.4690   40.2460 C   0  0  2  0  0  0  0  0  0  0  0  0
   12.9310    6.2860   38.7380 C   0  0  0  0  0  0  0  0  0  0  0  0
   12.2310    5.6300   41.0980 C   0  0  0  0  0  0  0  0  0  0  0  0
   13.6050    5.0710   38.1660 C   0  0  0  0  0  0  0  0  0  0  0  0
   15.4920    8.3540   40.5350 N   0  0  0  0  0  0  0  0  0  0  0  0
   16.7440    8.8480   39.9720 C   0  0  2  0  0  0  0  0  0  0  0  0
   17.5150    7.6980   39.3330 C   0  0  0  0  0  0  0  0  0  0  0  0
   17.6580    6.6400   39.9420 O   0  0  0  0  0  0  0  0  0  0  0  0
   17.5900    9.5100   41.0650 C   0  0  0  0  0  0  0  0  0  0  0  0
   18.8980   10.0980   40.5700 C   0  0  0  0  0  0  0  0  0  0  0  0
   19.6790   10.8190   41.6520 C   0  0  0  0  0  0  0  0  0  0  0  0
   19.1210   11.0850   42.7400 O   0  5  0  0  0  0  0  0  0  0  0  0
   20.8620   11.1300   41.4050 O   0  0  0  0  0  0  0  0  0  0  0  0
   17.9910    7.9130   38.1060 N   0  0  0  0  0  0  0  0  0  0  0  0
   18.8070    6.9310   37.3810 C   0  0  2  0  0  0  0  0  0  0  0  0
   20.1670    7.5340   37.0190 C   0  0  0  0  0  0  0  0  0  0  0  0
   20.3740    8.7450   37.1710 O   0  0  0  0  0  0  0  0  0  0  0  0
   18.0970    6.3940   36.0930 C   0  0  2  0  0  0  0  0  0  0  0  0
   17.9370    7.5040   35.0450 C   0  0  0  0  0  0  0  0  0  0  0  0
   16.7550    5.7460   36.4420 C   0  0  0  0  0  0  0  0  0  0  0  0
   17.4390    7.0200   33.6600 C   0  0  0  0  0  0  0  0  0  0  0  0
   21.0930    6.6940   36.5590 N   0  0  0  0  0  0  0  0  0  0  0  0
   22.4180    7.1600   36.1480 C   0  0  0  0  0  0  0  0  0  0  0  0
   23.3150    7.5990   37.2970 C   0  0  0  0  0  0  0  0  0  0  0  0
   23.4900    6.8710   38.2780 O   0  0  0  0  0  0  0  0  0  0  0  0
   -4.8364    3.7117   23.1308 H   0  0  0  0  0  0  0  0  0  0  0  0
   -5.8449    3.4777   24.4105 H   0  0  0  0  0  0  0  0  0  0  0  0
   -4.2147    3.4887   24.6385 H   0  0  0  0  0  0  0  0  0  0  0  0
   -4.0497    5.7855   24.0372 H   0  0  0  0  0  0  0  0  0  0  0  0
   -6.1044    7.0869   23.6501 H   0  0  0  0  0  0  0  0  0  0  0  0
   -7.0855    5.5896   23.7988 H   0  0  0  0  0  0  0  0  0  0  0  0
   -7.3654    4.1344   21.9339 H   0  0  0  0  0  0  0  0  0  0  0  0
   -4.4161    7.2375   21.7418 H   0  0  0  0  0  0  0  0  0  0  0  0
   -7.0665    3.6980   19.5197 H   0  0  0  0  0  0  0  0  0  0  0  0
   -4.1036    6.7850   19.3223 H   0  0  0  0  0  0  0  0  0  0  0  0
   -4.4896    4.7122   17.7652 H   0  0  0  0  0  0  0  0  0  0  0  0
   -5.6730    3.7983   26.2311 H   0  0  0  0  0  0  0  0  0  0  0  0
   -6.3459    5.7306   28.2420 H   0  0  0  0  0  0  0  0  0  0  0  0
   -6.2552    3.7160   29.7889 H   0  0  0  0  0  0  0  0  0  0  0  0
   -5.7732    2.7437   28.3574 H   0  0  0  0  0  0  0  0  0  0  0  0
   -9.2012    2.0742   27.9403 H   0  0  0  0  0  0  0  0  0  0  0  0
   -7.6355    1.4623   28.3578 H   0  0  0  0  0  0  0  0  0  0  0  0
   -2.1823    6.4472   29.7289 H   0  0  0  0  0  0  0  0  0  0  0  0
   -2.8670    8.7173   29.9209 H   0  0  0  0  0  0  0  0  0  0  0  0
   -2.8147    8.2926   31.6655 H   0  0  0  0  0  0  0  0  0  0  0  0
   -5.0487    9.2576   30.5432 H   0  0  0  0  0  0  0  0  0  0  0  0
   -5.1171    7.9692   31.7930 H   0  0  0  0  0  0  0  0  0  0  0  0
   -6.2693    6.7948   30.1687 H   0  0  0  0  0  0  0  0  0  0  0  0
   -5.6041    7.7973   28.8348 H   0  0  0  0  0  0  0  0  0  0  0  0
   -0.9864    5.6849   31.4575 H   0  0  0  0  0  0  0  0  0  0  0  0
   -2.5045    4.5162   33.7432 H   0  0  0  0  0  0  0  0  0  0  0  0
   -0.8076    2.6524   33.7936 H   0  0  0  0  0  0  0  0  0  0  0  0
   -0.2171    3.2286   32.1980 H   0  0  0  0  0  0  0  0  0  0  0  0
   -3.0799    1.6790   33.9940 H   0  0  0  0  0  0  0  0  0  0  0  0
   -1.5087    2.8550   30.1944 H   0  0  0  0  0  0  0  0  0  0  0  0
   -4.8466    0.3736   32.8642 H   0  0  0  0  0  0  0  0  0  0  0  0
   -3.2614    1.5551   29.0550 H   0  0  0  0  0  0  0  0  0  0  0  0
   -5.6441    0.7586   29.6966 H   0  0  0  0  0  0  0  0  0  0  0  0
    0.5508    7.6668   35.1839 H   0  0  0  0  0  0  0  0  0  0  0  0
   -1.1170    9.0565   36.0257 H   0  0  0  0  0  0  0  0  0  0  0  0
   -0.9397    8.1263   37.5521 H   0  0  0  0  0  0  0  0  0  0  0  0
   -3.3034    8.2252   36.2566 H   0  0  0  0  0  0  0  0  0  0  0  0
   -2.7515    6.7131   37.0539 H   0  0  0  0  0  0  0  0  0  0  0  0
   -3.1410    5.9317   34.8720 H   0  0  0  0  0  0  0  0  0  0  0  0
   -2.6462    7.4869   34.1215 H   0  0  0  0  0  0  0  0  0  0  0  0
   -0.8821    4.8826   36.8690 H   0  0  0  0  0  0  0  0  0  0  0  0
    1.0414    4.9071   39.0195 H   0  0  0  0  0  0  0  0  0  0  0  0
    0.0939    2.7421   39.6442 H   0  0  0  0  0  0  0  0  0  0  0  0
   -0.7737    2.6498   38.0740 H   0  0  0  0  0  0  0  0  0  0  0  0
   -2.0632    4.6741   38.6473 H   0  0  0  0  0  0  0  0  0  0  0  0
   -1.1701    4.8191   40.1990 H   0  0  0  0  0  0  0  0  0  0  0  0
    1.3346    3.9665   35.7718 H   0  0  0  0  0  0  0  0  0  0  0  0
    3.3515    1.8898   36.1816 H   0  0  0  0  0  0  0  0  0  0  0  0
    3.6242    2.1496   33.6420 H   0  0  0  0  0  0  0  0  0  0  0  0
    2.2673    3.3241   33.7197 H   0  0  0  0  0  0  0  0  0  0  0  0
    3.4740    5.1401   36.6100 H   0  0  0  0  0  0  0  0  0  0  0  0
    6.3745    5.1563   35.9376 H   0  0  0  0  0  0  0  0  0  0  0  0
    6.2615    7.5903   35.5988 H   0  0  0  0  0  0  0  0  0  0  0  0
    4.4838    7.5433   35.8525 H   0  0  0  0  0  0  0  0  0  0  0  0
    3.0115    6.5289   34.1428 H   0  0  0  0  0  0  0  0  0  0  0  0
    7.2462    6.7012   33.5461 H   0  0  0  0  0  0  0  0  0  0  0  0
    2.6978    5.9990   31.7459 H   0  0  0  0  0  0  0  0  0  0  0  0
    6.9361    6.1788   31.1556 H   0  0  0  0  0  0  0  0  0  0  0  0
    7.7669    6.0317   37.4200 H   0  0  0  0  0  0  0  0  0  0  0  0
    7.8969    5.7331   39.9952 H   0  0  0  0  0  0  0  0  0  0  0  0
    6.6169    6.9934   40.0023 H   0  0  0  0  0  0  0  0  0  0  0  0
    7.8730    8.5181   41.0894 H   0  0  0  0  0  0  0  0  0  0  0  0
    9.8762    9.9449   39.5062 H   0  0  0  0  0  0  0  0  0  0  0  0
   10.0813   11.3420   41.6100 H   0  0  0  0  0  0  0  0  0  0  0  0
    8.8362   10.2843   42.3569 H   0  0  0  0  0  0  0  0  0  0  0  0
   11.7356    8.8379   39.2484 H   0  0  0  0  0  0  0  0  0  0  0  0
   13.1578    8.0441   41.7426 H   0  0  0  0  0  0  0  0  0  0  0  0
   14.2033    6.1201   40.4539 H   0  0  0  0  0  0  0  0  0  0  0  0
   13.3085    7.1749   38.2113 H   0  0  0  0  0  0  0  0  0  0  0  0
   11.8474    6.1943   38.5725 H   0  0  0  0  0  0  0  0  0  0  0  0
   12.4502    5.7960   42.1631 H   0  0  0  0  0  0  0  0  0  0  0  0
   12.3663    4.5652   40.8575 H   0  0  0  0  0  0  0  0  0  0  0  0
   11.1923    5.9245   40.8872 H   0  0  0  0  0  0  0  0  0  0  0  0
   13.3853    5.0021   37.0904 H   0  0  0  0  0  0  0  0  0  0  0  0
   13.2310    4.1704   38.6750 H   0  0  0  0  0  0  0  0  0  0  0  0
   14.6921    5.1510   38.3138 H   0  0  0  0  0  0  0  0  0  0  0  0
   15.5302    7.7265   41.3127 H   0  0  0  0  0  0  0  0  0  0  0  0
   16.5156    9.5961   39.1986 H   0  0  0  0  0  0  0  0  0  0  0  0
   17.8197    8.7529   41.8292 H   0  0  0  0  0  0  0  0  0  0  0  0
   16.9975   10.3191   41.5170 H   0  0  0  0  0  0  0  0  0  0  0  0
   18.6766   10.8130   39.7640 H   0  0  0  0  0  0  0  0  0  0  0  0
   19.5206    9.2816   40.1752 H   0  0  0  0  0  0  0  0  0  0  0  0
   17.7826    8.7830   37.6591 H   0  0  0  0  0  0  0  0  0  0  0  0
   18.9772    6.0761   38.0519 H   0  0  0  0  0  0  0  0  0  0  0  0
   18.7393    5.6152   35.6561 H   0  0  0  0  0  0  0  0  0  0  0  0
   18.9148    7.9887   34.9072 H   0  0  0  0  0  0  0  0  0  0  0  0
   17.2149    8.2384   35.4312 H   0  0  0  0  0  0  0  0  0  0  0  0
   16.9126    4.9585   37.1936 H   0  0  0  0  0  0  0  0  0  0  0  0
   16.3140    5.3050   35.5359 H   0  0  0  0  0  0  0  0  0  0  0  0
   16.0739    6.5087   36.8474 H   0  0  0  0  0  0  0  0  0  0  0  0
   17.3555    7.8801   32.9793 H   0  0  0  0  0  0  0  0  0  0  0  0
   16.4540    6.5430   33.7706 H   0  0  0  0  0  0  0  0  0  0  0  0
   18.1539    6.2934   33.2467 H   0  0  0  0  0  0  0  0  0  0  0  0
   20.8771    5.7198   36.4928 H   0  0  0  0  0  0  0  0  0  0  0  0
   22.2865    8.0149   35.4684 H   0  0  0  0  0  0  0  0  0  0  0  0
   22.9203    6.3404   35.6133 H   0  0  0  0  0  0  0  0  0  0  0  0
   23.9183    8.7831   37.2428 O   0  0  0  0  0  0  0  0  0  0  0  0
   24.8596    8.6596   37.2777 H   0  0  0  0  0  0  0  0  0  0  0  0
  1  2  1  0  0  0  0
  1121  1  0  0  0  0
  1122  1  0  0  0  0
  1123  1  0  0  0  0
  2  3  1  0  0  0  0
  2  5  1  0  0  0  0
  2124  1  6  0  0  0
  3  4  2  0  0  0  0
  3 13  1  0  0  0  0
  5  6  1  0  0  0  0
  5125  1  0  0  0  0
  5126  1  0  0  0  0
  6  7  2  0  0  0  0
  6  8  1  0  0  0  0
  7  9  1  0  0  0  0
  7127  1  0  0  0  0
  8 10  2  0  0  0  0
  8128  1  0  0  0  0
  9 11  2  0  0  0  0
  9129  1  0  0  0  0
 10 11  1  0  0  0  0
 10130  1  0  0  0  0
 11 12  1  0  0  0  0
 12131  1  0  0  0  0
 13 14  1  0  0  0  0
 13132  1  0  0  0  0
 14 15  1  0  0  0  0
 14 17  1  0  0  0  0
 14133  1  1  0  0  0
 15 16  2  0  0  0  0
 15 21  1  0  0  0  0
 17 18  1  0  0  0  0
 17134  1  0  0  0  0
 17135  1  0  0  0  0
 18 19  2  0  0  0  0
 18 20  1  0  0  0  0
 20136  1  0  0  0  0
 20137  1  0  0  0  0
 21 22  1  0  0  0  0
 21 27  1  0  0  0  0
 22 23  1  0  0  0  0
 22 25  1  0  0  0  0
 22138  1  6  0  0  0
 23 24  2  0  0  0  0
 23 28  1  0  0  0  0
 25 26  1  0  0  0  0
 25139  1  0  0  0  0
 25140  1  0  0  0  0
 26 27  1  0  0  0  0
 26141  1  0  0  0  0
 26142  1  0  0  0  0
 27143  1  0  0  0  0
 27144  1  0  0  0  0
 28 29  1  0  0  0  0
 28145  1  0  0  0  0
 29 30  1  0  0  0  0
 29 32  1  0  0  0  0
 29146  1  1  0  0  0
 30 31  2  0  0  0  0
 30 40  1  0  0  0  0
 32 33  1  0  0  0  0
 32147  1  0  0  0  0
 32148  1  0  0  0  0
 33 34  2  0  0  0  0
 33 35  1  0  0  0  0
 34 36  1  0  0  0  0
 34149  1  0  0  0  0
 35 37  2  0  0  0  0
 35150  1  0  0  0  0
 36 38  2  0  0  0  0
 36151  1  0  0  0  0
 37 38  1  0  0  0  0
 37152  1  0  0  0  0
 38 39  1  0  0  0  0
 39153  1  0  0  0  0
 40 41  1  0  0  0  0
 40 46  1  0  0  0  0
 41 42  1  0  0  0  0
 41 44  1  0  0  0  0
 41154  1  6  0  0  0
 42 43  2  0  0  0  0
 42 47  1  0  0  0  0
 44 45  1  0  0  0  0
 44155  1  0  0  0  0
 44156  1  0  0  0  0
 45 46  1  0  0  0  0
 45157  1  0  0  0  0
 45158  1  0  0  0  0
 46159  1  0  0  0  0
 46160  1  0  0  0  0
 47 48  1  0  0  0  0
 47161  1  0  0  0  0
 48 49  1  0  0  0  0
 48 51  1  0  0  0  0
 48162  1  1  0  0  0
 49 50  2  0  0  0  0
 49 56  1  0  0  0  0
 51 52  1  0  0  0  0
 51163  1  0  0  0  0
 51164  1  0  0  0  0
 52 53  1  0  0  0  0
 52165  1  0  0  0  0
 52166  1  0  0  0  0
 53 54  1  0  0  0  0
 53 55  2  0  0  0  0
 56 57  1  0  0  0  0
 56167  1  0  0  0  0
 57 58  1  0  0  0  0
 57 60  1  0  0  0  0
 57168  1  1  0  0  0
 58 59  2  0  0  0  0
 58 64  1  0  0  0  0
 60 61  1  0  0  0  0
 60169  1  0  0  0  0
 60170  1  0  0  0  0
 61 62  1  0  0  0  0
 61 63  2  0  0  0  0
 64 65  1  0  0  0  0
 64171  1  0  0  0  0
 65 66  1  0  0  0  0
 65 68  1  0  0  0  0
 65172  1  6  0  0  0
 66 67  2  0  0  0  0
 66 80  1  0  0  0  0
 68 69  1  0  0  0  0
 68173  1  0  0  0  0
 68174  1  0  0  0  0
 69 70  2  0  0  0  0
 69 71  1  0  0  0  0
 70 72  1  0  0  0  0
 70175  1  0  0  0  0
 71 73  2  0  0  0  0
 71176  1  0  0  0  0
 72 74  2  0  0  0  0
 72177  1  0  0  0  0
 73 74  1  0  0  0  0
 73178  1  0  0  0  0
 74 75  1  0  0  0  0
 75 76  1  0  0  0  0
 76 77  1  0  0  0  0
 76 78  1  0  0  0  0
 76 79  2  0  0  0  0
 80 81  1  0  0  0  0
 80179  1  0  0  0  0
 81 82  1  0  0  0  0
 81180  1  0  0  0  0
 81181  1  0  0  0  0
 82 83  2  0  0  0  0
 82 84  1  0  0  0  0
 84 85  1  0  0  0  0
 84182  1  0  0  0  0
 85 86  1  0  0  0  0
 85 88  1  0  0  0  0
 85183  1  6  0  0  0
 86 87  2  0  0  0  0
 86 92  1  0  0  0  0
 88 89  1  0  0  0  0
 88184  1  0  0  0  0
 88185  1  0  0  0  0
 89 90  1  0  0  0  0
 89 91  2  0  0  0  0
 92 93  1  0  0  0  0
 92186  1  0  0  0  0
 93 94  1  0  0  0  0
 93 96  1  0  0  0  0
 93187  1  1  0  0  0
 94 95  2  0  0  0  0
 94100  1  0  0  0  0
 96 97  1  0  0  0  0
 96 98  1  0  0  0  0
 96188  1  1  0  0  0
 97 99  1  0  0  0  0
 97189  1  0  0  0  0
 97190  1  0  0  0  0
 98191  1  0  0  0  0
 98192  1  0  0  0  0
 98193  1  0  0  0  0
 99194  1  0  0  0  0
 99195  1  0  0  0  0
 99196  1  0  0  0  0
100101  1  0  0  0  0
100197  1  0  0  0  0
101102  1  0  0  0  0
101104  1  0  0  0  0
101198  1  6  0  0  0
102103  2  0  0  0  0
102109  1  0  0  0  0
104105  1  0  0  0  0
104199  1  0  0  0  0
104200  1  0  0  0  0
105106  1  0  0  0  0
105201  1  0  0  0  0
105202  1  0  0  0  0
106107  1  0  0  0  0
106108  2  0  0  0  0
109110  1  0  0  0  0
109203  1  0  0  0  0
110111  1  0  0  0  0
110113  1  0  0  0  0
110204  1  1  0  0  0
111112  2  0  0  0  0
111117  1  0  0  0  0
113114  1  0  0  0  0
113115  1  0  0  0  0
113205  1  6  0  0  0
114116  1  0  0  0  0
114206  1  0  0  0  0
114207  1  0  0  0  0
115208  1  0  0  0  0
115209  1  0  0  0  0
115210  1  0  0  0  0
116211  1  0  0  0  0
116212  1  0  0  0  0
116213  1  0  0  0  0
117118  1  0  0  0  0
117214  1  0  0  0  0
118119  1  0  0  0  0
118215  1  0  0  0  0
118216  1  0  0  0  0
119120  2  0  0  0  0
119217  1  0  0  0  0
217218  1  0  0  0  0
M  CHG  5   1   1  54  -1  62  -1  90  -1 107  -1
M  END
