3bu8_ligand
 OpenBabel08222323343D

251252  0  0  1  0  0  0  0  0999 V2000
  -11.3250   23.4420  -16.7590 N   0  3  0  0  0  0  0  0  0  0  0  0
  -12.5460   23.0510  -17.5170 C   0  0  2  0  0  0  0  0  0  0  0  0
  -13.8010   22.9080  -16.6630 C   0  0  0  0  0  0  0  0  0  0  0  0
  -14.1180   21.8170  -16.1890 O   0  0  0  0  0  0  0  0  0  0  0  0
  -12.3200   21.7270  -18.2580 C   0  0  0  0  0  0  0  0  0  0  0  0
  -11.2750   21.8340  -19.2080 O   0  0  0  0  0  0  0  0  0  0  0  0
  -14.5100   24.0030  -16.4340 N   0  0  0  0  0  0  0  0  0  0  0  0
  -15.7550   23.8800  -15.7060 C   0  0  2  0  0  0  0  0  0  0  0  0
  -16.6980   23.6150  -16.8910 C   0  0  0  0  0  0  0  0  0  0  0  0
  -17.7080   24.2930  -17.0660 O   0  0  0  0  0  0  0  0  0  0  0  0
  -16.0970   25.1930  -14.9730 C   0  0  0  0  0  0  0  0  0  0  0  0
  -15.2700   25.4390  -13.7150 C   0  0  0  0  0  0  0  0  0  0  0  0
  -14.9820   26.7420  -13.2960 C   0  0  0  0  0  0  0  0  0  0  0  0
  -14.7890   24.3730  -12.9510 C   0  0  0  0  0  0  0  0  0  0  0  0
  -14.2280   26.9800  -12.1390 C   0  0  0  0  0  0  0  0  0  0  0  0
  -14.0320   24.6000  -11.7900 C   0  0  0  0  0  0  0  0  0  0  0  0
  -13.7520   25.9050  -11.3860 C   0  0  0  0  0  0  0  0  0  0  0  0
  -16.3340   22.6230  -17.7110 N   0  0  0  0  0  0  0  0  0  0  0  0
  -17.1070   22.2820  -18.9010 C   0  0  2  0  0  0  0  0  0  0  0  0
  -18.5230   21.7670  -18.6660 C   0  0  0  0  0  0  0  0  0  0  0  0
  -18.7510   20.8190  -17.9080 O   0  0  0  0  0  0  0  0  0  0  0  0
  -16.3440   21.2890  -19.8070 C   0  0  0  0  0  0  0  0  0  0  0  0
  -16.1600   19.9020  -19.1780 C   0  0  0  0  0  0  0  0  0  0  0  0
  -15.4420   19.7410  -18.1930 O   0  0  0  0  0  0  0  0  0  0  0  0
  -16.8060   18.8950  -19.7650 N   0  0  0  0  0  0  0  0  0  0  0  0
  -19.4650   22.4160  -19.3440 N   0  0  0  0  0  0  0  0  0  0  0  0
  -20.8760   22.0770  -19.2710 C   0  0  2  0  0  0  0  0  0  0  0  0
  -21.2350   20.9990  -20.2880 C   0  0  0  0  0  0  0  0  0  0  0  0
  -22.0670   20.1340  -20.0200 O   0  0  0  0  0  0  0  0  0  0  0  0
  -21.7280   23.3100  -19.5620 C   0  0  0  0  0  0  0  0  0  0  0  0
  -21.3930   24.5750  -18.7810 C   0  0  0  0  0  0  0  0  0  0  0  0
  -22.3580   25.6860  -19.1790 C   0  0  0  0  0  0  0  0  0  0  0  0
  -21.4720   24.2910  -17.2920 C   0  0  0  0  0  0  0  0  0  0  0  0
  -20.6050   21.0630  -21.4570 N   0  0  0  0  0  0  0  0  0  0  0  0
  -20.8790   20.1100  -22.5210 C   0  0  2  0  0  0  0  0  0  0  0  0
  -19.8330   19.0100  -22.5710 C   0  0  0  0  0  0  0  0  0  0  0  0
  -18.7520   19.1360  -22.0000 O   0  0  0  0  0  0  0  0  0  0  0  0
  -20.9450   20.8360  -23.8830 C   0  0  0  0  0  0  0  0  0  0  0  0
  -20.1510   17.9070  -23.2560 N   0  0  0  0  0  0  0  0  0  0  0  0
  -19.2220   16.7800  -23.3770 C   0  0  2  0  0  0  0  0  0  0  0  0
  -17.9290   17.2070  -24.0740 C   0  0  0  0  0  0  0  0  0  0  0  0
  -17.9270   18.1580  -24.8570 O   0  0  0  0  0  0  0  0  0  0  0  0
  -20.0080   15.7730  -24.2170 C   0  0  0  0  0  0  0  0  0  0  0  0
  -21.4350   16.0940  -23.8910 C   0  0  0  0  0  0  0  0  0  0  0  0
  -21.4460   17.5930  -23.8840 C   0  0  0  0  0  0  0  0  0  0  0  0
  -16.8370   16.5070  -23.7890 N   0  0  0  0  0  0  0  0  0  0  0  0
  -15.5620   16.8050  -24.4270 C   0  0  2  0  0  0  0  0  0  0  0  0
  -15.4630   15.9690  -25.7030 C   0  0  0  0  0  0  0  0  0  0  0  0
  -14.7720   16.3430  -26.6510 O   0  0  0  0  0  0  0  0  0  0  0  0
  -14.4010   16.4450  -23.5040 C   0  0  0  0  0  0  0  0  0  0  0  0
  -14.2920   17.1880  -22.1710 C   0  0  0  0  0  0  0  0  0  0  0  0
  -13.1790   16.5550  -21.3370 C   0  0  0  0  0  0  0  0  0  0  0  0
  -14.0190   18.6700  -22.4170 C   0  0  0  0  0  0  0  0  0  0  0  0
  -16.1580   14.8360  -25.7120 N   0  0  0  0  0  0  0  0  0  0  0  0
  -16.1360   13.9510  -26.8620 C   0  0  0  0  0  0  0  0  0  0  0  0
  -16.9260   12.6790  -26.6140 C   0  0  0  0  0  0  0  0  0  0  0  0
  -17.8190   12.6530  -25.7630 O   0  0  0  0  0  0  0  0  0  0  0  0
  -16.5980   11.6150  -27.3420 N   0  0  0  0  0  0  0  0  0  0  0  0
  -17.3150   10.3550  -27.1850 C   0  0  2  0  0  0  0  0  0  0  0  0
  -16.5700    9.3090  -26.3720 C   0  0  0  0  0  0  0  0  0  0  0  0
  -15.3430    9.3280  -26.2630 O   0  0  0  0  0  0  0  0  0  0  0  0
  -17.6520    9.7480  -28.5500 C   0  0  0  0  0  0  0  0  0  0  0  0
  -16.4780    9.0430  -29.2190 C   0  0  0  0  0  0  0  0  0  0  0  0
  -16.8630    8.4580  -30.5740 C   0  0  0  0  0  0  0  0  0  0  0  0
  -15.7380    8.5120  -31.5030 N   0  0  0  0  0  0  0  0  0  0  0  0
  -15.8200    8.2420  -32.8030 C   0  0  0  0  0  3  0  0  0  0  0  0
  -16.9820    7.8910  -33.3390 N   0  0  0  0  0  0  0  0  0  0  0  0
  -14.7400    8.3460  -33.5710 N   0  0  0  0  0  0  0  0  0  0  0  0
  -17.3480    8.3930  -25.8110 N   0  0  0  0  0  0  0  0  0  0  0  0
  -16.8440    7.2810  -25.0190 C   0  0  2  0  0  0  0  0  0  0  0  0
  -17.0540    6.0270  -25.8580 C   0  0  0  0  0  0  0  0  0  0  0  0
  -17.9250    6.0020  -26.7290 O   0  0  0  0  0  0  0  0  0  0  0  0
  -17.6620    7.1380  -23.7380 C   0  0  0  0  0  0  0  0  0  0  0  0
  -16.9040    7.3960  -22.4730 C   0  0  0  0  0  0  0  0  0  0  0  0
  -17.7470    7.0650  -21.2590 C   0  0  0  0  0  0  0  0  0  0  0  0
  -18.4870    5.8220  -21.4560 N   0  0  0  0  0  0  0  0  0  0  0  0
  -18.1020    4.6240  -21.0270 C   0  0  0  0  0  3  0  0  0  0  0  0
  -16.9680    4.4820  -20.3560 N   0  0  0  0  0  0  0  0  0  0  0  0
  -18.8560    3.5600  -21.2790 N   0  0  0  0  0  0  0  0  0  0  0  0
  -16.2650    4.9890  -25.6110 N   0  0  0  0  0  0  0  0  0  0  0  0
  -16.4690    3.7570  -26.3510 C   0  0  2  0  0  0  0  0  0  0  0  0
  -17.3820    2.9070  -25.4810 C   0  0  0  0  0  0  0  0  0  0  0  0
  -16.9720    2.4340  -24.4170 O   0  0  0  0  0  0  0  0  0  0  0  0
  -15.1570    3.0040  -26.5900 C   0  0  0  0  0  0  0  0  0  0  0  0
  -15.1870    2.1180  -27.8410 C   0  0  0  0  0  0  0  0  0  0  0  0
  -16.4970    1.3300  -27.9810 C   0  0  0  0  0  0  0  0  0  0  0  0
  -16.7850    0.9780  -29.3740 N   0  0  0  0  0  0  0  0  0  0  0  0
  -17.5590    1.6920  -30.1920 C   0  0  0  0  0  3  0  0  0  0  0  0
  -18.1430    2.8070  -29.7640 N   0  0  0  0  0  0  0  0  0  0  0  0
  -17.7380    1.3000  -31.4490 N   0  0  0  0  0  0  0  0  0  0  0  0
  -18.6280    2.7410  -25.9150 N   0  0  0  0  0  0  0  0  0  0  0  0
  -19.5840    1.9250  -25.1740 C   0  0  2  0  0  0  0  0  0  0  0  0
  -18.9740    0.5250  -25.1380 C   0  0  0  0  0  0  0  0  0  0  0  0
  -18.1210    0.2100  -25.9660 O   0  0  0  0  0  0  0  0  0  0  0  0
  -20.9450    1.8630  -25.9010 C   0  0  0  0  0  0  0  0  0  0  0  0
  -21.5120    3.2580  -26.0620 C   0  0  0  0  0  0  0  0  0  0  0  0
  -20.7750    1.2080  -27.2670 C   0  0  0  0  0  0  0  0  0  0  0  0
  -19.3840   -0.3110  -24.1890 N   0  0  0  0  0  0  0  0  0  0  0  0
  -18.8320   -1.6580  -24.1200 C   0  0  2  0  0  0  0  0  0  0  0  0
  -19.9240   -2.7210  -24.1860 C   0  0  0  0  0  0  0  0  0  0  0  0
  -19.6690   -3.9170  -24.0270 O   0  0  0  0  0  0  0  0  0  0  0  0
  -17.9420   -1.8130  -22.8700 C   0  0  0  0  0  0  0  0  0  0  0  0
  -18.5270   -1.3300  -21.5510 C   0  0  0  0  0  0  0  0  0  0  0  0
  -19.4590   -2.3530  -20.9250 C   0  0  0  0  0  0  0  0  0  0  0  0
  -19.2680   -2.7800  -19.7800 O   0  0  0  0  0  0  0  0  0  0  0  0
  -20.4770   -2.7550  -21.6780 N   0  0  0  0  0  0  0  0  0  0  0  0
  -21.1380   -2.2550  -24.4660 N   0  0  0  0  0  0  0  0  0  0  0  0
  -22.3400   -3.0860  -24.6010 C   0  0  2  0  0  0  0  0  0  0  0  0
  -22.2040   -4.5360  -25.0730 C   0  0  0  0  0  0  0  0  0  0  0  0
  -22.1760   -5.4910  -24.2890 O   0  0  0  0  0  0  0  0  0  0  0  0
  -23.3190   -2.4150  -25.5710 C   0  0  0  0  0  0  0  0  0  0  0  0
  -23.6750   -1.1210  -25.1350 O   0  0  0  0  0  0  0  0  0  0  0  0
  -22.1870   -4.6540  -26.3950 N   0  0  0  0  0  0  0  0  0  0  0  0
  -22.1250   -5.9090  -27.1280 C   0  0  2  0  0  0  0  0  0  0  0  0
  -22.2290   -5.4480  -28.5850 C   0  0  0  0  0  0  0  0  0  0  0  0
  -23.3170   -5.5760  -29.1910 O   0  0  0  0  0  0  0  0  0  0  0  0
  -23.3230   -6.8040  -26.7460 C   0  0  0  0  0  0  0  0  0  0  0  0
  -23.8260   -7.7520  -27.8450 C   0  0  0  0  0  0  0  0  0  0  0  0
  -23.0390   -9.0400  -27.9520 C   0  0  0  0  0  0  0  0  0  0  0  0
  -21.8290   -9.0700  -27.7180 O   0  0  0  0  0  0  0  0  0  0  0  0
  -23.7250  -10.1160  -28.3290 N   0  0  0  0  0  0  0  0  0  0  0  0
  -21.1753   -4.9177  -29.1994 O   0  0  0  0  0  0  0  0  0  0  0  0
  -10.5448   23.5146  -17.3931 H   0  0  0  0  0  0  0  0  0  0  0  0
  -11.1258   22.7440  -16.0596 H   0  0  0  0  0  0  0  0  0  0  0  0
  -11.4780   24.3321  -16.3114 H   0  0  0  0  0  0  0  0  0  0  0  0
  -12.7349   23.8395  -18.2604 H   0  0  0  0  0  0  0  0  0  0  0  0
  -13.2477   21.4457  -18.7778 H   0  0  0  0  0  0  0  0  0  0  0  0
  -12.0591   20.9482  -17.5263 H   0  0  0  0  0  0  0  0  0  0  0  0
  -11.1615   20.9995  -19.6476 H   0  0  0  0  0  0  0  0  0  0  0  0
  -14.1924   24.8946  -16.7568 H   0  0  0  0  0  0  0  0  0  0  0  0
  -15.7425   23.0450  -14.9900 H   0  0  0  0  0  0  0  0  0  0  0  0
  -17.1589   25.1625  -14.6875 H   0  0  0  0  0  0  0  0  0  0  0  0
  -15.9276   26.0298  -15.6666 H   0  0  0  0  0  0  0  0  0  0  0  0
  -15.3481   27.5816  -13.8758 H   0  0  0  0  0  0  0  0  0  0  0  0
  -15.0031   23.3559  -13.2587 H   0  0  0  0  0  0  0  0  0  0  0  0
  -14.0148   27.9967  -11.8293 H   0  0  0  0  0  0  0  0  0  0  0  0
  -13.6658   23.7616  -11.2085 H   0  0  0  0  0  0  0  0  0  0  0  0
  -13.1672   26.0840  -10.4910 H   0  0  0  0  0  0  0  0  0  0  0  0
  -15.5078   22.0995  -17.5025 H   0  0  0  0  0  0  0  0  0  0  0  0
  -17.2130   23.2197  -19.4662 H   0  0  0  0  0  0  0  0  0  0  0  0
  -15.3500   21.7079  -20.0226 H   0  0  0  0  0  0  0  0  0  0  0  0
  -16.9048   21.1734  -20.7462 H   0  0  0  0  0  0  0  0  0  0  0  0
  -16.7241   17.9678  -19.3996 H   0  0  0  0  0  0  0  0  0  0  0  0
  -17.3726   19.0666  -20.5709 H   0  0  0  0  0  0  0  0  0  0  0  0
  -19.1886   23.1751  -19.9334 H   0  0  0  0  0  0  0  0  0  0  0  0
  -21.1004   21.7085  -18.2592 H   0  0  0  0  0  0  0  0  0  0  0  0
  -22.7744   23.0509  -19.3433 H   0  0  0  0  0  0  0  0  0  0  0  0
  -21.6236   23.5419  -20.6322 H   0  0  0  0  0  0  0  0  0  0  0  0
  -20.3682   24.8897  -19.0275 H   0  0  0  0  0  0  0  0  0  0  0  0
  -22.1173   26.5998  -18.6160 H   0  0  0  0  0  0  0  0  0  0  0  0
  -23.3884   25.3757  -18.9512 H   0  0  0  0  0  0  0  0  0  0  0  0
  -22.2645   25.8842  -20.2569 H   0  0  0  0  0  0  0  0  0  0  0  0
  -20.7667   23.4872  -17.0341 H   0  0  0  0  0  0  0  0  0  0  0  0
  -22.4943   23.9792  -17.0319 H   0  0  0  0  0  0  0  0  0  0  0  0
  -21.2121   25.2007  -16.7309 H   0  0  0  0  0  0  0  0  0  0  0  0
  -19.9274   21.7827  -21.6082 H   0  0  0  0  0  0  0  0  0  0  0  0
  -21.8570   19.6467  -22.3238 H   0  0  0  0  0  0  0  0  0  0  0  0
  -21.1525   20.1051  -24.6784 H   0  0  0  0  0  0  0  0  0  0  0  0
  -19.9829   21.3309  -24.0818 H   0  0  0  0  0  0  0  0  0  0  0  0
  -21.7465   21.5889  -23.8587 H   0  0  0  0  0  0  0  0  0  0  0  0
  -18.9806   16.3614  -22.3888 H   0  0  0  0  0  0  0  0  0  0  0  0
  -19.7604   14.7407  -23.9289 H   0  0  0  0  0  0  0  0  0  0  0  0
  -19.8076   15.9125  -25.2895 H   0  0  0  0  0  0  0  0  0  0  0  0
  -22.1156   15.6965  -24.6583 H   0  0  0  0  0  0  0  0  0  0  0  0
  -21.7166   15.6913  -22.9069 H   0  0  0  0  0  0  0  0  0  0  0  0
  -21.5029   17.9968  -24.9056 H   0  0  0  0  0  0  0  0  0  0  0  0
  -22.2841   17.9835  -23.2881 H   0  0  0  0  0  0  0  0  0  0  0  0
  -16.8911   15.7618  -23.1243 H   0  0  0  0  0  0  0  0  0  0  0  0
  -15.5141   17.8756  -24.6750 H   0  0  0  0  0  0  0  0  0  0  0  0
  -13.4702   16.6306  -24.0600 H   0  0  0  0  0  0  0  0  0  0  0  0
  -14.4840   15.3722  -23.2756 H   0  0  0  0  0  0  0  0  0  0  0  0
  -15.2431   17.0911  -21.6269 H   0  0  0  0  0  0  0  0  0  0  0  0
  -13.0945   17.0842  -20.3764 H   0  0  0  0  0  0  0  0  0  0  0  0
  -12.2259   16.6286  -21.8812 H   0  0  0  0  0  0  0  0  0  0  0  0
  -13.4154   15.4966  -21.1530 H   0  0  0  0  0  0  0  0  0  0  0  0
  -14.8345   19.0982  -23.0183 H   0  0  0  0  0  0  0  0  0  0  0  0
  -13.0672   18.7829  -22.9568 H   0  0  0  0  0  0  0  0  0  0  0  0
  -13.9586   19.1967  -21.4532 H   0  0  0  0  0  0  0  0  0  0  0  0
  -16.7055   14.5891  -24.9125 H   0  0  0  0  0  0  0  0  0  0  0  0
  -15.0925   13.6835  -27.0847 H   0  0  0  0  0  0  0  0  0  0  0  0
  -16.5716   14.4775  -27.7240 H   0  0  0  0  0  0  0  0  0  0  0  0
  -15.8515   11.6800  -28.0042 H   0  0  0  0  0  0  0  0  0  0  0  0
  -18.2562   10.5785  -26.6615 H   0  0  0  0  0  0  0  0  0  0  0  0
  -17.9945   10.5559  -29.2133 H   0  0  0  0  0  0  0  0  0  0  0  0
  -18.4627    9.0172  -28.4135 H   0  0  0  0  0  0  0  0  0  0  0  0
  -16.1328    8.2285  -28.5652 H   0  0  0  0  0  0  0  0  0  0  0  0
  -15.6632    9.7678  -29.3632 H   0  0  0  0  0  0  0  0  0  0  0  0
  -17.7019    9.0350  -30.9903 H   0  0  0  0  0  0  0  0  0  0  0  0
  -17.1695    7.4101  -30.4400 H   0  0  0  0  0  0  0  0  0  0  0  0
  -14.8171    8.7775  -31.1257 H   0  0  0  0  0  0  0  0  0  0  0  0
  -17.0427    7.6825  -34.3458 H   0  0  0  0  0  0  0  0  0  0  0  0
  -17.8233    7.8271  -32.7482 H   0  0  0  0  0  0  0  0  0  0  0  0
  -13.8374    8.6184  -33.1562 H   0  0  0  0  0  0  0  0  0  0  0  0
  -14.8058    8.1542  -34.5809 H   0  0  0  0  0  0  0  0  0  0  0  0
  -18.3367    8.4709  -25.9395 H   0  0  0  0  0  0  0  0  0  0  0  0
  -15.7799    7.4241  -24.7799 H   0  0  0  0  0  0  0  0  0  0  0  0
  -18.0557    6.1117  -23.6969 H   0  0  0  0  0  0  0  0  0  0  0  0
  -18.4989    7.8502  -23.7859 H   0  0  0  0  0  0  0  0  0  0  0  0
  -16.6189    8.4577  -22.4345 H   0  0  0  0  0  0  0  0  0  0  0  0
  -15.9979    6.7724  -22.4628 H   0  0  0  0  0  0  0  0  0  0  0  0
  -18.4603    7.8836  -21.0829 H   0  0  0  0  0  0  0  0  0  0  0  0
  -17.0896    6.9568  -20.3838 H   0  0  0  0  0  0  0  0  0  0  0  0
  -19.3788    5.8777  -21.9684 H   0  0  0  0  0  0  0  0  0  0  0  0
  -16.6773    3.5501  -20.0273 H   0  0  0  0  0  0  0  0  0  0  0  0
  -16.3773    5.3035  -20.1632 H   0  0  0  0  0  0  0  0  0  0  0  0
  -19.7381    3.6657  -21.8002 H   0  0  0  0  0  0  0  0  0  0  0  0
  -18.5586    2.6292  -20.9533 H   0  0  0  0  0  0  0  0  0  0  0  0
  -15.5404    5.0546  -24.9250 H   0  0  0  0  0  0  0  0  0  0  0  0
  -16.9460    3.9729  -27.3184 H   0  0  0  0  0  0  0  0  0  0  0  0
  -14.9552    2.3675  -25.7159 H   0  0  0  0  0  0  0  0  0  0  0  0
  -14.3472    3.7399  -26.7025 H   0  0  0  0  0  0  0  0  0  0  0  0
  -14.3518    1.4043  -27.7862 H   0  0  0  0  0  0  0  0  0  0  0  0
  -15.0653    2.7576  -28.7276 H   0  0  0  0  0  0  0  0  0  0  0  0
  -17.3230    1.9440  -27.5928 H   0  0  0  0  0  0  0  0  0  0  0  0
  -16.4188    0.4050  -27.3908 H   0  0  0  0  0  0  0  0  0  0  0  0
  -16.3593    0.1178  -29.7479 H   0  0  0  0  0  0  0  0  0  0  0  0
  -18.7395    3.3534  -30.4016 H   0  0  0  0  0  0  0  0  0  0  0  0
  -17.9989    3.1245  -28.7948 H   0  0  0  0  0  0  0  0  0  0  0  0
  -17.2890    0.4373  -31.7883 H   0  0  0  0  0  0  0  0  0  0  0  0
  -18.3257    1.8588  -32.0840 H   0  0  0  0  0  0  0  0  0  0  0  0
  -18.9150    3.1835  -26.7646 H   0  0  0  0  0  0  0  0  0  0  0  0
  -19.7225    2.3205  -24.1570 H   0  0  0  0  0  0  0  0  0  0  0  0
  -21.6433    1.2613  -25.3008 H   0  0  0  0  0  0  0  0  0  0  0  0
  -22.4805    3.2025  -26.5805 H   0  0  0  0  0  0  0  0  0  0  0  0
  -20.8150    3.8713  -26.6519 H   0  0  0  0  0  0  0  0  0  0  0  0
  -21.6524    3.7134  -25.0706 H   0  0  0  0  0  0  0  0  0  0  0  0
  -20.3630    0.1961  -27.1397 H   0  0  0  0  0  0  0  0  0  0  0  0
  -20.0870    1.8096  -27.8791 H   0  0  0  0  0  0  0  0  0  0  0  0
  -21.7523    1.1456  -27.7679 H   0  0  0  0  0  0  0  0  0  0  0  0
  -20.0699   -0.0161  -23.5238 H   0  0  0  0  0  0  0  0  0  0  0  0
  -18.1891   -1.7978  -25.0015 H   0  0  0  0  0  0  0  0  0  0  0  0
  -17.0143   -1.2498  -23.0493 H   0  0  0  0  0  0  0  0  0  0  0  0
  -17.7065   -2.8817  -22.7588 H   0  0  0  0  0  0  0  0  0  0  0  0
  -19.0902   -0.4026  -21.7322 H   0  0  0  0  0  0  0  0  0  0  0  0
  -17.7027   -1.1277  -20.8513 H   0  0  0  0  0  0  0  0  0  0  0  0
  -21.1265   -3.4274  -21.3231 H   0  0  0  0  0  0  0  0  0  0  0  0
  -20.5938   -2.3852  -22.5997 H   0  0  0  0  0  0  0  0  0  0  0  0
  -21.2388   -1.2683  -24.5936 H   0  0  0  0  0  0  0  0  0  0  0  0
  -22.7998   -3.1205  -23.6023 H   0  0  0  0  0  0  0  0  0  0  0  0
  -24.2280   -3.0301  -25.6437 H   0  0  0  0  0  0  0  0  0  0  0  0
  -22.8462   -2.3408  -26.5614 H   0  0  0  0  0  0  0  0  0  0  0  0
  -24.0885   -1.1782  -24.2816 H   0  0  0  0  0  0  0  0  0  0  0  0
  -22.2195   -3.8106  -26.9313 H   0  0  0  0  0  0  0  0  0  0  0  0
  -21.1816   -6.4428  -26.9407 H   0  0  0  0  0  0  0  0  0  0  0  0
  -24.1573   -6.1470  -26.4592 H   0  0  0  0  0  0  0  0  0  0  0  0
  -23.0249   -7.4165  -25.8823 H   0  0  0  0  0  0  0  0  0  0  0  0
  -23.7641   -7.2274  -28.8098 H   0  0  0  0  0  0  0  0  0  0  0  0
  -24.8752   -8.0041  -27.6313 H   0  0  0  0  0  0  0  0  0  0  0  0
  -23.2622  -10.9980  -28.4186 H   0  0  0  0  0  0  0  0  0  0  0  0
  -24.7033  -10.0427  -28.5228 H   0  0  0  0  0  0  0  0  0  0  0  0
  -20.4388   -4.8951  -28.5998 H   0  0  0  0  0  0  0  0  0  0  0  0
  1123  1  0  0  0  0
  1124  1  0  0  0  0
  1125  1  0  0  0  0
  2  1  1  0  0  0  0
  2  5  1  0  0  0  0
  2126  1  6  0  0  0
  3  2  1  0  0  0  0
  3  4  2  0  0  0  0
  5  6  1  0  0  0  0
  5127  1  0  0  0  0
  5128  1  0  0  0  0
  6129  1  0  0  0  0
  7  3  1  0  0  0  0
  7130  1  0  0  0  0
  8  7  1  0  0  0  0
  8 11  1  0  0  0  0
  8131  1  1  0  0  0
  9  8  1  0  0  0  0
  9 10  2  0  0  0  0
 11 12  1  0  0  0  0
 11132  1  0  0  0  0
 11133  1  0  0  0  0
 12 13  2  0  0  0  0
 12 14  1  0  0  0  0
 13 15  1  0  0  0  0
 13134  1  0  0  0  0
 14 16  2  0  0  0  0
 14135  1  0  0  0  0
 15 17  2  0  0  0  0
 15136  1  0  0  0  0
 16 17  1  0  0  0  0
 16137  1  0  0  0  0
 17138  1  0  0  0  0
 18  9  1  0  0  0  0
 18139  1  0  0  0  0
 19 18  1  0  0  0  0
 19 22  1  0  0  0  0
 19140  1  6  0  0  0
 20 19  1  0  0  0  0
 20 21  2  0  0  0  0
 22 23  1  0  0  0  0
 22141  1  0  0  0  0
 22142  1  0  0  0  0
 23 25  1  0  0  0  0
 23 24  2  0  0  0  0
 25143  1  0  0  0  0
 25144  1  0  0  0  0
 26 20  1  0  0  0  0
 26145  1  0  0  0  0
 27 26  1  0  0  0  0
 27 30  1  0  0  0  0
 27146  1  1  0  0  0
 28 27  1  0  0  0  0
 28 29  2  0  0  0  0
 30 31  1  0  0  0  0
 30147  1  0  0  0  0
 30148  1  0  0  0  0
 31 32  1  0  0  0  0
 31 33  1  0  0  0  0
 31149  1  0  0  0  0
 32150  1  0  0  0  0
 32151  1  0  0  0  0
 32152  1  0  0  0  0
 33153  1  0  0  0  0
 33154  1  0  0  0  0
 33155  1  0  0  0  0
 34 28  1  0  0  0  0
 34156  1  0  0  0  0
 35 34  1  0  0  0  0
 35 38  1  0  0  0  0
 35157  1  1  0  0  0
 36 35  1  0  0  0  0
 36 37  2  0  0  0  0
 38158  1  0  0  0  0
 38159  1  0  0  0  0
 38160  1  0  0  0  0
 39 45  1  0  0  0  0
 39 36  1  0  0  0  0
 40 43  1  0  0  0  0
 40 39  1  0  0  0  0
 40161  1  1  0  0  0
 41 40  1  0  0  0  0
 41 42  2  0  0  0  0
 43 44  1  0  0  0  0
 43162  1  0  0  0  0
 43163  1  0  0  0  0
 44164  1  0  0  0  0
 44165  1  0  0  0  0
 45 44  1  0  0  0  0
 45166  1  0  0  0  0
 45167  1  0  0  0  0
 46 41  1  0  0  0  0
 46168  1  0  0  0  0
 47 46  1  0  0  0  0
 47 50  1  0  0  0  0
 47169  1  6  0  0  0
 48 47  1  0  0  0  0
 48 49  2  0  0  0  0
 50 51  1  0  0  0  0
 50170  1  0  0  0  0
 50171  1  0  0  0  0
 51 52  1  0  0  0  0
 51 53  1  0  0  0  0
 51172  1  0  0  0  0
 52173  1  0  0  0  0
 52174  1  0  0  0  0
 52175  1  0  0  0  0
 53176  1  0  0  0  0
 53177  1  0  0  0  0
 53178  1  0  0  0  0
 54 48  1  0  0  0  0
 54179  1  0  0  0  0
 55 54  1  0  0  0  0
 55180  1  0  0  0  0
 55181  1  0  0  0  0
 56 55  1  0  0  0  0
 56 57  2  0  0  0  0
 58 56  1  0  0  0  0
 58182  1  0  0  0  0
 59 58  1  0  0  0  0
 59 62  1  0  0  0  0
 59183  1  1  0  0  0
 60 59  1  0  0  0  0
 60 61  2  0  0  0  0
 62 63  1  0  0  0  0
 62184  1  0  0  0  0
 62185  1  0  0  0  0
 63 64  1  0  0  0  0
 63186  1  0  0  0  0
 63187  1  0  0  0  0
 64 65  1  0  0  0  0
 64188  1  0  0  0  0
 64189  1  0  0  0  0
 65 66  1  0  0  0  0
 65190  1  0  0  0  0
 66 68  1  0  0  0  0
 66 67  1  0  0  0  0
 67191  1  0  0  0  0
 67192  1  0  0  0  0
 68193  1  0  0  0  0
 68194  1  0  0  0  0
 69 60  1  0  0  0  0
 69195  1  0  0  0  0
 70 69  1  0  0  0  0
 70 73  1  0  0  0  0
 70196  1  1  0  0  0
 71 70  1  0  0  0  0
 71 72  2  0  0  0  0
 73 74  1  0  0  0  0
 73197  1  0  0  0  0
 73198  1  0  0  0  0
 74 75  1  0  0  0  0
 74199  1  0  0  0  0
 74200  1  0  0  0  0
 75 76  1  0  0  0  0
 75201  1  0  0  0  0
 75202  1  0  0  0  0
 76 77  1  0  0  0  0
 76203  1  0  0  0  0
 77 79  1  0  0  0  0
 77 78  1  0  0  0  0
 78204  1  0  0  0  0
 78205  1  0  0  0  0
 79206  1  0  0  0  0
 79207  1  0  0  0  0
 80 71  1  0  0  0  0
 80208  1  0  0  0  0
 81 80  1  0  0  0  0
 81 84  1  0  0  0  0
 81209  1  6  0  0  0
 82 81  1  0  0  0  0
 82 83  2  0  0  0  0
 84 85  1  0  0  0  0
 84210  1  0  0  0  0
 84211  1  0  0  0  0
 85 86  1  0  0  0  0
 85212  1  0  0  0  0
 85213  1  0  0  0  0
 86 87  1  0  0  0  0
 86214  1  0  0  0  0
 86215  1  0  0  0  0
 87 88  1  0  0  0  0
 87216  1  0  0  0  0
 88 90  1  0  0  0  0
 88 89  1  0  0  0  0
 89217  1  0  0  0  0
 89218  1  0  0  0  0
 90219  1  0  0  0  0
 90220  1  0  0  0  0
 91 82  1  0  0  0  0
 91221  1  0  0  0  0
 92 91  1  0  0  0  0
 92 95  1  0  0  0  0
 92222  1  1  0  0  0
 93 92  1  0  0  0  0
 93 94  2  0  0  0  0
 95 97  1  0  0  0  0
 95 96  1  0  0  0  0
 95223  1  0  0  0  0
 96224  1  0  0  0  0
 96225  1  0  0  0  0
 96226  1  0  0  0  0
 97227  1  0  0  0  0
 97228  1  0  0  0  0
 97229  1  0  0  0  0
 98 93  1  0  0  0  0
 98230  1  0  0  0  0
 99 98  1  0  0  0  0
 99102  1  0  0  0  0
 99231  1  6  0  0  0
100 99  1  0  0  0  0
100101  2  0  0  0  0
102103  1  0  0  0  0
102232  1  0  0  0  0
102233  1  0  0  0  0
103104  1  0  0  0  0
103234  1  0  0  0  0
103235  1  0  0  0  0
104106  1  0  0  0  0
104105  2  0  0  0  0
106236  1  0  0  0  0
106237  1  0  0  0  0
107100  1  0  0  0  0
107238  1  0  0  0  0
108107  1  0  0  0  0
108111  1  0  0  0  0
108239  1  1  0  0  0
109108  1  0  0  0  0
109110  2  0  0  0  0
109113  1  0  0  0  0
111112  1  0  0  0  0
111240  1  0  0  0  0
111241  1  0  0  0  0
112242  1  0  0  0  0
113114  1  0  0  0  0
113243  1  0  0  0  0
114117  1  0  0  0  0
114115  1  0  0  0  0
114244  1  1  0  0  0
115116  2  0  0  0  0
115122  1  0  0  0  0
117118  1  0  0  0  0
117245  1  0  0  0  0
117246  1  0  0  0  0
118119  1  0  0  0  0
118247  1  0  0  0  0
118248  1  0  0  0  0
119121  1  0  0  0  0
119120  2  0  0  0  0
121249  1  0  0  0  0
121250  1  0  0  0  0
122251  1  0  0  0  0
M  CHG  1   1   1
M  END
