3bun_ligand
 OpenBabel08222323343D

113114  0  0  1  0  0  0  0  0999 V2000
   57.4230  -40.6920    0.4640 N   0  3  0  0  0  0  0  0  0  0  0  0
   57.6850  -41.8270   -0.4880 C   0  0  2  0  0  0  0  0  0  0  0  0
   58.2410  -41.2580   -1.7850 C   0  0  0  0  0  0  0  0  0  0  0  0
   57.8640  -40.1520   -2.1760 O   0  0  0  0  0  0  0  0  0  0  0  0
   56.3970  -42.6080   -0.7970 C   0  0  0  0  0  0  0  0  0  0  0  0
   55.7900  -43.2390    0.4420 C   0  0  0  0  0  0  0  0  0  0  0  0
   56.5120  -43.8610    1.2350 O   0  0  0  0  0  0  0  0  0  0  0  0
   54.4620  -43.1010    0.6170 N   0  0  0  0  0  0  0  0  0  0  0  0
   59.1020  -42.0260   -2.4520 N   0  0  0  0  0  0  0  0  0  0  0  0
   59.7400  -41.5690   -3.6810 C   0  0  2  0  0  0  0  0  0  0  0  0
   58.9700  -41.7370   -5.0060 C   0  0  0  0  0  0  0  0  0  0  0  0
   58.7870  -42.8590   -5.5090 O   0  0  0  0  0  0  0  0  0  0  0  0
   61.1220  -42.2250   -3.8490 C   0  0  0  0  0  0  0  0  0  0  0  0
   62.0680  -41.9390   -2.6720 C   0  0  0  0  0  0  0  0  0  0  0  0
   62.0830  -40.7940   -2.1540 O   0  5  0  0  0  0  0  0  0  0  0  0
   62.8200  -42.8550   -2.2760 O   0  0  0  0  0  0  0  0  0  0  0  0
   58.5360  -40.6090   -5.5590 N   0  0  0  0  0  0  0  0  0  0  0  0
   57.8770  -40.6000   -6.8310 C   0  0  2  0  0  0  0  0  0  0  0  0
   58.8070  -40.0550   -7.9180 C   0  0  0  0  0  0  0  0  0  0  0  0
   59.3080  -38.9280   -7.7990 O   0  0  0  0  0  0  0  0  0  0  0  0
   56.6210  -39.7360   -6.7790 C   0  0  0  0  0  0  0  0  0  0  0  0
   55.5270  -40.3660   -5.9410 C   0  0  0  0  0  0  0  0  0  0  0  0
   54.7950  -41.4920   -6.4190 C   0  0  0  0  0  0  0  0  0  0  0  0
   55.2380  -39.8290   -4.6690 C   0  0  0  0  0  0  0  0  0  0  0  0
   53.7800  -42.0510   -5.5990 C   0  0  0  0  0  0  0  0  0  0  0  0
   54.2350  -40.3700   -3.8380 C   0  0  0  0  0  0  0  0  0  0  0  0
   53.5190  -41.4920   -4.3340 C   0  0  0  0  0  0  0  0  0  0  0  0
   52.5070  -42.0530   -3.4900 O   0  0  0  0  0  0  0  0  0  0  0  0
   51.9090  -41.4430   -2.0830 P   0  0  0  0  0  0  0  0  0  0  0  0
   53.0050  -41.4120   -1.0850 O   0  0  0  0  0  1  0  0  0  0  0  0
   50.8400  -42.3470   -1.6540 O   0  0  0  0  0  1  0  0  0  0  0  0
   51.4230  -40.0390   -2.2920 O   0  0  0  0  0  0  0  0  0  0  0  0
   59.0800  -40.8520   -8.9430 N   0  0  0  0  0  0  0  0  0  0  0  0
   59.9230  -40.3830  -10.0240 C   0  0  2  0  0  0  0  0  0  0  0  0
   59.0590  -39.6280  -11.0320 C   0  0  0  0  0  0  0  0  0  0  0  0
   57.8750  -39.9120  -11.1340 O   0  0  0  0  0  0  0  0  0  0  0  0
   60.7110  -41.5530  -10.6610 C   0  0  2  0  0  0  0  0  0  0  0  0
   59.7600  -42.6150  -11.2110 C   0  0  0  0  0  0  0  0  0  0  0  0
   61.6140  -42.1830   -9.5960 C   0  0  0  0  0  0  0  0  0  0  0  0
   60.0580  -43.0100  -12.6410 C   0  0  0  0  0  0  0  0  0  0  0  0
   59.6090  -38.6770  -11.7760 N   0  0  0  0  0  0  0  0  0  0  0  0
   58.7310  -37.8800  -12.6150 C   0  0  2  0  0  0  0  0  0  0  0  0
   58.2690  -38.3560  -13.9740 C   0  0  0  0  0  0  0  0  0  0  0  0
   57.0620  -38.2620  -14.2600 O   0  0  0  0  0  0  0  0  0  0  0  0
   59.2580  -36.4560  -12.7090 C   0  0  0  0  0  0  0  0  0  0  0  0
   58.5830  -35.5490  -11.7060 C   0  0  0  0  0  0  0  0  0  0  0  0
   59.2590  -34.6860  -11.1040 O   0  5  0  0  0  0  0  0  0  0  0  0
   57.3530  -35.7130  -11.5050 O   0  0  0  0  0  0  0  0  0  0  0  0
   59.1580  -38.8470  -14.8260 N   0  0  0  0  0  0  0  0  0  0  0  0
   58.6720  -39.2970  -16.1170 C   0  0  2  0  0  0  0  0  0  0  0  0
   59.4070  -40.4770  -16.7630 C   0  0  0  0  0  0  0  0  0  0  0  0
   60.5710  -40.3590  -17.1680 O   0  0  0  0  0  0  0  0  0  0  0  0
   58.6050  -38.1060  -17.0930 C   0  0  0  0  0  0  0  0  0  0  0  0
   57.2920  -37.3230  -16.9790 C   0  0  0  0  0  0  0  0  0  0  0  0
   56.2000  -37.8790  -17.1730 O   0  0  0  0  0  0  0  0  0  0  0  0
   57.3930  -36.0360  -16.6510 N   0  0  0  0  0  0  0  0  0  0  0  0
   58.7220  -41.6350  -16.8540 N   0  0  0  0  0  0  0  0  0  0  0  0
   59.2460  -42.8720  -17.4410 C   0  0  2  0  0  0  0  0  0  0  0  0
   59.8550  -42.6950  -18.8480 C   0  0  0  0  0  0  0  0  0  0  0  0
   59.5250  -41.7440  -19.5720 O   0  0  0  0  0  0  0  0  0  0  0  0
   58.0200  -43.7890  -17.4450 C   0  0  0  0  0  0  0  0  0  0  0  0
   57.3240  -43.3870  -16.1740 C   0  0  0  0  0  0  0  0  0  0  0  0
   57.3960  -41.8740  -16.2430 C   0  0  0  0  0  0  0  0  0  0  0  0
   60.7475  -43.5761  -19.2908 O   0  0  0  0  0  0  0  0  0  0  0  0
   57.0539  -41.0567    1.3282 H   0  0  0  0  0  0  0  0  0  0  0  0
   56.7552  -40.0575    0.0547 H   0  0  0  0  0  0  0  0  0  0  0  0
   58.2843  -40.2014    0.6471 H   0  0  0  0  0  0  0  0  0  0  0  0
   58.4209  -42.5107   -0.0396 H   0  0  0  0  0  0  0  0  0  0  0  0
   56.6314  -43.4036   -1.5195 H   0  0  0  0  0  0  0  0  0  0  0  0
   55.6626  -41.9175   -1.2373 H   0  0  0  0  0  0  0  0  0  0  0  0
   54.0192  -43.5007    1.4196 H   0  0  0  0  0  0  0  0  0  0  0  0
   53.9185  -42.5988   -0.0557 H   0  0  0  0  0  0  0  0  0  0  0  0
   59.3157  -42.9377   -2.1012 H   0  0  0  0  0  0  0  0  0  0  0  0
   59.8959  -40.4878   -3.5515 H   0  0  0  0  0  0  0  0  0  0  0  0
   61.5830  -41.8408   -4.7709 H   0  0  0  0  0  0  0  0  0  0  0  0
   60.9859  -43.3133   -3.9331 H   0  0  0  0  0  0  0  0  0  0  0  0
   58.6729  -39.7447   -5.0749 H   0  0  0  0  0  0  0  0  0  0  0  0
   57.5923  -41.6312   -7.0871 H   0  0  0  0  0  0  0  0  0  0  0  0
   56.2456  -39.5947   -7.8032 H   0  0  0  0  0  0  0  0  0  0  0  0
   56.8808  -38.7589   -6.3456 H   0  0  0  0  0  0  0  0  0  0  0  0
   55.0102  -41.9149   -7.3937 H   0  0  0  0  0  0  0  0  0  0  0  0
   55.8046  -38.9736   -4.3192 H   0  0  0  0  0  0  0  0  0  0  0  0
   53.2086  -42.9045   -5.9455 H   0  0  0  0  0  0  0  0  0  0  0  0
   54.0199  -39.9478   -2.8630 H   0  0  0  0  0  0  0  0  0  0  0  0
   58.7033  -41.7780   -8.9695 H   0  0  0  0  0  0  0  0  0  0  0  0
   60.6567  -39.6761   -9.6094 H   0  0  0  0  0  0  0  0  0  0  0  0
   61.3303  -41.1652  -11.4832 H   0  0  0  0  0  0  0  0  0  0  0  0
   58.7341  -42.2209  -11.1653 H   0  0  0  0  0  0  0  0  0  0  0  0
   59.8367  -43.5120  -10.5789 H   0  0  0  0  0  0  0  0  0  0  0  0
   62.2996  -41.4201   -9.1986 H   0  0  0  0  0  0  0  0  0  0  0  0
   62.1964  -43.0005  -10.0460 H   0  0  0  0  0  0  0  0  0  0  0  0
   60.9946  -42.5807   -8.7786 H   0  0  0  0  0  0  0  0  0  0  0  0
   59.3374  -43.7740  -12.9681 H   0  0  0  0  0  0  0  0  0  0  0  0
   61.0779  -43.4172  -12.7040 H   0  0  0  0  0  0  0  0  0  0  0  0
   59.9753  -42.1261  -13.2904 H   0  0  0  0  0  0  0  0  0  0  0  0
   60.5955  -38.5143  -11.7597 H   0  0  0  0  0  0  0  0  0  0  0  0
   57.7999  -37.8205  -12.0324 H   0  0  0  0  0  0  0  0  0  0  0  0
   59.0699  -36.0713  -13.7222 H   0  0  0  0  0  0  0  0  0  0  0  0
   60.3406  -36.4617  -12.5140 H   0  0  0  0  0  0  0  0  0  0  0  0
   60.1275  -38.9051  -14.5878 H   0  0  0  0  0  0  0  0  0  0  0  0
   57.6406  -39.6406  -15.9494 H   0  0  0  0  0  0  0  0  0  0  0  0
   58.6998  -38.4869  -18.1206 H   0  0  0  0  0  0  0  0  0  0  0  0
   59.4411  -37.4251  -16.8757 H   0  0  0  0  0  0  0  0  0  0  0  0
   56.5690  -35.4764  -16.5624 H   0  0  0  0  0  0  0  0  0  0  0  0
   58.2929  -35.6293  -16.4933 H   0  0  0  0  0  0  0  0  0  0  0  0
   60.0262  -43.2899  -16.7878 H   0  0  0  0  0  0  0  0  0  0  0  0
   58.3136  -44.8488  -17.4217 H   0  0  0  0  0  0  0  0  0  0  0  0
   57.3852  -43.6036  -18.3240 H   0  0  0  0  0  0  0  0  0  0  0  0
   57.8520  -43.7727  -15.2895 H   0  0  0  0  0  0  0  0  0  0  0  0
   56.2815  -43.7377  -16.1606 H   0  0  0  0  0  0  0  0  0  0  0  0
   56.5908  -41.4676  -16.8727 H   0  0  0  0  0  0  0  0  0  0  0  0
   57.3366  -41.4286  -15.2390 H   0  0  0  0  0  0  0  0  0  0  0  0
   61.5648  -43.1299  -19.4791 H   0  0  0  0  0  0  0  0  0  0  0  0
  1  2  1  0  0  0  0
  1 65  1  0  0  0  0
  1 66  1  0  0  0  0
  1 67  1  0  0  0  0
  2  3  1  0  0  0  0
  2  5  1  0  0  0  0
  2 68  1  1  0  0  0
  3  4  2  0  0  0  0
  3  9  1  0  0  0  0
  5  6  1  0  0  0  0
  5 69  1  0  0  0  0
  5 70  1  0  0  0  0
  6  7  2  0  0  0  0
  6  8  1  0  0  0  0
  8 71  1  0  0  0  0
  8 72  1  0  0  0  0
  9 10  1  0  0  0  0
  9 73  1  0  0  0  0
 10 11  1  0  0  0  0
 10 13  1  0  0  0  0
 10 74  1  1  0  0  0
 11 12  2  0  0  0  0
 11 17  1  0  0  0  0
 13 14  1  0  0  0  0
 13 75  1  0  0  0  0
 13 76  1  0  0  0  0
 14 15  1  0  0  0  0
 14 16  2  0  0  0  0
 17 18  1  0  0  0  0
 17 77  1  0  0  0  0
 18 19  1  0  0  0  0
 18 21  1  0  0  0  0
 18 78  1  6  0  0  0
 19 20  2  0  0  0  0
 19 33  1  0  0  0  0
 21 22  1  0  0  0  0
 21 79  1  0  0  0  0
 21 80  1  0  0  0  0
 22 23  2  0  0  0  0
 22 24  1  0  0  0  0
 23 25  1  0  0  0  0
 23 81  1  0  0  0  0
 24 26  2  0  0  0  0
 24 82  1  0  0  0  0
 25 27  2  0  0  0  0
 25 83  1  0  0  0  0
 26 27  1  0  0  0  0
 26 84  1  0  0  0  0
 27 28  1  0  0  0  0
 28 29  1  0  0  0  0
 29 30  1  0  0  0  0
 29 31  1  0  0  0  0
 29 32  2  0  0  0  0
 33 34  1  0  0  0  0
 33 85  1  0  0  0  0
 34 35  1  0  0  0  0
 34 37  1  0  0  0  0
 34 86  1  1  0  0  0
 35 36  2  0  0  0  0
 35 41  1  0  0  0  0
 37 38  1  0  0  0  0
 37 39  1  0  0  0  0
 37 87  1  6  0  0  0
 38 40  1  0  0  0  0
 38 88  1  0  0  0  0
 38 89  1  0  0  0  0
 39 90  1  0  0  0  0
 39 91  1  0  0  0  0
 39 92  1  0  0  0  0
 40 93  1  0  0  0  0
 40 94  1  0  0  0  0
 40 95  1  0  0  0  0
 41 42  1  0  0  0  0
 41 96  1  0  0  0  0
 42 43  1  0  0  0  0
 42 45  1  0  0  0  0
 42 97  1  1  0  0  0
 43 44  2  0  0  0  0
 43 49  1  0  0  0  0
 45 46  1  0  0  0  0
 45 98  1  0  0  0  0
 45 99  1  0  0  0  0
 46 47  1  0  0  0  0
 46 48  2  0  0  0  0
 49 50  1  0  0  0  0
 49100  1  0  0  0  0
 50 51  1  0  0  0  0
 50 53  1  0  0  0  0
 50101  1  1  0  0  0
 51 52  2  0  0  0  0
 51 57  1  0  0  0  0
 53 54  1  0  0  0  0
 53102  1  0  0  0  0
 53103  1  0  0  0  0
 54 55  2  0  0  0  0
 54 56  1  0  0  0  0
 56104  1  0  0  0  0
 56105  1  0  0  0  0
 57 58  1  0  0  0  0
 57 63  1  0  0  0  0
 58 59  1  0  0  0  0
 58 61  1  0  0  0  0
 58106  1  1  0  0  0
 59 60  2  0  0  0  0
 59 64  1  0  0  0  0
 61 62  1  0  0  0  0
 61107  1  0  0  0  0
 61108  1  0  0  0  0
 62 63  1  0  0  0  0
 62109  1  0  0  0  0
 62110  1  0  0  0  0
 63111  1  0  0  0  0
 63112  1  0  0  0  0
 64113  1  0  0  0  0
M  CHG  3   1   1  15  -1  47  -1
M  END
