3bv2_ligand
 OpenBabel08222323343D

 78 83  0  0  1  0  0  0  0  0999 V2000
   -4.6210   -2.3900   28.1990 C   0  0  0  0  0  0  0  0  0  0  0  0
   -3.3940   -2.0640   27.5530 C   0  0  0  0  0  0  0  0  0  0  0  0
   -2.6750   -3.1160   26.9230 C   0  0  0  0  0  0  0  0  0  0  0  0
   -0.2280   -3.6620   26.6750 C   0  0  0  0  0  0  0  0  0  0  0  0
   -5.1040   -3.7340   28.2120 C   0  0  0  0  0  0  0  0  0  0  0  0
   -4.3950   -4.7980   27.5870 C   0  0  0  0  0  0  0  0  0  0  0  0
   -3.1650   -4.4680   26.9360 C   0  0  0  0  0  0  0  0  0  0  0  0
   -3.6960    0.7600   17.8220 C   0  0  0  0  0  0  0  0  0  0  0  0
   -5.1580    0.7550   17.3610 C   0  0  0  0  0  0  0  0  0  0  0  0
   -2.2820   -2.5240   23.7620 C   0  0  0  0  0  0  0  0  0  0  0  0
    1.0670    2.4780   13.4420 C   0  0  0  0  0  0  0  0  0  0  0  0
   -3.1380    1.9920   15.7970 C   0  0  0  0  0  0  0  0  0  0  0  0
   -0.1410    3.0770   13.8620 C   0  0  0  0  0  0  0  0  0  0  0  0
   -2.5110    0.7680   22.4150 N   0  0  0  0  0  0  0  0  0  0  0  0
   -2.4590    2.2540   22.4020 N   0  0  0  0  0  0  0  0  0  0  0  0
   -2.4540    2.8430   21.1750 C   0  0  0  0  0  0  0  0  0  0  0  0
   -2.8990    2.1270   20.0870 N   0  0  0  0  0  0  0  0  0  0  0  0
   -3.0100    0.7870   20.1140 C   0  0  0  0  0  0  0  0  0  0  0  0
   -2.7790    0.0060   21.2370 C   0  0  0  0  0  0  0  0  0  0  0  0
   -2.7130   -1.4730   21.5090 C   0  0  0  0  0  0  0  0  0  0  0  0
   -2.4500   -1.5140   22.8980 C   0  0  0  0  0  0  0  0  0  0  0  0
   -2.3150   -0.1640   23.3680 C   0  0  0  0  0  0  0  0  0  0  0  0
   -2.8580   -2.6610   20.5020 C   0  0  0  0  0  0  0  0  0  0  0  0
   -2.5680   -3.6960   23.4820 O   0  0  0  0  0  0  0  0  0  0  0  0
   -1.6840   -2.0030   24.9620 N   0  0  0  0  0  0  0  0  0  0  0  0
   -1.4190   -2.7940   26.2730 C   0  0  1  0  0  0  0  0  0  0  0  0
   -3.3300    0.1510   18.9590 N   0  0  0  0  0  0  0  0  0  0  0  0
   -5.5350    1.4210   16.0450 C   0  0  0  0  0  0  0  0  0  0  0  0
   -4.5020    1.9940   15.3150 C   0  0  0  0  0  0  0  0  0  0  0  0
   -2.7150    1.3850   17.0610 C   0  0  0  0  0  0  0  0  0  0  0  0
   -6.3420    0.0670   18.1160 C   0  0  0  0  0  0  0  0  0  0  0  0
   -2.2140    2.6620   14.9740 N   0  0  0  0  0  0  0  0  0  0  0  0
   -0.8420    2.3370   14.8910 C   0  0  0  0  0  0  0  0  0  0  0  0
   -0.1690    1.5720   15.6070 O   0  0  0  0  0  0  0  0  0  0  0  0
    1.9020    3.1080   12.4600 C   0  0  0  0  0  0  0  0  0  0  0  0
    1.4660    4.2550   11.9600 N   0  0  0  0  0  0  0  0  0  0  0  0
    0.2560    4.7960   12.3830 C   0  0  0  0  0  0  0  0  0  0  0  0
   -0.6150    4.3310   13.3230 C   0  0  0  0  0  0  0  0  0  0  0  0
    3.1150    2.5080   12.0900 N   0  0  0  0  0  0  0  0  0  0  0  0
    3.4800    1.2660   12.8530 C   0  0  0  0  0  0  0  0  0  0  0  0
    4.5050    0.4330   12.1230 C   0  0  0  0  0  0  0  0  0  0  0  0
    5.5990    1.2240   11.8600 O   0  0  0  0  0  0  0  0  0  0  0  0
    5.3920    2.4260   11.0600 C   0  0  0  0  0  0  0  0  0  0  0  0
    4.2530    3.3140   11.5620 C   0  0  0  0  0  0  0  0  0  0  0  0
   -5.1944   -1.6095   28.6860 H   0  0  0  0  0  0  0  0  0  0  0  0
   -3.0206   -1.0464   27.5422 H   0  0  0  0  0  0  0  0  0  0  0  0
    0.6669   -3.3336   26.1260 H   0  0  0  0  0  0  0  0  0  0  0  0
   -0.4419   -4.7133   26.4321 H   0  0  0  0  0  0  0  0  0  0  0  0
   -0.0513   -3.5641   27.7563 H   0  0  0  0  0  0  0  0  0  0  0  0
   -6.0402   -3.9505   28.7138 H   0  0  0  0  0  0  0  0  0  0  0  0
   -4.7709   -5.8146   27.6036 H   0  0  0  0  0  0  0  0  0  0  0  0
   -2.5940   -5.2480   26.4455 H   0  0  0  0  0  0  0  0  0  0  0  0
    1.3679    1.5277   13.8681 H   0  0  0  0  0  0  0  0  0  0  0  0
   -2.1027    3.8669   21.0557 H   0  0  0  0  0  0  0  0  0  0  0  0
   -2.0759    0.0841   24.4011 H   0  0  0  0  0  0  0  0  0  0  0  0
   -3.0622   -2.2660   19.4959 H   0  0  0  0  0  0  0  0  0  0  0  0
   -3.6889   -3.3093   20.8169 H   0  0  0  0  0  0  0  0  0  0  0  0
   -1.9248   -3.2432   20.4849 H   0  0  0  0  0  0  0  0  0  0  0  0
   -1.4131   -1.0404   24.9516 H   0  0  0  0  0  0  0  0  0  0  0  0
   -1.1227   -1.9261   26.8804 H   0  0  0  0  0  0  0  0  0  0  0  0
   -3.2886   -0.8782   18.9554 H   0  0  0  0  0  0  0  0  0  0  0  0
   -6.5605    1.4467   15.6946 H   0  0  0  0  0  0  0  0  0  0  0  0
   -4.7234    2.4548   14.3591 H   0  0  0  0  0  0  0  0  0  0  0  0
   -1.6823    1.4215   17.3886 H   0  0  0  0  0  0  0  0  0  0  0  0
   -5.9704   -0.3822   19.0488 H   0  0  0  0  0  0  0  0  0  0  0  0
   -6.7767   -0.7174   17.4790 H   0  0  0  0  0  0  0  0  0  0  0  0
   -7.1118    0.8166   18.3514 H   0  0  0  0  0  0  0  0  0  0  0  0
   -2.5505    3.4172   14.4114 H   0  0  0  0  0  0  0  0  0  0  0  0
   -0.0359    5.7191   11.8955 H   0  0  0  0  0  0  0  0  0  0  0  0
   -1.5299    4.8294   13.6224 H   0  0  0  0  0  0  0  0  0  0  0  0
    2.5730    0.6618   13.0023 H   0  0  0  0  0  0  0  0  0  0  0  0
    3.8912    1.5580   13.8306 H   0  0  0  0  0  0  0  0  0  0  0  0
    4.0788    0.0626   11.1790 H   0  0  0  0  0  0  0  0  0  0  0  0
    4.8052   -0.4199   12.7495 H   0  0  0  0  0  0  0  0  0  0  0  0
    5.1644    2.1206   10.0281 H   0  0  0  0  0  0  0  0  0  0  0  0
    6.3212    3.0145   11.0718 H   0  0  0  0  0  0  0  0  0  0  0  0
    4.6339    3.9616   12.3655 H   0  0  0  0  0  0  0  0  0  0  0  0
    3.8929    3.9360   10.7293 H   0  0  0  0  0  0  0  0  0  0  0  0
  1  5  1  0  0  0  0
  1 45  1  0  0  0  0
  2  1  2  0  0  0  0
  2 46  1  0  0  0  0
  3  2  1  0  0  0  0
  3  7  2  0  0  0  0
  4 47  1  0  0  0  0
  4 48  1  0  0  0  0
  4 49  1  0  0  0  0
  5 50  1  0  0  0  0
  6  5  2  0  0  0  0
  6 51  1  0  0  0  0
  7  6  1  0  0  0  0
  7 52  1  0  0  0  0
  8  9  2  0  0  0  0
  8 27  1  0  0  0  0
  9 31  1  0  0  0  0
 10 24  2  0  0  0  0
 10 25  1  0  0  0  0
 11 35  1  0  0  0  0
 11 53  1  0  0  0  0
 12 29  1  0  0  0  0
 12 30  2  0  0  0  0
 13 11  2  0  0  0  0
 13 38  1  0  0  0  0
 14 15  1  0  0  0  0
 14 22  1  0  0  0  0
 16 15  2  0  0  0  0
 16 54  1  0  0  0  0
 17 16  1  0  0  0  0
 18 17  2  0  0  0  0
 18 19  1  0  0  0  0
 19 14  1  0  0  0  0
 19 20  2  0  0  0  0
 20 21  1  0  0  0  0
 20 23  1  0  0  0  0
 21 10  1  0  0  0  0
 21 22  2  0  0  0  0
 22 55  1  0  0  0  0
 23 56  1  0  0  0  0
 23 57  1  0  0  0  0
 23 58  1  0  0  0  0
 25 26  1  0  0  0  0
 25 59  1  0  0  0  0
 26  3  1  0  0  0  0
 26  4  1  0  0  0  0
 26 60  1  1  0  0  0
 27 18  1  0  0  0  0
 27 61  1  0  0  0  0
 28  9  1  0  0  0  0
 28 62  1  0  0  0  0
 29 28  2  0  0  0  0
 29 63  1  0  0  0  0
 30  8  1  0  0  0  0
 30 64  1  0  0  0  0
 31 65  1  0  0  0  0
 31 66  1  0  0  0  0
 31 67  1  0  0  0  0
 32 12  1  0  0  0  0
 32 33  1  0  0  0  0
 32 68  1  0  0  0  0
 33 13  1  0  0  0  0
 33 34  2  0  0  0  0
 35 36  2  0  0  0  0
 35 39  1  0  0  0  0
 36 37  1  0  0  0  0
 37 38  2  0  0  0  0
 37 69  1  0  0  0  0
 38 70  1  0  0  0  0
 39 40  1  0  0  0  0
 39 44  1  0  0  0  0
 40 41  1  0  0  0  0
 40 71  1  0  0  0  0
 40 72  1  0  0  0  0
 41 42  1  0  0  0  0
 41 73  1  0  0  0  0
 41 74  1  0  0  0  0
 42 43  1  0  0  0  0
 43 44  1  0  0  0  0
 43 75  1  0  0  0  0
 43 76  1  0  0  0  0
 44 77  1  0  0  0  0
 44 78  1  0  0  0  0
M  END
