3bv3_ligand
 OpenBabel08222323343D

 79 84  0  0  1  0  0  0  0  0999 V2000
   -3.1210   42.0110   10.5780 C   0  0  0  0  0  0  0  0  0  0  0  0
   -2.0570   42.0580   11.5180 C   0  0  0  0  0  0  0  0  0  0  0  0
   -1.7050   40.7680   12.0830 C   0  0  0  0  0  0  0  0  0  0  0  0
    0.5810   40.5540   12.1950 C   0  0  0  0  0  0  0  0  0  0  0  0
   -3.7780   40.7700   10.2400 C   0  0  0  0  0  0  0  0  0  0  0  0
   -3.4320   39.5250   10.8110 C   0  0  0  0  0  0  0  0  0  0  0  0
   -2.3860   39.5570   11.7340 C   0  0  0  0  0  0  0  0  0  0  0  0
   -3.3010   36.5990   21.1500 C   0  0  0  0  0  0  0  0  0  0  0  0
   -4.6660   36.6370   21.4480 C   0  0  0  0  0  0  0  0  0  0  0  0
   -1.3300   39.8620   15.0570 C   0  0  0  0  0  0  0  0  0  0  0  0
    1.6060   34.9550   25.4500 C   0  0  0  0  0  0  0  0  0  0  0  0
   -2.7630   35.1910   23.1740 C   0  0  0  0  0  0  0  0  0  0  0  0
    0.3770   34.2810   25.0320 C   0  0  0  0  0  0  0  0  0  0  0  0
   -1.7780   36.5650   16.5530 N   0  0  0  0  0  0  0  0  0  0  0  0
   -1.8320   35.2570   16.7080 N   0  0  0  0  0  0  0  0  0  0  0  0
   -2.2080   34.6090   17.8390 C   0  0  0  0  0  0  0  0  0  0  0  0
   -2.5160   35.3560   18.9560 N   0  0  0  0  0  0  0  0  0  0  0  0
   -2.4580   36.6280   18.8230 C   0  0  0  0  0  0  0  0  0  0  0  0
   -2.0820   37.3640   17.6620 C   0  0  0  0  0  0  0  0  0  0  0  0
   -1.9240   38.7700   17.3470 C   0  0  0  0  0  0  0  0  0  0  0  0
   -1.5390   38.7350   15.9400 C   0  0  0  0  0  0  0  0  0  0  0  0
   -1.4600   37.3440   15.5180 C   0  0  0  0  0  0  0  0  0  0  0  0
   -2.1680   40.0650   18.2810 C   0  0  0  0  0  0  0  0  0  0  0  0
   -1.5330   41.0780   15.3650 O   0  0  0  0  0  0  0  0  0  0  0  0
   -1.0070   39.5390   13.8130 N   0  0  0  0  0  0  0  0  0  0  0  0
   -0.6260   40.6740   13.0510 C   0  0  2  0  0  0  0  0  0  0  0  0
   -2.8140   37.2500   20.0220 N   0  0  0  0  0  0  0  0  0  0  0  0
   -5.0760   35.9430   22.6320 C   0  0  0  0  0  0  0  0  0  0  0  0
   -4.1700   35.2330   23.4870 C   0  0  0  0  0  0  0  0  0  0  0  0
   -2.4340   35.9090   21.9750 C   0  0  0  0  0  0  0  0  0  0  0  0
   -5.6490   37.3630   20.5470 C   0  0  0  0  0  0  0  0  0  0  0  0
   -1.8860   34.5260   24.0210 N   0  0  0  0  0  0  0  0  0  0  0  0
   -0.6110   34.9410   24.0770 C   0  0  0  0  0  0  0  0  0  0  0  0
   -0.0920   35.7840   23.3280 O   0  0  0  0  0  0  0  0  0  0  0  0
    2.4440   34.3440   26.3030 C   0  0  0  0  0  0  0  0  0  0  0  0
    2.0730   33.1370   26.7000 C   0  0  0  0  0  0  0  0  0  0  0  0
    1.0180   32.4280   26.3940 C   0  0  0  0  0  0  0  0  0  0  0  0
    0.1450   32.9960   25.5360 C   0  0  0  0  0  0  0  0  0  0  0  0
    3.6130   34.8840   26.7000 N   0  0  0  0  0  0  0  0  0  0  0  0
    3.8250   36.2370   26.3570 C   0  0  0  0  0  0  0  0  0  0  0  0
    5.2620   36.6910   26.7640 C   0  0  0  0  0  0  0  0  0  0  0  0
    6.0890   35.8790   27.5880 O   0  0  0  0  0  0  0  0  0  0  0  0
    5.5030   34.9030   28.4070 C   0  0  0  0  0  0  0  0  0  0  0  0
    4.6850   34.0590   27.3560 C   0  0  0  0  0  0  0  0  0  0  0  0
   -3.4478   42.9289   10.1028 H   0  0  0  0  0  0  0  0  0  0  0  0
   -1.5516   42.9776   11.7899 H   0  0  0  0  0  0  0  0  0  0  0  0
    1.4751   40.4748   12.8309 H   0  0  0  0  0  0  0  0  0  0  0  0
    0.6652   41.4433   11.5531 H   0  0  0  0  0  0  0  0  0  0  0  0
    0.4971   39.6549   11.5668 H   0  0  0  0  0  0  0  0  0  0  0  0
   -4.5787   40.7952    9.5098 H   0  0  0  0  0  0  0  0  0  0  0  0
   -3.9447   38.6064   10.5496 H   0  0  0  0  0  0  0  0  0  0  0  0
   -2.0771   38.6306   12.2046 H   0  0  0  0  0  0  0  0  0  0  0  0
    1.8395   35.9440   25.0726 H   0  0  0  0  0  0  0  0  0  0  0  0
   -2.2653   33.5218   17.8640 H   0  0  0  0  0  0  0  0  0  0  0  0
   -1.1867   36.9970   14.5226 H   0  0  0  0  0  0  0  0  0  0  0  0
   -2.4483   39.7392   19.2936 H   0  0  0  0  0  0  0  0  0  0  0  0
   -2.9772   40.6767   17.8556 H   0  0  0  0  0  0  0  0  0  0  0  0
   -1.2447   40.6610   18.3300 H   0  0  0  0  0  0  0  0  0  0  0  0
   -1.0291   38.6060   13.4538 H   0  0  0  0  0  0  0  0  0  0  0  0
   -0.5434   41.5585   13.6997 H   0  0  0  0  0  0  0  0  0  0  0  0
   -2.7072   38.2731   20.0748 H   0  0  0  0  0  0  0  0  0  0  0  0
   -6.1274   35.9552   22.8958 H   0  0  0  0  0  0  0  0  0  0  0  0
   -4.5433   34.7270   24.3700 H   0  0  0  0  0  0  0  0  0  0  0  0
   -1.3895   35.9097   21.6850 H   0  0  0  0  0  0  0  0  0  0  0  0
   -5.1072   37.8183   19.7049 H   0  0  0  0  0  0  0  0  0  0  0  0
   -6.1613   38.1490   21.1213 H   0  0  0  0  0  0  0  0  0  0  0  0
   -6.3907   36.6477   20.1619 H   0  0  0  0  0  0  0  0  0  0  0  0
   -2.1976   33.7552   24.5767 H   0  0  0  0  0  0  0  0  0  0  0  0
    2.7558   32.6579   27.3923 H   0  0  0  0  0  0  0  0  0  0  0  0
    0.8537   31.4391   26.8065 H   0  0  0  0  0  0  0  0  0  0  0  0
   -0.7432   32.4526   25.2346 H   0  0  0  0  0  0  0  0  0  0  0  0
    3.0870   36.8622   26.8808 H   0  0  0  0  0  0  0  0  0  0  0  0
    3.7025   36.3575   25.2705 H   0  0  0  0  0  0  0  0  0  0  0  0
    5.1480   37.6514   27.2881 H   0  0  0  0  0  0  0  0  0  0  0  0
    5.8157   36.8483   25.8266 H   0  0  0  0  0  0  0  0  0  0  0  0
    4.8418   35.3554   29.1608 H   0  0  0  0  0  0  0  0  0  0  0  0
    6.2655   34.2892   28.9089 H   0  0  0  0  0  0  0  0  0  0  0  0
    5.3734   33.6875   26.5827 H   0  0  0  0  0  0  0  0  0  0  0  0
    4.2160   33.2068   27.8695 H   0  0  0  0  0  0  0  0  0  0  0  0
  1  5  1  0  0  0  0
  1 45  1  0  0  0  0
  2  1  2  0  0  0  0
  2 46  1  0  0  0  0
  3  2  1  0  0  0  0
  3  7  2  0  0  0  0
  4 47  1  0  0  0  0
  4 48  1  0  0  0  0
  4 49  1  0  0  0  0
  5 50  1  0  0  0  0
  6  5  2  0  0  0  0
  6 51  1  0  0  0  0
  7  6  1  0  0  0  0
  7 52  1  0  0  0  0
  8  9  2  0  0  0  0
  8 27  1  0  0  0  0
  9 31  1  0  0  0  0
 10 24  2  0  0  0  0
 10 25  1  0  0  0  0
 11 35  1  0  0  0  0
 11 53  1  0  0  0  0
 12 29  1  0  0  0  0
 12 30  2  0  0  0  0
 13 11  2  0  0  0  0
 13 38  1  0  0  0  0
 14 15  1  0  0  0  0
 14 22  1  0  0  0  0
 16 15  2  0  0  0  0
 16 54  1  0  0  0  0
 17 16  1  0  0  0  0
 18 17  2  0  0  0  0
 18 19  1  0  0  0  0
 19 14  1  0  0  0  0
 19 20  2  0  0  0  0
 20 21  1  0  0  0  0
 20 23  1  0  0  0  0
 21 10  1  0  0  0  0
 21 22  2  0  0  0  0
 22 55  1  0  0  0  0
 23 56  1  0  0  0  0
 23 57  1  0  0  0  0
 23 58  1  0  0  0  0
 25 26  1  0  0  0  0
 25 59  1  0  0  0  0
 26  3  1  0  0  0  0
 26  4  1  0  0  0  0
 26 60  1  1  0  0  0
 27 18  1  0  0  0  0
 27 61  1  0  0  0  0
 28  9  1  0  0  0  0
 28 62  1  0  0  0  0
 29 28  2  0  0  0  0
 29 63  1  0  0  0  0
 30  8  1  0  0  0  0
 30 64  1  0  0  0  0
 31 65  1  0  0  0  0
 31 66  1  0  0  0  0
 31 67  1  0  0  0  0
 32 12  1  0  0  0  0
 32 33  1  0  0  0  0
 32 68  1  0  0  0  0
 33 13  1  0  0  0  0
 33 34  2  0  0  0  0
 35 36  2  0  0  0  0
 35 39  1  0  0  0  0
 36 37  1  0  0  0  0
 36 69  1  0  0  0  0
 37 38  2  0  0  0  0
 37 70  1  0  0  0  0
 38 71  1  0  0  0  0
 39 40  1  0  0  0  0
 39 44  1  0  0  0  0
 40 41  1  0  0  0  0
 40 72  1  0  0  0  0
 40 73  1  0  0  0  0
 41 42  1  0  0  0  0
 41 74  1  0  0  0  0
 41 75  1  0  0  0  0
 42 43  1  0  0  0  0
 43 44  1  0  0  0  0
 43 76  1  0  0  0  0
 43 77  1  0  0  0  0
 44 78  1  0  0  0  0
 44 79  1  0  0  0  0
M  END
