3byo_ligand
 OpenBabel08222323343D

 71 77  0  0  0  0  0  0  0  0999 V2000
   25.7590   35.8000   82.9300 C   0  0  0  0  0  0  0  0  0  0  0  0
   25.5740   36.5460   84.0690 N   0  0  0  0  0  0  0  0  0  0  0  0
   24.3710   36.7680   84.6330 C   0  0  0  0  0  0  0  0  0  0  0  0
   23.2140   36.1410   83.9380 C   0  0  0  0  0  0  0  0  0  0  0  0
   23.3890   35.3280   82.7270 C   0  0  0  0  0  0  0  0  0  0  0  0
   24.6820   35.2020   82.2770 N   0  0  0  0  0  0  0  0  0  0  0  0
   27.0450   35.7260   82.4150 N   0  0  0  0  0  0  0  0  0  0  0  0
   28.2330   36.4210   82.7610 C   0  0  0  0  0  0  0  0  0  0  0  0
   28.1530   37.6860   83.5170 C   0  0  0  0  0  0  0  0  0  0  0  0
   29.3120   38.3470   83.9820 C   0  0  0  0  0  0  0  0  0  0  0  0
   30.5360   37.6840   83.6490 C   0  0  0  0  0  0  0  0  0  0  0  0
   30.6720   36.4210   82.8680 C   0  0  0  0  0  0  0  0  0  0  0  0
   29.4780   35.7770   82.4100 C   0  0  0  0  0  0  0  0  0  0  0  0
   24.2500   37.6210   85.8210 N   0  0  0  0  0  0  0  0  0  0  0  0
   23.0450   37.9130   86.4290 C   0  0  0  0  0  0  0  0  0  0  0  0
   21.8920   37.3370   85.8330 N   0  0  0  0  0  0  0  0  0  0  0  0
   22.0070   36.4960   84.6180 C   0  0  0  0  0  0  0  0  0  0  0  0
   25.1870   38.3540   86.6280 C   0  0  0  0  0  0  0  0  0  0  0  0
   24.5080   39.0960   87.7040 C   0  0  0  0  0  0  0  0  0  0  0  0
   23.1760   38.7930   87.5500 N   0  0  0  0  0  0  0  0  0  0  0  0
   26.6570   38.5220   86.5770 C   0  0  0  0  0  0  0  0  0  0  0  0
   27.4240   39.3580   87.5150 C   0  0  0  0  0  0  0  0  0  0  0  0
   26.6810   40.0600   88.5420 C   0  0  0  0  0  0  0  0  0  0  0  0
   25.2440   39.9510   88.6590 C   0  0  0  0  0  0  0  0  0  0  0  0
   21.0240   36.0870   84.0120 O   0  0  0  0  0  0  0  0  0  0  0  0
   20.6760   37.4860   86.4460 C   0  0  0  0  0  0  0  0  0  0  0  0
   20.1540   36.4340   87.3170 C   0  0  0  0  0  0  0  0  0  0  0  0
   18.8550   36.6050   87.9530 C   0  0  0  0  0  0  0  0  0  0  0  0
   18.0550   37.7750   87.7670 C   0  0  0  0  0  0  0  0  0  0  0  0
   18.6080   38.7620   86.9160 C   0  0  0  0  0  0  0  0  0  0  0  0
   19.8840   38.6710   86.2410 C   0  0  0  0  0  0  0  0  0  0  0  0
   20.3180   39.7880   85.3160 C   0  0  0  0  0  0  0  0  0  0  0  0
   20.9810   35.1790   87.5170 C   0  0  0  0  0  0  0  0  0  0  0  0
   31.5780   38.3640   84.2280 N   0  0  0  0  0  0  0  0  0  0  0  0
   32.6420   38.7400   83.3310 C   0  0  0  0  0  0  0  0  0  0  0  0
   33.9950   38.4600   83.9710 C   0  0  0  0  0  0  0  0  0  0  0  0
   33.9450   39.0150   85.3340 N   0  3  0  0  0  0  0  0  0  0  0  0
   33.0200   38.2750   86.2060 C   0  0  0  0  0  0  0  0  0  0  0  0
   31.6620   38.7480   85.6950 C   0  0  0  0  0  0  0  0  0  0  0  0
   35.2380   38.6380   85.8840 C   0  0  0  0  0  0  0  0  0  0  0  0
   22.5532   34.8581   82.2212 H   0  0  0  0  0  0  0  0  0  0  0  0
   27.1572   35.0483   81.6475 H   0  0  0  0  0  0  0  0  0  0  0  0
   27.1803   38.1190   83.7207 H   0  0  0  0  0  0  0  0  0  0  0  0
   29.2772   39.2747   84.5417 H   0  0  0  0  0  0  0  0  0  0  0  0
   31.6483   36.0018   82.6529 H   0  0  0  0  0  0  0  0  0  0  0  0
   29.5064   34.8595   81.8334 H   0  0  0  0  0  0  0  0  0  0  0  0
   27.2022   37.9970   85.8010 H   0  0  0  0  0  0  0  0  0  0  0  0
   28.5019   39.4450   87.4404 H   0  0  0  0  0  0  0  0  0  0  0  0
   27.2192   40.6863   89.2443 H   0  0  0  0  0  0  0  0  0  0  0  0
   24.7137   40.4890   89.4365 H   0  0  0  0  0  0  0  0  0  0  0  0
   18.4801   35.8141   88.5925 H   0  0  0  0  0  0  0  0  0  0  0  0
   17.0900   37.8982   88.2453 H   0  0  0  0  0  0  0  0  0  0  0  0
   18.0257   39.6624   86.7567 H   0  0  0  0  0  0  0  0  0  0  0  0
   21.3059   39.5515   84.8940 H   0  0  0  0  0  0  0  0  0  0  0  0
   20.3766   40.7300   85.8809 H   0  0  0  0  0  0  0  0  0  0  0  0
   19.5870   39.8940   84.5009 H   0  0  0  0  0  0  0  0  0  0  0  0
   21.9187   35.2633   86.9482 H   0  0  0  0  0  0  0  0  0  0  0  0
   20.4141   34.3058   87.1619 H   0  0  0  0  0  0  0  0  0  0  0  0
   21.2102   35.0574   88.5859 H   0  0  0  0  0  0  0  0  0  0  0  0
   32.5631   39.8134   83.1038 H   0  0  0  0  0  0  0  0  0  0  0  0
   32.5539   38.1606   82.4001 H   0  0  0  0  0  0  0  0  0  0  0  0
   34.7949   38.9464   83.3934 H   0  0  0  0  0  0  0  0  0  0  0  0
   34.1781   37.3761   84.0102 H   0  0  0  0  0  0  0  0  0  0  0  0
   33.7642   40.0066   85.3354 H   0  0  0  0  0  0  0  0  0  0  0  0
   33.1654   38.5428   87.2629 H   0  0  0  0  0  0  0  0  0  0  0  0
   33.1374   37.1882   86.0836 H   0  0  0  0  0  0  0  0  0  0  0  0
   30.8550   38.2585   86.2599 H   0  0  0  0  0  0  0  0  0  0  0  0
   31.5768   39.8392   85.8048 H   0  0  0  0  0  0  0  0  0  0  0  0
   36.0376   39.1321   85.3126 H   0  0  0  0  0  0  0  0  0  0  0  0
   35.3606   37.5469   85.8178 H   0  0  0  0  0  0  0  0  0  0  0  0
   35.2935   38.9500   86.9373 H   0  0  0  0  0  0  0  0  0  0  0  0
  1  2  2  0  0  0  0
  1  6  1  0  0  0  0
  1  7  1  0  0  0  0
  2  3  1  0  0  0  0
  3  4  2  0  0  0  0
  3 14  1  0  0  0  0
  4  5  1  0  0  0  0
  4 17  1  0  0  0  0
  5  6  2  0  0  0  0
  5 41  1  0  0  0  0
  7  8  1  0  0  0  0
  7 42  1  0  0  0  0
  8  9  2  0  0  0  0
  8 13  1  0  0  0  0
  9 10  1  0  0  0  0
  9 43  1  0  0  0  0
 10 11  2  0  0  0  0
 10 44  1  0  0  0  0
 11 12  1  0  0  0  0
 11 34  1  0  0  0  0
 12 13  2  0  0  0  0
 12 45  1  0  0  0  0
 13 46  1  0  0  0  0
 14 15  1  0  0  0  0
 14 18  1  0  0  0  0
 15 16  1  0  0  0  0
 15 20  2  0  0  0  0
 16 17  1  0  0  0  0
 16 26  1  0  0  0  0
 17 25  2  0  0  0  0
 18 19  2  0  0  0  0
 18 21  1  0  0  0  0
 19 20  1  0  0  0  0
 19 24  1  0  0  0  0
 21 22  2  0  0  0  0
 21 47  1  0  0  0  0
 22 23  1  0  0  0  0
 22 48  1  0  0  0  0
 23 24  2  0  0  0  0
 23 49  1  0  0  0  0
 24 50  1  0  0  0  0
 26 27  2  0  0  0  0
 26 31  1  0  0  0  0
 27 28  1  0  0  0  0
 27 33  1  0  0  0  0
 28 29  2  0  0  0  0
 28 51  1  0  0  0  0
 29 30  1  0  0  0  0
 29 52  1  0  0  0  0
 30 31  2  0  0  0  0
 30 53  1  0  0  0  0
 31 32  1  0  0  0  0
 32 54  1  0  0  0  0
 32 55  1  0  0  0  0
 32 56  1  0  0  0  0
 33 57  1  0  0  0  0
 33 58  1  0  0  0  0
 33 59  1  0  0  0  0
 34 35  1  0  0  0  0
 34 39  1  0  0  0  0
 35 36  1  0  0  0  0
 35 60  1  0  0  0  0
 35 61  1  0  0  0  0
 36 37  1  0  0  0  0
 36 62  1  0  0  0  0
 36 63  1  0  0  0  0
 37 38  1  0  0  0  0
 37 40  1  0  0  0  0
 37 64  1  0  0  0  0
 38 39  1  0  0  0  0
 38 65  1  0  0  0  0
 38 66  1  0  0  0  0
 39 67  1  0  0  0  0
 39 68  1  0  0  0  0
 40 69  1  0  0  0  0
 40 70  1  0  0  0  0
 40 71  1  0  0  0  0
M  CHG  1  37   1
M  END
