3bze_ligand
 OpenBabel08222323343D

156157  0  0  1  0  0  0  0  0999 V2000
    2.1340   -4.7040    4.4610 N   0  3  0  0  0  0  0  0  0  0  0  0
    3.5260   -4.9540    4.0080 C   0  0  2  0  0  0  0  0  0  0  0  0
    4.3560   -3.7000    4.1970 C   0  0  0  0  0  0  0  0  0  0  0  0
    3.8210   -2.6190    4.3750 O   0  0  0  0  0  0  0  0  0  0  0  0
    3.5550   -5.4080    2.5220 C   0  0  0  0  0  0  0  0  0  0  0  0
    2.6270   -6.6030    2.3500 C   0  0  0  0  0  0  0  0  0  0  0  0
    3.1380   -4.2720    1.5920 C   0  0  0  0  0  0  0  0  0  0  0  0
    5.6650   -3.8490    4.1800 N   0  0  0  0  0  0  0  0  0  0  0  0
    6.5520   -2.7060    4.3520 C   0  0  2  0  0  0  0  0  0  0  0  0
    6.8470   -2.0820    2.9950 C   0  0  0  0  0  0  0  0  0  0  0  0
    6.6130   -2.7000    1.9490 O   0  0  0  0  0  0  0  0  0  0  0  0
    7.8630   -3.1590    4.9930 C   0  0  0  0  0  0  0  0  0  0  0  0
    8.6250   -4.1430    4.1580 C   0  0  0  0  0  0  0  0  0  0  0  0
   10.2590   -4.3900    4.8020 S   0  0  0  0  0  0  0  0  0  0  0  0
   11.1160   -2.9390    4.2030 C   0  0  0  0  0  0  0  0  0  0  0  0
    7.3630   -0.8590    3.0220 N   0  0  0  0  0  0  0  0  0  0  0  0
    7.7010   -0.1460    1.8120 C   0  0  2  0  0  0  0  0  0  0  0  0
    8.6670   -1.0010    1.0220 C   0  0  0  0  0  0  0  0  0  0  0  0
    9.6720   -1.4260    1.5450 O   0  0  0  0  0  0  0  0  0  0  0  0
    8.3390    1.1990    2.1670 C   0  0  0  0  0  0  0  0  0  0  0  0
    8.3670   -1.2700   -0.2570 N   0  0  0  0  0  0  0  0  0  0  0  0
    9.2200   -2.0930   -1.1300 C   0  0  2  0  0  0  0  0  0  0  0  0
   10.4030   -1.3360   -1.7290 C   0  0  0  0  0  0  0  0  0  0  0  0
   11.2260   -1.9060   -2.4360 O   0  0  0  0  0  0  0  0  0  0  0  0
    8.2460   -2.5570   -2.2060 C   0  0  0  0  0  0  0  0  0  0  0  0
    7.3930   -1.3270   -2.3940 C   0  0  0  0  0  0  0  0  0  0  0  0
    7.1070   -0.9200   -0.9420 C   0  0  0  0  0  0  0  0  0  0  0  0
   10.4720   -0.0480   -1.4500 N   0  0  0  0  0  0  0  0  0  0  0  0
   11.5410    0.7840   -1.9660 C   0  0  2  0  0  0  0  0  0  0  0  0
   11.9890    1.7410   -0.8550 C   0  0  0  0  0  0  0  0  0  0  0  0
   11.1800    2.1830   -0.0350 O   0  0  0  0  0  0  0  0  0  0  0  0
   11.0330    1.5460   -3.1950 C   0  0  0  0  0  0  0  0  0  0  0  0
   11.9090    2.6690   -3.6970 C   0  0  0  0  0  0  0  0  0  0  0  0
   11.3180    3.3110   -4.9560 C   0  0  0  0  0  0  0  0  0  0  0  0
   11.7280    2.6090   -6.1640 N   0  0  0  0  0  0  0  0  0  0  0  0
   12.7640    2.9550   -6.9270 C   0  0  0  0  0  3  0  0  0  0  0  0
   13.5020    4.0070   -6.6310 N   0  0  0  0  0  0  0  0  0  0  0  0
   13.0810    2.2260   -7.9770 N   0  0  0  0  0  0  0  0  0  0  0  0
   13.2840    2.0320   -0.8180 N   0  0  0  0  0  0  0  0  0  0  0  0
   13.8390    2.9360    0.1830 C   0  0  2  0  0  0  0  0  0  0  0  0
   14.7100    3.9510   -0.5520 C   0  0  0  0  0  0  0  0  0  0  0  0
   14.7150    3.9840   -1.7700 O   0  0  0  0  0  0  0  0  0  0  0  0
   14.6890    2.1480    1.2630 C   0  0  2  0  0  0  0  0  0  0  0  0
   14.8500    2.9570    2.4330 O   0  0  0  0  0  0  0  0  0  0  0  0
   16.0670    1.7710    0.7270 C   0  0  0  0  0  0  0  0  0  0  0  0
   15.4450    4.7690    0.1940 N   0  0  0  0  0  0  0  0  0  0  0  0
   16.3030    5.7800   -0.3980 C   0  0  2  0  0  0  0  0  0  0  0  0
   17.7860    5.4950   -0.2730 C   0  0  0  0  0  0  0  0  0  0  0  0
   18.2410    4.9310    0.7170 O   0  0  0  0  0  0  0  0  0  0  0  0
   16.0590    7.1470    0.2620 C   0  0  0  0  0  0  0  0  0  0  0  0
   14.6930    7.8400    0.2010 C   0  0  0  0  0  0  0  0  0  0  0  0
   14.8040    9.2390    0.8340 C   0  0  0  0  0  0  0  0  0  0  0  0
   14.2360    7.9660   -1.2580 C   0  0  0  0  0  0  0  0  0  0  0  0
   18.5310    5.8840   -1.2940 N   0  0  0  0  0  0  0  0  0  0  0  0
   19.9660    5.8060   -1.2540 C   0  0  2  0  0  0  0  0  0  0  0  0
   20.2450    7.2240   -0.7460 C   0  0  0  0  0  0  0  0  0  0  0  0
   20.0100    8.1910   -1.4690 O   0  0  0  0  0  0  0  0  0  0  0  0
   20.5820    5.6680   -2.6440 C   0  0  0  0  0  0  0  0  0  0  0  0
   20.7840    4.2470   -3.0930 C   0  0  0  0  0  0  0  0  0  0  0  0
   19.7550    3.5460   -3.7190 C   0  0  0  0  0  0  0  0  0  0  0  0
   22.0060    3.6190   -2.9260 C   0  0  0  0  0  0  0  0  0  0  0  0
   19.9420    2.2550   -4.1730 C   0  0  0  0  0  0  0  0  0  0  0  0
   22.2030    2.3100   -3.3830 C   0  0  0  0  0  0  0  0  0  0  0  0
   21.1700    1.6310   -4.0060 C   0  0  0  0  0  0  0  0  0  0  0  0
   20.7040    7.3550    0.4950 N   0  0  0  0  0  0  0  0  0  0  0  0
   20.9990    8.6680    1.0550 C   0  0  2  0  0  0  0  0  0  0  0  0
   22.2630    9.2720    0.4320 C   0  0  0  0  0  0  0  0  0  0  0  0
   22.5460   10.4610    0.6900 O   0  5  0  0  0  0  0  0  0  0  0  0
   21.1340    8.5660    2.5740 C   0  0  0  0  0  0  0  0  0  0  0  0
   19.8190    8.1510    3.2230 C   0  0  0  0  0  0  0  0  0  0  0  0
   20.0120    7.7760    4.6760 C   0  0  0  0  0  0  0  0  0  0  0  0
   18.8340    9.2840    3.1010 C   0  0  0  0  0  0  0  0  0  0  0  0
   22.9500    8.5550   -0.3250 O   0  0  0  0  0  0  0  0  0  0  0  0
    2.1420   -4.4115    5.4256 H   0  0  0  0  0  0  0  0  0  0  0  0
    1.5942   -5.5505    4.3711 H   0  0  0  0  0  0  0  0  0  0  0  0
    1.7209   -3.9803    3.8939 H   0  0  0  0  0  0  0  0  0  0  0  0
    3.9561   -5.7570    4.6246 H   0  0  0  0  0  0  0  0  0  0  0  0
    4.5802   -5.7121    2.2642 H   0  0  0  0  0  0  0  0  0  0  0  0
    2.6419   -6.9306    1.3000 H   0  0  0  0  0  0  0  0  0  0  0  0
    1.6028   -6.3152    2.6298 H   0  0  0  0  0  0  0  0  0  0  0  0
    2.9659   -7.4264    2.9958 H   0  0  0  0  0  0  0  0  0  0  0  0
    3.8177   -3.4180    1.7288 H   0  0  0  0  0  0  0  0  0  0  0  0
    2.1091   -3.9633    1.8287 H   0  0  0  0  0  0  0  0  0  0  0  0
    3.1868   -4.6159    0.5483 H   0  0  0  0  0  0  0  0  0  0  0  0
    6.0555   -4.7600    4.0471 H   0  0  0  0  0  0  0  0  0  0  0  0
    6.0661   -1.9618    5.0001 H   0  0  0  0  0  0  0  0  0  0  0  0
    7.6340   -3.6273    5.9616 H   0  0  0  0  0  0  0  0  0  0  0  0
    8.4964   -2.2742    5.1541 H   0  0  0  0  0  0  0  0  0  0  0  0
    8.6976   -3.7616    3.1288 H   0  0  0  0  0  0  0  0  0  0  0  0
    8.0898   -5.1040    4.1561 H   0  0  0  0  0  0  0  0  0  0  0  0
   12.1632   -2.9671    4.5385 H   0  0  0  0  0  0  0  0  0  0  0  0
   10.6284   -2.0358    4.5985 H   0  0  0  0  0  0  0  0  0  0  0  0
   11.0836   -2.9217    3.1036 H   0  0  0  0  0  0  0  0  0  0  0  0
    7.5223   -0.4187    3.9056 H   0  0  0  0  0  0  0  0  0  0  0  0
    6.7924    0.0295    1.2173 H   0  0  0  0  0  0  0  0  0  0  0  0
    8.5948    1.7386    1.2432 H   0  0  0  0  0  0  0  0  0  0  0  0
    9.2519    1.0277    2.7563 H   0  0  0  0  0  0  0  0  0  0  0  0
    7.6289    1.7975    2.7565 H   0  0  0  0  0  0  0  0  0  0  0  0
    9.6113   -2.9545   -0.5690 H   0  0  0  0  0  0  0  0  0  0  0  0
    7.6462   -3.4127   -1.8625 H   0  0  0  0  0  0  0  0  0  0  0  0
    8.7716   -2.8266   -3.1339 H   0  0  0  0  0  0  0  0  0  0  0  0
    6.4643   -1.5621   -2.9346 H   0  0  0  0  0  0  0  0  0  0  0  0
    7.9401   -0.5381   -2.9309 H   0  0  0  0  0  0  0  0  0  0  0  0
    6.8988    0.1574   -0.8650 H   0  0  0  0  0  0  0  0  0  0  0  0
    6.2597   -1.4876   -0.5298 H   0  0  0  0  0  0  0  0  0  0  0  0
    9.7701    0.3638   -0.8688 H   0  0  0  0  0  0  0  0  0  0  0  0
   12.3913    0.1522   -2.2623 H   0  0  0  0  0  0  0  0  0  0  0  0
   10.0520    1.9743   -2.9416 H   0  0  0  0  0  0  0  0  0  0  0  0
   10.9161    0.8209   -4.0139 H   0  0  0  0  0  0  0  0  0  0  0  0
   12.9061    2.2687   -3.9325 H   0  0  0  0  0  0  0  0  0  0  0  0
   11.9972    3.4341   -2.9116 H   0  0  0  0  0  0  0  0  0  0  0  0
   11.6596    4.3548   -5.0174 H   0  0  0  0  0  0  0  0  0  0  0  0
   10.2205    3.2879   -4.8859 H   0  0  0  0  0  0  0  0  0  0  0  0
   11.1779    1.7862   -6.4490 H   0  0  0  0  0  0  0  0  0  0  0  0
   14.2997    4.2617   -7.2307 H   0  0  0  0  0  0  0  0  0  0  0  0
   13.2807    4.5740   -5.8001 H   0  0  0  0  0  0  0  0  0  0  0  0
   12.5145    1.4012   -8.2214 H   0  0  0  0  0  0  0  0  0  0  0  0
   13.8955    2.4806   -8.5538 H   0  0  0  0  0  0  0  0  0  0  0  0
   13.8949    1.6205   -1.4943 H   0  0  0  0  0  0  0  0  0  0  0  0
   13.0184    3.4601    0.6948 H   0  0  0  0  0  0  0  0  0  0  0  0
   14.1498    1.2277    1.5317 H   0  0  0  0  0  0  0  0  0  0  0  0
   15.3600    2.4811    3.0780 H   0  0  0  0  0  0  0  0  0  0  0  0
   16.6259    1.2270    1.5027 H   0  0  0  0  0  0  0  0  0  0  0  0
   16.6157    2.6838    0.4518 H   0  0  0  0  0  0  0  0  0  0  0  0
   15.9528    1.1304   -0.1599 H   0  0  0  0  0  0  0  0  0  0  0  0
   15.4062    4.6861    1.1898 H   0  0  0  0  0  0  0  0  0  0  0  0
   16.0518    5.8454   -1.4669 H   0  0  0  0  0  0  0  0  0  0  0  0
   16.7792    7.8429   -0.1930 H   0  0  0  0  0  0  0  0  0  0  0  0
   16.2945    7.0215    1.3291 H   0  0  0  0  0  0  0  0  0  0  0  0
   13.9572    7.2440    0.7608 H   0  0  0  0  0  0  0  0  0  0  0  0
   13.8252    9.7392    0.7919 H   0  0  0  0  0  0  0  0  0  0  0  0
   15.5443    9.8346    0.2797 H   0  0  0  0  0  0  0  0  0  0  0  0
   15.1217    9.1428    1.8827 H   0  0  0  0  0  0  0  0  0  0  0  0
   14.1582    6.9642   -1.7057 H   0  0  0  0  0  0  0  0  0  0  0  0
   14.9680    8.5635   -1.8212 H   0  0  0  0  0  0  0  0  0  0  0  0
   13.2541    8.4606   -1.2933 H   0  0  0  0  0  0  0  0  0  0  0  0
   18.0850    6.2414   -2.1146 H   0  0  0  0  0  0  0  0  0  0  0  0
   20.3318    5.0148   -0.5831 H   0  0  0  0  0  0  0  0  0  0  0  0
   21.5608    6.1699   -2.6385 H   0  0  0  0  0  0  0  0  0  0  0  0
   19.9184    6.1663   -3.3660 H   0  0  0  0  0  0  0  0  0  0  0  0
   18.7905    4.0225   -3.8520 H   0  0  0  0  0  0  0  0  0  0  0  0
   22.8179    4.1451   -2.4371 H   0  0  0  0  0  0  0  0  0  0  0  0
   19.1289    1.7290   -4.6601 H   0  0  0  0  0  0  0  0  0  0  0  0
   23.1648    1.8283   -3.2488 H   0  0  0  0  0  0  0  0  0  0  0  0
   21.3196    0.6178   -4.3613 H   0  0  0  0  0  0  0  0  0  0  0  0
   20.8493    6.5386    1.0538 H   0  0  0  0  0  0  0  0  0  0  0  0
   20.1554    9.3362    0.8273 H   0  0  0  0  0  0  0  0  0  0  0  0
   21.4364    9.5455    2.9729 H   0  0  0  0  0  0  0  0  0  0  0  0
   21.9038    7.8182    2.8154 H   0  0  0  0  0  0  0  0  0  0  0  0
   19.4230    7.2753    2.6879 H   0  0  0  0  0  0  0  0  0  0  0  0
   19.0449    7.4828    5.1106 H   0  0  0  0  0  0  0  0  0  0  0  0
   20.4151    8.6386    5.2269 H   0  0  0  0  0  0  0  0  0  0  0  0
   20.7162    6.9339    4.7470 H   0  0  0  0  0  0  0  0  0  0  0  0
   18.7046    9.5447    2.0402 H   0  0  0  0  0  0  0  0  0  0  0  0
   19.2118   10.1591    3.6501 H   0  0  0  0  0  0  0  0  0  0  0  0
   17.8663    8.9757    3.5234 H   0  0  0  0  0  0  0  0  0  0  0  0
  1  2  1  0  0  0  0
  1 74  1  0  0  0  0
  1 75  1  0  0  0  0
  1 76  1  0  0  0  0
  2  3  1  0  0  0  0
  2  5  1  0  0  0  0
  2 77  1  1  0  0  0
  3  4  2  0  0  0  0
  3  8  1  0  0  0  0
  5  6  1  0  0  0  0
  5  7  1  0  0  0  0
  5 78  1  0  0  0  0
  6 79  1  0  0  0  0
  6 80  1  0  0  0  0
  6 81  1  0  0  0  0
  7 82  1  0  0  0  0
  7 83  1  0  0  0  0
  7 84  1  0  0  0  0
  8  9  1  0  0  0  0
  8 85  1  0  0  0  0
  9 10  1  0  0  0  0
  9 12  1  0  0  0  0
  9 86  1  1  0  0  0
 10 11  2  0  0  0  0
 10 16  1  0  0  0  0
 12 13  1  0  0  0  0
 12 87  1  0  0  0  0
 12 88  1  0  0  0  0
 13 14  1  0  0  0  0
 13 89  1  0  0  0  0
 13 90  1  0  0  0  0
 14 15  1  0  0  0  0
 15 91  1  0  0  0  0
 15 92  1  0  0  0  0
 15 93  1  0  0  0  0
 16 17  1  0  0  0  0
 16 94  1  0  0  0  0
 17 18  1  0  0  0  0
 17 20  1  0  0  0  0
 17 95  1  6  0  0  0
 18 19  2  0  0  0  0
 18 21  1  0  0  0  0
 20 96  1  0  0  0  0
 20 97  1  0  0  0  0
 20 98  1  0  0  0  0
 21 22  1  0  0  0  0
 21 27  1  0  0  0  0
 22 23  1  0  0  0  0
 22 25  1  0  0  0  0
 22 99  1  1  0  0  0
 23 24  2  0  0  0  0
 23 28  1  0  0  0  0
 25 26  1  0  0  0  0
 25100  1  0  0  0  0
 25101  1  0  0  0  0
 26 27  1  0  0  0  0
 26102  1  0  0  0  0
 26103  1  0  0  0  0
 27104  1  0  0  0  0
 27105  1  0  0  0  0
 28 29  1  0  0  0  0
 28106  1  0  0  0  0
 29 30  1  0  0  0  0
 29 32  1  0  0  0  0
 29107  1  6  0  0  0
 30 31  2  0  0  0  0
 30 39  1  0  0  0  0
 32 33  1  0  0  0  0
 32108  1  0  0  0  0
 32109  1  0  0  0  0
 33 34  1  0  0  0  0
 33110  1  0  0  0  0
 33111  1  0  0  0  0
 34 35  1  0  0  0  0
 34112  1  0  0  0  0
 34113  1  0  0  0  0
 35 36  1  0  0  0  0
 35114  1  0  0  0  0
 36 37  1  0  0  0  0
 36 38  1  0  0  0  0
 37115  1  0  0  0  0
 37116  1  0  0  0  0
 38117  1  0  0  0  0
 38118  1  0  0  0  0
 39 40  1  0  0  0  0
 39119  1  0  0  0  0
 40 41  1  0  0  0  0
 40 43  1  0  0  0  0
 40120  1  1  0  0  0
 41 42  2  0  0  0  0
 41 46  1  0  0  0  0
 43 44  1  0  0  0  0
 43 45  1  0  0  0  0
 43121  1  1  0  0  0
 44122  1  0  0  0  0
 45123  1  0  0  0  0
 45124  1  0  0  0  0
 45125  1  0  0  0  0
 46 47  1  0  0  0  0
 46126  1  0  0  0  0
 47 48  1  0  0  0  0
 47 50  1  0  0  0  0
 47127  1  6  0  0  0
 48 49  2  0  0  0  0
 48 54  1  0  0  0  0
 50 51  1  0  0  0  0
 50128  1  0  0  0  0
 50129  1  0  0  0  0
 51 52  1  0  0  0  0
 51 53  1  0  0  0  0
 51130  1  0  0  0  0
 52131  1  0  0  0  0
 52132  1  0  0  0  0
 52133  1  0  0  0  0
 53134  1  0  0  0  0
 53135  1  0  0  0  0
 53136  1  0  0  0  0
 54 55  1  0  0  0  0
 54137  1  0  0  0  0
 55 56  1  0  0  0  0
 55 58  1  0  0  0  0
 55138  1  1  0  0  0
 56 57  2  0  0  0  0
 56 65  1  0  0  0  0
 58 59  1  0  0  0  0
 58139  1  0  0  0  0
 58140  1  0  0  0  0
 59 60  2  0  0  0  0
 59 61  1  0  0  0  0
 60 62  1  0  0  0  0
 60141  1  0  0  0  0
 61 63  2  0  0  0  0
 61142  1  0  0  0  0
 62 64  2  0  0  0  0
 62143  1  0  0  0  0
 63 64  1  0  0  0  0
 63144  1  0  0  0  0
 64145  1  0  0  0  0
 65 66  1  0  0  0  0
 65146  1  0  0  0  0
 66 67  1  0  0  0  0
 66 69  1  0  0  0  0
 66147  1  6  0  0  0
 67 68  1  0  0  0  0
 67 73  2  0  0  0  0
 69 70  1  0  0  0  0
 69148  1  0  0  0  0
 69149  1  0  0  0  0
 70 71  1  0  0  0  0
 70 72  1  0  0  0  0
 70150  1  0  0  0  0
 71151  1  0  0  0  0
 71152  1  0  0  0  0
 71153  1  0  0  0  0
 72154  1  0  0  0  0
 72155  1  0  0  0  0
 72156  1  0  0  0  0
M  CHG  2   1   1  68  -1
M  END
