3c14_ligand
 OpenBabel08222323343D

 13 12  0  0  0  0  0  0  0  0999 V2000
    0.7510    7.4390  -24.8520 P   0  0  0  0  0  0  0  0  0  0  0  0
    0.6060    8.0710  -23.4820 O   0  0  0  0  0  0  0  0  0  0  0  0
    0.2110    8.3580  -25.9240 O   0  0  0  0  0  0  0  0  0  0  0  0
    2.2130    7.1820  -25.1230 O   0  0  0  0  0  0  0  0  0  0  0  0
   -0.0270    6.0260  -24.8890 O   0  0  0  0  0  0  0  0  0  0  0  0
   -1.4480    5.8080  -24.1590 P   0  0  0  0  0  0  0  0  0  0  0  0
   -2.2720    4.8860  -25.0220 O   0  0  0  0  0  0  0  0  0  0  0  0
   -1.2520    5.1800  -22.7930 O   0  0  0  0  0  0  0  0  0  0  0  0
   -2.1770    7.1250  -24.0170 O   0  0  0  0  0  0  0  0  0  0  0  0
    1.0053    8.8997  -23.3037 H   0  0  0  0  0  0  0  0  0  0  0  0
    0.5665    9.2190  -26.0257 H   0  0  0  0  0  0  0  0  0  0  0  0
   -1.9634    4.0220  -25.2122 H   0  0  0  0  0  0  0  0  0  0  0  0
   -0.8134    4.3557  -22.7149 H   0  0  0  0  0  0  0  0  0  0  0  0
  1  2  1  0  0  0  0
  1  3  1  0  0  0  0
  1  4  2  0  0  0  0
  1  5  1  0  0  0  0
  2 10  1  0  0  0  0
  3 11  1  0  0  0  0
  5  6  1  0  0  0  0
  6  7  1  0  0  0  0
  6  8  1  0  0  0  0
  6  9  2  0  0  0  0
  7 12  1  0  0  0  0
  8 13  1  0  0  0  0
M  END
