3c1x_ligand
 OpenBabel08222323343D

 68 72  0  0  1  0  0  0  0  0999 V2000
   -0.3370    6.2240   52.3960 N   0  0  0  0  0  0  0  0  0  0  0  0
   -0.1970    9.8880   52.7960 C   0  0  0  0  0  0  0  0  0  0  0  0
   -0.3340    8.6370   52.2520 C   0  0  0  0  0  0  0  0  0  0  0  0
   -0.1760    7.4850   53.0140 C   0  0  0  0  0  0  0  0  0  0  0  0
    0.1460    7.6040   54.3940 C   0  0  0  0  0  0  0  0  0  0  0  0
    0.2930    8.8940   54.9560 C   0  0  0  0  0  0  0  0  0  0  0  0
    0.1090   10.0230   54.1320 C   0  0  0  0  0  0  0  0  0  0  0  0
   -0.8400   11.6800   55.3780 C   0  0  0  0  0  0  0  0  0  0  0  0
   -0.6790    6.0220   51.1150 C   0  0  0  0  0  0  0  0  0  0  0  0
   -0.4750   12.6030   56.3860 C   0  0  0  0  0  0  0  0  0  0  0  0
    2.9000   11.1190   56.7100 C   0  0  0  0  0  0  0  0  0  0  0  0
   -1.3010   -1.4800   54.8740 F   0  0  0  0  0  0  0  0  0  0  0  0
   -1.3200   -0.5210   53.9730 C   0  0  0  0  0  0  0  0  0  0  0  0
   -0.2420   -0.4560   53.1420 C   0  0  0  0  0  0  0  0  0  0  0  0
   -0.1690    0.5370   52.1600 C   0  0  0  0  0  0  0  0  0  0  0  0
   -2.4030    0.3500   53.9310 C   0  0  0  0  0  0  0  0  0  0  0  0
   -2.3470    1.3370   52.9470 C   0  0  0  0  0  0  0  0  0  0  0  0
   -1.2400    1.4180   52.0620 C   0  0  0  0  0  0  0  0  0  0  0  0
   -1.1830    2.4440   51.0350 C   0  0  0  0  0  0  0  0  0  0  0  0
   -0.9900    3.7690   51.6900 C   0  0  0  0  0  0  0  0  0  0  0  0
   -0.8150    3.9800   52.8940 O   0  0  0  0  0  0  0  0  0  0  0  0
   -0.9530    4.7710   50.7900 N   0  0  0  0  0  0  0  0  0  0  0  0
   -0.7710    6.8260   50.2270 O   0  0  0  0  0  0  0  0  0  0  0  0
   -0.3680   10.9600   52.0170 F   0  0  0  0  0  0  0  0  0  0  0  0
    0.2170   11.3310   54.5870 O   0  0  0  0  0  0  0  0  0  0  0  0
   -2.0240   11.2190   55.2410 N   0  0  0  0  0  0  0  0  0  0  0  0
   -2.9440   11.6500   56.1400 C   0  0  0  0  0  0  0  0  0  0  0  0
   -2.7460   12.4990   57.0980 N   0  0  0  0  0  0  0  0  0  0  0  0
   -1.5020   12.9730   57.2050 N   0  0  0  0  0  0  0  0  0  0  0  0
   -1.0630   13.8580   58.1250 C   0  0  0  0  0  0  0  0  0  0  0  0
    0.2920   14.0430   57.9310 C   0  0  0  0  0  0  0  0  0  0  0  0
    0.6920   13.2620   56.7790 C   0  0  0  0  0  0  0  0  0  0  0  0
    2.0690   13.2420   56.1810 C   0  0  0  0  0  0  0  0  0  0  0  0
    3.0260   12.5470   57.0480 N   0  3  2  0  0  0  0  0  0  0  0  0
    4.4170   13.0480   56.8310 C   0  0  0  0  0  0  0  0  0  0  0  0
    5.5070   12.1850   57.4940 C   0  0  0  0  0  0  0  0  0  0  0  0
    5.2760   10.6960   57.1810 C   0  0  2  0  0  0  0  0  0  0  0  0
    3.8620   10.2750   57.5090 C   0  0  0  0  0  0  0  0  0  0  0  0
    6.1510    9.8070   57.9820 N   0  3  0  0  0  0  0  0  0  0  0  0
   -0.1829    5.4140   52.9618 H   0  0  0  0  0  0  0  0  0  0  0  0
   -0.5721    8.5436   51.1986 H   0  0  0  0  0  0  0  0  0  0  0  0
    0.2769    6.7192   55.0064 H   0  0  0  0  0  0  0  0  0  0  0  0
    0.5433    9.0125   56.0040 H   0  0  0  0  0  0  0  0  0  0  0  0
    3.1116   10.9851   55.6389 H   0  0  0  0  0  0  0  0  0  0  0  0
    1.8725   10.7901   56.9247 H   0  0  0  0  0  0  0  0  0  0  0  0
    0.5617   -1.1765   53.2425 H   0  0  0  0  0  0  0  0  0  0  0  0
    0.6884    0.6166   51.5015 H   0  0  0  0  0  0  0  0  0  0  0  0
   -3.2370    0.2673   54.6186 H   0  0  0  0  0  0  0  0  0  0  0  0
   -3.1582    2.0504   52.8570 H   0  0  0  0  0  0  0  0  0  0  0  0
   -2.1228    2.4476   50.4634 H   0  0  0  0  0  0  0  0  0  0  0  0
   -0.3416    2.2412   50.3561 H   0  0  0  0  0  0  0  0  0  0  0  0
   -1.1417    4.5579   49.8314 H   0  0  0  0  0  0  0  0  0  0  0  0
   -3.9492   11.2415   56.0470 H   0  0  0  0  0  0  0  0  0  0  0  0
   -1.6714   14.3420   58.8876 H   0  0  0  0  0  0  0  0  0  0  0  0
    0.9456   14.6673   58.5385 H   0  0  0  0  0  0  0  0  0  0  0  0
    2.4087   14.2777   56.0332 H   0  0  0  0  0  0  0  0  0  0  0  0
    2.0286   12.7272   55.2098 H   0  0  0  0  0  0  0  0  0  0  0  0
    2.7793   12.6911   58.0147 H   0  0  0  0  0  0  0  0  0  0  0  0
    4.4854   14.0662   57.2416 H   0  0  0  0  0  0  0  0  0  0  0  0
    4.6093   13.0755   55.7483 H   0  0  0  0  0  0  0  0  0  0  0  0
    5.4759   12.3355   58.5832 H   0  0  0  0  0  0  0  0  0  0  0  0
    6.4924   12.4875   57.1100 H   0  0  0  0  0  0  0  0  0  0  0  0
    5.4712   10.5340   56.1106 H   0  0  0  0  0  0  0  0  0  0  0  0
    3.7239    9.2146   57.2514 H   0  0  0  0  0  0  0  0  0  0  0  0
    3.6743   10.4189   58.5833 H   0  0  0  0  0  0  0  0  0  0  0  0
    7.1162   10.0388   57.8067 H   0  0  0  0  0  0  0  0  0  0  0  0
    5.9833    8.8476   57.7222 H   0  0  0  0  0  0  0  0  0  0  0  0
    5.9485    9.9302   58.9617 H   0  0  0  0  0  0  0  0  0  0  0  0
  1  9  1  0  0  0  0
  1 40  1  0  0  0  0
  2  3  2  0  0  0  0
  2 24  1  0  0  0  0
  3  4  1  0  0  0  0
  3 41  1  0  0  0  0
  4  1  1  0  0  0  0
  5  4  2  0  0  0  0
  5 42  1  0  0  0  0
  6  5  1  0  0  0  0
  6 43  1  0  0  0  0
  7  2  1  0  0  0  0
  7  6  2  0  0  0  0
  8 25  1  0  0  0  0
  8 26  2  0  0  0  0
  9 22  1  0  0  0  0
  9 23  2  0  0  0  0
 10  8  1  0  0  0  0
 10 29  1  0  0  0  0
 11 38  1  0  0  0  0
 11 44  1  0  0  0  0
 11 45  1  0  0  0  0
 13 12  1  0  0  0  0
 14 13  2  0  0  0  0
 14 46  1  0  0  0  0
 15 14  1  0  0  0  0
 15 47  1  0  0  0  0
 16 13  1  0  0  0  0
 16 48  1  0  0  0  0
 17 16  2  0  0  0  0
 17 49  1  0  0  0  0
 18 15  2  0  0  0  0
 18 17  1  0  0  0  0
 19 18  1  0  0  0  0
 19 50  1  0  0  0  0
 19 51  1  0  0  0  0
 20 19  1  0  0  0  0
 20 21  2  0  0  0  0
 22 20  1  0  0  0  0
 22 52  1  0  0  0  0
 25  7  1  0  0  0  0
 26 27  1  0  0  0  0
 27 53  1  0  0  0  0
 28 27  2  0  0  0  0
 29 28  1  0  0  0  0
 30 29  1  0  0  0  0
 30 54  1  0  0  0  0
 31 30  2  0  0  0  0
 31 55  1  0  0  0  0
 32 10  2  0  0  0  0
 32 31  1  0  0  0  0
 33 32  1  0  0  0  0
 33 34  1  0  0  0  0
 33 56  1  0  0  0  0
 33 57  1  0  0  0  0
 34 11  1  0  0  0  0
 34 35  1  0  0  0  0
 34 58  1  1  0  0  0
 35 36  1  0  0  0  0
 35 59  1  0  0  0  0
 35 60  1  0  0  0  0
 36 37  1  0  0  0  0
 36 61  1  0  0  0  0
 36 62  1  0  0  0  0
 37 38  1  0  0  0  0
 37 39  1  0  0  0  0
 37 63  1  6  0  0  0
 38 64  1  0  0  0  0
 38 65  1  0  0  0  0
 39 66  1  0  0  0  0
 39 67  1  0  0  0  0
 39 68  1  0  0  0  0
M  CHG  2  34   1  39   1
M  END
