3c45_ligand
 OpenBabel08222323343D

 54 57  0  0  1  0  0  0  0  0999 V2000
   39.6540   51.2680   36.0040 C   0  0  2  0  0  0  0  0  0  0  0  0
   38.4420   50.8230   35.0800 C   0  0  1  0  0  0  0  0  0  0  0  0
   37.0940   50.7420   35.7860 C   0  0  0  0  0  0  0  0  0  0  0  0
   36.2720   49.6640   35.7610 C   0  0  0  0  0  0  0  0  0  0  0  0
   36.6950   51.8180   36.4720 F   0  0  0  0  0  0  0  0  0  0  0  0
   38.3140   51.7750   33.9880 N   0  3  0  0  0  0  0  0  0  0  0  0
   40.8580   51.6900   35.1270 C   0  0  0  0  0  0  0  0  0  0  0  0
   34.9170   49.6040   36.4530 C   0  0  0  0  0  0  0  0  0  0  0  0
   34.1830   48.3590   35.9340 C   0  0  0  0  0  0  0  0  0  0  0  0
   35.1090   47.6800   34.9220 C   0  0  0  0  0  0  0  0  0  0  0  0
   36.4850   48.3290   35.0790 C   0  0  0  0  0  0  0  0  0  0  0  0
   41.6690   52.8460   35.7480 C   0  0  2  0  0  0  0  0  0  0  0  0
   43.0320   53.0740   35.2570 C   0  0  0  0  0  0  0  0  0  0  0  0
   42.8150   52.4820   36.5780 C   0  0  0  0  0  0  0  0  0  0  0  0
   40.1700   50.1180   36.8330 C   0  0  0  0  0  0  0  0  0  0  0  0
   40.1850   50.1460   38.1510 N   0  0  0  0  0  0  0  0  0  0  0  0
   40.6960   48.9650   38.5090 C   0  0  0  0  0  0  0  0  0  0  0  0
   40.9950   48.2090   37.4210 N   0  0  0  0  0  0  0  0  0  0  0  0
   40.6380   48.9900   36.2970 O   0  0  0  0  0  0  0  0  0  0  0  0
   40.8940   48.4060   39.8810 C   0  0  0  0  0  0  0  0  0  0  0  0
   40.0860   49.0480   40.8710 C   0  0  0  0  0  0  0  0  0  0  0  0
   40.1010   48.6070   42.2140 C   0  0  0  0  0  0  0  0  0  0  0  0
   40.9260   47.5210   42.5900 C   0  0  0  0  0  0  0  0  0  0  0  0
   41.7510   46.8750   41.6370 C   0  0  0  0  0  0  0  0  0  0  0  0
   41.7410   47.3070   40.2950 C   0  0  0  0  0  0  0  0  0  0  0  0
   40.8990   46.9380   44.2620 S   0  0  0  0  0  0  0  0  0  0  0  0
   39.6080   47.2290   44.8130 O   0  0  0  0  0  0  0  0  0  0  0  0
   42.0260   47.5780   44.9560 O   0  0  0  0  0  0  0  0  0  0  0  0
   41.1860   45.1970   44.0670 C   0  0  0  0  0  0  0  0  0  0  0  0
   42.7690   46.3980   39.2290 Cl  0  0  0  0  0  0  0  0  0  0  0  0
   39.3342   52.0965   36.6530 H   0  0  0  0  0  0  0  0  0  0  0  0
   38.6747   49.8285   34.6716 H   0  0  0  0  0  0  0  0  0  0  0  0
   37.5468   51.5031   33.3934 H   0  0  0  0  0  0  0  0  0  0  0  0
   39.1671   51.7873   33.4512 H   0  0  0  0  0  0  0  0  0  0  0  0
   38.1393   52.6944   34.3625 H   0  0  0  0  0  0  0  0  0  0  0  0
   40.4824   52.0115   34.1444 H   0  0  0  0  0  0  0  0  0  0  0  0
   41.5222   50.8225   34.9998 H   0  0  0  0  0  0  0  0  0  0  0  0
   34.3354   50.5074   36.2171 H   0  0  0  0  0  0  0  0  0  0  0  0
   35.0552   49.5308   37.5418 H   0  0  0  0  0  0  0  0  0  0  0  0
   33.2414   48.6519   35.4465 H   0  0  0  0  0  0  0  0  0  0  0  0
   33.9671   47.6737   36.7669 H   0  0  0  0  0  0  0  0  0  0  0  0
   34.7318   47.8342   33.9003 H   0  0  0  0  0  0  0  0  0  0  0  0
   35.1726   46.6018   35.1306 H   0  0  0  0  0  0  0  0  0  0  0  0
   37.1354   47.6903   35.6946 H   0  0  0  0  0  0  0  0  0  0  0  0
   36.9464   48.4789   34.0918 H   0  0  0  0  0  0  0  0  0  0  0  0
   41.0135   53.6882   36.0142 H   0  0  0  0  0  0  0  0  0  0  0  0
   43.7089   53.4257   34.4798 H   0  0  0  0  0  0  0  0  0  0  0  0
   43.2153   52.0707   37.5035 H   0  0  0  0  0  0  0  0  0  0  0  0
   39.4546   49.8826   40.5883 H   0  0  0  0  0  0  0  0  0  0  0  0
   39.4815   49.1001   42.9544 H   0  0  0  0  0  0  0  0  0  0  0  0
   42.3879   46.0513   41.9384 H   0  0  0  0  0  0  0  0  0  0  0  0
   41.1919   44.7135   45.0550 H   0  0  0  0  0  0  0  0  0  0  0  0
   42.1571   45.0382   43.5754 H   0  0  0  0  0  0  0  0  0  0  0  0
   40.3869   44.7605   43.4499 H   0  0  0  0  0  0  0  0  0  0  0  0
  1  2  1  0  0  0  0
  1  7  1  0  0  0  0
  1 15  1  0  0  0  0
  1 31  1  1  0  0  0
  2  3  1  0  0  0  0
  2  6  1  0  0  0  0
  2 32  1  6  0  0  0
  3  4  2  0  0  0  0
  3  5  1  0  0  0  0
  4  8  1  0  0  0  0
  4 11  1  0  0  0  0
  6 33  1  0  0  0  0
  6 34  1  0  0  0  0
  6 35  1  0  0  0  0
  7 12  1  0  0  0  0
  7 36  1  0  0  0  0
  7 37  1  0  0  0  0
  8  9  1  0  0  0  0
  8 38  1  0  0  0  0
  8 39  1  0  0  0  0
  9 10  1  0  0  0  0
  9 40  1  0  0  0  0
  9 41  1  0  0  0  0
 10 11  1  0  0  0  0
 10 42  1  0  0  0  0
 10 43  1  0  0  0  0
 11 44  1  0  0  0  0
 11 45  1  0  0  0  0
 12 13  1  0  0  0  0
 12 14  1  0  0  0  0
 12 46  1  1  0  0  0
 13 14  2  0  0  0  0
 13 47  1  0  0  0  0
 14 48  1  0  0  0  0
 15 16  2  0  0  0  0
 15 19  1  0  0  0  0
 16 17  1  0  0  0  0
 17 18  2  0  0  0  0
 17 20  1  0  0  0  0
 18 19  1  0  0  0  0
 20 21  2  0  0  0  0
 20 25  1  0  0  0  0
 21 22  1  0  0  0  0
 21 49  1  0  0  0  0
 22 23  2  0  0  0  0
 22 50  1  0  0  0  0
 23 24  1  0  0  0  0
 23 26  1  0  0  0  0
 24 25  2  0  0  0  0
 24 51  1  0  0  0  0
 25 30  1  0  0  0  0
 26 27  2  0  0  0  0
 26 28  2  0  0  0  0
 26 29  1  0  0  0  0
 29 52  1  0  0  0  0
 29 53  1  0  0  0  0
 29 54  1  0  0  0  0
M  CHG  1   6   1
M  END
