3c49_ligand
 OpenBabel08222323343D

 50 53  0  0  0  0  0  0  0  0999 V2000
   23.8820   -4.0580    9.6090 C   0  0  0  0  0  0  0  0  0  0  0  0
   24.1480   -2.9670   10.6680 C   0  0  0  0  0  0  0  0  0  0  0  0
   24.1360   -1.5330   10.1480 C   0  0  0  0  0  0  0  0  0  0  0  0
   23.0770   -0.7550    9.4790 N   0  3  0  0  0  0  0  0  0  0  0  0
   22.6230   -1.3810    8.2200 C   0  0  0  0  0  0  0  0  0  0  0  0
   21.9520   -2.7220    8.4070 C   0  0  0  0  0  0  0  0  0  0  0  0
   22.5630   -3.8850    9.0150 N   0  0  0  0  0  0  0  0  0  0  0  0
   21.6680   -4.8580    9.2120 C   0  0  0  0  0  0  0  0  0  0  0  0
   20.5070   -4.7510    8.8080 O   0  0  0  0  0  0  0  0  0  0  0  0
   22.0380   -6.1120   10.0290 C   0  0  0  0  0  0  0  0  0  0  0  0
   20.9950   -6.4750   10.8740 C   0  0  0  0  0  0  0  0  0  0  0  0
   23.2850   -6.6960   10.2880 C   0  0  0  0  0  0  0  0  0  0  0  0
   24.3570   -6.4070    9.5260 F   0  0  0  0  0  0  0  0  0  0  0  0
   23.3890   -7.7910   11.1450 C   0  0  0  0  0  0  0  0  0  0  0  0
   22.3070   -8.1890   11.9100 C   0  0  0  0  0  0  0  0  0  0  0  0
   21.1030   -7.5260   11.7730 C   0  0  0  0  0  0  0  0  0  0  0  0
   19.9190   -7.9680   12.6340 C   0  0  0  0  0  0  0  0  0  0  0  0
   18.6070   -7.2990   12.2330 C   0  0  0  0  0  0  0  0  0  0  0  0
   17.6740   -7.9730   11.4690 C   0  0  0  0  0  0  0  0  0  0  0  0
   17.9390   -9.2680   11.0440 C   0  0  0  0  0  0  0  0  0  0  0  0
   17.0030   -9.9400   10.2700 C   0  0  0  0  0  0  0  0  0  0  0  0
   15.8080   -9.3160    9.9290 C   0  0  0  0  0  0  0  0  0  0  0  0
   15.5490   -8.0180   10.3590 C   0  0  0  0  0  0  0  0  0  0  0  0
   16.4890   -7.3500   11.1310 C   0  0  0  0  0  0  0  0  0  0  0  0
   16.2820   -6.0580   11.5870 C   0  0  0  0  0  0  0  0  0  0  0  0
   15.2440   -5.4520   11.3190 O   0  0  0  0  0  0  0  0  0  0  0  0
   17.2880   -5.4570   12.3630 N   0  0  0  0  0  0  0  0  0  0  0  0
   18.3380   -6.0460   12.6460 N   0  0  0  0  0  0  0  0  0  0  0  0
   23.9361   -5.0471   10.0873 H   0  0  0  0  0  0  0  0  0  0  0  0
   24.6455   -3.9899    8.8201 H   0  0  0  0  0  0  0  0  0  0  0  0
   25.1361   -3.1586   11.1118 H   0  0  0  0  0  0  0  0  0  0  0  0
   23.3741   -3.0525   11.4451 H   0  0  0  0  0  0  0  0  0  0  0  0
   24.9737   -1.5042    9.4356 H   0  0  0  0  0  0  0  0  0  0  0  0
   24.3865   -0.9298   11.0331 H   0  0  0  0  0  0  0  0  0  0  0  0
   23.4336    0.1648    9.2721 H   0  0  0  0  0  0  0  0  0  0  0  0
   22.2896   -0.6775   10.1035 H   0  0  0  0  0  0  0  0  0  0  0  0
   23.4978   -1.5200    7.5678 H   0  0  0  0  0  0  0  0  0  0  0  0
   21.9077   -0.7012    7.7341 H   0  0  0  0  0  0  0  0  0  0  0  0
   21.6543   -3.0427    7.3978 H   0  0  0  0  0  0  0  0  0  0  0  0
   21.0530   -2.5175    9.0069 H   0  0  0  0  0  0  0  0  0  0  0  0
   20.0662   -5.9179   10.8287 H   0  0  0  0  0  0  0  0  0  0  0  0
   24.3245   -8.3345   11.2124 H   0  0  0  0  0  0  0  0  0  0  0  0
   22.4031   -9.0119   12.6090 H   0  0  0  0  0  0  0  0  0  0  0  0
   20.1348   -7.7158   13.6827 H   0  0  0  0  0  0  0  0  0  0  0  0
   19.8013   -9.0572   12.5356 H   0  0  0  0  0  0  0  0  0  0  0  0
   18.8708   -9.7511   11.3149 H   0  0  0  0  0  0  0  0  0  0  0  0
   17.2034  -10.9502    9.9317 H   0  0  0  0  0  0  0  0  0  0  0  0
   15.0762   -9.8420    9.3266 H   0  0  0  0  0  0  0  0  0  0  0  0
   14.6178   -7.5313   10.0923 H   0  0  0  0  0  0  0  0  0  0  0  0
   17.1505   -4.5244   12.6966 H   0  0  0  0  0  0  0  0  0  0  0  0
  1  2  1  0  0  0  0
  1  7  1  0  0  0  0
  1 29  1  0  0  0  0
  1 30  1  0  0  0  0
  2  3  1  0  0  0  0
  2 31  1  0  0  0  0
  2 32  1  0  0  0  0
  3  4  1  0  0  0  0
  3 33  1  0  0  0  0
  3 34  1  0  0  0  0
  4  5  1  0  0  0  0
  4 35  1  0  0  0  0
  4 36  1  0  0  0  0
  5  6  1  0  0  0  0
  5 37  1  0  0  0  0
  5 38  1  0  0  0  0
  6  7  1  0  0  0  0
  6 39  1  0  0  0  0
  6 40  1  0  0  0  0
  7  8  1  0  0  0  0
  8  9  2  0  0  0  0
  8 10  1  0  0  0  0
 10 11  2  0  0  0  0
 10 12  1  0  0  0  0
 11 16  1  0  0  0  0
 11 41  1  0  0  0  0
 12 13  1  0  0  0  0
 12 14  2  0  0  0  0
 14 15  1  0  0  0  0
 14 42  1  0  0  0  0
 15 16  2  0  0  0  0
 15 43  1  0  0  0  0
 16 17  1  0  0  0  0
 17 18  1  0  0  0  0
 17 44  1  0  0  0  0
 17 45  1  0  0  0  0
 18 19  1  0  0  0  0
 18 28  2  0  0  0  0
 19 20  2  0  0  0  0
 19 24  1  0  0  0  0
 20 21  1  0  0  0  0
 20 46  1  0  0  0  0
 21 22  2  0  0  0  0
 21 47  1  0  0  0  0
 22 23  1  0  0  0  0
 22 48  1  0  0  0  0
 23 24  2  0  0  0  0
 23 49  1  0  0  0  0
 24 25  1  0  0  0  0
 25 26  2  0  0  0  0
 25 27  1  0  0  0  0
 27 28  1  0  0  0  0
 27 50  1  0  0  0  0
M  CHG  1   4   1
M  END
