3c4c_ligand
 OpenBabel08222323343D

 41 43  0  0  0  0  0  0  0  0999 V2000
   -4.9300   -2.6560  -21.3920 O   0  0  0  0  0  0  0  0  0  0  0  0
   -4.4630   -3.4370  -20.2600 S   0  0  0  0  0  0  0  0  0  0  0  0
   -5.2050   -4.6600  -20.3320 O   0  0  0  0  0  0  0  0  0  0  0  0
   -4.7770   -2.7140  -18.7850 C   0  0  0  0  0  0  0  0  0  0  0  0
   -5.1750   -3.6900  -17.6690 C   0  0  0  0  0  0  0  0  0  0  0  0
   -5.0620   -3.0160  -16.3040 C   0  0  0  0  0  0  0  0  0  0  0  0
   -2.8560   -3.5970  -20.2590 N   0  0  0  0  0  0  0  0  0  0  0  0
   -2.0110   -2.5600  -20.4210 C   0  0  0  0  0  0  0  0  0  0  0  0
   -0.5660   -2.8310  -20.5270 C   0  0  0  0  0  0  0  0  0  0  0  0
    0.0170   -4.0260  -20.4260 F   0  0  0  0  0  0  0  0  0  0  0  0
   -2.4240   -1.2300  -20.5410 C   0  0  0  0  0  0  0  0  0  0  0  0
   -1.5490   -0.1610  -20.7450 C   0  0  0  0  0  0  0  0  0  0  0  0
   -0.1950   -0.3640  -20.8320 C   0  0  0  0  0  0  0  0  0  0  0  0
    0.6350    0.6460  -21.0170 F   0  0  0  0  0  0  0  0  0  0  0  0
    0.3280   -1.7210  -20.7330 C   0  0  0  0  0  0  0  0  0  0  0  0
    1.7420   -2.0930  -20.7980 C   0  0  0  0  0  0  0  0  0  0  0  0
    2.0980   -2.7490  -21.7650 O   0  0  0  0  0  0  0  0  0  0  0  0
    2.5320   -1.7250  -19.6050 C   0  0  0  0  0  0  0  0  0  0  0  0
    2.0430   -1.3310  -18.3430 C   0  0  0  0  0  0  0  0  0  0  0  0
    4.0200   -1.7500  -19.5440 C   0  0  0  0  0  0  0  0  0  0  0  0
    5.0870   -2.0390  -20.3770 C   0  0  0  0  0  0  0  0  0  0  0  0
    4.2550   -1.3470  -18.1930 C   0  0  0  0  0  0  0  0  0  0  0  0
    3.0940   -1.0930  -17.5030 N   0  0  0  0  0  0  0  0  0  0  0  0
    5.5020   -1.2280  -17.7240 N   0  0  0  0  0  0  0  0  0  0  0  0
    6.5440   -1.5020  -18.5040 C   0  0  0  0  0  0  0  0  0  0  0  0
    6.3880   -1.9110  -19.8260 C   0  0  0  0  0  0  0  0  0  0  0  0
    7.8480   -2.2160  -20.7020 Cl  0  0  0  0  0  0  0  0  0  0  0  0
   -5.5988   -1.9959  -18.9225 H   0  0  0  0  0  0  0  0  0  0  0  0
   -3.8712   -2.1779  -18.4655 H   0  0  0  0  0  0  0  0  0  0  0  0
   -4.5077   -4.5640  -17.6975 H   0  0  0  0  0  0  0  0  0  0  0  0
   -6.2136   -4.0162  -17.8267 H   0  0  0  0  0  0  0  0  0  0  0  0
   -5.3506   -3.7293  -15.5179 H   0  0  0  0  0  0  0  0  0  0  0  0
   -5.7299   -2.1427  -16.2698 H   0  0  0  0  0  0  0  0  0  0  0  0
   -4.0241   -2.6905  -16.1406 H   0  0  0  0  0  0  0  0  0  0  0  0
   -2.4691   -4.5103  -20.1319 H   0  0  0  0  0  0  0  0  0  0  0  0
   -3.4844   -1.0161  -20.4717 H   0  0  0  0  0  0  0  0  0  0  0  0
   -1.9454    0.8438  -20.8359 H   0  0  0  0  0  0  0  0  0  0  0  0
    0.9912   -1.2318  -18.0787 H   0  0  0  0  0  0  0  0  0  0  0  0
    4.9353   -2.3493  -21.4045 H   0  0  0  0  0  0  0  0  0  0  0  0
    3.0278   -0.7784  -16.5244 H   0  0  0  0  0  0  0  0  0  0  0  0
    7.5445   -1.4040  -18.0985 H   0  0  0  0  0  0  0  0  0  0  0  0
  1  2  2  0  0  0  0
  2  3  2  0  0  0  0
  2  4  1  0  0  0  0
  2  7  1  0  0  0  0
  4  5  1  0  0  0  0
  4 28  1  0  0  0  0
  4 29  1  0  0  0  0
  5  6  1  0  0  0  0
  5 30  1  0  0  0  0
  5 31  1  0  0  0  0
  6 32  1  0  0  0  0
  6 33  1  0  0  0  0
  6 34  1  0  0  0  0
  7  8  1  0  0  0  0
  7 35  1  0  0  0  0
  8  9  2  0  0  0  0
  8 11  1  0  0  0  0
  9 10  1  0  0  0  0
  9 15  1  0  0  0  0
 11 12  2  0  0  0  0
 11 36  1  0  0  0  0
 12 13  1  0  0  0  0
 12 37  1  0  0  0  0
 13 14  1  0  0  0  0
 13 15  2  0  0  0  0
 15 16  1  0  0  0  0
 16 17  2  0  0  0  0
 16 18  1  0  0  0  0
 18 19  2  0  0  0  0
 18 20  1  0  0  0  0
 19 23  1  0  0  0  0
 19 38  1  0  0  0  0
 20 21  2  0  0  0  0
 20 22  1  0  0  0  0
 21 26  1  0  0  0  0
 21 39  1  0  0  0  0
 22 23  1  0  0  0  0
 22 24  2  0  0  0  0
 23 40  1  0  0  0  0
 24 25  1  0  0  0  0
 25 26  2  0  0  0  0
 25 41  1  0  0  0  0
 26 27  1  0  0  0  0
M  END
