3c6w_ligand
 OpenBabel08222323343D

124123  0  0  1  0  0  0  0  0999 V2000
    2.5820   16.3080   19.6870 N   0  3  0  0  0  0  0  0  0  0  0  0
    2.2330   16.3120   18.2370 C   0  0  2  0  0  0  0  0  0  0  0  0
    1.9280   17.7290   17.7660 C   0  0  0  0  0  0  0  0  0  0  0  0
    1.5080   18.5760   18.5540 O   0  0  0  0  0  0  0  0  0  0  0  0
    1.0280   15.4100   17.9930 C   0  0  0  0  0  0  0  0  0  0  0  0
    2.1420   17.9810   16.4780 N   0  0  0  0  0  0  0  0  0  0  0  0
    1.8840   19.3000   15.9000 C   0  0  2  0  0  0  0  0  0  0  0  0
    0.4650   19.3200   15.3470 C   0  0  0  0  0  0  0  0  0  0  0  0
    0.0730   18.4380   14.5790 O   0  0  0  0  0  0  0  0  0  0  0  0
    2.8770   19.5890   14.7760 C   0  0  0  0  0  0  0  0  0  0  0  0
    4.3220   19.6580   15.2370 C   0  0  0  0  0  0  0  0  0  0  0  0
    5.2740   19.7300   14.0570 C   0  0  0  0  0  0  0  0  0  0  0  0
    5.1530   18.5500   13.2070 N   0  0  0  0  0  0  0  0  0  0  0  0
    4.5600   18.5370   12.0180 C   0  0  0  0  0  3  0  0  0  0  0  0
    4.0310   19.6470   11.5170 N   0  0  0  0  0  0  0  0  0  0  0  0
    4.4830   17.4060   11.3320 N   0  0  0  0  0  0  0  0  0  0  0  0
   -0.3020   20.3340   15.7290 N   0  0  0  0  0  0  0  0  0  0  0  0
   -1.6800   20.4480   15.2620 C   0  0  2  0  0  0  0  0  0  0  0  0
   -1.9540   21.8940   14.8810 C   0  0  0  0  0  0  0  0  0  0  0  0
   -1.1960   22.7970   15.2300 O   0  0  0  0  0  0  0  0  0  0  0  0
   -2.6780   20.0430   16.3600 C   0  0  2  0  0  0  0  0  0  0  0  0
   -2.5720   20.9560   17.4600 O   0  0  0  0  0  0  0  0  0  0  0  0
   -2.3830   18.6350   16.8530 C   0  0  0  0  0  0  0  0  0  0  0  0
   -3.0450   22.1070   14.1580 N   0  0  0  0  0  0  0  0  0  0  0  0
   -3.4220   23.4520   13.7470 C   0  0  1  0  0  0  0  0  0  0  0  0
   -2.7550   23.8600   12.4300 C   0  0  0  0  0  0  0  0  0  0  0  0
   -3.2860   23.0910   11.2170 C   0  0  0  0  0  0  0  0  0  0  0  0
   -2.6330   23.4890    9.8940 C   0  0  0  0  0  0  0  0  0  0  0  0
   -3.0080   22.5240    8.7620 C   0  0  0  0  0  0  0  0  0  0  0  0
   -2.9360   23.1280    7.3640 N   0  3  0  0  0  0  0  0  0  0  0  0
   -4.9350   23.5110   13.6100 C   0  0  0  0  0  0  0  0  0  0  0  0
   -5.5850   22.5050   13.3220 O   0  0  0  0  0  0  0  0  0  0  0  0
   -1.5290   23.4850    7.0110 C   0  0  0  0  0  0  0  0  0  0  0  0
   -3.6960   24.3950    7.1130 C   0  0  0  0  0  0  0  0  0  0  0  0
   -3.4110   22.1230    6.3700 C   0  0  0  0  0  0  0  0  0  0  0  0
   -5.4890   24.6950   13.8390 N   0  0  0  0  0  0  0  0  0  0  0  0
   -6.9250   24.9050   13.7220 C   0  0  2  0  0  0  0  0  0  0  0  0
   -7.1560   25.5720   12.3710 C   0  0  0  0  0  0  0  0  0  0  0  0
   -6.5670   26.6110   12.0800 O   0  0  0  0  0  0  0  0  0  0  0  0
   -7.4220   25.8110   14.8510 C   0  0  0  0  0  0  0  0  0  0  0  0
   -8.9270   26.0240   14.8630 C   0  0  0  0  0  0  0  0  0  0  0  0
   -9.6980   24.7270   15.0250 C   0  0  0  0  0  0  0  0  0  0  0  0
   -9.4880   23.9840   15.9840 O   0  0  0  0  0  0  0  0  0  0  0  0
  -10.5990   24.4520   14.0870 N   0  0  0  0  0  0  0  0  0  0  0  0
   -8.0020   24.9660   11.5470 N   0  0  0  0  0  0  0  0  0  0  0  0
   -8.2930   25.5080   10.2210 C   0  0  2  0  0  0  0  0  0  0  0  0
   -8.8720   26.9140   10.3780 C   0  0  0  0  0  0  0  0  0  0  0  0
   -9.8390   27.1170   11.1100 O   0  0  0  0  0  0  0  0  0  0  0  0
   -9.3090   24.6270    9.4730 C   0  0  2  0  0  0  0  0  0  0  0  0
   -8.7950   23.2930    9.3660 O   0  0  0  0  0  0  0  0  0  0  0  0
   -9.5650   25.1790    8.0760 C   0  0  0  0  0  0  0  0  0  0  0  0
   -8.2730   27.8770    9.6850 N   0  0  0  0  0  0  0  0  0  0  0  0
   -8.7300   29.2670    9.7520 C   0  0  2  0  0  0  0  0  0  0  0  0
   -9.7130   29.5200    8.6070 C   0  0  0  0  0  0  0  0  0  0  0  0
   -9.8470   28.6340    7.7360 O   0  0  0  0  0  0  0  0  0  0  0  0
   -7.5420   30.2140    9.6430 C   0  0  0  0  0  0  0  0  0  0  0  0
  -10.4064   30.6530    8.5405 O   0  0  0  0  0  0  0  0  0  0  0  0
    2.7806   15.3649   19.9822 H   0  0  0  0  0  0  0  0  0  0  0  0
    1.8072   16.6708   20.2201 H   0  0  0  0  0  0  0  0  0  0  0  0
    3.3941   16.8856   19.8388 H   0  0  0  0  0  0  0  0  0  0  0  0
    3.0892   15.9253   17.6649 H   0  0  0  0  0  0  0  0  0  0  0  0
    0.7755   15.4171   16.9224 H   0  0  0  0  0  0  0  0  0  0  0  0
    0.1702   15.7788   18.5744 H   0  0  0  0  0  0  0  0  0  0  0  0
    1.2690   14.3834   18.3061 H   0  0  0  0  0  0  0  0  0  0  0  0
    2.4881   17.2503   15.8895 H   0  0  0  0  0  0  0  0  0  0  0  0
    1.9863   20.0683   16.6806 H   0  0  0  0  0  0  0  0  0  0  0  0
    2.6124   20.5540   14.3192 H   0  0  0  0  0  0  0  0  0  0  0  0
    2.7909   18.7912   14.0236 H   0  0  0  0  0  0  0  0  0  0  0  0
    4.5526   18.7602   15.8292 H   0  0  0  0  0  0  0  0  0  0  0  0
    4.4567   20.5536   15.8613 H   0  0  0  0  0  0  0  0  0  0  0  0
    6.3058   19.7972   14.4323 H   0  0  0  0  0  0  0  0  0  0  0  0
    5.0410   20.6256   13.4624 H   0  0  0  0  0  0  0  0  0  0  0  0
    5.5548   17.6667   13.5524 H   0  0  0  0  0  0  0  0  0  0  0  0
    3.5731   19.6285   10.5946 H   0  0  0  0  0  0  0  0  0  0  0  0
    4.0786   20.5266   12.0508 H   0  0  0  0  0  0  0  0  0  0  0  0
    4.8916   16.5420   11.7159 H   0  0  0  0  0  0  0  0  0  0  0  0
    4.0145   17.3908   10.4148 H   0  0  0  0  0  0  0  0  0  0  0  0
    0.0693   21.0289   16.3449 H   0  0  0  0  0  0  0  0  0  0  0  0
   -1.8196   19.7984   14.3853 H   0  0  0  0  0  0  0  0  0  0  0  0
   -3.6988   20.0779   15.9516 H   0  0  0  0  0  0  0  0  0  0  0  0
   -3.1884   20.7059   18.1382 H   0  0  0  0  0  0  0  0  0  0  0  0
   -3.1051   18.3621   17.6367 H   0  0  0  0  0  0  0  0  0  0  0  0
   -1.3635   18.5966   17.2644 H   0  0  0  0  0  0  0  0  0  0  0  0
   -2.4671   17.9278   16.0147 H   0  0  0  0  0  0  0  0  0  0  0  0
   -3.6177   21.3319   13.8909 H   0  0  0  0  0  0  0  0  0  0  0  0
   -3.1056   24.1593   14.5278 H   0  0  0  0  0  0  0  0  0  0  0  0
   -1.6740   23.6750   12.5144 H   0  0  0  0  0  0  0  0  0  0  0  0
   -2.9318   24.9334   12.2672 H   0  0  0  0  0  0  0  0  0  0  0  0
   -4.3677   23.2743   11.1377 H   0  0  0  0  0  0  0  0  0  0  0  0
   -3.1070   22.0183   11.3821 H   0  0  0  0  0  0  0  0  0  0  0  0
   -1.5403   23.4829   10.0200 H   0  0  0  0  0  0  0  0  0  0  0  0
   -2.9653   24.5020    9.6232 H   0  0  0  0  0  0  0  0  0  0  0  0
   -4.0378   22.1774    8.9335 H   0  0  0  0  0  0  0  0  0  0  0  0
   -2.3210   21.6658    8.8008 H   0  0  0  0  0  0  0  0  0  0  0  0
   -1.5032   23.9179    6.0001 H   0  0  0  0  0  0  0  0  0  0  0  0
   -0.9033   22.5807    7.0387 H   0  0  0  0  0  0  0  0  0  0  0  0
   -1.1445   24.2193    7.7342 H   0  0  0  0  0  0  0  0  0  0  0  0
   -4.7594   24.2370    7.3460 H   0  0  0  0  0  0  0  0  0  0  0  0
   -3.5909   24.6824    6.0564 H   0  0  0  0  0  0  0  0  0  0  0  0
   -3.2956   25.1956    7.7524 H   0  0  0  0  0  0  0  0  0  0  0  0
   -2.8745   21.1749    6.5222 H   0  0  0  0  0  0  0  0  0  0  0  0
   -3.2183   22.4941    5.3526 H   0  0  0  0  0  0  0  0  0  0  0  0
   -4.4906   21.9586    6.5020 H   0  0  0  0  0  0  0  0  0  0  0  0
   -4.9045   25.4636   14.0989 H   0  0  0  0  0  0  0  0  0  0  0  0
   -7.4544   23.9418   13.7655 H   0  0  0  0  0  0  0  0  0  0  0  0
   -6.9358   26.7920   14.7453 H   0  0  0  0  0  0  0  0  0  0  0  0
   -7.1301   25.3585   15.8102 H   0  0  0  0  0  0  0  0  0  0  0  0
   -9.2240   26.4943   13.9140 H   0  0  0  0  0  0  0  0  0  0  0  0
   -9.1817   26.6921   15.6989 H   0  0  0  0  0  0  0  0  0  0  0  0
  -11.1371   23.6109   14.1418 H   0  0  0  0  0  0  0  0  0  0  0  0
  -10.7387   25.0862   13.3266 H   0  0  0  0  0  0  0  0  0  0  0  0
   -8.4496   24.1210   11.8395 H   0  0  0  0  0  0  0  0  0  0  0  0
   -7.3611   25.5565    9.6386 H   0  0  0  0  0  0  0  0  0  0  0  0
  -10.2548   24.6104   10.0344 H   0  0  0  0  0  0  0  0  0  0  0  0
   -8.6486   22.9405   10.2359 H   0  0  0  0  0  0  0  0  0  0  0  0
  -10.2924   24.5382    7.5562 H   0  0  0  0  0  0  0  0  0  0  0  0
   -8.6219   25.1967    7.5102 H   0  0  0  0  0  0  0  0  0  0  0  0
   -9.9656   26.2005    8.1531 H   0  0  0  0  0  0  0  0  0  0  0  0
   -7.4920   27.6472    9.1042 H   0  0  0  0  0  0  0  0  0  0  0  0
   -9.2384   29.4373   10.7124 H   0  0  0  0  0  0  0  0  0  0  0  0
   -7.8963   31.2541    9.6944 H   0  0  0  0  0  0  0  0  0  0  0  0
   -7.0280   30.0487    8.6846 H   0  0  0  0  0  0  0  0  0  0  0  0
   -6.8438   30.0232   10.4713 H   0  0  0  0  0  0  0  0  0  0  0  0
  -11.3355   30.4562    8.5643 H   0  0  0  0  0  0  0  0  0  0  0  0
  1  2  1  0  0  0  0
  1 58  1  0  0  0  0
  1 59  1  0  0  0  0
  1 60  1  0  0  0  0
  2  3  1  0  0  0  0
  2  5  1  0  0  0  0
  2 61  1  6  0  0  0
  3  4  2  0  0  0  0
  3  6  1  0  0  0  0
  5 62  1  0  0  0  0
  5 63  1  0  0  0  0
  5 64  1  0  0  0  0
  6  7  1  0  0  0  0
  6 65  1  0  0  0  0
  7  8  1  0  0  0  0
  7 10  1  0  0  0  0
  7 66  1  1  0  0  0
  8  9  2  0  0  0  0
  8 17  1  0  0  0  0
 10 11  1  0  0  0  0
 10 67  1  0  0  0  0
 10 68  1  0  0  0  0
 11 12  1  0  0  0  0
 11 69  1  0  0  0  0
 11 70  1  0  0  0  0
 12 13  1  0  0  0  0
 12 71  1  0  0  0  0
 12 72  1  0  0  0  0
 13 14  1  0  0  0  0
 13 73  1  0  0  0  0
 14 15  1  0  0  0  0
 14 16  1  0  0  0  0
 15 74  1  0  0  0  0
 15 75  1  0  0  0  0
 16 76  1  0  0  0  0
 16 77  1  0  0  0  0
 17 18  1  0  0  0  0
 17 78  1  0  0  0  0
 18 19  1  0  0  0  0
 18 21  1  0  0  0  0
 18 79  1  6  0  0  0
 19 20  2  0  0  0  0
 19 24  1  0  0  0  0
 21 22  1  0  0  0  0
 21 23  1  0  0  0  0
 21 80  1  6  0  0  0
 22 81  1  0  0  0  0
 23 82  1  0  0  0  0
 23 83  1  0  0  0  0
 23 84  1  0  0  0  0
 24 25  1  0  0  0  0
 24 85  1  0  0  0  0
 25 26  1  0  0  0  0
 25 31  1  0  0  0  0
 25 86  1  1  0  0  0
 26 27  1  0  0  0  0
 26 87  1  0  0  0  0
 26 88  1  0  0  0  0
 27 28  1  0  0  0  0
 27 89  1  0  0  0  0
 27 90  1  0  0  0  0
 28 29  1  0  0  0  0
 28 91  1  0  0  0  0
 28 92  1  0  0  0  0
 29 30  1  0  0  0  0
 29 93  1  0  0  0  0
 29 94  1  0  0  0  0
 30 33  1  0  0  0  0
 30 34  1  0  0  0  0
 30 35  1  0  0  0  0
 31 32  2  0  0  0  0
 31 36  1  0  0  0  0
 33 95  1  0  0  0  0
 33 96  1  0  0  0  0
 33 97  1  0  0  0  0
 34 98  1  0  0  0  0
 34 99  1  0  0  0  0
 34100  1  0  0  0  0
 35101  1  0  0  0  0
 35102  1  0  0  0  0
 35103  1  0  0  0  0
 36 37  1  0  0  0  0
 36104  1  0  0  0  0
 37 38  1  0  0  0  0
 37 40  1  0  0  0  0
 37105  1  1  0  0  0
 38 39  2  0  0  0  0
 38 45  1  0  0  0  0
 40 41  1  0  0  0  0
 40106  1  0  0  0  0
 40107  1  0  0  0  0
 41 42  1  0  0  0  0
 41108  1  0  0  0  0
 41109  1  0  0  0  0
 42 43  2  0  0  0  0
 42 44  1  0  0  0  0
 44110  1  0  0  0  0
 44111  1  0  0  0  0
 45 46  1  0  0  0  0
 45112  1  0  0  0  0
 46 47  1  0  0  0  0
 46 49  1  0  0  0  0
 46113  1  6  0  0  0
 47 48  2  0  0  0  0
 47 52  1  0  0  0  0
 49 50  1  0  0  0  0
 49 51  1  0  0  0  0
 49114  1  1  0  0  0
 50115  1  0  0  0  0
 51116  1  0  0  0  0
 51117  1  0  0  0  0
 51118  1  0  0  0  0
 52 53  1  0  0  0  0
 52119  1  0  0  0  0
 53 54  1  0  0  0  0
 53 56  1  0  0  0  0
 53120  1  1  0  0  0
 54 55  2  0  0  0  0
 54 57  1  0  0  0  0
 56121  1  0  0  0  0
 56122  1  0  0  0  0
 56123  1  0  0  0  0
 57124  1  0  0  0  0
M  CHG  2   1   1  30   1
M  END
