3c72_ligand
 OpenBabel08222323343D

 79 82  0  0  1  0  0  0  0  0999 V2000
    3.1100   17.9730   26.8420 C   0  0  0  0  0  0  0  0  0  0  0  0
    2.8190   19.3390   26.8940 C   0  0  0  0  0  0  0  0  0  0  0  0
    3.8100   20.2650   27.2650 C   0  0  0  0  0  0  0  0  0  0  0  0
    3.5240   21.6140   27.3110 O   0  0  0  0  0  0  0  0  0  0  0  0
    5.0950   19.7970   27.5830 C   0  0  0  0  0  0  0  0  0  0  0  0
    5.3970   18.4310   27.5250 C   0  0  0  0  0  0  0  0  0  0  0  0
    4.4060   17.5150   27.1490 C   0  0  0  0  0  0  0  0  0  0  0  0
    4.7200   16.0010   27.0960 C   0  0  0  0  0  0  0  0  0  0  0  0
    5.4270   15.4910   25.8180 C   0  0  1  0  0  0  0  0  0  0  0  0
    4.7480   14.2180   25.2680 C   0  0  0  0  0  0  0  0  0  0  0  0
    5.2080   13.1200   25.6720 O   0  5  0  0  0  0  0  0  0  0  0  0
    3.8130   14.3520   24.4460 O   0  0  0  0  0  0  0  0  0  0  0  0
    5.5310   16.4980   24.7270 N   0  0  0  0  0  0  0  0  0  0  0  0
    6.7100   16.8380   24.1980 C   0  0  0  0  0  0  0  0  0  0  0  0
    7.7750   16.3640   24.5710 O   0  0  0  0  0  0  0  0  0  0  0  0
    6.6570   17.8680   23.0630 C   0  0  2  0  0  0  0  0  0  0  0  0
    7.4500   17.3630   21.8040 C   0  0  0  0  0  0  0  0  0  0  0  0
    7.6530   18.4600   20.6990 C   0  0  0  0  0  0  0  0  0  0  0  0
    8.7750   18.4430   19.8690 C   0  0  0  0  0  0  0  0  0  0  0  0
    8.9660   19.4240   18.9220 C   0  0  0  0  0  0  0  0  0  0  0  0
    8.0360   20.4230   18.7450 C   0  0  0  0  0  0  0  0  0  0  0  0
    6.9050   20.4480   19.5450 C   0  0  0  0  0  0  0  0  0  0  0  0
    6.7200   19.4800   20.5220 C   0  0  0  0  0  0  0  0  0  0  0  0
    7.1400   19.2050   23.5110 N   0  0  0  0  0  0  0  0  0  0  0  0
    8.5700   19.5570   23.6260 C   0  0  0  0  0  0  0  0  0  0  0  0
    6.2510   20.1760   23.7850 C   0  0  0  0  0  0  0  0  0  0  0  0
    5.0390   20.0130   23.7410 O   0  0  0  0  0  0  0  0  0  0  0  0
    6.8240   21.5370   24.2150 C   0  0  2  0  0  0  0  0  0  0  0  0
    5.9950   22.1680   25.3860 C   0  0  0  0  0  0  0  0  0  0  0  0
    6.6080   23.4940   25.9100 C   0  0  0  0  0  0  0  0  0  0  0  0
    7.1010   23.7060   27.1420 C   0  0  0  0  0  0  0  0  0  0  0  0
    7.5510   24.9640   27.2300 N   0  0  0  0  0  0  0  0  0  0  0  0
    7.3110   25.5280   26.0560 C   0  0  0  0  0  0  0  0  0  0  0  0
    6.7420   24.6360   25.2430 N   0  0  0  0  0  0  0  0  0  0  0  0
    6.8890   22.5230   23.1090 N   0  0  0  0  0  0  0  0  0  0  0  0
    8.0570   23.0070   22.6710 C   0  0  0  0  0  0  0  0  0  0  0  0
    9.1460   22.6510   23.1480 O   0  0  0  0  0  0  0  0  0  0  0  0
    8.0540   23.9960   21.7070 O   0  0  0  0  0  0  0  0  0  0  0  0
    7.9920   23.7810   20.2980 C   0  0  0  0  0  0  0  0  0  0  0  0
    7.2730   24.7440   19.6220 C   0  0  0  0  0  0  0  0  0  0  0  0
    7.3400   26.0700   20.0690 C   0  0  0  0  0  0  0  0  0  0  0  0
    6.6040   27.0590   19.4350 C   0  0  0  0  0  0  0  0  0  0  0  0
    5.7960   26.7190   18.3500 C   0  0  0  0  0  0  0  0  0  0  0  0
    5.7210   25.3900   17.9250 C   0  0  0  0  0  0  0  0  0  0  0  0
    6.4510   24.3890   18.5660 C   0  0  0  0  0  0  0  0  0  0  0  0
    2.3372   17.2651   26.5650 H   0  0  0  0  0  0  0  0  0  0  0  0
    1.8226   19.6870   26.6467 H   0  0  0  0  0  0  0  0  0  0  0  0
    4.3002   22.0922   27.5782 H   0  0  0  0  0  0  0  0  0  0  0  0
    5.8635   20.5026   27.8773 H   0  0  0  0  0  0  0  0  0  0  0  0
    6.3941   18.0835   27.7702 H   0  0  0  0  0  0  0  0  0  0  0  0
    3.7682   15.4579   27.1916 H   0  0  0  0  0  0  0  0  0  0  0  0
    5.3659   15.7626   27.9539 H   0  0  0  0  0  0  0  0  0  0  0  0
    6.4531   15.2236   26.1104 H   0  0  0  0  0  0  0  0  0  0  0  0
    4.6983   16.9307   24.3815 H   0  0  0  0  0  0  0  0  0  0  0  0
    5.6034   17.9806   22.7677 H   0  0  0  0  0  0  0  0  0  0  0  0
    6.8966   16.5224   21.3601 H   0  0  0  0  0  0  0  0  0  0  0  0
    8.4404   17.0165   22.1343 H   0  0  0  0  0  0  0  0  0  0  0  0
    9.5047   17.6479   19.9712 H   0  0  0  0  0  0  0  0  0  0  0  0
    9.8596   19.4094   18.3085 H   0  0  0  0  0  0  0  0  0  0  0  0
    8.1869   21.1830   17.9869 H   0  0  0  0  0  0  0  0  0  0  0  0
    6.1626   21.2258   19.4073 H   0  0  0  0  0  0  0  0  0  0  0  0
    5.8403   19.5176   21.1543 H   0  0  0  0  0  0  0  0  0  0  0  0
    8.6649   20.5959   23.9748 H   0  0  0  0  0  0  0  0  0  0  0  0
    9.0530   19.4546   22.6431 H   0  0  0  0  0  0  0  0  0  0  0  0
    9.0569   18.8827   24.3459 H   0  0  0  0  0  0  0  0  0  0  0  0
    7.8491   21.3616   24.5732 H   0  0  0  0  0  0  0  0  0  0  0  0
    5.9544   21.4474   26.2161 H   0  0  0  0  0  0  0  0  0  0  0  0
    4.9755   22.3703   25.0258 H   0  0  0  0  0  0  0  0  0  0  0  0
    7.1300   22.9696   27.9437 H   0  0  0  0  0  0  0  0  0  0  0  0
    7.9953   25.4052   28.0478 H   0  0  0  0  0  0  0  0  0  0  0  0
    7.5422   26.5596   25.7947 H   0  0  0  0  0  0  0  0  0  0  0  0
    6.0403   22.8333   22.6807 H   0  0  0  0  0  0  0  0  0  0  0  0
    7.5206   22.8040   20.1161 H   0  0  0  0  0  0  0  0  0  0  0  0
    9.0184   23.7723   19.9024 H   0  0  0  0  0  0  0  0  0  0  0  0
    7.9699   26.3237   20.9140 H   0  0  0  0  0  0  0  0  0  0  0  0
    6.6559   28.0857   19.7788 H   0  0  0  0  0  0  0  0  0  0  0  0
    5.2265   27.4854   17.8368 H   0  0  0  0  0  0  0  0  0  0  0  0
    5.0861   25.1331   17.0848 H   0  0  0  0  0  0  0  0  0  0  0  0
    6.3764   23.3564   18.2446 H   0  0  0  0  0  0  0  0  0  0  0  0
  1  2  2  0  0  0  0
  1  7  1  0  0  0  0
  1 46  1  0  0  0  0
  2  3  1  0  0  0  0
  2 47  1  0  0  0  0
  3  4  1  0  0  0  0
  3  5  2  0  0  0  0
  4 48  1  0  0  0  0
  5  6  1  0  0  0  0
  5 49  1  0  0  0  0
  6  7  2  0  0  0  0
  6 50  1  0  0  0  0
  7  8  1  0  0  0  0
  8  9  1  0  0  0  0
  8 51  1  0  0  0  0
  8 52  1  0  0  0  0
  9 10  1  0  0  0  0
  9 13  1  0  0  0  0
  9 53  1  1  0  0  0
 10 11  1  0  0  0  0
 10 12  2  0  0  0  0
 13 14  1  0  0  0  0
 13 54  1  0  0  0  0
 14 15  2  0  0  0  0
 14 16  1  0  0  0  0
 16 17  1  0  0  0  0
 16 24  1  0  0  0  0
 16 55  1  6  0  0  0
 17 18  1  0  0  0  0
 17 56  1  0  0  0  0
 17 57  1  0  0  0  0
 18 19  2  0  0  0  0
 18 23  1  0  0  0  0
 19 20  1  0  0  0  0
 19 58  1  0  0  0  0
 20 21  2  0  0  0  0
 20 59  1  0  0  0  0
 21 22  1  0  0  0  0
 21 60  1  0  0  0  0
 22 23  2  0  0  0  0
 22 61  1  0  0  0  0
 23 62  1  0  0  0  0
 24 25  1  0  0  0  0
 24 26  1  0  0  0  0
 25 63  1  0  0  0  0
 25 64  1  0  0  0  0
 25 65  1  0  0  0  0
 26 27  2  0  0  0  0
 26 28  1  0  0  0  0
 28 29  1  0  0  0  0
 28 35  1  0  0  0  0
 28 66  1  1  0  0  0
 29 30  1  0  0  0  0
 29 67  1  0  0  0  0
 29 68  1  0  0  0  0
 30 31  2  0  0  0  0
 30 34  1  0  0  0  0
 31 32  1  0  0  0  0
 31 69  1  0  0  0  0
 32 33  1  0  0  0  0
 32 70  1  0  0  0  0
 33 34  2  0  0  0  0
 33 71  1  0  0  0  0
 35 36  1  0  0  0  0
 35 72  1  0  0  0  0
 36 37  2  0  0  0  0
 36 38  1  0  0  0  0
 38 39  1  0  0  0  0
 39 40  1  0  0  0  0
 39 73  1  0  0  0  0
 39 74  1  0  0  0  0
 40 41  2  0  0  0  0
 40 45  1  0  0  0  0
 41 42  1  0  0  0  0
 41 75  1  0  0  0  0
 42 43  2  0  0  0  0
 42 76  1  0  0  0  0
 43 44  1  0  0  0  0
 43 77  1  0  0  0  0
 44 45  2  0  0  0  0
 44 78  1  0  0  0  0
 45 79  1  0  0  0  0
M  CHG  1  11  -1
M  END
