3c7p_ligand
 OpenBabel08222323343D

 60 64  0  0  1  0  0  0  0  0999 V2000
   -4.6800    1.4930   17.2800 O   0  0  0  0  0  0  0  0  0  0  0  0
   -4.9330    1.2870   14.8720 O   0  0  0  0  0  0  0  0  0  0  0  0
   -3.4500   12.4880   13.7150 O   0  0  0  0  0  0  0  0  0  0  0  0
   -6.9220    1.4180   16.2440 O   0  0  0  0  0  0  0  0  0  0  0  0
   -4.3760    2.5740   14.6350 C   0  0  0  0  0  0  0  0  0  0  0  0
   -5.1710    3.7340   14.5710 C   0  0  0  0  0  0  0  0  0  0  0  0
   -5.5760   -0.6130   16.4690 N   0  0  0  0  0  0  0  0  0  0  0  0
   -4.5510    4.9930   14.3370 C   0  0  0  0  0  0  0  0  0  0  0  0
   -3.1170    5.0780   14.1670 C   0  0  0  0  0  0  0  0  0  0  0  0
   -2.3670    3.8670   14.2420 C   0  0  0  0  0  0  0  0  0  0  0  0
   -5.5770    0.9490   16.3160 S   0  0  0  0  0  0  0  0  0  0  0  0
   -2.9870    2.6250   14.4740 C   0  0  0  0  0  0  0  0  0  0  0  0
   -5.4180    6.2340   14.2780 C   0  0  0  0  0  0  0  0  0  0  0  0
   -4.6140    7.5400   14.4800 C   0  0  0  0  0  0  0  0  0  0  0  0
   -3.4180    7.5800   13.5200 C   0  0  2  0  0  0  0  0  0  0  0  0
   -2.4140    6.4390   13.9220 C   0  0  2  0  0  0  0  0  0  0  0  0
   -2.6400    8.9410   13.5400 C   0  0  1  0  0  0  0  0  0  0  0  0
   -1.4390    8.9480   12.4970 C   0  0  1  0  0  0  0  0  0  0  0  0
   -0.5220    7.7130   12.7590 C   0  0  0  0  0  0  0  0  0  0  0  0
   -1.2910    6.3770   12.8570 C   0  0  0  0  0  0  0  0  0  0  0  0
   -1.9510    8.9040   11.0140 C   0  0  0  0  0  0  0  0  0  0  0  0
   -3.5490   10.1820   13.2730 C   0  0  0  0  0  0  0  0  0  0  0  0
   -2.8090   11.4950   13.3620 C   0  0  0  0  0  0  0  0  0  0  0  0
   -1.3750   11.5060   13.0330 N   0  0  0  0  0  0  0  0  0  0  0  0
   -0.6570   10.2720   12.6100 C   0  0  0  0  0  0  0  0  0  0  0  0
    0.5590   10.2800   12.3390 O   0  0  0  0  0  0  0  0  0  0  0  0
   -0.5980   12.8190   13.1270 C   0  0  0  0  0  0  0  0  0  0  0  0
   -0.1300   13.2150   14.4610 C   0  0  0  0  0  0  0  0  0  0  0  0
    0.7380   12.4350   15.2330 C   0  0  0  0  0  0  0  0  0  0  0  0
    1.1880   12.8690   16.5700 C   0  0  0  0  0  0  0  0  0  0  0  0
    0.7280   14.0810   17.0520 C   0  0  0  0  0  0  0  0  0  0  0  0
   -0.0900   14.8090   16.3170 N   0  0  0  0  0  0  0  0  0  0  0  0
   -0.5460   14.4300   15.0300 C   0  0  0  0  0  0  0  0  0  0  0  0
   -6.2455    3.6686   14.6988 H   0  0  0  0  0  0  0  0  0  0  0  0
   -5.9369   -1.0341   17.3011 H   0  0  0  0  0  0  0  0  0  0  0  0
   -5.2145   -1.1871   15.7343 H   0  0  0  0  0  0  0  0  0  0  0  0
   -1.2909    3.9043   14.1170 H   0  0  0  0  0  0  0  0  0  0  0  0
   -2.3953    1.7183   14.5273 H   0  0  0  0  0  0  0  0  0  0  0  0
   -6.1817    6.1665   15.0668 H   0  0  0  0  0  0  0  0  0  0  0  0
   -5.9090    6.2727   13.2945 H   0  0  0  0  0  0  0  0  0  0  0  0
   -4.2493    7.5855   15.5168 H   0  0  0  0  0  0  0  0  0  0  0  0
   -5.2671    8.4029   14.2828 H   0  0  0  0  0  0  0  0  0  0  0  0
   -3.7862    7.4031   12.4987 H   0  0  0  0  0  0  0  0  0  0  0  0
   -1.9477    6.7272   14.8756 H   0  0  0  0  0  0  0  0  0  0  0  0
   -2.2135    9.0530   14.5477 H   0  0  0  0  0  0  0  0  0  0  0  0
    0.0155    7.8742   13.7051 H   0  0  0  0  0  0  0  0  0  0  0  0
    0.2019    7.6370   11.9343 H   0  0  0  0  0  0  0  0  0  0  0  0
   -1.7398    6.1515   11.8784 H   0  0  0  0  0  0  0  0  0  0  0  0
   -0.5851    5.5786   13.1294 H   0  0  0  0  0  0  0  0  0  0  0  0
   -2.5983    9.7728   10.8237 H   0  0  0  0  0  0  0  0  0  0  0  0
   -2.5224    7.9783   10.8506 H   0  0  0  0  0  0  0  0  0  0  0  0
   -1.0913    8.9301   10.3283 H   0  0  0  0  0  0  0  0  0  0  0  0
   -4.3598   10.1872   14.0164 H   0  0  0  0  0  0  0  0  0  0  0  0
   -3.9772   10.0904   12.2639 H   0  0  0  0  0  0  0  0  0  0  0  0
   -1.2514   13.6204   12.7517 H   0  0  0  0  0  0  0  0  0  0  0  0
    0.2849   12.7310   12.4768 H   0  0  0  0  0  0  0  0  0  0  0  0
    1.0888   11.4880   14.8392 H   0  0  0  0  0  0  0  0  0  0  0  0
    1.8604   12.2548   17.1579 H   0  0  0  0  0  0  0  0  0  0  0  0
    1.0385   14.4311   18.0298 H   0  0  0  0  0  0  0  0  0  0  0  0
   -1.2185   15.0803   14.4824 H   0  0  0  0  0  0  0  0  0  0  0  0
  2 11  1  0  0  0  0
  5  2  1  0  0  0  0
  6  5  2  0  0  0  0
  6 34  1  0  0  0  0
  7 35  1  0  0  0  0
  7 36  1  0  0  0  0
  8  6  1  0  0  0  0
  9  8  2  0  0  0  0
  9 10  1  0  0  0  0
 10 12  2  0  0  0  0
 10 37  1  0  0  0  0
 11  1  2  0  0  0  0
 11  4  2  0  0  0  0
 11  7  1  0  0  0  0
 12  5  1  0  0  0  0
 12 38  1  0  0  0  0
 13  8  1  0  0  0  0
 13 39  1  0  0  0  0
 13 40  1  0  0  0  0
 14 13  1  0  0  0  0
 14 41  1  0  0  0  0
 14 42  1  0  0  0  0
 15 14  1  0  0  0  0
 15 16  1  0  0  0  0
 15 43  1  6  0  0  0
 16  9  1  0  0  0  0
 16 20  1  0  0  0  0
 16 44  1  1  0  0  0
 17 15  1  0  0  0  0
 17 18  1  0  0  0  0
 17 45  1  1  0  0  0
 18 19  1  0  0  0  0
 18 21  1  6  0  0  0
 18 25  1  0  0  0  0
 19 20  1  0  0  0  0
 19 46  1  0  0  0  0
 19 47  1  0  0  0  0
 20 48  1  0  0  0  0
 20 49  1  0  0  0  0
 21 50  1  0  0  0  0
 21 51  1  0  0  0  0
 21 52  1  0  0  0  0
 22 17  1  0  0  0  0
 22 23  1  0  0  0  0
 22 53  1  0  0  0  0
 22 54  1  0  0  0  0
 23  3  2  0  0  0  0
 23 24  1  0  0  0  0
 24 25  1  0  0  0  0
 24 27  1  0  0  0  0
 25 26  2  0  0  0  0
 27 28  1  0  0  0  0
 27 55  1  0  0  0  0
 27 56  1  0  0  0  0
 28 29  2  0  0  0  0
 28 33  1  0  0  0  0
 29 30  1  0  0  0  0
 29 57  1  0  0  0  0
 30 31  2  0  0  0  0
 30 58  1  0  0  0  0
 31 32  1  0  0  0  0
 31 59  1  0  0  0  0
 32 33  2  0  0  0  0
 33 60  1  0  0  0  0
M  END
