3c94_ligand
 OpenBabel08222323343D

 68 69  0  0  1  0  0  0  0  0999 V2000
   25.9030   21.7210    3.9890 N   0  3  0  0  0  0  0  0  0  0  0  0
   24.6680   22.4480    3.5810 C   0  0  2  0  0  0  0  0  0  0  0  0
   24.1720   23.4250    4.6430 C   0  0  0  0  0  0  0  0  0  0  0  0
   24.0550   23.0700    5.8210 O   0  0  0  0  0  0  0  0  0  0  0  0
   23.5570   21.4700    3.1990 C   0  0  0  0  0  0  0  0  0  0  0  0
   23.4930   21.2240    1.7030 C   0  0  0  0  0  0  0  0  0  0  0  0
   24.4760   21.5430    0.9970 O   0  5  0  0  0  0  0  0  0  0  0  0
   22.4570   20.7200    1.2220 O   0  0  0  0  0  0  0  0  0  0  0  0
   23.8830   24.6540    4.2120 N   0  0  0  0  0  0  0  0  0  0  0  0
   23.4670   25.7260    5.1140 C   0  0  2  0  0  0  0  0  0  0  0  0
   22.3060   26.5340    4.5410 C   0  0  0  0  0  0  0  0  0  0  0  0
   22.2150   26.7250    3.3300 O   0  0  0  0  0  0  0  0  0  0  0  0
   24.6400   26.6850    5.4750 C   0  0  2  0  0  0  0  0  0  0  0  0
   25.5140   26.9610    4.2450 C   0  0  0  0  0  0  0  0  0  0  0  0
   25.4750   26.1030    6.6270 C   0  0  0  0  0  0  0  0  0  0  0  0
   26.0870   28.3750    4.1850 C   0  0  0  0  0  0  0  0  0  0  0  0
   21.4130   27.0130    5.4180 N   0  0  0  0  0  0  0  0  0  0  0  0
   20.2350   27.7430    5.0040 C   0  0  2  0  0  0  0  0  0  0  0  0
   20.4590   29.2340    4.7380 C   0  0  0  0  0  0  0  0  0  0  0  0
   19.6410   29.8510    4.0590 O   0  0  0  0  0  0  0  0  0  0  0  0
   19.2850   27.5680    6.1940 C   0  0  0  0  0  0  0  0  0  0  0  0
   20.0350   26.7350    7.2140 C   0  0  0  0  0  0  0  0  0  0  0  0
   21.4510   26.8430    6.8770 C   0  0  0  0  0  0  0  0  0  0  0  0
   21.5410   29.8180    5.2600 N   0  0  0  0  0  0  0  0  0  0  0  0
   21.7540   31.2780    5.1250 C   0  0  2  0  0  0  0  0  0  0  0  0
   23.2010   31.7240    5.4080 C   0  0  0  0  0  0  0  0  0  0  0  0
   23.9860   30.9830    5.9870 O   0  5  0  0  0  0  0  0  0  0  0  0
   20.7860   32.0540    6.0380 C   0  0  0  0  0  0  0  0  0  0  0  0
   20.9720   31.7530    7.5010 C   0  0  0  0  0  0  0  0  0  0  0  0
   22.0750   32.2350    8.1870 C   0  0  0  0  0  0  0  0  0  0  0  0
   20.0620   30.9640    8.1790 C   0  0  0  0  0  0  0  0  0  0  0  0
   22.2540   31.9470    9.5000 C   0  0  0  0  0  0  0  0  0  0  0  0
   20.2370   30.6890    9.4940 C   0  0  0  0  0  0  0  0  0  0  0  0
   21.3400   31.1790   10.1570 C   0  0  0  0  0  0  0  0  0  0  0  0
   23.5710   32.8890    5.1960 O   0  0  0  0  0  0  0  0  0  0  0  0
   26.1823   21.0930    3.2516 H   0  0  0  0  0  0  0  0  0  0  0  0
   25.7206   21.1936    4.8284 H   0  0  0  0  0  0  0  0  0  0  0  0
   26.6416   22.3846    4.1629 H   0  0  0  0  0  0  0  0  0  0  0  0
   24.9181   23.0365    2.6860 H   0  0  0  0  0  0  0  0  0  0  0  0
   22.5930   21.8831    3.5307 H   0  0  0  0  0  0  0  0  0  0  0  0
   23.7396   20.5117    3.7072 H   0  0  0  0  0  0  0  0  0  0  0  0
   23.9538   24.8493    3.2338 H   0  0  0  0  0  0  0  0  0  0  0  0
   23.1215   25.2536    6.0454 H   0  0  0  0  0  0  0  0  0  0  0  0
   24.2117   27.6408    5.8112 H   0  0  0  0  0  0  0  0  0  0  0  0
   24.9029   26.7986    3.3449 H   0  0  0  0  0  0  0  0  0  0  0  0
   26.3529   26.2495    4.2520 H   0  0  0  0  0  0  0  0  0  0  0  0
   24.8238   25.9155    7.4935 H   0  0  0  0  0  0  0  0  0  0  0  0
   26.2617   26.8187    6.9077 H   0  0  0  0  0  0  0  0  0  0  0  0
   25.9369   25.1583    6.3043 H   0  0  0  0  0  0  0  0  0  0  0  0
   26.6971   28.4851    3.2764 H   0  0  0  0  0  0  0  0  0  0  0  0
   26.7134   28.5548    5.0712 H   0  0  0  0  0  0  0  0  0  0  0  0
   25.2634   29.1038    4.1641 H   0  0  0  0  0  0  0  0  0  0  0  0
   19.8142   27.2861    4.0961 H   0  0  0  0  0  0  0  0  0  0  0  0
   18.3685   27.0488    5.8773 H   0  0  0  0  0  0  0  0  0  0  0  0
   19.0229   28.5476    6.6201 H   0  0  0  0  0  0  0  0  0  0  0  0
   19.7106   25.6853    7.1599 H   0  0  0  0  0  0  0  0  0  0  0  0
   19.8550   27.1227    8.2275 H   0  0  0  0  0  0  0  0  0  0  0  0
   21.9121   27.7129    7.3676 H   0  0  0  0  0  0  0  0  0  0  0  0
   21.9980   25.9309    7.1578 H   0  0  0  0  0  0  0  0  0  0  0  0
   22.2152   29.2633    5.7476 H   0  0  0  0  0  0  0  0  0  0  0  0
   21.5259   31.5447    4.0825 H   0  0  0  0  0  0  0  0  0  0  0  0
   19.7555   31.7916    5.7565 H   0  0  0  0  0  0  0  0  0  0  0  0
   20.9462   33.1308    5.8807 H   0  0  0  0  0  0  0  0  0  0  0  0
   22.8027   32.8489    7.6686 H   0  0  0  0  0  0  0  0  0  0  0  0
   19.2023   30.5624    7.6549 H   0  0  0  0  0  0  0  0  0  0  0  0
   23.1224   32.3270   10.0259 H   0  0  0  0  0  0  0  0  0  0  0  0
   19.5098   30.0841   10.0235 H   0  0  0  0  0  0  0  0  0  0  0  0
   21.4820   30.9525   11.2075 H   0  0  0  0  0  0  0  0  0  0  0  0
  1  2  1  0  0  0  0
  1 36  1  0  0  0  0
  1 37  1  0  0  0  0
  1 38  1  0  0  0  0
  2  3  1  0  0  0  0
  2  5  1  0  0  0  0
  2 39  1  6  0  0  0
  3  4  2  0  0  0  0
  3  9  1  0  0  0  0
  5  6  1  0  0  0  0
  5 40  1  0  0  0  0
  5 41  1  0  0  0  0
  6  7  1  0  0  0  0
  6  8  2  0  0  0  0
  9 10  1  0  0  0  0
  9 42  1  0  0  0  0
 10 11  1  0  0  0  0
 10 13  1  0  0  0  0
 10 43  1  1  0  0  0
 11 12  2  0  0  0  0
 11 17  1  0  0  0  0
 13 14  1  0  0  0  0
 13 15  1  0  0  0  0
 13 44  1  1  0  0  0
 14 16  1  0  0  0  0
 14 45  1  0  0  0  0
 14 46  1  0  0  0  0
 15 47  1  0  0  0  0
 15 48  1  0  0  0  0
 15 49  1  0  0  0  0
 16 50  1  0  0  0  0
 16 51  1  0  0  0  0
 16 52  1  0  0  0  0
 17 18  1  0  0  0  0
 17 23  1  0  0  0  0
 18 19  1  0  0  0  0
 18 21  1  0  0  0  0
 18 53  1  6  0  0  0
 19 20  2  0  0  0  0
 19 24  1  0  0  0  0
 21 22  1  0  0  0  0
 21 54  1  0  0  0  0
 21 55  1  0  0  0  0
 22 23  1  0  0  0  0
 22 56  1  0  0  0  0
 22 57  1  0  0  0  0
 23 58  1  0  0  0  0
 23 59  1  0  0  0  0
 24 25  1  0  0  0  0
 24 60  1  0  0  0  0
 25 26  1  0  0  0  0
 25 28  1  0  0  0  0
 25 61  1  6  0  0  0
 26 27  1  0  0  0  0
 26 35  2  0  0  0  0
 28 29  1  0  0  0  0
 28 62  1  0  0  0  0
 28 63  1  0  0  0  0
 29 30  2  0  0  0  0
 29 31  1  0  0  0  0
 30 32  1  0  0  0  0
 30 64  1  0  0  0  0
 31 33  2  0  0  0  0
 31 65  1  0  0  0  0
 32 34  2  0  0  0  0
 32 66  1  0  0  0  0
 33 34  1  0  0  0  0
 33 67  1  0  0  0  0
 34 68  1  0  0  0  0
M  CHG  3   1   1   7  -1  27  -1
M  END
