3c9e_ligand
 OpenBabel08222323343D

 54 53  0  0  1  0  0  0  0  0999 V2000
   19.4910   61.7640   36.8080 C   0  0  0  0  0  0  0  0  0  0  0  0
   20.4630   61.0280   37.0480 O   0  5  0  0  0  0  0  0  0  0  0  0
   18.9600   61.8330   35.6870 O   0  0  0  0  0  0  0  0  0  0  0  0
   18.9190   62.6090   37.9410 C   0  0  0  0  0  0  0  0  0  0  0  0
   18.6530   64.0430   37.3850 C   0  0  2  0  0  0  0  0  0  0  0  0
   19.9040   64.7060   37.1860 O   0  0  0  0  0  0  0  0  0  0  0  0
   17.8330   64.8930   38.3470 C   0  0  0  0  0  0  0  0  0  0  0  0
   16.6480   65.1590   38.1140 O   0  0  0  0  0  0  0  0  0  0  0  0
   18.4740   65.3220   39.4310 N   0  0  0  0  0  0  0  0  0  0  0  0
   17.8340   66.1510   40.4530 C   0  0  1  0  0  0  0  0  0  0  0  0
   18.3490   65.7370   41.8330 C   0  0  0  0  0  0  0  0  0  0  0  0
   17.6990   64.6590   42.6900 C   0  0  0  0  0  0  0  0  0  0  0  0
   18.0930   64.9190   44.1350 C   0  0  0  0  0  0  0  0  0  0  0  0
   16.1560   64.6350   42.5600 C   0  0  0  0  0  0  0  0  0  0  0  0
   18.1220   67.6330   40.2390 C   0  0  0  0  0  0  0  0  0  0  0  0
   19.2260   68.0020   39.8330 O   0  0  0  0  0  0  0  0  0  0  0  0
   17.1190   68.4750   40.5130 N   0  0  0  0  0  0  0  0  0  0  0  0
   17.1770   69.9340   40.3750 C   0  0  0  0  0  0  0  0  0  0  0  0
   16.5770   70.4500   39.0690 C   0  0  0  0  0  0  0  0  0  0  0  0
   16.7970   71.9540   38.9270 C   0  0  0  0  0  0  0  0  0  0  0  0
   15.7690   72.7580   39.7480 C   0  0  0  0  0  0  0  0  0  0  0  0
   14.8190   73.5120   38.9150 N   0  0  0  0  0  0  0  0  0  0  0  0
   13.5950   73.0930   38.5570 C   0  0  0  0  0  3  0  0  0  0  0  0
   13.0400   73.5730   37.4520 N   0  0  0  0  0  0  0  0  0  0  0  0
   12.9250   72.2050   39.2990 N   0  0  0  0  0  0  0  0  0  0  0  0
   19.6394   62.6579   38.7708 H   0  0  0  0  0  0  0  0  0  0  0  0
   17.9775   62.1665   38.2983 H   0  0  0  0  0  0  0  0  0  0  0  0
   18.1171   63.9605   36.4279 H   0  0  0  0  0  0  0  0  0  0  0  0
   19.7477   65.5798   36.8474 H   0  0  0  0  0  0  0  0  0  0  0  0
   19.4334   65.0673   39.5525 H   0  0  0  0  0  0  0  0  0  0  0  0
   16.7466   65.9913   40.4080 H   0  0  0  0  0  0  0  0  0  0  0  0
   18.3380   66.6519   42.4436 H   0  0  0  0  0  0  0  0  0  0  0  0
   19.3883   65.4111   41.6794 H   0  0  0  0  0  0  0  0  0  0  0  0
   18.0868   63.6781   42.3778 H   0  0  0  0  0  0  0  0  0  0  0  0
   17.6379   64.1548   44.7823 H   0  0  0  0  0  0  0  0  0  0  0  0
   17.7381   65.9150   44.4383 H   0  0  0  0  0  0  0  0  0  0  0  0
   19.1880   64.8752   44.2301 H   0  0  0  0  0  0  0  0  0  0  0  0
   15.8792   64.4465   41.5122 H   0  0  0  0  0  0  0  0  0  0  0  0
   15.7460   65.6047   42.8787 H   0  0  0  0  0  0  0  0  0  0  0  0
   15.7467   63.8368   43.1966 H   0  0  0  0  0  0  0  0  0  0  0  0
   16.2608   68.0776   40.8380 H   0  0  0  0  0  0  0  0  0  0  0  0
   18.2309   70.2458   40.4203 H   0  0  0  0  0  0  0  0  0  0  0  0
   16.6249   70.3846   41.2130 H   0  0  0  0  0  0  0  0  0  0  0  0
   15.4970   70.2415   39.0613 H   0  0  0  0  0  0  0  0  0  0  0  0
   17.0561   69.9343   38.2237 H   0  0  0  0  0  0  0  0  0  0  0  0
   16.7014   72.2302   37.8666 H   0  0  0  0  0  0  0  0  0  0  0  0
   17.8086   72.2018   39.2808 H   0  0  0  0  0  0  0  0  0  0  0  0
   16.3125   73.4688   40.3878 H   0  0  0  0  0  0  0  0  0  0  0  0
   15.2011   72.0577   40.3780 H   0  0  0  0  0  0  0  0  0  0  0  0
   15.1181   74.4384   38.5786 H   0  0  0  0  0  0  0  0  0  0  0  0
   12.1012   73.2580   37.1685 H   0  0  0  0  0  0  0  0  0  0  0  0
   13.5478   74.2607   36.8775 H   0  0  0  0  0  0  0  0  0  0  0  0
   13.3491   71.8276   40.1584 H   0  0  0  0  0  0  0  0  0  0  0  0
   11.9848   71.8984   39.0111 H   0  0  0  0  0  0  0  0  0  0  0  0
  1  2  1  0  0  0  0
  1  3  2  0  0  0  0
  1  4  1  0  0  0  0
  4  5  1  0  0  0  0
  4 26  1  0  0  0  0
  4 27  1  0  0  0  0
  5  6  1  0  0  0  0
  5  7  1  0  0  0  0
  5 28  1  6  0  0  0
  6 29  1  0  0  0  0
  7  8  2  0  0  0  0
  7  9  1  0  0  0  0
  9 10  1  0  0  0  0
  9 30  1  0  0  0  0
 10 11  1  0  0  0  0
 10 15  1  0  0  0  0
 10 31  1  6  0  0  0
 11 12  1  0  0  0  0
 11 32  1  0  0  0  0
 11 33  1  0  0  0  0
 12 13  1  0  0  0  0
 12 14  1  0  0  0  0
 12 34  1  0  0  0  0
 13 35  1  0  0  0  0
 13 36  1  0  0  0  0
 13 37  1  0  0  0  0
 14 38  1  0  0  0  0
 14 39  1  0  0  0  0
 14 40  1  0  0  0  0
 15 16  2  0  0  0  0
 15 17  1  0  0  0  0
 17 18  1  0  0  0  0
 17 41  1  0  0  0  0
 18 19  1  0  0  0  0
 18 42  1  0  0  0  0
 18 43  1  0  0  0  0
 19 20  1  0  0  0  0
 19 44  1  0  0  0  0
 19 45  1  0  0  0  0
 20 21  1  0  0  0  0
 20 46  1  0  0  0  0
 20 47  1  0  0  0  0
 21 22  1  0  0  0  0
 21 48  1  0  0  0  0
 21 49  1  0  0  0  0
 22 23  1  0  0  0  0
 22 50  1  0  0  0  0
 23 24  1  0  0  0  0
 23 25  1  0  0  0  0
 24 51  1  0  0  0  0
 24 52  1  0  0  0  0
 25 53  1  0  0  0  0
 25 54  1  0  0  0  0
M  CHG  1   2  -1
M  END
