3ccb_ligand
 OpenBabel08222323343D

 28 29  0  0  0  0  0  0  0  0999 V2000
   41.6190    3.4230   18.0610 N   0  3  0  0  0  0  0  0  0  0  0  0
   44.1900    1.3830   17.1900 C   0  0  0  0  0  0  0  0  0  0  0  0
   44.5140    0.0750   16.8530 C   0  0  0  0  0  0  0  0  0  0  0  0
   43.6580   -0.6500   16.0330 C   0  0  0  0  0  0  0  0  0  0  0  0
   42.4830   -0.0740   15.5460 C   0  0  0  0  0  0  0  0  0  0  0  0
   42.1530    1.2480   15.8900 C   0  0  0  0  0  0  0  0  0  0  0  0
   39.6450    1.3740   15.7200 C   0  0  0  0  0  0  0  0  0  0  0  0
   39.8530    3.4480   13.8320 C   0  0  0  0  0  0  0  0  0  0  0  0
   42.7350    3.4040   17.1180 C   0  0  0  0  0  0  0  0  0  0  0  0
   43.0260    1.9780   16.7160 C   0  0  0  0  0  0  0  0  0  0  0  0
   40.9030    1.8440   15.3360 C   0  0  0  0  0  0  0  0  0  0  0  0
   38.5150    1.9680   15.1550 C   0  0  0  0  0  0  0  0  0  0  0  0
   38.6090    2.9990   14.2260 C   0  0  0  0  0  0  0  0  0  0  0  0
   40.9840    2.8710   14.3780 C   0  0  0  0  0  0  0  0  0  0  0  0
   41.4231    4.3743   18.3306 H   0  0  0  0  0  0  0  0  0  0  0  0
   41.8606    2.8851   18.8785 H   0  0  0  0  0  0  0  0  0  0  0  0
   40.8033    3.0228   17.6244 H   0  0  0  0  0  0  0  0  0  0  0  0
   44.8549    1.9488   17.8325 H   0  0  0  0  0  0  0  0  0  0  0  0
   45.4263   -0.3760   17.2263 H   0  0  0  0  0  0  0  0  0  0  0  0
   43.9047   -1.6720   15.7690 H   0  0  0  0  0  0  0  0  0  0  0  0
   41.8251   -0.6467   14.9024 H   0  0  0  0  0  0  0  0  0  0  0  0
   39.5485    0.5682   16.4387 H   0  0  0  0  0  0  0  0  0  0  0  0
   39.9422    4.2446   13.1022 H   0  0  0  0  0  0  0  0  0  0  0  0
   43.6255    3.8403   17.5940 H   0  0  0  0  0  0  0  0  0  0  0  0
   42.4717    3.9906   16.2255 H   0  0  0  0  0  0  0  0  0  0  0  0
   37.5334    1.6146   15.4495 H   0  0  0  0  0  0  0  0  0  0  0  0
   37.7115    3.4465   13.8145 H   0  0  0  0  0  0  0  0  0  0  0  0
   41.9599    3.2192   14.0594 H   0  0  0  0  0  0  0  0  0  0  0  0
  1 15  1  0  0  0  0
  1 16  1  0  0  0  0
  1 17  1  0  0  0  0
  2  3  2  0  0  0  0
  2 18  1  0  0  0  0
  3 19  1  0  0  0  0
  4  3  1  0  0  0  0
  4 20  1  0  0  0  0
  5  4  2  0  0  0  0
  5 21  1  0  0  0  0
  6  5  1  0  0  0  0
  6 10  2  0  0  0  0
  7 12  1  0  0  0  0
  7 22  1  0  0  0  0
  8 13  1  0  0  0  0
  8 23  1  0  0  0  0
  9  1  1  0  0  0  0
  9 24  1  0  0  0  0
  9 25  1  0  0  0  0
 10  2  1  0  0  0  0
 10  9  1  0  0  0  0
 11  6  1  0  0  0  0
 11  7  2  0  0  0  0
 11 14  1  0  0  0  0
 12 13  2  0  0  0  0
 12 26  1  0  0  0  0
 13 27  1  0  0  0  0
 14  8  2  0  0  0  0
 14 28  1  0  0  0  0
M  CHG  1   1   1
M  END
