3cde_ligand
 OpenBabel08222323343D

 58 61  0  0  0  0  0  0  0  0999 V2000
   97.1910    8.4740   51.0050 C   0  0  0  0  0  0  0  0  0  0  0  0
   96.3130    8.3060   61.2490 C   0  0  0  0  0  0  0  0  0  0  0  0
   98.2970    6.4460   50.7650 C   0  0  0  0  0  0  0  0  0  0  0  0
   95.0690    9.0170   59.2540 C   0  0  0  0  0  0  0  0  0  0  0  0
   95.7890    9.4020   61.9650 C   0  0  0  0  0  0  0  0  0  0  0  0
   96.8340    7.8460   52.1800 C   0  0  0  0  0  0  0  0  0  0  0  0
   95.9190    7.7600   54.6240 C   0  0  0  0  0  0  0  0  0  0  0  0
   94.4130    9.6170   55.1680 C   0  0  0  0  0  0  0  0  0  0  0  0
   90.6100    9.2730   52.2970 C   0  0  0  0  0  0  0  0  0  0  0  0
   93.8660   11.2450   53.3870 C   0  0  0  0  0  0  0  0  0  0  0  0
   92.0860    9.6850   52.2840 C   0  0  0  0  0  0  0  0  0  0  0  0
   95.7360    7.1320   63.9560 O   0  0  0  0  0  0  0  0  0  0  0  0
   96.3040    8.3730   64.4700 S   0  0  0  0  0  0  0  0  0  0  0  0
   95.9180    8.8660   65.7720 O   0  0  0  0  0  0  0  0  0  0  0  0
   98.0750    8.2330   64.5250 C   0  0  0  0  0  0  0  0  0  0  0  0
   96.1250    9.6520   63.3340 N   0  0  0  0  0  0  0  0  0  0  0  0
   94.9260   10.2980   61.3320 C   0  0  0  0  0  0  0  0  0  0  0  0
   95.9390    8.1300   59.9030 C   0  0  0  0  0  0  0  0  0  0  0  0
   96.5580    6.7540   58.9890 S   0  0  0  0  0  0  0  0  0  0  0  0
   97.9620    6.6410   59.3120 O   0  0  0  0  0  0  0  0  0  0  0  0
   95.6570    5.6390   59.2310 O   0  0  0  0  0  0  0  0  0  0  0  0
   96.3390    7.2290   57.3820 N   0  0  0  0  0  0  0  0  0  0  0  0
   95.3970    8.2320   57.0430 C   0  0  0  0  0  0  0  0  0  0  0  0
   94.6760    8.8910   57.9120 N   0  0  0  0  0  0  0  0  0  0  0  0
   94.5690   10.1110   59.9900 C   0  0  0  0  0  0  0  0  0  0  0  0
   95.2850    8.4810   55.5880 C   0  0  0  0  0  0  0  0  0  0  0  0
   96.4070    6.4850   54.8110 O   0  0  0  0  0  0  0  0  0  0  0  0
   93.6570   10.1720   55.9750 O   0  0  0  0  0  0  0  0  0  0  0  0
   94.5550   10.0610   53.8660 N   0  0  0  0  0  0  0  0  0  0  0  0
   92.3820   10.9410   53.1360 C   0  0  0  0  0  0  0  0  0  0  0  0
   92.5560    9.9070   50.8370 C   0  0  0  0  0  0  0  0  0  0  0  0
   95.3460    9.4620   52.9410 N   0  0  0  0  0  0  0  0  0  0  0  0
   96.0010    8.3910   53.2630 C   0  0  0  0  0  0  0  0  0  0  0  0
   97.5260    6.2840   52.2880 S   0  0  0  0  0  0  0  0  0  0  0  0
   98.0280    7.6640   50.1840 C   0  0  0  0  0  0  0  0  0  0  0  0
   96.8687    9.4784   50.7344 H   0  0  0  0  0  0  0  0  0  0  0  0
   96.9928    7.6101   61.7272 H   0  0  0  0  0  0  0  0  0  0  0  0
   98.9233    5.6785   50.3127 H   0  0  0  0  0  0  0  0  0  0  0  0
   90.4739    8.3771   51.6734 H   0  0  0  0  0  0  0  0  0  0  0  0
   89.9965   10.0942   51.8979 H   0  0  0  0  0  0  0  0  0  0  0  0
   90.3001    9.0519   53.3290 H   0  0  0  0  0  0  0  0  0  0  0  0
   94.3307   11.5787   52.4475 H   0  0  0  0  0  0  0  0  0  0  0  0
   93.9495   12.0418   54.1407 H   0  0  0  0  0  0  0  0  0  0  0  0
   92.6658    8.8526   52.7095 H   0  0  0  0  0  0  0  0  0  0  0  0
   98.4435    7.8595   63.5582 H   0  0  0  0  0  0  0  0  0  0  0  0
   98.3629    7.5322   65.3225 H   0  0  0  0  0  0  0  0  0  0  0  0
   98.5148    9.2206   64.7283 H   0  0  0  0  0  0  0  0  0  0  0  0
   96.2592   10.5952   63.6378 H   0  0  0  0  0  0  0  0  0  0  0  0
   94.5295   11.1438   61.8820 H   0  0  0  0  0  0  0  0  0  0  0  0
   96.8810    6.7969   56.6612 H   0  0  0  0  0  0  0  0  0  0  0  0
   93.8997   10.8166   59.5113 H   0  0  0  0  0  0  0  0  0  0  0  0
   97.0550    6.4939   55.5057 H   0  0  0  0  0  0  0  0  0  0  0  0
   91.9422   11.8084   52.6221 H   0  0  0  0  0  0  0  0  0  0  0  0
   91.8949   10.8080   54.1133 H   0  0  0  0  0  0  0  0  0  0  0  0
   92.3411    9.0086   50.2398 H   0  0  0  0  0  0  0  0  0  0  0  0
   93.6385   10.1023   50.8289 H   0  0  0  0  0  0  0  0  0  0  0  0
   92.0247   10.7688   50.4070 H   0  0  0  0  0  0  0  0  0  0  0  0
   98.4096    7.9724   49.2118 H   0  0  0  0  0  0  0  0  0  0  0  0
  1 35  1  0  0  0  0
  1 36  1  0  0  0  0
  2  5  2  0  0  0  0
  2 37  1  0  0  0  0
  3 35  2  0  0  0  0
  3 38  1  0  0  0  0
  4 18  2  0  0  0  0
  4 25  1  0  0  0  0
  5 16  1  0  0  0  0
  6  1  2  0  0  0  0
  6 34  1  0  0  0  0
  7 27  1  0  0  0  0
  7 33  1  0  0  0  0
  8 28  2  0  0  0  0
  8 29  1  0  0  0  0
  9 39  1  0  0  0  0
  9 40  1  0  0  0  0
  9 41  1  0  0  0  0
 10 30  1  0  0  0  0
 10 42  1  0  0  0  0
 10 43  1  0  0  0  0
 11  9  1  0  0  0  0
 11 31  1  0  0  0  0
 11 44  1  0  0  0  0
 13 12  2  0  0  0  0
 13 14  2  0  0  0  0
 13 15  1  0  0  0  0
 15 45  1  0  0  0  0
 15 46  1  0  0  0  0
 15 47  1  0  0  0  0
 16 13  1  0  0  0  0
 16 48  1  0  0  0  0
 17  5  1  0  0  0  0
 17 49  1  0  0  0  0
 18  2  1  0  0  0  0
 19 18  1  0  0  0  0
 19 20  2  0  0  0  0
 19 21  2  0  0  0  0
 22 19  1  0  0  0  0
 22 50  1  0  0  0  0
 23 22  1  0  0  0  0
 23 24  2  0  0  0  0
 23 26  1  0  0  0  0
 24  4  1  0  0  0  0
 25 17  2  0  0  0  0
 25 51  1  0  0  0  0
 26  7  2  0  0  0  0
 26  8  1  0  0  0  0
 27 52  1  0  0  0  0
 29 10  1  0  0  0  0
 29 32  1  0  0  0  0
 30 11  1  0  0  0  0
 30 53  1  0  0  0  0
 30 54  1  0  0  0  0
 31 55  1  0  0  0  0
 31 56  1  0  0  0  0
 31 57  1  0  0  0  0
 32 33  2  0  0  0  0
 33  6  1  0  0  0  0
 34  3  1  0  0  0  0
 35 58  1  0  0  0  0
M  END
