3ce0_ligand
 OpenBabel08222323343D

 55 57  0  0  1  0  0  0  0  0999 V2000
   21.7950   -7.7540   18.0360 C   0  0  0  0  0  0  0  0  0  0  0  0
   22.0100   -6.3750   17.5780 N   0  3  0  0  0  0  0  0  0  0  0  0
   21.1840   -5.4460   18.3610 C   0  0  0  0  0  0  0  0  0  0  0  0
   21.6570   -6.2600   16.1570 C   0  0  0  0  0  0  0  0  0  0  0  0
   22.8490   -6.2570   15.1840 C   0  0  0  0  0  0  0  0  0  0  0  0
   23.9550   -6.4330   15.5810 O   0  0  0  0  0  0  0  0  0  0  0  0
   22.5890   -6.1590   13.7510 N   0  0  0  0  0  0  0  0  0  0  0  0
   21.2190   -5.9190   13.3130 C   0  0  1  0  0  0  0  0  0  0  0  0
   20.4030   -7.0530   12.6470 C   0  0  0  0  0  0  0  0  0  0  0  0
   18.9420   -6.7820   12.2000 C   0  0  2  0  0  0  0  0  0  0  0  0
   18.1280   -7.8810   11.5410 C   0  0  1  0  0  0  0  0  0  0  0  0
   18.7740   -9.2750   11.3230 C   0  0  0  0  0  0  0  0  0  0  0  0
   17.9440  -10.3860   10.6560 C   0  0  0  0  0  0  0  0  0  0  0  0
   16.5010  -10.1350   10.2080 C   0  0  0  0  0  0  0  0  0  0  0  0
   15.8680   -8.7560   10.4270 C   0  0  0  0  0  0  0  0  0  0  0  0
   16.7070   -7.6300   11.1030 C   0  0  2  0  0  0  0  0  0  0  0  0
   16.0840   -6.2240   11.3330 C   0  0  1  0  0  0  0  0  0  0  0  0
   14.7630   -5.9630   10.9570 O   0  0  0  0  0  0  0  0  0  0  0  0
   16.8910   -5.1350   11.9840 N   0  3  0  0  0  0  0  0  0  0  0  0
   18.3160   -5.3880   12.4260 C   0  0  2  0  0  0  0  0  0  0  0  0
   19.1340   -4.2500   13.0970 C   0  0  0  0  0  0  0  0  0  0  0  0
   20.5870   -4.5150   13.5420 C   0  0  0  0  0  0  0  0  0  0  0  0
   22.0613   -7.8325   19.1004 H   0  0  0  0  0  0  0  0  0  0  0  0
   22.4255   -8.4379   17.4489 H   0  0  0  0  0  0  0  0  0  0  0  0
   20.7372   -8.0243   17.9018 H   0  0  0  0  0  0  0  0  0  0  0  0
   22.9817   -6.1359   17.6988 H   0  0  0  0  0  0  0  0  0  0  0  0
   21.3541   -4.4180   18.0086 H   0  0  0  0  0  0  0  0  0  0  0  0
   21.4573   -5.5191   19.4240 H   0  0  0  0  0  0  0  0  0  0  0  0
   20.1223   -5.7053   18.2366 H   0  0  0  0  0  0  0  0  0  0  0  0
   21.1028   -5.3199   16.0190 H   0  0  0  0  0  0  0  0  0  0  0  0
   21.0082   -7.1096   15.8977 H   0  0  0  0  0  0  0  0  0  0  0  0
   23.3308   -6.2539   13.0872 H   0  0  0  0  0  0  0  0  0  0  0  0
   21.5832   -5.5999   12.3253 H   0  0  0  0  0  0  0  0  0  0  0  0
   20.3687   -7.8863   13.3642 H   0  0  0  0  0  0  0  0  0  0  0  0
   20.9595   -7.3635   11.7504 H   0  0  0  0  0  0  0  0  0  0  0  0
   18.5798   -7.1060   13.1868 H   0  0  0  0  0  0  0  0  0  0  0  0
   18.4872   -7.5562   10.5534 H   0  0  0  0  0  0  0  0  0  0  0  0
   19.0762   -9.6485   12.3125 H   0  0  0  0  0  0  0  0  0  0  0  0
   19.6676   -9.1223   10.7001 H   0  0  0  0  0  0  0  0  0  0  0  0
   17.9081  -11.2210   11.3711 H   0  0  0  0  0  0  0  0  0  0  0  0
   18.5001  -10.6953    9.7588 H   0  0  0  0  0  0  0  0  0  0  0  0
   15.8706  -10.8635   10.7388 H   0  0  0  0  0  0  0  0  0  0  0  0
   16.4628  -10.3358    9.1272 H   0  0  0  0  0  0  0  0  0  0  0  0
   14.9745   -8.9084   11.0502 H   0  0  0  0  0  0  0  0  0  0  0  0
   15.5657   -8.3810    9.4381 H   0  0  0  0  0  0  0  0  0  0  0  0
   16.3444   -7.9563   12.0889 H   0  0  0  0  0  0  0  0  0  0  0  0
   16.4365   -5.9029   10.3417 H   0  0  0  0  0  0  0  0  0  0  0  0
   14.3876   -6.7414   10.5624 H   0  0  0  0  0  0  0  0  0  0  0  0
   16.3810   -4.8508   12.8057 H   0  0  0  0  0  0  0  0  0  0  0  0
   16.9246   -4.3703   11.3281 H   0  0  0  0  0  0  0  0  0  0  0  0
   17.9560   -5.7093   13.4145 H   0  0  0  0  0  0  0  0  0  0  0  0
   18.5766   -3.9423   13.9940 H   0  0  0  0  0  0  0  0  0  0  0  0
   19.1666   -3.4154   12.3812 H   0  0  0  0  0  0  0  0  0  0  0  0
   21.2207   -3.7893   13.0112 H   0  0  0  0  0  0  0  0  0  0  0  0
   20.6305   -4.3179   14.6233 H   0  0  0  0  0  0  0  0  0  0  0  0
  1  2  1  0  0  0  0
  1 23  1  0  0  0  0
  1 24  1  0  0  0  0
  1 25  1  0  0  0  0
  2  3  1  0  0  0  0
  2  4  1  0  0  0  0
  2 26  1  0  0  0  0
  3 27  1  0  0  0  0
  3 28  1  0  0  0  0
  3 29  1  0  0  0  0
  4  5  1  0  0  0  0
  4 30  1  0  0  0  0
  4 31  1  0  0  0  0
  5  6  2  0  0  0  0
  5  7  1  0  0  0  0
  7  8  1  0  0  0  0
  7 32  1  0  0  0  0
  8  9  1  0  0  0  0
  8 22  1  0  0  0  0
  8 33  1  6  0  0  0
  9 10  1  0  0  0  0
  9 34  1  0  0  0  0
  9 35  1  0  0  0  0
 10 11  1  0  0  0  0
 10 20  1  0  0  0  0
 10 36  1  1  0  0  0
 11 12  1  0  0  0  0
 11 16  1  0  0  0  0
 11 37  1  6  0  0  0
 12 13  1  0  0  0  0
 12 38  1  0  0  0  0
 12 39  1  0  0  0  0
 13 14  1  0  0  0  0
 13 40  1  0  0  0  0
 13 41  1  0  0  0  0
 14 15  1  0  0  0  0
 14 42  1  0  0  0  0
 14 43  1  0  0  0  0
 15 16  1  0  0  0  0
 15 44  1  0  0  0  0
 15 45  1  0  0  0  0
 16 17  1  0  0  0  0
 16 46  1  1  0  0  0
 17 18  1  0  0  0  0
 17 19  1  0  0  0  0
 17 47  1  6  0  0  0
 18 48  1  0  0  0  0
 19 20  1  0  0  0  0
 19 49  1  0  0  0  0
 19 50  1  0  0  0  0
 20 21  1  0  0  0  0
 20 51  1  1  0  0  0
 21 22  1  0  0  0  0
 21 52  1  0  0  0  0
 21 53  1  0  0  0  0
 22 54  1  0  0  0  0
 22 55  1  0  0  0  0
M  CHG  2   2   1  19   1
M  END
