3cgy_ligand
 OpenBabel08222323343D

 42 44  0  0  1  0  0  0  0  0999 V2000
   61.5240    6.3360   21.5630 C   0  0  0  0  0  0  0  0  0  0  0  0
   62.8820    6.9090   21.1560 C   0  0  0  0  0  0  0  0  0  0  0  0
   63.4600    6.5500   19.8740 C   0  0  0  0  0  0  0  0  0  0  0  0
   64.6940    7.0720   19.5010 C   0  0  0  0  0  0  0  0  0  0  0  0
   65.4060    7.9550   20.3150 C   0  0  0  0  0  0  0  0  0  0  0  0
   64.8940    8.3490   21.5910 C   0  0  0  0  0  0  0  0  0  0  0  0
   63.6360    7.8490   22.0260 C   0  0  0  0  0  0  0  0  0  0  0  0
   63.0800    8.2780   23.4190 C   0  0  0  0  0  0  0  0  0  0  0  0
   63.7520    7.6610   24.6050 C   0  0  0  0  0  0  0  0  0  0  0  0
   63.5800    6.2480   25.0280 C   0  0  0  0  0  0  0  0  0  0  0  0
   62.8090    5.2460   24.4130 C   0  0  0  0  0  0  0  0  0  0  0  0
   62.8020    3.9160   25.0880 C   0  0  0  0  0  0  0  0  0  0  0  0
   62.1820    2.7230   24.7390 C   0  0  0  0  0  0  0  0  0  0  0  0
   61.2860    2.1830   23.5620 C   0  0  2  0  0  0  0  0  0  0  0  0
   59.9760    2.9070   23.0280 C   0  0  1  0  0  0  0  0  0  0  0  0
   60.1880    3.3350   21.5530 C   0  0  0  0  0  0  0  0  0  0  0  0
   59.5630    4.7220   21.0980 C   0  0  1  0  0  0  0  0  0  0  0  0
   58.7080    5.4320   22.1880 C   0  0  0  0  0  0  0  0  0  0  0  0
   60.8340    5.4340   20.7530 O   0  0  0  0  0  0  0  0  0  0  0  0
   61.0580    6.6580   22.6850 O   0  0  0  0  0  0  0  0  0  0  0  0
   62.8520    5.6980   19.0480 O   0  0  0  0  0  0  0  0  0  0  0  0
   66.5830    8.4170   19.8710 O   0  0  0  0  0  0  0  0  0  0  0  0
   65.8360    9.4680   22.5760 Cl  0  0  0  0  0  0  0  0  0  0  0  0
   64.5000    8.4110   25.2950 O   0  0  0  0  0  0  0  0  0  0  0  0
   60.0430    1.5590   23.5940 O   0  0  0  0  0  0  0  0  0  0  0  0
   65.1174    6.7834   18.5457 H   0  0  0  0  0  0  0  0  0  0  0  0
   62.0146    8.0068   23.4555 H   0  0  0  0  0  0  0  0  0  0  0  0
   63.1835    9.3699   23.5023 H   0  0  0  0  0  0  0  0  0  0  0  0
   64.1183    5.9508   25.9268 H   0  0  0  0  0  0  0  0  0  0  0  0
   62.2495    5.4302   23.4971 H   0  0  0  0  0  0  0  0  0  0  0  0
   63.3804    3.8730   26.0097 H   0  0  0  0  0  0  0  0  0  0  0  0
   62.3659    1.9493   25.4830 H   0  0  0  0  0  0  0  0  0  0  0  0
   61.9956    1.7980   22.8148 H   0  0  0  0  0  0  0  0  0  0  0  0
   59.4134    3.6795   23.5727 H   0  0  0  0  0  0  0  0  0  0  0  0
   59.7515    2.5516   20.9160 H   0  0  0  0  0  0  0  0  0  0  0  0
   61.2726    3.3884   21.3774 H   0  0  0  0  0  0  0  0  0  0  0  0
   58.9316    4.5930   20.2066 H   0  0  0  0  0  0  0  0  0  0  0  0
   58.3172    6.3793   21.7880 H   0  0  0  0  0  0  0  0  0  0  0  0
   59.3337    5.6365   23.0693 H   0  0  0  0  0  0  0  0  0  0  0  0
   57.8689    4.7821   22.4768 H   0  0  0  0  0  0  0  0  0  0  0  0
   62.0253    5.4252   19.4285 H   0  0  0  0  0  0  0  0  0  0  0  0
   66.7615    8.0522   19.0122 H   0  0  0  0  0  0  0  0  0  0  0  0
  1  2  1  0  0  0  0
  1 19  1  0  0  0  0
  1 20  2  0  0  0  0
  2  3  2  0  0  0  0
  2  7  1  0  0  0  0
  3  4  1  0  0  0  0
  3 21  1  0  0  0  0
  4  5  2  0  0  0  0
  4 26  1  0  0  0  0
  5  6  1  0  0  0  0
  5 22  1  0  0  0  0
  6  7  2  0  0  0  0
  6 23  1  0  0  0  0
  7  8  1  0  0  0  0
  8  9  1  0  0  0  0
  8 27  1  0  0  0  0
  8 28  1  0  0  0  0
  9 10  1  0  0  0  0
  9 24  2  0  0  0  0
 10 11  2  0  0  0  0
 10 29  1  0  0  0  0
 11 12  1  0  0  0  0
 11 30  1  0  0  0  0
 12 13  2  0  0  0  0
 12 31  1  0  0  0  0
 13 14  1  0  0  0  0
 13 32  1  0  0  0  0
 14 15  1  0  0  0  0
 14 25  1  0  0  0  0
 14 33  1  6  0  0  0
 15 16  1  0  0  0  0
 15 25  1  0  0  0  0
 15 34  1  1  0  0  0
 16 17  1  0  0  0  0
 16 35  1  0  0  0  0
 16 36  1  0  0  0  0
 17 18  1  0  0  0  0
 17 19  1  0  0  0  0
 17 37  1  6  0  0  0
 18 38  1  0  0  0  0
 18 39  1  0  0  0  0
 18 40  1  0  0  0  0
 21 41  1  0  0  0  0
 22 42  1  0  0  0  0
M  END
