3cho_ligand
 OpenBabel08222323343D

 36 37  0  0  0  0  0  0  0  0999 V2000
   24.4390   -0.1590    3.5850 C   0  0  0  0  0  0  0  0  0  0  0  0
   23.5200    0.4490    4.4520 C   0  0  0  0  0  0  0  0  0  0  0  0
   22.8920    1.6500    4.0840 C   0  0  0  0  0  0  0  0  0  0  0  0
   23.1740    2.2360    2.8430 C   0  0  0  0  0  0  0  0  0  0  0  0
   24.0940    1.6280    1.9770 C   0  0  0  0  0  0  0  0  0  0  0  0
   24.7390    0.4320    2.3510 C   0  0  0  0  0  0  0  0  0  0  0  0
   25.9480   -0.0260    1.5520 C   0  0  0  0  0  0  0  0  0  0  0  0
   26.1420    0.5280    0.3220 O   0  0  0  0  0  0  0  0  0  0  0  0
   27.4400    0.4410   -0.0940 C   0  0  0  0  0  0  0  0  0  0  0  0
   28.4670    0.6530    0.8410 C   0  0  0  0  0  0  0  0  0  0  0  0
   29.7450    0.9960    0.4140 C   0  0  0  0  0  0  0  0  0  0  0  0
   27.7130    0.5220   -1.4690 C   0  0  0  0  0  0  0  0  0  0  0  0
   29.0080    0.8690   -1.8990 C   0  0  0  0  0  0  0  0  0  0  0  0
   30.0260    1.1310   -0.9570 C   0  0  0  0  0  0  0  0  0  0  0  0
   31.1750    1.6990   -1.3930 N   0  0  0  0  0  0  0  0  0  0  0  0
   32.1290    2.2040   -0.5820 C   0  0  0  0  0  0  0  0  0  0  0  0
   31.9390    2.5910    0.5750 O   0  0  0  0  0  0  0  0  0  0  0  0
   33.5070    2.3450   -1.2300 C   0  0  0  0  0  0  0  0  0  0  0  0
   34.3360    3.2530   -0.4220 N   0  3  0  0  0  0  0  0  0  0  0  0
   24.9184   -1.0884    3.8703 H   0  0  0  0  0  0  0  0  0  0  0  0
   23.2938   -0.0089    5.4082 H   0  0  0  0  0  0  0  0  0  0  0  0
   22.1892    2.1236    4.7600 H   0  0  0  0  0  0  0  0  0  0  0  0
   22.6820    3.1574    2.5530 H   0  0  0  0  0  0  0  0  0  0  0  0
   24.3101    2.0798    1.0156 H   0  0  0  0  0  0  0  0  0  0  0  0
   25.8563   -1.1131    1.4117 H   0  0  0  0  0  0  0  0  0  0  0  0
   26.8419    0.1918    2.1549 H   0  0  0  0  0  0  0  0  0  0  0  0
   28.2621    0.5487    1.9003 H   0  0  0  0  0  0  0  0  0  0  0  0
   30.5301    1.1605    1.1431 H   0  0  0  0  0  0  0  0  0  0  0  0
   26.9329    0.3190   -2.1937 H   0  0  0  0  0  0  0  0  0  0  0  0
   29.2244    0.9353   -2.9591 H   0  0  0  0  0  0  0  0  0  0  0  0
   31.3270    1.7477   -2.3802 H   0  0  0  0  0  0  0  0  0  0  0  0
   33.3953    2.7551   -2.2445 H   0  0  0  0  0  0  0  0  0  0  0  0
   33.9897    1.3581   -1.2845 H   0  0  0  0  0  0  0  0  0  0  0  0
   35.2447    3.3469   -0.8480 H   0  0  0  0  0  0  0  0  0  0  0  0
   34.4380    2.8770    0.5077 H   0  0  0  0  0  0  0  0  0  0  0  0
   33.8933    4.1572   -0.3721 H   0  0  0  0  0  0  0  0  0  0  0  0
  1  2  2  0  0  0  0
  1  6  1  0  0  0  0
  1 20  1  0  0  0  0
  2  3  1  0  0  0  0
  2 21  1  0  0  0  0
  3  4  2  0  0  0  0
  3 22  1  0  0  0  0
  4  5  1  0  0  0  0
  4 23  1  0  0  0  0
  5  6  2  0  0  0  0
  5 24  1  0  0  0  0
  6  7  1  0  0  0  0
  7  8  1  0  0  0  0
  7 25  1  0  0  0  0
  7 26  1  0  0  0  0
  8  9  1  0  0  0  0
  9 10  2  0  0  0  0
  9 12  1  0  0  0  0
 10 11  1  0  0  0  0
 10 27  1  0  0  0  0
 11 14  2  0  0  0  0
 11 28  1  0  0  0  0
 12 13  2  0  0  0  0
 12 29  1  0  0  0  0
 13 14  1  0  0  0  0
 13 30  1  0  0  0  0
 14 15  1  0  0  0  0
 15 16  1  0  0  0  0
 15 31  1  0  0  0  0
 16 17  2  0  0  0  0
 16 18  1  0  0  0  0
 18 19  1  0  0  0  0
 18 32  1  0  0  0  0
 18 33  1  0  0  0  0
 19 34  1  0  0  0  0
 19 35  1  0  0  0  0
 19 36  1  0  0  0  0
M  CHG  1  19   1
M  END
