3chr_ligand
 OpenBabel08222323343D

 42 43  0  0  0  0  0  0  0  0999 V2000
   13.4230   40.4570   63.4290 N   0  3  0  0  0  0  0  0  0  0  0  0
   13.7260   41.8570   63.1620 C   0  0  0  0  0  0  0  0  0  0  0  0
   13.4320   42.6790   64.4060 C   0  0  0  0  0  0  0  0  0  0  0  0
   11.9480   42.8780   64.6800 C   0  0  0  0  0  0  0  0  0  0  0  0
   11.2950   41.7490   65.4240 C   0  0  0  0  0  0  0  0  0  0  0  0
   11.8400   40.6740   65.5910 O   0  0  0  0  0  0  0  0  0  0  0  0
   10.0890   42.0370   65.8820 N   0  0  0  0  0  0  0  0  0  0  0  0
    9.3340   41.1650   66.5840 C   0  0  0  0  0  0  0  0  0  0  0  0
    9.5880   39.7840   66.6700 C   0  0  0  0  0  0  0  0  0  0  0  0
    8.8010   38.9750   67.4850 C   0  0  0  0  0  0  0  0  0  0  0  0
    7.7470   39.5430   68.1830 C   0  0  0  0  0  0  0  0  0  0  0  0
    7.5060   40.9060   68.0960 C   0  0  0  0  0  0  0  0  0  0  0  0
    8.2770   41.7090   67.2870 C   0  0  0  0  0  0  0  0  0  0  0  0
    6.8960   38.8520   69.0010 O   0  0  0  0  0  0  0  0  0  0  0  0
    6.9170   37.4700   69.3580 C   0  0  0  0  0  0  0  0  0  0  0  0
    7.8420   36.9830   70.4780 C   0  0  0  0  0  0  0  0  0  0  0  0
    8.4390   37.7700   71.4790 C   0  0  0  0  0  0  0  0  0  0  0  0
    9.2480   37.1870   72.4510 C   0  0  0  0  0  0  0  0  0  0  0  0
    9.4650   35.8050   72.4430 C   0  0  0  0  0  0  0  0  0  0  0  0
    8.8760   35.0220   71.4640 C   0  0  0  0  0  0  0  0  0  0  0  0
    8.0850   35.6180   70.5010 C   0  0  0  0  0  0  0  0  0  0  0  0
   13.6168   39.9084   62.6059 H   0  0  0  0  0  0  0  0  0  0  0  0
   12.4493   40.3645   63.6728 H   0  0  0  0  0  0  0  0  0  0  0  0
   13.9933   40.1295   64.1929 H   0  0  0  0  0  0  0  0  0  0  0  0
   13.1037   42.2155   62.3288 H   0  0  0  0  0  0  0  0  0  0  0  0
   14.7886   41.9591   62.8965 H   0  0  0  0  0  0  0  0  0  0  0  0
   13.8970   43.6684   64.2847 H   0  0  0  0  0  0  0  0  0  0  0  0
   13.8781   42.1678   65.2718 H   0  0  0  0  0  0  0  0  0  0  0  0
   11.4334   42.9966   63.7151 H   0  0  0  0  0  0  0  0  0  0  0  0
   11.8285   43.7957   65.2745 H   0  0  0  0  0  0  0  0  0  0  0  0
    9.7168   42.9470   65.6993 H   0  0  0  0  0  0  0  0  0  0  0  0
   10.3999   39.3480   66.0993 H   0  0  0  0  0  0  0  0  0  0  0  0
    9.0098   37.9149   67.5725 H   0  0  0  0  0  0  0  0  0  0  0  0
    6.6998   41.3445   68.6728 H   0  0  0  0  0  0  0  0  0  0  0  0
    8.0551   42.7666   67.2017 H   0  0  0  0  0  0  0  0  0  0  0  0
    7.1944   36.9119   68.4516 H   0  0  0  0  0  0  0  0  0  0  0  0
    5.8918   37.2026   69.6539 H   0  0  0  0  0  0  0  0  0  0  0  0
    8.2678   38.8403   71.4941 H   0  0  0  0  0  0  0  0  0  0  0  0
    9.7095   37.8039   73.2136 H   0  0  0  0  0  0  0  0  0  0  0  0
   10.0919   35.3485   73.2004 H   0  0  0  0  0  0  0  0  0  0  0  0
    9.0345   33.9497   71.4536 H   0  0  0  0  0  0  0  0  0  0  0  0
    7.6376   34.9954   69.7347 H   0  0  0  0  0  0  0  0  0  0  0  0
  1  2  1  0  0  0  0
  1 22  1  0  0  0  0
  1 23  1  0  0  0  0
  1 24  1  0  0  0  0
  2  3  1  0  0  0  0
  2 25  1  0  0  0  0
  2 26  1  0  0  0  0
  3  4  1  0  0  0  0
  3 27  1  0  0  0  0
  3 28  1  0  0  0  0
  4  5  1  0  0  0  0
  4 29  1  0  0  0  0
  4 30  1  0  0  0  0
  5  6  2  0  0  0  0
  5  7  1  0  0  0  0
  7  8  1  0  0  0  0
  7 31  1  0  0  0  0
  8  9  2  0  0  0  0
  8 13  1  0  0  0  0
  9 10  1  0  0  0  0
  9 32  1  0  0  0  0
 10 11  2  0  0  0  0
 10 33  1  0  0  0  0
 11 12  1  0  0  0  0
 11 14  1  0  0  0  0
 12 13  2  0  0  0  0
 12 34  1  0  0  0  0
 13 35  1  0  0  0  0
 14 15  1  0  0  0  0
 15 16  1  0  0  0  0
 15 36  1  0  0  0  0
 15 37  1  0  0  0  0
 16 17  2  0  0  0  0
 16 21  1  0  0  0  0
 17 18  1  0  0  0  0
 17 38  1  0  0  0  0
 18 19  2  0  0  0  0
 18 39  1  0  0  0  0
 19 20  1  0  0  0  0
 19 40  1  0  0  0  0
 20 21  2  0  0  0  0
 20 41  1  0  0  0  0
 21 42  1  0  0  0  0
M  CHG  1   1   1
M  END
