3chs_ligand
 OpenBabel08222323343D

 48 49  0  0  1  0  0  0  0  0999 V2000
   12.1870   40.9890   65.8760 O   0  0  0  0  0  0  0  0  0  0  0  0
   11.5650   42.0710   65.7190 C   0  0  0  0  0  0  0  0  0  0  0  0
   12.2270   43.2830   65.1480 C   0  0  0  0  0  0  0  0  0  0  0  0
   13.7450   42.8790   65.1520 C   0  0  0  0  0  0  0  0  0  0  0  0
   14.4240   42.0820   63.9840 C   0  0  2  0  0  0  0  0  0  0  0  0
   13.7190   40.8210   63.6870 N   0  3  0  0  0  0  0  0  0  0  0  0
   15.8270   41.6970   64.2240 C   0  0  0  0  0  0  0  0  0  0  0  0
   16.7990   42.3890   63.8720 O   0  5  0  0  0  0  0  0  0  0  0  0
   16.0810   40.6180   64.7990 O   0  0  0  0  0  0  0  0  0  0  0  0
   10.2430   42.1600   66.0620 N   0  0  0  0  0  0  0  0  0  0  0  0
    9.5490   41.3280   66.8970 C   0  0  0  0  0  0  0  0  0  0  0  0
    8.6280   41.9020   67.8130 C   0  0  0  0  0  0  0  0  0  0  0  0
    7.8950   41.0730   68.6980 C   0  0  0  0  0  0  0  0  0  0  0  0
    8.0710   39.6690   68.6930 C   0  0  0  0  0  0  0  0  0  0  0  0
    8.9800   39.0950   67.7830 C   0  0  0  0  0  0  0  0  0  0  0  0
    9.7060   39.9140   66.8980 C   0  0  0  0  0  0  0  0  0  0  0  0
    7.3420   38.9360   69.5820 O   0  0  0  0  0  0  0  0  0  0  0  0
    7.4130   37.5580   70.0110 C   0  0  0  0  0  0  0  0  0  0  0  0
    8.2740   37.7090   71.3070 C   0  0  1  0  0  0  0  0  0  0  0  0
    7.4760   38.4900   72.2070 O   0  0  0  0  0  0  0  0  0  0  0  0
    8.8250   36.4640   71.9420 C   0  0  0  0  0  0  0  0  0  0  0  0
    8.6580   35.1590   71.4030 C   0  0  0  0  0  0  0  0  0  0  0  0
    9.2260   34.0320   72.0320 C   0  0  0  0  0  0  0  0  0  0  0  0
    9.9670   34.1960   73.2170 C   0  0  0  0  0  0  0  0  0  0  0  0
   10.1390   35.4760   73.7820 C   0  0  0  0  0  0  0  0  0  0  0  0
    9.5780   36.5990   73.1450 C   0  0  0  0  0  0  0  0  0  0  0  0
   12.0497   44.1665   65.7788 H   0  0  0  0  0  0  0  0  0  0  0  0
   11.8726   43.4848   64.1264 H   0  0  0  0  0  0  0  0  0  0  0  0
   13.8941   42.2732   66.0579 H   0  0  0  0  0  0  0  0  0  0  0  0
   14.3079   43.8197   65.2432 H   0  0  0  0  0  0  0  0  0  0  0  0
   14.3906   42.7267   63.0934 H   0  0  0  0  0  0  0  0  0  0  0  0
   14.1878   40.3435   62.9332 H   0  0  0  0  0  0  0  0  0  0  0  0
   12.7688   41.0226   63.4176 H   0  0  0  0  0  0  0  0  0  0  0  0
   13.7186   40.2350   64.5072 H   0  0  0  0  0  0  0  0  0  0  0  0
    9.7281   42.9160   65.6579 H   0  0  0  0  0  0  0  0  0  0  0  0
    8.4855   42.9764   67.8352 H   0  0  0  0  0  0  0  0  0  0  0  0
    7.1895   41.5207   69.3886 H   0  0  0  0  0  0  0  0  0  0  0  0
    9.1207   38.0203   67.7642 H   0  0  0  0  0  0  0  0  0  0  0  0
   10.4001   39.4573   66.2018 H   0  0  0  0  0  0  0  0  0  0  0  0
    7.9123   36.9247   69.2629 H   0  0  0  0  0  0  0  0  0  0  0  0
    6.4159   37.1490   70.2310 H   0  0  0  0  0  0  0  0  0  0  0  0
    9.1546   38.3085   71.0330 H   0  0  0  0  0  0  0  0  0  0  0  0
    7.2902   39.3340   71.8126 H   0  0  0  0  0  0  0  0  0  0  0  0
    8.0841   35.0281   70.4927 H   0  0  0  0  0  0  0  0  0  0  0  0
    9.0925   33.0446   71.6050 H   0  0  0  0  0  0  0  0  0  0  0  0
   10.4089   33.3315   73.6990 H   0  0  0  0  0  0  0  0  0  0  0  0
   10.7001   35.5948   74.7018 H   0  0  0  0  0  0  0  0  0  0  0  0
    9.7210   37.5831   73.5765 H   0  0  0  0  0  0  0  0  0  0  0  0
  1  2  2  0  0  0  0
  2  3  1  0  0  0  0
  2 10  1  0  0  0  0
  3  4  1  0  0  0  0
  3 27  1  0  0  0  0
  3 28  1  0  0  0  0
  4  5  1  0  0  0  0
  4 29  1  0  0  0  0
  4 30  1  0  0  0  0
  5  6  1  0  0  0  0
  5  7  1  0  0  0  0
  5 31  1  6  0  0  0
  6 32  1  0  0  0  0
  6 33  1  0  0  0  0
  6 34  1  0  0  0  0
  7  8  1  0  0  0  0
  7  9  2  0  0  0  0
 10 11  1  0  0  0  0
 10 35  1  0  0  0  0
 11 12  2  0  0  0  0
 11 16  1  0  0  0  0
 12 13  1  0  0  0  0
 12 36  1  0  0  0  0
 13 14  2  0  0  0  0
 13 37  1  0  0  0  0
 14 15  1  0  0  0  0
 14 17  1  0  0  0  0
 15 16  2  0  0  0  0
 15 38  1  0  0  0  0
 16 39  1  0  0  0  0
 17 18  1  0  0  0  0
 18 19  1  0  0  0  0
 18 40  1  0  0  0  0
 18 41  1  0  0  0  0
 19 20  1  0  0  0  0
 19 21  1  0  0  0  0
 19 42  1  6  0  0  0
 20 43  1  0  0  0  0
 21 22  2  0  0  0  0
 21 26  1  0  0  0  0
 22 23  1  0  0  0  0
 22 44  1  0  0  0  0
 23 24  2  0  0  0  0
 23 45  1  0  0  0  0
 24 25  1  0  0  0  0
 24 46  1  0  0  0  0
 25 26  2  0  0  0  0
 25 47  1  0  0  0  0
 26 48  1  0  0  0  0
M  CHG  2   6   1   8  -1
M  END
