3cib_ligand
 OpenBabel08222323343D

 90 93  0  0  1  0  0  0  0  0999 V2000
   27.0260   10.8080   19.1370 F   0  0  0  0  0  0  0  0  0  0  0  0
   23.0830   13.3590   18.5300 F   0  0  0  0  0  0  0  0  0  0  0  0
   26.9670   15.4970   24.5220 C   0  0  0  0  0  0  0  0  0  0  0  0
   27.1190   14.2850   23.7900 C   0  0  0  0  0  0  0  0  0  0  0  0
   25.9710   13.4800   23.4990 C   0  0  0  0  0  0  0  0  0  0  0  0
   24.6770   13.8930   23.9290 C   0  0  0  0  0  0  0  0  0  0  0  0
   24.5280   15.1130   24.6560 C   0  0  0  0  0  0  0  0  0  0  0  0
   25.6760   15.9110   24.9520 C   0  0  0  0  0  0  0  0  0  0  0  0
   28.4540   13.8480   23.3730 C   0  0  0  0  0  0  0  0  0  0  0  0
   28.7000   13.6420   22.0440 N   0  0  0  0  0  0  0  0  0  0  0  0
   29.3310   13.6560   24.2090 O   0  0  0  0  0  0  0  0  0  0  0  0
   30.0440   13.1900   21.7000 C   0  0  0  0  0  0  0  0  0  0  0  0
   27.7220   13.8510   20.9750 C   0  0  0  0  0  0  0  0  0  0  0  0
   28.2290   14.9260   20.0160 C   0  0  0  0  0  0  0  0  0  0  0  0
   28.7940   16.1390   20.7520 C   0  0  0  0  0  0  0  0  0  0  0  0
   30.0120   11.7180   21.2070 C   0  0  0  0  0  0  0  0  0  0  0  0
   29.1930   10.7760   22.1100 C   0  0  0  0  0  0  0  0  0  0  0  0
   25.5260   17.1700   25.7040 C   0  0  0  0  0  0  0  0  0  0  0  0
   23.5000   13.0770   23.6160 C   0  0  0  0  0  0  0  0  0  0  0  0
   22.3790   13.5510   23.4840 O   0  0  0  0  0  0  0  0  0  0  0  0
   23.7510   11.7520   23.4810 N   0  0  0  0  0  0  0  0  0  0  0  0
   22.6520   10.8310   23.1420 C   0  0  2  0  0  0  0  0  0  0  0  0
   22.1250   10.0290   24.3540 C   0  0  2  0  0  0  0  0  0  0  0  0
   21.2030    9.0310   23.8910 O   0  0  0  0  0  0  0  0  0  0  0  0
   23.1230    9.8710   22.0330 C   0  0  0  0  0  0  0  0  0  0  0  0
   23.8000   10.6420   20.9170 C   0  0  0  0  0  0  0  0  0  0  0  0
   25.1440   10.3410   20.5500 C   0  0  0  0  0  0  0  0  0  0  0  0
   25.7740   11.0720   19.4940 C   0  0  0  0  0  0  0  0  0  0  0  0
   25.0680   12.0950   18.8120 C   0  0  0  0  0  0  0  0  0  0  0  0
   23.7330   12.3950   19.1770 C   0  0  0  0  0  0  0  0  0  0  0  0
   23.0940   11.6750   20.2240 C   0  0  0  0  0  0  0  0  0  0  0  0
   21.3970   10.8940   25.3900 C   0  0  1  0  0  0  0  0  0  0  0  0
   20.0980   11.4990   24.8210 C   0  0  0  0  0  0  0  0  0  0  0  0
   19.2700   12.1920   25.9060 C   0  0  2  0  0  0  0  0  0  0  0  0
   19.1350   11.3150   27.1530 C   0  0  0  0  0  0  0  0  0  0  0  0
   20.4750   10.8010   27.6430 C   0  0  0  0  0  0  0  0  0  0  0  0
   21.1010   10.0310   26.5560 N   0  3  0  0  0  0  0  0  0  0  0  0
   17.9180   12.7260   25.3740 C   0  0  0  0  0  0  0  0  0  0  0  0
   16.9520   11.5900   25.0960 C   0  0  0  0  0  0  0  0  0  0  0  0
   16.0490   11.1570   26.1120 C   0  0  0  0  0  0  0  0  0  0  0  0
   15.1370   10.0880   25.8540 C   0  0  0  0  0  0  0  0  0  0  0  0
   15.1310    9.4540   24.5780 C   0  0  0  0  0  0  0  0  0  0  0  0
   16.0330    9.8900   23.5650 C   0  0  0  0  0  0  0  0  0  0  0  0
   16.9420   10.9560   23.8210 C   0  0  0  0  0  0  0  0  0  0  0  0
   27.8352   16.1041   24.7515 H   0  0  0  0  0  0  0  0  0  0  0  0
   26.0869   12.5528   22.9494 H   0  0  0  0  0  0  0  0  0  0  0  0
   23.5454   15.4334   24.9829 H   0  0  0  0  0  0  0  0  0  0  0  0
   30.6883   13.2603   22.5887 H   0  0  0  0  0  0  0  0  0  0  0  0
   30.4484   13.8304   20.9023 H   0  0  0  0  0  0  0  0  0  0  0  0
   26.7655   14.1730   21.4124 H   0  0  0  0  0  0  0  0  0  0  0  0
   27.5752   12.9100   20.4246 H   0  0  0  0  0  0  0  0  0  0  0  0
   27.3939   15.2553   19.3802 H   0  0  0  0  0  0  0  0  0  0  0  0
   29.0208   14.4937   19.3866 H   0  0  0  0  0  0  0  0  0  0  0  0
   29.1445   16.8815   20.0200 H   0  0  0  0  0  0  0  0  0  0  0  0
   29.6357   15.8238   21.3862 H   0  0  0  0  0  0  0  0  0  0  0  0
   28.0088   16.5854   21.3799 H   0  0  0  0  0  0  0  0  0  0  0  0
   31.0457   11.3445   21.1637 H   0  0  0  0  0  0  0  0  0  0  0  0
   29.5730   11.6997   20.1986 H   0  0  0  0  0  0  0  0  0  0  0  0
   29.2186    9.7572   21.6960 H   0  0  0  0  0  0  0  0  0  0  0  0
   28.1515   11.1267   22.1568 H   0  0  0  0  0  0  0  0  0  0  0  0
   29.6242   10.7714   23.1219 H   0  0  0  0  0  0  0  0  0  0  0  0
   26.5123   17.6397   25.8331 H   0  0  0  0  0  0  0  0  0  0  0  0
   25.0890   16.9578   26.6909 H   0  0  0  0  0  0  0  0  0  0  0  0
   24.8649   17.8520   25.1492 H   0  0  0  0  0  0  0  0  0  0  0  0
   24.6783   11.4009   23.6109 H   0  0  0  0  0  0  0  0  0  0  0  0
   21.8172   11.4318   22.7519 H   0  0  0  0  0  0  0  0  0  0  0  0
   22.9799    9.5400   24.8438 H   0  0  0  0  0  0  0  0  0  0  0  0
   21.6474    8.4460   23.2886 H   0  0  0  0  0  0  0  0  0  0  0  0
   22.2539    9.3333   21.6262 H   0  0  0  0  0  0  0  0  0  0  0  0
   23.8353    9.1484   22.4578 H   0  0  0  0  0  0  0  0  0  0  0  0
   25.6873    9.5602   21.0698 H   0  0  0  0  0  0  0  0  0  0  0  0
   25.5493   12.6466   18.0125 H   0  0  0  0  0  0  0  0  0  0  0  0
   22.0714   11.9093   20.4969 H   0  0  0  0  0  0  0  0  0  0  0  0
   22.0579   11.7161   25.7021 H   0  0  0  0  0  0  0  0  0  0  0  0
   19.4963   10.6939   24.3740 H   0  0  0  0  0  0  0  0  0  0  0  0
   20.3578   12.2358   24.0466 H   0  0  0  0  0  0  0  0  0  0  0  0
   19.8440   13.0779   26.2153 H   0  0  0  0  0  0  0  0  0  0  0  0
   18.4927   10.4550   26.9128 H   0  0  0  0  0  0  0  0  0  0  0  0
   18.6694   11.9081   27.9539 H   0  0  0  0  0  0  0  0  0  0  0  0
   20.3268   10.1535   28.5198 H   0  0  0  0  0  0  0  0  0  0  0  0
   21.1204   11.6483   27.9178 H   0  0  0  0  0  0  0  0  0  0  0  0
   21.9608    9.6267   26.8925 H   0  0  0  0  0  0  0  0  0  0  0  0
   20.4733    9.2960   26.2701 H   0  0  0  0  0  0  0  0  0  0  0  0
   18.0938   13.2838   24.4424 H   0  0  0  0  0  0  0  0  0  0  0  0
   17.4763   13.3970   26.1254 H   0  0  0  0  0  0  0  0  0  0  0  0
   16.0548   11.6403   27.0823 H   0  0  0  0  0  0  0  0  0  0  0  0
   14.4514    9.7601   26.6270 H   0  0  0  0  0  0  0  0  0  0  0  0
   14.4416    8.6416   24.3784 H   0  0  0  0  0  0  0  0  0  0  0  0
   16.0274    9.4077   22.5942 H   0  0  0  0  0  0  0  0  0  0  0  0
   17.6254   11.2843   23.0463 H   0  0  0  0  0  0  0  0  0  0  0  0
  3 45  1  0  0  0  0
  4  3  2  0  0  0  0
  4  9  1  0  0  0  0
  5  4  1  0  0  0  0
  5 46  1  0  0  0  0
  6  5  2  0  0  0  0
  6  7  1  0  0  0  0
  7  8  2  0  0  0  0
  7 47  1  0  0  0  0
  8  3  1  0  0  0  0
  8 18  1  0  0  0  0
  9 10  1  0  0  0  0
  9 11  2  0  0  0  0
 10 12  1  0  0  0  0
 10 13  1  0  0  0  0
 12 16  1  0  0  0  0
 12 48  1  0  0  0  0
 12 49  1  0  0  0  0
 13 14  1  0  0  0  0
 13 50  1  0  0  0  0
 13 51  1  0  0  0  0
 14 15  1  0  0  0  0
 14 52  1  0  0  0  0
 14 53  1  0  0  0  0
 15 54  1  0  0  0  0
 15 55  1  0  0  0  0
 15 56  1  0  0  0  0
 16 17  1  0  0  0  0
 16 57  1  0  0  0  0
 16 58  1  0  0  0  0
 17 59  1  0  0  0  0
 17 60  1  0  0  0  0
 17 61  1  0  0  0  0
 18 62  1  0  0  0  0
 18 63  1  0  0  0  0
 18 64  1  0  0  0  0
 19  6  1  0  0  0  0
 19 20  2  0  0  0  0
 21 19  1  0  0  0  0
 21 65  1  0  0  0  0
 22 21  1  0  0  0  0
 22 23  1  0  0  0  0
 22 66  1  6  0  0  0
 23 24  1  0  0  0  0
 23 32  1  0  0  0  0
 23 67  1  1  0  0  0
 24 68  1  0  0  0  0
 25 22  1  0  0  0  0
 25 69  1  0  0  0  0
 25 70  1  0  0  0  0
 26 25  1  0  0  0  0
 26 31  1  0  0  0  0
 27 26  2  0  0  0  0
 27 71  1  0  0  0  0
 28  1  1  0  0  0  0
 28 27  1  0  0  0  0
 29 28  2  0  0  0  0
 29 30  1  0  0  0  0
 29 72  1  0  0  0  0
 30  2  1  0  0  0  0
 30 31  2  0  0  0  0
 31 73  1  0  0  0  0
 32 33  1  0  0  0  0
 32 37  1  0  0  0  0
 32 74  1  1  0  0  0
 33 34  1  0  0  0  0
 33 75  1  0  0  0  0
 33 76  1  0  0  0  0
 34 35  1  0  0  0  0
 34 38  1  0  0  0  0
 34 77  1  1  0  0  0
 35 36  1  0  0  0  0
 35 78  1  0  0  0  0
 35 79  1  0  0  0  0
 36 37  1  0  0  0  0
 36 80  1  0  0  0  0
 36 81  1  0  0  0  0
 37 82  1  0  0  0  0
 37 83  1  0  0  0  0
 38 39  1  0  0  0  0
 38 84  1  0  0  0  0
 38 85  1  0  0  0  0
 39 40  2  0  0  0  0
 39 44  1  0  0  0  0
 40 41  1  0  0  0  0
 40 86  1  0  0  0  0
 41 42  2  0  0  0  0
 41 87  1  0  0  0  0
 42 43  1  0  0  0  0
 42 88  1  0  0  0  0
 43 44  2  0  0  0  0
 43 89  1  0  0  0  0
 44 90  1  0  0  0  0
M  CHG  1  37   1
M  END
