3cjf_ligand
 OpenBabel08222323343D

 52 55  0  0  0  0  0  0  0  0999 V2000
   15.3790   18.8480   17.9850 N   0  0  0  0  0  0  0  0  0  0  0  0
   17.9870   15.1760   16.3690 N   0  0  0  0  0  0  0  0  0  0  0  0
   16.3980   19.3970   18.7970 C   0  0  0  0  0  0  0  0  0  0  0  0
   15.5220   17.6990   17.1860 C   0  0  0  0  0  0  0  0  0  0  0  0
   14.5950   16.2570   15.7250 C   0  0  0  0  0  0  0  0  0  0  0  0
   15.7470   15.5170   15.6700 C   0  0  0  0  0  0  0  0  0  0  0  0
   16.8080   15.9380   16.4310 C   0  0  0  0  0  0  0  0  0  0  0  0
   19.7310   16.5750   17.3190 C   0  0  0  0  0  0  0  0  0  0  0  0
   22.2400   15.5990   19.9220 C   0  0  0  0  0  0  0  0  0  0  0  0
   20.5610   14.5650   18.8780 C   0  0  0  0  0  0  0  0  0  0  0  0
   16.4030   20.7610   19.0040 C   0  0  0  0  0  0  0  0  0  0  0  0
   18.3630   20.6010   20.3790 C   0  0  0  0  0  0  0  0  0  0  0  0
   18.7170   21.7510   22.2890 C   0  0  0  0  0  0  0  0  0  0  0  0
   18.6690   17.6660   21.7500 C   0  0  0  0  0  0  0  0  0  0  0  0
   19.3400   18.4480   20.7550 O   0  0  0  0  0  0  0  0  0  0  0  0
   18.3530   19.2350   20.1760 C   0  0  0  0  0  0  0  0  0  0  0  0
   17.3840   18.6370   19.3980 C   0  0  0  0  0  0  0  0  0  0  0  0
   14.4490   17.3490   16.4680 N   0  0  0  0  0  0  0  0  0  0  0  0
   19.0810   15.3590   17.2550 C   0  0  0  0  0  0  0  0  0  0  0  0
   20.7980   16.8180   18.1540 C   0  0  0  0  0  0  0  0  0  0  0  0
   21.2180   15.7770   18.9510 C   0  0  0  0  0  0  0  0  0  0  0  0
   23.2350   16.5840   20.3940 C   0  0  0  0  0  0  0  0  0  0  0  0
   22.2240   14.3570   20.4270 N   0  0  0  0  0  0  0  0  0  0  0  0
   21.2020   13.7550   19.7780 N   0  0  0  0  0  0  0  0  0  0  0  0
   19.4950   14.3120   18.0490 C   0  0  0  0  0  0  0  0  0  0  0  0
   16.6880   17.0350   17.1810 N   0  0  0  0  0  0  0  0  0  0  0  0
   17.3710   21.3620   19.7860 C   0  0  0  0  0  0  0  0  0  0  0  0
   17.3500   22.7350   19.9620 O   0  0  0  0  0  0  0  0  0  0  0  0
   16.0040   23.1410   20.1480 C   0  0  0  0  0  0  0  0  0  0  0  0
   19.3740   21.1590   21.1630 O   0  0  0  0  0  0  0  0  0  0  0  0
   14.4656   19.3239   17.9780 H   0  0  0  0  0  0  0  0  0  0  0  0
   18.0612   14.4480   15.6442 H   0  0  0  0  0  0  0  0  0  0  0  0
   13.7519   15.9320   15.1262 H   0  0  0  0  0  0  0  0  0  0  0  0
   15.8173   14.6318   15.0483 H   0  0  0  0  0  0  0  0  0  0  0  0
   19.3839   17.3787   16.6798 H   0  0  0  0  0  0  0  0  0  0  0  0
   15.6341   21.3720   18.5452 H   0  0  0  0  0  0  0  0  0  0  0  0
   19.4660   22.2113   22.9502 H   0  0  0  0  0  0  0  0  0  0  0  0
   18.1669   20.9754   22.8421 H   0  0  0  0  0  0  0  0  0  0  0  0
   18.0134   22.5211   21.9399 H   0  0  0  0  0  0  0  0  0  0  0  0
   19.3959   17.0124   22.2544 H   0  0  0  0  0  0  0  0  0  0  0  0
   17.8932   17.0506   21.2711 H   0  0  0  0  0  0  0  0  0  0  0  0
   18.2026   18.3344   22.4887 H   0  0  0  0  0  0  0  0  0  0  0  0
   17.3956   17.5623   19.2566 H   0  0  0  0  0  0  0  0  0  0  0  0
   21.2857   17.7857   18.1827 H   0  0  0  0  0  0  0  0  0  0  0  0
   23.8811   16.1178   21.1524 H   0  0  0  0  0  0  0  0  0  0  0  0
   22.7155   17.4473   20.8355 H   0  0  0  0  0  0  0  0  0  0  0  0
   23.8492   16.9202   19.5456 H   0  0  0  0  0  0  0  0  0  0  0  0
   22.8458   13.9549   21.1430 H   0  0  0  0  0  0  0  0  0  0  0  0
   19.0076   13.3441   18.0213 H   0  0  0  0  0  0  0  0  0  0  0  0
   15.9661   24.2312   20.2899 H   0  0  0  0  0  0  0  0  0  0  0  0
   15.5896   22.6411   21.0359 H   0  0  0  0  0  0  0  0  0  0  0  0
   15.4123   22.8657   19.2625 H   0  0  0  0  0  0  0  0  0  0  0  0
  1  3  1  0  0  0  0
  1 31  1  0  0  0  0
  2  7  1  0  0  0  0
  2 32  1  0  0  0  0
  3 11  2  0  0  0  0
  3 17  1  0  0  0  0
  4  1  1  0  0  0  0
  4 18  2  0  0  0  0
  5 18  1  0  0  0  0
  5 33  1  0  0  0  0
  6  5  2  0  0  0  0
  6 34  1  0  0  0  0
  7  6  1  0  0  0  0
  7 26  2  0  0  0  0
  8 20  2  0  0  0  0
  8 35  1  0  0  0  0
  9 22  1  0  0  0  0
  9 23  1  0  0  0  0
 10 21  1  0  0  0  0
 10 24  2  0  0  0  0
 11 27  1  0  0  0  0
 11 36  1  0  0  0  0
 12 30  1  0  0  0  0
 13 37  1  0  0  0  0
 13 38  1  0  0  0  0
 13 39  1  0  0  0  0
 14 40  1  0  0  0  0
 14 41  1  0  0  0  0
 14 42  1  0  0  0  0
 15 14  1  0  0  0  0
 16 12  1  0  0  0  0
 16 15  1  0  0  0  0
 17 16  2  0  0  0  0
 17 43  1  0  0  0  0
 19  2  1  0  0  0  0
 19  8  1  0  0  0  0
 19 25  2  0  0  0  0
 20 21  1  0  0  0  0
 20 44  1  0  0  0  0
 21  9  2  0  0  0  0
 22 45  1  0  0  0  0
 22 46  1  0  0  0  0
 22 47  1  0  0  0  0
 23 24  1  0  0  0  0
 23 48  1  0  0  0  0
 25 10  1  0  0  0  0
 25 49  1  0  0  0  0
 26  4  1  0  0  0  0
 27 12  2  0  0  0  0
 27 28  1  0  0  0  0
 28 29  1  0  0  0  0
 29 50  1  0  0  0  0
 29 51  1  0  0  0  0
 29 52  1  0  0  0  0
 30 13  1  0  0  0  0
M  END
