3ck8_ligand
 OpenBabel08222323343D

147154  0  0  1  0  0  0  0  0999 V2000
   18.4400  -29.2010   -2.0370 C   0  0  2  0  0  0  0  0  0  0  0  0
   17.9100  -29.9880   -3.2480 C   0  0  2  0  0  0  0  0  0  0  0  0
   18.7570  -31.1280   -3.4360 O   0  0  0  0  0  0  0  0  0  0  0  0
   17.9210  -29.1130   -4.5220 C   0  0  1  0  0  0  0  0  0  0  0  0
   17.2250  -29.7720   -5.5720 O   0  0  0  0  0  0  0  0  0  0  0  0
   17.2870  -27.6970   -4.2940 C   0  0  2  0  0  0  0  0  0  0  0  0
   17.7460  -26.9650   -5.4410 O   0  0  0  0  0  0  0  0  0  0  0  0
   17.7840  -27.0330   -2.9510 C   0  0  2  0  0  0  0  0  0  0  0  0
   17.7150  -27.9740   -1.8660 O   0  0  0  0  0  0  0  0  0  0  0  0
   17.0020  -25.7790   -2.5320 C   0  0  0  0  0  0  0  0  0  0  0  0
   17.8170  -24.9940   -1.6800 O   0  0  0  0  0  0  0  0  0  0  0  0
   16.9390  -25.8810   -5.9040 C   0  0  2  0  0  0  0  0  0  0  0  0
   16.7900  -25.9450   -7.4450 C   0  0  2  0  0  0  0  0  0  0  0  0
   16.3190  -27.2210   -7.8400 O   0  0  0  0  0  0  0  0  0  0  0  0
   18.1300  -25.6550   -8.1400 C   0  0  1  0  0  0  0  0  0  0  0  0
   17.9020  -25.5750   -9.5470 O   0  0  0  0  0  0  0  0  0  0  0  0
   18.7330  -24.3200   -7.6360 C   0  0  2  0  0  0  0  0  0  0  0  0
   20.0010  -24.1850   -8.2610 O   0  0  0  0  0  0  0  0  0  0  0  0
   18.8270  -24.3560   -6.0930 C   0  0  2  0  0  0  0  0  0  0  0  0
   17.5110  -24.6010   -5.5490 O   0  0  0  0  0  0  0  0  0  0  0  0
   19.2820  -23.0570   -5.4450 C   0  0  0  0  0  0  0  0  0  0  0  0
   19.8730  -23.3630   -4.2020 O   0  0  0  0  0  0  0  0  0  0  0  0
   20.0920  -23.0700   -9.1540 C   0  0  2  0  0  0  0  0  0  0  0  0
   21.0910  -23.3540  -10.2950 C   0  0  2  0  0  0  0  0  0  0  0  0
   20.7920  -24.6200  -10.8560 O   0  0  0  0  0  0  0  0  0  0  0  0
   22.5490  -23.3320   -9.8010 C   0  0  1  0  0  0  0  0  0  0  0  0
   23.4230  -23.3760  -10.9300 O   0  0  0  0  0  0  0  0  0  0  0  0
   22.8520  -22.0450   -8.9870 C   0  0  2  0  0  0  0  0  0  0  0  0
   24.1700  -22.1790   -8.4730 O   0  0  0  0  0  0  0  0  0  0  0  0
   21.8040  -21.9240   -7.8570 C   0  0  2  0  0  0  0  0  0  0  0  0
   20.4820  -21.8700   -8.4410 O   0  0  0  0  0  0  0  0  0  0  0  0
   21.9350  -20.6810   -6.9580 C   0  0  0  0  0  0  0  0  0  0  0  0
   21.9010  -19.5080   -7.7510 O   0  0  0  0  0  0  0  0  0  0  0  0
   25.0810  -21.1530   -8.8770 C   0  0  2  0  0  0  0  0  0  0  0  0
   26.4010  -21.7450   -9.4080 C   0  0  2  0  0  0  0  0  0  0  0  0
   26.1510  -22.6450  -10.4800 O   0  0  0  0  0  0  0  0  0  0  0  0
   27.1640  -22.4970   -8.2920 C   0  0  1  0  0  0  0  0  0  0  0  0
   28.4680  -22.8590   -8.7710 O   0  0  0  0  0  0  0  0  0  0  0  0
   27.3260  -21.6560   -6.9980 C   0  0  2  0  0  0  0  0  0  0  0  0
   27.5270  -22.5780   -5.9190 O   0  0  0  0  0  0  0  0  0  0  0  0
   26.0670  -20.8080   -6.6300 C   0  0  2  0  0  0  0  0  0  0  0  0
   25.3240  -20.2870   -7.7480 O   0  0  0  0  0  0  0  0  0  0  0  0
   26.4110  -19.6180   -5.7300 C   0  0  0  0  0  0  0  0  0  0  0  0
   25.5260  -19.6330   -4.6300 O   0  0  0  0  0  0  0  0  0  0  0  0
   28.6420  -22.2550   -5.0580 C   0  0  2  0  0  0  0  0  0  0  0  0
   29.6300  -23.4360   -5.0710 C   0  0  2  0  0  0  0  0  0  0  0  0
   30.0800  -23.6740   -6.4010 O   0  0  0  0  0  0  0  0  0  0  0  0
   28.9510  -24.7080   -4.5270 C   0  0  1  0  0  0  0  0  0  0  0  0
   29.9230  -25.7460   -4.4080 O   0  0  0  0  0  0  0  0  0  0  0  0
   28.2920  -24.4600   -3.1410 C   0  0  2  0  0  0  0  0  0  0  0  0
   27.4750  -25.5500   -2.7510 O   0  0  0  0  0  0  0  0  0  0  0  0
   27.4510  -23.1380   -3.1340 C   0  0  2  0  0  0  0  0  0  0  0  0
   28.2110  -22.0370   -3.6920 O   0  0  0  0  0  0  0  0  0  0  0  0
   26.9940  -22.7150   -1.7240 C   0  0  0  0  0  0  0  0  0  0  0  0
   28.1120  -22.6790   -0.8460 O   0  0  0  0  0  0  0  0  0  0  0  0
   27.9170  -26.3460   -1.6530 C   0  0  2  0  0  0  0  0  0  0  0  0
   27.8200  -27.8450   -2.0690 C   0  0  2  0  0  0  0  0  0  0  0  0
   28.4450  -28.0340   -3.3430 O   0  0  0  0  0  0  0  0  0  0  0  0
   26.3600  -28.3300   -2.2160 C   0  0  1  0  0  0  0  0  0  0  0  0
   26.3380  -29.7420   -2.3940 O   0  0  0  0  0  0  0  0  0  0  0  0
   25.5140  -27.9640   -0.9840 C   0  0  2  0  0  0  0  0  0  0  0  0
   24.1530  -28.2600   -1.2810 O   0  0  0  0  0  0  0  0  0  0  0  0
   25.6920  -26.4500   -0.6810 C   0  0  2  0  0  0  0  0  0  0  0  0
   27.0810  -26.1100   -0.4940 O   0  0  0  0  0  0  0  0  0  0  0  0
   24.9210  -25.9710    0.5650 C   0  0  0  0  0  0  0  0  0  0  0  0
   25.2440  -26.7980    1.6660 O   0  0  0  0  0  0  0  0  0  0  0  0
   23.4900  -29.0440   -0.2870 C   0  0  2  0  0  0  0  0  0  0  0  0
   22.9440  -30.3740   -0.8390 C   0  0  2  0  0  0  0  0  0  0  0  0
   24.0180  -31.0950   -1.4360 O   0  0  0  0  0  0  0  0  0  0  0  0
   21.8720  -30.1220   -1.8850 C   0  0  1  0  0  0  0  0  0  0  0  0
   21.4440  -31.3850   -2.3990 O   0  0  0  0  0  0  0  0  0  0  0  0
   20.6910  -29.3880   -1.2270 C   0  0  2  0  0  0  0  0  0  0  0  0
   19.8320  -28.9230   -2.2670 O   0  0  0  0  0  0  0  0  0  0  0  0
   21.1470  -28.1460   -0.4120 C   0  0  2  0  0  0  0  0  0  0  0  0
   22.4450  -28.1980    0.2470 O   0  0  0  0  0  0  0  0  0  0  0  0
   20.1300  -27.7210    0.6380 C   0  0  0  0  0  0  0  0  0  0  0  0
   20.0970  -26.3110    0.6210 O   0  0  0  0  0  0  0  0  0  0  0  0
   18.3308  -29.8109   -1.1281 H   0  0  0  0  0  0  0  0  0  0  0  0
   16.8805  -30.3196   -3.0480 H   0  0  0  0  0  0  0  0  0  0  0  0
   19.6470  -30.8369   -3.5959 H   0  0  0  0  0  0  0  0  0  0  0  0
   18.9684  -28.9731   -4.8275 H   0  0  0  0  0  0  0  0  0  0  0  0
   17.2374  -29.2266   -6.3498 H   0  0  0  0  0  0  0  0  0  0  0  0
   16.1888  -27.7581   -4.2795 H   0  0  0  0  0  0  0  0  0  0  0  0
   18.8345  -26.7421   -3.0987 H   0  0  0  0  0  0  0  0  0  0  0  0
   16.0873  -26.0755   -1.9978 H   0  0  0  0  0  0  0  0  0  0  0  0
   16.7325  -25.1962   -3.4251 H   0  0  0  0  0  0  0  0  0  0  0  0
   17.3401  -24.2158   -1.4162 H   0  0  0  0  0  0  0  0  0  0  0  0
   15.9440  -25.9649   -5.4425 H   0  0  0  0  0  0  0  0  0  0  0  0
   16.0592  -25.1845   -7.7575 H   0  0  0  0  0  0  0  0  0  0  0  0
   16.9366  -27.8861   -7.5595 H   0  0  0  0  0  0  0  0  0  0  0  0
   18.8351  -26.4719   -7.9267 H   0  0  0  0  0  0  0  0  0  0  0  0
   18.7230  -25.3959   -9.9900 H   0  0  0  0  0  0  0  0  0  0  0  0
   18.0892  -23.4790   -7.9331 H   0  0  0  0  0  0  0  0  0  0  0  0
   19.5171  -25.1632   -5.8064 H   0  0  0  0  0  0  0  0  0  0  0  0
   18.4168  -22.3951   -5.2921 H   0  0  0  0  0  0  0  0  0  0  0  0
   20.0169  -22.5563   -6.0925 H   0  0  0  0  0  0  0  0  0  0  0  0
   20.6177  -23.9366   -4.3394 H   0  0  0  0  0  0  0  0  0  0  0  0
   19.0991  -22.9031   -9.5969 H   0  0  0  0  0  0  0  0  0  0  0  0
   20.9731  -22.5803  -11.0680 H   0  0  0  0  0  0  0  0  0  0  0  0
   20.8688  -25.2884  -10.1854 H   0  0  0  0  0  0  0  0  0  0  0  0
   22.7254  -24.2110   -9.1636 H   0  0  0  0  0  0  0  0  0  0  0  0
   24.3248  -23.3627  -10.6316 H   0  0  0  0  0  0  0  0  0  0  0  0
   22.7950  -21.1584   -9.6356 H   0  0  0  0  0  0  0  0  0  0  0  0
   21.8904  -22.8184   -7.2226 H   0  0  0  0  0  0  0  0  0  0  0  0
   22.8888  -20.7246   -6.4117 H   0  0  0  0  0  0  0  0  0  0  0  0
   21.1018  -20.6604   -6.2401 H   0  0  0  0  0  0  0  0  0  0  0  0
   21.0770  -19.4695   -8.2223 H   0  0  0  0  0  0  0  0  0  0  0  0
   24.6172  -20.5656   -9.6831 H   0  0  0  0  0  0  0  0  0  0  0  0
   27.0302  -20.9204   -9.7741 H   0  0  0  0  0  0  0  0  0  0  0  0
   26.9749  -22.9990  -10.7935 H   0  0  0  0  0  0  0  0  0  0  0  0
   26.6034  -23.4106   -8.0451 H   0  0  0  0  0  0  0  0  0  0  0  0
   28.9384  -23.3210   -8.0871 H   0  0  0  0  0  0  0  0  0  0  0  0
   28.1941  -20.9892   -7.1065 H   0  0  0  0  0  0  0  0  0  0  0  0
   25.3954  -21.4758   -6.0706 H   0  0  0  0  0  0  0  0  0  0  0  0
   26.2932  -18.6792   -6.2911 H   0  0  0  0  0  0  0  0  0  0  0  0
   27.4486  -19.7057   -5.3755 H   0  0  0  0  0  0  0  0  0  0  0  0
   25.7223  -18.9011   -4.0571 H   0  0  0  0  0  0  0  0  0  0  0  0
   29.1384  -21.3475   -5.4321 H   0  0  0  0  0  0  0  0  0  0  0  0
   30.4930  -23.1885   -4.4355 H   0  0  0  0  0  0  0  0  0  0  0  0
   29.3355  -23.8805   -6.9539 H   0  0  0  0  0  0  0  0  0  0  0  0
   28.1715  -25.0225   -5.2365 H   0  0  0  0  0  0  0  0  0  0  0  0
   30.2991  -25.9255   -5.2617 H   0  0  0  0  0  0  0  0  0  0  0  0
   29.0984  -24.3557   -2.4002 H   0  0  0  0  0  0  0  0  0  0  0  0
   26.5578  -23.3052   -3.7539 H   0  0  0  0  0  0  0  0  0  0  0  0
   26.2565  -23.4387   -1.3467 H   0  0  0  0  0  0  0  0  0  0  0  0
   26.5358  -21.7162   -1.7729 H   0  0  0  0  0  0  0  0  0  0  0  0
   28.7487  -22.0535   -1.1713 H   0  0  0  0  0  0  0  0  0  0  0  0
   28.9594  -26.0936   -1.4088 H   0  0  0  0  0  0  0  0  0  0  0  0
   28.3298  -28.4548   -1.3086 H   0  0  0  0  0  0  0  0  0  0  0  0
   28.0060  -27.4975   -3.9925 H   0  0  0  0  0  0  0  0  0  0  0  0
   25.9189  -27.8494   -3.1017 H   0  0  0  0  0  0  0  0  0  0  0  0
   25.4387  -30.0348   -2.4838 H   0  0  0  0  0  0  0  0  0  0  0  0
   25.8402  -28.5533   -0.1143 H   0  0  0  0  0  0  0  0  0  0  0  0
   25.3110  -25.8953   -1.5511 H   0  0  0  0  0  0  0  0  0  0  0  0
   23.8397  -26.0253    0.3705 H   0  0  0  0  0  0  0  0  0  0  0  0
   25.2010  -24.9318    0.7924 H   0  0  0  0  0  0  0  0  0  0  0  0
   26.1780  -26.7504    1.8331 H   0  0  0  0  0  0  0  0  0  0  0  0
   24.2039  -29.2831    0.5150 H   0  0  0  0  0  0  0  0  0  0  0  0
   22.5155  -30.9627   -0.0145 H   0  0  0  0  0  0  0  0  0  0  0  0
   23.6924  -31.9183   -1.7804 H   0  0  0  0  0  0  0  0  0  0  0  0
   22.2798  -29.5073   -2.7010 H   0  0  0  0  0  0  0  0  0  0  0  0
   20.7720  -31.2469   -3.0561 H   0  0  0  0  0  0  0  0  0  0  0  0
   20.1518  -30.0826   -0.5661 H   0  0  0  0  0  0  0  0  0  0  0  0
   21.2118  -27.3313   -1.1482 H   0  0  0  0  0  0  0  0  0  0  0  0
   20.4368  -28.0813    1.6310 H   0  0  0  0  0  0  0  0  0  0  0  0
   19.1378  -28.1266    0.3912 H   0  0  0  0  0  0  0  0  0  0  0  0
   19.4711  -26.0022    1.2655 H   0  0  0  0  0  0  0  0  0  0  0  0
  1  2  1  0  0  0  0
  1  9  1  0  0  0  0
  1 73  1  0  0  0  0
  1 78  1  1  0  0  0
  2  3  1  0  0  0  0
  2  4  1  0  0  0  0
  2 79  1  1  0  0  0
  3 80  1  0  0  0  0
  4  5  1  0  0  0  0
  4  6  1  0  0  0  0
  4 81  1  6  0  0  0
  5 82  1  0  0  0  0
  6  7  1  0  0  0  0
  6  8  1  0  0  0  0
  6 83  1  6  0  0  0
  7 12  1  0  0  0  0
  8  9  1  0  0  0  0
  8 10  1  0  0  0  0
  8 84  1  6  0  0  0
 10 11  1  0  0  0  0
 10 85  1  0  0  0  0
 10 86  1  0  0  0  0
 11 87  1  0  0  0  0
 12 13  1  0  0  0  0
 12 20  1  0  0  0  0
 12 88  1  1  0  0  0
 13 14  1  0  0  0  0
 13 15  1  0  0  0  0
 13 89  1  6  0  0  0
 14 90  1  0  0  0  0
 15 16  1  0  0  0  0
 15 17  1  0  0  0  0
 15 91  1  1  0  0  0
 16 92  1  0  0  0  0
 17 18  1  0  0  0  0
 17 19  1  0  0  0  0
 17 93  1  6  0  0  0
 18 23  1  0  0  0  0
 19 20  1  0  0  0  0
 19 21  1  0  0  0  0
 19 94  1  1  0  0  0
 21 22  1  0  0  0  0
 21 95  1  0  0  0  0
 21 96  1  0  0  0  0
 22 97  1  0  0  0  0
 23 24  1  0  0  0  0
 23 31  1  0  0  0  0
 23 98  1  6  0  0  0
 24 25  1  0  0  0  0
 24 26  1  0  0  0  0
 24 99  1  6  0  0  0
 25100  1  0  0  0  0
 26 27  1  0  0  0  0
 26 28  1  0  0  0  0
 26101  1  1  0  0  0
 27102  1  0  0  0  0
 28 29  1  0  0  0  0
 28 30  1  0  0  0  0
 28103  1  6  0  0  0
 29 34  1  0  0  0  0
 30 31  1  0  0  0  0
 30 32  1  0  0  0  0
 30104  1  1  0  0  0
 32 33  1  0  0  0  0
 32105  1  0  0  0  0
 32106  1  0  0  0  0
 33107  1  0  0  0  0
 34 35  1  0  0  0  0
 34 42  1  0  0  0  0
 34108  1  6  0  0  0
 35 36  1  0  0  0  0
 35 37  1  0  0  0  0
 35109  1  6  0  0  0
 36110  1  0  0  0  0
 37 38  1  0  0  0  0
 37 39  1  0  0  0  0
 37111  1  1  0  0  0
 38112  1  0  0  0  0
 39 40  1  0  0  0  0
 39 41  1  0  0  0  0
 39113  1  6  0  0  0
 40 45  1  0  0  0  0
 41 42  1  0  0  0  0
 41 43  1  0  0  0  0
 41114  1  1  0  0  0
 43 44  1  0  0  0  0
 43115  1  0  0  0  0
 43116  1  0  0  0  0
 44117  1  0  0  0  0
 45 46  1  0  0  0  0
 45 53  1  0  0  0  0
 45118  1  6  0  0  0
 46 47  1  0  0  0  0
 46 48  1  0  0  0  0
 46119  1  1  0  0  0
 47120  1  0  0  0  0
 48 49  1  0  0  0  0
 48 50  1  0  0  0  0
 48121  1  6  0  0  0
 49122  1  0  0  0  0
 50 51  1  0  0  0  0
 50 52  1  0  0  0  0
 50123  1  1  0  0  0
 51 56  1  0  0  0  0
 52 53  1  0  0  0  0
 52 54  1  0  0  0  0
 52124  1  6  0  0  0
 54 55  1  0  0  0  0
 54125  1  0  0  0  0
 54126  1  0  0  0  0
 55127  1  0  0  0  0
 56 57  1  0  0  0  0
 56 64  1  0  0  0  0
 56128  1  1  0  0  0
 57 58  1  0  0  0  0
 57 59  1  0  0  0  0
 57129  1  1  0  0  0
 58130  1  0  0  0  0
 59 60  1  0  0  0  0
 59 61  1  0  0  0  0
 59131  1  6  0  0  0
 60132  1  0  0  0  0
 61 62  1  0  0  0  0
 61 63  1  0  0  0  0
 61133  1  1  0  0  0
 62 67  1  0  0  0  0
 63 64  1  0  0  0  0
 63 65  1  0  0  0  0
 63134  1  6  0  0  0
 65 66  1  0  0  0  0
 65135  1  0  0  0  0
 65136  1  0  0  0  0
 66137  1  0  0  0  0
 67 68  1  0  0  0  0
 67 75  1  0  0  0  0
 67138  1  1  0  0  0
 68 69  1  0  0  0  0
 68 70  1  0  0  0  0
 68139  1  1  0  0  0
 69140  1  0  0  0  0
 70 71  1  0  0  0  0
 70 72  1  0  0  0  0
 70141  1  6  0  0  0
 71142  1  0  0  0  0
 72 73  1  0  0  0  0
 72 74  1  0  0  0  0
 72143  1  1  0  0  0
 74 75  1  0  0  0  0
 74 76  1  0  0  0  0
 74144  1  6  0  0  0
 76 77  1  0  0  0  0
 76145  1  0  0  0  0
 76146  1  0  0  0  0
 77147  1  0  0  0  0
M  END
