3cqw_ligand
 OpenBabel08222323343D

 30 33  0  0  0  0  0  0  0  0999 V2000
    3.5050    3.6640   15.7790 C   0  0  0  0  0  0  0  0  0  0  0  0
    4.6600    5.6530   16.1330 C   0  0  0  0  0  0  0  0  0  0  0  0
    4.6550    2.8970   16.0700 C   0  0  0  0  0  0  0  0  0  0  0  0
    8.1540    3.3920   19.3700 C   0  0  0  0  0  0  0  0  0  0  0  0
    2.4620    2.7910   15.5040 N   0  0  0  0  0  0  0  0  0  0  0  0
    8.4480    4.4160   18.3160 C   0  0  0  0  0  0  0  0  0  0  0  0
    5.1890    0.0340   16.0180 Cl  0  0  0  0  0  0  0  0  0  0  0  0
    4.2380    1.4870   15.8800 C   0  0  0  0  0  0  0  0  0  0  0  0
    2.9290    1.5050   15.5760 C   0  0  0  0  0  0  0  0  0  0  0  0
    3.5360    4.9980   15.8130 N   0  0  0  0  0  0  0  0  0  0  0  0
    5.8100    3.6280   16.4240 C   0  0  0  0  0  0  0  0  0  0  0  0
    5.7690    4.9660   16.3990 N   0  0  0  0  0  0  0  0  0  0  0  0
    7.0580    3.0390   16.7200 N   0  0  0  0  0  0  0  0  0  0  0  0
    7.1640    1.8790   17.6360 C   0  0  0  0  0  0  0  0  0  0  0  0
    7.5980    2.2150   19.0420 C   0  0  0  0  0  0  0  0  0  0  0  0
    7.6210    1.4130   20.1620 N   0  0  0  0  0  0  0  0  0  0  0  0
    8.1940    2.0980   21.1470 C   0  0  0  0  0  0  0  0  0  0  0  0
    8.5560    3.3120   20.6860 N   0  0  0  0  0  0  0  0  0  0  0  0
    8.2690    3.8790   16.8780 C   0  0  0  0  0  0  0  0  0  0  0  0
    4.6665    6.7362   16.1751 H   0  0  0  0  0  0  0  0  0  0  0  0
    1.4943    3.0652   15.2819 H   0  0  0  0  0  0  0  0  0  0  0  0
    9.4882    4.7527   18.4363 H   0  0  0  0  0  0  0  0  0  0  0  0
    7.7678    5.2688   18.4578 H   0  0  0  0  0  0  0  0  0  0  0  0
    2.3213    0.6169   15.4093 H   0  0  0  0  0  0  0  0  0  0  0  0
    7.8952    1.1750   17.2121 H   0  0  0  0  0  0  0  0  0  0  0  0
    6.1776    1.3951   17.6897 H   0  0  0  0  0  0  0  0  0  0  0  0
    8.3464    1.7365   22.1629 H   0  0  0  0  0  0  0  0  0  0  0  0
    9.0438    4.0456   21.2196 H   0  0  0  0  0  0  0  0  0  0  0  0
    9.1507    3.2754   16.6169 H   0  0  0  0  0  0  0  0  0  0  0  0
    8.1940    4.7348   16.1910 H   0  0  0  0  0  0  0  0  0  0  0  0
  1  5  1  0  0  0  0
  1 10  1  0  0  0  0
  2 10  2  0  0  0  0
  2 20  1  0  0  0  0
  3  1  2  0  0  0  0
  3  8  1  0  0  0  0
  4 15  2  0  0  0  0
  4 18  1  0  0  0  0
  5 21  1  0  0  0  0
  6  4  1  0  0  0  0
  6 22  1  0  0  0  0
  6 23  1  0  0  0  0
  8  7  1  0  0  0  0
  8  9  2  0  0  0  0
  9  5  1  0  0  0  0
  9 24  1  0  0  0  0
 11  3  1  0  0  0  0
 11 12  2  0  0  0  0
 12  2  1  0  0  0  0
 13 11  1  0  0  0  0
 13 14  1  0  0  0  0
 13 19  1  0  0  0  0
 14 15  1  0  0  0  0
 14 25  1  0  0  0  0
 14 26  1  0  0  0  0
 15 16  1  0  0  0  0
 16 17  2  0  0  0  0
 17 18  1  0  0  0  0
 17 27  1  0  0  0  0
 18 28  1  0  0  0  0
 19  6  1  0  0  0  0
 19 29  1  0  0  0  0
 19 30  1  0  0  0  0
M  END
