3cr5_ligand
 OpenBabel08222323343D

 51 52  0  0  0  0  0  0  0  0999 V2000
   -0.9960    2.6430   24.6340 C   0  0  0  0  0  0  0  0  0  0  0  0
    0.1760    2.0610   25.0990 C   0  0  0  0  0  0  0  0  0  0  0  0
    1.1700    2.7980   25.7200 C   0  0  0  0  0  0  0  0  0  0  0  0
    0.9830    4.1570   25.8680 C   0  0  0  0  0  0  0  0  0  0  0  0
   -0.1850    4.7470   25.4200 C   0  0  0  0  0  0  0  0  0  0  0  0
   -1.1710    4.0020   24.8010 C   0  0  0  0  0  0  0  0  0  0  0  0
   -1.9160    0.5670   23.7800 C   0  0  0  0  0  0  0  0  0  0  0  0
   -0.4840    0.1840   23.4410 C   0  0  0  0  0  0  0  0  0  0  0  0
    2.0030    5.0230   26.5260 C   0  0  0  0  0  3  0  0  0  0  0  0
   -0.0820   -0.9680   24.3350 C   0  0  0  0  0  0  0  0  0  0  0  0
    2.5740   -0.7960   25.4770 C   0  0  0  0  0  0  0  0  0  0  0  0
    2.1530    0.4910   25.1540 C   0  0  0  0  0  0  0  0  0  0  0  0
    2.9650    1.4050   24.5010 C   0  0  0  0  0  0  0  0  0  0  0  0
    4.2500    1.0190   24.1880 C   0  0  0  0  0  0  0  0  0  0  0  0
    4.6860   -0.2590   24.5000 C   0  0  0  0  0  0  0  0  0  0  0  0
    3.8600   -1.1680   25.1410 C   0  0  0  0  0  0  0  0  0  0  0  0
    0.5610   -1.3430   26.7270 C   0  0  0  0  0  0  0  0  0  0  0  0
   -0.3460   -0.5820   25.7790 C   0  0  0  0  0  0  0  0  0  0  0  0
    5.2020    1.9300   23.4860 C   0  0  0  0  0  3  0  0  0  0  0  0
   -1.9970    1.9450   24.0130 O   0  0  0  0  0  0  0  0  0  0  0  0
    1.7710   -1.7140   26.1100 O   0  0  0  0  0  0  0  0  0  0  0  0
    3.2320    4.8420   26.3310 N   0  0  0  0  0  0  0  0  0  0  0  0
    1.6040    6.0190   27.3130 N   0  0  0  0  0  0  0  0  0  0  0  0
    5.1430    3.1870   23.5860 N   0  0  0  0  0  0  0  0  0  0  0  0
    6.1400    1.3680   22.7250 N   0  0  0  0  0  0  0  0  0  0  0  0
    0.3173    0.9938   24.9715 H   0  0  0  0  0  0  0  0  0  0  0  0
    2.0730    2.3191   26.0811 H   0  0  0  0  0  0  0  0  0  0  0  0
   -0.3297    5.8126   25.5568 H   0  0  0  0  0  0  0  0  0  0  0  0
   -2.0767    4.4823   24.4486 H   0  0  0  0  0  0  0  0  0  0  0  0
   -2.2349    0.0250   24.6825 H   0  0  0  0  0  0  0  0  0  0  0  0
   -2.5739    0.2997   22.9400 H   0  0  0  0  0  0  0  0  0  0  0  0
    0.1826    1.0415   23.6153 H   0  0  0  0  0  0  0  0  0  0  0  0
   -0.4195   -0.1223   22.3865 H   0  0  0  0  0  0  0  0  0  0  0  0
    0.9879   -1.1848   24.2000 H   0  0  0  0  0  0  0  0  0  0  0  0
   -0.6722   -1.8596   24.0769 H   0  0  0  0  0  0  0  0  0  0  0  0
    1.1472    0.7912   25.4247 H   0  0  0  0  0  0  0  0  0  0  0  0
    2.6003    2.3930   24.2445 H   0  0  0  0  0  0  0  0  0  0  0  0
    5.6954   -0.5538   24.2367 H   0  0  0  0  0  0  0  0  0  0  0  0
    4.2206   -2.1628   25.3766 H   0  0  0  0  0  0  0  0  0  0  0  0
    0.0408   -2.2514   27.0648 H   0  0  0  0  0  0  0  0  0  0  0  0
    0.7850   -0.7047   27.5944 H   0  0  0  0  0  0  0  0  0  0  0  0
   -1.3936   -0.8098   26.0251 H   0  0  0  0  0  0  0  0  0  0  0  0
   -0.1670    0.4965   25.9002 H   0  0  0  0  0  0  0  0  0  0  0  0
    3.9220    5.4504   26.7943 H   0  0  0  0  0  0  0  0  0  0  0  0
    3.5486    4.0854   25.7080 H   0  0  0  0  0  0  0  0  0  0  0  0
    0.5992    6.1742   27.4780 H   0  0  0  0  0  0  0  0  0  0  0  0
    2.2999    6.6348   27.7572 H   0  0  0  0  0  0  0  0  0  0  0  0
    5.8218    3.7761   23.0829 H   0  0  0  0  0  0  0  0  0  0  0  0
    4.4161    3.6236   24.1707 H   0  0  0  0  0  0  0  0  0  0  0  0
    6.1898    0.3425   22.6421 H   0  0  0  0  0  0  0  0  0  0  0  0
    6.8154    1.9589   22.2195 H   0  0  0  0  0  0  0  0  0  0  0  0
  1  2  2  0  0  0  0
  1  6  1  0  0  0  0
  2  3  1  0  0  0  0
  2 26  1  0  0  0  0
  3  4  2  0  0  0  0
  3 27  1  0  0  0  0
  4  9  1  0  0  0  0
  5  4  1  0  0  0  0
  5 28  1  0  0  0  0
  6  5  2  0  0  0  0
  6 29  1  0  0  0  0
  7 20  1  0  0  0  0
  7 30  1  0  0  0  0
  7 31  1  0  0  0  0
  8  7  1  0  0  0  0
  8 32  1  0  0  0  0
  8 33  1  0  0  0  0
  9 22  1  0  0  0  0
  9 23  1  0  0  0  0
 10  8  1  0  0  0  0
 10 34  1  0  0  0  0
 10 35  1  0  0  0  0
 11 12  2  0  0  0  0
 11 16  1  0  0  0  0
 12 13  1  0  0  0  0
 12 36  1  0  0  0  0
 13 14  2  0  0  0  0
 13 37  1  0  0  0  0
 14 19  1  0  0  0  0
 15 14  1  0  0  0  0
 15 38  1  0  0  0  0
 16 15  2  0  0  0  0
 16 39  1  0  0  0  0
 17 18  1  0  0  0  0
 17 21  1  0  0  0  0
 17 40  1  0  0  0  0
 17 41  1  0  0  0  0
 18 10  1  0  0  0  0
 18 42  1  0  0  0  0
 18 43  1  0  0  0  0
 19 24  1  0  0  0  0
 19 25  1  0  0  0  0
 20  1  1  0  0  0  0
 21 11  1  0  0  0  0
 22 44  1  0  0  0  0
 22 45  1  0  0  0  0
 23 46  1  0  0  0  0
 23 47  1  0  0  0  0
 24 48  1  0  0  0  0
 24 49  1  0  0  0  0
 25 50  1  0  0  0  0
 25 51  1  0  0  0  0
M  END
