3cst_ligand
 OpenBabel08222323343D

 69 78  0  0  1  0  0  0  0  0999 V2000
   51.5100   15.8340   28.9800 C   0  0  0  0  0  0  0  0  0  0  0  0
   51.9870   16.9940   29.7810 C   0  0  0  0  0  0  0  0  0  0  0  0
   51.1800   17.6720   30.7470 C   0  0  0  0  0  0  0  0  0  0  0  0
   49.9100   17.1560   30.9530 C   0  0  0  0  0  0  0  0  0  0  0  0
   49.3970   16.0620   30.1590 C   0  0  0  0  0  0  0  0  0  0  0  0
   50.1920   15.3250   29.1580 C   0  0  0  0  0  0  0  0  0  0  0  0
   45.0130   12.1200   28.7510 C   0  0  0  0  0  0  0  0  0  0  0  0
   47.8580   16.6760   31.5240 C   0  0  0  0  0  0  0  0  0  0  0  0
   48.0650   15.7310   30.5160 C   0  0  0  0  0  0  0  0  0  0  0  0
   46.7260   16.8530   32.2180 C   0  0  1  0  0  3  0  0  0  0  0  0
   45.5850   15.8990   31.9220 C   0  0  0  0  0  0  0  0  0  0  0  0
   45.7520   14.9080   30.9310 C   0  0  0  0  0  0  0  0  0  0  0  0
   46.9240   14.8170   30.2590 C   0  0  0  0  0  0  0  0  0  0  0  0
   46.8490   13.6600   29.2510 C   0  0  0  0  0  0  0  0  0  0  0  0
   45.5690   18.0590   33.8550 C   0  0  0  0  0  0  0  0  0  0  0  0
   44.4260   17.1650   33.6180 C   0  0  0  0  0  0  0  0  0  0  0  0
   44.4270   16.1160   32.7000 C   0  0  0  0  0  0  0  0  0  0  0  0
   44.8230   13.8720   30.4090 C   0  0  0  0  0  0  0  0  0  0  0  0
   43.4160   17.3420   34.2620 F   0  0  0  0  0  0  0  0  0  0  0  0
   46.6760   17.9010   33.1880 N   0  0  0  0  0  0  0  0  0  0  0  0
   48.8840   17.5450   31.7450 N   0  0  0  0  0  4  0  0  0  0  0  0
   45.5990   13.2390   29.4840 N   0  0  0  0  0  0  0  0  0  0  0  0
   52.3260   15.2240   28.0070 O   0  0  0  0  0  0  0  0  0  0  0  0
   43.7060   13.6280   30.7000 O   0  0  0  0  0  0  0  0  0  0  0  0
   47.5390   13.1400   28.4420 O   0  0  0  0  0  0  0  0  0  0  0  0
   48.1560   20.2720   31.8820 C   0  0  0  0  0  0  0  0  0  0  0  0
   47.8180   21.1220   31.1800 O   0  0  0  0  0  0  0  0  0  0  0  0
   49.4140   20.1790   34.3980 C   0  0  0  0  0  0  0  0  0  0  0  0
   48.2580   19.8120   35.0210 C   0  0  0  0  0  0  0  0  0  0  0  0
   48.2470   18.3720   35.1830 C   0  0  0  0  0  0  0  0  0  0  0  0
   49.4700   17.8650   34.6210 C   0  0  0  0  0  0  0  0  0  0  0  0
   50.1900   18.9190   34.1420 C   0  0  0  0  0  0  0  0  0  0  0  0
   47.1750   20.7120   35.4750 C   0  0  0  0  0  0  0  0  0  0  0  0
   46.5740   23.1620   35.6260 C   0  0  0  0  0  0  0  0  0  0  0  0
   47.1880   23.7910   36.8910 C   0  0  0  0  0  0  0  0  0  0  0  0
   45.1010   22.8240   35.8980 C   0  0  0  0  0  0  0  0  0  0  0  0
   46.6540   24.1550   34.4570 C   0  0  0  0  0  0  0  0  0  0  0  0
   47.4320   22.0310   35.2340 N   0  0  0  0  0  0  0  0  0  0  0  0
   46.1600   20.2990   36.0050 O   0  0  0  0  0  0  0  0  0  0  0  0
   44.5890   22.0010   34.8700 O   0  0  0  0  0  0  0  0  0  0  0  0
   48.0080   24.3460   34.0920 O   0  0  0  0  0  0  0  0  0  0  0  0
   48.3850   18.8710   33.2100 Ru  0  0  0  0  0  0  0  0  0  0  0  0
   53.0009   17.3437   29.6236 H   0  0  0  0  0  0  0  0  0  0  0  0
   51.5406   18.5398   31.2873 H   0  0  0  0  0  0  0  0  0  0  0  0
   49.8077   14.4735   28.6081 H   0  0  0  0  0  0  0  0  0  0  0  0
   45.7542   11.7149   28.0463 H   0  0  0  0  0  0  0  0  0  0  0  0
   44.1302   12.4681   28.1947 H   0  0  0  0  0  0  0  0  0  0  0  0
   44.7133   11.3341   29.4598 H   0  0  0  0  0  0  0  0  0  0  0  0
   45.4897   18.8533   34.5884 H   0  0  0  0  0  0  0  0  0  0  0  0
   43.5566   15.4800   32.5858 H   0  0  0  0  0  0  0  0  0  0  0  0
   48.8795   18.3462   32.3923 H   0  0  0  0  0  0  0  0  0  0  0  0
   52.4412   14.3059   28.2223 H   0  0  0  0  0  0  0  0  0  0  0  0
   48.5946   20.5077   32.8505 H   0  0  0  0  0  0  0  0  0  0  0  0
   48.0367   19.2336   31.5765 H   0  0  0  0  0  0  0  0  0  0  0  0
   49.7166   21.1918   34.1362 H   0  0  0  0  0  0  0  0  0  0  0  0
   47.4573   17.7818   35.6456 H   0  0  0  0  0  0  0  0  0  0  0  0
   49.7695   16.8186   34.5844 H   0  0  0  0  0  0  0  0  0  0  0  0
   51.1610   18.9698   34.6563 H   0  0  0  0  0  0  0  0  0  0  0  0
   50.3535   18.7965   33.0611 H   0  0  0  0  0  0  0  0  0  0  0  0
   46.5708   24.6424   37.2137 H   0  0  0  0  0  0  0  0  0  0  0  0
   48.2072   24.1402   36.6692 H   0  0  0  0  0  0  0  0  0  0  0  0
   47.2244   23.0396   37.6935 H   0  0  0  0  0  0  0  0  0  0  0  0
   44.5171   23.7552   35.9420 H   0  0  0  0  0  0  0  0  0  0  0  0
   45.0215   22.2955   36.8594 H   0  0  0  0  0  0  0  0  0  0  0  0
   46.2175   25.1173   34.7627 H   0  0  0  0  0  0  0  0  0  0  0  0
   46.0955   23.7555   33.5977 H   0  0  0  0  0  0  0  0  0  0  0  0
   48.2784   22.2486   34.7479 H   0  0  0  0  0  0  0  0  0  0  0  0
   45.0907   21.1952   34.8315 H   0  0  0  0  0  0  0  0  0  0  0  0
   48.0563   24.9603   33.3689 H   0  0  0  0  0  0  0  0  0  0  0  0
  1 23  1  0  0  0  0
  2  1  2  0  0  0  0
  2 43  1  0  0  0  0
  3  2  1  0  0  0  0
  3 44  1  0  0  0  0
  4  3  2  0  0  0  0
  4  5  1  0  0  0  0
  5  6  2  0  0  0  0
  6  1  1  0  0  0  0
  6 45  1  0  0  0  0
  7 46  1  0  0  0  0
  7 47  1  0  0  0  0
  7 48  1  0  0  0  0
  8  9  2  0  0  0  0
  9  5  1  0  0  0  0
  9 13  1  0  0  0  0
 10  8  1  1  0  0  0
 10 11  1  0  0  0  0
 11 12  1  0  0  0  0
 11 17  2  0  0  0  0
 12 18  1  0  0  0  0
 13 12  2  0  0  0  0
 13 14  1  0  0  0  0
 14 22  1  0  0  0  0
 14 25  2  0  0  0  0
 15 16  2  0  0  0  0
 15 49  1  0  0  0  0
 16 17  1  0  0  0  0
 16 19  1  0  0  0  0
 17 50  1  0  0  0  0
 18 22  1  0  0  0  0
 18 24  2  0  0  0  0
 20 10  1  0  0  0  0
 20 15  1  0  0  0  0
 21  4  1  0  0  0  0
 21  8  1  0  0  0  0
 21 51  1  0  0  0  0
 22  7  1  0  0  0  0
 23 52  1  0  0  0  0
 26 27  2  0  0  0  0
 26 53  1  0  0  0  0
 26 54  1  0  0  0  0
 28 29  2  0  0  0  0
 28 32  1  0  0  0  0
 28 55  1  0  0  0  0
 29 30  1  0  0  0  0
 29 33  1  0  0  0  0
 30 56  1  0  0  0  0
 31 30  2  0  0  0  0
 31 57  1  0  0  0  0
 32 31  1  0  0  0  0
 32 58  1  0  0  0  0
 32 59  1  0  0  0  0
 33 38  1  0  0  0  0
 33 39  2  0  0  0  0
 34 35  1  0  0  0  0
 34 36  1  0  0  0  0
 34 37  1  0  0  0  0
 35 60  1  0  0  0  0
 35 61  1  0  0  0  0
 35 62  1  0  0  0  0
 36 40  1  0  0  0  0
 36 63  1  0  0  0  0
 36 64  1  0  0  0  0
 37 41  1  0  0  0  0
 37 65  1  0  0  0  0
 37 66  1  0  0  0  0
 38 34  1  0  0  0  0
 38 67  1  0  0  0  0
 40 68  1  0  0  0  0
 41 69  1  0  0  0  0
 42 20  1  0  0  0  0
 42 21  1  0  0  0  0
 42 26  1  0  0  0  0
 42 28  1  0  0  0  0
 42 30  1  0  0  0  0
 42 31  1  0  0  0  0
 42 32  1  0  0  0  0
M  END
