3cth_ligand
 OpenBabel08222323343D

 45 47  0  0  0  0  0  0  0  0999 V2000
    0.1140    1.0530   52.6750 C   0  0  0  0  0  0  0  0  0  0  0  0
   -2.0300    1.6690   53.6840 C   0  0  0  0  0  0  0  0  0  0  0  0
    0.9190    8.0660   54.9990 C   0  0  0  0  0  0  0  0  0  0  0  0
    1.0350    9.2860   55.6690 C   0  0  0  0  0  0  0  0  0  0  0  0
    0.2130   -0.0130   53.5530 C   0  0  0  0  0  0  0  0  0  0  0  0
   -1.9210    0.5980   54.5720 C   0  0  0  0  0  0  0  0  0  0  0  0
   -1.4920   11.5640   56.3840 C   0  0  0  0  0  0  0  0  0  0  0  0
    0.2920    9.2470   52.9840 C   0  0  0  0  0  0  0  0  0  0  0  0
    0.1040   12.9810   57.4910 C   0  0  0  0  0  0  0  0  0  0  0  0
   -2.4360   12.0230   57.2860 C   0  0  0  0  0  0  0  0  0  0  0  0
   -1.0100    1.8910   52.7320 C   0  0  0  0  0  0  0  0  0  0  0  0
    0.5520    8.0480   53.6440 C   0  0  0  0  0  0  0  0  0  0  0  0
    0.7640   10.4830   55.0040 C   0  0  0  0  0  0  0  0  0  0  0  0
   -0.1910   12.0540   56.4900 C   0  0  0  0  0  0  0  0  0  0  0  0
   -0.7980   -0.2310   54.4880 C   0  0  0  0  0  0  0  0  0  0  0  0
    0.3910   10.4570   53.6600 C   0  0  0  0  0  0  0  0  0  0  0  0
   -0.9090   13.4030   58.3630 C   0  0  0  0  0  0  0  0  0  0  0  0
   -0.6440    4.3080   52.4610 C   0  0  0  0  0  0  0  0  0  0  0  0
   -0.1050    6.6130   51.7410 C   0  0  0  0  0  0  0  0  0  0  0  0
   -1.1030    3.0380   51.7840 C   0  0  0  0  0  0  0  0  0  0  0  0
   -2.1750   12.9280   58.2640 N   0  0  0  0  0  0  0  0  0  0  0  0
   -0.6020   14.3450   59.3770 N   0  0  0  0  0  0  0  0  0  0  0  0
    0.4490    6.8030   52.9920 N   0  0  0  0  0  0  0  0  0  0  0  0
   -0.6480    5.3560   51.5520 N   0  0  0  0  0  0  0  0  0  0  0  0
    0.0100    4.3220   53.4880 O   0  0  0  0  0  0  0  0  0  0  0  0
   -0.1580    7.4260   50.8290 O   0  0  0  0  0  0  0  0  0  0  0  0
    0.8600   11.6920   55.6570 O   0  0  0  0  0  0  0  0  0  0  0  0
   -0.6810   -1.2650   55.3250 F   0  0  0  0  0  0  0  0  0  0  0  0
    0.1170   11.5940   52.9890 F   0  0  0  0  0  0  0  0  0  0  0  0
    0.8981    1.2386   51.9498 H   0  0  0  0  0  0  0  0  0  0  0  0
   -2.8913    2.3260   53.7244 H   0  0  0  0  0  0  0  0  0  0  0  0
    1.1115    7.1368   55.5231 H   0  0  0  0  0  0  0  0  0  0  0  0
    1.3368    9.3034   56.7100 H   0  0  0  0  0  0  0  0  0  0  0  0
    1.0712   -0.6740   53.5137 H   0  0  0  0  0  0  0  0  0  0  0  0
   -2.6912    0.4125   55.3119 H   0  0  0  0  0  0  0  0  0  0  0  0
   -1.7564   10.8445   55.6175 H   0  0  0  0  0  0  0  0  0  0  0  0
    0.0109    9.2360   51.9371 H   0  0  0  0  0  0  0  0  0  0  0  0
    1.1099   13.3720   57.5933 H   0  0  0  0  0  0  0  0  0  0  0  0
   -3.4456   11.6363   57.2069 H   0  0  0  0  0  0  0  0  0  0  0  0
   -2.1466    3.1565   51.4571 H   0  0  0  0  0  0  0  0  0  0  0  0
   -0.4651    2.8405   50.9099 H   0  0  0  0  0  0  0  0  0  0  0  0
   -1.3375   14.6631   60.0241 H   0  0  0  0  0  0  0  0  0  0  0  0
    0.3565   14.7113   59.4666 H   0  0  0  0  0  0  0  0  0  0  0  0
    0.8026    5.9987   53.4696 H   0  0  0  0  0  0  0  0  0  0  0  0
   -1.0884    5.1847   50.6707 H   0  0  0  0  0  0  0  0  0  0  0  0
  1  5  2  0  0  0  0
  1 30  1  0  0  0  0
  2  6  1  0  0  0  0
  2 31  1  0  0  0  0
  3  4  2  0  0  0  0
  3 32  1  0  0  0  0
  4 13  1  0  0  0  0
  4 33  1  0  0  0  0
  5 15  1  0  0  0  0
  5 34  1  0  0  0  0
  6 15  2  0  0  0  0
  6 35  1  0  0  0  0
  7 10  2  0  0  0  0
  7 36  1  0  0  0  0
  8 16  1  0  0  0  0
  8 37  1  0  0  0  0
  9 17  1  0  0  0  0
  9 38  1  0  0  0  0
 10 21  1  0  0  0  0
 10 39  1  0  0  0  0
 11  1  1  0  0  0  0
 11  2  2  0  0  0  0
 12  3  1  0  0  0  0
 12  8  2  0  0  0  0
 13 27  1  0  0  0  0
 14  7  1  0  0  0  0
 14  9  2  0  0  0  0
 15 28  1  0  0  0  0
 16 13  2  0  0  0  0
 16 29  1  0  0  0  0
 17 21  2  0  0  0  0
 17 22  1  0  0  0  0
 18 20  1  0  0  0  0
 18 25  2  0  0  0  0
 19 23  1  0  0  0  0
 19 24  1  0  0  0  0
 19 26  2  0  0  0  0
 20 11  1  0  0  0  0
 20 40  1  0  0  0  0
 20 41  1  0  0  0  0
 22 42  1  0  0  0  0
 22 43  1  0  0  0  0
 23 12  1  0  0  0  0
 23 44  1  0  0  0  0
 24 18  1  0  0  0  0
 24 45  1  0  0  0  0
 27 14  1  0  0  0  0
M  END
