3ctq_ligand
 OpenBabel08222323343D

 76 79  0  0  0  0  0  0  0  0999 V2000
   33.6700   36.7730   12.7730 N   0  0  0  0  0  0  0  0  0  0  0  0
   30.3730   36.2720   11.0270 C   0  0  0  0  0  0  0  0  0  0  0  0
   32.5490   34.7030   12.1160 C   0  0  0  0  0  0  0  0  0  0  0  0
   31.4210   34.0570   11.5040 C   0  0  0  0  0  0  0  0  0  0  0  0
   30.3580   34.8300   10.9710 C   0  0  0  0  0  0  0  0  0  0  0  0
   32.1650   42.4930   21.5960 C   0  0  0  0  0  0  0  0  0  0  0  0
   29.2370   37.1760   10.4670 C   0  0  0  0  0  0  0  0  0  0  0  0
   29.7990   38.1090    9.3620 C   0  0  0  0  0  0  0  0  0  0  0  0
   30.7610   42.5470   21.7800 C   0  0  0  0  0  0  0  0  0  0  0  0
   31.0740   44.2880   23.4760 C   0  0  0  0  0  0  0  0  0  0  0  0
   33.0370   32.8220    9.1590 C   0  0  0  0  0  0  0  0  0  0  0  0
   37.1670   38.9430   14.0170 C   0  0  0  0  0  0  0  0  0  0  0  0
   38.3930   40.1900   15.8230 C   0  0  0  0  0  0  0  0  0  0  0  0
   34.7830   38.4090   14.1740 C   0  0  0  0  0  0  0  0  0  0  0  0
   33.0430   43.3440   22.3380 C   0  0  0  0  0  0  0  0  0  0  0  0
   32.5900   36.1270   12.1870 C   0  0  0  0  0  0  0  0  0  0  0  0
   31.5120   36.8840   11.6410 C   0  0  0  0  0  0  0  0  0  0  0  0
   33.4400   33.6560   14.0330 C   0  0  0  0  0  0  0  0  0  0  0  0
   28.6330   38.0300   11.6150 C   0  0  0  0  0  0  0  0  0  0  0  0
   28.0580   36.3770    9.8380 C   0  0  0  0  0  0  0  0  0  0  0  0
   33.5280   37.8310   13.6580 C   0  0  0  0  0  0  0  0  0  0  0  0
   30.2150   43.4470   22.7200 C   0  0  0  0  0  0  0  0  0  0  0  0
   32.4810   44.2300   23.2870 C   0  0  0  0  0  0  0  0  0  0  0  0
   37.1200   39.5830   15.2890 C   0  0  0  0  0  0  0  0  0  0  0  0
   36.0110   38.3570   13.4530 C   0  0  0  0  0  0  0  0  0  0  0  0
   33.5760   33.9010   12.6300 O   0  0  0  0  0  0  0  0  0  0  0  0
   32.4120   38.2610   13.9730 O   0  0  0  0  0  0  0  0  0  0  0  0
   31.3480   32.6900   11.4250 N   0  0  0  0  0  0  0  0  0  0  0  0
   32.3250   31.8110   10.4300 S   0  0  0  0  0  0  0  0  0  0  0  0
   31.4940   30.8300    9.8180 O   0  0  0  0  0  0  0  0  0  0  0  0
   33.3620   31.3130   11.3040 O   0  0  0  0  0  0  0  0  0  0  0  0
   34.7540   39.0450   15.4340 C   0  0  0  0  0  0  0  0  0  0  0  0
   35.8940   39.6370   16.0160 C   0  0  0  0  0  0  0  0  0  0  0  0
   35.7300   40.2370   17.2790 N   0  0  0  0  0  0  0  0  0  0  0  0
   35.4500   41.5410   17.5850 C   0  0  0  0  0  0  0  0  0  0  0  0
   35.8730   39.4210   18.3880 N   0  0  0  0  0  0  0  0  0  0  0  0
   35.6600   40.3230   19.3880 N   0  0  0  0  0  0  0  0  0  0  0  0
   35.4090   41.5760   18.9520 C   0  0  0  0  0  0  0  0  0  0  0  0
   35.1400   42.7320   19.7980 C   0  0  0  0  0  0  0  0  0  0  0  0
   35.1190   43.9010   19.4330 O   0  0  0  0  0  0  0  0  0  0  0  0
   34.8850   42.3490   21.0700 N   0  0  0  0  0  0  0  0  0  0  0  0
   34.5530   43.2660   22.1620 C   0  0  0  0  0  0  0  0  0  0  0  0
   34.5927   36.4610   12.5465 H   0  0  0  0  0  0  0  0  0  0  0  0
   29.5154   34.3264   10.5112 H   0  0  0  0  0  0  0  0  0  0  0  0
   32.5812   41.7939   20.8797 H   0  0  0  0  0  0  0  0  0  0  0  0
   28.9900   38.7441    8.9719 H   0  0  0  0  0  0  0  0  0  0  0  0
   30.2141   37.5009    8.5448 H   0  0  0  0  0  0  0  0  0  0  0  0
   30.5912   38.7436    9.7858 H   0  0  0  0  0  0  0  0  0  0  0  0
   30.1102   41.9008   21.2021 H   0  0  0  0  0  0  0  0  0  0  0  0
   30.6546   44.9770   24.2002 H   0  0  0  0  0  0  0  0  0  0  0  0
   33.6808   32.2036    8.5163 H   0  0  0  0  0  0  0  0  0  0  0  0
   33.6371   33.6209    9.6190 H   0  0  0  0  0  0  0  0  0  0  0  0
   32.2348   33.2686    8.5532 H   0  0  0  0  0  0  0  0  0  0  0  0
   38.1040   38.9049   13.4732 H   0  0  0  0  0  0  0  0  0  0  0  0
   39.2066   40.0305   15.1001 H   0  0  0  0  0  0  0  0  0  0  0  0
   38.6536   39.7132   16.7794 H   0  0  0  0  0  0  0  0  0  0  0  0
   38.2474   41.2691   15.9789 H   0  0  0  0  0  0  0  0  0  0  0  0
   31.5568   37.9658   11.6930 H   0  0  0  0  0  0  0  0  0  0  0  0
   34.2718   33.0237   14.3771 H   0  0  0  0  0  0  0  0  0  0  0  0
   32.4859   33.1432   14.2249 H   0  0  0  0  0  0  0  0  0  0  0  0
   33.4578   34.6126   14.5757 H   0  0  0  0  0  0  0  0  0  0  0  0
   28.2357   37.3654   12.3963 H   0  0  0  0  0  0  0  0  0  0  0  0
   27.8203   38.6559   11.2179 H   0  0  0  0  0  0  0  0  0  0  0  0
   29.4152   38.6735   12.0440 H   0  0  0  0  0  0  0  0  0  0  0  0
   28.4360   35.7527    9.0150 H   0  0  0  0  0  0  0  0  0  0  0  0
   27.3052   37.0789    9.4499 H   0  0  0  0  0  0  0  0  0  0  0  0
   27.5999   35.7349   10.6047 H   0  0  0  0  0  0  0  0  0  0  0  0
   29.1418   43.4962   22.8647 H   0  0  0  0  0  0  0  0  0  0  0  0
   33.1292   44.8699   23.8748 H   0  0  0  0  0  0  0  0  0  0  0  0
   36.0580   37.8739   12.4837 H   0  0  0  0  0  0  0  0  0  0  0  0
   30.6783   32.2093   11.9911 H   0  0  0  0  0  0  0  0  0  0  0  0
   33.8163   39.0798   15.9768 H   0  0  0  0  0  0  0  0  0  0  0  0
   35.2943   42.3678   16.8935 H   0  0  0  0  0  0  0  0  0  0  0  0
   34.9261   41.3719   21.2790 H   0  0  0  0  0  0  0  0  0  0  0  0
   35.0098   42.9022   23.0942 H   0  0  0  0  0  0  0  0  0  0  0  0
   34.9444   44.2671   21.9282 H   0  0  0  0  0  0  0  0  0  0  0  0
  1 16  1  0  0  0  0
  1 43  1  0  0  0  0
  2  5  2  0  0  0  0
  2  7  1  0  0  0  0
  3  4  2  0  0  0  0
  3 26  1  0  0  0  0
  4  5  1  0  0  0  0
  4 28  1  0  0  0  0
  5 44  1  0  0  0  0
  6  9  2  0  0  0  0
  6 45  1  0  0  0  0
  7  8  1  0  0  0  0
  7 19  1  0  0  0  0
  7 20  1  0  0  0  0
  8 46  1  0  0  0  0
  8 47  1  0  0  0  0
  8 48  1  0  0  0  0
  9 22  1  0  0  0  0
  9 49  1  0  0  0  0
 10 22  2  0  0  0  0
 10 50  1  0  0  0  0
 11 51  1  0  0  0  0
 11 52  1  0  0  0  0
 11 53  1  0  0  0  0
 12 25  1  0  0  0  0
 12 54  1  0  0  0  0
 13 55  1  0  0  0  0
 13 56  1  0  0  0  0
 13 57  1  0  0  0  0
 14 21  1  0  0  0  0
 14 25  2  0  0  0  0
 15  6  1  0  0  0  0
 15 23  2  0  0  0  0
 16  3  1  0  0  0  0
 16 17  2  0  0  0  0
 17  2  1  0  0  0  0
 17 58  1  0  0  0  0
 18 59  1  0  0  0  0
 18 60  1  0  0  0  0
 18 61  1  0  0  0  0
 19 62  1  0  0  0  0
 19 63  1  0  0  0  0
 19 64  1  0  0  0  0
 20 65  1  0  0  0  0
 20 66  1  0  0  0  0
 20 67  1  0  0  0  0
 21  1  1  0  0  0  0
 21 27  2  0  0  0  0
 22 68  1  0  0  0  0
 23 10  1  0  0  0  0
 23 69  1  0  0  0  0
 24 12  2  0  0  0  0
 24 13  1  0  0  0  0
 25 70  1  0  0  0  0
 26 18  1  0  0  0  0
 28 29  1  0  0  0  0
 28 71  1  0  0  0  0
 29 11  1  0  0  0  0
 29 30  2  0  0  0  0
 29 31  2  0  0  0  0
 32 14  1  0  0  0  0
 32 72  1  0  0  0  0
 33 24  1  0  0  0  0
 33 32  2  0  0  0  0
 34 33  1  0  0  0  0
 35 34  1  0  0  0  0
 35 73  1  0  0  0  0
 36 34  1  0  0  0  0
 37 36  2  0  0  0  0
 38 35  2  0  0  0  0
 38 37  1  0  0  0  0
 39 38  1  0  0  0  0
 39 40  2  0  0  0  0
 41 39  1  0  0  0  0
 41 42  1  0  0  0  0
 41 74  1  0  0  0  0
 42 15  1  0  0  0  0
 42 75  1  0  0  0  0
 42 76  1  0  0  0  0
M  END
