3cvk_ligand
 OpenBabel08222323343D

 64 67  0  0  1  0  0  0  0  0999 V2000
   96.4350    9.1590   57.8710 C   0  0  0  0  0  0  0  0  0  0  0  0
   96.8680    9.5010   60.6470 C   0  0  0  0  0  0  0  0  0  0  0  0
   97.2100    8.2390   58.6060 C   0  0  0  0  0  0  0  0  0  0  0  0
   96.7980    8.4370   54.2290 C   0  0  0  0  0  0  0  0  0  0  0  0
   97.2340    7.5140   53.3350 C   0  0  0  0  0  0  0  0  0  0  0  0
   96.0490    9.6280   53.7070 C   0  0  0  0  0  0  0  0  0  0  0  0
   98.2050    9.6700   51.1150 C   0  0  0  0  0  0  0  0  0  0  0  0
   92.3240   12.0960   51.5320 C   0  0  0  0  0  0  0  0  0  0  0  0
   93.1420   11.1620   49.3430 C   0  0  0  0  0  0  0  0  0  0  0  0
   95.2380   10.8640   51.7300 C   0  0  0  0  0  0  0  0  0  0  0  0
   92.7430   10.8110   50.7930 C   0  0  0  0  0  0  0  0  0  0  0  0
   96.7660    7.1690   62.5740 O   0  0  0  0  0  0  0  0  0  0  0  0
   97.2610    8.4130   63.1350 S   0  0  0  0  0  0  0  0  0  0  0  0
   96.8520    8.8330   64.4600 O   0  0  0  0  0  0  0  0  0  0  0  0
   99.0300    8.2970   63.2280 C   0  0  0  0  0  0  0  0  0  0  0  0
   97.0660    9.7200   62.0470 N   0  0  0  0  0  0  0  0  0  0  0  0
   96.1100   10.4380   59.9290 C   0  0  0  0  0  0  0  0  0  0  0  0
   97.4330    8.3980   59.9870 C   0  0  0  0  0  0  0  0  0  0  0  0
   97.8950    6.8440   57.7830 S   0  0  0  0  0  0  0  0  0  0  0  0
   99.2780    6.7230   58.1690 O   0  0  0  0  0  0  0  0  0  0  0  0
   96.9620    5.7710   58.0140 O   0  0  0  0  0  0  0  0  0  0  0  0
   97.8400    7.3260   56.1530 N   0  0  0  0  0  0  0  0  0  0  0  0
   96.9140    8.3150   55.7020 C   0  0  0  0  0  0  0  0  0  0  0  0
   96.1800    9.0630   56.4880 N   0  0  0  0  0  0  0  0  0  0  0  0
   95.9000   10.2730   58.5560 C   0  0  0  0  0  0  0  0  0  0  0  0
   95.3520   10.2740   54.5030 O   0  0  0  0  0  0  0  0  0  0  0  0
   96.1000    9.8770   52.3410 N   0  0  0  0  0  0  0  0  0  0  0  0
   96.8780    9.1220   51.4500 N   0  3  2  0  0  0  0  0  0  0  0  0
   98.7620    8.5280   50.2840 C   0  0  0  0  0  0  0  0  0  0  0  0
   97.0310    7.7030   51.8340 C   0  0  1  0  0  0  0  0  0  0  0  0
   98.2010    7.2700   50.9360 C   0  0  0  0  0  0  0  0  0  0  0  0
   97.8450    6.3250   53.6670 O   0  0  0  0  0  0  0  0  0  0  0  0
   93.9260   10.1200   51.5080 C   0  0  0  0  0  0  0  0  0  0  0  0
   91.5510    9.8380   50.7420 C   0  0  0  0  0  0  0  0  0  0  0  0
   98.8102    9.8523   52.0153 H   0  0  0  0  0  0  0  0  0  0  0  0
   98.1271   10.5990   50.5312 H   0  0  0  0  0  0  0  0  0  0  0  0
   91.4822   12.5657   51.0022 H   0  0  0  0  0  0  0  0  0  0  0  0
   93.1732   12.7945   51.5632 H   0  0  0  0  0  0  0  0  0  0  0  0
   92.0174   11.8454   52.5582 H   0  0  0  0  0  0  0  0  0  0  0  0
   93.4417   10.2458   48.8132 H   0  0  0  0  0  0  0  0  0  0  0  0
   93.9836   11.8702   49.3555 H   0  0  0  0  0  0  0  0  0  0  0  0
   92.2850   11.6200   48.8275 H   0  0  0  0  0  0  0  0  0  0  0  0
   95.6572   11.2114   50.7742 H   0  0  0  0  0  0  0  0  0  0  0  0
   95.0914   11.7238   52.4002 H   0  0  0  0  0  0  0  0  0  0  0  0
   99.4284    7.9800   62.2529 H   0  0  0  0  0  0  0  0  0  0  0  0
   99.3093    7.5600   63.9953 H   0  0  0  0  0  0  0  0  0  0  0  0
   99.4484    9.2791   63.4933 H   0  0  0  0  0  0  0  0  0  0  0  0
   97.0910   10.6563   62.3972 H   0  0  0  0  0  0  0  0  0  0  0  0
   95.6850   11.2939   60.4407 H   0  0  0  0  0  0  0  0  0  0  0  0
   98.0326    7.6788   60.5332 H   0  0  0  0  0  0  0  0  0  0  0  0
   98.4688    6.9084   55.4971 H   0  0  0  0  0  0  0  0  0  0  0  0
   95.3198   11.0087   58.0109 H   0  0  0  0  0  0  0  0  0  0  0  0
   96.3555    9.1248   50.5880 H   0  0  0  0  0  0  0  0  0  0  0  0
   99.8615    8.5247   50.3158 H   0  0  0  0  0  0  0  0  0  0  0  0
   98.4256    8.6073   49.2397 H   0  0  0  0  0  0  0  0  0  0  0  0
   96.1293    7.1382   51.5549 H   0  0  0  0  0  0  0  0  0  0  0  0
   98.9786    6.7808   51.5409 H   0  0  0  0  0  0  0  0  0  0  0  0
   97.8445    6.5727   50.1636 H   0  0  0  0  0  0  0  0  0  0  0  0
   97.9402    6.2719   54.6107 H   0  0  0  0  0  0  0  0  0  0  0  0
   93.5618    9.8203   52.5017 H   0  0  0  0  0  0  0  0  0  0  0  0
   94.1684    9.2224   50.9202 H   0  0  0  0  0  0  0  0  0  0  0  0
   90.7039   10.3223   50.2342 H   0  0  0  0  0  0  0  0  0  0  0  0
   91.2569    9.5645   51.7660 H   0  0  0  0  0  0  0  0  0  0  0  0
   91.8405    8.9321   50.1893 H   0  0  0  0  0  0  0  0  0  0  0  0
  1  3  2  0  0  0  0
  1 25  1  0  0  0  0
  2 16  1  0  0  0  0
  3 18  1  0  0  0  0
  4  5  2  0  0  0  0
  4 23  1  0  0  0  0
  5 30  1  0  0  0  0
  5 32  1  0  0  0  0
  6  4  1  0  0  0  0
  6 26  2  0  0  0  0
  7 29  1  0  0  0  0
  7 35  1  0  0  0  0
  7 36  1  0  0  0  0
  8 37  1  0  0  0  0
  8 38  1  0  0  0  0
  8 39  1  0  0  0  0
  9 40  1  0  0  0  0
  9 41  1  0  0  0  0
  9 42  1  0  0  0  0
 10 33  1  0  0  0  0
 10 43  1  0  0  0  0
 10 44  1  0  0  0  0
 11  8  1  0  0  0  0
 11  9  1  0  0  0  0
 11 34  1  0  0  0  0
 13 12  2  0  0  0  0
 13 14  2  0  0  0  0
 13 15  1  0  0  0  0
 15 45  1  0  0  0  0
 15 46  1  0  0  0  0
 15 47  1  0  0  0  0
 16 13  1  0  0  0  0
 16 48  1  0  0  0  0
 17  2  1  0  0  0  0
 17 49  1  0  0  0  0
 18  2  2  0  0  0  0
 18 50  1  0  0  0  0
 19  3  1  0  0  0  0
 19 20  2  0  0  0  0
 19 21  2  0  0  0  0
 22 19  1  0  0  0  0
 22 51  1  0  0  0  0
 23 22  1  0  0  0  0
 23 24  2  0  0  0  0
 24  1  1  0  0  0  0
 25 17  2  0  0  0  0
 25 52  1  0  0  0  0
 27  6  1  0  0  0  0
 27 10  1  0  0  0  0
 27 28  1  0  0  0  0
 28  7  1  0  0  0  0
 28 30  1  0  0  0  0
 28 53  1  6  0  0  0
 29 31  1  0  0  0  0
 29 54  1  0  0  0  0
 29 55  1  0  0  0  0
 30 31  1  0  0  0  0
 30 56  1  6  0  0  0
 31 57  1  0  0  0  0
 31 58  1  0  0  0  0
 32 59  1  0  0  0  0
 33 11  1  0  0  0  0
 33 60  1  0  0  0  0
 33 61  1  0  0  0  0
 34 62  1  0  0  0  0
 34 63  1  0  0  0  0
 34 64  1  0  0  0  0
M  CHG  1  28   1
M  END
