3cwe_ligand
 OpenBabel08222323343D

 46 48  0  0  1  0  0  0  0  0999 V2000
   25.9240   25.6070   -1.1750 O   0  0  0  0  0  0  0  0  0  0  0  0
   24.7520   25.2270   -1.1720 C   0  0  0  0  0  0  0  0  0  0  0  0
   23.6780   26.0580   -1.8370 C   0  0  0  0  0  0  0  0  0  0  0  0
   22.3520   25.6170   -1.8830 C   0  0  0  0  0  0  0  0  0  0  0  0
   21.3750   26.4110   -2.4930 C   0  0  0  0  0  0  0  0  0  0  0  0
   21.7310   27.6400   -3.0410 C   0  0  0  0  0  0  0  0  0  0  0  0
   23.0410   28.0870   -3.0060 C   0  0  0  0  0  0  0  0  0  0  0  0
   24.0170   27.2970   -2.3960 C   0  0  0  0  0  0  0  0  0  0  0  0
   24.4050   23.9120   -0.5330 C   0  0  1  0  0  0  0  0  0  0  0  0
   24.5770   22.8060   -1.5290 C   0  0  0  0  0  0  0  0  0  0  0  0
   23.4550   22.0810   -1.9470 C   0  0  0  0  0  0  0  0  0  0  0  0
   23.5840   21.0410   -2.8760 C   0  0  0  0  0  0  0  0  0  0  0  0
   25.8500   22.5050   -2.0550 C   0  0  0  0  0  0  0  0  0  0  0  0
   25.9790   21.4630   -2.9810 C   0  0  0  0  0  0  0  0  0  0  0  0
   24.8520   20.7370   -3.3850 C   0  0  0  0  0  0  0  0  0  0  0  0
   25.2720   23.7090    0.7360 C   0  0  0  0  0  0  0  0  0  0  0  0
   24.7680   22.5300    1.5390 C   0  0  0  0  0  0  0  0  0  0  0  0
   25.3050   21.2450    1.3140 C   0  0  0  0  0  0  0  0  0  0  0  0
   24.8550   20.1410    2.0210 C   0  0  0  0  0  0  0  0  0  0  0  0
   25.5940   18.5180    1.6320 Br  0  0  0  0  0  0  0  0  0  0  0  0
   23.8120   20.3580    3.0760 C   0  0  0  0  0  0  0  0  0  0  0  0
   23.2880   21.6520    3.2650 C   0  0  0  0  0  0  0  0  0  0  0  0
   23.7830   22.7190    2.5130 C   0  0  0  0  0  0  0  0  0  0  0  0
   23.1990   19.2440    3.8870 C   0  0  0  0  0  0  0  0  0  0  0  0
   23.1450   18.1350    3.1500 F   0  0  0  0  0  0  0  0  0  0  0  0
   21.9310   19.6050    4.1080 F   0  0  0  0  0  0  0  0  0  0  0  0
   23.9550   18.8920    5.5260 P   0  0  0  0  0  0  0  0  0  0  0  0
   23.9090   20.2060    6.2500 O   0  0  0  0  0  1  0  0  0  0  0  0
   25.3530   18.4060    5.2760 O   0  0  0  0  0  1  0  0  0  0  0  0
   23.0390   17.8140    6.0620 O   0  0  0  0  0  0  0  0  0  0  0  0
   22.0816   24.6621   -1.4470 H   0  0  0  0  0  0  0  0  0  0  0  0
   20.3467   26.0711   -2.5386 H   0  0  0  0  0  0  0  0  0  0  0  0
   20.9695   28.2578   -3.5031 H   0  0  0  0  0  0  0  0  0  0  0  0
   23.3060   29.0407   -3.4478 H   0  0  0  0  0  0  0  0  0  0  0  0
   25.0430   27.6443   -2.3546 H   0  0  0  0  0  0  0  0  0  0  0  0
   23.3488   23.9356   -0.2266 H   0  0  0  0  0  0  0  0  0  0  0  0
   22.4775   22.3267   -1.5481 H   0  0  0  0  0  0  0  0  0  0  0  0
   22.7140   20.4793   -3.1964 H   0  0  0  0  0  0  0  0  0  0  0  0
   26.7192   23.0741   -1.7458 H   0  0  0  0  0  0  0  0  0  0  0  0
   26.9540   21.2176   -3.3863 H   0  0  0  0  0  0  0  0  0  0  0  0
   24.9627   19.9301   -4.1003 H   0  0  0  0  0  0  0  0  0  0  0  0
   25.2241   24.6163    1.3561 H   0  0  0  0  0  0  0  0  0  0  0  0
   26.3142   23.5240    0.4366 H   0  0  0  0  0  0  0  0  0  0  0  0
   26.0858   21.1184    0.5728 H   0  0  0  0  0  0  0  0  0  0  0  0
   22.5021   21.8188    3.9928 H   0  0  0  0  0  0  0  0  0  0  0  0
   23.3951   23.7160    2.6881 H   0  0  0  0  0  0  0  0  0  0  0  0
  1  2  2  0  0  0  0
  2  3  1  0  0  0  0
  2  9  1  0  0  0  0
  3  4  2  0  0  0  0
  3  8  1  0  0  0  0
  4  5  1  0  0  0  0
  4 31  1  0  0  0  0
  5  6  2  0  0  0  0
  5 32  1  0  0  0  0
  6  7  1  0  0  0  0
  6 33  1  0  0  0  0
  7  8  2  0  0  0  0
  7 34  1  0  0  0  0
  8 35  1  0  0  0  0
  9 10  1  0  0  0  0
  9 16  1  0  0  0  0
  9 36  1  1  0  0  0
 10 11  2  0  0  0  0
 10 13  1  0  0  0  0
 11 12  1  0  0  0  0
 11 37  1  0  0  0  0
 12 15  2  0  0  0  0
 12 38  1  0  0  0  0
 13 14  2  0  0  0  0
 13 39  1  0  0  0  0
 14 15  1  0  0  0  0
 14 40  1  0  0  0  0
 15 41  1  0  0  0  0
 16 17  1  0  0  0  0
 16 42  1  0  0  0  0
 16 43  1  0  0  0  0
 17 18  2  0  0  0  0
 17 23  1  0  0  0  0
 18 19  1  0  0  0  0
 18 44  1  0  0  0  0
 19 20  1  0  0  0  0
 19 21  2  0  0  0  0
 21 22  1  0  0  0  0
 21 24  1  0  0  0  0
 22 23  2  0  0  0  0
 22 45  1  0  0  0  0
 23 46  1  0  0  0  0
 24 25  1  0  0  0  0
 24 26  1  0  0  0  0
 24 27  1  0  0  0  0
 27 28  1  0  0  0  0
 27 29  1  0  0  0  0
 27 30  2  0  0  0  0
M  END
