3cyu_ligand
 OpenBabel08222323343D

171184  0  0  0  0  0  0  0  0999 V2000
   12.2180   -7.2260   21.6210 N   0  0  0  0  0  0  0  0  0  0  0  0
   20.6540   -3.0260   27.1100 N   0  0  0  0  0  0  0  0  0  0  0  0
   20.1280   -3.6970   26.0790 N   0  0  0  0  0  0  0  0  0  0  0  0
   21.6880   -2.9410   34.9810 C   0  0  0  0  0  0  0  0  0  0  0  0
   21.5910   -2.3780   33.5870 C   0  0  0  0  0  0  0  0  0  0  0  0
   21.0230   -3.2600   32.6330 C   0  0  0  0  0  0  0  0  0  0  0  0
   20.8480   -2.9340   31.2470 C   0  0  0  0  0  0  0  0  0  0  0  0
   21.2740   -1.6290   30.8200 C   0  0  0  0  0  0  0  0  0  0  0  0
   21.8400   -0.7520   31.7960 C   0  0  0  0  0  0  0  0  0  0  0  0
   22.0130   -1.0870   33.1690 C   0  0  0  0  0  0  0  0  0  0  0  0
   22.6480    0.0070   34.0180 C   0  0  0  0  0  0  0  0  0  0  0  0
   24.1290    0.1670   34.2280 C   0  0  0  0  0  0  0  0  0  0  0  0
   24.7770    1.1380   33.4100 C   0  0  0  0  0  0  0  0  0  0  0  0
   26.1770    1.4260   33.4670 C   0  0  0  0  0  0  0  0  0  0  0  0
   26.9570    0.6680   34.4270 C   0  0  0  0  0  0  0  0  0  0  0  0
   26.2940   -0.3010   35.2400 C   0  0  0  0  0  0  0  0  0  0  0  0
   24.8990   -0.5860   35.1810 C   0  0  0  0  0  0  0  0  0  0  0  0
   24.4270   -1.6740   36.1670 C   0  0  0  0  0  0  0  0  0  0  0  0
   24.1850   -3.1410   35.7620 C   0  0  0  0  0  0  0  0  0  0  0  0
   25.3060   -3.9990   35.9370 C   0  0  0  0  0  0  0  0  0  0  0  0
   25.2900   -5.3970   35.6230 C   0  0  0  0  0  0  0  0  0  0  0  0
   24.0820   -5.9800   35.1050 C   0  0  0  0  0  0  0  0  0  0  0  0
   22.9680   -5.1110   34.9310 C   0  0  0  0  0  0  0  0  0  0  0  0
   22.9780   -3.7100   35.2400 C   0  0  0  0  0  0  0  0  0  0  0  0
   28.9920   -3.6780   28.0560 C   0  0  0  0  0  0  0  0  0  0  0  0
   28.9110   -4.5170   29.3360 C   0  0  0  0  0  0  0  0  0  0  0  0
   29.3600   -3.8160   30.4850 C   0  0  0  0  0  0  0  0  0  0  0  0
   29.3790   -4.3560   31.7880 C   0  0  0  0  0  0  0  0  0  0  0  0
   28.9150   -5.7080   31.9650 C   0  0  0  0  0  0  0  0  0  0  0  0
   28.4670   -6.4160   30.8030 C   0  0  0  0  0  0  0  0  0  0  0  0
   28.4440   -5.8680   29.4690 C   0  0  0  0  0  0  0  0  0  0  0  0
   27.9230   -6.7660   28.3190 C   0  0  0  0  0  0  0  0  0  0  0  0
   26.3860   -6.5800   28.3190 C   0  0  0  0  0  0  0  0  0  0  0  0
   25.7060   -7.5150   29.1610 C   0  0  0  0  0  0  0  0  0  0  0  0
   24.3040   -7.5410   29.3280 C   0  0  0  0  0  0  0  0  0  0  0  0
   23.5270   -6.5680   28.6100 C   0  0  0  0  0  0  0  0  0  0  0  0
   24.1950   -5.6320   27.7600 C   0  0  0  0  0  0  0  0  0  0  0  0
   25.6190   -5.5990   27.5810 C   0  0  0  0  0  0  0  0  0  0  0  0
   26.1630   -4.5200   26.6150 C   0  0  0  0  0  0  0  0  0  0  0  0
   26.4790   -3.1560   27.2320 C   0  0  0  0  0  0  0  0  0  0  0  0
   25.4370   -2.1670   27.1550 C   0  0  0  0  0  0  0  0  0  0  0  0
   25.5770   -0.8450   27.6810 C   0  0  0  0  0  0  0  0  0  0  0  0
   26.8140   -0.5010   28.3140 C   0  0  0  0  0  0  0  0  0  0  0  0
   27.8420   -1.4790   28.3830 C   0  0  0  0  0  0  0  0  0  0  0  0
   27.7260   -2.8050   27.8620 C   0  0  0  0  0  0  0  0  0  0  0  0
   21.5330   -6.3360   30.0030 C   0  0  0  0  0  0  0  0  0  0  0  0
   20.7720   -5.2890   30.6810 C   0  0  0  0  0  0  0  0  0  0  0  0
   23.9310   -9.0290   31.4790 C   0  0  0  0  0  0  0  0  0  0  0  0
   26.8330    0.9890   30.2510 C   0  0  0  0  0  0  0  0  0  0  0  0
   29.1050   -2.4080   33.3830 C   0  0  0  0  0  0  0  0  0  0  0  0
   27.3930   -6.6990   35.0180 C   0  0  0  0  0  0  0  0  0  0  0  0
   19.7880   -1.2790   28.7390 C   0  0  0  0  0  0  0  0  0  0  0  0
   23.5980    0.4300   28.7900 C   0  0  0  0  0  0  0  0  0  0  0  0
   26.8920    2.3220   31.1160 C   0  0  0  0  0  0  0  0  0  0  0  0
   20.2280   -3.9890   30.3290 O   0  0  0  0  0  0  0  0  0  0  0  0
   21.0910   -1.2940   29.3440 O   0  0  0  0  0  0  0  0  0  0  0  0
   23.5600   -8.4710   30.1730 O   0  0  0  0  0  0  0  0  0  0  0  0
   26.8170    2.4660   32.5800 O   0  0  0  0  0  0  0  0  0  0  0  0
   28.4510    0.7710   34.6940 O   0  0  0  0  0  0  0  0  0  0  0  0
   24.5190    0.2060   27.6090 O   0  0  0  0  0  0  0  0  0  0  0  0
   26.6190   -6.0110   35.9090 O   0  0  0  0  0  0  0  0  0  0  0  0
   23.7520   -7.4070   34.6860 O   0  0  0  0  0  0  0  0  0  0  0  0
   29.8240   -3.6490   32.9480 O   0  0  0  0  0  0  0  0  0  0  0  0
   28.9260   -6.2660   33.3500 O   0  0  0  0  0  0  0  0  0  0  0  0
   22.0730   -6.6100   28.8040 O   0  0  0  0  0  0  0  0  0  0  0  0
   26.9010    0.7730   28.8070 O   0  0  0  0  0  0  0  0  0  0  0  0
   12.9990   -5.5900   23.5840 C   0  0  0  0  0  0  0  0  0  0  0  0
   14.2920   -6.1990   23.5970 C   0  0  0  0  0  0  0  0  0  0  0  0
   15.4160   -5.4220   24.0210 C   0  0  0  0  0  0  0  0  0  0  0  0
   15.2730   -4.0580   24.4310 C   0  0  0  0  0  0  0  0  0  0  0  0
   13.9840   -3.4590   24.4180 C   0  0  0  0  0  0  0  0  0  0  0  0
   12.8690   -4.2330   23.9940 C   0  0  0  0  0  0  0  0  0  0  0  0
   16.4600   -3.2350   24.8750 C   0  0  0  0  0  0  0  0  0  0  0  0
   17.9190   -3.7960   24.9180 C   0  0  0  0  0  0  0  0  0  0  0  0
   11.4980   -7.7220   24.0250 O   0  0  0  0  0  0  0  0  0  0  0  0
   10.3750   -5.8110   23.0730 O   0  0  0  0  0  0  0  0  0  0  0  0
   11.6760   -6.6000   23.0470 S   0  0  0  0  0  0  0  0  0  0  0  0
   27.7650   -5.7790   34.0910 C   0  0  0  0  0  0  0  0  0  0  0  0
   19.6830   -2.1790   27.6360 C   0  0  0  0  0  0  0  0  0  0  0  0
   18.5590   -2.3790   26.8690 C   0  0  0  0  0  0  0  0  0  0  0  0
   18.8320   -3.2780   25.9520 N   0  0  0  0  0  0  0  0  0  0  0  0
   29.2840    1.5920   34.0740 C   0  0  0  0  0  0  0  0  0  0  0  0
   30.2110    1.3130   33.2290 C   0  0  0  0  0  0  0  0  0  0  0  0
   30.4780    2.0380   32.0680 C   0  0  0  0  0  0  0  0  0  0  0  0
   31.1280    0.2720   33.2640 N   0  0  0  0  0  0  0  0  0  0  0  0
   31.9410    0.3080   32.2010 N   0  0  0  0  0  0  0  0  0  0  0  0
   31.5190    1.4200   31.4630 N   0  0  0  0  0  0  0  0  0  0  0  0
   32.1410    1.8230   30.2170 C   0  0  0  0  0  0  0  0  0  0  0  0
   32.1140    0.7940   28.9910 C   0  0  0  0  0  0  0  0  0  0  0  0
   33.3850    0.0500   28.6990 C   0  0  0  0  0  0  0  0  0  0  0  0
   34.2640   -0.7800   29.2820 O   0  5  0  0  0  0  0  0  0  0  0  0
   33.8940    0.1940   27.4830 O   0  0  0  0  0  0  0  0  0  0  0  0
   27.9850  -12.3100   39.5890 C   0  0  0  0  0  0  0  0  0  0  0  0
   27.4440  -12.0120   40.7020 O   0  5  0  0  0  0  0  0  0  0  0  0
   28.7610  -13.3610   39.5170 O   0  0  0  0  0  0  0  0  0  0  0  0
   26.5570  -11.7430   37.8740 C   0  0  0  0  0  0  0  0  0  0  0  0
   27.7280  -11.4330   38.3540 C   0  0  0  0  0  0  0  0  0  0  0  0
   24.7480   -8.7520   37.8040 N   0  0  0  0  0  0  0  0  0  0  0  0
   25.3570   -9.6950   38.4260 N   0  0  0  0  0  0  0  0  0  0  0  0
   25.8520  -10.6080   37.5920 N   0  0  0  0  0  0  0  0  0  0  0  0
   24.4420   -8.5170   35.2440 C   0  0  0  0  0  0  0  0  0  0  0  0
   24.7930   -8.9760   36.4440 C   0  0  0  0  0  0  0  0  0  0  0  0
   25.5080  -10.1810   36.3240 C   0  0  0  0  0  0  0  0  0  0  0  0
   11.6390   -7.8506   21.0969 H   0  0  0  0  0  0  0  0  0  0  0  0
   13.1257   -6.9810   21.2803 H   0  0  0  0  0  0  0  0  0  0  0  0
   20.8391   -3.6221   35.1409 H   0  0  0  0  0  0  0  0  0  0  0  0
   21.6299   -2.1082   35.6972 H   0  0  0  0  0  0  0  0  0  0  0  0
   20.7020   -4.2386   32.9711 H   0  0  0  0  0  0  0  0  0  0  0  0
   22.1581    0.2317   31.4701 H   0  0  0  0  0  0  0  0  0  0  0  0
   22.2172   -0.1104   35.0233 H   0  0  0  0  0  0  0  0  0  0  0  0
   22.3063    0.9570   33.5812 H   0  0  0  0  0  0  0  0  0  0  0  0
   24.1719    1.6920   32.7015 H   0  0  0  0  0  0  0  0  0  0  0  0
   26.8932   -0.8582   35.9510 H   0  0  0  0  0  0  0  0  0  0  0  0
   23.4721   -1.3140   36.5776 H   0  0  0  0  0  0  0  0  0  0  0  0
   25.1820   -1.7034   36.9664 H   0  0  0  0  0  0  0  0  0  0  0  0
   26.2220   -3.5721   36.3292 H   0  0  0  0  0  0  0  0  0  0  0  0
   22.0511   -5.5361   34.5389 H   0  0  0  0  0  0  0  0  0  0  0  0
   29.0954   -4.3527   27.1934 H   0  0  0  0  0  0  0  0  0  0  0  0
   29.8723   -3.0211   28.1154 H   0  0  0  0  0  0  0  0  0  0  0  0
   29.7114   -2.7991   30.3529 H   0  0  0  0  0  0  0  0  0  0  0  0
   28.1211   -7.4348   30.9356 H   0  0  0  0  0  0  0  0  0  0  0  0
   28.1836   -7.8186   28.5039 H   0  0  0  0  0  0  0  0  0  0  0  0
   28.3497   -6.4461   27.3569 H   0  0  0  0  0  0  0  0  0  0  0  0
   26.2996   -8.2439   29.7008 H   0  0  0  0  0  0  0  0  0  0  0  0
   23.5937   -4.9083   27.2217 H   0  0  0  0  0  0  0  0  0  0  0  0
   25.4111   -4.3655   25.8272 H   0  0  0  0  0  0  0  0  0  0  0  0
   27.0895   -4.9078   26.1666 H   0  0  0  0  0  0  0  0  0  0  0  0
   24.5027   -2.4366   26.6761 H   0  0  0  0  0  0  0  0  0  0  0  0
   28.7744   -1.2019   28.8615 H   0  0  0  0  0  0  0  0  0  0  0  0
   21.7236   -7.1585   30.6908 H   0  0  0  0  0  0  0  0  0  0  0  0
   20.5576   -5.5505   31.7162 H   0  0  0  0  0  0  0  0  0  0  0  0
   23.1330   -9.6990   31.8315 H   0  0  0  0  0  0  0  0  0  0  0  0
   24.0688   -8.2111   32.2015 H   0  0  0  0  0  0  0  0  0  0  0  0
   24.8691   -9.5952   31.3827 H   0  0  0  0  0  0  0  0  0  0  0  0
   25.8751    0.5316   30.5395 H   0  0  0  0  0  0  0  0  0  0  0  0
   27.6622    0.3835   30.6458 H   0  0  0  0  0  0  0  0  0  0  0  0
   29.5848   -2.0040   34.2866 H   0  0  0  0  0  0  0  0  0  0  0  0
   28.0549   -2.6506   33.6028 H   0  0  0  0  0  0  0  0  0  0  0  0
   29.1477   -1.6586   32.5789 H   0  0  0  0  0  0  0  0  0  0  0  0
   27.6548   -7.7557   35.0452 H   0  0  0  0  0  0  0  0  0  0  0  0
   19.5769   -0.2598   28.3830 H   0  0  0  0  0  0  0  0  0  0  0  0
   19.0443   -1.5639   29.4977 H   0  0  0  0  0  0  0  0  0  0  0  0
   22.8896    1.2378   28.5544 H   0  0  0  0  0  0  0  0  0  0  0  0
   24.1935    0.7100   29.6715 H   0  0  0  0  0  0  0  0  0  0  0  0
   23.0419   -0.4951   29.0020 H   0  0  0  0  0  0  0  0  0  0  0  0
   26.0627    2.9360   30.7349 H   0  0  0  0  0  0  0  0  0  0  0  0
   27.8497    2.7880   30.8410 H   0  0  0  0  0  0  0  0  0  0  0  0
   14.4187   -7.2312   23.2911 H   0  0  0  0  0  0  0  0  0  0  0  0
   16.3997   -5.8772   24.0320 H   0  0  0  0  0  0  0  0  0  0  0  0
   13.8530   -2.4281   24.7265 H   0  0  0  0  0  0  0  0  0  0  0  0
   11.8869   -3.7742   23.9826 H   0  0  0  0  0  0  0  0  0  0  0  0
   16.2328   -2.9038   25.8990 H   0  0  0  0  0  0  0  0  0  0  0  0
   16.4908   -2.3625   24.2058 H   0  0  0  0  0  0  0  0  0  0  0  0
   18.3788   -3.5853   23.9412 H   0  0  0  0  0  0  0  0  0  0  0  0
   17.8464   -4.8841   25.0620 H   0  0  0  0  0  0  0  0  0  0  0  0
   27.2721   -4.8222   33.9250 H   0  0  0  0  0  0  0  0  0  0  0  0
   17.6023   -1.8757   27.0004 H   0  0  0  0  0  0  0  0  0  0  0  0
   29.8039    2.1204   34.8867 H   0  0  0  0  0  0  0  0  0  0  0  0
   28.6286    2.2955   33.5396 H   0  0  0  0  0  0  0  0  0  0  0  0
   29.9530    2.9254   31.7177 H   0  0  0  0  0  0  0  0  0  0  0  0
   33.1965    2.0426   30.4353 H   0  0  0  0  0  0  0  0  0  0  0  0
   31.6368    2.7418   29.8829 H   0  0  0  0  0  0  0  0  0  0  0  0
   31.8461    1.3611   28.0873 H   0  0  0  0  0  0  0  0  0  0  0  0
   31.3333    0.0480   29.2007 H   0  0  0  0  0  0  0  0  0  0  0  0
   26.0055  -12.3393   38.6158 H   0  0  0  0  0  0  0  0  0  0  0  0
   26.6848  -12.3306   36.9529 H   0  0  0  0  0  0  0  0  0  0  0  0
   28.5030  -11.6200   37.5961 H   0  0  0  0  0  0  0  0  0  0  0  0
   27.7442  -10.3712   38.6408 H   0  0  0  0  0  0  0  0  0  0  0  0
   25.4148   -8.4555   34.7343 H   0  0  0  0  0  0  0  0  0  0  0  0
   23.8687   -9.3639   34.8390 H   0  0  0  0  0  0  0  0  0  0  0  0
   25.7490  -10.6900   35.3919 H   0  0  0  0  0  0  0  0  0  0  0  0
  1104  1  0  0  0  0
  1105  1  0  0  0  0
  2  3  2  0  0  0  0
  4  5  1  0  0  0  0
  4106  1  0  0  0  0
  4107  1  0  0  0  0
  5  6  2  0  0  0  0
  5 10  1  0  0  0  0
  6  7  1  0  0  0  0
  6108  1  0  0  0  0
  7  8  2  0  0  0  0
  7 55  1  0  0  0  0
  8 56  1  0  0  0  0
  9  8  1  0  0  0  0
  9109  1  0  0  0  0
 10  9  2  0  0  0  0
 10 11  1  0  0  0  0
 11110  1  0  0  0  0
 11111  1  0  0  0  0
 12 11  1  0  0  0  0
 12 13  2  0  0  0  0
 13 14  1  0  0  0  0
 13112  1  0  0  0  0
 14 58  1  0  0  0  0
 15 14  2  0  0  0  0
 15 59  1  0  0  0  0
 16 15  1  0  0  0  0
 16113  1  0  0  0  0
 17 12  1  0  0  0  0
 17 16  2  0  0  0  0
 18 17  1  0  0  0  0
 18114  1  0  0  0  0
 18115  1  0  0  0  0
 19 18  1  0  0  0  0
 20 19  2  0  0  0  0
 20116  1  0  0  0  0
 21 20  1  0  0  0  0
 21 61  1  0  0  0  0
 22 21  2  0  0  0  0
 22 23  1  0  0  0  0
 23 24  2  0  0  0  0
 23117  1  0  0  0  0
 24  4  1  0  0  0  0
 24 19  1  0  0  0  0
 25 45  1  0  0  0  0
 25118  1  0  0  0  0
 25119  1  0  0  0  0
 26 25  1  0  0  0  0
 27 26  2  0  0  0  0
 27120  1  0  0  0  0
 28 27  1  0  0  0  0
 28 63  1  0  0  0  0
 29 28  2  0  0  0  0
 29 30  1  0  0  0  0
 30 31  2  0  0  0  0
 30121  1  0  0  0  0
 31 26  1  0  0  0  0
 31 32  1  0  0  0  0
 32 33  1  0  0  0  0
 32122  1  0  0  0  0
 32123  1  0  0  0  0
 33 34  2  0  0  0  0
 33 38  1  0  0  0  0
 34 35  1  0  0  0  0
 34124  1  0  0  0  0
 35 57  1  0  0  0  0
 36 35  2  0  0  0  0
 36 37  1  0  0  0  0
 37125  1  0  0  0  0
 38 37  2  0  0  0  0
 38 39  1  0  0  0  0
 39 40  1  0  0  0  0
 39126  1  0  0  0  0
 39127  1  0  0  0  0
 40 41  2  0  0  0  0
 41 42  1  0  0  0  0
 41128  1  0  0  0  0
 42 60  1  0  0  0  0
 43 42  2  0  0  0  0
 44 43  1  0  0  0  0
 44129  1  0  0  0  0
 45 40  1  0  0  0  0
 45 44  2  0  0  0  0
 46 65  1  0  0  0  0
 46130  1  0  0  0  0
 47 46  2  0  0  0  0
 47131  1  0  0  0  0
 48132  1  0  0  0  0
 48133  1  0  0  0  0
 48134  1  0  0  0  0
 49 66  1  0  0  0  0
 49135  1  0  0  0  0
 49136  1  0  0  0  0
 50137  1  0  0  0  0
 50138  1  0  0  0  0
 50139  1  0  0  0  0
 51 78  2  0  0  0  0
 51140  1  0  0  0  0
 52 79  1  0  0  0  0
 52141  1  0  0  0  0
 52142  1  0  0  0  0
 53143  1  0  0  0  0
 53144  1  0  0  0  0
 53145  1  0  0  0  0
 54 49  1  0  0  0  0
 54146  1  0  0  0  0
 54147  1  0  0  0  0
 55 47  1  0  0  0  0
 56 52  1  0  0  0  0
 57 48  1  0  0  0  0
 58 54  1  0  0  0  0
 59 82  1  0  0  0  0
 60 53  1  0  0  0  0
 61 51  1  0  0  0  0
 62 22  1  0  0  0  0
 63 50  1  0  0  0  0
 64 29  1  0  0  0  0
 65 36  1  0  0  0  0
 66 43  1  0  0  0  0
 67 77  1  0  0  0  0
 68 67  2  0  0  0  0
 68148  1  0  0  0  0
 69 68  1  0  0  0  0
 69149  1  0  0  0  0
 70 69  2  0  0  0  0
 70 71  1  0  0  0  0
 71 72  2  0  0  0  0
 71150  1  0  0  0  0
 72 67  1  0  0  0  0
 72151  1  0  0  0  0
 73 70  1  0  0  0  0
 73152  1  0  0  0  0
 73153  1  0  0  0  0
 74 73  1  0  0  0  0
 74154  1  0  0  0  0
 74155  1  0  0  0  0
 77  1  1  0  0  0  0
 77 75  2  0  0  0  0
 77 76  2  0  0  0  0
 78 64  1  0  0  0  0
 78156  1  0  0  0  0
 79  2  1  0  0  0  0
 79 80  2  0  0  0  0
 80 81  1  0  0  0  0
 80157  1  0  0  0  0
 81  3  1  0  0  0  0
 81 74  1  0  0  0  0
 82 83  1  0  0  0  0
 82158  1  0  0  0  0
 82159  1  0  0  0  0
 83 84  2  0  0  0  0
 83 85  1  0  0  0  0
 84 87  1  0  0  0  0
 84160  1  0  0  0  0
 85 86  2  0  0  0  0
 86 87  1  0  0  0  0
 87 88  1  0  0  0  0
 88 89  1  0  0  0  0
 88161  1  0  0  0  0
 88162  1  0  0  0  0
 89 90  1  0  0  0  0
 89163  1  0  0  0  0
 89164  1  0  0  0  0
 90 91  1  0  0  0  0
 90 92  2  0  0  0  0
 93 94  1  0  0  0  0
 93 95  2  0  0  0  0
 96 97  1  0  0  0  0
 96165  1  0  0  0  0
 96166  1  0  0  0  0
 97 93  1  0  0  0  0
 97167  1  0  0  0  0
 97168  1  0  0  0  0
 98 99  2  0  0  0  0
 99100  1  0  0  0  0
100 96  1  0  0  0  0
100103  1  0  0  0  0
101 62  1  0  0  0  0
101102  1  0  0  0  0
101169  1  0  0  0  0
101170  1  0  0  0  0
102 98  1  0  0  0  0
102103  2  0  0  0  0
103171  1  0  0  0  0
M  CHG  2  91  -1  94  -1
M  END
