3d1e_ligand
 OpenBabel08222323343D

 92 92  0  0  1  0  0  0  0  0999 V2000
  -67.1940  -65.7640  -58.9900 N   0  3  0  0  0  0  0  0  0  0  0  0
  -68.2510  -65.5200  -60.0130 C   0  0  0  0  0  0  0  0  0  0  0  0
  -68.6320  -66.7790  -60.7660 C   0  0  0  0  0  0  0  0  0  0  0  0
  -68.2440  -67.8850  -60.3840 O   0  0  0  0  0  0  0  0  0  0  0  0
  -69.3850  -66.6070  -61.8480 N   0  0  0  0  0  0  0  0  0  0  0  0
  -69.8340  -67.7280  -62.6680 C   0  0  2  0  0  0  0  0  0  0  0  0
  -68.7000  -68.5260  -63.2960 C   0  0  0  0  0  0  0  0  0  0  0  0
  -67.7400  -67.9550  -63.8140 O   0  0  0  0  0  0  0  0  0  0  0  0
  -70.7450  -67.2330  -63.7910 C   0  0  0  0  0  0  0  0  0  0  0  0
  -71.2770  -68.3540  -64.6700 C   0  0  0  0  0  0  0  0  0  0  0  0
  -72.0850  -69.3550  -63.8720 C   0  0  0  0  0  0  0  0  0  0  0  0
  -73.0030  -68.9760  -63.1510 O   0  0  0  0  0  0  0  0  0  0  0  0
  -71.7470  -70.6410  -63.9950 N   0  0  0  0  0  0  0  0  0  0  0  0
  -68.8290  -69.8480  -63.2550 N   0  0  0  0  0  0  0  0  0  0  0  0
  -67.8430  -70.7460  -63.8440 C   0  0  2  0  0  0  0  0  0  0  0  0
  -68.3480  -71.1910  -65.2140 C   0  0  0  0  0  0  0  0  0  0  0  0
  -69.5230  -71.0180  -65.5360 O   0  0  0  0  0  0  0  0  0  0  0  0
  -67.6310  -71.9710  -62.9520 C   0  0  0  0  0  0  0  0  0  0  0  0
  -66.9300  -71.7240  -61.6160 C   0  0  0  0  0  0  0  0  0  0  0  0
  -66.9930  -72.9780  -60.7610 C   0  0  0  0  0  0  0  0  0  0  0  0
  -65.4930  -71.3120  -61.8750 C   0  0  0  0  0  0  0  0  0  0  0  0
  -67.4590  -71.7640  -66.0180 N   0  0  0  0  0  0  0  0  0  0  0  0
  -67.8530  -72.2140  -67.3390 C   0  0  0  0  0  0  0  0  0  0  0  0
  -67.7880  -73.7170  -67.5220 C   0  0  0  0  0  0  0  0  0  0  0  0
  -66.8740  -74.3730  -67.0200 O   0  0  0  0  0  0  0  0  0  0  0  0
  -68.7670  -74.2610  -68.2420 N   0  0  0  0  0  0  0  0  0  0  0  0
  -68.8310  -75.6930  -68.5190 C   0  0  2  0  0  0  0  0  0  0  0  0
  -67.7290  -76.0940  -69.4930 C   0  0  0  0  0  0  0  0  0  0  0  0
  -67.1540  -77.1740  -69.3860 O   0  0  0  0  0  0  0  0  0  0  0  0
  -70.1860  -76.0570  -69.1320 C   0  0  0  0  0  0  0  0  0  0  0  0
  -71.4430  -76.0110  -68.2630 C   0  0  0  0  0  0  0  0  0  0  0  0
  -72.6680  -76.2470  -69.1350 C   0  0  0  0  0  0  0  0  0  0  0  0
  -71.3560  -77.0670  -67.1750 C   0  0  0  0  0  0  0  0  0  0  0  0
  -67.4490  -75.2160  -70.4490 N   0  0  0  0  0  0  0  0  0  0  0  0
  -66.4270  -75.4700  -71.4530 C   0  0  2  0  0  0  0  0  0  0  0  0
  -65.9040  -74.1510  -72.0190 C   0  0  0  0  0  0  0  0  0  0  0  0
  -65.3830  -74.1600  -73.1580 O   0  5  0  0  0  0  0  0  0  0  0  0
  -67.0190  -76.3280  -72.5760 C   0  0  0  0  0  0  0  0  0  0  0  0
  -68.2620  -75.7440  -73.1970 C   0  0  0  0  0  0  0  0  0  0  0  0
  -68.1860  -74.6430  -74.0460 C   0  0  0  0  0  0  0  0  0  0  0  0
  -69.5150  -76.2790  -72.9090 C   0  0  0  0  0  0  0  0  0  0  0  0
  -69.3400  -74.0830  -74.5980 C   0  0  0  0  0  0  0  0  0  0  0  0
  -70.6720  -75.7270  -73.4550 C   0  0  0  0  0  0  0  0  0  0  0  0
  -70.5840  -74.6270  -74.3000 C   0  0  0  0  0  0  0  0  0  0  0  0
  -66.0130  -73.1270  -71.3090 O   0  0  0  0  0  0  0  0  0  0  0  0
  -66.9766  -64.8998  -58.5188 H   0  0  0  0  0  0  0  0  0  0  0  0
  -66.3652  -66.1184  -59.4411 H   0  0  0  0  0  0  0  0  0  0  0  0
  -67.5256  -66.4386  -58.3185 H   0  0  0  0  0  0  0  0  0  0  0  0
  -67.8794  -64.7768  -60.7338 H   0  0  0  0  0  0  0  0  0  0  0  0
  -69.1458  -65.1263  -59.5087 H   0  0  0  0  0  0  0  0  0  0  0  0
  -69.6525  -65.6794  -62.1086 H   0  0  0  0  0  0  0  0  0  0  0  0
  -70.4086  -68.4055  -62.0193 H   0  0  0  0  0  0  0  0  0  0  0  0
  -70.1747  -66.5352  -64.4217 H   0  0  0  0  0  0  0  0  0  0  0  0
  -71.5995  -66.7062  -63.3412 H   0  0  0  0  0  0  0  0  0  0  0  0
  -70.4280  -68.8735  -65.1383 H   0  0  0  0  0  0  0  0  0  0  0  0
  -71.9181  -67.9205  -65.4517 H   0  0  0  0  0  0  0  0  0  0  0  0
  -72.2504  -71.3410  -63.4884 H   0  0  0  0  0  0  0  0  0  0  0  0
  -70.9905  -70.9041  -64.5937 H   0  0  0  0  0  0  0  0  0  0  0  0
  -69.6306  -70.2407  -62.8043 H   0  0  0  0  0  0  0  0  0  0  0  0
  -66.8874  -70.2135  -63.9590 H   0  0  0  0  0  0  0  0  0  0  0  0
  -67.0281  -72.6968  -63.5174 H   0  0  0  0  0  0  0  0  0  0  0  0
  -68.6191  -72.4037  -62.7368 H   0  0  0  0  0  0  0  0  0  0  0  0
  -67.4434  -70.9086  -61.0854 H   0  0  0  0  0  0  0  0  0  0  0  0
  -66.4871  -72.7935  -59.8018 H   0  0  0  0  0  0  0  0  0  0  0  0
  -66.4931  -73.8053  -61.2860 H   0  0  0  0  0  0  0  0  0  0  0  0
  -68.0444  -73.2432  -60.5760 H   0  0  0  0  0  0  0  0  0  0  0  0
  -65.4781  -70.4035  -62.4949 H   0  0  0  0  0  0  0  0  0  0  0  0
  -64.9680  -72.1232  -62.4007 H   0  0  0  0  0  0  0  0  0  0  0  0
  -64.9910  -71.1106  -60.9172 H   0  0  0  0  0  0  0  0  0  0  0  0
  -66.5150  -71.8854  -65.7112 H   0  0  0  0  0  0  0  0  0  0  0  0
  -67.1852  -71.7463  -68.0774 H   0  0  0  0  0  0  0  0  0  0  0  0
  -68.8875  -71.8876  -67.5216 H   0  0  0  0  0  0  0  0  0  0  0  0
  -69.4845  -73.6672  -68.6062 H   0  0  0  0  0  0  0  0  0  0  0  0
  -68.6999  -76.2447  -67.5764 H   0  0  0  0  0  0  0  0  0  0  0  0
  -70.0986  -77.0849  -69.5136 H   0  0  0  0  0  0  0  0  0  0  0  0
  -70.3527  -75.3668  -69.9722 H   0  0  0  0  0  0  0  0  0  0  0  0
  -71.5218  -75.0194  -67.7934 H   0  0  0  0  0  0  0  0  0  0  0  0
  -73.5737  -76.2143  -68.5115 H   0  0  0  0  0  0  0  0  0  0  0  0
  -72.5904  -77.2325  -69.6174 H   0  0  0  0  0  0  0  0  0  0  0  0
  -72.7254  -75.4647  -69.9062 H   0  0  0  0  0  0  0  0  0  0  0  0
  -70.4665  -76.8820  -66.5548 H   0  0  0  0  0  0  0  0  0  0  0  0
  -71.2810  -78.0630  -67.6358 H   0  0  0  0  0  0  0  0  0  0  0  0
  -72.2574  -77.0208  -66.5462 H   0  0  0  0  0  0  0  0  0  0  0  0
  -67.9557  -74.3544  -70.4798 H   0  0  0  0  0  0  0  0  0  0  0  0
  -65.5924  -76.0140  -70.9867 H   0  0  0  0  0  0  0  0  0  0  0  0
  -67.2694  -77.3160  -72.1623 H   0  0  0  0  0  0  0  0  0  0  0  0
  -66.2589  -76.4418  -73.3629 H   0  0  0  0  0  0  0  0  0  0  0  0
  -67.2183  -74.2150  -74.2815 H   0  0  0  0  0  0  0  0  0  0  0  0
  -69.5913  -77.1369  -72.2508 H   0  0  0  0  0  0  0  0  0  0  0  0
  -69.2659  -73.2259  -75.2575 H   0  0  0  0  0  0  0  0  0  0  0  0
  -71.6400  -76.1551  -73.2209 H   0  0  0  0  0  0  0  0  0  0  0  0
  -71.4825  -74.1947  -74.7253 H   0  0  0  0  0  0  0  0  0  0  0  0
  1  2  1  0  0  0  0
  1 46  1  0  0  0  0
  1 47  1  0  0  0  0
  1 48  1  0  0  0  0
  2  3  1  0  0  0  0
  2 49  1  0  0  0  0
  2 50  1  0  0  0  0
  3  4  2  0  0  0  0
  3  5  1  0  0  0  0
  5  6  1  0  0  0  0
  5 51  1  0  0  0  0
  6  7  1  0  0  0  0
  6  9  1  0  0  0  0
  6 52  1  1  0  0  0
  7  8  2  0  0  0  0
  7 14  1  0  0  0  0
  9 10  1  0  0  0  0
  9 53  1  0  0  0  0
  9 54  1  0  0  0  0
 10 11  1  0  0  0  0
 10 55  1  0  0  0  0
 10 56  1  0  0  0  0
 11 12  2  0  0  0  0
 11 13  1  0  0  0  0
 13 57  1  0  0  0  0
 13 58  1  0  0  0  0
 14 15  1  0  0  0  0
 14 59  1  0  0  0  0
 15 16  1  0  0  0  0
 15 18  1  0  0  0  0
 15 60  1  6  0  0  0
 16 17  2  0  0  0  0
 16 22  1  0  0  0  0
 18 19  1  0  0  0  0
 18 61  1  0  0  0  0
 18 62  1  0  0  0  0
 19 20  1  0  0  0  0
 19 21  1  0  0  0  0
 19 63  1  0  0  0  0
 20 64  1  0  0  0  0
 20 65  1  0  0  0  0
 20 66  1  0  0  0  0
 21 67  1  0  0  0  0
 21 68  1  0  0  0  0
 21 69  1  0  0  0  0
 22 23  1  0  0  0  0
 22 70  1  0  0  0  0
 23 24  1  0  0  0  0
 23 71  1  0  0  0  0
 23 72  1  0  0  0  0
 24 25  2  0  0  0  0
 24 26  1  0  0  0  0
 26 27  1  0  0  0  0
 26 73  1  0  0  0  0
 27 28  1  0  0  0  0
 27 30  1  0  0  0  0
 27 74  1  1  0  0  0
 28 29  2  0  0  0  0
 28 34  1  0  0  0  0
 30 31  1  0  0  0  0
 30 75  1  0  0  0  0
 30 76  1  0  0  0  0
 31 32  1  0  0  0  0
 31 33  1  0  0  0  0
 31 77  1  0  0  0  0
 32 78  1  0  0  0  0
 32 79  1  0  0  0  0
 32 80  1  0  0  0  0
 33 81  1  0  0  0  0
 33 82  1  0  0  0  0
 33 83  1  0  0  0  0
 34 35  1  0  0  0  0
 34 84  1  0  0  0  0
 35 36  1  0  0  0  0
 35 38  1  0  0  0  0
 35 85  1  1  0  0  0
 36 37  1  0  0  0  0
 36 45  2  0  0  0  0
 38 39  1  0  0  0  0
 38 86  1  0  0  0  0
 38 87  1  0  0  0  0
 39 40  2  0  0  0  0
 39 41  1  0  0  0  0
 40 42  1  0  0  0  0
 40 88  1  0  0  0  0
 41 43  2  0  0  0  0
 41 89  1  0  0  0  0
 42 44  2  0  0  0  0
 42 90  1  0  0  0  0
 43 44  1  0  0  0  0
 43 91  1  0  0  0  0
 44 92  1  0  0  0  0
M  CHG  2   1   1  37  -1
M  END
