3d1v_ligand
 OpenBabel08222323343D

 18 19  0  0  0  0  0  0  0  0999 V2000
   52.8530   49.5220   24.0680 O   0  0  0  0  0  0  0  0  0  0  0  0
   53.7750   48.7590   24.8120 C   0  0  0  0  0  0  0  0  0  0  0  0
   53.0310   47.9700   25.7960 C   0  0  0  0  0  0  0  0  0  0  0  0
   53.6970   47.0730   26.7110 C   0  0  0  0  0  0  0  0  0  0  0  0
   55.0890   46.9370   26.6650 N   0  0  0  0  0  0  0  0  0  0  0  0
   55.6840   47.7130   25.7560 C   0  0  0  0  0  0  0  0  0  0  0  0
   57.3190   47.4830   25.8650 S   0  0  0  0  0  0  0  0  0  0  0  0
   55.1480   48.5820   24.8370 N   0  0  0  0  0  0  0  0  0  0  0  0
   52.8740   46.3840   27.5850 C   0  0  0  0  0  0  0  0  0  0  0  0
   51.4240   46.5350   27.6570 C   0  0  0  0  0  0  0  0  0  0  0  0
   50.8020   47.4530   26.7460 C   0  0  0  0  0  0  0  0  0  0  0  0
   51.6350   48.1260   25.7580 C   0  0  0  0  0  0  0  0  0  0  0  0
   55.5941   46.3129   27.2611 H   0  0  0  0  0  0  0  0  0  0  0  0
   55.7377   49.0769   24.1988 H   0  0  0  0  0  0  0  0  0  0  0  0
   53.3404   45.6810   28.2657 H   0  0  0  0  0  0  0  0  0  0  0  0
   50.8369   45.9728   28.3742 H   0  0  0  0  0  0  0  0  0  0  0  0
   49.7355   47.6416   26.7919 H   0  0  0  0  0  0  0  0  0  0  0  0
   51.1786   48.7460   24.9949 H   0  0  0  0  0  0  0  0  0  0  0  0
  1  2  2  0  0  0  0
  2  3  1  0  0  0  0
  2  8  1  0  0  0  0
  3  4  2  0  0  0  0
  3 12  1  0  0  0  0
  4  5  1  0  0  0  0
  4  9  1  0  0  0  0
  5  6  1  0  0  0  0
  5 13  1  0  0  0  0
  6  7  2  0  0  0  0
  6  8  1  0  0  0  0
  8 14  1  0  0  0  0
  9 10  2  0  0  0  0
  9 15  1  0  0  0  0
 10 11  1  0  0  0  0
 10 16  1  0  0  0  0
 11 12  2  0  0  0  0
 11 17  1  0  0  0  0
 12 18  1  0  0  0  0
M  END
