3d25_ligand
 OpenBabel08222323343D

142142  0  0  1  0  0  0  0  0999 V2000
   54.1000    4.8350   34.9170 N   0  3  0  0  0  0  0  0  0  0  0  0
   53.7440    6.1960   34.5460 C   0  0  2  0  0  0  0  0  0  0  0  0
   54.3170    7.1820   35.5690 C   0  0  0  0  0  0  0  0  0  0  0  0
   54.5000    6.8540   36.7460 O   0  0  0  0  0  0  0  0  0  0  0  0
   52.2370    6.4720   34.4480 C   0  0  0  0  0  0  0  0  0  0  0  0
   51.6340    5.6540   33.2930 C   0  0  0  0  0  0  0  0  0  0  0  0
   51.5720    6.2100   35.7780 C   0  0  0  0  0  0  0  0  0  0  0  0
   54.5600    8.3920   35.0820 N   0  0  0  0  0  0  0  0  0  0  0  0
   55.0750    9.4790   35.8980 C   0  0  2  0  0  0  0  0  0  0  0  0
   54.0480    9.9810   36.9100 C   0  0  0  0  0  0  0  0  0  0  0  0
   52.8330    9.8500   36.7080 O   0  0  0  0  0  0  0  0  0  0  0  0
   55.4480   10.6710   34.9830 C   0  0  0  0  0  0  0  0  0  0  0  0
   56.6370   10.4990   34.0560 C   0  0  0  0  0  0  0  0  0  0  0  0
   56.6680   11.6320   33.0120 C   0  0  0  0  0  0  0  0  0  0  0  0
   58.0030   10.4890   34.7340 C   0  0  0  0  0  0  0  0  0  0  0  0
   54.5860   10.5740   37.9840 N   0  0  0  0  0  0  0  0  0  0  0  0
   53.7110   11.3730   38.8940 C   0  0  2  0  0  0  0  0  0  0  0  0
   53.1270   12.5490   38.1520 C   0  0  0  0  0  0  0  0  0  0  0  0
   53.7120   13.0830   37.2060 O   0  0  0  0  0  0  0  0  0  0  0  0
   54.5270   11.7690   40.1180 C   0  0  0  0  0  0  0  0  0  0  0  0
   53.7880   12.5290   41.1850 C   0  0  0  0  0  0  0  0  0  0  0  0
   52.5990   12.1130   41.7380 N   0  0  0  0  0  0  0  0  0  0  0  0
   54.0810   13.7280   41.7750 C   0  0  0  0  0  0  0  0  0  0  0  0
   52.1800   13.0080   42.6500 C   0  0  0  0  0  0  0  0  0  0  0  0
   53.0730   13.9920   42.6860 N   0  0  0  0  0  0  0  0  0  0  0  0
   51.9390   13.0220   38.5820 N   0  0  0  0  0  0  0  0  0  0  0  0
   51.2680   14.0150   37.7580 C   0  0  2  0  0  0  0  0  0  0  0  0
   51.6930   15.4630   37.9000 C   0  0  0  0  0  0  0  0  0  0  0  0
   51.3510   16.2410   36.9900 O   0  0  0  0  0  0  0  0  0  0  0  0
   49.7620   13.9080   38.0480 C   0  0  0  0  0  0  0  0  0  0  0  0
   49.4130   14.3180   39.4760 C   0  0  0  0  0  0  0  0  0  0  0  0
   50.3250   14.5700   40.3030 O   0  5  0  0  0  0  0  0  0  0  0  0
   48.1760   14.3950   39.7410 O   0  0  0  0  0  0  0  0  0  0  0  0
   52.4100   15.8740   38.9340 N   0  0  0  0  0  0  0  0  0  0  0  0
   52.6950   17.3030   39.1520 C   0  0  2  0  0  0  0  0  0  0  0  0
   53.8750   17.4460   40.1010 C   0  0  0  0  0  0  0  0  0  0  0  0
   53.8820   16.8220   41.1730 O   0  0  0  0  0  0  0  0  0  0  0  0
   51.4420   17.9870   39.7370 C   0  0  0  0  0  0  0  0  0  0  0  0
   51.4900   19.4720   39.8890 C   0  0  0  0  0  0  0  0  0  0  0  0
   52.3310   20.0830   39.1940 O   0  5  0  0  0  0  0  0  0  0  0  0
   50.7020   20.0520   40.6830 O   0  0  0  0  0  0  0  0  0  0  0  0
   54.8830   18.2520   39.8000 N   0  0  0  0  0  0  0  0  0  0  0  0
   55.9320   18.5410   40.7600 C   0  0  2  0  0  0  0  0  0  0  0  0
   55.8750   20.0010   41.2390 C   0  0  0  0  0  0  0  0  0  0  0  0
   55.9480   20.8810   40.3530 O   0  0  0  0  0  0  0  0  0  0  0  0
   57.3320   18.3100   40.1760 C   0  0  0  0  0  0  0  0  0  0  0  0
   57.6330   16.9360   39.5950 C   0  0  0  0  0  0  0  0  0  0  0  0
   59.0220   16.8680   38.9930 C   0  0  0  0  0  0  0  0  0  0  0  0
   57.4840   15.8440   40.6770 C   0  0  0  0  0  0  0  0  0  0  0  0
   55.7920   20.2020   42.5490 N   0  0  0  0  0  0  0  0  0  0  0  0
   55.7990   21.5600   43.1160 C   0  0  2  0  0  0  0  0  0  0  0  0
   57.2380   22.0790   43.0800 C   0  0  0  0  0  0  0  0  0  0  0  0
   58.2230   21.3630   43.3050 O   0  0  0  0  0  0  0  0  0  0  0  0
   55.2430   21.5720   44.5340 C   0  0  0  0  0  0  0  0  0  0  0  0
   54.9150   22.8640   45.2690 C   0  0  0  0  0  0  0  0  0  0  0  0
   53.7390   23.5940   44.6510 C   0  0  0  0  0  0  0  0  0  0  0  0
   54.6280   22.6030   46.7640 C   0  0  0  0  0  0  0  0  0  0  0  0
   57.3710   23.3560   42.8040 N   0  0  0  0  0  0  0  0  0  0  0  0
   58.6550   24.0140   42.7800 C   0  0  2  0  0  0  0  0  0  0  0  0
   59.3100   24.0510   44.1710 C   0  0  0  0  0  0  0  0  0  0  0  0
   58.5860   24.1950   45.1750 O   0  0  0  0  0  0  0  0  0  0  0  0
   58.4730   25.4640   42.2600 C   0  0  0  0  0  0  0  0  0  0  0  0
   58.0380   25.4620   40.7820 C   0  0  0  0  0  0  0  0  0  0  0  0
   57.5350   26.7930   40.2400 C   0  0  0  0  0  0  0  0  0  0  0  0
   57.5190   27.8240   40.9440 O   0  5  0  0  0  0  0  0  0  0  0  0
   57.1320   26.8710   39.0630 O   0  0  0  0  0  0  0  0  0  0  0  0
   60.6330   23.9470   44.1770 N   0  0  0  0  0  0  0  0  0  0  0  0
   61.4560   24.0240   45.3700 C   0  0  2  0  0  0  0  0  0  0  0  0
   61.5510   25.4180   45.9830 C   0  0  0  0  0  0  0  0  0  0  0  0
   61.9840   25.5290   47.1530 O   0  5  0  0  0  0  0  0  0  0  0  0
   62.8830   23.5220   45.0660 C   0  0  0  0  0  0  0  0  0  0  0  0
   61.1970   26.4350   45.3360 O   0  0  0  0  0  0  0  0  0  0  0  0
   55.1036    4.7490   34.9560 H   0  0  0  0  0  0  0  0  0  0  0  0
   53.7342    4.1932   34.2312 H   0  0  0  0  0  0  0  0  0  0  0  0
   53.7090    4.6199   35.8208 H   0  0  0  0  0  0  0  0  0  0  0  0
   54.1916    6.3981   33.5618 H   0  0  0  0  0  0  0  0  0  0  0  0
   52.0962    7.5369   34.2111 H   0  0  0  0  0  0  0  0  0  0  0  0
   50.5545    5.8545   33.2262 H   0  0  0  0  0  0  0  0  0  0  0  0
   51.7970    4.5821   33.4786 H   0  0  0  0  0  0  0  0  0  0  0  0
   52.1193    5.9405   32.3483 H   0  0  0  0  0  0  0  0  0  0  0  0
   52.0505    6.8247   36.5546 H   0  0  0  0  0  0  0  0  0  0  0  0
   51.6762    5.1460   36.0368 H   0  0  0  0  0  0  0  0  0  0  0  0
   50.5049    6.4685   35.7117 H   0  0  0  0  0  0  0  0  0  0  0  0
   54.3814    8.5633   34.1131 H   0  0  0  0  0  0  0  0  0  0  0  0
   55.9686    9.1275   36.4345 H   0  0  0  0  0  0  0  0  0  0  0  0
   55.6599   11.5320   35.6339 H   0  0  0  0  0  0  0  0  0  0  0  0
   54.5713   10.8920   34.3564 H   0  0  0  0  0  0  0  0  0  0  0  0
   56.5097    9.5374   33.5372 H   0  0  0  0  0  0  0  0  0  0  0  0
   57.5339   11.4948   32.3476 H   0  0  0  0  0  0  0  0  0  0  0  0
   56.7497   12.6015   33.5253 H   0  0  0  0  0  0  0  0  0  0  0  0
   55.7426   11.6085   32.4178 H   0  0  0  0  0  0  0  0  0  0  0  0
   58.0302    9.6924   35.4921 H   0  0  0  0  0  0  0  0  0  0  0  0
   58.1796   11.4612   35.2173 H   0  0  0  0  0  0  0  0  0  0  0  0
   58.7844   10.3061   33.9817 H   0  0  0  0  0  0  0  0  0  0  0  0
   55.5634   10.4828   38.1747 H   0  0  0  0  0  0  0  0  0  0  0  0
   52.8764   10.7399   39.2297 H   0  0  0  0  0  0  0  0  0  0  0  0
   55.3636   12.3961   39.7763 H   0  0  0  0  0  0  0  0  0  0  0  0
   54.9209   10.8479   40.5724 H   0  0  0  0  0  0  0  0  0  0  0  0
   54.9454   14.3569   41.5669 H   0  0  0  0  0  0  0  0  0  0  0  0
   51.2738   12.9392   43.2500 H   0  0  0  0  0  0  0  0  0  0  0  0
   53.0227   14.8205   43.2959 H   0  0  0  0  0  0  0  0  0  0  0  0
   51.5337   12.7009   39.4379 H   0  0  0  0  0  0  0  0  0  0  0  0
   51.4475   13.7354   36.7094 H   0  0  0  0  0  0  0  0  0  0  0  0
   49.4456   12.8660   37.8926 H   0  0  0  0  0  0  0  0  0  0  0  0
   49.2206   14.5636   37.3501 H   0  0  0  0  0  0  0  0  0  0  0  0
   52.7660   15.1999   39.5813 H   0  0  0  0  0  0  0  0  0  0  0  0
   52.9475   17.7749   38.1910 H   0  0  0  0  0  0  0  0  0  0  0  0
   51.2636   17.5569   40.7336 H   0  0  0  0  0  0  0  0  0  0  0  0
   50.5948   17.7480   39.0774 H   0  0  0  0  0  0  0  0  0  0  0  0
   54.9215   18.6698   38.8923 H   0  0  0  0  0  0  0  0  0  0  0  0
   55.7936   17.8754   41.6248 H   0  0  0  0  0  0  0  0  0  0  0  0
   58.0591   18.4939   40.9806 H   0  0  0  0  0  0  0  0  0  0  0  0
   57.4797   19.0469   39.3728 H   0  0  0  0  0  0  0  0  0  0  0  0
   56.9027   16.7372   38.7968 H   0  0  0  0  0  0  0  0  0  0  0  0
   59.1965   15.8609   38.5864 H   0  0  0  0  0  0  0  0  0  0  0  0
   59.7696   17.0841   39.7704 H   0  0  0  0  0  0  0  0  0  0  0  0
   59.1082   17.6095   38.1851 H   0  0  0  0  0  0  0  0  0  0  0  0
   56.4753   15.8949   41.1128 H   0  0  0  0  0  0  0  0  0  0  0  0
   58.2329   16.0053   41.4663 H   0  0  0  0  0  0  0  0  0  0  0  0
   57.6375   14.8541   40.2225 H   0  0  0  0  0  0  0  0  0  0  0  0
   55.7234   19.4151   43.1623 H   0  0  0  0  0  0  0  0  0  0  0  0
   55.1685   22.2107   42.4923 H   0  0  0  0  0  0  0  0  0  0  0  0
   55.9804   21.0442   45.1566 H   0  0  0  0  0  0  0  0  0  0  0  0
   54.3086   20.9925   44.5015 H   0  0  0  0  0  0  0  0  0  0  0  0
   55.7959   23.5191   45.1986 H   0  0  0  0  0  0  0  0  0  0  0  0
   53.5427   24.5172   45.2159 H   0  0  0  0  0  0  0  0  0  0  0  0
   52.8489   22.9485   44.6828 H   0  0  0  0  0  0  0  0  0  0  0  0
   53.9720   23.8461   43.6060 H   0  0  0  0  0  0  0  0  0  0  0  0
   55.4806   22.0732   47.2140 H   0  0  0  0  0  0  0  0  0  0  0  0
   53.7213   21.9878   46.8614 H   0  0  0  0  0  0  0  0  0  0  0  0
   54.4778   23.5620   47.2814 H   0  0  0  0  0  0  0  0  0  0  0  0
   56.5515   23.8927   42.6029 H   0  0  0  0  0  0  0  0  0  0  0  0
   59.3180   23.4654   42.0949 H   0  0  0  0  0  0  0  0  0  0  0  0
   59.4266   26.0040   42.3549 H   0  0  0  0  0  0  0  0  0  0  0  0
   57.7037   25.9696   42.8621 H   0  0  0  0  0  0  0  0  0  0  0  0
   57.2303   24.7239   40.6684 H   0  0  0  0  0  0  0  0  0  0  0  0
   58.9029   25.1554   40.1755 H   0  0  0  0  0  0  0  0  0  0  0  0
   61.0938   23.8061   43.3007 H   0  0  0  0  0  0  0  0  0  0  0  0
   61.0055   23.3595   46.1220 H   0  0  0  0  0  0  0  0  0  0  0  0
   63.4959   23.5855   45.9772 H   0  0  0  0  0  0  0  0  0  0  0  0
   63.3312   24.1457   44.2786 H   0  0  0  0  0  0  0  0  0  0  0  0
   62.8393   22.4769   44.7256 H   0  0  0  0  0  0  0  0  0  0  0  0
  1  2  1  0  0  0  0
  1 73  1  0  0  0  0
  1 74  1  0  0  0  0
  1 75  1  0  0  0  0
  2  3  1  0  0  0  0
  2  5  1  0  0  0  0
  2 76  1  6  0  0  0
  3  4  2  0  0  0  0
  3  8  1  0  0  0  0
  5  6  1  0  0  0  0
  5  7  1  0  0  0  0
  5 77  1  0  0  0  0
  6 78  1  0  0  0  0
  6 79  1  0  0  0  0
  6 80  1  0  0  0  0
  7 81  1  0  0  0  0
  7 82  1  0  0  0  0
  7 83  1  0  0  0  0
  8  9  1  0  0  0  0
  8 84  1  0  0  0  0
  9 10  1  0  0  0  0
  9 12  1  0  0  0  0
  9 85  1  1  0  0  0
 10 11  2  0  0  0  0
 10 16  1  0  0  0  0
 12 13  1  0  0  0  0
 12 86  1  0  0  0  0
 12 87  1  0  0  0  0
 13 14  1  0  0  0  0
 13 15  1  0  0  0  0
 13 88  1  0  0  0  0
 14 89  1  0  0  0  0
 14 90  1  0  0  0  0
 14 91  1  0  0  0  0
 15 92  1  0  0  0  0
 15 93  1  0  0  0  0
 15 94  1  0  0  0  0
 16 17  1  0  0  0  0
 16 95  1  0  0  0  0
 17 18  1  0  0  0  0
 17 20  1  0  0  0  0
 17 96  1  1  0  0  0
 18 19  2  0  0  0  0
 18 26  1  0  0  0  0
 20 21  1  0  0  0  0
 20 97  1  0  0  0  0
 20 98  1  0  0  0  0
 21 22  1  0  0  0  0
 21 23  2  0  0  0  0
 22 24  2  0  0  0  0
 23 25  1  0  0  0  0
 23 99  1  0  0  0  0
 24 25  1  0  0  0  0
 24100  1  0  0  0  0
 25101  1  0  0  0  0
 26 27  1  0  0  0  0
 26102  1  0  0  0  0
 27 28  1  0  0  0  0
 27 30  1  0  0  0  0
 27103  1  6  0  0  0
 28 29  2  0  0  0  0
 28 34  1  0  0  0  0
 30 31  1  0  0  0  0
 30104  1  0  0  0  0
 30105  1  0  0  0  0
 31 32  1  0  0  0  0
 31 33  2  0  0  0  0
 34 35  1  0  0  0  0
 34106  1  0  0  0  0
 35 36  1  0  0  0  0
 35 38  1  0  0  0  0
 35107  1  6  0  0  0
 36 37  2  0  0  0  0
 36 42  1  0  0  0  0
 38 39  1  0  0  0  0
 38108  1  0  0  0  0
 38109  1  0  0  0  0
 39 40  1  0  0  0  0
 39 41  2  0  0  0  0
 42 43  1  0  0  0  0
 42110  1  0  0  0  0
 43 44  1  0  0  0  0
 43 46  1  0  0  0  0
 43111  1  1  0  0  0
 44 45  2  0  0  0  0
 44 50  1  0  0  0  0
 46 47  1  0  0  0  0
 46112  1  0  0  0  0
 46113  1  0  0  0  0
 47 48  1  0  0  0  0
 47 49  1  0  0  0  0
 47114  1  0  0  0  0
 48115  1  0  0  0  0
 48116  1  0  0  0  0
 48117  1  0  0  0  0
 49118  1  0  0  0  0
 49119  1  0  0  0  0
 49120  1  0  0  0  0
 50 51  1  0  0  0  0
 50121  1  0  0  0  0
 51 52  1  0  0  0  0
 51 54  1  0  0  0  0
 51122  1  6  0  0  0
 52 53  2  0  0  0  0
 52 58  1  0  0  0  0
 54 55  1  0  0  0  0
 54123  1  0  0  0  0
 54124  1  0  0  0  0
 55 56  1  0  0  0  0
 55 57  1  0  0  0  0
 55125  1  0  0  0  0
 56126  1  0  0  0  0
 56127  1  0  0  0  0
 56128  1  0  0  0  0
 57129  1  0  0  0  0
 57130  1  0  0  0  0
 57131  1  0  0  0  0
 58 59  1  0  0  0  0
 58132  1  0  0  0  0
 59 60  1  0  0  0  0
 59 62  1  0  0  0  0
 59133  1  6  0  0  0
 60 61  2  0  0  0  0
 60 67  1  0  0  0  0
 62 63  1  0  0  0  0
 62134  1  0  0  0  0
 62135  1  0  0  0  0
 63 64  1  0  0  0  0
 63136  1  0  0  0  0
 63137  1  0  0  0  0
 64 65  1  0  0  0  0
 64 66  2  0  0  0  0
 67 68  1  0  0  0  0
 67138  1  0  0  0  0
 68 69  1  0  0  0  0
 68 71  1  0  0  0  0
 68139  1  1  0  0  0
 69 70  1  0  0  0  0
 69 72  2  0  0  0  0
 71140  1  0  0  0  0
 71141  1  0  0  0  0
 71142  1  0  0  0  0
M  CHG  5   1   1  32  -1  40  -1  65  -1  70  -1
M  END
