3d27_ligand
 OpenBabel08222323343D

 27 28  0  0  0  0  0  0  0  0999 V2000
    1.3330   14.4750    9.5170 O   0  0  0  0  0  0  0  0  0  0  0  0
    0.0100   14.1980    9.3210 C   0  0  0  0  0  0  0  0  0  0  0  0
   -0.4300   13.8760    8.0500 C   0  0  0  0  0  0  0  0  0  0  0  0
    0.4590   13.8440    7.0270 O   0  0  0  0  0  0  0  0  0  0  0  0
   -1.7720   13.5850    7.8180 C   0  0  0  0  0  0  0  0  0  0  0  0
   -0.9010   14.2360   10.3800 C   0  0  0  0  0  0  0  0  0  0  0  0
   -2.2480   13.9450   10.1490 C   0  0  0  0  0  0  0  0  0  0  0  0
   -2.6900   13.6180    8.8640 C   0  0  0  0  0  0  0  0  0  0  0  0
   -4.1310   13.3110    8.5960 C   0  0  0  0  0  0  0  0  0  0  0  0
   -4.4990   11.9530    7.5870 S   0  0  0  0  0  0  0  0  0  0  0  0
   -6.2250   12.1260    7.6580 C   0  0  0  0  0  0  0  0  0  0  0  0
   -6.5180   13.2350    8.4590 C   0  0  0  0  0  0  0  0  0  0  0  0
   -5.4220   13.9340    9.0060 C   0  0  0  0  0  0  0  0  0  0  0  0
   -5.5440   15.1530    9.8900 C   0  0  0  0  0  0  0  0  0  0  0  0
   -5.5740   14.7080   11.3300 C   0  0  0  0  0  0  0  0  0  0  0  0
    1.4808   14.6765   10.4335 H   0  0  0  0  0  0  0  0  0  0  0  0
    0.0082   13.6091    6.2245 H   0  0  0  0  0  0  0  0  0  0  0  0
   -2.1035   13.3314    6.8176 H   0  0  0  0  0  0  0  0  0  0  0  0
   -0.5635   14.4906   11.3782 H   0  0  0  0  0  0  0  0  0  0  0  0
   -2.9541   13.9730   10.9710 H   0  0  0  0  0  0  0  0  0  0  0  0
   -6.9528   11.4833    7.1649 H   0  0  0  0  0  0  0  0  0  0  0  0
   -7.5444   13.5441    8.6511 H   0  0  0  0  0  0  0  0  0  0  0  0
   -6.4724   15.6921    9.6503 H   0  0  0  0  0  0  0  0  0  0  0  0
   -4.6820   15.8164    9.7260 H   0  0  0  0  0  0  0  0  0  0  0  0
   -5.6627   15.5881   11.9839 H   0  0  0  0  0  0  0  0  0  0  0  0
   -4.6454   14.1678   11.5663 H   0  0  0  0  0  0  0  0  0  0  0  0
   -6.4358   14.0435   11.4906 H   0  0  0  0  0  0  0  0  0  0  0  0
  1  2  1  0  0  0  0
  1 16  1  0  0  0  0
  2  3  2  0  0  0  0
  2  6  1  0  0  0  0
  3  4  1  0  0  0  0
  3  5  1  0  0  0  0
  4 17  1  0  0  0  0
  5  8  2  0  0  0  0
  5 18  1  0  0  0  0
  6  7  2  0  0  0  0
  6 19  1  0  0  0  0
  7  8  1  0  0  0  0
  7 20  1  0  0  0  0
  8  9  1  0  0  0  0
  9 10  1  0  0  0  0
  9 13  2  0  0  0  0
 10 11  1  0  0  0  0
 11 12  2  0  0  0  0
 11 21  1  0  0  0  0
 12 13  1  0  0  0  0
 12 22  1  0  0  0  0
 13 14  1  0  0  0  0
 14 15  1  0  0  0  0
 14 23  1  0  0  0  0
 14 24  1  0  0  0  0
 15 25  1  0  0  0  0
 15 26  1  0  0  0  0
 15 27  1  0  0  0  0
M  END
