3d2r_ligand
 OpenBabel08222323343D

 39 41  0  0  1  0  0  0  0  0999 V2000
  -21.4650    5.3780   26.8680 P   0  0  0  0  0  0  0  0  0  0  0  0
  -20.9120    5.2790   28.3320 O   0  0  0  0  0  1  0  0  0  0  0  0
  -22.8020    4.8120   26.7120 O   0  0  0  0  0  1  0  0  0  0  0  0
  -21.3250    6.7530   26.3230 O   0  0  0  0  0  0  0  0  0  0  0  0
  -19.2740    4.6920   24.9660 P   0  0  2  0  0  0  0  0  0  0  0  0
  -19.6610    5.8800   24.1220 O   0  0  0  0  0  1  0  0  0  0  0  0
  -18.8000    3.3610   24.4170 O   0  0  0  0  0  0  0  0  0  0  0  0
  -20.4730    4.3680   26.0100 O   0  0  0  0  0  0  0  0  0  0  0  0
  -18.0690    5.2780   25.9200 O   0  0  0  0  0  0  0  0  0  0  0  0
  -17.6290    4.4310   27.0070 C   0  0  0  0  0  0  0  0  0  0  0  0
  -17.0160    5.2200   28.1780 C   0  0  1  0  0  0  0  0  0  0  0  0
  -15.8370    5.8360   27.6930 O   0  0  0  0  0  0  0  0  0  0  0  0
  -17.8370    6.4340   28.6420 C   0  0  1  0  0  0  0  0  0  0  0  0
  -18.8850    6.0910   29.5670 O   0  0  0  0  0  0  0  0  0  0  0  0
  -16.8040    7.3450   29.2270 C   0  0  1  0  0  0  0  0  0  0  0  0
  -16.4950    6.8590   30.5380 O   0  0  0  0  0  0  0  0  0  0  0  0
  -15.5910    7.0780   28.3350 C   0  0  2  0  0  0  0  0  0  0  0  0
  -15.3970    8.1520   27.3390 N   0  0  0  0  0  0  0  0  0  0  0  0
  -15.7080    8.1030   26.0150 C   0  0  0  0  0  0  0  0  0  0  0  0
  -15.3340    9.2410   25.3880 N   0  0  0  0  0  0  0  0  0  0  0  0
  -14.7890   10.0470   26.3530 C   0  0  0  0  0  0  0  0  0  0  0  0
  -14.2450   11.3730   26.4020 C   0  0  0  0  0  0  0  0  0  0  0  0
  -14.2150   12.1620   25.2540 N   0  0  0  0  0  0  0  0  0  0  0  0
  -13.6850   11.7930   27.5970 N   0  0  0  0  0  0  0  0  0  0  0  0
  -13.7530   11.1090   28.7440 C   0  0  0  0  0  0  0  0  0  0  0  0
  -14.2860    9.8880   28.7750 N   0  0  0  0  0  0  0  0  0  0  0  0
  -14.7950    9.3100   27.6250 C   0  0  0  0  0  0  0  0  0  0  0  0
  -16.8721    3.7320   26.6217 H   0  0  0  0  0  0  0  0  0  0  0  0
  -18.4943    3.8645   27.3816 H   0  0  0  0  0  0  0  0  0  0  0  0
  -16.8174    4.5401   29.0196 H   0  0  0  0  0  0  0  0  0  0  0  0
  -18.3050    6.9177   27.7719 H   0  0  0  0  0  0  0  0  0  0  0  0
  -19.4838    5.4806   29.1532 H   0  0  0  0  0  0  0  0  0  0  0  0
  -17.1112    8.4012   29.2371 H   0  0  0  0  0  0  0  0  0  0  0  0
  -17.2821    6.8636   31.0699 H   0  0  0  0  0  0  0  0  0  0  0  0
  -14.6857    7.0042   28.9554 H   0  0  0  0  0  0  0  0  0  0  0  0
  -16.1933    7.2597   25.5258 H   0  0  0  0  0  0  0  0  0  0  0  0
  -13.8234   13.1139   25.2934 H   0  0  0  0  0  0  0  0  0  0  0  0
  -14.5844   11.7934   24.3660 H   0  0  0  0  0  0  0  0  0  0  0  0
  -13.3711   11.5517   29.6568 H   0  0  0  0  0  0  0  0  0  0  0  0
  1  2  1  0  0  0  0
  1  3  1  0  0  0  0
  1  4  2  0  0  0  0
  5  6  1  6  0  0  0
  5  7  2  0  0  0  0
  5  8  1  0  0  0  0
  5  9  1  0  0  0  0
  8  1  1  0  0  0  0
  9 10  1  0  0  0  0
 10 11  1  0  0  0  0
 10 28  1  0  0  0  0
 10 29  1  0  0  0  0
 11 12  1  0  0  0  0
 11 13  1  0  0  0  0
 11 30  1  1  0  0  0
 12 17  1  0  0  0  0
 13 14  1  0  0  0  0
 13 15  1  0  0  0  0
 13 31  1  6  0  0  0
 14 32  1  0  0  0  0
 15 16  1  0  0  0  0
 15 17  1  0  0  0  0
 15 33  1  6  0  0  0
 16 34  1  0  0  0  0
 17 18  1  0  0  0  0
 17 35  1  1  0  0  0
 18 19  1  0  0  0  0
 18 27  1  0  0  0  0
 19 20  2  0  0  0  0
 19 36  1  0  0  0  0
 20 21  1  0  0  0  0
 21 22  2  0  0  0  0
 21 27  1  0  0  0  0
 22 23  1  0  0  0  0
 22 24  1  0  0  0  0
 23 37  1  0  0  0  0
 23 38  1  0  0  0  0
 24 25  2  0  0  0  0
 25 26  1  0  0  0  0
 25 39  1  0  0  0  0
 26 27  2  0  0  0  0
M  END
