3d2t_ligand
 OpenBabel08222323343D

 25 26  0  0  0  0  0  0  0  0999 V2000
    0.4510   40.5170    7.5950 F   0  0  0  0  0  0  0  0  0  0  0  0
    0.4980   41.6850    8.4420 C   0  0  0  0  0  0  0  0  0  0  0  0
    0.0120   41.5230    9.6890 C   0  0  0  0  0  0  0  0  0  0  0  0
    0.0760   42.5400   10.6580 C   0  0  0  0  0  0  0  0  0  0  0  0
   -0.4060   42.3580   11.9120 F   0  0  0  0  0  0  0  0  0  0  0  0
    0.6360   43.7390   10.3630 C   0  0  0  0  0  0  0  0  0  0  0  0
    1.0970   43.9330    9.1440 C   0  0  0  0  0  0  0  0  0  0  0  0
    1.0750   42.9210    8.0660 C   0  0  0  0  0  0  0  0  0  0  0  0
    1.5800   43.2020    6.7640 C   0  0  0  0  0  0  0  0  0  0  0  0
    0.8200   42.9120    5.5280 C   0  0  0  0  0  0  0  0  0  0  0  0
    1.2610   43.0800    4.3110 C   0  0  0  0  0  0  0  0  0  0  0  0
    0.3150   42.6970    3.1020 C   0  0  0  0  0  0  0  0  0  0  0  0
   -1.0880   42.5280    3.3410 O   0  5  0  0  0  0  0  0  0  0  0  0
    0.6960   42.5510    2.0580 O   0  0  0  0  0  0  0  0  0  0  0  0
    2.8350   43.7130    6.5430 C   0  0  0  0  0  0  0  0  0  0  0  0
    3.2730   43.9490    5.3300 C   0  0  0  0  0  0  0  0  0  0  0  0
    2.5560   43.6530    4.2500 C   0  0  0  0  0  0  0  0  0  0  0  0
    3.1400   43.9360    2.9710 O   0  0  0  0  0  0  0  0  0  0  0  0
   -0.4439   40.5759    9.9539 H   0  0  0  0  0  0  0  0  0  0  0  0
    0.7029   44.5195   11.1123 H   0  0  0  0  0  0  0  0  0  0  0  0
    1.5226   44.9033    8.9151 H   0  0  0  0  0  0  0  0  0  0  0  0
   -0.1872   42.5279    5.6428 H   0  0  0  0  0  0  0  0  0  0  0  0
    3.4776   43.9259    7.3897 H   0  0  0  0  0  0  0  0  0  0  0  0
    4.2507   44.3997    5.2035 H   0  0  0  0  0  0  0  0  0  0  0  0
    2.5347   43.6817    2.2845 H   0  0  0  0  0  0  0  0  0  0  0  0
  1  2  1  0  0  0  0
  2  3  2  0  0  0  0
  2  8  1  0  0  0  0
  3  4  1  0  0  0  0
  3 19  1  0  0  0  0
  4  5  1  0  0  0  0
  4  6  2  0  0  0  0
  6  7  1  0  0  0  0
  6 20  1  0  0  0  0
  7  8  2  0  0  0  0
  7 21  1  0  0  0  0
  8  9  1  0  0  0  0
  9 10  2  0  0  0  0
  9 15  1  0  0  0  0
 10 11  1  0  0  0  0
 10 22  1  0  0  0  0
 11 12  1  0  0  0  0
 11 17  2  0  0  0  0
 12 13  1  0  0  0  0
 12 14  2  0  0  0  0
 15 16  2  0  0  0  0
 15 23  1  0  0  0  0
 16 17  1  0  0  0  0
 16 24  1  0  0  0  0
 17 18  1  0  0  0  0
 18 25  1  0  0  0  0
M  CHG  1  13  -1
M  END
