3d3p_ligand
 OpenBabel08222323343D

 53 56  0  0  0  0  0  0  0  0999 V2000
   48.7370   47.4590   65.9110 O   0  0  0  0  0  0  0  0  0  0  0  0
   47.6420   47.2230   66.4350 C   0  0  0  0  0  0  0  0  0  0  0  0
   47.4610   47.3780   67.7610 N   0  0  0  0  0  0  0  0  0  0  0  0
   48.5190   47.8010   68.6620 C   0  0  0  0  0  0  0  0  0  0  0  0
   48.5640   49.3180   68.6080 C   0  0  0  0  0  0  0  0  0  0  0  0
   49.5440   50.0260   67.9310 C   0  0  0  0  0  0  0  0  0  0  0  0
   49.5300   51.4200   67.8750 C   0  0  0  0  0  0  0  0  0  0  0  0
   48.5330   52.0680   68.4860 C   0  0  0  0  0  0  0  0  0  0  0  0
   47.5450   51.4630   69.1490 C   0  0  0  0  0  0  0  0  0  0  0  0
   47.5400   50.0630   69.2020 C   0  0  0  0  0  0  0  0  0  0  0  0
   46.5230   46.9490   65.5170 C   0  0  0  0  0  0  0  0  0  0  0  0
   45.2640   47.1010   66.0630 C   0  0  0  0  0  0  0  0  0  0  0  0
   44.1410   46.9620   65.3410 N   0  0  0  0  0  0  0  0  0  0  0  0
   44.2400   46.6600   64.0360 C   0  0  0  0  0  0  0  0  0  0  0  0
   43.2520   46.4720   63.0700 N   0  0  0  0  0  0  0  0  0  0  0  0
   41.7780   46.5480   63.2910 C   0  0  0  0  0  0  0  0  0  0  0  0
   41.2190   45.1820   63.7030 C   0  0  0  0  0  0  0  0  0  0  0  0
   43.8430   46.1940   61.8630 N   0  0  0  0  0  0  0  0  0  0  0  0
   45.5280   46.5060   63.4440 C   0  0  0  0  0  0  0  0  0  0  0  0
   45.1960   46.1880   62.0650 C   0  0  0  0  0  0  0  0  0  0  0  0
   46.7060   46.6190   64.1660 C   0  0  0  0  0  0  0  0  0  0  0  0
   47.9450   46.4820   63.6620 N   0  0  0  0  0  0  0  0  0  0  0  0
   48.3760   45.8860   62.3850 C   0  0  0  0  0  0  0  0  0  0  0  0
   49.5740   44.9320   62.6020 C   0  0  0  0  0  0  0  0  0  0  0  0
   50.0370   44.3830   61.2430 C   0  0  0  0  0  0  0  0  0  0  0  0
   50.3730   45.4890   60.4310 O   0  0  0  0  0  0  0  0  0  0  0  0
   49.3040   46.3370   60.0250 C   0  0  0  0  0  0  0  0  0  0  0  0
   48.6770   46.9270   61.3080 C   0  0  0  0  0  0  0  0  0  0  0  0
   46.5555   47.1931   68.1430 H   0  0  0  0  0  0  0  0  0  0  0  0
   49.4828   47.3822   68.3368 H   0  0  0  0  0  0  0  0  0  0  0  0
   48.3002   47.4653   69.6864 H   0  0  0  0  0  0  0  0  0  0  0  0
   50.3401   49.4842   67.4333 H   0  0  0  0  0  0  0  0  0  0  0  0
   50.3072   51.9634   67.3498 H   0  0  0  0  0  0  0  0  0  0  0  0
   48.5265   53.1510   68.4402 H   0  0  0  0  0  0  0  0  0  0  0  0
   46.7662   52.0403   69.6341 H   0  0  0  0  0  0  0  0  0  0  0  0
   46.7315   49.5501   69.7103 H   0  0  0  0  0  0  0  0  0  0  0  0
   45.1791   47.3421   67.1164 H   0  0  0  0  0  0  0  0  0  0  0  0
   41.2898   46.8716   62.3599 H   0  0  0  0  0  0  0  0  0  0  0  0
   41.5697   47.2780   64.0871 H   0  0  0  0  0  0  0  0  0  0  0  0
   40.1332   45.2624   63.8600 H   0  0  0  0  0  0  0  0  0  0  0  0
   41.7011   44.8547   64.6360 H   0  0  0  0  0  0  0  0  0  0  0  0
   41.4212   44.4483   62.9088 H   0  0  0  0  0  0  0  0  0  0  0  0
   45.9310   45.9724   61.2909 H   0  0  0  0  0  0  0  0  0  0  0  0
   48.7038   46.8470   64.2552 H   0  0  0  0  0  0  0  0  0  0  0  0
   47.5370   45.2785   62.0149 H   0  0  0  0  0  0  0  0  0  0  0  0
   49.2672   44.0980   63.2502 H   0  0  0  0  0  0  0  0  0  0  0  0
   50.4000   45.4812   63.0774 H   0  0  0  0  0  0  0  0  0  0  0  0
   49.2259   43.8060   60.7749 H   0  0  0  0  0  0  0  0  0  0  0  0
   50.9161   43.7360   61.3790 H   0  0  0  0  0  0  0  0  0  0  0  0
   48.5520   45.7564   59.4706 H   0  0  0  0  0  0  0  0  0  0  0  0
   49.6867   47.1464   59.3859 H   0  0  0  0  0  0  0  0  0  0  0  0
   49.3757   47.6663   61.7265 H   0  0  0  0  0  0  0  0  0  0  0  0
   47.7352   47.4257   61.0355 H   0  0  0  0  0  0  0  0  0  0  0  0
  1  2  2  0  0  0  0
  2  3  1  0  0  0  0
  2 11  1  0  0  0  0
  3  4  1  0  0  0  0
  3 29  1  0  0  0  0
  4  5  1  0  0  0  0
  4 30  1  0  0  0  0
  4 31  1  0  0  0  0
  5  6  2  0  0  0  0
  5 10  1  0  0  0  0
  6  7  1  0  0  0  0
  6 32  1  0  0  0  0
  7  8  2  0  0  0  0
  7 33  1  0  0  0  0
  8  9  1  0  0  0  0
  8 34  1  0  0  0  0
  9 10  2  0  0  0  0
  9 35  1  0  0  0  0
 10 36  1  0  0  0  0
 11 12  2  0  0  0  0
 11 21  1  0  0  0  0
 12 13  1  0  0  0  0
 12 37  1  0  0  0  0
 13 14  2  0  0  0  0
 14 15  1  0  0  0  0
 14 19  1  0  0  0  0
 15 16  1  0  0  0  0
 15 18  1  0  0  0  0
 16 17  1  0  0  0  0
 16 38  1  0  0  0  0
 16 39  1  0  0  0  0
 17 40  1  0  0  0  0
 17 41  1  0  0  0  0
 17 42  1  0  0  0  0
 18 20  2  0  0  0  0
 19 20  1  0  0  0  0
 19 21  2  0  0  0  0
 20 43  1  0  0  0  0
 21 22  1  0  0  0  0
 22 23  1  0  0  0  0
 22 44  1  0  0  0  0
 23 24  1  0  0  0  0
 23 28  1  0  0  0  0
 23 45  1  0  0  0  0
 24 25  1  0  0  0  0
 24 46  1  0  0  0  0
 24 47  1  0  0  0  0
 25 26  1  0  0  0  0
 25 48  1  0  0  0  0
 25 49  1  0  0  0  0
 26 27  1  0  0  0  0
 27 28  1  0  0  0  0
 27 50  1  0  0  0  0
 27 51  1  0  0  0  0
 28 52  1  0  0  0  0
 28 53  1  0  0  0  0
M  END
