3d4f_ligand
 OpenBabel08222323343D

 55 57  0  0  1  0  0  0  0  0999 V2000
   34.4240   59.9260    3.8910 O   0  0  0  0  0  0  0  0  0  0  0  0
   34.1880   60.9080    4.6010 C   0  0  0  0  0  0  0  0  0  0  0  0
   34.4240   62.3760    4.2470 C   0  0  0  0  0  0  0  0  0  0  0  0
   34.0040   63.3770    5.0240 C   0  0  0  0  0  0  0  0  0  0  0  0
   34.1730   64.5290    4.3750 C   0  0  0  0  0  0  0  0  0  0  0  0
   33.9080   65.8500    4.7300 C   0  0  0  0  0  0  0  0  0  0  0  0
   34.1820   66.8670    3.8160 C   0  0  0  0  0  0  0  0  0  0  0  0
   34.7060   66.5490    2.5660 C   0  0  0  0  0  0  0  0  0  0  0  0
   34.9710   65.2310    2.2040 C   0  0  0  0  0  0  0  0  0  0  0  0
   34.7120   64.2040    3.1240 N   0  0  0  0  0  0  0  0  0  0  0  0
   34.9080   62.8220    3.0180 C   0  0  0  0  0  0  0  0  0  0  0  0
   35.3090   61.9670    2.0750 N   0  0  0  0  0  0  0  0  0  0  0  0
   36.6560   62.1020    1.5050 C   0  0  1  0  0  0  0  0  0  0  0  0
   37.7180   61.8140    2.5690 C   0  0  0  0  0  0  0  0  0  0  0  0
   37.5070   60.8790    3.3660 O   0  5  0  0  0  0  0  0  0  0  0  0
   38.7430   62.5290    2.5510 O   0  0  0  0  0  0  0  0  0  0  0  0
   36.8010   61.1750    0.2950 C   0  0  2  0  0  0  0  0  0  0  0  0
   35.3660   61.4260   -0.8120 S   0  0  0  0  0  0  0  0  0  0  0  0
   35.6360   60.8110   -2.0800 O   0  0  0  0  0  1  0  0  0  0  0  0
   35.3040   62.9140   -0.9980 O   0  0  0  0  0  1  0  0  0  0  0  0
   36.8410   59.7000    0.7080 C   0  0  0  0  0  0  0  0  0  0  0  0
   38.0670   61.5610   -0.4520 C   0  0  0  0  0  0  0  0  0  0  0  0
   39.1970   61.3510    0.4060 O   0  0  0  0  0  0  0  0  0  0  0  0
   40.3320   61.5360   -0.3150 C   0  0  0  0  0  0  0  0  0  0  0  0
   40.5070   62.5820   -0.9390 O   0  0  0  0  0  0  0  0  0  0  0  0
   41.3860   60.4280   -0.3170 C   0  0  0  0  0  0  0  0  0  0  0  0
   42.6520   60.9910   -0.9580 C   0  0  0  0  0  0  0  0  0  0  0  0
   42.6960   61.1850   -2.3330 C   0  0  0  0  0  0  0  0  0  0  0  0
   43.7320   61.3560   -0.1630 C   0  0  0  0  0  0  0  0  0  0  0  0
   44.8610   61.9200   -0.7460 C   0  0  0  0  0  0  0  0  0  0  0  0
   44.9090   62.1170   -2.1220 C   0  0  0  0  0  0  0  0  0  0  0  0
   46.0460   62.6200   -2.6750 O   0  0  0  0  0  0  0  0  0  0  0  0
   43.8250   61.7490   -2.9160 C   0  0  0  0  0  0  0  0  0  0  0  0
   43.8500   61.9090   -4.2670 O   0  0  0  0  0  0  0  0  0  0  0  0
   33.7666   60.7067    5.5848 H   0  0  0  0  0  0  0  0  0  0  0  0
   33.5904   63.2698    6.0257 H   0  0  0  0  0  0  0  0  0  0  0  0
   33.4923   66.0853    5.7086 H   0  0  0  0  0  0  0  0  0  0  0  0
   33.9869   67.9056    4.0789 H   0  0  0  0  0  0  0  0  0  0  0  0
   34.9131   67.3484    1.8561 H   0  0  0  0  0  0  0  0  0  0  0  0
   35.3743   65.0002    1.2191 H   0  0  0  0  0  0  0  0  0  0  0  0
   34.6797   61.2193    1.7499 H   0  0  0  0  0  0  0  0  0  0  0  0
   36.7877   63.1389    1.1622 H   0  0  0  0  0  0  0  0  0  0  0  0
   34.5158   61.0623   -0.4109 H   0  0  0  0  0  0  0  0  0  0  0  0
   37.6988   59.5292    1.3751 H   0  0  0  0  0  0  0  0  0  0  0  0
   36.9428   59.0708   -0.1885 H   0  0  0  0  0  0  0  0  0  0  0  0
   35.9102   59.4411    1.2340 H   0  0  0  0  0  0  0  0  0  0  0  0
   38.0158   62.6209   -0.7418 H   0  0  0  0  0  0  0  0  0  0  0  0
   38.1677   60.9388   -1.3535 H   0  0  0  0  0  0  0  0  0  0  0  0
   41.0233   59.5672   -0.8979 H   0  0  0  0  0  0  0  0  0  0  0  0
   41.5980   60.1110    0.7148 H   0  0  0  0  0  0  0  0  0  0  0  0
   41.8522   60.8973   -2.9496 H   0  0  0  0  0  0  0  0  0  0  0  0
   43.6941   61.2013    0.9092 H   0  0  0  0  0  0  0  0  0  0  0  0
   45.7042   62.2064   -0.1279 H   0  0  0  0  0  0  0  0  0  0  0  0
   45.9317   62.6988   -3.6148 H   0  0  0  0  0  0  0  0  0  0  0  0
   43.0292   61.6047   -4.6360 H   0  0  0  0  0  0  0  0  0  0  0  0
  1  2  2  0  0  0  0
  2  3  1  0  0  0  0
  2 35  1  0  0  0  0
  3  4  1  0  0  0  0
  3 11  2  0  0  0  0
  4  5  2  0  0  0  0
  4 36  1  0  0  0  0
  5  6  1  0  0  0  0
  5 10  1  0  0  0  0
  6  7  2  0  0  0  0
  6 37  1  0  0  0  0
  7  8  1  0  0  0  0
  7 38  1  0  0  0  0
  8  9  2  0  0  0  0
  8 39  1  0  0  0  0
  9 10  1  0  0  0  0
  9 40  1  0  0  0  0
 10 11  1  0  0  0  0
 11 12  1  0  0  0  0
 12 13  1  0  0  0  0
 12 41  1  0  0  0  0
 13 14  1  0  0  0  0
 13 17  1  0  0  0  0
 13 42  1  6  0  0  0
 14 15  1  0  0  0  0
 14 16  2  0  0  0  0
 17 18  1  0  0  0  0
 17 21  1  1  0  0  0
 17 22  1  0  0  0  0
 18 19  1  0  0  0  0
 18 20  1  0  0  0  0
 18 43  1  0  0  0  0
 21 44  1  0  0  0  0
 21 45  1  0  0  0  0
 21 46  1  0  0  0  0
 22 23  1  0  0  0  0
 22 47  1  0  0  0  0
 22 48  1  0  0  0  0
 23 24  1  0  0  0  0
 24 25  2  0  0  0  0
 24 26  1  0  0  0  0
 26 27  1  0  0  0  0
 26 49  1  0  0  0  0
 26 50  1  0  0  0  0
 27 28  2  0  0  0  0
 27 29  1  0  0  0  0
 28 33  1  0  0  0  0
 28 51  1  0  0  0  0
 29 30  2  0  0  0  0
 29 52  1  0  0  0  0
 30 31  1  0  0  0  0
 30 53  1  0  0  0  0
 31 32  1  0  0  0  0
 31 33  2  0  0  0  0
 32 54  1  0  0  0  0
 33 34  1  0  0  0  0
 34 55  1  0  0  0  0
M  CHG  1  15  -1
M  END
