3d7d_ligand
 OpenBabel08222323343D

 43 43  0  0  1  0  0  0  0  0999 V2000
   23.3590   50.3460   47.3820 F   0  0  0  0  0  0  0  0  0  0  0  0
   23.2990   49.5500   46.2740 C   0  0  0  0  0  0  0  0  0  0  0  0
   23.8850   48.2920   46.3700 C   0  0  0  0  0  0  0  0  0  0  0  0
   23.8950   47.4320   45.2760 C   0  0  0  0  0  0  0  0  0  0  0  0
   22.7150   49.9690   45.0580 C   0  0  0  0  0  0  0  0  0  0  0  0
   22.7210   49.0930   43.9480 C   0  0  0  0  0  0  0  0  0  0  0  0
   23.3160   47.8160   44.0620 C   0  0  0  0  0  0  0  0  0  0  0  0
   23.3790   46.8260   42.8950 C   0  0  0  0  0  0  0  0  0  0  0  0
   22.5380   45.3090   43.2950 S   0  0  0  0  0  0  0  0  0  0  0  0
   20.8500   45.8770   43.4020 C   0  0  0  0  0  0  0  0  0  0  0  0
   19.9710   45.0980   44.4060 C   0  0  1  0  0  0  0  0  0  0  0  0
   20.1220   45.7220   45.7830 C   0  0  0  0  0  0  0  0  0  0  0  0
   20.6320   45.0090   46.6720 O   0  5  0  0  0  0  0  0  0  0  0  0
   19.6860   46.8890   45.9740 O   0  0  0  0  0  0  0  0  0  0  0  0
   18.6570   45.4730   43.9010 N   0  0  0  0  0  0  0  0  0  0  0  0
   17.9670   44.7330   43.0320 C   0  0  0  0  0  0  0  0  0  0  0  0
   18.4020   43.6600   42.5560 O   0  0  0  0  0  0  0  0  0  0  0  0
   16.7240   45.1550   42.7020 N   0  0  0  0  0  0  0  0  0  0  0  0
   16.0380   44.4360   41.6140 C   0  0  2  0  0  0  0  0  0  0  0  0
   17.0080   44.6360   40.4370 C   0  0  0  0  0  0  0  0  0  0  0  0
   17.9050   45.5240   40.4540 O   0  5  0  0  0  0  0  0  0  0  0  0
   16.9350   43.8740   39.4100 O   0  0  0  0  0  0  0  0  0  0  0  0
   14.7710   45.2090   41.1750 C   0  0  0  0  0  0  0  0  0  0  0  0
   14.9850   46.7270   41.0920 C   0  0  0  0  0  0  0  0  0  0  0  0
   13.8570   47.4960   40.4060 C   0  0  0  0  0  0  0  0  0  0  0  0
   13.7890   48.7330   40.5830 O   0  5  0  0  0  0  0  0  0  0  0  0
   13.0100   46.8860   39.6980 O   0  0  0  0  0  0  0  0  0  0  0  0
   24.3373   47.9792   47.3042 H   0  0  0  0  0  0  0  0  0  0  0  0
   24.3560   46.4550   45.3655 H   0  0  0  0  0  0  0  0  0  0  0  0
   22.2666   50.9525   44.9765 H   0  0  0  0  0  0  0  0  0  0  0  0
   22.2701   49.4003   43.0113 H   0  0  0  0  0  0  0  0  0  0  0  0
   24.4323   46.6039   42.6688 H   0  0  0  0  0  0  0  0  0  0  0  0
   22.9023   47.2792   42.0133 H   0  0  0  0  0  0  0  0  0  0  0  0
   20.3939   45.7869   42.4051 H   0  0  0  0  0  0  0  0  0  0  0  0
   20.8624   46.9342   43.7054 H   0  0  0  0  0  0  0  0  0  0  0  0
   20.1591   44.0143   44.4164 H   0  0  0  0  0  0  0  0  0  0  0  0
   18.2517   46.3289   44.2223 H   0  0  0  0  0  0  0  0  0  0  0  0
   16.2901   45.9213   43.1759 H   0  0  0  0  0  0  0  0  0  0  0  0
   15.8298   43.3839   41.8584 H   0  0  0  0  0  0  0  0  0  0  0  0
   13.9701   45.0084   41.9018 H   0  0  0  0  0  0  0  0  0  0  0  0
   14.4657   44.8446   40.1830 H   0  0  0  0  0  0  0  0  0  0  0  0
   15.9143   46.9116   40.5332 H   0  0  0  0  0  0  0  0  0  0  0  0
   15.0898   47.1144   42.1162 H   0  0  0  0  0  0  0  0  0  0  0  0
  1  2  1  0  0  0  0
  2  3  2  0  0  0  0
  2  5  1  0  0  0  0
  3  4  1  0  0  0  0
  3 28  1  0  0  0  0
  4  7  2  0  0  0  0
  4 29  1  0  0  0  0
  5  6  2  0  0  0  0
  5 30  1  0  0  0  0
  6  7  1  0  0  0  0
  6 31  1  0  0  0  0
  7  8  1  0  0  0  0
  8  9  1  0  0  0  0
  8 32  1  0  0  0  0
  8 33  1  0  0  0  0
  9 10  1  0  0  0  0
 10 11  1  0  0  0  0
 10 34  1  0  0  0  0
 10 35  1  0  0  0  0
 11 12  1  0  0  0  0
 11 15  1  0  0  0  0
 11 36  1  6  0  0  0
 12 13  1  0  0  0  0
 12 14  2  0  0  0  0
 15 16  1  0  0  0  0
 15 37  1  0  0  0  0
 16 17  2  0  0  0  0
 16 18  1  0  0  0  0
 18 19  1  0  0  0  0
 18 38  1  0  0  0  0
 19 20  1  0  0  0  0
 19 23  1  0  0  0  0
 19 39  1  1  0  0  0
 20 21  1  0  0  0  0
 20 22  2  0  0  0  0
 23 24  1  0  0  0  0
 23 40  1  0  0  0  0
 23 41  1  0  0  0  0
 24 25  1  0  0  0  0
 24 42  1  0  0  0  0
 24 43  1  0  0  0  0
 25 26  1  0  0  0  0
 25 27  2  0  0  0  0
M  CHG  3  13  -1  21  -1  26  -1
M  END
