3d7g_ligand
 OpenBabel08222323343D

 33 32  0  0  1  0  0  0  0  0999 V2000
   13.7490   48.4110   40.6760 O   0  5  0  0  0  0  0  0  0  0  0  0
   13.8020   47.1700   40.4630 C   0  0  0  0  0  0  0  0  0  0  0  0
   13.0090   46.5980   39.6810 O   0  0  0  0  0  0  0  0  0  0  0  0
   14.8920   46.3870   41.1760 C   0  0  0  0  0  0  0  0  0  0  0  0
   14.7250   44.8530   41.2340 C   0  0  0  0  0  0  0  0  0  0  0  0
   16.0310   44.1220   41.6460 C   0  0  1  0  0  0  0  0  0  0  0  0
   16.9750   44.3140   40.4370 C   0  0  0  0  0  0  0  0  0  0  0  0
   16.8700   43.5680   39.3920 O   0  5  0  0  0  0  0  0  0  0  0  0
   17.8840   45.2060   40.4590 O   0  0  0  0  0  0  0  0  0  0  0  0
   16.7140   44.8350   42.7200 N   0  0  0  0  0  0  0  0  0  0  0  0
   17.9450   44.4480   43.0600 C   0  0  0  0  0  0  0  0  0  0  0  0
   18.3930   43.4060   42.5490 O   0  0  0  0  0  0  0  0  0  0  0  0
   18.6600   45.2230   43.8790 N   0  0  0  0  0  0  0  0  0  0  0  0
   19.9690   44.8800   44.3990 C   0  0  2  0  0  0  0  0  0  0  0  0
   20.1230   45.4820   45.7790 C   0  0  0  0  0  0  0  0  0  0  0  0
   20.6490   44.7780   46.6720 O   0  5  0  0  0  0  0  0  0  0  0  0
   19.6700   46.6410   45.9760 O   0  0  0  0  0  0  0  0  0  0  0  0
   20.8720   45.6850   43.4530 C   0  0  0  0  0  0  0  0  0  0  0  0
   22.5840   45.5330   43.9370 S   0  0  0  0  0  0  0  0  0  0  0  0
   23.0650   45.7260   42.2410 C   0  0  0  0  0  0  0  0  0  0  0  0
   14.9429   46.7552   42.2113 H   0  0  0  0  0  0  0  0  0  0  0  0
   15.8424   46.5988   40.6643 H   0  0  0  0  0  0  0  0  0  0  0  0
   14.4201   44.4946   40.2397 H   0  0  0  0  0  0  0  0  0  0  0  0
   13.9410   44.6121   41.9670 H   0  0  0  0  0  0  0  0  0  0  0  0
   15.8492   43.0670   41.8987 H   0  0  0  0  0  0  0  0  0  0  0  0
   16.2695   45.5969   43.1910 H   0  0  0  0  0  0  0  0  0  0  0  0
   18.2655   46.1003   44.1525 H   0  0  0  0  0  0  0  0  0  0  0  0
   20.1718   43.7989   44.3935 H   0  0  0  0  0  0  0  0  0  0  0  0
   20.5791   46.7447   43.4884 H   0  0  0  0  0  0  0  0  0  0  0  0
   20.7512   45.3052   42.4277 H   0  0  0  0  0  0  0  0  0  0  0  0
   24.1612   45.6786   42.1631 H   0  0  0  0  0  0  0  0  0  0  0  0
   22.7128   46.6992   41.8684 H   0  0  0  0  0  0  0  0  0  0  0  0
   22.6195   44.9200   41.6395 H   0  0  0  0  0  0  0  0  0  0  0  0
  1  2  1  0  0  0  0
  2  3  2  0  0  0  0
  2  4  1  0  0  0  0
  4  5  1  0  0  0  0
  4 21  1  0  0  0  0
  4 22  1  0  0  0  0
  5  6  1  0  0  0  0
  5 23  1  0  0  0  0
  5 24  1  0  0  0  0
  6  7  1  0  0  0  0
  6 10  1  0  0  0  0
  6 25  1  1  0  0  0
  7  8  1  0  0  0  0
  7  9  2  0  0  0  0
 10 11  1  0  0  0  0
 10 26  1  0  0  0  0
 11 12  2  0  0  0  0
 11 13  1  0  0  0  0
 13 14  1  0  0  0  0
 13 27  1  0  0  0  0
 14 15  1  0  0  0  0
 14 18  1  0  0  0  0
 14 28  1  6  0  0  0
 15 16  1  0  0  0  0
 15 17  2  0  0  0  0
 18 19  1  0  0  0  0
 18 29  1  0  0  0  0
 18 30  1  0  0  0  0
 19 20  1  0  0  0  0
 20 31  1  0  0  0  0
 20 32  1  0  0  0  0
 20 33  1  0  0  0  0
M  CHG  3   1  -1   8  -1  16  -1
M  END
