3d94_ligand
 OpenBabel08222323343D

 70 76  0  0  1  0  0  0  0  0999 V2000
   25.4110   13.5940   -7.6470 N   0  0  0  0  0  0  0  0  0  0  0  0
   24.5920   13.5810   -6.5360 C   0  0  0  0  0  0  0  0  0  0  0  0
   24.2220   14.8190   -5.8410 C   0  0  0  0  0  0  0  0  0  0  0  0
   23.4050   14.7300   -4.7190 N   0  0  0  0  0  0  0  0  0  0  0  0
   22.9520   13.4880   -4.2750 C   0  0  0  0  0  0  0  0  0  0  0  0
   23.3360   12.3950   -4.9700 C   0  0  0  0  0  0  0  0  0  0  0  0
   24.1530   12.4190   -6.0860 N   0  0  0  0  0  0  0  0  0  0  0  0
   23.1950   16.0030   -4.2520 C   0  0  0  0  0  0  0  0  0  0  0  0
   22.3500   16.3460   -3.0250 C   0  0  2  0  0  0  0  0  0  0  0  0
   22.1470   17.8370   -2.6380 C   0  0  0  0  0  0  0  0  0  0  0  0
   22.1160   17.2840   -1.1870 C   0  0  2  0  0  0  0  0  0  0  0  0
   22.4270   18.2710   -0.1040 N   0  3  2  0  0  0  0  0  0  0  0  0
   22.2820   19.7040   -0.4220 C   0  0  0  0  0  0  0  0  0  0  0  0
   22.3280   20.5830    0.8250 C   0  0  0  0  0  0  0  0  0  0  0  0
   23.6150   20.3230    1.5740 N   0  3  1  0  0  0  0  0  0  0  0  0
   23.6940   21.1880    2.8030 C   0  0  0  0  0  0  0  0  0  0  0  0
   23.8600   18.8530    1.8580 C   0  0  0  0  0  0  0  0  0  0  0  0
   23.7000   17.9910    0.5990 C   0  0  0  0  0  0  0  0  0  0  0  0
   23.1790   16.2950   -1.7100 C   0  0  0  0  0  0  0  0  0  0  0  0
   23.8300   16.8880   -5.0040 N   0  0  0  0  0  0  0  0  0  0  0  0
   24.4580   16.1760   -6.0040 C   0  0  0  0  0  0  0  0  0  0  0  0
   25.3340   16.8980   -6.8990 C   0  0  0  0  0  0  0  0  0  0  0  0
   25.0300   18.1480   -7.4770 C   0  0  0  0  0  0  0  0  0  0  0  0
   25.9680   18.8360   -8.2660 C   0  0  0  0  0  0  0  0  0  0  0  0
   27.2750   18.2740   -8.4140 C   0  0  0  0  0  0  0  0  0  0  0  0
   27.6120   17.0500   -7.7860 C   0  0  0  0  0  0  0  0  0  0  0  0
   26.6420   16.4030   -7.0190 C   0  0  0  0  0  0  0  0  0  0  0  0
   25.6130   20.0080   -8.8560 N   0  0  0  0  0  0  0  0  0  0  0  0
   26.5490   20.6850   -9.6020 C   0  0  0  0  0  0  0  0  0  0  0  0
   27.8420   20.1790   -9.7920 C   0  0  0  0  0  0  0  0  0  0  0  0
   28.2070   18.9680   -9.1950 C   0  0  0  0  0  0  0  0  0  0  0  0
   26.0940   21.9370  -10.2520 C   0  0  0  0  0  0  0  0  0  0  0  0
   26.8600   23.1160  -10.2980 C   0  0  0  0  0  0  0  0  0  0  0  0
   26.3910   24.2580  -10.9590 C   0  0  0  0  0  0  0  0  0  0  0  0
   25.1430   24.2420  -11.5940 C   0  0  0  0  0  0  0  0  0  0  0  0
   24.3670   23.0950  -11.5630 C   0  0  0  0  0  0  0  0  0  0  0  0
   24.8490   21.9580  -10.9160 C   0  0  0  0  0  0  0  0  0  0  0  0
   25.6558   12.7106   -8.1167 H   0  0  0  0  0  0  0  0  0  0  0  0
   25.7774   14.4871   -8.0063 H   0  0  0  0  0  0  0  0  0  0  0  0
   22.3111   13.4022   -3.3987 H   0  0  0  0  0  0  0  0  0  0  0  0
   22.9767   11.4258   -4.6272 H   0  0  0  0  0  0  0  0  0  0  0  0
   21.4262   15.7491   -3.0409 H   0  0  0  0  0  0  0  0  0  0  0  0
   21.2098   18.2930   -2.9898 H   0  0  0  0  0  0  0  0  0  0  0  0
   22.9897   18.5045   -2.8712 H   0  0  0  0  0  0  0  0  0  0  0  0
   21.1722   16.7900   -0.9128 H   0  0  0  0  0  0  0  0  0  0  0  0
   21.7106   18.1015    0.5846 H   0  0  0  0  0  0  0  0  0  0  0  0
   21.3173   19.8581   -0.9276 H   0  0  0  0  0  0  0  0  0  0  0  0
   23.1001   20.0014   -1.0945 H   0  0  0  0  0  0  0  0  0  0  0  0
   21.4716   20.3458    1.4733 H   0  0  0  0  0  0  0  0  0  0  0  0
   22.2824   21.6417    0.5299 H   0  0  0  0  0  0  0  0  0  0  0  0
   24.3643   20.6171    0.9673 H   0  0  0  0  0  0  0  0  0  0  0  0
   24.6357   20.9852    3.3342 H   0  0  0  0  0  0  0  0  0  0  0  0
   22.8443   20.9637    3.4645 H   0  0  0  0  0  0  0  0  0  0  0  0
   23.6599   22.2473    2.5086 H   0  0  0  0  0  0  0  0  0  0  0  0
   23.1389   18.5125    2.6157 H   0  0  0  0  0  0  0  0  0  0  0  0
   24.8827   18.7313    2.2442 H   0  0  0  0  0  0  0  0  0  0  0  0
   24.5367   18.2001   -0.0837 H   0  0  0  0  0  0  0  0  0  0  0  0
   23.7200   16.9302    0.8895 H   0  0  0  0  0  0  0  0  0  0  0  0
   24.2009   16.6957   -1.7812 H   0  0  0  0  0  0  0  0  0  0  0  0
   23.2025   15.3179   -1.2052 H   0  0  0  0  0  0  0  0  0  0  0  0
   24.0532   18.5871   -7.3094 H   0  0  0  0  0  0  0  0  0  0  0  0
   28.6027   16.6246   -7.8988 H   0  0  0  0  0  0  0  0  0  0  0  0
   26.9071   15.4893   -6.4995 H   0  0  0  0  0  0  0  0  0  0  0  0
   28.5561   20.7238  -10.3990 H   0  0  0  0  0  0  0  0  0  0  0  0
   29.2051   18.5693   -9.3361 H   0  0  0  0  0  0  0  0  0  0  0  0
   27.8295   23.1409   -9.8137 H   0  0  0  0  0  0  0  0  0  0  0  0
   26.9960   25.1573  -10.9792 H   0  0  0  0  0  0  0  0  0  0  0  0
   24.7847   25.1260  -12.1091 H   0  0  0  0  0  0  0  0  0  0  0  0
   23.3927   23.0816  -12.0380 H   0  0  0  0  0  0  0  0  0  0  0  0
   24.2456   21.0575  -10.9233 H   0  0  0  0  0  0  0  0  0  0  0  0
  1  2  1  0  0  0  0
  1 38  1  0  0  0  0
  1 39  1  0  0  0  0
  2  3  1  0  0  0  0
  2  7  2  0  0  0  0
  3  4  1  0  0  0  0
  3 21  2  0  0  0  0
  4  5  1  0  0  0  0
  4  8  1  0  0  0  0
  5  6  2  0  0  0  0
  5 40  1  0  0  0  0
  6  7  1  0  0  0  0
  6 41  1  0  0  0  0
  8  9  1  0  0  0  0
  8 20  2  0  0  0  0
  9 10  1  0  0  0  0
  9 19  1  0  0  0  0
  9 42  1  1  0  0  0
 10 11  1  0  0  0  0
 10 43  1  0  0  0  0
 10 44  1  0  0  0  0
 11 12  1  0  0  0  0
 11 19  1  0  0  0  0
 11 45  1  1  0  0  0
 12 13  1  0  0  0  0
 12 18  1  0  0  0  0
 12 46  1  1  0  0  0
 13 14  1  0  0  0  0
 13 47  1  0  0  0  0
 13 48  1  0  0  0  0
 14 15  1  0  0  0  0
 14 49  1  0  0  0  0
 14 50  1  0  0  0  0
 15 16  1  0  0  0  0
 15 17  1  0  0  0  0
 15 51  1  6  0  0  0
 16 52  1  0  0  0  0
 16 53  1  0  0  0  0
 16 54  1  0  0  0  0
 17 18  1  0  0  0  0
 17 55  1  0  0  0  0
 17 56  1  0  0  0  0
 18 57  1  0  0  0  0
 18 58  1  0  0  0  0
 19 59  1  0  0  0  0
 19 60  1  0  0  0  0
 20 21  1  0  0  0  0
 21 22  1  0  0  0  0
 22 23  2  0  0  0  0
 22 27  1  0  0  0  0
 23 24  1  0  0  0  0
 23 61  1  0  0  0  0
 24 25  2  0  0  0  0
 24 28  1  0  0  0  0
 25 26  1  0  0  0  0
 25 31  1  0  0  0  0
 26 27  2  0  0  0  0
 26 62  1  0  0  0  0
 27 63  1  0  0  0  0
 28 29  2  0  0  0  0
 29 30  1  0  0  0  0
 29 32  1  0  0  0  0
 30 31  2  0  0  0  0
 30 64  1  0  0  0  0
 31 65  1  0  0  0  0
 32 33  2  0  0  0  0
 32 37  1  0  0  0  0
 33 34  1  0  0  0  0
 33 66  1  0  0  0  0
 34 35  2  0  0  0  0
 34 67  1  0  0  0  0
 35 36  1  0  0  0  0
 35 68  1  0  0  0  0
 36 37  2  0  0  0  0
 36 69  1  0  0  0  0
 37 70  1  0  0  0  0
M  CHG  2  12   1  15   1
M  END
