3d9l_ligand
 OpenBabel08222323343D

151155  0  0  1  0  0  0  0  0999 V2000
   31.2670    4.4640   11.5340 N   0  3  0  0  0  0  0  0  0  0  0  0
   32.1520    3.4510   12.1590 C   0  0  2  0  0  0  0  0  0  0  0  0
   31.6770    3.0750   13.5490 C   0  0  0  0  0  0  0  0  0  0  0  0
   31.2120    3.9220   14.3280 O   0  0  0  0  0  0  0  0  0  0  0  0
   33.6050    3.9140   12.2160 C   0  0  0  0  0  0  0  0  0  0  0  0
   34.5570    2.8400   12.7240 C   0  0  0  0  0  0  0  0  0  0  0  0
   35.0760    1.8580   11.8630 C   0  0  0  0  0  0  0  0  0  0  0  0
   34.9340    2.8030   14.0600 C   0  0  0  0  0  0  0  0  0  0  0  0
   35.9490    0.8670   12.3450 C   0  0  0  0  0  0  0  0  0  0  0  0
   35.7960    1.8440   14.5400 C   0  0  0  0  0  0  0  0  0  0  0  0
   36.2980    0.8830   13.6880 C   0  0  0  0  0  0  0  0  0  0  0  0
   37.1510   -0.0460   14.1990 O   0  0  0  0  0  0  0  0  0  0  0  0
   31.7740    1.7810   13.8190 N   0  0  0  0  0  0  0  0  0  0  0  0
   31.4980    1.2100   15.1080 C   0  0  1  0  0  0  0  0  0  0  0  0
   30.2530    0.3440   15.0570 C   0  0  0  0  0  0  0  0  0  0  0  0
   30.2010   -0.4730   16.2050 O   0  0  0  0  0  0  0  0  0  0  0  0
   32.6920    0.3550   15.4960 C   0  0  0  0  0  0  0  0  0  0  0  0
   33.2020   -0.4130   14.6670 O   0  0  0  0  0  0  0  0  0  0  0  0
   28.8770   -0.1990   17.1060 P   0  0  0  0  0  0  0  0  0  0  0  0
   28.9290   -1.2840   18.2960 O   0  0  0  0  0  1  0  0  0  0  0  0
   28.8820    1.2780   17.7130 O   0  0  0  0  0  1  0  0  0  0  0  0
   27.5470   -0.4270   16.2210 O   0  0  0  0  0  0  0  0  0  0  0  0
   33.1430    0.4860   16.7590 N   0  0  0  0  0  0  0  0  0  0  0  0
   34.2660   -0.2930   17.2780 C   0  0  2  0  0  0  0  0  0  0  0  0
   33.9660   -1.7900   17.4760 C   0  0  0  0  0  0  0  0  0  0  0  0
   34.8460   -2.5470   17.8950 O   0  0  0  0  0  0  0  0  0  0  0  0
   34.5860    0.4090   18.6020 C   0  0  0  0  0  0  0  0  0  0  0  0
   33.2600    0.9850   19.0390 C   0  0  0  0  0  0  0  0  0  0  0  0
   32.6090    1.4260   17.7630 C   0  0  0  0  0  0  0  0  0  0  0  0
   32.7420   -2.2120   17.1650 N   0  0  0  0  0  0  0  0  0  0  0  0
   32.4060   -3.6350   17.1590 C   0  0  2  0  0  0  0  0  0  0  0  0
   32.2140   -4.1850   15.7500 C   0  0  0  0  0  0  0  0  0  0  0  0
   31.9050   -5.3600   15.5940 O   0  0  0  0  0  0  0  0  0  0  0  0
   31.1360   -3.9630   17.9680 C   0  0  2  0  0  0  0  0  0  0  0  0
   30.0120   -3.2620   17.4180 O   0  0  0  0  0  0  0  0  0  0  0  0
   31.3160   -3.6240   19.4450 C   0  0  0  0  0  0  0  0  0  0  0  0
   32.3940   -3.3490   14.7290 N   0  0  0  0  0  0  0  0  0  0  0  0
   32.1260   -3.7740   13.3570 C   0  0  2  0  0  0  0  0  0  0  0  0
   33.0930   -4.8800   12.9460 C   0  0  0  0  0  0  0  0  0  0  0  0
   34.2620   -4.8490   13.3370 O   0  0  0  0  0  0  0  0  0  0  0  0
   32.2390   -2.6000   12.3990 C   0  0  0  0  0  0  0  0  0  0  0  0
   33.5650   -2.1340   12.3720 O   0  0  0  0  0  0  0  0  0  0  0  0
   32.6080   -5.8730   12.1700 N   0  0  0  0  0  0  0  0  0  0  0  0
   33.5020   -6.9590   11.7520 C   0  0  2  0  0  0  0  0  0  0  0  0
   34.7050   -6.4750   10.9320 C   0  0  0  0  0  0  0  0  0  0  0  0
   34.5880   -5.5260   10.1370 O   0  0  0  0  0  0  0  0  0  0  0  0
   32.5980   -7.8650   10.9140 C   0  0  0  0  0  0  0  0  0  0  0  0
   31.4020   -7.0320   10.5640 C   0  0  0  0  0  0  0  0  0  0  0  0
   31.2310   -6.0660   11.6820 C   0  0  0  0  0  0  0  0  0  0  0  0
   35.8570   -7.1050   11.1570 N   0  0  0  0  0  0  0  0  0  0  0  0
   37.0490   -6.8530   10.3420 C   0  0  2  0  0  0  0  0  0  0  0  0
   36.8920   -7.4730    8.9450 C   0  0  0  0  0  0  0  0  0  0  0  0
   36.1420   -8.4510    8.7870 O   0  0  0  0  0  0  0  0  0  0  0  0
   38.2910   -7.4000   11.0430 C   0  0  0  0  0  0  0  0  0  0  0  0
   38.7120   -6.5120   12.0640 O   0  0  0  0  0  0  0  0  0  0  0  0
   37.5600   -6.9040    7.9360 N   0  0  0  0  0  0  0  0  0  0  0  0
   37.4520   -7.4510    6.5710 C   0  0  2  0  0  0  0  0  0  0  0  0
   38.3540   -8.6770    6.3610 C   0  0  0  0  0  0  0  0  0  0  0  0
   39.4220   -8.7760    6.9490 O   0  0  0  0  0  0  0  0  0  0  0  0
   37.6230   -6.3780    5.4630 C   0  0  0  0  0  0  0  0  0  0  0  0
   38.9890   -5.7050    5.3860 C   0  0  0  0  0  0  0  0  0  0  0  0
   40.0660   -6.3420    4.7620 C   0  0  0  0  0  0  0  0  0  0  0  0
   39.1940   -4.4180    5.9080 C   0  0  0  0  0  0  0  0  0  0  0  0
   41.3180   -5.7340    4.6800 C   0  0  0  0  0  0  0  0  0  0  0  0
   40.4550   -3.7990    5.8390 C   0  0  0  0  0  0  0  0  0  0  0  0
   41.5130   -4.4770    5.2250 C   0  0  0  0  0  0  0  0  0  0  0  0
   42.7700   -3.9160    5.1320 O   0  0  0  0  0  0  0  0  0  0  0  0
   37.8870   -9.6250    5.5520 N   0  0  0  0  0  0  0  0  0  0  0  0
   38.6480  -10.8440    5.2420 C   0  0  1  0  0  0  0  0  0  0  0  0
   38.5110  -11.8980    6.3600 C   0  0  0  0  0  0  0  0  0  0  0  0
   37.3360  -12.6760    6.2230 O   0  0  0  0  0  0  0  0  0  0  0  0
   38.1930  -11.3850    3.8890 C   0  0  0  0  0  0  0  0  0  0  0  0
   37.1840  -10.9160    3.3620 O   0  0  0  0  0  0  0  0  0  0  0  0
   37.3590  -13.9640    7.2050 P   0  0  0  0  0  0  0  0  0  0  0  0
   36.8440  -13.4830    8.6470 O   0  0  0  0  0  1  0  0  0  0  0  0
   36.4060  -15.1300    6.6250 O   0  0  0  0  0  1  0  0  0  0  0  0
   38.8600  -14.5600    7.3240 O   0  0  0  0  0  0  0  0  0  0  0  0
   38.9420  -12.3550    3.3120 N   0  0  0  0  0  0  0  0  0  0  0  0
   38.5730  -12.9380    2.0250 C   0  0  2  0  0  0  0  0  0  0  0  0
   37.3780  -13.8750    2.1480 C   0  0  0  0  0  0  0  0  0  0  0  0
   36.2900  -13.5490    1.6810 O   0  0  0  0  0  0  0  0  0  0  0  0
   39.8180  -13.7450    1.6340 C   0  0  0  0  0  0  0  0  0  0  0  0
   40.8980  -13.2930    2.5480 C   0  0  0  0  0  0  0  0  0  0  0  0
   40.1930  -12.9440    3.8120 C   0  0  0  0  0  0  0  0  0  0  0  0
   31.6118    4.6895   10.6140 H   0  0  0  0  0  0  0  0  0  0  0  0
   31.2558    5.2966   12.1020 H   0  0  0  0  0  0  0  0  0  0  0  0
   30.3321    4.0943   11.4611 H   0  0  0  0  0  0  0  0  0  0  0  0
   32.1119    2.5476   11.5328 H   0  0  0  0  0  0  0  0  0  0  0  0
   33.6689    4.7835   12.8868 H   0  0  0  0  0  0  0  0  0  0  0  0
   33.9182    4.2082   11.2034 H   0  0  0  0  0  0  0  0  0  0  0  0
   34.7999    1.8647   10.8148 H   0  0  0  0  0  0  0  0  0  0  0  0
   34.5395    3.5480   14.7415 H   0  0  0  0  0  0  0  0  0  0  0  0
   36.3417    0.1056   11.6808 H   0  0  0  0  0  0  0  0  0  0  0  0
   36.0800    1.8439   15.5861 H   0  0  0  0  0  0  0  0  0  0  0  0
   36.7125   -0.5323   14.8874 H   0  0  0  0  0  0  0  0  0  0  0  0
   32.0558    1.1662   13.0823 H   0  0  0  0  0  0  0  0  0  0  0  0
   31.3541    2.0124   15.8465 H   0  0  0  0  0  0  0  0  0  0  0  0
   30.2832   -0.2888   14.1578 H   0  0  0  0  0  0  0  0  0  0  0  0
   29.3607    0.9864   15.0235 H   0  0  0  0  0  0  0  0  0  0  0  0
   35.1207   -0.2096   16.5906 H   0  0  0  0  0  0  0  0  0  0  0  0
   35.3286    1.2066   18.4524 H   0  0  0  0  0  0  0  0  0  0  0  0
   34.9640   -0.3094   19.3443 H   0  0  0  0  0  0  0  0  0  0  0  0
   33.4102    1.8394   19.7153 H   0  0  0  0  0  0  0  0  0  0  0  0
   32.6505    0.2208   19.5435 H   0  0  0  0  0  0  0  0  0  0  0  0
   31.5141    1.3463   17.8326 H   0  0  0  0  0  0  0  0  0  0  0  0
   32.8864    2.4619   17.5181 H   0  0  0  0  0  0  0  0  0  0  0  0
   32.0379   -1.5417   16.9306 H   0  0  0  0  0  0  0  0  0  0  0  0
   33.2501   -4.1673   17.6217 H   0  0  0  0  0  0  0  0  0  0  0  0
   30.9446   -5.0431   17.8864 H   0  0  0  0  0  0  0  0  0  0  0  0
   30.1746   -2.3268   17.4547 H   0  0  0  0  0  0  0  0  0  0  0  0
   30.3940   -3.8694   19.9925 H   0  0  0  0  0  0  0  0  0  0  0  0
   31.5308   -2.5504   19.5513 H   0  0  0  0  0  0  0  0  0  0  0  0
   32.1528   -4.2078   19.8559 H   0  0  0  0  0  0  0  0  0  0  0  0
   32.7166   -2.4187   14.9036 H   0  0  0  0  0  0  0  0  0  0  0  0
   31.1002   -4.1681   13.3079 H   0  0  0  0  0  0  0  0  0  0  0  0
   31.5740   -1.7902   12.7336 H   0  0  0  0  0  0  0  0  0  0  0  0
   31.9447   -2.9227   11.3894 H   0  0  0  0  0  0  0  0  0  0  0  0
   33.8191   -1.8546   13.2437 H   0  0  0  0  0  0  0  0  0  0  0  0
   33.8753   -7.4988   12.6348 H   0  0  0  0  0  0  0  0  0  0  0  0
   32.2938   -8.7475   11.4959 H   0  0  0  0  0  0  0  0  0  0  0  0
   33.1197   -8.1894   10.0016 H   0  0  0  0  0  0  0  0  0  0  0  0
   30.5090   -7.6672   10.4684 H   0  0  0  0  0  0  0  0  0  0  0  0
   31.5735   -6.4958    9.6190 H   0  0  0  0  0  0  0  0  0  0  0  0
   30.8027   -5.1185   11.3232 H   0  0  0  0  0  0  0  0  0  0  0  0
   30.5876   -6.4841   12.4702 H   0  0  0  0  0  0  0  0  0  0  0  0
   35.9101   -7.7687   11.9031 H   0  0  0  0  0  0  0  0  0  0  0  0
   37.1670   -5.7656   10.2256 H   0  0  0  0  0  0  0  0  0  0  0  0
   39.1006   -7.5170   10.3076 H   0  0  0  0  0  0  0  0  0  0  0  0
   38.0553   -8.3781   11.4876 H   0  0  0  0  0  0  0  0  0  0  0  0
   38.9181   -5.6670   11.6820 H   0  0  0  0  0  0  0  0  0  0  0  0
   38.1352   -6.1042    8.1079 H   0  0  0  0  0  0  0  0  0  0  0  0
   36.4189   -7.8164    6.4749 H   0  0  0  0  0  0  0  0  0  0  0  0
   36.8713   -5.5937    5.6357 H   0  0  0  0  0  0  0  0  0  0  0  0
   37.4318   -6.8621    4.4939 H   0  0  0  0  0  0  0  0  0  0  0  0
   39.9248   -7.3277    4.3337 H   0  0  0  0  0  0  0  0  0  0  0  0
   38.3669   -3.8928    6.3718 H   0  0  0  0  0  0  0  0  0  0  0  0
   42.1382   -6.2456    4.1896 H   0  0  0  0  0  0  0  0  0  0  0  0
   40.6049   -2.8097    6.2561 H   0  0  0  0  0  0  0  0  0  0  0  0
   43.3528   -4.5197    4.6866 H   0  0  0  0  0  0  0  0  0  0  0  0
   36.9842   -9.5035    5.1394 H   0  0  0  0  0  0  0  0  0  0  0  0
   39.7119  -10.5757    5.1642 H   0  0  0  0  0  0  0  0  0  0  0  0
   38.4826  -11.3822    7.3311 H   0  0  0  0  0  0  0  0  0  0  0  0
   39.3840  -12.5664    6.3252 H   0  0  0  0  0  0  0  0  0  0  0  0
   38.3545  -12.1530    1.2861 H   0  0  0  0  0  0  0  0  0  0  0  0
   37.4887  -14.8348    2.6505 H   0  0  0  0  0  0  0  0  0  0  0  0
   40.0922  -13.5431    0.5880 H   0  0  0  0  0  0  0  0  0  0  0  0
   39.6327  -14.8215    1.7633 H   0  0  0  0  0  0  0  0  0  0  0  0
   41.4145  -12.4139    2.1352 H   0  0  0  0  0  0  0  0  0  0  0  0
   41.6262  -14.0996    2.7187 H   0  0  0  0  0  0  0  0  0  0  0  0
   39.9979  -13.8390    4.4210 H   0  0  0  0  0  0  0  0  0  0  0  0
   40.7689  -12.2167    4.4030 H   0  0  0  0  0  0  0  0  0  0  0  0
  1  2  1  0  0  0  0
  1 85  1  0  0  0  0
  1 86  1  0  0  0  0
  1 87  1  0  0  0  0
  2  3  1  0  0  0  0
  2  5  1  0  0  0  0
  2 88  1  6  0  0  0
  3  4  2  0  0  0  0
  3 13  1  0  0  0  0
  5  6  1  0  0  0  0
  5 89  1  0  0  0  0
  5 90  1  0  0  0  0
  6  7  2  0  0  0  0
  6  8  1  0  0  0  0
  7  9  1  0  0  0  0
  7 91  1  0  0  0  0
  8 10  2  0  0  0  0
  8 92  1  0  0  0  0
  9 11  2  0  0  0  0
  9 93  1  0  0  0  0
 10 11  1  0  0  0  0
 10 94  1  0  0  0  0
 11 12  1  0  0  0  0
 12 95  1  0  0  0  0
 13 14  1  0  0  0  0
 13 96  1  0  0  0  0
 14 15  1  0  0  0  0
 14 17  1  0  0  0  0
 14 97  1  1  0  0  0
 15 16  1  0  0  0  0
 15 98  1  0  0  0  0
 15 99  1  0  0  0  0
 16 19  1  0  0  0  0
 17 18  2  0  0  0  0
 17 23  1  0  0  0  0
 19 20  1  0  0  0  0
 19 21  1  0  0  0  0
 19 22  2  0  0  0  0
 23 24  1  0  0  0  0
 23 29  1  0  0  0  0
 24 25  1  0  0  0  0
 24 27  1  0  0  0  0
 24100  1  6  0  0  0
 25 26  2  0  0  0  0
 25 30  1  0  0  0  0
 27 28  1  0  0  0  0
 27101  1  0  0  0  0
 27102  1  0  0  0  0
 28 29  1  0  0  0  0
 28103  1  0  0  0  0
 28104  1  0  0  0  0
 29105  1  0  0  0  0
 29106  1  0  0  0  0
 30 31  1  0  0  0  0
 30107  1  0  0  0  0
 31 32  1  0  0  0  0
 31 34  1  0  0  0  0
 31108  1  1  0  0  0
 32 33  2  0  0  0  0
 32 37  1  0  0  0  0
 34 35  1  0  0  0  0
 34 36  1  0  0  0  0
 34109  1  6  0  0  0
 35110  1  0  0  0  0
 36111  1  0  0  0  0
 36112  1  0  0  0  0
 36113  1  0  0  0  0
 37 38  1  0  0  0  0
 37114  1  0  0  0  0
 38 39  1  0  0  0  0
 38 41  1  0  0  0  0
 38115  1  6  0  0  0
 39 40  2  0  0  0  0
 39 43  1  0  0  0  0
 41 42  1  0  0  0  0
 41116  1  0  0  0  0
 41117  1  0  0  0  0
 42118  1  0  0  0  0
 43 44  1  0  0  0  0
 43 49  1  0  0  0  0
 44 45  1  0  0  0  0
 44 47  1  0  0  0  0
 44119  1  1  0  0  0
 45 46  2  0  0  0  0
 45 50  1  0  0  0  0
 47 48  1  0  0  0  0
 47120  1  0  0  0  0
 47121  1  0  0  0  0
 48 49  1  0  0  0  0
 48122  1  0  0  0  0
 48123  1  0  0  0  0
 49124  1  0  0  0  0
 49125  1  0  0  0  0
 50 51  1  0  0  0  0
 50126  1  0  0  0  0
 51 52  1  0  0  0  0
 51 54  1  0  0  0  0
 51127  1  6  0  0  0
 52 53  2  0  0  0  0
 52 56  1  0  0  0  0
 54 55  1  0  0  0  0
 54128  1  0  0  0  0
 54129  1  0  0  0  0
 55130  1  0  0  0  0
 56 57  1  0  0  0  0
 56131  1  0  0  0  0
 57 58  1  0  0  0  0
 57 60  1  0  0  0  0
 57132  1  6  0  0  0
 58 59  2  0  0  0  0
 58 68  1  0  0  0  0
 60 61  1  0  0  0  0
 60133  1  0  0  0  0
 60134  1  0  0  0  0
 61 62  2  0  0  0  0
 61 63  1  0  0  0  0
 62 64  1  0  0  0  0
 62135  1  0  0  0  0
 63 65  2  0  0  0  0
 63136  1  0  0  0  0
 64 66  2  0  0  0  0
 64137  1  0  0  0  0
 65 66  1  0  0  0  0
 65138  1  0  0  0  0
 66 67  1  0  0  0  0
 67139  1  0  0  0  0
 68 69  1  0  0  0  0
 68140  1  0  0  0  0
 69 70  1  0  0  0  0
 69 72  1  0  0  0  0
 69141  1  6  0  0  0
 70 71  1  0  0  0  0
 70142  1  0  0  0  0
 70143  1  0  0  0  0
 71 74  1  0  0  0  0
 72 73  2  0  0  0  0
 72 78  1  0  0  0  0
 74 75  1  0  0  0  0
 74 76  1  0  0  0  0
 74 77  2  0  0  0  0
 78 79  1  0  0  0  0
 78 84  1  0  0  0  0
 79 80  1  0  0  0  0
 79 82  1  0  0  0  0
 79144  1  6  0  0  0
 80 81  2  0  0  0  0
 80145  1  0  0  0  0
 82 83  1  0  0  0  0
 82146  1  0  0  0  0
 82147  1  0  0  0  0
 83 84  1  0  0  0  0
 83148  1  0  0  0  0
 83149  1  0  0  0  0
 84150  1  0  0  0  0
 84151  1  0  0  0  0
M  CHG  1   1   1
M  END
