3d9o_ligand
 OpenBabel08222323343D

124127  0  0  1  0  0  0  0  0999 V2000
   12.8560    0.9580   -1.3290 N   0  3  0  0  0  0  0  0  0  0  0  0
   12.7300    1.3370   -2.7360 C   0  0  2  0  0  0  0  0  0  0  0  0
   13.9450    2.1180   -3.2270 C   0  0  0  0  0  0  0  0  0  0  0  0
   14.4000    3.0480   -2.5560 O   0  0  0  0  0  0  0  0  0  0  0  0
   11.4790    2.2300   -2.7540 C   0  0  0  0  0  0  0  0  0  0  0  0
   11.2920    2.6740   -1.3390 C   0  0  0  0  0  0  0  0  0  0  0  0
   11.7710    1.5220   -0.5080 C   0  0  0  0  0  0  0  0  0  0  0  0
   14.4570    1.7340   -4.3930 N   0  0  0  0  0  0  0  0  0  0  0  0
   15.6220    2.3850   -4.9900 C   0  0  2  0  0  0  0  0  0  0  0  0
   15.2390    3.7140   -5.6210 C   0  0  0  0  0  0  0  0  0  0  0  0
   14.0820    3.9190   -6.0000 O   0  0  0  0  0  0  0  0  0  0  0  0
   16.2660    1.4730   -6.0340 C   0  0  0  0  0  0  0  0  0  0  0  0
   16.5400    0.1930   -5.4840 O   0  0  0  0  0  0  0  0  0  0  0  0
   16.2170    4.6120   -5.7330 N   0  0  0  0  0  0  0  0  0  0  0  0
   15.9870    5.9380   -6.2970 C   0  0  2  0  0  0  0  0  0  0  0  0
   15.6790    5.8840   -7.7880 C   0  0  0  0  0  0  0  0  0  0  0  0
   16.3790    5.2200   -8.5590 O   0  0  0  0  0  0  0  0  0  0  0  0
   17.1840    6.8610   -6.0490 C   0  0  0  0  0  0  0  0  0  0  0  0
   17.0120    8.2590   -6.6050 C   0  0  0  0  0  0  0  0  0  0  0  0
   16.3670    9.2480   -5.8660 C   0  0  0  0  0  0  0  0  0  0  0  0
   17.5100    8.5980   -7.8660 C   0  0  0  0  0  0  0  0  0  0  0  0
   16.2230   10.5340   -6.3620 C   0  0  0  0  0  0  0  0  0  0  0  0
   17.3630    9.8880   -8.3790 C   0  0  0  0  0  0  0  0  0  0  0  0
   16.7260   10.8470   -7.6200 C   0  0  0  0  0  0  0  0  0  0  0  0
   16.5820   12.1140   -8.1260 O   0  0  0  0  0  0  0  0  0  0  0  0
   14.6250    6.6000   -8.1660 N   0  0  0  0  0  0  0  0  0  0  0  0
   14.2350    6.7780   -9.5490 C   0  0  2  0  0  0  0  0  0  0  0  0
   14.2780    8.2730   -9.8740 C   0  0  0  0  0  0  0  0  0  0  0  0
   13.7790    9.0920   -9.0850 O   0  0  0  0  0  0  0  0  0  0  0  0
   12.8210    6.2330   -9.7690 C   0  0  0  0  0  0  0  0  0  0  0  0
   12.4010    6.4060  -11.1120 O   0  0  0  0  0  0  0  0  0  0  0  0
   14.8690    8.6360  -11.0320 N   0  0  0  0  0  0  0  0  0  0  0  0
   14.8700   10.0300  -11.4820 C   0  0  2  0  0  0  0  0  0  0  0  0
   13.4780   10.5140  -11.9240 C   0  0  0  0  0  0  0  0  0  0  0  0
   13.3220   11.6770  -12.2870 O   0  0  0  0  0  0  0  0  0  0  0  0
   15.8440   10.0120  -12.6690 C   0  0  0  0  0  0  0  0  0  0  0  0
   15.7450    8.6300  -13.2060 C   0  0  0  0  0  0  0  0  0  0  0  0
   15.5820    7.7590  -11.9860 C   0  0  0  0  0  0  0  0  0  0  0  0
   12.4910    9.6160  -11.9000 N   0  0  0  0  0  0  0  0  0  0  0  0
   11.0850    9.9740  -12.1440 C   0  0  2  0  0  0  0  0  0  0  0  0
   10.3280   10.3600  -10.8680 C   0  0  0  0  0  0  0  0  0  0  0  0
    9.2400   10.9410  -10.9350 O   0  0  0  0  0  0  0  0  0  0  0  0
   10.3100    8.8210  -12.8160 C   0  0  2  0  0  0  0  0  0  0  0  0
   10.4030    7.6450  -12.0030 O   0  0  0  0  0  0  0  0  0  0  0  0
   10.8620    8.5270  -14.2010 C   0  0  0  0  0  0  0  0  0  0  0  0
   10.8930   10.0170   -9.7130 N   0  0  0  0  0  0  0  0  0  0  0  0
   10.2360   10.2430   -8.4200 C   0  0  2  0  0  0  0  0  0  0  0  0
   10.2740   11.7070   -7.9760 C   0  0  0  0  0  0  0  0  0  0  0  0
   11.3290   12.3460   -8.0460 O   0  0  0  0  0  0  0  0  0  0  0  0
   10.8320    9.3350   -7.3370 C   0  0  0  0  0  0  0  0  0  0  0  0
   10.0950    8.1260   -7.2300 O   0  0  0  0  0  0  0  0  0  0  0  0
    9.1170   12.2430   -7.5330 N   0  0  0  0  0  0  0  0  0  0  0  0
    9.0000   13.6250   -7.0520 C   0  0  2  0  0  0  0  0  0  0  0  0
    9.9340   13.9690   -5.8870 C   0  0  0  0  0  0  0  0  0  0  0  0
   10.3020   13.0920   -5.0990 O   0  0  0  0  0  0  0  0  0  0  0  0
    7.5360   13.7170   -6.6030 C   0  0  0  0  0  0  0  0  0  0  0  0
    6.8340   12.6810   -7.4080 C   0  0  0  0  0  0  0  0  0  0  0  0
    7.8120   11.5510   -7.4990 C   0  0  0  0  0  0  0  0  0  0  0  0
   10.2980   15.2460   -5.7890 N   0  0  0  0  0  0  0  0  0  0  0  0
   11.1730   15.7530   -4.7260 C   0  0  2  0  0  0  0  0  0  0  0  0
   10.5020   15.8040   -3.3520 C   0  0  0  0  0  0  0  0  0  0  0  0
    9.3130   15.5060   -3.2090 O   0  0  0  0  0  0  0  0  0  0  0  0
   11.7110   17.1370   -5.1000 C   0  0  0  0  0  0  0  0  0  0  0  0
   12.5350   17.0570   -6.2550 O   0  0  0  0  0  0  0  0  0  0  0  0
   13.7388    1.2956   -0.9785 H   0  0  0  0  0  0  0  0  0  0  0  0
   12.8288   -0.0472   -1.2587 H   0  0  0  0  0  0  0  0  0  0  0  0
   12.5892    0.4473   -3.3673 H   0  0  0  0  0  0  0  0  0  0  0  0
   10.6034    1.6599   -3.0980 H   0  0  0  0  0  0  0  0  0  0  0  0
   11.6339    3.0972   -3.4128 H   0  0  0  0  0  0  0  0  0  0  0  0
   10.2314    2.8834   -1.1358 H   0  0  0  0  0  0  0  0  0  0  0  0
   11.8895    3.5744   -1.1335 H   0  0  0  0  0  0  0  0  0  0  0  0
   12.1487    1.8660    0.4662 H   0  0  0  0  0  0  0  0  0  0  0  0
   10.9689    0.7858   -0.3511 H   0  0  0  0  0  0  0  0  0  0  0  0
   14.0293    0.9719   -4.8792 H   0  0  0  0  0  0  0  0  0  0  0  0
   16.3565    2.5775   -4.1941 H   0  0  0  0  0  0  0  0  0  0  0  0
   17.2071    1.9267   -6.3781 H   0  0  0  0  0  0  0  0  0  0  0  0
   15.5802    1.3600   -6.8866 H   0  0  0  0  0  0  0  0  0  0  0  0
   17.1346    0.2861   -4.7490 H   0  0  0  0  0  0  0  0  0  0  0  0
   17.1359    4.3701   -5.4213 H   0  0  0  0  0  0  0  0  0  0  0  0
   15.1127    6.3688   -5.7871 H   0  0  0  0  0  0  0  0  0  0  0  0
   18.0711    6.4097   -6.5173 H   0  0  0  0  0  0  0  0  0  0  0  0
   17.3417    6.9381   -4.9631 H   0  0  0  0  0  0  0  0  0  0  0  0
   15.9709    9.0076   -4.8860 H   0  0  0  0  0  0  0  0  0  0  0  0
   18.0198    7.8454   -8.4566 H   0  0  0  0  0  0  0  0  0  0  0  0
   15.7207   11.2922   -5.7722 H   0  0  0  0  0  0  0  0  0  0  0  0
   17.7454   10.1331   -9.3632 H   0  0  0  0  0  0  0  0  0  0  0  0
   16.0798   12.0769   -8.9316 H   0  0  0  0  0  0  0  0  0  0  0  0
   14.0721    7.0390   -7.4578 H   0  0  0  0  0  0  0  0  0  0  0  0
   14.9369    6.2388  -10.2021 H   0  0  0  0  0  0  0  0  0  0  0  0
   12.1249    6.7666   -9.1052 H   0  0  0  0  0  0  0  0  0  0  0  0
   12.8095    5.1602   -9.5263 H   0  0  0  0  0  0  0  0  0  0  0  0
   11.5228    6.0587  -11.2152 H   0  0  0  0  0  0  0  0  0  0  0  0
   15.2396   10.6902  -10.6836 H   0  0  0  0  0  0  0  0  0  0  0  0
   16.8696   10.2272  -12.3345 H   0  0  0  0  0  0  0  0  0  0  0  0
   15.5444   10.7478  -13.4298 H   0  0  0  0  0  0  0  0  0  0  0  0
   16.6587    8.3607  -13.7561 H   0  0  0  0  0  0  0  0  0  0  0  0
   14.8744    8.5333  -13.8713 H   0  0  0  0  0  0  0  0  0  0  0  0
   14.9867    6.8637  -12.2182 H   0  0  0  0  0  0  0  0  0  0  0  0
   16.5605    7.4551  -11.5857 H   0  0  0  0  0  0  0  0  0  0  0  0
   12.7163    8.6608  -11.7083 H   0  0  0  0  0  0  0  0  0  0  0  0
   11.0792   10.8402  -12.8220 H   0  0  0  0  0  0  0  0  0  0  0  0
    9.2532    9.1112  -12.9099 H   0  0  0  0  0  0  0  0  0  0  0  0
   11.3156    7.3996  -11.9063 H   0  0  0  0  0  0  0  0  0  0  0  0
   10.2923    7.7031  -14.6554 H   0  0  0  0  0  0  0  0  0  0  0  0
   11.9208    8.2399  -14.1204 H   0  0  0  0  0  0  0  0  0  0  0  0
   10.7724    9.4252  -14.8297 H   0  0  0  0  0  0  0  0  0  0  0  0
   11.7972    9.5901   -9.7264 H   0  0  0  0  0  0  0  0  0  0  0  0
    9.1781    9.9670   -8.5411 H   0  0  0  0  0  0  0  0  0  0  0  0
   10.8049    9.8604   -6.3710 H   0  0  0  0  0  0  0  0  0  0  0  0
   11.8745    9.0998   -7.5973 H   0  0  0  0  0  0  0  0  0  0  0  0
   10.4807    7.5800   -6.5550 H   0  0  0  0  0  0  0  0  0  0  0  0
    9.1984   14.3254   -7.8767 H   0  0  0  0  0  0  0  0  0  0  0  0
    7.1268   14.7161   -6.8133 H   0  0  0  0  0  0  0  0  0  0  0  0
    7.4447   13.5021   -5.5281 H   0  0  0  0  0  0  0  0  0  0  0  0
    6.5901   13.0657   -8.4092 H   0  0  0  0  0  0  0  0  0  0  0  0
    5.9111   12.3569   -6.9049 H   0  0  0  0  0  0  0  0  0  0  0  0
    7.7369   10.8916   -6.6218 H   0  0  0  0  0  0  0  0  0  0  0  0
    7.6524   10.9628   -8.4147 H   0  0  0  0  0  0  0  0  0  0  0  0
    9.9584   15.8911   -6.4734 H   0  0  0  0  0  0  0  0  0  0  0  0
   12.0276   15.0648   -4.6486 H   0  0  0  0  0  0  0  0  0  0  0  0
   11.0845   16.1090   -2.4839 H   0  0  0  0  0  0  0  0  0  0  0  0
   12.3015   17.5343   -4.2613 H   0  0  0  0  0  0  0  0  0  0  0  0
   10.8657   17.8104   -5.3048 H   0  0  0  0  0  0  0  0  0  0  0  0
   13.2676   16.4779   -6.0805 H   0  0  0  0  0  0  0  0  0  0  0  0
  1  2  1  0  0  0  0
  1  7  1  0  0  0  0
  1 65  1  0  0  0  0
  1 66  1  0  0  0  0
  2  3  1  0  0  0  0
  2  5  1  0  0  0  0
  2 67  1  6  0  0  0
  3  4  2  0  0  0  0
  3  8  1  0  0  0  0
  5  6  1  0  0  0  0
  5 68  1  0  0  0  0
  5 69  1  0  0  0  0
  6  7  1  0  0  0  0
  6 70  1  0  0  0  0
  6 71  1  0  0  0  0
  7 72  1  0  0  0  0
  7 73  1  0  0  0  0
  8  9  1  0  0  0  0
  8 74  1  0  0  0  0
  9 10  1  0  0  0  0
  9 12  1  0  0  0  0
  9 75  1  1  0  0  0
 10 11  2  0  0  0  0
 10 14  1  0  0  0  0
 12 13  1  0  0  0  0
 12 76  1  0  0  0  0
 12 77  1  0  0  0  0
 13 78  1  0  0  0  0
 14 15  1  0  0  0  0
 14 79  1  0  0  0  0
 15 16  1  0  0  0  0
 15 18  1  0  0  0  0
 15 80  1  1  0  0  0
 16 17  2  0  0  0  0
 16 26  1  0  0  0  0
 18 19  1  0  0  0  0
 18 81  1  0  0  0  0
 18 82  1  0  0  0  0
 19 20  2  0  0  0  0
 19 21  1  0  0  0  0
 20 22  1  0  0  0  0
 20 83  1  0  0  0  0
 21 23  2  0  0  0  0
 21 84  1  0  0  0  0
 22 24  2  0  0  0  0
 22 85  1  0  0  0  0
 23 24  1  0  0  0  0
 23 86  1  0  0  0  0
 24 25  1  0  0  0  0
 25 87  1  0  0  0  0
 26 27  1  0  0  0  0
 26 88  1  0  0  0  0
 27 28  1  0  0  0  0
 27 30  1  0  0  0  0
 27 89  1  6  0  0  0
 28 29  2  0  0  0  0
 28 32  1  0  0  0  0
 30 31  1  0  0  0  0
 30 90  1  0  0  0  0
 30 91  1  0  0  0  0
 31 92  1  0  0  0  0
 32 33  1  0  0  0  0
 32 38  1  0  0  0  0
 33 34  1  0  0  0  0
 33 36  1  0  0  0  0
 33 93  1  1  0  0  0
 34 35  2  0  0  0  0
 34 39  1  0  0  0  0
 36 37  1  0  0  0  0
 36 94  1  0  0  0  0
 36 95  1  0  0  0  0
 37 38  1  0  0  0  0
 37 96  1  0  0  0  0
 37 97  1  0  0  0  0
 38 98  1  0  0  0  0
 38 99  1  0  0  0  0
 39 40  1  0  0  0  0
 39100  1  0  0  0  0
 40 41  1  0  0  0  0
 40 43  1  0  0  0  0
 40101  1  6  0  0  0
 41 42  2  0  0  0  0
 41 46  1  0  0  0  0
 43 44  1  0  0  0  0
 43 45  1  0  0  0  0
 43102  1  6  0  0  0
 44103  1  0  0  0  0
 45104  1  0  0  0  0
 45105  1  0  0  0  0
 45106  1  0  0  0  0
 46 47  1  0  0  0  0
 46107  1  0  0  0  0
 47 48  1  0  0  0  0
 47 50  1  0  0  0  0
 47108  1  6  0  0  0
 48 49  2  0  0  0  0
 48 52  1  0  0  0  0
 50 51  1  0  0  0  0
 50109  1  0  0  0  0
 50110  1  0  0  0  0
 51111  1  0  0  0  0
 52 53  1  0  0  0  0
 52 58  1  0  0  0  0
 53 54  1  0  0  0  0
 53 56  1  0  0  0  0
 53112  1  6  0  0  0
 54 55  2  0  0  0  0
 54 59  1  0  0  0  0
 56 57  1  0  0  0  0
 56113  1  0  0  0  0
 56114  1  0  0  0  0
 57 58  1  0  0  0  0
 57115  1  0  0  0  0
 57116  1  0  0  0  0
 58117  1  0  0  0  0
 58118  1  0  0  0  0
 59 60  1  0  0  0  0
 59119  1  0  0  0  0
 60 61  1  0  0  0  0
 60 63  1  0  0  0  0
 60120  1  1  0  0  0
 61 62  2  0  0  0  0
 61121  1  0  0  0  0
 63 64  1  0  0  0  0
 63122  1  0  0  0  0
 63123  1  0  0  0  0
 64124  1  0  0  0  0
M  CHG  1   1   1
M  END
