3d9p_ligand
 OpenBabel08222323343D

119122  0  0  1  0  0  0  0  0999 V2000
   13.3110    0.6890   -0.6660 N   0  3  0  0  0  0  0  0  0  0  0  0
   12.8130    1.4270   -1.8180 C   0  0  2  0  0  0  0  0  0  0  0  0
   13.8890    2.3430   -2.3650 C   0  0  0  0  0  0  0  0  0  0  0  0
   14.2660    3.3110   -1.7110 O   0  0  0  0  0  0  0  0  0  0  0  0
   11.6600    2.2440   -1.2330 C   0  0  0  0  0  0  0  0  0  0  0  0
   11.1420    1.4060   -0.1270 C   0  0  0  0  0  0  0  0  0  0  0  0
   12.3320    0.6680    0.4420 C   0  0  0  0  0  0  0  0  0  0  0  0
   14.3720    2.0250   -3.5610 N   0  0  0  0  0  0  0  0  0  0  0  0
   15.4840    2.7340   -4.1760 C   0  0  2  0  0  0  0  0  0  0  0  0
   15.0600    4.0400   -4.8390 C   0  0  0  0  0  0  0  0  0  0  0  0
   13.9210    4.1740   -5.3050 O   0  0  0  0  0  0  0  0  0  0  0  0
   16.2020    1.8310   -5.1890 C   0  0  0  0  0  0  0  0  0  0  0  0
   15.2900    1.2090   -6.0790 O   0  0  0  0  0  0  0  0  0  0  0  0
   15.9940    4.9920   -4.8710 N   0  0  0  0  0  0  0  0  0  0  0  0
   15.7980    6.2820   -5.5300 C   0  0  2  0  0  0  0  0  0  0  0  0
   15.4930    6.1210   -7.0180 C   0  0  0  0  0  0  0  0  0  0  0  0
   16.1250    5.3180   -7.7200 O   0  0  0  0  0  0  0  0  0  0  0  0
   17.0170    7.2070   -5.3400 C   0  0  0  0  0  0  0  0  0  0  0  0
   16.8310    8.5740   -5.9840 C   0  0  0  0  0  0  0  0  0  0  0  0
   16.1850    9.6090   -5.3000 C   0  0  0  0  0  0  0  0  0  0  0  0
   17.2640    8.8170   -7.2870 C   0  0  0  0  0  0  0  0  0  0  0  0
   15.9970   10.8550   -5.8880 C   0  0  0  0  0  0  0  0  0  0  0  0
   17.0780   10.0690   -7.8940 C   0  0  0  0  0  0  0  0  0  0  0  0
   16.4450   11.0790   -7.1860 C   0  0  0  0  0  0  0  0  0  0  0  0
   16.2580   12.3080   -7.7740 O   0  0  0  0  0  0  0  0  0  0  0  0
   14.5090    6.8840   -7.4830 N   0  0  0  0  0  0  0  0  0  0  0  0
   14.2150    6.9710   -8.9000 C   0  0  1  0  0  0  0  0  0  0  0  0
   12.9930    6.1180   -9.2630 C   0  0  0  0  0  0  0  0  0  0  0  0
   12.5580    6.4160  -10.5780 O   0  0  0  0  0  0  0  0  0  0  0  0
   14.0110    8.4290   -9.3150 C   0  0  0  0  0  0  0  0  0  0  0  0
   13.2870    9.1710   -8.6400 O   0  0  0  0  0  0  0  0  0  0  0  0
   12.4520    5.1290  -11.5500 P   0  0  0  0  0  0  0  0  0  0  0  0
   10.9930    4.4660  -11.4050 O   0  0  0  0  0  1  0  0  0  0  0  0
   12.6580    5.6390  -13.0650 O   0  0  0  0  0  1  0  0  0  0  0  0
   13.5900    4.0370  -11.2050 O   0  0  0  0  0  0  0  0  0  0  0  0
   14.6440    8.8380  -10.4380 N   0  0  0  0  0  0  0  0  0  0  0  0
   14.5320   10.2040  -10.9810 C   0  0  2  0  0  0  0  0  0  0  0  0
   13.1210   10.5770  -11.4430 C   0  0  0  0  0  0  0  0  0  0  0  0
   12.8330   11.7610  -11.6030 O   0  0  0  0  0  0  0  0  0  0  0  0
   15.4710   10.1740  -12.1940 C   0  0  0  0  0  0  0  0  0  0  0  0
   15.5380    8.7410  -12.5830 C   0  0  0  0  0  0  0  0  0  0  0  0
   15.5110    7.9940  -11.2830 C   0  0  0  0  0  0  0  0  0  0  0  0
   12.2680    9.5770  -11.6660 N   0  0  0  0  0  0  0  0  0  0  0  0
   10.8940    9.8020  -12.1360 C   0  0  2  0  0  0  0  0  0  0  0  0
    9.9510   10.2630  -11.0280 C   0  0  0  0  0  0  0  0  0  0  0  0
    8.9260   10.8930  -11.2990 O   0  0  0  0  0  0  0  0  0  0  0  0
   10.2680    8.5270  -12.7550 C   0  0  2  0  0  0  0  0  0  0  0  0
   10.4170    7.4270  -11.8480 O   0  0  0  0  0  0  0  0  0  0  0  0
   10.9050    8.1840  -14.0950 C   0  0  0  0  0  0  0  0  0  0  0  0
   10.2910    9.9340   -9.7850 N   0  0  0  0  0  0  0  0  0  0  0  0
    9.4010   10.1770   -8.6510 C   0  0  1  0  0  0  0  0  0  0  0  0
    9.5070    9.0320   -7.6410 C   0  0  0  0  0  0  0  0  0  0  0  0
   10.8610    8.7520   -7.3500 O   0  0  0  0  0  0  0  0  0  0  0  0
    9.6580   11.5220   -7.9660 C   0  0  0  0  0  0  0  0  0  0  0  0
   10.8110   11.9610   -7.8800 O   0  0  0  0  0  0  0  0  0  0  0  0
   11.0310    8.0610   -5.9040 P   0  0  0  0  0  0  0  0  0  0  0  0
   10.5720    6.5150   -5.9750 O   0  0  0  0  0  1  0  0  0  0  0  0
   12.5960    8.1540   -5.5220 O   0  0  0  0  0  1  0  0  0  0  0  0
   10.1240    8.8220   -4.8020 O   0  0  0  0  0  0  0  0  0  0  0  0
    8.5790   12.1800   -7.4840 N   0  0  0  0  0  0  0  0  0  0  0  0
    8.6750   13.4650   -6.7870 C   0  0  2  0  0  0  0  0  0  0  0  0
    9.5090   13.3810   -5.5110 C   0  0  0  0  0  0  0  0  0  0  0  0
    9.7540   14.4030   -4.8660 O   0  0  0  0  0  0  0  0  0  0  0  0
    7.2120   13.7910   -6.4400 C   0  0  0  0  0  0  0  0  0  0  0  0
    6.4000   12.9900   -7.3900 C   0  0  0  0  0  0  0  0  0  0  0  0
    7.1780   11.7290   -7.5930 C   0  0  0  0  0  0  0  0  0  0  0  0
   14.1601    1.1250   -0.3421 H   0  0  0  0  0  0  0  0  0  0  0  0
   13.5060   -0.2594   -0.9462 H   0  0  0  0  0  0  0  0  0  0  0  0
   12.4620    0.7475   -2.6086 H   0  0  0  0  0  0  0  0  0  0  0  0
   10.8805    2.4155   -1.9900 H   0  0  0  0  0  0  0  0  0  0  0  0
   12.0211    3.2110   -0.8530 H   0  0  0  0  0  0  0  0  0  0  0  0
   10.3975    0.6913   -0.5076 H   0  0  0  0  0  0  0  0  0  0  0  0
   10.6814    2.0385    0.6461 H   0  0  0  0  0  0  0  0  0  0  0  0
   12.7291    1.1854    1.3278 H   0  0  0  0  0  0  0  0  0  0  0  0
   12.0632   -0.3644    0.7101 H   0  0  0  0  0  0  0  0  0  0  0  0
   13.9536    1.2660   -4.0599 H   0  0  0  0  0  0  0  0  0  0  0  0
   16.1983    2.9844   -3.3779 H   0  0  0  0  0  0  0  0  0  0  0  0
   16.7540    1.0519   -4.6429 H   0  0  0  0  0  0  0  0  0  0  0  0
   16.9082    2.4407   -5.7716 H   0  0  0  0  0  0  0  0  0  0  0  0
   15.7689    0.6602   -6.6889 H   0  0  0  0  0  0  0  0  0  0  0  0
   16.8701    4.8146   -4.4227 H   0  0  0  0  0  0  0  0  0  0  0  0
   14.9299    6.7659   -5.0587 H   0  0  0  0  0  0  0  0  0  0  0  0
   17.8971    6.7243   -5.7898 H   0  0  0  0  0  0  0  0  0  0  0  0
   17.1864    7.3472   -4.2622 H   0  0  0  0  0  0  0  0  0  0  0  0
   15.8241    9.4365   -4.2925 H   0  0  0  0  0  0  0  0  0  0  0  0
   17.7533    8.0244   -7.8415 H   0  0  0  0  0  0  0  0  0  0  0  0
   15.5037   11.6480   -5.3377 H   0  0  0  0  0  0  0  0  0  0  0  0
   17.4257   10.2443   -8.9057 H   0  0  0  0  0  0  0  0  0  0  0  0
   15.7301   12.2061   -8.5572 H   0  0  0  0  0  0  0  0  0  0  0  0
   13.9566    7.4122   -6.8381 H   0  0  0  0  0  0  0  0  0  0  0  0
   15.0802    6.5766   -9.4530 H   0  0  0  0  0  0  0  0  0  0  0  0
   12.1788    6.3306   -8.5546 H   0  0  0  0  0  0  0  0  0  0  0  0
   13.2629    5.0533   -9.2027 H   0  0  0  0  0  0  0  0  0  0  0  0
   14.8701   10.9381  -10.2348 H   0  0  0  0  0  0  0  0  0  0  0  0
   16.4686   10.5492  -11.9219 H   0  0  0  0  0  0  0  0  0  0  0  0
   15.0627   10.7805  -13.0159 H   0  0  0  0  0  0  0  0  0  0  0  0
   16.4676    8.5308  -13.1322 H   0  0  0  0  0  0  0  0  0  0  0  0
   14.6739    8.4670  -13.2062 H   0  0  0  0  0  0  0  0  0  0  0  0
   15.0815    6.9896  -11.4122 H   0  0  0  0  0  0  0  0  0  0  0  0
   16.5204    7.9088  -10.8541 H   0  0  0  0  0  0  0  0  0  0  0  0
   12.5747    8.6385  -11.5075 H   0  0  0  0  0  0  0  0  0  0  0  0
   10.9341   10.5845  -12.9081 H   0  0  0  0  0  0  0  0  0  0  0  0
    9.1954    8.7094  -12.9171 H   0  0  0  0  0  0  0  0  0  0  0  0
   11.3405    7.2770  -11.6829 H   0  0  0  0  0  0  0  0  0  0  0  0
   10.4361    7.2760  -14.5021 H   0  0  0  0  0  0  0  0  0  0  0  0
   11.9820    8.0092  -13.9550 H   0  0  0  0  0  0  0  0  0  0  0  0
   10.7570    9.0188  -14.7958 H   0  0  0  0  0  0  0  0  0  0  0  0
   11.1809    9.5082   -9.6214 H   0  0  0  0  0  0  0  0  0  0  0  0
    8.3711   10.1953   -9.0370 H   0  0  0  0  0  0  0  0  0  0  0  0
    9.0340    8.1327   -8.0624 H   0  0  0  0  0  0  0  0  0  0  0  0
    8.9893    9.3183   -6.7136 H   0  0  0  0  0  0  0  0  0  0  0  0
    9.1039   14.2313   -7.4494 H   0  0  0  0  0  0  0  0  0  0  0  0
    9.8876   12.4184   -5.1704 H   0  0  0  0  0  0  0  0  0  0  0  0
    7.0138   14.8648   -6.5731 H   0  0  0  0  0  0  0  0  0  0  0  0
    6.9880   13.5026   -5.4024 H   0  0  0  0  0  0  0  0  0  0  0  0
    6.2774   13.5266   -8.3424 H   0  0  0  0  0  0  0  0  0  0  0  0
    5.4104   12.7697   -6.9632 H   0  0  0  0  0  0  0  0  0  0  0  0
    6.9398   10.9884   -6.8154 H   0  0  0  0  0  0  0  0  0  0  0  0
    6.9781   11.2968   -8.5846 H   0  0  0  0  0  0  0  0  0  0  0  0
  1  2  1  0  0  0  0
  1  7  1  0  0  0  0
  1 67  1  0  0  0  0
  1 68  1  0  0  0  0
  2  3  1  0  0  0  0
  2  5  1  0  0  0  0
  2 69  1  6  0  0  0
  3  4  2  0  0  0  0
  3  8  1  0  0  0  0
  5  6  1  0  0  0  0
  5 70  1  0  0  0  0
  5 71  1  0  0  0  0
  6  7  1  0  0  0  0
  6 72  1  0  0  0  0
  6 73  1  0  0  0  0
  7 74  1  0  0  0  0
  7 75  1  0  0  0  0
  8  9  1  0  0  0  0
  8 76  1  0  0  0  0
  9 10  1  0  0  0  0
  9 12  1  0  0  0  0
  9 77  1  1  0  0  0
 10 11  2  0  0  0  0
 10 14  1  0  0  0  0
 12 13  1  0  0  0  0
 12 78  1  0  0  0  0
 12 79  1  0  0  0  0
 13 80  1  0  0  0  0
 14 15  1  0  0  0  0
 14 81  1  0  0  0  0
 15 16  1  0  0  0  0
 15 18  1  0  0  0  0
 15 82  1  1  0  0  0
 16 17  2  0  0  0  0
 16 26  1  0  0  0  0
 18 19  1  0  0  0  0
 18 83  1  0  0  0  0
 18 84  1  0  0  0  0
 19 20  2  0  0  0  0
 19 21  1  0  0  0  0
 20 22  1  0  0  0  0
 20 85  1  0  0  0  0
 21 23  2  0  0  0  0
 21 86  1  0  0  0  0
 22 24  2  0  0  0  0
 22 87  1  0  0  0  0
 23 24  1  0  0  0  0
 23 88  1  0  0  0  0
 24 25  1  0  0  0  0
 25 89  1  0  0  0  0
 26 27  1  0  0  0  0
 26 90  1  0  0  0  0
 27 28  1  0  0  0  0
 27 30  1  0  0  0  0
 27 91  1  6  0  0  0
 28 29  1  0  0  0  0
 28 92  1  0  0  0  0
 28 93  1  0  0  0  0
 29 32  1  0  0  0  0
 30 31  2  0  0  0  0
 30 36  1  0  0  0  0
 32 33  1  0  0  0  0
 32 34  1  0  0  0  0
 32 35  2  0  0  0  0
 36 37  1  0  0  0  0
 36 42  1  0  0  0  0
 37 38  1  0  0  0  0
 37 40  1  0  0  0  0
 37 94  1  1  0  0  0
 38 39  2  0  0  0  0
 38 43  1  0  0  0  0
 40 41  1  0  0  0  0
 40 95  1  0  0  0  0
 40 96  1  0  0  0  0
 41 42  1  0  0  0  0
 41 97  1  0  0  0  0
 41 98  1  0  0  0  0
 42 99  1  0  0  0  0
 42100  1  0  0  0  0
 43 44  1  0  0  0  0
 43101  1  0  0  0  0
 44 45  1  0  0  0  0
 44 47  1  0  0  0  0
 44102  1  6  0  0  0
 45 46  2  0  0  0  0
 45 50  1  0  0  0  0
 47 48  1  0  0  0  0
 47 49  1  0  0  0  0
 47103  1  6  0  0  0
 48104  1  0  0  0  0
 49105  1  0  0  0  0
 49106  1  0  0  0  0
 49107  1  0  0  0  0
 50 51  1  0  0  0  0
 50108  1  0  0  0  0
 51 52  1  0  0  0  0
 51 54  1  0  0  0  0
 51109  1  6  0  0  0
 52 53  1  0  0  0  0
 52110  1  0  0  0  0
 52111  1  0  0  0  0
 53 56  1  0  0  0  0
 54 55  2  0  0  0  0
 54 60  1  0  0  0  0
 56 57  1  0  0  0  0
 56 58  1  0  0  0  0
 56 59  2  0  0  0  0
 60 61  1  0  0  0  0
 60 66  1  0  0  0  0
 61 62  1  0  0  0  0
 61 64  1  0  0  0  0
 61112  1  6  0  0  0
 62 63  2  0  0  0  0
 62113  1  0  0  0  0
 64 65  1  0  0  0  0
 64114  1  0  0  0  0
 64115  1  0  0  0  0
 65 66  1  0  0  0  0
 65116  1  0  0  0  0
 65117  1  0  0  0  0
 66118  1  0  0  0  0
 66119  1  0  0  0  0
M  CHG  1   1   1
M  END
