3d9v_ligand
 OpenBabel08222323343D

 44 46  0  0  1  0  0  0  0  0999 V2000
   53.4870  101.2470   30.0680 O   0  0  0  0  0  0  0  0  0  0  0  0
   52.2480  101.9000   30.4060 S   0  0  0  0  0  0  0  0  0  0  0  0
   51.1900  101.2480   31.1400 O   0  0  0  0  0  0  0  0  0  0  0  0
   52.7040  103.2520   31.2790 N   0  0  0  0  0  0  0  0  0  0  0  0
   54.0830  103.7440   31.1800 C   0  0  1  0  0  0  0  0  0  0  0  0
   54.4110  104.3480   29.8060 C   0  0  0  0  0  0  0  0  0  0  0  0
   54.6270  104.7030   32.2660 C   0  0  0  0  0  0  0  0  0  0  0  0
   54.3810  104.1290   33.6210 N   0  3  0  0  0  0  0  0  0  0  0  0
   53.1150  104.5420   34.1740 C   0  0  0  0  0  0  0  0  0  0  0  0
   52.0800  103.5830   33.5880 C   0  0  0  0  0  0  0  0  0  0  0  0
   51.6870  103.9220   32.2070 C   0  0  0  0  0  0  0  0  0  0  0  0
   51.5610  102.4130   28.8340 C   0  0  0  0  0  0  0  0  0  0  0  0
   51.2790  101.4510   27.7520 C   0  0  0  0  0  0  0  0  0  0  0  0
   51.5120   99.9720   27.8050 C   0  0  0  0  0  0  0  0  0  0  0  0
   52.0450   99.1860   29.0090 C   0  0  0  0  0  0  0  0  0  0  0  0
   50.7400  102.0040   26.4730 C   0  0  0  0  0  0  0  0  0  0  0  0
   50.4960  103.4160   26.3280 C   0  0  0  0  0  0  0  0  0  0  0  0
   50.7670  104.2770   27.3880 C   0  0  0  0  0  0  0  0  0  0  0  0
   51.2940  103.7870   28.6220 C   0  0  0  0  0  0  0  0  0  0  0  0
   50.4690  101.0950   25.4020 C   0  0  0  0  0  0  0  0  0  0  0  0
   50.7220   99.7750   25.5500 N   0  0  0  0  0  0  0  0  0  0  0  0
   51.2050   99.2280   26.6890 C   0  0  0  0  0  0  0  0  0  0  0  0
   54.6966  102.8356   31.2705 H   0  0  0  0  0  0  0  0  0  0  0  0
   55.4544  104.6961   29.7982 H   0  0  0  0  0  0  0  0  0  0  0  0
   53.7398  105.1969   29.6089 H   0  0  0  0  0  0  0  0  0  0  0  0
   54.2737  103.5835   29.0271 H   0  0  0  0  0  0  0  0  0  0  0  0
   54.1170  105.6741   32.1834 H   0  0  0  0  0  0  0  0  0  0  0  0
   55.7083  104.8430   32.1203 H   0  0  0  0  0  0  0  0  0  0  0  0
   55.1177  104.4315   34.2389 H   0  0  0  0  0  0  0  0  0  0  0  0
   54.3913  103.1234   33.5529 H   0  0  0  0  0  0  0  0  0  0  0  0
   52.8877  105.5779   33.8819 H   0  0  0  0  0  0  0  0  0  0  0  0
   53.1317  104.4656   35.2712 H   0  0  0  0  0  0  0  0  0  0  0  0
   51.1819  103.6080   34.2227 H   0  0  0  0  0  0  0  0  0  0  0  0
   52.5033  102.5677   33.5913 H   0  0  0  0  0  0  0  0  0  0  0  0
   50.6760  103.5426   31.9974 H   0  0  0  0  0  0  0  0  0  0  0  0
   51.7062  105.0126   32.0650 H   0  0  0  0  0  0  0  0  0  0  0  0
   52.1099   98.1188   28.7505 H   0  0  0  0  0  0  0  0  0  0  0  0
   51.3633   99.3157   29.8625 H   0  0  0  0  0  0  0  0  0  0  0  0
   53.0441   99.5596   29.2776 H   0  0  0  0  0  0  0  0  0  0  0  0
   50.1027  103.8071   25.3966 H   0  0  0  0  0  0  0  0  0  0  0  0
   50.5747  105.3378   27.2749 H   0  0  0  0  0  0  0  0  0  0  0  0
   51.4960  104.4900   29.4220 H   0  0  0  0  0  0  0  0  0  0  0  0
   50.0597  101.4656   24.4692 H   0  0  0  0  0  0  0  0  0  0  0  0
   51.3570   98.1553   26.7241 H   0  0  0  0  0  0  0  0  0  0  0  0
  1  2  2  0  0  0  0
  2  3  2  0  0  0  0
  2  4  1  0  0  0  0
  2 12  1  0  0  0  0
  4  5  1  0  0  0  0
  4 11  1  0  0  0  0
  5  6  1  0  0  0  0
  5  7  1  0  0  0  0
  5 23  1  1  0  0  0
  6 24  1  0  0  0  0
  6 25  1  0  0  0  0
  6 26  1  0  0  0  0
  7  8  1  0  0  0  0
  7 27  1  0  0  0  0
  7 28  1  0  0  0  0
  8  9  1  0  0  0  0
  8 29  1  0  0  0  0
  8 30  1  0  0  0  0
  9 10  1  0  0  0  0
  9 31  1  0  0  0  0
  9 32  1  0  0  0  0
 10 11  1  0  0  0  0
 10 33  1  0  0  0  0
 10 34  1  0  0  0  0
 11 35  1  0  0  0  0
 11 36  1  0  0  0  0
 12 13  2  0  0  0  0
 12 19  1  0  0  0  0
 13 14  1  0  0  0  0
 13 16  1  0  0  0  0
 14 15  1  0  0  0  0
 14 22  2  0  0  0  0
 15 37  1  0  0  0  0
 15 38  1  0  0  0  0
 15 39  1  0  0  0  0
 16 17  2  0  0  0  0
 16 20  1  0  0  0  0
 17 18  1  0  0  0  0
 17 40  1  0  0  0  0
 18 19  2  0  0  0  0
 18 41  1  0  0  0  0
 19 42  1  0  0  0  0
 20 21  2  0  0  0  0
 20 43  1  0  0  0  0
 21 22  1  0  0  0  0
 22 44  1  0  0  0  0
M  CHG  1   8   1
M  END
