3da6_ligand
 OpenBabel08222323343D

 59 64  0  0  0  0  0  0  0  0999 V2000
  -19.2570   17.1450  -33.1670 N   0  0  0  0  0  0  0  0  0  0  0  0
  -17.5010   18.3170  -33.8350 C   0  0  0  0  0  0  0  0  0  0  0  0
  -16.8280   19.3150  -34.5840 C   0  0  0  0  0  0  0  0  0  0  0  0
  -17.5670   20.2010  -35.3850 C   0  0  0  0  0  0  0  0  0  0  0  0
  -18.9820   20.0290  -35.4140 C   0  0  0  0  0  0  0  0  0  0  0  0
  -19.6400   19.0140  -34.7280 C   0  0  0  0  0  0  0  0  0  0  0  0
  -19.7590   12.6610  -33.0490 C   0  0  0  0  0  0  0  0  0  0  0  0
  -18.4510   13.2750  -35.3900 C   0  0  0  0  0  0  0  0  0  0  0  0
  -19.9060   11.8580  -34.1710 C   0  0  0  0  0  0  0  0  0  0  0  0
  -20.4450   12.3340  -31.8800 C   0  0  0  0  0  0  0  0  0  0  0  0
  -18.8540   14.5980  -31.9150 C   0  0  0  0  0  0  0  0  0  0  0  0
  -22.8340    9.6020  -31.7690 C   0  0  0  0  0  0  0  0  0  0  0  0
  -24.2200    9.3610  -31.7680 C   0  0  0  0  0  0  0  0  0  0  0  0
  -24.5270   11.7490  -31.6190 C   0  0  0  0  0  0  0  0  0  0  0  0
  -22.4140   10.9190  -31.7430 C   0  0  0  0  0  0  0  0  0  0  0  0
  -22.0180    8.5020  -31.9280 C   0  0  0  0  0  0  0  0  0  0  0  0
  -23.8990    4.8560  -30.7440 C   0  0  0  0  0  0  0  0  0  0  0  0
  -22.5790    4.9760  -31.3970 N   0  0  0  0  0  0  0  0  0  0  0  0
  -21.9780    6.1320  -31.7390 C   0  0  0  0  0  0  0  0  0  0  0  0
  -22.5580    7.3150  -31.5900 N   0  0  0  0  0  0  0  0  0  0  0  0
  -20.7910    6.1080  -32.3360 N   0  0  0  0  0  0  0  0  0  0  0  0
  -20.1910    7.2220  -32.6380 C   0  0  0  0  0  0  0  0  0  0  0  0
  -20.7130    8.5020  -32.4940 C   0  0  0  0  0  0  0  0  0  0  0  0
  -25.0600   10.4790  -31.6710 C   0  0  0  0  0  0  0  0  0  0  0  0
  -23.1970   11.9400  -31.6790 N   0  0  0  0  0  0  0  0  0  0  0  0
  -21.1250   11.1470  -31.8350 O   0  0  0  0  0  0  0  0  0  0  0  0
  -20.3490   13.1240  -30.7350 C   0  0  0  0  0  0  0  0  0  0  0  0
  -21.1060   12.7550  -29.4500 C   0  0  0  0  0  0  0  0  0  0  0  0
  -19.5770   14.2830  -30.7760 C   0  0  0  0  0  0  0  0  0  0  0  0
  -19.2190   12.1410  -35.3690 C   0  0  0  0  0  0  0  0  0  0  0  0
  -18.2620   14.0740  -34.2710 C   0  0  0  0  0  0  0  0  0  0  0  0
  -18.9370   13.7900  -33.0770 C   0  0  0  0  0  0  0  0  0  0  0  0
  -18.1020   15.6920  -31.7760 N   0  0  0  0  0  0  0  0  0  0  0  0
  -18.1350   16.6910  -32.6180 C   0  0  0  0  0  0  0  0  0  0  0  0
  -17.0420   17.3740  -33.0030 N   0  0  0  0  0  0  0  0  0  0  0  0
  -18.8990   18.1720  -33.9210 C   0  0  0  0  0  0  0  0  0  0  0  0
  -15.7478   19.3939  -34.5387 H   0  0  0  0  0  0  0  0  0  0  0  0
  -17.0816   20.9832  -35.9574 H   0  0  0  0  0  0  0  0  0  0  0  0
  -19.5738   20.7233  -35.9994 H   0  0  0  0  0  0  0  0  0  0  0  0
  -20.7121   18.8860  -34.8244 H   0  0  0  0  0  0  0  0  0  0  0  0
  -17.9709   13.5602  -36.3191 H   0  0  0  0  0  0  0  0  0  0  0  0
  -20.5620   10.9962  -34.1254 H   0  0  0  0  0  0  0  0  0  0  0  0
  -24.6203    8.3561  -31.8390 H   0  0  0  0  0  0  0  0  0  0  0  0
  -25.1874   12.6038  -31.5287 H   0  0  0  0  0  0  0  0  0  0  0  0
  -24.1343    3.7932  -30.5853 H   0  0  0  0  0  0  0  0  0  0  0  0
  -24.6683    5.3100  -31.3859 H   0  0  0  0  0  0  0  0  0  0  0  0
  -23.8771    5.3753  -29.7746 H   0  0  0  0  0  0  0  0  0  0  0  0
  -22.0761    4.1023  -31.6085 H   0  0  0  0  0  0  0  0  0  0  0  0
  -19.1875    7.1445  -33.0406 H   0  0  0  0  0  0  0  0  0  0  0  0
  -20.1831    9.4028  -32.7818 H   0  0  0  0  0  0  0  0  0  0  0  0
  -26.1350   10.3440  -31.6367 H   0  0  0  0  0  0  0  0  0  0  0  0
  -20.8948   13.5036  -28.6722 H   0  0  0  0  0  0  0  0  0  0  0  0
  -20.7786   11.7638  -29.1033 H   0  0  0  0  0  0  0  0  0  0  0  0
  -22.1866   12.7335  -29.6543 H   0  0  0  0  0  0  0  0  0  0  0  0
  -19.5420   14.9400  -29.9145 H   0  0  0  0  0  0  0  0  0  0  0  0
  -19.2950   11.4914  -36.2334 H   0  0  0  0  0  0  0  0  0  0  0  0
  -17.5887   14.9220  -34.3213 H   0  0  0  0  0  0  0  0  0  0  0  0
  -17.4663   15.7516  -30.9678 H   0  0  0  0  0  0  0  0  0  0  0  0
  -16.0658   17.2078  -32.7197 H   0  0  0  0  0  0  0  0  0  0  0  0
  1 36  1  0  0  0  0
  2  3  2  0  0  0  0
  2 35  1  0  0  0  0
  3  4  1  0  0  0  0
  3 37  1  0  0  0  0
  4 38  1  0  0  0  0
  5  4  2  0  0  0  0
  5 39  1  0  0  0  0
  6  5  1  0  0  0  0
  6 40  1  0  0  0  0
  7  9  2  0  0  0  0
  7 10  1  0  0  0  0
  8 30  2  0  0  0  0
  8 41  1  0  0  0  0
  9 30  1  0  0  0  0
  9 42  1  0  0  0  0
 10 26  1  0  0  0  0
 11 29  2  0  0  0  0
 11 32  1  0  0  0  0
 12 13  2  0  0  0  0
 12 16  1  0  0  0  0
 13 24  1  0  0  0  0
 13 43  1  0  0  0  0
 14 24  2  0  0  0  0
 14 44  1  0  0  0  0
 15 12  1  0  0  0  0
 15 25  2  0  0  0  0
 16 20  2  0  0  0  0
 16 23  1  0  0  0  0
 17 45  1  0  0  0  0
 17 46  1  0  0  0  0
 17 47  1  0  0  0  0
 18 17  1  0  0  0  0
 18 48  1  0  0  0  0
 19 18  1  0  0  0  0
 19 21  2  0  0  0  0
 20 19  1  0  0  0  0
 22 21  1  0  0  0  0
 22 49  1  0  0  0  0
 23 22  2  0  0  0  0
 23 50  1  0  0  0  0
 24 51  1  0  0  0  0
 25 14  1  0  0  0  0
 26 15  1  0  0  0  0
 27 10  2  0  0  0  0
 27 28  1  0  0  0  0
 28 52  1  0  0  0  0
 28 53  1  0  0  0  0
 28 54  1  0  0  0  0
 29 27  1  0  0  0  0
 29 55  1  0  0  0  0
 30 56  1  0  0  0  0
 31  8  1  0  0  0  0
 31 57  1  0  0  0  0
 32  7  1  0  0  0  0
 32 31  2  0  0  0  0
 33 11  1  0  0  0  0
 33 34  1  0  0  0  0
 33 58  1  0  0  0  0
 34  1  2  0  0  0  0
 34 35  1  0  0  0  0
 35 59  1  0  0  0  0
 36  2  1  0  0  0  0
 36  6  2  0  0  0  0
M  END
