3dbd_ligand
 OpenBabel08222323343D

 59 63  0  0  1  0  0  0  0  0999 V2000
   60.0740   14.7270   48.1870 C   0  0  0  0  0  0  0  0  0  0  0  0
   58.8380   15.0890   48.7180 C   0  0  0  0  0  0  0  0  0  0  0  0
   59.0490   17.2880   47.7210 C   0  0  0  0  0  0  0  0  0  0  0  0
   57.1640   23.3860   42.1510 C   0  0  0  0  0  0  0  0  0  0  0  0
   53.7330   15.1370   42.8240 C   0  0  0  0  0  0  0  0  0  0  0  0
   58.1150   19.0960   46.2260 C   0  0  0  0  0  0  0  0  0  0  0  0
   58.4740   18.6480   47.5030 C   0  0  0  0  0  0  0  0  0  0  0  0
   57.1230   22.2720   43.1610 C   0  0  0  0  0  0  0  0  0  0  0  0
   57.7570   20.7440   48.4090 C   0  0  0  0  0  0  0  0  0  0  0  0
   56.3810   21.0380   42.7810 C   0  0  0  0  0  0  0  0  0  0  0  0
   55.6840   20.6850   41.6280 C   0  0  0  0  0  0  0  0  0  0  0  0
   56.4860   20.1720   43.8610 C   0  0  0  0  0  0  0  0  0  0  0  0
   55.8690   18.9280   43.7710 C   0  0  0  0  0  0  0  0  0  0  0  0
   55.1740   18.5920   42.6000 C   0  0  0  0  0  0  0  0  0  0  0  0
   54.5130   16.3070   43.4200 C   0  0  1  0  0  0  0  0  0  0  0  0
   55.9990   15.2720   45.1260 C   0  0  0  0  0  0  0  0  0  0  0  0
   55.8600   15.8380   43.8570 C   0  0  0  0  0  0  0  0  0  0  0  0
   56.9870   15.9540   43.0360 C   0  0  0  0  0  0  0  0  0  0  0  0
   57.2440   14.8240   45.5650 C   0  0  0  0  0  0  0  0  0  0  0  0
   58.3630   14.9440   44.7430 C   0  0  0  0  0  0  0  0  0  0  0  0
   58.2340   15.5120   43.4770 C   0  0  0  0  0  0  0  0  0  0  0  0
   61.6730   18.8090   46.9240 O   0  0  0  0  0  0  0  0  0  0  0  0
   61.1000   17.8840   46.3720 C   0  0  0  0  0  0  0  0  0  0  0  0
   61.1700   17.6980   45.0550 N   0  0  0  0  0  0  0  0  0  0  0  0
   60.2890   16.9240   47.1950 C   0  0  0  0  0  0  0  0  0  0  0  0
   60.7970   15.6450   47.4270 C   0  0  0  0  0  0  0  0  0  0  0  0
   58.3300   16.3660   48.4870 C   0  0  0  0  0  0  0  0  0  0  0  0
   58.2920   19.4790   48.6030 C   0  0  0  0  0  0  0  0  0  0  0  0
   57.5070   21.8430   49.8060 Cl  0  0  0  0  0  0  0  0  0  0  0  0
   57.4110   21.1600   47.1260 C   0  0  0  0  0  0  0  0  0  0  0  0
   57.5640   20.3660   45.9850 C   0  0  0  0  0  0  0  0  0  0  0  0
   57.2190   20.8380   44.7730 N   0  0  0  0  0  0  0  0  0  0  0  0
   57.6340   22.1270   44.3980 N   0  0  0  0  0  0  0  0  0  0  0  0
   55.1020   19.4760   41.5690 N   0  0  0  0  0  0  0  0  0  0  0  0
   54.5580   17.3900   42.4410 N   0  0  0  0  0  0  0  0  0  0  0  0
   60.4723   13.7345   48.3643 H   0  0  0  0  0  0  0  0  0  0  0  0
   58.2723   14.3786   49.3099 H   0  0  0  0  0  0  0  0  0  0  0  0
   57.7401   24.2297   42.5589 H   0  0  0  0  0  0  0  0  0  0  0  0
   56.1388   23.7161   41.9274 H   0  0  0  0  0  0  0  0  0  0  0  0
   57.6431   23.0269   41.2282 H   0  0  0  0  0  0  0  0  0  0  0  0
   52.7401   15.4843   42.5022 H   0  0  0  0  0  0  0  0  0  0  0  0
   53.6177   14.3488   43.5826 H   0  0  0  0  0  0  0  0  0  0  0  0
   54.2793   14.7353   41.9579 H   0  0  0  0  0  0  0  0  0  0  0  0
   58.2694   18.4317   45.3834 H   0  0  0  0  0  0  0  0  0  0  0  0
   55.6126   21.3733   40.7936 H   0  0  0  0  0  0  0  0  0  0  0  0
   55.9248   18.2270   44.5960 H   0  0  0  0  0  0  0  0  0  0  0  0
   53.9788   16.6741   44.3088 H   0  0  0  0  0  0  0  0  0  0  0  0
   55.1342   15.1805   45.7732 H   0  0  0  0  0  0  0  0  0  0  0  0
   56.8900   16.3911   42.0488 H   0  0  0  0  0  0  0  0  0  0  0  0
   57.3421   14.3807   46.5493 H   0  0  0  0  0  0  0  0  0  0  0  0
   59.3304   14.5967   45.0872 H   0  0  0  0  0  0  0  0  0  0  0  0
   59.1023   15.6102   42.8355 H   0  0  0  0  0  0  0  0  0  0  0  0
   60.6888   16.9301   44.6322 H   0  0  0  0  0  0  0  0  0  0  0  0
   61.7037   18.3263   44.4890 H   0  0  0  0  0  0  0  0  0  0  0  0
   61.7590   15.3639   47.0140 H   0  0  0  0  0  0  0  0  0  0  0  0
   57.3698   16.6465   48.9046 H   0  0  0  0  0  0  0  0  0  0  0  0
   58.5641   19.1433   49.5971 H   0  0  0  0  0  0  0  0  0  0  0  0
   56.9998   22.1556   47.0048 H   0  0  0  0  0  0  0  0  0  0  0  0
   54.0773   17.2279   41.5446 H   0  0  0  0  0  0  0  0  0  0  0  0
  1 36  1  0  0  0  0
  2  1  2  0  0  0  0
  2 37  1  0  0  0  0
  3 25  1  0  0  0  0
  3 27  2  0  0  0  0
  4 38  1  0  0  0  0
  4 39  1  0  0  0  0
  4 40  1  0  0  0  0
  5 41  1  0  0  0  0
  5 42  1  0  0  0  0
  5 43  1  0  0  0  0
  6  7  2  0  0  0  0
  6 44  1  0  0  0  0
  7  3  1  0  0  0  0
  7 28  1  0  0  0  0
  8  4  1  0  0  0  0
  8 33  2  0  0  0  0
  9 28  2  0  0  0  0
  9 29  1  0  0  0  0
 10  8  1  0  0  0  0
 10 11  2  0  0  0  0
 11 34  1  0  0  0  0
 11 45  1  0  0  0  0
 12 10  1  0  0  0  0
 12 13  2  0  0  0  0
 13 14  1  0  0  0  0
 13 46  1  0  0  0  0
 14 34  2  0  0  0  0
 14 35  1  0  0  0  0
 15  5  1  0  0  0  0
 15 17  1  0  0  0  0
 15 47  1  1  0  0  0
 16 19  1  0  0  0  0
 16 48  1  0  0  0  0
 17 16  2  0  0  0  0
 17 18  1  0  0  0  0
 18 21  2  0  0  0  0
 18 49  1  0  0  0  0
 19 20  2  0  0  0  0
 19 50  1  0  0  0  0
 20 51  1  0  0  0  0
 21 20  1  0  0  0  0
 21 52  1  0  0  0  0
 23 22  2  0  0  0  0
 23 24  1  0  0  0  0
 24 53  1  0  0  0  0
 24 54  1  0  0  0  0
 25 23  1  0  0  0  0
 25 26  2  0  0  0  0
 26  1  1  0  0  0  0
 26 55  1  0  0  0  0
 27  2  1  0  0  0  0
 27 56  1  0  0  0  0
 28 57  1  0  0  0  0
 30  9  1  0  0  0  0
 30 58  1  0  0  0  0
 31  6  1  0  0  0  0
 31 30  2  0  0  0  0
 31 32  1  0  0  0  0
 32 12  1  0  0  0  0
 32 33  1  0  0  0  0
 35 15  1  0  0  0  0
 35 59  1  0  0  0  0
M  END
