3dcr_ligand
 OpenBabel08222323343D

125124  0  0  1  0  0  0  0  0999 V2000
   -4.2910   -8.8710  -16.7770 C   0  0  0  0  0  0  0  0  0  0  0  0
   -3.4730   -8.5350  -17.6580 O   0  0  0  0  0  0  0  0  0  0  0  0
   -3.8710   -9.5530  -15.5100 C   0  0  0  0  0  0  0  0  0  0  0  0
   -5.6060   -8.7070  -16.9420 N   0  0  0  0  0  0  0  0  0  0  0  0
   -6.2210   -8.0910  -18.1090 C   0  0  2  0  0  0  0  0  0  0  0  0
   -6.8020   -6.6650  -17.9160 C   0  0  0  0  0  0  0  0  0  0  0  0
   -7.1390   -6.0150  -18.8960 O   0  0  0  0  0  0  0  0  0  0  0  0
   -7.3250   -8.9420  -18.6890 C   0  0  2  0  0  0  0  0  0  0  0  0
   -8.4100   -9.0740  -17.7600 O   0  0  0  0  0  0  0  0  0  0  0  0
   -6.7630  -10.3200  -19.0680 C   0  0  0  0  0  0  0  0  0  0  0  0
   -6.8760   -6.1870  -16.6850 N   0  0  0  0  0  0  0  0  0  0  0  0
   -7.3960   -4.8860  -16.3840 C   0  0  2  0  0  0  0  0  0  0  0  0
   -6.3190   -4.0980  -15.6510 C   0  0  0  0  0  0  0  0  0  0  0  0
   -6.1610   -4.2190  -14.4140 O   0  0  0  0  0  0  0  0  0  0  0  0
   -8.6610   -4.9400  -15.5200 C   0  0  2  0  0  0  0  0  0  0  0  0
   -9.7200   -5.8680  -16.0800 C   0  0  0  0  0  0  0  0  0  0  0  0
   -9.2740   -3.5280  -15.3560 C   0  0  0  0  0  0  0  0  0  0  0  0
  -10.2600   -5.5280  -17.4810 C   0  0  0  0  0  0  0  0  0  0  0  0
   -5.4850   -3.2460  -16.4620 N   0  0  0  0  0  0  0  0  0  0  0  0
   -4.3720   -2.5200  -15.8610 C   0  0  1  0  0  0  0  0  0  0  0  0
   -3.1390   -2.7820  -16.7420 C   0  0  0  0  0  0  0  0  0  0  0  0
   -2.7840   -4.2740  -16.9750 C   0  0  0  0  0  0  0  0  0  0  0  0
   -2.6870   -5.1070  -15.6810 C   0  0  0  0  0  0  0  0  0  0  0  0
   -1.6830   -4.4310  -14.7740 C   0  0  0  0  0  0  0  0  0  0  0  0
   -4.7210   -1.0580  -15.6330 C   0  0  0  0  0  0  0  0  0  0  0  0
   -5.0390   -0.3570  -16.9230 O   0  0  0  0  0  0  0  0  0  0  0  0
   -3.5480   -0.2820  -15.0990 O   0  0  0  0  0  0  0  0  0  0  0  0
   -5.9380   -0.8210  -14.7380 C   0  0  0  0  0  0  0  0  0  0  0  0
   -6.0000    0.4650  -13.9590 C   0  0  1  0  0  0  0  0  0  0  0  0
   -7.4150    0.6830  -13.4360 C   0  0  0  0  0  0  0  0  0  0  0  0
   -7.6430    1.9430  -12.5830 C   0  0  0  0  0  0  0  0  0  0  0  0
   -7.6080    1.4730  -11.1330 C   0  0  0  0  0  0  0  0  0  0  0  0
   -8.8560    0.6770  -10.6890 C   0  0  0  0  0  0  0  0  0  0  0  0
   -4.9590    0.4260  -12.8680 C   0  0  0  0  0  0  0  0  0  0  0  0
   -4.7060   -0.5450  -12.1010 O   0  0  0  0  0  0  0  0  0  0  0  0
   -4.3030    1.6070  -12.5360 N   0  0  0  0  0  0  0  0  0  0  0  0
   -3.2780    1.6970  -11.4850 C   0  0  2  0  0  0  0  0  0  0  0  0
   -3.2770    3.0840  -10.8800 C   0  0  0  0  0  0  0  0  0  0  0  0
   -3.3460    4.1200  -11.6060 O   0  0  0  0  0  0  0  0  0  0  0  0
   -1.9340    1.2660  -12.0190 C   0  0  0  0  0  0  0  0  0  0  0  0
   -0.7990    1.4020  -11.0070 C   0  0  0  0  0  0  0  0  0  0  0  0
   -0.2190    2.7890  -10.8690 C   0  0  0  0  0  0  0  0  0  0  0  0
   -0.2590    3.5480  -11.8190 O   0  0  0  0  0  0  0  0  0  0  0  0
    0.3570    3.1230   -9.7320 N   0  0  0  0  0  0  0  0  0  0  0  0
   -3.2500    3.1950   -9.5540 N   0  0  0  0  0  0  0  0  0  0  0  0
   -3.1680    4.4590   -8.8380 C   0  0  1  0  0  0  0  0  0  0  0  0
   -4.5870    4.6640   -8.3420 C   0  0  0  0  0  0  0  0  0  0  0  0
   -5.3330    5.7150   -9.1480 C   0  0  0  0  0  0  0  0  0  0  0  0
   -5.7120    6.9460   -8.3060 C   0  0  0  0  0  0  0  0  0  0  0  0
   -5.2090    8.1510   -8.9530 N   0  0  0  0  0  0  0  0  0  0  0  0
   -5.8940    9.1910   -9.3370 C   0  0  0  0  0  3  0  0  0  0  0  0
   -7.1830    9.4000   -8.9920 N   0  0  0  0  0  0  0  0  0  0  0  0
   -5.2540   10.0480  -10.1500 N   0  0  0  0  0  0  0  0  0  0  0  0
   -2.1540    4.3250   -7.7660 C   0  0  0  0  0  0  0  0  0  0  0  0
   -2.0230    3.3190   -7.1670 O   0  0  0  0  0  0  0  0  0  0  0  0
   -1.3480    5.3300   -7.4430 N   0  0  0  0  0  0  0  0  0  0  0  0
   -4.7572   -9.7512  -14.8892 H   0  0  0  0  0  0  0  0  0  0  0  0
   -3.1743   -8.9048  -14.9582 H   0  0  0  0  0  0  0  0  0  0  0  0
   -3.3734  -10.5035  -15.7528 H   0  0  0  0  0  0  0  0  0  0  0  0
   -6.2102   -9.0297  -16.2134 H   0  0  0  0  0  0  0  0  0  0  0  0
   -5.4247   -8.0129  -18.8639 H   0  0  0  0  0  0  0  0  0  0  0  0
   -7.7044   -8.4539  -19.5989 H   0  0  0  0  0  0  0  0  0  0  0  0
   -9.0916   -9.6121  -18.1452 H   0  0  0  0  0  0  0  0  0  0  0  0
   -7.5671  -10.9403  -19.4906 H   0  0  0  0  0  0  0  0  0  0  0  0
   -6.3556  -10.8092  -18.1710 H   0  0  0  0  0  0  0  0  0  0  0  0
   -5.9639  -10.1976  -19.8139 H   0  0  0  0  0  0  0  0  0  0  0  0
   -6.5547   -6.7592  -15.9304 H   0  0  0  0  0  0  0  0  0  0  0  0
   -7.6405   -4.3775  -17.3283 H   0  0  0  0  0  0  0  0  0  0  0  0
   -8.3714   -5.3127  -14.5264 H   0  0  0  0  0  0  0  0  0  0  0  0
  -10.5713   -5.8626  -15.3834 H   0  0  0  0  0  0  0  0  0  0  0  0
   -9.2888   -6.8790  -16.1244 H   0  0  0  0  0  0  0  0  0  0  0  0
   -8.5147   -2.8436  -14.9497 H   0  0  0  0  0  0  0  0  0  0  0  0
  -10.1295   -3.5775  -14.6664 H   0  0  0  0  0  0  0  0  0  0  0  0
   -9.6133   -3.1595  -16.3353 H   0  0  0  0  0  0  0  0  0  0  0  0
  -11.0171   -6.2709  -17.7724 H   0  0  0  0  0  0  0  0  0  0  0  0
   -9.4332   -5.5433  -18.2063 H   0  0  0  0  0  0  0  0  0  0  0  0
  -10.7156   -4.5269  -17.4654 H   0  0  0  0  0  0  0  0  0  0  0  0
   -5.6705   -3.1526  -17.4402 H   0  0  0  0  0  0  0  0  0  0  0  0
   -4.1693   -2.9537  -14.8706 H   0  0  0  0  0  0  0  0  0  0  0  0
   -2.2736   -2.2992  -16.2645 H   0  0  0  0  0  0  0  0  0  0  0  0
   -3.3208   -2.3205  -17.7238 H   0  0  0  0  0  0  0  0  0  0  0  0
   -1.8133   -4.3219  -17.4903 H   0  0  0  0  0  0  0  0  0  0  0  0
   -3.5610   -4.7183  -17.6145 H   0  0  0  0  0  0  0  0  0  0  0  0
   -2.3514   -6.1277  -15.9166 H   0  0  0  0  0  0  0  0  0  0  0  0
   -3.6692   -5.1486  -15.1876 H   0  0  0  0  0  0  0  0  0  0  0  0
   -1.5905   -5.0028  -13.8389 H   0  0  0  0  0  0  0  0  0  0  0  0
   -2.0231   -3.4098  -14.5472 H   0  0  0  0  0  0  0  0  0  0  0  0
   -0.7053   -4.3888  -15.2762 H   0  0  0  0  0  0  0  0  0  0  0  0
   -4.2841   -0.3970  -17.4983 H   0  0  0  0  0  0  0  0  0  0  0  0
   -2.8320   -0.3239  -15.7219 H   0  0  0  0  0  0  0  0  0  0  0  0
   -5.9759   -1.6461  -14.0115 H   0  0  0  0  0  0  0  0  0  0  0  0
   -6.8296   -0.8575  -15.3812 H   0  0  0  0  0  0  0  0  0  0  0  0
   -5.7565    1.2995  -14.6330 H   0  0  0  0  0  0  0  0  0  0  0  0
   -7.6830   -0.1895  -12.8221 H   0  0  0  0  0  0  0  0  0  0  0  0
   -8.0875    0.7408  -14.3045 H   0  0  0  0  0  0  0  0  0  0  0  0
   -8.6193    2.3926  -12.8167 H   0  0  0  0  0  0  0  0  0  0  0  0
   -6.8468    2.6794  -12.7665 H   0  0  0  0  0  0  0  0  0  0  0  0
   -7.5169    2.3583  -10.4866 H   0  0  0  0  0  0  0  0  0  0  0  0
   -6.7252    0.8302  -11.0010 H   0  0  0  0  0  0  0  0  0  0  0  0
   -8.7456    0.3796   -9.6357 H   0  0  0  0  0  0  0  0  0  0  0  0
   -8.9595   -0.2217  -11.3148 H   0  0  0  0  0  0  0  0  0  0  0  0
   -9.7512    1.3065  -10.8003 H   0  0  0  0  0  0  0  0  0  0  0  0
   -4.5408    2.4384  -13.0383 H   0  0  0  0  0  0  0  0  0  0  0  0
   -3.5507    0.9924  -10.6855 H   0  0  0  0  0  0  0  0  0  0  0  0
   -1.6937    1.8856  -12.8956 H   0  0  0  0  0  0  0  0  0  0  0  0
   -2.0033    0.2112  -12.3233 H   0  0  0  0  0  0  0  0  0  0  0  0
    0.0115    0.7239  -11.3124 H   0  0  0  0  0  0  0  0  0  0  0  0
   -1.1828    1.0950  -10.0229 H   0  0  0  0  0  0  0  0  0  0  0  0
    0.7478    4.0365   -9.6189 H   0  0  0  0  0  0  0  0  0  0  0  0
    0.4034    2.4630   -8.9822 H   0  0  0  0  0  0  0  0  0  0  0  0
   -3.2886    2.3541   -9.0141 H   0  0  0  0  0  0  0  0  0  0  0  0
   -2.8779    5.2823   -9.5074 H   0  0  0  0  0  0  0  0  0  0  0  0
   -4.5515    4.9841   -7.2902 H   0  0  0  0  0  0  0  0  0  0  0  0
   -5.1293    3.7099   -8.4168 H   0  0  0  0  0  0  0  0  0  0  0  0
   -6.2534    5.2647   -9.5481 H   0  0  0  0  0  0  0  0  0  0  0  0
   -4.6923    6.0411   -9.9806 H   0  0  0  0  0  0  0  0  0  0  0  0
   -5.2679    6.8555   -7.3037 H   0  0  0  0  0  0  0  0  0  0  0  0
   -6.8068    7.0070   -8.2179 H   0  0  0  0  0  0  0  0  0  0  0  0
   -4.1944    8.1846   -9.1270 H   0  0  0  0  0  0  0  0  0  0  0  0
   -7.6754   10.2411   -9.3251 H   0  0  0  0  0  0  0  0  0  0  0  0
   -7.6736    8.7183   -8.3958 H   0  0  0  0  0  0  0  0  0  0  0  0
   -4.2709    9.8782  -10.4062 H   0  0  0  0  0  0  0  0  0  0  0  0
   -5.7464   10.8748  -10.5171 H   0  0  0  0  0  0  0  0  0  0  0  0
   -0.6716    5.2145   -6.7155 H   0  0  0  0  0  0  0  0  0  0  0  0
   -1.4175    6.2022   -7.9273 H   0  0  0  0  0  0  0  0  0  0  0  0
  1  2  2  0  0  0  0
  1  3  1  0  0  0  0
  1  4  1  0  0  0  0
  3 57  1  0  0  0  0
  3 58  1  0  0  0  0
  3 59  1  0  0  0  0
  4  5  1  0  0  0  0
  4 60  1  0  0  0  0
  5  6  1  0  0  0  0
  5  8  1  0  0  0  0
  5 61  1  6  0  0  0
  6  7  2  0  0  0  0
  6 11  1  0  0  0  0
  8  9  1  0  0  0  0
  8 10  1  0  0  0  0
  8 62  1  6  0  0  0
  9 63  1  0  0  0  0
 10 64  1  0  0  0  0
 10 65  1  0  0  0  0
 10 66  1  0  0  0  0
 11 12  1  0  0  0  0
 11 67  1  0  0  0  0
 12 13  1  0  0  0  0
 12 15  1  0  0  0  0
 12 68  1  6  0  0  0
 13 14  2  0  0  0  0
 13 19  1  0  0  0  0
 15 16  1  0  0  0  0
 15 17  1  0  0  0  0
 15 69  1  1  0  0  0
 16 18  1  0  0  0  0
 16 70  1  0  0  0  0
 16 71  1  0  0  0  0
 17 72  1  0  0  0  0
 17 73  1  0  0  0  0
 17 74  1  0  0  0  0
 18 75  1  0  0  0  0
 18 76  1  0  0  0  0
 18 77  1  0  0  0  0
 19 20  1  0  0  0  0
 19 78  1  0  0  0  0
 20 21  1  0  0  0  0
 20 25  1  0  0  0  0
 20 79  1  1  0  0  0
 21 22  1  0  0  0  0
 21 80  1  0  0  0  0
 21 81  1  0  0  0  0
 22 23  1  0  0  0  0
 22 82  1  0  0  0  0
 22 83  1  0  0  0  0
 23 24  1  0  0  0  0
 23 84  1  0  0  0  0
 23 85  1  0  0  0  0
 24 86  1  0  0  0  0
 24 87  1  0  0  0  0
 24 88  1  0  0  0  0
 25 26  1  0  0  0  0
 25 27  1  0  0  0  0
 25 28  1  0  0  0  0
 26 89  1  0  0  0  0
 27 90  1  0  0  0  0
 28 29  1  0  0  0  0
 28 91  1  0  0  0  0
 28 92  1  0  0  0  0
 29 30  1  0  0  0  0
 29 34  1  0  0  0  0
 29 93  1  6  0  0  0
 30 31  1  0  0  0  0
 30 94  1  0  0  0  0
 30 95  1  0  0  0  0
 31 32  1  0  0  0  0
 31 96  1  0  0  0  0
 31 97  1  0  0  0  0
 32 33  1  0  0  0  0
 32 98  1  0  0  0  0
 32 99  1  0  0  0  0
 33100  1  0  0  0  0
 33101  1  0  0  0  0
 33102  1  0  0  0  0
 34 35  2  0  0  0  0
 34 36  1  0  0  0  0
 36 37  1  0  0  0  0
 36103  1  0  0  0  0
 37 38  1  0  0  0  0
 37 40  1  0  0  0  0
 37104  1  1  0  0  0
 38 39  2  0  0  0  0
 38 45  1  0  0  0  0
 40 41  1  0  0  0  0
 40105  1  0  0  0  0
 40106  1  0  0  0  0
 41 42  1  0  0  0  0
 41107  1  0  0  0  0
 41108  1  0  0  0  0
 42 43  2  0  0  0  0
 42 44  1  0  0  0  0
 44109  1  0  0  0  0
 44110  1  0  0  0  0
 45 46  1  0  0  0  0
 45111  1  0  0  0  0
 46 47  1  0  0  0  0
 46 54  1  0  0  0  0
 46112  1  6  0  0  0
 47 48  1  0  0  0  0
 47113  1  0  0  0  0
 47114  1  0  0  0  0
 48 49  1  0  0  0  0
 48115  1  0  0  0  0
 48116  1  0  0  0  0
 49 50  1  0  0  0  0
 49117  1  0  0  0  0
 49118  1  0  0  0  0
 50 51  1  0  0  0  0
 50119  1  0  0  0  0
 51 52  1  0  0  0  0
 51 53  1  0  0  0  0
 52120  1  0  0  0  0
 52121  1  0  0  0  0
 53122  1  0  0  0  0
 53123  1  0  0  0  0
 54 55  2  0  0  0  0
 54 56  1  0  0  0  0
 56124  1  0  0  0  0
 56125  1  0  0  0  0
M  END
