3ddu_ligand
 OpenBabel08222323343D

 48 51  0  0  1  0  0  0  0  0999 V2000
   -4.8100   11.3780   34.5030 Cl  0  0  0  0  0  0  0  0  0  0  0  0
   -5.4620   11.7490   32.9340 C   0  0  0  0  0  0  0  0  0  0  0  0
   -6.8010   11.5350   32.8030 N   0  0  0  0  0  0  0  0  0  0  0  0
   -4.6870   12.1820   31.9420 C   0  0  1  0  0  0  0  0  0  0  0  0
   -5.2310   12.4510   30.7400 N   0  0  0  0  0  0  0  0  0  0  0  0
   -4.2930   12.9190   29.7590 C   0  0  2  0  0  0  0  0  0  0  0  0
   -4.1970   11.8140   28.7490 C   0  0  0  0  0  0  0  0  0  0  0  0
   -3.7610   12.2160   27.5240 N   0  0  0  0  0  0  0  0  0  0  0  0
   -3.6570   11.2790   26.4540 C   0  0  0  0  0  0  0  0  0  0  0  0
   -3.1790   12.1020   25.2780 C   0  0  0  0  0  0  0  0  0  0  0  0
   -2.4810   13.2930   25.9120 C   0  0  0  0  0  0  0  0  0  0  0  0
   -3.1980   13.5000   27.2200 C   0  0  0  0  0  0  0  0  0  0  0  0
   -4.4580   10.6690   29.0040 O   0  0  0  0  0  0  0  0  0  0  0  0
   -2.9980   13.0930   30.5550 C   0  0  0  0  0  0  0  0  0  0  0  0
   -3.2290   12.4590   31.9230 C   0  0  0  0  0  0  0  0  0  0  0  0
   -6.5480   12.2600   30.4680 C   0  0  0  0  0  0  0  0  0  0  0  0
   -7.1140   12.4610   29.4170 O   0  0  0  0  0  0  0  0  0  0  0  0
   -7.3280   11.7590   31.6470 C   0  0  2  0  0  0  0  0  0  0  0  0
   -8.6380   11.6270   31.2820 O   0  0  0  0  0  0  0  0  0  0  0  0
   -9.5340   11.5230   32.3770 C   0  0  0  0  0  0  0  0  0  0  0  0
   -9.9390   12.8310   32.9290 C   0  0  0  0  0  0  0  0  0  0  0  0
   -9.9960   13.9520   32.1430 C   0  0  0  0  0  0  0  0  0  0  0  0
  -10.3840   15.1530   32.6860 C   0  0  0  0  0  0  0  0  0  0  0  0
  -10.2750   12.8990   34.2550 C   0  0  0  0  0  0  0  0  0  0  0  0
  -10.6720   14.0950   34.7990 C   0  0  0  0  0  0  0  0  0  0  0  0
  -10.7170   15.2160   34.0170 C   0  0  0  0  0  0  0  0  0  0  0  0
  -11.1020   16.4030   34.5160 F   0  0  0  0  0  0  0  0  0  0  0  0
   -4.4959   11.1327   31.6730 H   0  0  0  0  0  0  0  0  0  0  0  0
   -4.6032   13.8623   29.2857 H   0  0  0  0  0  0  0  0  0  0  0  0
   -4.6350   10.8240   26.2387 H   0  0  0  0  0  0  0  0  0  0  0  0
   -2.9308   10.4894   26.6973 H   0  0  0  0  0  0  0  0  0  0  0  0
   -4.0286   12.4311   24.6617 H   0  0  0  0  0  0  0  0  0  0  0  0
   -2.4779   11.5245   24.6576 H   0  0  0  0  0  0  0  0  0  0  0  0
   -2.5741   14.1834   25.2728 H   0  0  0  0  0  0  0  0  0  0  0  0
   -1.4167   13.0739   26.0828 H   0  0  0  0  0  0  0  0  0  0  0  0
   -2.4936   13.8122   28.0051 H   0  0  0  0  0  0  0  0  0  0  0  0
   -3.9890   14.2571   27.1149 H   0  0  0  0  0  0  0  0  0  0  0  0
   -2.7645   14.1619   30.6683 H   0  0  0  0  0  0  0  0  0  0  0  0
   -2.1670   12.5887   30.0401 H   0  0  0  0  0  0  0  0  0  0  0  0
   -2.6517   11.5284   32.0263 H   0  0  0  0  0  0  0  0  0  0  0  0
   -2.9514   13.1541   32.7291 H   0  0  0  0  0  0  0  0  0  0  0  0
   -7.1261   10.7094   31.3872 H   0  0  0  0  0  0  0  0  0  0  0  0
   -9.0446   10.9445   33.1744 H   0  0  0  0  0  0  0  0  0  0  0  0
  -10.4366   10.9922   32.0399 H   0  0  0  0  0  0  0  0  0  0  0  0
   -9.7349   13.8913   31.0927 H   0  0  0  0  0  0  0  0  0  0  0  0
  -10.4269   16.0433   32.0691 H   0  0  0  0  0  0  0  0  0  0  0  0
  -10.2275   12.0101   34.8736 H   0  0  0  0  0  0  0  0  0  0  0  0
  -10.9491   14.1508   35.8455 H   0  0  0  0  0  0  0  0  0  0  0  0
  1  2  1  0  0  0  0
  2  3  2  0  0  0  0
  2  4  1  0  0  0  0
  3 18  1  0  0  0  0
  4  5  1  0  0  0  0
  4 15  1  0  0  0  0
  4 28  1  6  0  0  0
  5  6  1  0  0  0  0
  5 16  1  0  0  0  0
  6  7  1  0  0  0  0
  6 14  1  0  0  0  0
  6 29  1  6  0  0  0
  7  8  1  0  0  0  0
  7 13  2  0  0  0  0
  8  9  1  0  0  0  0
  8 12  1  0  0  0  0
  9 10  1  0  0  0  0
  9 30  1  0  0  0  0
  9 31  1  0  0  0  0
 10 11  1  0  0  0  0
 10 32  1  0  0  0  0
 10 33  1  0  0  0  0
 11 12  1  0  0  0  0
 11 34  1  0  0  0  0
 11 35  1  0  0  0  0
 12 36  1  0  0  0  0
 12 37  1  0  0  0  0
 14 15  1  0  0  0  0
 14 38  1  0  0  0  0
 14 39  1  0  0  0  0
 15 40  1  0  0  0  0
 15 41  1  0  0  0  0
 16 17  2  0  0  0  0
 16 18  1  0  0  0  0
 18 19  1  0  0  0  0
 18 42  1  6  0  0  0
 19 20  1  0  0  0  0
 20 21  1  0  0  0  0
 20 43  1  0  0  0  0
 20 44  1  0  0  0  0
 21 22  2  0  0  0  0
 21 24  1  0  0  0  0
 22 23  1  0  0  0  0
 22 45  1  0  0  0  0
 23 26  2  0  0  0  0
 23 46  1  0  0  0  0
 24 25  2  0  0  0  0
 24 47  1  0  0  0  0
 25 26  1  0  0  0  0
 25 48  1  0  0  0  0
 26 27  1  0  0  0  0
M  END
