3dei_ligand
 OpenBabel08222323343D

 41 43  0  0  1  0  0  0  0  0999 V2000
  -51.4730   12.6460  -19.3440 O   0  0  0  0  0  0  0  0  0  0  0  0
  -50.3280   13.1540  -19.6610 C   0  0  0  0  0  0  0  0  0  0  0  0
  -49.2350   13.0180  -18.8390 N   0  0  0  0  0  0  0  0  0  0  0  0
  -47.9970   13.5380  -19.1210 C   0  0  0  0  0  0  0  0  0  0  0  0
  -47.0160   13.3870  -18.3430 O   0  0  0  0  0  0  0  0  0  0  0  0
  -50.1450   13.8720  -20.8510 C   0  0  0  0  0  0  0  0  0  0  0  0
  -48.8680   14.4250  -21.1760 C   0  0  0  0  0  0  0  0  0  0  0  0
  -47.7780   14.2460  -20.2810 C   0  0  0  0  0  0  0  0  0  0  0  0
  -46.5900   14.6840  -20.4330 O   0  0  0  0  0  0  0  0  0  0  0  0
  -51.2680   14.0090  -21.6710 C   0  0  0  0  0  0  0  0  0  0  0  0
  -51.1030   14.7230  -22.8340 C   0  0  0  0  0  0  0  0  0  0  0  0
  -49.8550   15.2700  -23.1840 C   0  0  0  0  0  0  0  0  0  0  0  0
  -48.7140   15.1430  -22.3820 C   0  0  0  0  0  0  0  0  0  0  0  0
  -47.5130   15.7020  -22.8000 N   0  0  0  0  0  0  0  0  0  0  0  0
  -46.4380   14.9050  -23.0100 C   0  0  0  0  0  0  0  0  0  0  0  0
  -46.3770   13.7820  -22.4970 O   0  0  0  0  0  0  0  0  0  0  0  0
  -45.1880   15.2740  -23.7960 C   0  0  1  0  0  0  0  0  0  0  0  0
  -45.4510   16.1750  -24.9040 O   0  0  0  0  0  0  0  0  0  0  0  0
  -44.6810   17.4230  -25.2420 C   0  0  0  0  0  0  0  0  0  0  0  0
  -44.7680   17.8270  -26.4210 O   0  0  0  0  0  0  0  0  0  0  0  0
  -43.8460   18.2470  -24.2690 C   0  0  0  0  0  0  0  0  0  0  0  0
  -44.1300   15.5230  -22.7350 C   0  0  0  0  0  0  0  0  0  0  0  0
  -42.7440   15.5290  -23.0350 C   0  0  0  0  0  0  0  0  0  0  0  0
  -41.7660   15.7090  -22.0300 C   0  0  0  0  0  0  0  0  0  0  0  0
  -42.1890   15.8490  -20.6990 C   0  0  0  0  0  0  0  0  0  0  0  0
  -43.5640   15.8190  -20.3880 C   0  0  0  0  0  0  0  0  0  0  0  0
  -44.5220   15.6610  -21.3900 C   0  0  0  0  0  0  0  0  0  0  0  0
  -49.3487   12.5101  -17.9851 H   0  0  0  0  0  0  0  0  0  0  0  0
  -52.2236   13.5731  -21.4029 H   0  0  0  0  0  0  0  0  0  0  0  0
  -51.9507   14.8673  -23.4940 H   0  0  0  0  0  0  0  0  0  0  0  0
  -49.7728   15.8149  -24.1175 H   0  0  0  0  0  0  0  0  0  0  0  0
  -47.4423   16.6889  -22.9453 H   0  0  0  0  0  0  0  0  0  0  0  0
  -44.8550   14.3564  -24.3030 H   0  0  0  0  0  0  0  0  0  0  0  0
  -43.4008   19.1012  -24.8002 H   0  0  0  0  0  0  0  0  0  0  0  0
  -43.0463   17.6192  -23.8492 H   0  0  0  0  0  0  0  0  0  0  0  0
  -44.4882   18.6154  -23.4555 H   0  0  0  0  0  0  0  0  0  0  0  0
  -42.4259   15.3919  -24.0622 H   0  0  0  0  0  0  0  0  0  0  0  0
  -40.7121   15.7383  -22.2820 H   0  0  0  0  0  0  0  0  0  0  0  0
  -41.4580   15.9803  -19.9094 H   0  0  0  0  0  0  0  0  0  0  0  0
  -43.8811   15.9201  -19.3564 H   0  0  0  0  0  0  0  0  0  0  0  0
  -45.5745   15.6444  -21.1312 H   0  0  0  0  0  0  0  0  0  0  0  0
  1  2  2  0  0  0  0
  2  3  1  0  0  0  0
  2  6  1  0  0  0  0
  3  4  1  0  0  0  0
  3 28  1  0  0  0  0
  4  5  2  0  0  0  0
  4  8  1  0  0  0  0
  6  7  2  0  0  0  0
  6 10  1  0  0  0  0
  7  8  1  0  0  0  0
  7 13  1  0  0  0  0
  8  9  2  0  0  0  0
 10 11  2  0  0  0  0
 10 29  1  0  0  0  0
 11 12  1  0  0  0  0
 11 30  1  0  0  0  0
 12 13  2  0  0  0  0
 12 31  1  0  0  0  0
 13 14  1  0  0  0  0
 14 15  1  0  0  0  0
 14 32  1  0  0  0  0
 15 16  2  0  0  0  0
 15 17  1  0  0  0  0
 17 18  1  0  0  0  0
 17 22  1  0  0  0  0
 17 33  1  6  0  0  0
 18 19  1  0  0  0  0
 19 20  2  0  0  0  0
 19 21  1  0  0  0  0
 21 34  1  0  0  0  0
 21 35  1  0  0  0  0
 21 36  1  0  0  0  0
 22 23  2  0  0  0  0
 22 27  1  0  0  0  0
 23 24  1  0  0  0  0
 23 37  1  0  0  0  0
 24 25  2  0  0  0  0
 24 38  1  0  0  0  0
 25 26  1  0  0  0  0
 25 39  1  0  0  0  0
 26 27  2  0  0  0  0
 26 40  1  0  0  0  0
 27 41  1  0  0  0  0
M  END
