3dek_ligand
 OpenBabel08222323343D

 49 51  0  0  0  0  0  0  0  0999 V2000
  -39.9970    3.1170  -23.4600 F   0  0  0  0  0  0  0  0  0  0  0  0
  -39.3470    4.3050  -23.7120 C   0  0  0  0  0  0  0  0  0  0  0  0
  -40.3840    5.3480  -24.1280 C   0  0  0  0  0  0  0  0  0  0  0  0
  -40.7140    6.1770  -22.9990 O   0  0  0  0  0  0  0  0  0  0  0  0
  -40.9110    7.5450  -23.1120 C   0  0  0  0  0  0  0  0  0  0  0  0
  -41.1830    8.0900  -24.3730 C   0  0  0  0  0  0  0  0  0  0  0  0
  -41.3730    9.4640  -24.5350 C   0  0  0  0  0  0  0  0  0  0  0  0
  -41.2960   10.2890  -23.4120 C   0  0  0  0  0  0  0  0  0  0  0  0
  -40.8450    8.3730  -21.9890 C   0  0  0  0  0  0  0  0  0  0  0  0
  -41.0310    9.7610  -22.1350 C   0  0  0  0  0  0  0  0  0  0  0  0
  -40.9510   10.6090  -21.0610 N   0  0  0  0  0  0  0  0  0  0  0  0
  -41.2500   11.9260  -21.2030 C   0  0  0  0  0  0  0  0  0  0  0  0
  -41.3490   12.5330  -22.2740 O   0  0  0  0  0  0  0  0  0  0  0  0
  -41.4680   12.6910  -19.9270 C   0  0  0  0  0  0  0  0  0  0  0  0
  -42.4480   13.8390  -20.1000 C   0  0  0  0  0  0  0  0  0  0  0  0
  -42.0800   14.8330  -21.1850 C   0  0  0  0  0  0  0  0  0  0  0  0
  -40.9750   15.3680  -21.2260 O   0  0  0  0  0  0  0  0  0  0  0  0
  -43.0300   15.1040  -22.0820 N   0  0  0  0  0  0  0  0  0  0  0  0
  -44.2960   14.4790  -22.0680 C   0  0  0  0  0  0  0  0  0  0  0  0
  -44.7510   13.9510  -23.2870 C   0  0  0  0  0  0  0  0  0  0  0  0
  -45.9840   13.3120  -23.3530 C   0  0  0  0  0  0  0  0  0  0  0  0
  -46.7580   13.2060  -22.1930 C   0  0  0  0  0  0  0  0  0  0  0  0
  -46.3220   13.7180  -20.9640 C   0  0  0  0  0  0  0  0  0  0  0  0
  -47.1490   13.5770  -19.8420 C   0  0  0  0  0  0  0  0  0  0  0  0
  -46.8140   14.0200  -18.7150 O   0  0  0  0  0  0  0  0  0  0  0  0
  -45.0820   14.3590  -20.8940 C   0  0  0  0  0  0  0  0  0  0  0  0
  -47.9800   12.5650  -22.2740 C   0  0  0  0  0  0  0  0  0  0  0  0
  -48.3280   12.1180  -23.3880 O   0  0  0  0  0  0  0  0  0  0  0  0
  -48.7760   12.4370  -21.1920 N   0  0  0  0  0  0  0  0  0  0  0  0
  -48.3830   12.9340  -19.9880 C   0  0  0  0  0  0  0  0  0  0  0  0
  -49.1250   12.8000  -18.9780 O   0  0  0  0  0  0  0  0  0  0  0  0
  -38.6173    4.1637  -24.5229 H   0  0  0  0  0  0  0  0  0  0  0  0
  -38.8255    4.6422  -22.8041 H   0  0  0  0  0  0  0  0  0  0  0  0
  -41.2912    4.8397  -24.4865 H   0  0  0  0  0  0  0  0  0  0  0  0
  -39.9716    5.9735  -24.9334 H   0  0  0  0  0  0  0  0  0  0  0  0
  -41.2470    7.4363  -25.2353 H   0  0  0  0  0  0  0  0  0  0  0  0
  -41.5764    9.8818  -25.5144 H   0  0  0  0  0  0  0  0  0  0  0  0
  -41.4432   11.3569  -23.5257 H   0  0  0  0  0  0  0  0  0  0  0  0
  -40.6516    7.9492  -21.0102 H   0  0  0  0  0  0  0  0  0  0  0  0
  -40.6710   10.2560  -20.1683 H   0  0  0  0  0  0  0  0  0  0  0  0
  -40.5033   13.0980  -19.5899 H   0  0  0  0  0  0  0  0  0  0  0  0
  -41.8618   12.0022  -19.1651 H   0  0  0  0  0  0  0  0  0  0  0  0
  -42.5104   14.3822  -19.1455 H   0  0  0  0  0  0  0  0  0  0  0  0
  -43.4326   13.4142  -20.3452 H   0  0  0  0  0  0  0  0  0  0  0  0
  -42.8371   15.7786  -22.7946 H   0  0  0  0  0  0  0  0  0  0  0  0
  -44.1400   14.0417  -24.1778 H   0  0  0  0  0  0  0  0  0  0  0  0
  -46.3406   12.9015  -24.2908 H   0  0  0  0  0  0  0  0  0  0  0  0
  -44.7250   14.7601  -19.9523 H   0  0  0  0  0  0  0  0  0  0  0  0
  -49.6588   11.9747  -21.2755 H   0  0  0  0  0  0  0  0  0  0  0  0
  1  2  1  0  0  0  0
  2  3  1  0  0  0  0
  2 32  1  0  0  0  0
  2 33  1  0  0  0  0
  3  4  1  0  0  0  0
  3 34  1  0  0  0  0
  3 35  1  0  0  0  0
  4  5  1  0  0  0  0
  5  6  2  0  0  0  0
  5  9  1  0  0  0  0
  6  7  1  0  0  0  0
  6 36  1  0  0  0  0
  7  8  2  0  0  0  0
  7 37  1  0  0  0  0
  8 10  1  0  0  0  0
  8 38  1  0  0  0  0
  9 10  2  0  0  0  0
  9 39  1  0  0  0  0
 10 11  1  0  0  0  0
 11 12  1  0  0  0  0
 11 40  1  0  0  0  0
 12 13  2  0  0  0  0
 12 14  1  0  0  0  0
 14 15  1  0  0  0  0
 14 41  1  0  0  0  0
 14 42  1  0  0  0  0
 15 16  1  0  0  0  0
 15 43  1  0  0  0  0
 15 44  1  0  0  0  0
 16 17  2  0  0  0  0
 16 18  1  0  0  0  0
 18 19  1  0  0  0  0
 18 45  1  0  0  0  0
 19 20  2  0  0  0  0
 19 26  1  0  0  0  0
 20 21  1  0  0  0  0
 20 46  1  0  0  0  0
 21 22  2  0  0  0  0
 21 47  1  0  0  0  0
 22 23  1  0  0  0  0
 22 27  1  0  0  0  0
 23 24  1  0  0  0  0
 23 26  2  0  0  0  0
 24 25  2  0  0  0  0
 24 30  1  0  0  0  0
 26 48  1  0  0  0  0
 27 28  2  0  0  0  0
 27 29  1  0  0  0  0
 29 30  1  0  0  0  0
 29 49  1  0  0  0  0
 30 31  2  0  0  0  0
M  END
