3dga_ligand
 OpenBabel08222323343D

 29 29  0  0  1  0  0  0  0  0999 V2000
   25.6380    5.4370   60.6740 C   0  0  0  0  0  0  0  0  0  0  0  0
   25.8740    4.6760   61.7840 C   0  0  0  0  0  0  0  0  0  0  0  0
   27.0450    4.0240   61.9620 C   0  0  0  0  0  0  0  0  0  0  0  0
   28.0440    4.1090   61.0290 C   0  0  0  0  0  0  0  0  0  0  0  0
   27.8620    4.8730   59.8610 C   0  0  0  0  0  0  0  0  0  0  0  0
   26.6480    5.5320   59.7080 C   0  0  0  0  0  0  0  0  0  0  0  0
   29.4650    3.2390   61.3980 Cl  0  0  0  0  0  0  0  0  0  0  0  0
   24.3060    6.1480   60.5390 C   0  0  0  0  0  0  0  0  0  0  0  0
   24.2830    7.0750   59.5210 F   0  0  0  0  0  0  0  0  0  0  0  0
   23.2530    5.2400   60.3250 F   0  0  0  0  0  0  0  0  0  0  0  0
   24.0210    6.8620   61.7000 F   0  0  0  0  0  0  0  0  0  0  0  0
   28.8500    4.9850   58.8950 N   0  0  0  0  0  0  0  0  0  0  0  0
   29.8560    4.3890   58.1720 C   0  0  1  0  0  3  0  0  0  0  0  0
   30.2380    4.7140   56.9210 N   0  0  0  0  0  0  0  0  0  0  0  0
   29.6890    5.2210   55.8100 C   0  0  0  0  0  3  0  0  0  0  0  0
   29.9690    4.7480   54.5800 N   0  0  0  0  0  0  0  0  0  0  0  0
   30.5120    3.4340   58.7320 N   0  0  0  0  0  0  0  0  0  0  0  0
   28.8690    6.2020   55.9300 N   0  0  0  0  0  0  0  0  0  0  0  0
   25.1028    4.5929   62.5412 H   0  0  0  0  0  0  0  0  0  0  0  0
   27.1950    3.4267   62.8541 H   0  0  0  0  0  0  0  0  0  0  0  0
   26.4790    6.1327   58.8217 H   0  0  0  0  0  0  0  0  0  0  0  0
   28.8138    5.9618   58.5704 H   0  0  0  0  0  0  0  0  0  0  0  0
   31.2387    4.5156   56.7790 H   0  0  0  0  0  0  0  0  0  0  0  0
   29.5229    5.1689   53.7525 H   0  0  0  0  0  0  0  0  0  0  0  0
   30.6291    3.9655   54.4671 H   0  0  0  0  0  0  0  0  0  0  0  0
   30.2714    3.1354   59.6880 H   0  0  0  0  0  0  0  0  0  0  0  0
   31.2776    2.9682   58.2243 H   0  0  0  0  0  0  0  0  0  0  0  0
   28.6449    6.5747   56.8637 H   0  0  0  0  0  0  0  0  0  0  0  0
   28.4354    6.6162   55.0925 H   0  0  0  0  0  0  0  0  0  0  0  0
  1  2  2  0  0  0  0
  1  6  1  0  0  0  0
  1  8  1  0  0  0  0
  2  3  1  0  0  0  0
  2 19  1  0  0  0  0
  3  4  2  0  0  0  0
  3 20  1  0  0  0  0
  4  5  1  0  0  0  0
  4  7  1  0  0  0  0
  5  6  2  0  0  0  0
  5 12  1  0  0  0  0
  6 21  1  0  0  0  0
  8  9  1  0  0  0  0
  8 10  1  0  0  0  0
  8 11  1  0  0  0  0
 12 22  1  0  0  0  0
 13 12  1  1  0  0  0
 13 14  1  0  0  0  0
 13 17  1  0  0  0  0
 14 15  1  0  0  0  0
 14 23  1  0  0  0  0
 15 16  1  0  0  0  0
 15 18  1  0  0  0  0
 16 24  1  0  0  0  0
 16 25  1  0  0  0  0
 17 26  1  0  0  0  0
 17 27  1  0  0  0  0
 18 28  1  0  0  0  0
 18 29  1  0  0  0  0
M  END
