3diw_ligand
 OpenBabel08222323343D

150152  0  0  1  0  0  0  0  0999 V2000
    3.0740   16.2780   12.9080 N   0  3  0  0  0  0  0  0  0  0  0  0
    3.6440   15.9860   14.2530 C   0  0  2  0  0  0  0  0  0  0  0  0
    3.7180   14.4810   14.5150 C   0  0  0  0  0  0  0  0  0  0  0  0
    4.7490   13.9760   14.9600 O   0  0  0  0  0  0  0  0  0  0  0  0
    2.7970   16.6630   15.3380 C   0  0  0  0  0  0  0  0  0  0  0  0
    3.1520   16.2760   16.7740 C   0  0  0  0  0  0  0  0  0  0  0  0
    4.5330   16.7450   17.2050 C   0  0  0  0  0  0  0  0  0  0  0  0
    5.5510   16.3110   16.6620 O   0  0  0  0  0  0  0  0  0  0  0  0
    4.5710   17.6360   18.1890 N   0  0  0  0  0  0  0  0  0  0  0  0
    2.6280   13.7690   14.2350 N   0  0  0  0  0  0  0  0  0  0  0  0
    2.5850   12.3260   14.4600 C   0  0  2  0  0  0  0  0  0  0  0  0
    3.3540   11.5810   13.3700 C   0  0  0  0  0  0  0  0  0  0  0  0
    3.0210   11.6660   12.1850 O   0  0  0  0  0  0  0  0  0  0  0  0
    1.1300   11.8400   14.5130 C   0  0  0  0  0  0  0  0  0  0  0  0
    0.8780   10.4170   15.0250 C   0  0  0  0  0  0  0  0  0  0  0  0
    1.4510   10.2610   16.4270 C   0  0  0  0  0  0  0  0  0  0  0  0
   -0.6210   10.1320   15.0290 C   0  0  0  0  0  0  0  0  0  0  0  0
    4.3830   10.8510   13.7880 N   0  0  0  0  0  0  0  0  0  0  0  0
    5.2340   10.0950   12.8790 C   0  0  2  0  0  0  0  0  0  0  0  0
    4.6340    8.7790   12.3770 C   0  0  0  0  0  0  0  0  0  0  0  0
    3.7070    8.2250   12.9710 O   0  0  0  0  0  0  0  0  0  0  0  0
    6.5790    9.8230   13.5510 C   0  0  0  0  0  0  0  0  0  0  0  0
    5.1850    8.2940   11.2670 N   0  0  0  0  0  0  0  0  0  0  0  0
    4.7570    7.0440   10.6510 C   0  0  2  0  0  0  0  0  0  0  0  0
    5.2760    5.9310   11.5570 C   0  0  0  0  0  0  0  0  0  0  0  0
    6.4750    5.8830   11.8520 O   0  0  0  0  0  0  0  0  0  0  0  0
    5.3970    6.9020    9.2610 C   0  0  0  0  0  0  0  0  0  0  0  0
    4.6420    6.0320    8.2960 C   0  0  0  0  0  0  0  0  0  0  0  0
    3.6220    6.4140    7.4770 C   0  0  0  0  0  0  0  0  0  0  0  0
    4.8510    4.6360    8.0500 C   0  0  0  0  0  0  0  0  0  0  0  0
    3.1820    5.3460    6.7320 N   0  0  0  0  0  0  0  0  0  0  0  0
    3.9180    4.2410    7.0650 C   0  0  0  0  0  0  0  0  0  0  0  0
    5.7340    3.6790    8.5670 C   0  0  0  0  0  0  0  0  0  0  0  0
    3.8420    2.9280    6.5830 C   0  0  0  0  0  0  0  0  0  0  0  0
    5.6570    2.3680    8.0850 C   0  0  0  0  0  0  0  0  0  0  0  0
    4.7160    2.0100    7.1030 C   0  0  0  0  0  0  0  0  0  0  0  0
    4.3860    5.0590   12.0190 N   0  0  0  0  0  0  0  0  0  0  0  0
    4.8040    3.9420   12.8700 C   0  0  2  0  0  0  0  0  0  0  0  0
    3.8940    2.7440   12.6510 C   0  0  0  0  0  0  0  0  0  0  0  0
    2.7940    2.8890   12.1090 O   0  0  0  0  0  0  0  0  0  0  0  0
    4.8030    4.3290   14.3610 C   0  0  0  0  0  0  0  0  0  0  0  0
    3.4280    4.5690   14.9420 C   0  0  0  0  0  0  0  0  0  0  0  0
    2.8640    5.8420   14.9350 C   0  0  0  0  0  0  0  0  0  0  0  0
    2.7120    3.5230   15.5250 C   0  0  0  0  0  0  0  0  0  0  0  0
    1.6020    6.0750   15.5070 C   0  0  0  0  0  0  0  0  0  0  0  0
    1.4480    3.7400   16.0990 C   0  0  0  0  0  0  0  0  0  0  0  0
    0.8950    5.0160   16.0910 C   0  0  0  0  0  0  0  0  0  0  0  0
    4.3470    1.5640   13.0750 N   0  0  0  0  0  0  0  0  0  0  0  0
    3.5510    0.3610   12.8960 C   0  0  2  0  0  0  0  0  0  0  0  0
    3.1420   -0.3190   14.1990 C   0  0  0  0  0  0  0  0  0  0  0  0
    3.7150   -0.0670   15.2600 O   0  0  0  0  0  0  0  0  0  0  0  0
    4.2850   -0.6320   11.9780 C   0  0  0  0  0  0  0  0  0  0  0  0
    5.5820   -1.1560   12.5780 C   0  0  0  0  0  0  0  0  0  0  0  0
    6.0200   -0.6460   13.6330 O   0  5  0  0  0  0  0  0  0  0  0  0
    6.1690   -2.0850   11.9800 O   0  0  0  0  0  0  0  0  0  0  0  0
    2.1360   -1.1810   14.0950 N   0  0  0  0  0  0  0  0  0  0  0  0
    1.6000   -1.9140   15.2350 C   0  0  2  0  0  0  0  0  0  0  0  0
    1.4120   -3.3820   14.8560 C   0  0  0  0  0  0  0  0  0  0  0  0
    1.0380   -3.6930   13.7190 O   0  0  0  0  0  0  0  0  0  0  0  0
    0.2380   -1.3090   15.6830 C   0  0  2  0  0  0  0  0  0  0  0  0
   -0.6630   -1.2780   14.5730 O   0  0  0  0  0  0  0  0  0  0  0  0
    0.4210    0.1160   16.1750 C   0  0  0  0  0  0  0  0  0  0  0  0
    1.6680   -4.2770   15.8100 N   0  0  0  0  0  0  0  0  0  0  0  0
    1.5530   -5.7140   15.5760 C   0  0  2  0  0  0  0  0  0  0  0  0
    0.1350   -6.2400   15.7920 C   0  0  0  0  0  0  0  0  0  0  0  0
   -0.5490   -5.8460   16.7380 O   0  0  0  0  0  0  0  0  0  0  0  0
    2.5270   -6.4790   16.4790 C   0  0  0  0  0  0  0  0  0  0  0  0
    3.9400   -5.9220   16.4190 C   0  0  0  0  0  0  0  0  0  0  0  0
    4.4180   -5.6140   15.3050 O   0  5  0  0  0  0  0  0  0  0  0  0
    4.5780   -5.8010   17.4900 O   0  0  0  0  0  0  0  0  0  0  0  0
   -0.2920   -7.1370   14.9060 N   0  0  0  0  0  0  0  0  0  0  0  0
   -1.6310   -7.7230   14.9510 C   0  0  2  0  0  0  0  0  0  0  0  0
   -1.5750   -9.2450   14.8700 C   0  0  0  0  0  0  0  0  0  0  0  0
   -2.5650   -9.8940   15.2670 O   0  5  0  0  0  0  0  0  0  0  0  0
   -2.4800   -7.1830   13.7950 C   0  0  0  0  0  0  0  0  0  0  0  0
   -3.1980   -5.8330   13.9320 C   0  0  0  0  0  0  0  0  0  0  0  0
   -2.2520   -4.7550   14.4250 C   0  0  0  0  0  0  0  0  0  0  0  0
   -3.7760   -5.4510   12.5810 C   0  0  0  0  0  0  0  0  0  0  0  0
   -0.5510   -9.7690   14.3840 O   0  0  0  0  0  0  0  0  0  0  0  0
    3.0391   17.2755   12.7672 H   0  0  0  0  0  0  0  0  0  0  0  0
    2.1426   15.8974   12.8479 H   0  0  0  0  0  0  0  0  0  0  0  0
    3.6547   15.8588   12.1987 H   0  0  0  0  0  0  0  0  0  0  0  0
    4.6638   16.3963   14.2943 H   0  0  0  0  0  0  0  0  0  0  0  0
    1.7440   16.3968   15.1638 H   0  0  0  0  0  0  0  0  0  0  0  0
    2.9215   17.7513   15.2378 H   0  0  0  0  0  0  0  0  0  0  0  0
    3.1145   15.1799   16.8586 H   0  0  0  0  0  0  0  0  0  0  0  0
    2.4066   16.7216   17.4491 H   0  0  0  0  0  0  0  0  0  0  0  0
    5.4502   17.9823   18.5162 H   0  0  0  0  0  0  0  0  0  0  0  0
    3.7204   17.9606   18.6027 H   0  0  0  0  0  0  0  0  0  0  0  0
    1.8229   14.2312   13.8633 H   0  0  0  0  0  0  0  0  0  0  0  0
    3.0604   12.1113   15.4284 H   0  0  0  0  0  0  0  0  0  0  0  0
    0.7252   11.8994   13.4919 H   0  0  0  0  0  0  0  0  0  0  0  0
    0.5760   12.5288   15.1677 H   0  0  0  0  0  0  0  0  0  0  0  0
    1.3761    9.7009   14.3549 H   0  0  0  0  0  0  0  0  0  0  0  0
    1.2662    9.2381   16.7869 H   0  0  0  0  0  0  0  0  0  0  0  0
    0.9666   10.9807   17.1033 H   0  0  0  0  0  0  0  0  0  0  0  0
    2.5341   10.4514   16.4037 H   0  0  0  0  0  0  0  0  0  0  0  0
   -1.0191   10.2488   14.0103 H   0  0  0  0  0  0  0  0  0  0  0  0
   -1.1268   10.8385   15.7035 H   0  0  0  0  0  0  0  0  0  0  0  0
   -0.7977    9.1032   15.3760 H   0  0  0  0  0  0  0  0  0  0  0  0
    4.5814   10.8194   14.7676 H   0  0  0  0  0  0  0  0  0  0  0  0
    5.4112   10.7281   11.9971 H   0  0  0  0  0  0  0  0  0  0  0  0
    7.2226    9.2521   12.8655 H   0  0  0  0  0  0  0  0  0  0  0  0
    6.4183    9.2428   14.4716 H   0  0  0  0  0  0  0  0  0  0  0  0
    7.0645   10.7782   13.7996 H   0  0  0  0  0  0  0  0  0  0  0  0
    5.9255    8.8099   10.8363 H   0  0  0  0  0  0  0  0  0  0  0  0
    3.6608    7.0046   10.5690 H   0  0  0  0  0  0  0  0  0  0  0  0
    6.4019    6.4739    9.3909 H   0  0  0  0  0  0  0  0  0  0  0  0
    5.4805    7.9064    8.8203 H   0  0  0  0  0  0  0  0  0  0  0  0
    3.2136    7.4220    7.4208 H   0  0  0  0  0  0  0  0  0  0  0  0
    2.4225    5.3728    6.0367 H   0  0  0  0  0  0  0  0  0  0  0  0
    6.4613    3.9486    9.3243 H   0  0  0  0  0  0  0  0  0  0  0  0
    3.1181    2.6484    5.8262 H   0  0  0  0  0  0  0  0  0  0  0  0
    6.3335    1.6160    8.4747 H   0  0  0  0  0  0  0  0  0  0  0  0
    4.6815    0.9857    6.7499 H   0  0  0  0  0  0  0  0  0  0  0  0
    3.4202    5.1664   11.7832 H   0  0  0  0  0  0  0  0  0  0  0  0
    5.8290    3.6600   12.5873 H   0  0  0  0  0  0  0  0  0  0  0  0
    5.3917    5.2508   14.4778 H   0  0  0  0  0  0  0  0  0  0  0  0
    5.2791    3.5156   14.9281 H   0  0  0  0  0  0  0  0  0  0  0  0
    3.4059    6.6644   14.4821 H   0  0  0  0  0  0  0  0  0  0  0  0
    3.1380    2.5263   15.5353 H   0  0  0  0  0  0  0  0  0  0  0  0
    1.1764    7.0719   15.4964 H   0  0  0  0  0  0  0  0  0  0  0  0
    0.9055    2.9152   16.5468 H   0  0  0  0  0  0  0  0  0  0  0  0
   -0.0786    5.1903   16.5346 H   0  0  0  0  0  0  0  0  0  0  0  0
    5.2409    1.5061   13.5194 H   0  0  0  0  0  0  0  0  0  0  0  0
    2.6233    0.6630   12.3879 H   0  0  0  0  0  0  0  0  0  0  0  0
    4.5180   -0.1253   11.0299 H   0  0  0  0  0  0  0  0  0  0  0  0
    3.6196   -1.4860   11.7835 H   0  0  0  0  0  0  0  0  0  0  0  0
    1.7286   -1.3335   13.1946 H   0  0  0  0  0  0  0  0  0  0  0  0
    2.3124   -1.8459   16.0704 H   0  0  0  0  0  0  0  0  0  0  0  0
   -0.1852   -1.9261   16.4892 H   0  0  0  0  0  0  0  0  0  0  0  0
   -0.2925   -0.7434   13.8807 H   0  0  0  0  0  0  0  0  0  0  0  0
   -0.5519    0.5242   16.4862 H   0  0  0  0  0  0  0  0  0  0  0  0
    0.8353    0.7335   15.3644 H   0  0  0  0  0  0  0  0  0  0  0  0
    1.1121    0.1226   17.0308 H   0  0  0  0  0  0  0  0  0  0  0  0
    1.9476   -3.9544   16.7143 H   0  0  0  0  0  0  0  0  0  0  0  0
    1.8280   -5.9056   14.5283 H   0  0  0  0  0  0  0  0  0  0  0  0
    2.5496   -7.5317   16.1608 H   0  0  0  0  0  0  0  0  0  0  0  0
    2.1678   -6.4172   17.5168 H   0  0  0  0  0  0  0  0  0  0  0  0
    0.3305   -7.4228   14.1774 H   0  0  0  0  0  0  0  0  0  0  0  0
   -2.1040   -7.4393   15.9027 H   0  0  0  0  0  0  0  0  0  0  0  0
   -3.2562   -7.9358   13.5931 H   0  0  0  0  0  0  0  0  0  0  0  0
   -1.8136   -7.1006   12.9237 H   0  0  0  0  0  0  0  0  0  0  0  0
   -4.0183   -5.9376   14.6574 H   0  0  0  0  0  0  0  0  0  0  0  0
   -2.7952   -3.8025   14.5124 H   0  0  0  0  0  0  0  0  0  0  0  0
   -1.4230   -4.6401   13.7112 H   0  0  0  0  0  0  0  0  0  0  0  0
   -1.8517   -5.0404   15.4090 H   0  0  0  0  0  0  0  0  0  0  0  0
   -4.4591   -6.2419   12.2376 H   0  0  0  0  0  0  0  0  0  0  0  0
   -2.9596   -5.3304   11.8537 H   0  0  0  0  0  0  0  0  0  0  0  0
   -4.3281   -4.5041   12.6729 H   0  0  0  0  0  0  0  0  0  0  0  0
  1  2  1  0  0  0  0
  1 80  1  0  0  0  0
  1 81  1  0  0  0  0
  1 82  1  0  0  0  0
  2  3  1  0  0  0  0
  2  5  1  0  0  0  0
  2 83  1  1  0  0  0
  3  4  2  0  0  0  0
  3 10  1  0  0  0  0
  5  6  1  0  0  0  0
  5 84  1  0  0  0  0
  5 85  1  0  0  0  0
  6  7  1  0  0  0  0
  6 86  1  0  0  0  0
  6 87  1  0  0  0  0
  7  8  2  0  0  0  0
  7  9  1  0  0  0  0
  9 88  1  0  0  0  0
  9 89  1  0  0  0  0
 10 11  1  0  0  0  0
 10 90  1  0  0  0  0
 11 12  1  0  0  0  0
 11 14  1  0  0  0  0
 11 91  1  1  0  0  0
 12 13  2  0  0  0  0
 12 18  1  0  0  0  0
 14 15  1  0  0  0  0
 14 92  1  0  0  0  0
 14 93  1  0  0  0  0
 15 16  1  0  0  0  0
 15 17  1  0  0  0  0
 15 94  1  0  0  0  0
 16 95  1  0  0  0  0
 16 96  1  0  0  0  0
 16 97  1  0  0  0  0
 17 98  1  0  0  0  0
 17 99  1  0  0  0  0
 17100  1  0  0  0  0
 18 19  1  0  0  0  0
 18101  1  0  0  0  0
 19 20  1  0  0  0  0
 19 22  1  0  0  0  0
 19102  1  6  0  0  0
 20 21  2  0  0  0  0
 20 23  1  0  0  0  0
 22103  1  0  0  0  0
 22104  1  0  0  0  0
 22105  1  0  0  0  0
 23 24  1  0  0  0  0
 23106  1  0  0  0  0
 24 25  1  0  0  0  0
 24 27  1  0  0  0  0
 24107  1  6  0  0  0
 25 26  2  0  0  0  0
 25 37  1  0  0  0  0
 27 28  1  0  0  0  0
 27108  1  0  0  0  0
 27109  1  0  0  0  0
 28 29  2  0  0  0  0
 28 30  1  0  0  0  0
 29 31  1  0  0  0  0
 29110  1  0  0  0  0
 30 32  2  0  0  0  0
 30 33  1  0  0  0  0
 31 32  1  0  0  0  0
 31111  1  0  0  0  0
 32 34  1  0  0  0  0
 33 35  2  0  0  0  0
 33112  1  0  0  0  0
 34 36  2  0  0  0  0
 34113  1  0  0  0  0
 35 36  1  0  0  0  0
 35114  1  0  0  0  0
 36115  1  0  0  0  0
 37 38  1  0  0  0  0
 37116  1  0  0  0  0
 38 39  1  0  0  0  0
 38 41  1  0  0  0  0
 38117  1  6  0  0  0
 39 40  2  0  0  0  0
 39 48  1  0  0  0  0
 41 42  1  0  0  0  0
 41118  1  0  0  0  0
 41119  1  0  0  0  0
 42 43  2  0  0  0  0
 42 44  1  0  0  0  0
 43 45  1  0  0  0  0
 43120  1  0  0  0  0
 44 46  2  0  0  0  0
 44121  1  0  0  0  0
 45 47  2  0  0  0  0
 45122  1  0  0  0  0
 46 47  1  0  0  0  0
 46123  1  0  0  0  0
 47124  1  0  0  0  0
 48 49  1  0  0  0  0
 48125  1  0  0  0  0
 49 50  1  0  0  0  0
 49 52  1  0  0  0  0
 49126  1  6  0  0  0
 50 51  2  0  0  0  0
 50 56  1  0  0  0  0
 52 53  1  0  0  0  0
 52127  1  0  0  0  0
 52128  1  0  0  0  0
 53 54  1  0  0  0  0
 53 55  2  0  0  0  0
 56 57  1  0  0  0  0
 56129  1  0  0  0  0
 57 58  1  0  0  0  0
 57 60  1  0  0  0  0
 57130  1  1  0  0  0
 58 59  2  0  0  0  0
 58 63  1  0  0  0  0
 60 61  1  0  0  0  0
 60 62  1  0  0  0  0
 60131  1  1  0  0  0
 61132  1  0  0  0  0
 62133  1  0  0  0  0
 62134  1  0  0  0  0
 62135  1  0  0  0  0
 63 64  1  0  0  0  0
 63136  1  0  0  0  0
 64 65  1  0  0  0  0
 64 67  1  0  0  0  0
 64137  1  6  0  0  0
 65 66  2  0  0  0  0
 65 71  1  0  0  0  0
 67 68  1  0  0  0  0
 67138  1  0  0  0  0
 67139  1  0  0  0  0
 68 69  1  0  0  0  0
 68 70  2  0  0  0  0
 71 72  1  0  0  0  0
 71140  1  0  0  0  0
 72 73  1  0  0  0  0
 72 75  1  0  0  0  0
 72141  1  1  0  0  0
 73 74  1  0  0  0  0
 73 79  2  0  0  0  0
 75 76  1  0  0  0  0
 75142  1  0  0  0  0
 75143  1  0  0  0  0
 76 77  1  0  0  0  0
 76 78  1  0  0  0  0
 76144  1  0  0  0  0
 77145  1  0  0  0  0
 77146  1  0  0  0  0
 77147  1  0  0  0  0
 78148  1  0  0  0  0
 78149  1  0  0  0  0
 78150  1  0  0  0  0
M  CHG  4   1   1  54  -1  69  -1  74  -1
M  END
