3djf_ligand
 OpenBabel08222323343D

 30 32  0  0  1  0  0  0  0  0999 V2000
  -19.1310   -2.7640   24.5600 N   0  0  0  0  0  0  0  0  0  0  0  0
  -19.4950   -2.6900   25.8370 C   0  0  2  0  0  3  0  0  0  0  0  0
  -18.6820   -3.1690   26.7920 N   0  0  0  0  0  0  0  0  0  0  0  0
  -19.0240   -3.1080   28.0880 C   0  0  0  0  0  0  0  0  0  0  0  0
  -18.3870   -3.5160   29.2510 C   0  0  0  0  0  0  0  0  0  0  0  0
  -17.0200   -4.1970   29.3430 C   0  0  0  0  0  0  0  0  0  0  0  0
  -15.9480   -3.1500   29.6520 C   0  0  0  0  0  0  0  0  0  0  0  0
  -14.6340   -3.5370   29.8720 C   0  0  0  0  0  0  0  0  0  0  0  0
  -13.6950   -2.5540   30.1490 C   0  0  0  0  0  0  0  0  0  0  0  0
  -14.0990   -1.2240   30.1970 C   0  0  0  0  0  0  0  0  0  0  0  0
  -15.3610   -0.8910   29.9830 N   0  0  0  0  0  0  0  0  0  0  0  0
  -16.2810   -1.8020   29.7160 C   0  0  0  0  0  0  0  0  0  0  0  0
  -19.1850   -3.2080   30.2720 C   0  0  0  0  0  0  0  0  0  0  0  0
  -20.2930   -2.6250   29.8100 N   0  0  0  0  0  0  0  0  0  0  0  0
  -20.2280   -2.5480   28.4830 C   0  0  0  0  0  0  0  0  0  0  0  0
  -21.0950   -2.0430   27.5240 C   0  0  0  0  0  0  0  0  0  0  0  0
  -22.1690   -1.5420   27.8530 O   0  0  0  0  0  0  0  0  0  0  0  0
  -20.7260   -2.1140   26.1780 N   0  0  0  0  0  0  0  0  0  0  0  0
  -18.2268   -3.1868   24.3059 H   0  0  0  0  0  0  0  0  0  0  0  0
  -19.7533   -2.3985   23.8251 H   0  0  0  0  0  0  0  0  0  0  0  0
  -17.7807   -3.5903   26.5254 H   0  0  0  0  0  0  0  0  0  0  0  0
  -16.7891   -4.6865   28.3854 H   0  0  0  0  0  0  0  0  0  0  0  0
  -17.0387   -4.9500   30.1446 H   0  0  0  0  0  0  0  0  0  0  0  0
  -14.3480   -4.5817   29.8285 H   0  0  0  0  0  0  0  0  0  0  0  0
  -12.6590   -2.8193   30.3259 H   0  0  0  0  0  0  0  0  0  0  0  0
  -13.3705   -0.4507   30.4125 H   0  0  0  0  0  0  0  0  0  0  0  0
  -17.3063   -1.4944   29.5451 H   0  0  0  0  0  0  0  0  0  0  0  0
  -18.9671   -3.4019   31.3212 H   0  0  0  0  0  0  0  0  0  0  0  0
  -21.0752   -2.2878   30.3892 H   0  0  0  0  0  0  0  0  0  0  0  0
  -21.3328   -1.7582   25.4672 H   0  0  0  0  0  0  0  0  0  0  0  0
  1 19  1  0  0  0  0
  1 20  1  0  0  0  0
  2  1  1  6  0  0  0
  2  3  1  0  0  0  0
  2 18  1  0  0  0  0
  3  4  1  0  0  0  0
  3 21  1  0  0  0  0
  4  5  1  0  0  0  0
  4 15  2  0  0  0  0
  5  6  1  0  0  0  0
  5 13  2  0  0  0  0
  6  7  1  0  0  0  0
  6 22  1  0  0  0  0
  6 23  1  0  0  0  0
  7  8  2  0  0  0  0
  7 12  1  0  0  0  0
  8  9  1  0  0  0  0
  8 24  1  0  0  0  0
  9 10  2  0  0  0  0
  9 25  1  0  0  0  0
 10 11  1  0  0  0  0
 10 26  1  0  0  0  0
 11 12  2  0  0  0  0
 12 27  1  0  0  0  0
 13 14  1  0  0  0  0
 13 28  1  0  0  0  0
 14 15  1  0  0  0  0
 14 29  1  0  0  0  0
 15 16  1  0  0  0  0
 16 17  2  0  0  0  0
 16 18  1  0  0  0  0
 18 30  1  0  0  0  0
M  END
