3dnj_ligand
 OpenBabel08222323343D

 53 53  0  0  1  0  0  0  0  0999 V2000
   17.4910   -6.0820   12.8190 N   0  3  0  0  0  0  0  0  0  0  0  0
   17.9170   -6.6820   11.5350 C   0  0  2  0  0  0  0  0  0  0  0  0
   19.0640   -5.8790   10.9580 C   0  0  0  0  0  0  0  0  0  0  0  0
   19.3230   -4.7680   11.3980 O   0  0  0  0  0  0  0  0  0  0  0  0
   16.7510   -6.7180   10.5660 C   0  0  0  0  0  0  0  0  0  0  0  0
   15.6270   -7.6220   11.0200 C   0  0  0  0  0  0  0  0  0  0  0  0
   14.3150   -7.1610   11.0520 C   0  0  0  0  0  0  0  0  0  0  0  0
   15.8800   -8.9170   11.4350 C   0  0  0  0  0  0  0  0  0  0  0  0
   13.2790   -7.9880   11.4450 C   0  0  0  0  0  0  0  0  0  0  0  0
   14.8490   -9.7540   11.8410 C   0  0  0  0  0  0  0  0  0  0  0  0
   13.5510   -9.2740   11.8530 C   0  0  0  0  0  0  0  0  0  0  0  0
   12.4990  -10.0920   12.2120 O   0  0  0  0  0  0  0  0  0  0  0  0
   19.7530   -6.4510    9.9770 N   0  0  0  0  0  0  0  0  0  0  0  0
   20.9140   -5.8140    9.3560 C   0  0  2  0  0  0  0  0  0  0  0  0
   20.5550   -4.9100    8.2100 C   0  0  0  0  0  0  0  0  0  0  0  0
   19.7180   -5.2330    7.3860 O   0  0  0  0  0  0  0  0  0  0  0  0
   21.8730   -6.8660    8.8190 C   0  0  0  0  0  0  0  0  0  0  0  0
   22.8980   -7.2310    9.8640 C   0  0  0  0  0  0  0  0  0  0  0  0
   22.1440   -7.5820   11.0760 C   0  0  0  0  0  0  0  0  0  0  0  0
   23.8450   -8.3530    9.4060 C   0  0  0  0  0  0  0  0  0  0  0  0
   21.2540   -3.7830    8.1570 N   0  0  0  0  0  0  0  0  0  0  0  0
   21.1510   -2.8140    7.0640 C   0  0  2  0  0  0  0  0  0  0  0  0
   19.8980   -1.9510    7.1630 C   0  0  0  0  0  0  0  0  0  0  0  0
   19.5551   -1.4367    8.2610 O   0  5  0  0  0  0  0  0  0  0  0  0
   21.2130   -3.5140    5.7140 C   0  0  0  0  0  0  0  0  0  0  0  0
   19.1974   -1.7498    6.1352 O   0  0  0  0  0  0  0  0  0  0  0  0
   16.7275   -6.6167   13.2028 H   0  0  0  0  0  0  0  0  0  0  0  0
   17.1911   -5.1324   12.6630 H   0  0  0  0  0  0  0  0  0  0  0  0
   18.2641   -6.0883   13.4657 H   0  0  0  0  0  0  0  0  0  0  0  0
   18.2587   -7.7117   11.7165 H   0  0  0  0  0  0  0  0  0  0  0  0
   17.1164   -7.0765    9.5924 H   0  0  0  0  0  0  0  0  0  0  0  0
   16.3560   -5.6973   10.4562 H   0  0  0  0  0  0  0  0  0  0  0  0
   14.1016   -6.1379   10.7645 H   0  0  0  0  0  0  0  0  0  0  0  0
   16.8998   -9.2845   11.4434 H   0  0  0  0  0  0  0  0  0  0  0  0
   12.2576   -7.6253   11.4318 H   0  0  0  0  0  0  0  0  0  0  0  0
   15.0587  -10.7730   12.1454 H   0  0  0  0  0  0  0  0  0  0  0  0
   12.6303  -10.4036   13.0997 H   0  0  0  0  0  0  0  0  0  0  0  0
   19.4669   -7.3519    9.6504 H   0  0  0  0  0  0  0  0  0  0  0  0
   21.4261   -5.2178   10.1256 H   0  0  0  0  0  0  0  0  0  0  0  0
   22.3870   -6.4678    7.9318 H   0  0  0  0  0  0  0  0  0  0  0  0
   21.3043   -7.7654    8.5405 H   0  0  0  0  0  0  0  0  0  0  0  0
   23.5152   -6.3456   10.0766 H   0  0  0  0  0  0  0  0  0  0  0  0
   22.8454   -7.8586   11.8769 H   0  0  0  0  0  0  0  0  0  0  0  0
   21.4793   -8.4317   10.8611 H   0  0  0  0  0  0  0  0  0  0  0  0
   21.5431   -6.7184   11.3970 H   0  0  0  0  0  0  0  0  0  0  0  0
   24.3796   -8.0342    8.4990 H   0  0  0  0  0  0  0  0  0  0  0  0
   23.2612   -9.2594    9.1879 H   0  0  0  0  0  0  0  0  0  0  0  0
   24.5716   -8.5679   10.2034 H   0  0  0  0  0  0  0  0  0  0  0  0
   21.8866   -3.5844    8.9056 H   0  0  0  0  0  0  0  0  0  0  0  0
   22.0200   -2.1434    7.1355 H   0  0  0  0  0  0  0  0  0  0  0  0
   21.1339   -2.7675    4.9100 H   0  0  0  0  0  0  0  0  0  0  0  0
   20.3813   -4.2293    5.6333 H   0  0  0  0  0  0  0  0  0  0  0  0
   22.1687   -4.0510    5.6229 H   0  0  0  0  0  0  0  0  0  0  0  0
  1  2  1  0  0  0  0
  1 27  1  0  0  0  0
  1 28  1  0  0  0  0
  1 29  1  0  0  0  0
  2  3  1  0  0  0  0
  2  5  1  0  0  0  0
  2 30  1  1  0  0  0
  3  4  2  0  0  0  0
  3 13  1  0  0  0  0
  5  6  1  0  0  0  0
  5 31  1  0  0  0  0
  5 32  1  0  0  0  0
  6  7  2  0  0  0  0
  6  8  1  0  0  0  0
  7  9  1  0  0  0  0
  7 33  1  0  0  0  0
  8 10  2  0  0  0  0
  8 34  1  0  0  0  0
  9 11  2  0  0  0  0
  9 35  1  0  0  0  0
 10 11  1  0  0  0  0
 10 36  1  0  0  0  0
 11 12  1  0  0  0  0
 12 37  1  0  0  0  0
 13 14  1  0  0  0  0
 13 38  1  0  0  0  0
 14 15  1  0  0  0  0
 14 17  1  0  0  0  0
 14 39  1  1  0  0  0
 15 16  2  0  0  0  0
 15 21  1  0  0  0  0
 17 18  1  0  0  0  0
 17 40  1  0  0  0  0
 17 41  1  0  0  0  0
 18 19  1  0  0  0  0
 18 20  1  0  0  0  0
 18 42  1  0  0  0  0
 19 43  1  0  0  0  0
 19 44  1  0  0  0  0
 19 45  1  0  0  0  0
 20 46  1  0  0  0  0
 20 47  1  0  0  0  0
 20 48  1  0  0  0  0
 21 22  1  0  0  0  0
 21 49  1  0  0  0  0
 22 23  1  0  0  0  0
 22 25  1  0  0  0  0
 22 50  1  1  0  0  0
 23 24  1  0  0  0  0
 23 26  2  0  0  0  0
 25 51  1  0  0  0  0
 25 52  1  0  0  0  0
 25 53  1  0  0  0  0
M  CHG  2   1   1  24  -1
M  END
