3dnt_ligand
 OpenBabel08222323343D

 43 45  0  0  1  0  0  0  0  0999 V2000
   -4.4040   12.0620   48.3560 P   0  0  0  0  0  0  0  0  0  0  0  0
   -5.8210   11.6230   48.2870 O   0  0  0  0  0  1  0  0  0  0  0  0
   -3.5360   11.4430   47.3560 O   0  0  0  0  0  1  0  0  0  0  0  0
   -4.3480   13.5790   48.2820 O   0  0  0  0  0  0  0  0  0  0  0  0
   -2.9320   12.6450   50.8000 P   0  0  1  0  0  0  0  0  0  0  0  0
   -1.4770   12.6360   50.6150 O   0  0  0  0  0  1  0  0  0  0  0  0
   -3.8390   13.3630   51.6890 O   0  0  0  0  0  0  0  0  0  0  0  0
   -3.7160   11.5890   49.8090 O   0  0  0  0  0  0  0  0  0  0  0  0
   -3.3040   10.5290   53.0940 P   0  0  1  0  0  0  0  0  0  0  0  0
   -3.5970   11.2620   54.3700 O   0  0  0  0  0  1  0  0  0  0  0  0
   -4.4220    9.8050   52.5150 O   0  0  0  0  0  0  0  0  0  0  0  0
   -2.6170   11.4660   51.8690 O   0  0  0  0  0  0  0  0  0  0  0  0
   -2.0980    9.5820   53.4610 O   0  0  0  0  0  0  0  0  0  0  0  0
   -1.4020    8.7800   52.4690 C   0  0  0  0  0  0  0  0  0  0  0  0
   -1.6530    7.2860   52.6040 C   0  0  1  0  0  0  0  0  0  0  0  0
   -0.9880    6.7640   53.7870 O   0  0  0  0  0  0  0  0  0  0  0  0
   -3.1030    6.8060   52.7250 C   0  0  1  0  0  0  0  0  0  0  0  0
   -3.5620    6.5010   51.3910 O   0  0  0  0  0  0  0  0  0  0  0  0
   -3.0000    5.6310   53.6770 C   0  0  1  0  0  0  0  0  0  0  0  0
   -2.7460    4.4200   52.9960 O   0  0  0  0  0  0  0  0  0  0  0  0
   -1.8480    5.9300   54.5970 C   0  0  2  0  0  0  0  0  0  0  0  0
   -2.1270    6.6630   55.8760 N   0  0  0  0  0  0  0  0  0  0  0  0
   -2.5890    7.9540   56.1000 C   0  0  0  0  0  0  0  0  0  0  0  0
   -2.7000    8.2910   57.3520 N   0  0  0  0  0  0  0  0  0  0  0  0
   -2.2780    7.1350   58.0100 C   0  0  0  0  0  0  0  0  0  0  0  0
   -2.1270    6.8020   59.4060 C   0  0  0  0  0  0  0  0  0  0  0  0
   -2.4200    7.7100   60.3560 N   0  0  0  0  0  0  0  0  0  0  0  0
   -1.6740    5.5410   59.7580 N   0  0  0  0  0  0  0  0  0  0  0  0
   -1.3740    4.6250   58.7900 C   0  0  0  0  0  0  0  0  0  0  0  0
   -1.4680    4.8210   57.4230 N   0  0  0  0  0  0  0  0  0  0  0  0
   -1.9340    6.1260   57.1120 C   0  0  0  0  0  0  0  0  0  0  0  0
   -0.3219    8.9612   52.5718 H   0  0  0  0  0  0  0  0  0  0  0  0
   -1.7338    9.0988   51.4699 H   0  0  0  0  0  0  0  0  0  0  0  0
   -1.2207    6.8142   51.7093 H   0  0  0  0  0  0  0  0  0  0  0  0
   -3.7519    7.5809   53.1592 H   0  0  0  0  0  0  0  0  0  0  0  0
   -3.0139    5.8215   51.0164 H   0  0  0  0  0  0  0  0  0  0  0  0
   -3.9331    5.5347   54.2514 H   0  0  0  0  0  0  0  0  0  0  0  0
   -2.6886    3.7104   53.6249 H   0  0  0  0  0  0  0  0  0  0  0  0
   -1.3482    4.9844   54.8539 H   0  0  0  0  0  0  0  0  0  0  0  0
   -2.8399    8.6341   55.2873 H   0  0  0  0  0  0  0  0  0  0  0  0
   -2.3107    7.4678   61.3511 H   0  0  0  0  0  0  0  0  0  0  0  0
   -2.7535    8.6468   60.0876 H   0  0  0  0  0  0  0  0  0  0  0  0
   -1.0298    3.6528   59.1239 H   0  0  0  0  0  0  0  0  0  0  0  0
  1  2  1  0  0  0  0
  1  3  1  0  0  0  0
  1  4  2  0  0  0  0
  5  6  1  6  0  0  0
  5  7  2  0  0  0  0
  5  8  1  0  0  0  0
  8  1  1  0  0  0  0
  9 10  1  1  0  0  0
  9 11  2  0  0  0  0
  9 12  1  0  0  0  0
  9 13  1  0  0  0  0
 12  5  1  0  0  0  0
 13 14  1  0  0  0  0
 14 15  1  0  0  0  0
 14 32  1  0  0  0  0
 14 33  1  0  0  0  0
 15 16  1  0  0  0  0
 15 17  1  0  0  0  0
 15 34  1  6  0  0  0
 16 21  1  0  0  0  0
 17 18  1  0  0  0  0
 17 19  1  0  0  0  0
 17 35  1  1  0  0  0
 18 36  1  0  0  0  0
 19 20  1  0  0  0  0
 19 21  1  0  0  0  0
 19 37  1  1  0  0  0
 20 38  1  0  0  0  0
 21 22  1  0  0  0  0
 21 39  1  1  0  0  0
 22 23  1  0  0  0  0
 22 31  1  0  0  0  0
 23 24  2  0  0  0  0
 23 40  1  0  0  0  0
 24 25  1  0  0  0  0
 25 26  2  0  0  0  0
 25 31  1  0  0  0  0
 26 27  1  0  0  0  0
 26 28  1  0  0  0  0
 27 41  1  0  0  0  0
 27 42  1  0  0  0  0
 28 29  2  0  0  0  0
 29 30  1  0  0  0  0
 29 43  1  0  0  0  0
 30 31  2  0  0  0  0
M  END
