3dow_ligand
 OpenBabel08222323343D

120124  0  0  1  0  0  0  0  0999 V2000
   -3.4180    5.2640   31.8160 N   0  3  0  0  0  0  0  0  0  0  0  0
   -3.2670    6.2450   30.7470 C   0  0  2  0  0  0  0  0  0  0  0  0
   -2.7380    7.5610   31.3140 C   0  0  0  0  0  0  0  0  0  0  0  0
   -1.8280    8.1680   30.7500 O   0  0  0  0  0  0  0  0  0  0  0  0
   -4.6080    6.4720   30.0470 C   0  0  0  0  0  0  0  0  0  0  0  0
   -4.4520    7.0830   28.6670 C   0  0  0  0  0  0  0  0  0  0  0  0
   -3.3510    6.9810   28.0830 O   0  5  0  0  0  0  0  0  0  0  0  0
   -5.4380    7.6580   28.1630 O   0  0  0  0  0  0  0  0  0  0  0  0
   -3.3120    7.9930   32.4330 N   0  0  0  0  0  0  0  0  0  0  0  0
   -2.8660    9.2070   33.1050 C   0  0  2  0  0  0  0  0  0  0  0  0
   -1.7120    8.9140   34.0520 C   0  0  0  0  0  0  0  0  0  0  0  0
   -1.7460    7.9500   34.8150 O   0  0  0  0  0  0  0  0  0  0  0  0
   -4.0070    9.8370   33.9040 C   0  0  0  0  0  0  0  0  0  0  0  0
   -5.1000   10.4170   33.0710 C   0  0  0  0  0  0  0  0  0  0  0  0
   -6.2080    9.7690   32.6110 C   0  0  0  0  0  0  0  0  0  0  0  0
   -5.2070   11.7640   32.6070 C   0  0  0  0  0  0  0  0  0  0  0  0
   -6.9940   10.6260   31.8850 N   0  0  0  0  0  0  0  0  0  0  0  0
   -6.3950   11.8700   31.8670 C   0  0  0  0  0  0  0  0  0  0  0  0
   -4.4020   12.9060   32.7450 C   0  0  0  0  0  0  0  0  0  0  0  0
   -6.8120   13.0490   31.2630 C   0  0  0  0  0  0  0  0  0  0  0  0
   -4.8120   14.0830   32.1460 C   0  0  0  0  0  0  0  0  0  0  0  0
   -6.0060   14.1460   31.4140 C   0  0  0  0  0  0  0  0  0  0  0  0
   -0.6950    9.7640   34.0060 N   0  0  0  0  0  0  0  0  0  0  0  0
    0.4420    9.6470   34.9040 C   0  0  2  0  0  0  0  0  0  0  0  0
    0.2650   10.6210   36.0660 C   0  0  0  0  0  0  0  0  0  0  0  0
    0.0470   11.8110   35.8590 O   0  0  0  0  0  0  0  0  0  0  0  0
    1.7360    9.9470   34.1440 C   0  0  0  0  0  0  0  0  0  0  0  0
    2.9510    9.2870   34.7690 C   0  0  0  0  0  0  0  0  0  0  0  0
    3.1490    9.4240   35.9960 O   0  5  0  0  0  0  0  0  0  0  0  0
    3.7140    8.6340   34.0250 O   0  0  0  0  0  0  0  0  0  0  0  0
    0.3490   10.1110   37.2880 N   0  0  0  0  0  0  0  0  0  0  0  0
    0.1920   10.9470   38.4720 C   0  0  2  0  0  0  0  0  0  0  0  0
    1.5210   11.5940   38.8410 C   0  0  0  0  0  0  0  0  0  0  0  0
    2.5540   10.9290   38.8850 O   0  0  0  0  0  0  0  0  0  0  0  0
   -0.3530   10.1180   39.6330 C   0  0  0  0  0  0  0  0  0  0  0  0
   -1.7230    9.5580   39.3770 C   0  0  0  0  0  0  0  0  0  0  0  0
   -1.9050    8.5270   38.4680 C   0  0  0  0  0  0  0  0  0  0  0  0
   -2.8290   10.0680   40.0360 C   0  0  0  0  0  0  0  0  0  0  0  0
   -3.1640    8.0120   38.2230 C   0  0  0  0  0  0  0  0  0  0  0  0
   -4.0910    9.5570   39.7970 C   0  0  0  0  0  0  0  0  0  0  0  0
   -4.2590    8.5260   38.8880 C   0  0  0  0  0  0  0  0  0  0  0  0
    1.4870   12.8970   39.1020 N   0  0  0  0  0  0  0  0  0  0  0  0
    2.7060   13.6680   39.2990 C   0  0  2  0  0  0  0  0  0  0  0  0
    2.5490   14.6850   40.4260 C   0  0  0  0  0  0  0  0  0  0  0  0
    1.9230   15.7260   40.2370 O   0  0  0  0  0  0  0  0  0  0  0  0
    3.0610   14.4000   38.0040 C   0  0  0  0  0  0  0  0  0  0  0  0
    4.5380   14.7240   37.8010 C   0  0  0  0  0  0  0  0  0  0  0  0
    5.2790   13.4840   37.3370 C   0  0  0  0  0  0  0  0  0  0  0  0
    4.7030   15.8450   36.7970 C   0  0  0  0  0  0  0  0  0  0  0  0
    3.1230   14.3900   41.6060 N   0  0  0  0  0  0  0  0  0  0  0  0
    3.8450   13.1520   41.9190 C   0  0  2  0  0  0  0  0  0  0  0  0
    2.8820   11.9990   42.1540 C   0  0  0  0  0  0  0  0  0  0  0  0
    1.7200   12.2410   42.4820 O   0  0  0  0  0  0  0  0  0  0  0  0
    4.5830   13.4880   43.2260 C   0  0  0  0  0  0  0  0  0  0  0  0
    4.4340   14.9690   43.4180 C   0  0  0  0  0  0  0  0  0  0  0  0
    3.1690   15.3400   42.7270 C   0  0  0  0  0  0  0  0  0  0  0  0
    3.3570   10.7560   41.9910 N   0  0  0  0  0  0  0  0  0  0  0  0
    2.5120    9.5800   42.2250 C   0  0  2  0  0  0  0  0  0  0  0  0
    1.9120    9.5700   43.6310 C   0  0  0  0  0  0  0  0  0  0  0  0
    0.6990    9.3870   43.7570 O   0  0  0  0  0  0  0  0  0  0  0  0
    3.4850    8.4090   42.0440 C   0  0  0  0  0  0  0  0  0  0  0  0
    4.5640    8.9430   41.1650 C   0  0  0  0  0  0  0  0  0  0  0  0
    4.7090   10.3880   41.5380 C   0  0  0  0  0  0  0  0  0  0  0  0
    2.6120   10.0610   44.6520 N   0  0  0  0  0  0  0  0  0  0  0  0
   -3.7672    4.3999   31.4321 H   0  0  0  0  0  0  0  0  0  0  0  0
   -4.0675    5.6131   32.5032 H   0  0  0  0  0  0  0  0  0  0  0  0
   -2.5236    5.1010   32.2513 H   0  0  0  0  0  0  0  0  0  0  0  0
   -2.5448    5.8601   30.0120 H   0  0  0  0  0  0  0  0  0  0  0  0
   -5.2173    7.1484   30.6645 H   0  0  0  0  0  0  0  0  0  0  0  0
   -5.1213    5.5042   29.9474 H   0  0  0  0  0  0  0  0  0  0  0  0
   -4.0700    7.4709   32.8239 H   0  0  0  0  0  0  0  0  0  0  0  0
   -2.5272    9.9231   32.3418 H   0  0  0  0  0  0  0  0  0  0  0  0
   -3.5872   10.6403   34.5273 H   0  0  0  0  0  0  0  0  0  0  0  0
   -4.4429    9.0611   34.5505 H   0  0  0  0  0  0  0  0  0  0  0  0
   -6.4361    8.7200   32.7942 H   0  0  0  0  0  0  0  0  0  0  0  0
   -7.8844   10.3822   31.4283 H   0  0  0  0  0  0  0  0  0  0  0  0
   -3.4776   12.8659   33.3098 H   0  0  0  0  0  0  0  0  0  0  0  0
   -7.7350   13.0988   30.6968 H   0  0  0  0  0  0  0  0  0  0  0  0
   -4.1997   14.9721   32.2441 H   0  0  0  0  0  0  0  0  0  0  0  0
   -6.2980   15.0846   30.9570 H   0  0  0  0  0  0  0  0  0  0  0  0
   -0.7108   10.5056   33.3353 H   0  0  0  0  0  0  0  0  0  0  0  0
    0.4886    8.6211   35.2982 H   0  0  0  0  0  0  0  0  0  0  0  0
    1.8935   11.0356   34.1340 H   0  0  0  0  0  0  0  0  0  0  0  0
    1.6300    9.5823   33.1116 H   0  0  0  0  0  0  0  0  0  0  0  0
    0.5237    9.1327   37.3992 H   0  0  0  0  0  0  0  0  0  0  0  0
   -0.5310   11.7441   38.2445 H   0  0  0  0  0  0  0  0  0  0  0  0
   -0.3997   10.7581   40.5263 H   0  0  0  0  0  0  0  0  0  0  0  0
    0.3365    9.2810   39.8173 H   0  0  0  0  0  0  0  0  0  0  0  0
   -1.0488    8.1196   37.9427 H   0  0  0  0  0  0  0  0  0  0  0  0
   -2.7038   10.8767   40.7470 H   0  0  0  0  0  0  0  0  0  0  0  0
   -3.2913    7.2057   37.5097 H   0  0  0  0  0  0  0  0  0  0  0  0
   -4.9487    9.9632   40.3209 H   0  0  0  0  0  0  0  0  0  0  0  0
   -5.2477    8.1237   38.6991 H   0  0  0  0  0  0  0  0  0  0  0  0
    0.6023   13.3589   39.1646 H   0  0  0  0  0  0  0  0  0  0  0  0
    3.5220   12.9772   39.5579 H   0  0  0  0  0  0  0  0  0  0  0  0
    2.5037   15.3482   37.9900 H   0  0  0  0  0  0  0  0  0  0  0  0
    2.7359   13.7711   37.1621 H   0  0  0  0  0  0  0  0  0  0  0  0
    4.9625   15.0495   38.7621 H   0  0  0  0  0  0  0  0  0  0  0  0
    6.3426   13.7249   37.1928 H   0  0  0  0  0  0  0  0  0  0  0  0
    4.8500   13.1347   36.3862 H   0  0  0  0  0  0  0  0  0  0  0  0
    5.1818   12.6934   38.0956 H   0  0  0  0  0  0  0  0  0  0  0  0
    4.1603   16.7349   37.1486 H   0  0  0  0  0  0  0  0  0  0  0  0
    4.2977   15.5289   35.8245 H   0  0  0  0  0  0  0  0  0  0  0  0
    5.7708   16.0859   36.6885 H   0  0  0  0  0  0  0  0  0  0  0  0
    4.5503   12.8915   41.1161 H   0  0  0  0  0  0  0  0  0  0  0  0
    5.6464   13.2186   43.1443 H   0  0  0  0  0  0  0  0  0  0  0  0
    4.1312   12.9461   44.0699 H   0  0  0  0  0  0  0  0  0  0  0  0
    5.2860   15.5014   42.9700 H   0  0  0  0  0  0  0  0  0  0  0  0
    4.3715   15.2125   44.4889 H   0  0  0  0  0  0  0  0  0  0  0  0
    2.3018   15.2119   43.3914 H   0  0  0  0  0  0  0  0  0  0  0  0
    3.2041   16.3784   42.3659 H   0  0  0  0  0  0  0  0  0  0  0  0
    1.6991    9.5337   41.4854 H   0  0  0  0  0  0  0  0  0  0  0  0
    2.9809    7.5569   41.5647 H   0  0  0  0  0  0  0  0  0  0  0  0
    3.8963    8.0934   43.0142 H   0  0  0  0  0  0  0  0  0  0  0  0
    4.2803    8.8462   40.1066 H   0  0  0  0  0  0  0  0  0  0  0  0
    5.5063    8.4041   41.3429 H   0  0  0  0  0  0  0  0  0  0  0  0
    5.4440   10.5148   42.3465 H   0  0  0  0  0  0  0  0  0  0  0  0
    5.0117   10.9911   40.6693 H   0  0  0  0  0  0  0  0  0  0  0  0
    2.2229   10.0562   45.5732 H   0  0  0  0  0  0  0  0  0  0  0  0
    3.5267   10.4345   44.4975 H   0  0  0  0  0  0  0  0  0  0  0  0
  1  2  1  0  0  0  0
  1 65  1  0  0  0  0
  1 66  1  0  0  0  0
  1 67  1  0  0  0  0
  2  3  1  0  0  0  0
  2  5  1  0  0  0  0
  2 68  1  6  0  0  0
  3  4  2  0  0  0  0
  3  9  1  0  0  0  0
  5  6  1  0  0  0  0
  5 69  1  0  0  0  0
  5 70  1  0  0  0  0
  6  7  1  0  0  0  0
  6  8  2  0  0  0  0
  9 10  1  0  0  0  0
  9 71  1  0  0  0  0
 10 11  1  0  0  0  0
 10 13  1  0  0  0  0
 10 72  1  6  0  0  0
 11 12  2  0  0  0  0
 11 23  1  0  0  0  0
 13 14  1  0  0  0  0
 13 73  1  0  0  0  0
 13 74  1  0  0  0  0
 14 15  2  0  0  0  0
 14 16  1  0  0  0  0
 15 17  1  0  0  0  0
 15 75  1  0  0  0  0
 16 18  2  0  0  0  0
 16 19  1  0  0  0  0
 17 18  1  0  0  0  0
 17 76  1  0  0  0  0
 18 20  1  0  0  0  0
 19 21  2  0  0  0  0
 19 77  1  0  0  0  0
 20 22  2  0  0  0  0
 20 78  1  0  0  0  0
 21 22  1  0  0  0  0
 21 79  1  0  0  0  0
 22 80  1  0  0  0  0
 23 24  1  0  0  0  0
 23 81  1  0  0  0  0
 24 25  1  0  0  0  0
 24 27  1  0  0  0  0
 24 82  1  1  0  0  0
 25 26  2  0  0  0  0
 25 31  1  0  0  0  0
 27 28  1  0  0  0  0
 27 83  1  0  0  0  0
 27 84  1  0  0  0  0
 28 29  1  0  0  0  0
 28 30  2  0  0  0  0
 31 32  1  0  0  0  0
 31 85  1  0  0  0  0
 32 33  1  0  0  0  0
 32 35  1  0  0  0  0
 32 86  1  6  0  0  0
 33 34  2  0  0  0  0
 33 42  1  0  0  0  0
 35 36  1  0  0  0  0
 35 87  1  0  0  0  0
 35 88  1  0  0  0  0
 36 37  2  0  0  0  0
 36 38  1  0  0  0  0
 37 39  1  0  0  0  0
 37 89  1  0  0  0  0
 38 40  2  0  0  0  0
 38 90  1  0  0  0  0
 39 41  2  0  0  0  0
 39 91  1  0  0  0  0
 40 41  1  0  0  0  0
 40 92  1  0  0  0  0
 41 93  1  0  0  0  0
 42 43  1  0  0  0  0
 42 94  1  0  0  0  0
 43 44  1  0  0  0  0
 43 46  1  0  0  0  0
 43 95  1  1  0  0  0
 44 45  2  0  0  0  0
 44 50  1  0  0  0  0
 46 47  1  0  0  0  0
 46 96  1  0  0  0  0
 46 97  1  0  0  0  0
 47 48  1  0  0  0  0
 47 49  1  0  0  0  0
 47 98  1  0  0  0  0
 48 99  1  0  0  0  0
 48100  1  0  0  0  0
 48101  1  0  0  0  0
 49102  1  0  0  0  0
 49103  1  0  0  0  0
 49104  1  0  0  0  0
 50 51  1  0  0  0  0
 50 56  1  0  0  0  0
 51 52  1  0  0  0  0
 51 54  1  0  0  0  0
 51105  1  6  0  0  0
 52 53  2  0  0  0  0
 52 57  1  0  0  0  0
 54 55  1  0  0  0  0
 54106  1  0  0  0  0
 54107  1  0  0  0  0
 55 56  1  0  0  0  0
 55108  1  0  0  0  0
 55109  1  0  0  0  0
 56110  1  0  0  0  0
 56111  1  0  0  0  0
 57 58  1  0  0  0  0
 57 63  1  0  0  0  0
 58 59  1  0  0  0  0
 58 61  1  0  0  0  0
 58112  1  6  0  0  0
 59 60  2  0  0  0  0
 59 64  1  0  0  0  0
 61 62  1  0  0  0  0
 61113  1  0  0  0  0
 61114  1  0  0  0  0
 62 63  1  0  0  0  0
 62115  1  0  0  0  0
 62116  1  0  0  0  0
 63117  1  0  0  0  0
 63118  1  0  0  0  0
 64119  1  0  0  0  0
 64120  1  0  0  0  0
M  CHG  3   1   1   7  -1  29  -1
M  END
