3doy_ligand
 OpenBabel08222323343D

 31 32  0  0  0  0  0  0  0  0999 V2000
  -18.3010  -16.3780  -11.9780 C   0  0  0  0  0  0  0  0  0  0  0  0
  -19.5030  -15.6970  -11.9010 C   0  0  0  0  0  0  0  0  0  0  0  0
  -19.5110  -14.3240  -12.0520 C   0  0  0  0  0  0  0  0  0  0  0  0
  -20.9900  -13.4540  -11.9600 Cl  0  0  0  0  0  0  0  0  0  0  0  0
  -18.3270  -13.6410  -12.2740 C   0  0  0  0  0  0  0  0  0  0  0  0
  -17.1220  -14.3250  -12.3420 C   0  0  0  0  0  0  0  0  0  0  0  0
  -17.1090  -15.6960  -12.1840 C   0  0  0  0  0  0  0  0  0  0  0  0
  -15.8020  -16.4710  -12.3070 C   0  0  0  0  0  0  0  0  0  0  0  0
  -15.7070  -17.2800  -13.2240 O   0  0  0  0  0  0  0  0  0  0  0  0
  -14.8100  -16.1810  -11.4580 N   0  0  0  0  0  0  0  0  0  0  0  0
  -13.7240  -16.7600  -11.5430 N   0  0  0  0  0  0  0  0  0  0  0  0
  -13.5750  -17.6830  -12.4700 C   0  0  0  0  0  0  0  0  0  0  0  0
  -12.4150  -18.4060  -12.7270 C   0  0  0  0  0  0  0  0  0  0  0  0
  -11.1710  -17.9600  -12.2920 C   0  0  0  0  0  0  0  0  0  0  0  0
  -10.0250  -18.6910  -12.5920 C   0  0  0  0  0  0  0  0  0  0  0  0
   -8.3330  -18.1070  -12.0010 Br  0  0  0  0  0  0  0  0  0  0  0  0
  -10.1300  -19.8620  -13.3340 C   0  0  0  0  0  0  0  0  0  0  0  0
   -9.0220  -20.5790  -13.6340 O   0  0  0  0  0  0  0  0  0  0  0  0
  -11.3670  -20.3110  -13.7790 C   0  0  0  0  0  0  0  0  0  0  0  0
  -11.4900  -21.9100  -14.7890 Br  0  0  0  0  0  0  0  0  0  0  0  0
  -12.5030  -19.5780  -13.4780 C   0  0  0  0  0  0  0  0  0  0  0  0
  -13.7060  -20.0230  -13.9170 O   0  0  0  0  0  0  0  0  0  0  0  0
  -18.2896  -17.4572  -11.8763 H   0  0  0  0  0  0  0  0  0  0  0  0
  -20.4275  -16.2346  -11.7243 H   0  0  0  0  0  0  0  0  0  0  0  0
  -18.3419  -12.5639  -12.3955 H   0  0  0  0  0  0  0  0  0  0  0  0
  -16.1977  -13.7867  -12.5179 H   0  0  0  0  0  0  0  0  0  0  0  0
  -13.8171  -17.1806  -13.4181 H   0  0  0  0  0  0  0  0  0  0  0  0
  -14.3427  -18.4393  -12.2493 H   0  0  0  0  0  0  0  0  0  0  0  0
  -11.0942  -17.0429  -11.7192 H   0  0  0  0  0  0  0  0  0  0  0  0
   -9.2685  -21.3432  -14.1417 H   0  0  0  0  0  0  0  0  0  0  0  0
  -14.3863  -19.4222  -13.6363 H   0  0  0  0  0  0  0  0  0  0  0  0
  1  2  2  0  0  0  0
  1  7  1  0  0  0  0
  1 23  1  0  0  0  0
  2  3  1  0  0  0  0
  2 24  1  0  0  0  0
  3  4  1  0  0  0  0
  3  5  2  0  0  0  0
  5  6  1  0  0  0  0
  5 25  1  0  0  0  0
  6  7  2  0  0  0  0
  6 26  1  0  0  0  0
  7  8  1  0  0  0  0
  8  9  2  0  0  0  0
  8 10  1  0  0  0  0
 10 11  2  0  0  0  0
 11 12  1  0  0  0  0
 12 13  1  0  0  0  0
 12 27  1  0  0  0  0
 12 28  1  0  0  0  0
 13 14  2  0  0  0  0
 13 21  1  0  0  0  0
 14 15  1  0  0  0  0
 14 29  1  0  0  0  0
 15 16  1  0  0  0  0
 15 17  2  0  0  0  0
 17 18  1  0  0  0  0
 17 19  1  0  0  0  0
 18 30  1  0  0  0  0
 19 20  1  0  0  0  0
 19 21  2  0  0  0  0
 21 22  1  0  0  0  0
 22 31  1  0  0  0  0
M  END
