3doz_ligand
 OpenBabel08222323343D

 31 32  0  0  0  0  0  0  0  0999 V2000
  -18.6040   15.6990   11.8590 C   0  0  0  0  0  0  0  0  0  0  0  0
  -19.6890   14.8210   11.7800 C   0  0  0  0  0  0  0  0  0  0  0  0
  -21.4670   15.4180   11.6830 Br  0  0  0  0  0  0  0  0  0  0  0  0
  -19.4720   13.4600   11.7640 C   0  0  0  0  0  0  0  0  0  0  0  0
  -18.1770   12.9680   11.8280 C   0  0  0  0  0  0  0  0  0  0  0  0
  -17.0970   13.8390   11.9040 C   0  0  0  0  0  0  0  0  0  0  0  0
  -17.2960   15.2080   11.9060 C   0  0  0  0  0  0  0  0  0  0  0  0
  -16.0590   16.1150   12.0350 C   0  0  0  0  0  0  0  0  0  0  0  0
  -16.1250   17.1500   12.6890 O   0  0  0  0  0  0  0  0  0  0  0  0
  -14.9170   15.6440   11.5220 N   0  0  0  0  0  0  0  0  0  0  0  0
  -13.8580   16.2750   11.6140 N   0  0  0  0  0  0  0  0  0  0  0  0
  -13.8270   17.4360   12.2420 C   0  0  0  0  0  0  0  0  0  0  0  0
  -12.6790   18.1990   12.4750 C   0  0  0  0  0  0  0  0  0  0  0  0
  -11.3940   17.7520   12.1660 C   0  0  0  0  0  0  0  0  0  0  0  0
  -10.2830   18.5490   12.4560 C   0  0  0  0  0  0  0  0  0  0  0  0
   -8.5140   18.0030   12.0440 Br  0  0  0  0  0  0  0  0  0  0  0  0
  -10.4680   19.7830   13.0630 C   0  0  0  0  0  0  0  0  0  0  0  0
   -9.3980   20.5610   13.3480 O   0  0  0  0  0  0  0  0  0  0  0  0
  -11.7420   20.2280   13.3850 C   0  0  0  0  0  0  0  0  0  0  0  0
  -11.9700   21.9090   14.2180 Br  0  0  0  0  0  0  0  0  0  0  0  0
  -12.8400   19.4320   13.0940 C   0  0  0  0  0  0  0  0  0  0  0  0
  -14.0820   19.8630   13.4100 O   0  0  0  0  0  0  0  0  0  0  0  0
  -18.7783   16.7686   11.8840 H   0  0  0  0  0  0  0  0  0  0  0  0
  -20.3109   12.7763   11.7016 H   0  0  0  0  0  0  0  0  0  0  0  0
  -18.0063   11.8976   11.8187 H   0  0  0  0  0  0  0  0  0  0  0  0
  -16.0899   13.4423   11.9622 H   0  0  0  0  0  0  0  0  0  0  0  0
  -14.2542   17.2410   13.2367 H   0  0  0  0  0  0  0  0  0  0  0  0
  -14.5032   18.0925   11.6748 H   0  0  0  0  0  0  0  0  0  0  0  0
  -11.2568   16.7832   11.6994 H   0  0  0  0  0  0  0  0  0  0  0  0
   -9.6931   21.3655   13.7581 H   0  0  0  0  0  0  0  0  0  0  0  0
  -14.7191   19.2089   13.1480 H   0  0  0  0  0  0  0  0  0  0  0  0
  1  2  2  0  0  0  0
  1  7  1  0  0  0  0
  1 23  1  0  0  0  0
  2  3  1  0  0  0  0
  2  4  1  0  0  0  0
  4  5  2  0  0  0  0
  4 24  1  0  0  0  0
  5  6  1  0  0  0  0
  5 25  1  0  0  0  0
  6  7  2  0  0  0  0
  6 26  1  0  0  0  0
  7  8  1  0  0  0  0
  8  9  2  0  0  0  0
  8 10  1  0  0  0  0
 10 11  2  0  0  0  0
 11 12  1  0  0  0  0
 12 13  1  0  0  0  0
 12 27  1  0  0  0  0
 12 28  1  0  0  0  0
 13 14  2  0  0  0  0
 13 21  1  0  0  0  0
 14 15  1  0  0  0  0
 14 29  1  0  0  0  0
 15 16  1  0  0  0  0
 15 17  2  0  0  0  0
 17 18  1  0  0  0  0
 17 19  1  0  0  0  0
 18 30  1  0  0  0  0
 19 20  1  0  0  0  0
 19 21  2  0  0  0  0
 21 22  1  0  0  0  0
 22 31  1  0  0  0  0
M  END
