3dp1_ligand
 OpenBabel08222323343D

 35 36  0  0  0  0  0  0  0  0999 V2000
  -21.7330   14.8380   11.5750 C   0  0  0  0  0  0  0  0  0  0  0  0
  -20.6730   13.9160   11.8500 O   0  0  0  0  0  0  0  0  0  0  0  0
  -19.4960   14.5880   11.9580 C   0  0  0  0  0  0  0  0  0  0  0  0
  -18.2990   13.9850   11.5860 C   0  0  0  0  0  0  0  0  0  0  0  0
  -17.0960   14.6720   11.7100 C   0  0  0  0  0  0  0  0  0  0  0  0
  -19.4930   15.8880   12.4520 C   0  0  0  0  0  0  0  0  0  0  0  0
  -18.2920   16.5750   12.5780 C   0  0  0  0  0  0  0  0  0  0  0  0
  -17.0960   15.9680   12.2130 C   0  0  0  0  0  0  0  0  0  0  0  0
  -15.8010   16.7530   12.4320 C   0  0  0  0  0  0  0  0  0  0  0  0
  -15.8240   17.7480   13.1560 O   0  0  0  0  0  0  0  0  0  0  0  0
  -14.7050   16.2830   11.8380 N   0  0  0  0  0  0  0  0  0  0  0  0
  -13.6220   16.8550   11.9720 N   0  0  0  0  0  0  0  0  0  0  0  0
  -13.5440   17.9520   12.7050 C   0  0  0  0  0  0  0  0  0  0  0  0
  -12.3580   18.6440   12.9220 C   0  0  0  0  0  0  0  0  0  0  0  0
  -11.1420   18.1440   12.4670 C   0  0  0  0  0  0  0  0  0  0  0  0
   -9.9610   18.7890   12.8180 C   0  0  0  0  0  0  0  0  0  0  0  0
   -8.2820   18.0880   12.2920 Br  0  0  0  0  0  0  0  0  0  0  0  0
   -9.9880   19.9300   13.6110 C   0  0  0  0  0  0  0  0  0  0  0  0
   -8.8250   20.5350   13.9730 O   0  0  0  0  0  0  0  0  0  0  0  0
  -11.2050   20.4350   14.0540 C   0  0  0  0  0  0  0  0  0  0  0  0
  -11.2340   22.0010   15.1200 Br  0  0  0  0  0  0  0  0  0  0  0  0
  -12.3880   19.7920   13.7080 C   0  0  0  0  0  0  0  0  0  0  0  0
  -13.5800   20.3000   14.1210 O   0  0  0  0  0  0  0  0  0  0  0  0
  -22.6827   14.2897   11.4886 H   0  0  0  0  0  0  0  0  0  0  0  0
  -21.5260   15.3638   10.6312 H   0  0  0  0  0  0  0  0  0  0  0  0
  -21.8049   15.5689   12.3939 H   0  0  0  0  0  0  0  0  0  0  0  0
  -18.3038   12.9732   11.1970 H   0  0  0  0  0  0  0  0  0  0  0  0
  -16.1652   14.2003   11.4166 H   0  0  0  0  0  0  0  0  0  0  0  0
  -20.4243   16.3635   12.7377 H   0  0  0  0  0  0  0  0  0  0  0  0
  -18.2876   17.5885   12.9625 H   0  0  0  0  0  0  0  0  0  0  0  0
  -13.9181   17.6755   13.7018 H   0  0  0  0  0  0  0  0  0  0  0  0
  -14.2332   18.6734   12.2418 H   0  0  0  0  0  0  0  0  0  0  0  0
  -11.1153   17.2578   11.8432 H   0  0  0  0  0  0  0  0  0  0  0  0
   -9.0182   21.2947   14.5097 H   0  0  0  0  0  0  0  0  0  0  0  0
  -14.2851   19.7482   13.8037 H   0  0  0  0  0  0  0  0  0  0  0  0
  1  2  1  0  0  0  0
  1 24  1  0  0  0  0
  1 25  1  0  0  0  0
  1 26  1  0  0  0  0
  2  3  1  0  0  0  0
  3  4  2  0  0  0  0
  3  6  1  0  0  0  0
  4  5  1  0  0  0  0
  4 27  1  0  0  0  0
  5  8  2  0  0  0  0
  5 28  1  0  0  0  0
  6  7  2  0  0  0  0
  6 29  1  0  0  0  0
  7  8  1  0  0  0  0
  7 30  1  0  0  0  0
  8  9  1  0  0  0  0
  9 10  2  0  0  0  0
  9 11  1  0  0  0  0
 11 12  2  0  0  0  0
 12 13  1  0  0  0  0
 13 14  1  0  0  0  0
 13 31  1  0  0  0  0
 13 32  1  0  0  0  0
 14 15  2  0  0  0  0
 14 22  1  0  0  0  0
 15 16  1  0  0  0  0
 15 33  1  0  0  0  0
 16 17  1  0  0  0  0
 16 18  2  0  0  0  0
 18 19  1  0  0  0  0
 18 20  1  0  0  0  0
 19 34  1  0  0  0  0
 20 21  1  0  0  0  0
 20 22  2  0  0  0  0
 22 23  1  0  0  0  0
 23 35  1  0  0  0  0
M  END
