3dpd_ligand
 OpenBabel08222323343D

 36 38  0  0  0  0  0  0  0  0999 V2000
   24.1900   63.5150   17.3780 C   0  0  0  0  0  0  0  0  0  0  0  0
   24.1550   63.1820   18.8730 C   0  0  0  0  0  0  0  0  0  0  0  0
   24.5710   64.4310   19.6530 C   0  0  0  0  0  0  0  0  0  0  0  0
   22.6950   62.7410   19.2510 C   0  0  0  0  0  0  0  0  0  0  0  0
   22.5850   61.9090   20.5080 C   0  0  0  0  0  0  0  0  0  0  0  0
   23.6610   61.2170   21.0160 C   0  0  0  0  0  0  0  0  0  0  0  0
   24.9960   61.2130   20.4380 C   0  0  0  0  0  0  0  0  0  0  0  0
   25.1700   62.0270   19.1610 C   0  0  0  0  0  0  0  0  0  0  0  0
   25.9150   60.5800   20.9300 O   0  0  0  0  0  0  0  0  0  0  0  0
   23.2060   60.3710   22.4610 S   0  0  0  0  0  0  0  0  0  0  0  0
   21.5800   61.0030   22.2570 C   0  0  0  0  0  0  0  0  0  0  0  0
   20.5900   60.6840   23.1420 N   0  0  0  0  0  0  0  0  0  0  0  0
   20.4760   59.2650   23.4940 C   0  0  0  0  0  0  0  0  0  0  0  0
   19.3790   59.0630   24.5280 C   0  0  0  0  0  0  0  0  0  0  0  0
   18.1390   59.6190   24.1170 O   0  0  0  0  0  0  0  0  0  0  0  0
   18.2640   61.0130   23.8510 C   0  0  0  0  0  0  0  0  0  0  0  0
   19.2750   61.2880   22.7640 C   0  0  0  0  0  0  0  0  0  0  0  0
   21.4160   61.7760   21.2090 N   0  0  0  0  0  0  0  0  0  0  0  0
   23.4786   64.3269   17.1665 H   0  0  0  0  0  0  0  0  0  0  0  0
   23.9119   62.6233   16.7971 H   0  0  0  0  0  0  0  0  0  0  0  0
   25.2045   63.8340   17.0970 H   0  0  0  0  0  0  0  0  0  0  0  0
   24.5525   64.2131   20.7310 H   0  0  0  0  0  0  0  0  0  0  0  0
   23.8715   65.2508   19.4327 H   0  0  0  0  0  0  0  0  0  0  0  0
   25.5880   64.7269   19.3561 H   0  0  0  0  0  0  0  0  0  0  0  0
   22.2891   62.1521   18.4153 H   0  0  0  0  0  0  0  0  0  0  0  0
   22.0890   63.6487   19.3884 H   0  0  0  0  0  0  0  0  0  0  0  0
   26.1734   62.4764   19.1956 H   0  0  0  0  0  0  0  0  0  0  0  0
   25.1119   61.3244   18.3167 H   0  0  0  0  0  0  0  0  0  0  0  0
   21.4334   58.9160   23.9082 H   0  0  0  0  0  0  0  0  0  0  0  0
   20.2342   58.6856   22.5908 H   0  0  0  0  0  0  0  0  0  0  0  0
   19.6871   59.5433   25.4684 H   0  0  0  0  0  0  0  0  0  0  0  0
   19.2445   57.9840   24.6942 H   0  0  0  0  0  0  0  0  0  0  0  0
   18.5830   61.5239   24.7714 H   0  0  0  0  0  0  0  0  0  0  0  0
   17.2858   61.4042   23.5346 H   0  0  0  0  0  0  0  0  0  0  0  0
   18.9266   60.8460   21.8189 H   0  0  0  0  0  0  0  0  0  0  0  0
   19.3928   62.3745   22.6392 H   0  0  0  0  0  0  0  0  0  0  0  0
  1  2  1  0  0  0  0
  1 19  1  0  0  0  0
  1 20  1  0  0  0  0
  1 21  1  0  0  0  0
  2  3  1  0  0  0  0
  2  4  1  0  0  0  0
  2  8  1  0  0  0  0
  3 22  1  0  0  0  0
  3 23  1  0  0  0  0
  3 24  1  0  0  0  0
  4  5  1  0  0  0  0
  4 25  1  0  0  0  0
  4 26  1  0  0  0  0
  5  6  2  0  0  0  0
  5 18  1  0  0  0  0
  6  7  1  0  0  0  0
  6 10  1  0  0  0  0
  7  8  1  0  0  0  0
  7  9  2  0  0  0  0
  8 27  1  0  0  0  0
  8 28  1  0  0  0  0
 10 11  1  0  0  0  0
 11 12  1  0  0  0  0
 11 18  2  0  0  0  0
 12 13  1  0  0  0  0
 12 17  1  0  0  0  0
 13 14  1  0  0  0  0
 13 29  1  0  0  0  0
 13 30  1  0  0  0  0
 14 15  1  0  0  0  0
 14 31  1  0  0  0  0
 14 32  1  0  0  0  0
 15 16  1  0  0  0  0
 16 17  1  0  0  0  0
 16 33  1  0  0  0  0
 16 34  1  0  0  0  0
 17 35  1  0  0  0  0
 17 36  1  0  0  0  0
M  END
