3dpe_ligand
 OpenBabel08222323343D

 59 64  0  0  1  0  0  0  0  0999 V2000
   13.7060   -0.0880    2.6590 N   0  0  0  0  0  0  0  0  0  0  0  0
   12.9610    0.8860    3.1710 C   0  0  0  0  0  0  0  0  0  0  0  0
   13.1210    2.4050    3.2600 C   0  0  0  0  0  0  0  0  0  0  0  0
   14.0090    3.2120    2.9990 O   0  0  0  0  0  0  0  0  0  0  0  0
   11.7390    2.4470    3.9090 C   0  0  0  0  0  0  0  0  0  0  0  0
   10.9760    3.3170    4.3220 O   0  0  0  0  0  0  0  0  0  0  0  0
   11.7400    0.9170    3.8420 C   0  0  2  0  0  0  0  0  0  0  0  0
   10.9110   -0.0270    4.2760 N   0  3  2  0  0  0  0  0  0  0  0  0
   10.2020    0.2230    5.5420 C   0  0  0  0  0  0  0  0  0  0  0  0
    8.8740   -0.5360    5.5940 C   0  0  0  0  0  0  0  0  0  0  0  0
   11.1110   -1.3890    3.7550 C   0  0  0  0  0  0  0  0  0  0  0  0
   10.1500   -2.3860    4.4040 C   0  0  0  0  0  0  0  0  0  0  0  0
   10.3370   -3.7300    4.1080 C   0  0  0  0  0  0  0  0  0  0  0  0
    9.1140   -2.0060    5.2490 C   0  0  0  0  0  0  0  0  0  0  0  0
    8.2730   -2.9740    5.7890 C   0  0  0  0  0  0  0  0  0  0  0  0
    8.4620   -4.3190    5.4910 C   0  0  0  0  0  0  0  0  0  0  0  0
    9.4980   -4.6970    4.6460 C   0  0  0  0  0  0  0  0  0  0  0  0
    9.7450   -6.1610    4.2790 C   0  0  0  0  0  0  0  0  0  0  0  0
    8.6660   -7.0190    4.7870 N   0  0  0  0  0  0  0  0  0  0  0  0
    7.4470   -7.0320    4.2560 C   0  0  0  0  0  0  0  0  0  0  0  0
    7.0830   -6.3330    3.3120 O   0  0  0  0  0  0  0  0  0  0  0  0
    6.4930   -8.0100    4.9420 C   0  0  0  0  0  0  0  0  0  0  0  0
    6.9780   -8.8170    5.8930 N   0  0  0  0  0  0  0  0  0  0  0  0
    6.1890   -9.6950    6.5230 C   0  0  0  0  0  0  0  0  0  0  0  0
    6.5510  -10.8230    7.7550 S   0  0  0  0  0  0  0  0  0  0  0  0
    4.9770  -11.4750    7.9150 C   0  0  0  0  0  0  0  0  0  0  0  0
    4.5630  -12.5970    8.8690 C   0  0  0  0  0  0  0  0  0  0  0  0
    2.7430  -12.6950    8.9870 S   0  0  0  0  0  0  0  0  0  0  0  0
    2.3330  -14.0690    9.4280 O   0  0  0  0  0  0  0  0  0  0  0  0
    2.2390  -11.6660    9.9550 O   0  0  0  0  0  0  0  0  0  0  0  0
    2.1380  -12.3370    7.3000 C   0  0  0  0  0  0  0  0  0  0  0  0
    2.6560  -10.9730    6.8430 C   0  0  0  0  0  0  0  0  0  0  0  0
    4.1700  -10.7940    7.0000 C   0  0  0  0  0  0  0  0  0  0  0  0
    4.8310   -9.8260    6.2360 C   0  0  0  0  0  0  0  0  0  0  0  0
    4.3130   -8.9940    5.2490 C   0  0  0  0  0  0  0  0  0  0  0  0
    3.1210   -9.0410    4.9470 O   0  0  0  0  0  0  0  0  0  0  0  0
    5.1410   -8.0780    4.5910 N   0  0  0  0  0  0  0  0  0  0  0  0
   14.5790    0.1308    2.2051 H   0  0  0  0  0  0  0  0  0  0  0  0
   11.1515    0.8919    2.9130 H   0  0  0  0  0  0  0  0  0  0  0  0
   10.1368    0.2048    3.6736 H   0  0  0  0  0  0  0  0  0  0  0  0
   10.0027    1.3008    5.6345 H   0  0  0  0  0  0  0  0  0  0  0  0
   10.8358   -0.1058    6.3788 H   0  0  0  0  0  0  0  0  0  0  0  0
    8.1729   -0.0987    4.8680 H   0  0  0  0  0  0  0  0  0  0  0  0
    8.4483   -0.4615    6.6055 H   0  0  0  0  0  0  0  0  0  0  0  0
   12.1447   -1.7026    3.9626 H   0  0  0  0  0  0  0  0  0  0  0  0
   10.9404   -1.3843    2.6683 H   0  0  0  0  0  0  0  0  0  0  0  0
   11.1460   -4.0271    3.4504 H   0  0  0  0  0  0  0  0  0  0  0  0
    7.4643   -2.6774    6.4470 H   0  0  0  0  0  0  0  0  0  0  0  0
    7.8044   -5.0687    5.9158 H   0  0  0  0  0  0  0  0  0  0  0  0
   10.7000   -6.4859    4.7177 H   0  0  0  0  0  0  0  0  0  0  0  0
    9.7938   -6.2544    3.1841 H   0  0  0  0  0  0  0  0  0  0  0  0
    8.8563   -7.6183    5.5646 H   0  0  0  0  0  0  0  0  0  0  0  0
    4.9804  -12.3966    9.8668 H   0  0  0  0  0  0  0  0  0  0  0  0
    4.9537  -13.5543    8.4936 H   0  0  0  0  0  0  0  0  0  0  0  0
    1.0380  -12.3284    7.3006 H   0  0  0  0  0  0  0  0  0  0  0  0
    2.4983  -13.1143    6.6101 H   0  0  0  0  0  0  0  0  0  0  0  0
    2.1529  -10.1957    7.4369 H   0  0  0  0  0  0  0  0  0  0  0  0
    2.4014  -10.8450    5.7806 H   0  0  0  0  0  0  0  0  0  0  0  0
    4.7712   -7.4803    3.8797 H   0  0  0  0  0  0  0  0  0  0  0  0
  1  2  2  0  0  0  0
  1 38  1  0  0  0  0
  2  3  1  0  0  0  0
  2  7  1  0  0  0  0
  3  4  2  0  0  0  0
  3  5  1  0  0  0  0
  5  6  2  0  0  0  0
  5  7  1  0  0  0  0
  7  8  1  0  0  0  0
  7 39  1  6  0  0  0
  8  9  1  0  0  0  0
  8 11  1  0  0  0  0
  8 40  1  6  0  0  0
  9 10  1  0  0  0  0
  9 41  1  0  0  0  0
  9 42  1  0  0  0  0
 10 14  1  0  0  0  0
 10 43  1  0  0  0  0
 10 44  1  0  0  0  0
 11 12  1  0  0  0  0
 11 45  1  0  0  0  0
 11 46  1  0  0  0  0
 12 13  2  0  0  0  0
 12 14  1  0  0  0  0
 13 17  1  0  0  0  0
 13 47  1  0  0  0  0
 14 15  2  0  0  0  0
 15 16  1  0  0  0  0
 15 48  1  0  0  0  0
 16 17  2  0  0  0  0
 16 49  1  0  0  0  0
 17 18  1  0  0  0  0
 18 19  1  0  0  0  0
 18 50  1  0  0  0  0
 18 51  1  0  0  0  0
 19 20  1  0  0  0  0
 19 52  1  0  0  0  0
 20 21  2  0  0  0  0
 20 22  1  0  0  0  0
 22 23  2  0  0  0  0
 22 37  1  0  0  0  0
 23 24  1  0  0  0  0
 24 25  1  0  0  0  0
 24 34  2  0  0  0  0
 25 26  1  0  0  0  0
 26 27  1  0  0  0  0
 26 33  2  0  0  0  0
 27 28  1  0  0  0  0
 27 53  1  0  0  0  0
 27 54  1  0  0  0  0
 28 29  2  0  0  0  0
 28 30  2  0  0  0  0
 28 31  1  0  0  0  0
 31 32  1  0  0  0  0
 31 55  1  0  0  0  0
 31 56  1  0  0  0  0
 32 33  1  0  0  0  0
 32 57  1  0  0  0  0
 32 58  1  0  0  0  0
 33 34  1  0  0  0  0
 34 35  1  0  0  0  0
 35 36  2  0  0  0  0
 35 37  1  0  0  0  0
 37 59  1  0  0  0  0
M  CHG  1   8   1
M  END
