3dpo_ligand
 OpenBabel08222323343D

176179  0  0  1  0  0  0  0  0999 V2000
  -44.4590   27.1690  -23.6940 N   0  3  0  0  0  0  0  0  0  0  0  0
  -44.5560   28.2620  -24.7130 C   0  0  2  0  0  0  0  0  0  0  0  0
  -44.4260   29.6070  -24.0250 C   0  0  0  0  0  0  0  0  0  0  0  0
  -43.6470   30.4750  -24.4470 O   0  0  0  0  0  0  0  0  0  0  0  0
  -45.9000   28.2110  -25.4170 C   0  0  0  0  0  0  0  0  0  0  0  0
  -46.1120   29.3720  -26.3810 C   0  0  0  0  0  0  0  0  0  0  0  0
  -47.2690   29.0990  -27.3310 C   0  0  0  0  0  0  0  0  0  0  0  0
  -47.0000   27.8870  -28.1930 C   0  0  0  0  0  0  0  0  0  0  0  0
  -47.8970   27.8780  -29.3840 N   0  3  0  0  0  0  0  0  0  0  0  0
  -45.2350   29.7670  -22.9810 N   0  0  0  0  0  0  0  0  0  0  0  0
  -45.0890   30.9070  -22.0410 C   0  0  2  0  0  0  0  0  0  0  0  0
  -44.3230   30.4790  -20.8100 C   0  0  0  0  0  0  0  0  0  0  0  0
  -44.8570   29.8290  -19.9370 O   0  0  0  0  0  0  0  0  0  0  0  0
  -46.4470   31.5050  -21.6190 C   0  0  0  0  0  0  0  0  0  0  0  0
  -46.3580   32.7310  -20.6900 C   0  0  0  0  0  0  0  0  0  0  0  0
  -45.5000   33.8150  -21.3140 C   0  0  0  0  0  0  0  0  0  0  0  0
  -47.7540   33.2960  -20.3280 C   0  0  0  0  0  0  0  0  0  0  0  0
  -43.0660   30.8840  -20.7510 N   0  0  0  0  0  0  0  0  0  0  0  0
  -42.2040   30.5790  -19.6080 C   0  0  2  0  0  0  0  0  0  0  0  0
  -42.2700   31.6640  -18.5060 C   0  0  0  0  0  0  0  0  0  0  0  0
  -42.6440   32.8090  -18.7650 O   0  0  0  0  0  0  0  0  0  0  0  0
  -40.7610   30.3760  -20.0590 C   0  0  0  0  0  0  0  0  0  0  0  0
  -40.5620   29.0480  -20.7270 C   0  0  0  0  0  0  0  0  0  0  0  0
  -40.3400   27.9100  -19.9730 C   0  0  0  0  0  0  0  0  0  0  0  0
  -40.6090   28.9260  -22.1080 C   0  0  0  0  0  0  0  0  0  0  0  0
  -40.1560   26.6790  -20.5760 C   0  0  0  0  0  0  0  0  0  0  0  0
  -40.4320   27.7080  -22.7170 C   0  0  0  0  0  0  0  0  0  0  0  0
  -40.2130   26.5850  -21.9490 C   0  0  0  0  0  0  0  0  0  0  0  0
  -40.0240   25.3560  -22.5480 O   0  0  0  0  0  0  0  0  0  0  0  0
  -41.9310   31.1950  -17.2900 N   0  0  0  0  0  0  0  0  0  0  0  0
  -42.1840   32.0880  -16.1800 C   0  0  2  0  0  0  0  0  0  0  0  0
  -40.8660   32.4460  -15.5190 C   0  0  0  0  0  0  0  0  0  0  0  0
  -40.0000   31.5840  -15.4560 O   0  0  0  0  0  0  0  0  0  0  0  0
  -43.1040   31.4450  -15.1580 C   0  0  0  0  0  0  0  0  0  0  0  0
  -44.3910   30.9410  -15.7990 C   0  0  0  0  0  0  0  0  0  0  0  0
  -45.2620   30.4080  -14.6900 C   0  0  0  0  0  0  0  0  0  0  0  0
  -46.4760   29.7670  -15.3120 C   0  0  0  0  0  0  0  0  0  0  0  0
  -47.2960   30.8850  -15.9360 C   0  0  0  0  0  0  0  0  0  0  0  0
  -46.4390   31.5810  -16.9820 C   0  0  0  0  0  0  0  0  0  0  0  0
  -45.1760   32.1040  -16.3290 C   0  0  0  0  0  0  0  0  0  0  0  0
  -40.7900   33.5220  -14.8190 N   0  0  0  0  0  0  0  0  0  0  0  0
  -39.5650   34.1520  -14.2490 C   0  0  2  0  0  0  0  0  0  0  0  0
  -39.5970   34.2160  -12.7260 C   0  0  0  0  0  0  0  0  0  0  0  0
  -40.5750   34.6480  -12.1220 O   0  0  0  0  0  0  0  0  0  0  0  0
  -39.4040   35.5690  -14.7810 C   0  0  0  0  0  0  0  0  0  0  0  0
  -39.0190   35.7000  -16.2490 C   0  0  0  0  0  0  0  0  0  0  0  0
  -38.9830   37.1790  -16.6490 C   0  0  0  0  0  0  0  0  0  0  0  0
  -37.6910   35.0420  -16.4910 C   0  0  0  0  0  0  0  0  0  0  0  0
  -38.4970   33.8450  -12.0930 N   0  0  0  0  0  0  0  0  0  0  0  0
  -38.5370   34.0100  -10.6470 C   0  0  2  0  0  0  0  0  0  0  0  0
  -38.4680   35.4530  -10.1620 C   0  0  0  0  0  0  0  0  0  0  0  0
  -37.9740   36.3460  -10.8350 O   0  0  0  0  0  0  0  0  0  0  0  0
  -37.2950   33.2480  -10.1820 C   0  0  0  0  0  0  0  0  0  0  0  0
  -36.3300   33.3500  -11.3130 C   0  0  0  0  0  0  0  0  0  0  0  0
  -37.1610   33.4650  -12.5890 C   0  0  0  0  0  0  0  0  0  0  0  0
  -38.9700   35.6310   -8.9550 N   0  0  0  0  0  0  0  0  0  0  0  0
  -38.8170   36.8890   -8.2030 C   0  0  2  0  0  0  0  0  0  0  0  0
  -37.3750   37.0670   -7.7490 C   0  0  0  0  0  0  0  0  0  0  0  0
  -36.6280   36.0840   -7.6030 O   0  0  0  0  0  0  0  0  0  0  0  0
  -39.7360   36.9410   -6.9760 C   0  0  0  0  0  0  0  0  0  0  0  0
  -39.3810   35.9260   -5.8890 C   0  0  0  0  0  0  0  0  0  0  0  0
  -40.2850   36.0300   -4.6660 C   0  0  0  0  0  0  0  0  0  0  0  0
  -39.6630   36.8400   -3.6210 N   0  0  0  0  0  0  0  0  0  0  0  0
  -38.5480   36.5020   -2.9690 C   0  0  0  0  0  3  0  0  0  0  0  0
  -37.9190   35.3600   -3.2510 N   0  0  0  0  0  0  0  0  0  0  0  0
  -38.0540   37.3140   -2.0380 N   0  0  0  0  0  0  0  0  0  0  0  0
  -36.9670   38.3280   -7.5260 N   0  0  0  0  0  0  0  0  0  0  0  0
  -35.6090   38.5060   -7.0430 C   0  0  2  0  0  0  0  0  0  0  0  0
  -35.4480   38.1300   -5.5970 C   0  0  0  0  0  0  0  0  0  0  0  0
  -36.3920   38.1900   -4.8000 O   0  0  0  0  0  0  0  0  0  0  0  0
  -35.3330   40.0050   -7.2410 C   0  0  0  0  0  0  0  0  0  0  0  0
  -36.4640   40.5250   -8.0910 C   0  0  0  0  0  0  0  0  0  0  0  0
  -37.6150   39.6010   -7.8740 C   0  0  0  0  0  0  0  0  0  0  0  0
  -34.2250   37.7020   -5.3290 N   0  0  0  0  0  0  0  0  0  0  0  0
  -33.7110   37.3930   -3.9940 C   0  0  2  0  0  0  0  0  0  0  0  0
  -34.2740   36.0850   -3.4910 C   0  0  0  0  0  0  0  0  0  0  0  0
  -33.6550   35.0420   -3.6860 O   0  0  0  0  0  0  0  0  0  0  0  0
  -34.0120   38.4920   -2.9610 C   0  0  2  0  0  0  0  0  0  0  0  0
  -33.7340   39.7870   -3.5190 O   0  0  0  0  0  0  0  0  0  0  0  0
  -33.1410   38.2820   -1.7290 C   0  0  0  0  0  0  0  0  0  0  0  0
  -44.5454   26.2748  -24.1512 H   0  0  0  0  0  0  0  0  0  0  0  0
  -45.1991   27.2735  -23.0177 H   0  0  0  0  0  0  0  0  0  0  0  0
  -43.5672   27.2229  -23.2273 H   0  0  0  0  0  0  0  0  0  0  0  0
  -43.7495   28.1436  -25.4516 H   0  0  0  0  0  0  0  0  0  0  0  0
  -46.6949   28.2369  -24.6571 H   0  0  0  0  0  0  0  0  0  0  0  0
  -45.9639   27.2697  -25.9826 H   0  0  0  0  0  0  0  0  0  0  0  0
  -45.1941   29.5220  -26.9684 H   0  0  0  0  0  0  0  0  0  0  0  0
  -46.3303   30.2821  -25.8031 H   0  0  0  0  0  0  0  0  0  0  0  0
  -47.4134   29.9751  -27.9803 H   0  0  0  0  0  0  0  0  0  0  0  0
  -48.1818   28.9242  -26.7426 H   0  0  0  0  0  0  0  0  0  0  0  0
  -47.1763   26.9766  -27.6013 H   0  0  0  0  0  0  0  0  0  0  0  0
  -45.9530   27.9085  -28.5297 H   0  0  0  0  0  0  0  0  0  0  0  0
  -47.7024   27.0635  -29.9450 H   0  0  0  0  0  0  0  0  0  0  0  0
  -47.7370   28.7091  -29.9315 H   0  0  0  0  0  0  0  0  0  0  0  0
  -48.8580   27.8552  -29.0807 H   0  0  0  0  0  0  0  0  0  0  0  0
  -45.9631   29.0996  -22.8247 H   0  0  0  0  0  0  0  0  0  0  0  0
  -44.5151   31.6939  -22.5523 H   0  0  0  0  0  0  0  0  0  0  0  0
  -47.0173   30.7223  -21.0973 H   0  0  0  0  0  0  0  0  0  0  0  0
  -46.9854   31.8055  -22.5299 H   0  0  0  0  0  0  0  0  0  0  0  0
  -45.8744   32.4080  -19.7563 H   0  0  0  0  0  0  0  0  0  0  0  0
  -45.4501   34.6792  -20.6353 H   0  0  0  0  0  0  0  0  0  0  0  0
  -45.9418   34.1263  -22.2721 H   0  0  0  0  0  0  0  0  0  0  0  0
  -44.4859   33.4257  -21.4871 H   0  0  0  0  0  0  0  0  0  0  0  0
  -48.3656   32.5008  -19.8769 H   0  0  0  0  0  0  0  0  0  0  0  0
  -48.2474   33.6659  -21.2389 H   0  0  0  0  0  0  0  0  0  0  0  0
  -47.6404   34.1225  -19.6111 H   0  0  0  0  0  0  0  0  0  0  0  0
  -42.6923   31.4155  -21.5112 H   0  0  0  0  0  0  0  0  0  0  0  0
  -42.5588   29.6353  -19.1682 H   0  0  0  0  0  0  0  0  0  0  0  0
  -40.1028   30.4331  -19.1795 H   0  0  0  0  0  0  0  0  0  0  0  0
  -40.4952   31.1735  -20.7684 H   0  0  0  0  0  0  0  0  0  0  0  0
  -40.3097   27.9841  -18.8920 H   0  0  0  0  0  0  0  0  0  0  0  0
  -40.7882   29.8056  -22.7157 H   0  0  0  0  0  0  0  0  0  0  0  0
  -39.9688   25.7971  -19.9742 H   0  0  0  0  0  0  0  0  0  0  0  0
  -40.4644   27.6302  -23.7977 H   0  0  0  0  0  0  0  0  0  0  0  0
  -39.8876   24.6962  -21.8783 H   0  0  0  0  0  0  0  0  0  0  0  0
  -41.5301   30.2878  -17.1624 H   0  0  0  0  0  0  0  0  0  0  0  0
  -42.6599   33.0039  -16.5603 H   0  0  0  0  0  0  0  0  0  0  0  0
  -43.3565   32.1885  -14.3876 H   0  0  0  0  0  0  0  0  0  0  0  0
  -42.5817   30.5966  -14.6917 H   0  0  0  0  0  0  0  0  0  0  0  0
  -44.1859   30.1896  -16.5758 H   0  0  0  0  0  0  0  0  0  0  0  0
  -45.5725   31.2324  -14.0313 H   0  0  0  0  0  0  0  0  0  0  0  0
  -44.7050   29.6612  -14.1052 H   0  0  0  0  0  0  0  0  0  0  0  0
  -47.0667   29.2494  -14.5419 H   0  0  0  0  0  0  0  0  0  0  0  0
  -46.1692   29.0466  -16.0846 H   0  0  0  0  0  0  0  0  0  0  0  0
  -47.5935   31.6055  -15.1599 H   0  0  0  0  0  0  0  0  0  0  0  0
  -48.1951   30.4658  -16.4112 H   0  0  0  0  0  0  0  0  0  0  0  0
  -47.0011   32.4198  -17.4184 H   0  0  0  0  0  0  0  0  0  0  0  0
  -46.1735   30.8657  -17.7744 H   0  0  0  0  0  0  0  0  0  0  0  0
  -44.5743   32.6492  -17.0711 H   0  0  0  0  0  0  0  0  0  0  0  0
  -45.4396   32.7801  -15.5023 H   0  0  0  0  0  0  0  0  0  0  0  0
  -41.6538   33.9911  -14.6355 H   0  0  0  0  0  0  0  0  0  0  0  0
  -38.6957   33.5524  -14.5567 H   0  0  0  0  0  0  0  0  0  0  0  0
  -38.6235   36.0641  -14.1846 H   0  0  0  0  0  0  0  0  0  0  0  0
  -40.3614   36.0913  -14.6380 H   0  0  0  0  0  0  0  0  0  0  0  0
  -39.7781   35.1906  -16.8608 H   0  0  0  0  0  0  0  0  0  0  0  0
  -38.7044   37.2653  -17.7096 H   0  0  0  0  0  0  0  0  0  0  0  0
  -38.2424   37.7080  -16.0312 H   0  0  0  0  0  0  0  0  0  0  0  0
  -39.9763   37.6253  -16.4933 H   0  0  0  0  0  0  0  0  0  0  0  0
  -37.7468   33.9839  -16.1954 H   0  0  0  0  0  0  0  0  0  0  0  0
  -36.9169   35.5485  -15.8959 H   0  0  0  0  0  0  0  0  0  0  0  0
  -37.4365   35.1114  -17.5589 H   0  0  0  0  0  0  0  0  0  0  0  0
  -39.4521   33.5506  -10.2450 H   0  0  0  0  0  0  0  0  0  0  0  0
  -37.5415   32.1954   -9.9786 H   0  0  0  0  0  0  0  0  0  0  0  0
  -36.8766   33.7085   -9.2749 H   0  0  0  0  0  0  0  0  0  0  0  0
  -35.6962   32.4518  -11.3529 H   0  0  0  0  0  0  0  0  0  0  0  0
  -35.6963   34.2409  -11.1916 H   0  0  0  0  0  0  0  0  0  0  0  0
  -36.7536   34.2393  -13.2557 H   0  0  0  0  0  0  0  0  0  0  0  0
  -37.1979   32.5039  -13.1227 H   0  0  0  0  0  0  0  0  0  0  0  0
  -39.4764   34.8795   -8.5320 H   0  0  0  0  0  0  0  0  0  0  0  0
  -39.0821   37.7215   -8.8713 H   0  0  0  0  0  0  0  0  0  0  0  0
  -40.7667   36.7464   -7.3074 H   0  0  0  0  0  0  0  0  0  0  0  0
  -39.6750   37.9493   -6.5407 H   0  0  0  0  0  0  0  0  0  0  0  0
  -38.3415   36.0982   -5.5733 H   0  0  0  0  0  0  0  0  0  0  0  0
  -39.4737   34.9138   -6.3095 H   0  0  0  0  0  0  0  0  0  0  0  0
  -40.4754   35.0205   -4.2728 H   0  0  0  0  0  0  0  0  0  0  0  0
  -41.2375   36.4942   -4.9614 H   0  0  0  0  0  0  0  0  0  0  0  0
  -40.1148   37.7311   -3.3707 H   0  0  0  0  0  0  0  0  0  0  0  0
  -37.0593   35.1066   -2.7434 H   0  0  0  0  0  0  0  0  0  0  0  0
  -38.2930   34.7316   -3.9764 H   0  0  0  0  0  0  0  0  0  0  0  0
  -38.5358   38.1970   -1.8165 H   0  0  0  0  0  0  0  0  0  0  0  0
  -37.1897   37.0596   -1.5388 H   0  0  0  0  0  0  0  0  0  0  0  0
  -34.9135   37.9031   -7.6452 H   0  0  0  0  0  0  0  0  0  0  0  0
  -34.3707   40.1524   -7.7530 H   0  0  0  0  0  0  0  0  0  0  0  0
  -35.3150   40.5222   -6.2703 H   0  0  0  0  0  0  0  0  0  0  0  0
  -36.1727   40.5268   -9.1517 H   0  0  0  0  0  0  0  0  0  0  0  0
  -36.7329   41.5461   -7.7828 H   0  0  0  0  0  0  0  0  0  0  0  0
  -38.2547   39.9550   -7.0521 H   0  0  0  0  0  0  0  0  0  0  0  0
  -38.2166   39.4995   -8.7893 H   0  0  0  0  0  0  0  0  0  0  0  0
  -33.6014   37.5798   -6.1011 H   0  0  0  0  0  0  0  0  0  0  0  0
  -32.6185   37.2931   -4.0741 H   0  0  0  0  0  0  0  0  0  0  0  0
  -35.2236   36.0666   -2.9583 H   0  0  0  0  0  0  0  0  0  0  0  0
  -35.0725   38.4394   -2.6737 H   0  0  0  0  0  0  0  0  0  0  0  0
  -33.9236   40.4566   -2.8723 H   0  0  0  0  0  0  0  0  0  0  0  0
  -33.3559   39.0678   -0.9898 H   0  0  0  0  0  0  0  0  0  0  0  0
  -32.0805   38.3298   -2.0172 H   0  0  0  0  0  0  0  0  0  0  0  0
  -33.3577   37.2968   -1.2903 H   0  0  0  0  0  0  0  0  0  0  0  0
  1  2  1  0  0  0  0
  1 81  1  0  0  0  0
  1 82  1  0  0  0  0
  1 83  1  0  0  0  0
  2  3  1  0  0  0  0
  2  5  1  0  0  0  0
  2 84  1  6  0  0  0
  3  4  2  0  0  0  0
  3 10  1  0  0  0  0
  5  6  1  0  0  0  0
  5 85  1  0  0  0  0
  5 86  1  0  0  0  0
  6  7  1  0  0  0  0
  6 87  1  0  0  0  0
  6 88  1  0  0  0  0
  7  8  1  0  0  0  0
  7 89  1  0  0  0  0
  7 90  1  0  0  0  0
  8  9  1  0  0  0  0
  8 91  1  0  0  0  0
  8 92  1  0  0  0  0
  9 93  1  0  0  0  0
  9 94  1  0  0  0  0
  9 95  1  0  0  0  0
 10 11  1  0  0  0  0
 10 96  1  0  0  0  0
 11 12  1  0  0  0  0
 11 14  1  0  0  0  0
 11 97  1  6  0  0  0
 12 13  2  0  0  0  0
 12 18  1  0  0  0  0
 14 15  1  0  0  0  0
 14 98  1  0  0  0  0
 14 99  1  0  0  0  0
 15 16  1  0  0  0  0
 15 17  1  0  0  0  0
 15100  1  0  0  0  0
 16101  1  0  0  0  0
 16102  1  0  0  0  0
 16103  1  0  0  0  0
 17104  1  0  0  0  0
 17105  1  0  0  0  0
 17106  1  0  0  0  0
 18 19  1  0  0  0  0
 18107  1  0  0  0  0
 19 20  1  0  0  0  0
 19 22  1  0  0  0  0
 19108  1  1  0  0  0
 20 21  2  0  0  0  0
 20 30  1  0  0  0  0
 22 23  1  0  0  0  0
 22109  1  0  0  0  0
 22110  1  0  0  0  0
 23 24  2  0  0  0  0
 23 25  1  0  0  0  0
 24 26  1  0  0  0  0
 24111  1  0  0  0  0
 25 27  2  0  0  0  0
 25112  1  0  0  0  0
 26 28  2  0  0  0  0
 26113  1  0  0  0  0
 27 28  1  0  0  0  0
 27114  1  0  0  0  0
 28 29  1  0  0  0  0
 29115  1  0  0  0  0
 30 31  1  0  0  0  0
 30116  1  0  0  0  0
 31 32  1  0  0  0  0
 31 34  1  0  0  0  0
 31117  1  6  0  0  0
 32 33  2  0  0  0  0
 32 41  1  0  0  0  0
 34 35  1  0  0  0  0
 34118  1  0  0  0  0
 34119  1  0  0  0  0
 35 36  1  0  0  0  0
 35 40  1  0  0  0  0
 35120  1  0  0  0  0
 36 37  1  0  0  0  0
 36121  1  0  0  0  0
 36122  1  0  0  0  0
 37 38  1  0  0  0  0
 37123  1  0  0  0  0
 37124  1  0  0  0  0
 38 39  1  0  0  0  0
 38125  1  0  0  0  0
 38126  1  0  0  0  0
 39 40  1  0  0  0  0
 39127  1  0  0  0  0
 39128  1  0  0  0  0
 40129  1  0  0  0  0
 40130  1  0  0  0  0
 41 42  1  0  0  0  0
 41131  1  0  0  0  0
 42 43  1  0  0  0  0
 42 45  1  0  0  0  0
 42132  1  6  0  0  0
 43 44  2  0  0  0  0
 43 49  1  0  0  0  0
 45 46  1  0  0  0  0
 45133  1  0  0  0  0
 45134  1  0  0  0  0
 46 47  1  0  0  0  0
 46 48  1  0  0  0  0
 46135  1  0  0  0  0
 47136  1  0  0  0  0
 47137  1  0  0  0  0
 47138  1  0  0  0  0
 48139  1  0  0  0  0
 48140  1  0  0  0  0
 48141  1  0  0  0  0
 49 50  1  0  0  0  0
 49 55  1  0  0  0  0
 50 51  1  0  0  0  0
 50 53  1  0  0  0  0
 50142  1  1  0  0  0
 51 52  2  0  0  0  0
 51 56  1  0  0  0  0
 53 54  1  0  0  0  0
 53143  1  0  0  0  0
 53144  1  0  0  0  0
 54 55  1  0  0  0  0
 54145  1  0  0  0  0
 54146  1  0  0  0  0
 55147  1  0  0  0  0
 55148  1  0  0  0  0
 56 57  1  0  0  0  0
 56149  1  0  0  0  0
 57 58  1  0  0  0  0
 57 60  1  0  0  0  0
 57150  1  6  0  0  0
 58 59  2  0  0  0  0
 58 67  1  0  0  0  0
 60 61  1  0  0  0  0
 60151  1  0  0  0  0
 60152  1  0  0  0  0
 61 62  1  0  0  0  0
 61153  1  0  0  0  0
 61154  1  0  0  0  0
 62 63  1  0  0  0  0
 62155  1  0  0  0  0
 62156  1  0  0  0  0
 63 64  1  0  0  0  0
 63157  1  0  0  0  0
 64 65  1  0  0  0  0
 64 66  1  0  0  0  0
 65158  1  0  0  0  0
 65159  1  0  0  0  0
 66160  1  0  0  0  0
 66161  1  0  0  0  0
 67 68  1  0  0  0  0
 67 73  1  0  0  0  0
 68 69  1  0  0  0  0
 68 71  1  0  0  0  0
 68162  1  6  0  0  0
 69 70  2  0  0  0  0
 69 74  1  0  0  0  0
 71 72  1  0  0  0  0
 71163  1  0  0  0  0
 71164  1  0  0  0  0
 72 73  1  0  0  0  0
 72165  1  0  0  0  0
 72166  1  0  0  0  0
 73167  1  0  0  0  0
 73168  1  0  0  0  0
 74 75  1  0  0  0  0
 74169  1  0  0  0  0
 75 76  1  0  0  0  0
 75 78  1  0  0  0  0
 75170  1  6  0  0  0
 76 77  2  0  0  0  0
 76171  1  0  0  0  0
 78 79  1  0  0  0  0
 78 80  1  0  0  0  0
 78172  1  1  0  0  0
 79173  1  0  0  0  0
 80174  1  0  0  0  0
 80175  1  0  0  0  0
 80176  1  0  0  0  0
M  CHG  2   1   1   9   1
M  END
