3drp_ligand
 OpenBabel08222323343D

 42 45  0  0  0  0  0  0  0  0999 V2000
   13.0190   11.9830   15.4960 Cl  0  0  0  0  0  0  0  0  0  0  0  0
   11.3250   12.3690   15.1180 C   0  0  0  0  0  0  0  0  0  0  0  0
   10.5430   12.2520   16.1620 C   0  0  0  0  0  0  0  0  0  0  0  0
   11.2340   11.9040   17.2670 O   0  0  0  0  0  0  0  0  0  0  0  0
   10.8940   12.5120   18.4920 C   0  0  0  0  0  0  0  0  0  0  0  0
   10.4590   11.6940   19.5590 C   0  0  0  0  0  0  0  0  0  0  0  0
   10.1010   12.2370   20.7920 C   0  0  0  0  0  0  0  0  0  0  0  0
    9.7680   11.4910   21.7840 C   0  0  0  0  0  0  0  0  0  0  0  0
    9.4830   10.8500   22.6380 N   0  0  0  0  0  0  0  0  0  0  0  0
   10.9420   13.9140   18.6470 C   0  0  0  0  0  0  0  0  0  0  0  0
   10.5810   14.4390   19.9220 C   0  0  0  0  0  0  0  0  0  0  0  0
   10.6090   16.1840   20.2970 Cl  0  0  0  0  0  0  0  0  0  0  0  0
   10.1750   13.6450   20.9950 C   0  0  0  0  0  0  0  0  0  0  0  0
   10.8900   12.7720   13.8970 C   0  0  0  0  0  0  0  0  0  0  0  0
    9.5550   13.0510   13.8650 C   0  0  0  0  0  0  0  0  0  0  0  0
    8.7310   12.9360   14.9050 C   0  0  0  0  0  0  0  0  0  0  0  0
    9.1780   12.5060   16.0970 C   0  0  0  0  0  0  0  0  0  0  0  0
    7.4210   13.2700   14.7690 O   0  0  0  0  0  0  0  0  0  0  0  0
    6.6560   13.1210   13.6150 C   0  0  0  0  0  0  0  0  0  0  0  0
    6.6020   11.6260   13.5530 C   0  0  0  0  0  0  0  0  0  0  0  0
    6.8550   10.9040   12.4500 N   0  0  0  0  0  0  0  0  0  0  0  0
    6.7180    9.5560   12.8370 N   0  0  0  0  0  0  0  0  0  0  0  0
    6.3820    9.3850   14.0850 C   0  0  0  0  0  0  0  0  0  0  0  0
    6.1500    8.2880   14.8010 N   0  0  0  0  0  0  0  0  0  0  0  0
    5.8060    8.3490   16.1080 C   0  0  0  0  0  0  0  0  0  0  0  0
    5.6010    7.0530   16.7920 N   0  0  0  0  0  0  0  0  0  0  0  0
    5.6760    9.5640   16.7650 C   0  0  0  0  0  0  0  0  0  0  0  0
    5.9270   10.7390   16.0250 C   0  0  0  0  0  0  0  0  0  0  0  0
    6.2770   10.6300   14.6620 C   0  0  0  0  0  0  0  0  0  0  0  0
   10.4025   10.6210   19.4156 H   0  0  0  0  0  0  0  0  0  0  0  0
   11.2404   14.5633   17.8319 H   0  0  0  0  0  0  0  0  0  0  0  0
    9.9238   14.0857   21.9530 H   0  0  0  0  0  0  0  0  0  0  0  0
   11.5388   12.8631   13.0334 H   0  0  0  0  0  0  0  0  0  0  0  0
    9.1346   13.3908   12.9254 H   0  0  0  0  0  0  0  0  0  0  0  0
    8.5206   12.3670   16.9477 H   0  0  0  0  0  0  0  0  0  0  0  0
    7.1533   13.5515   12.7333 H   0  0  0  0  0  0  0  0  0  0  0  0
    5.6554   13.5645   13.7247 H   0  0  0  0  0  0  0  0  0  0  0  0
    7.0986   11.2611   11.5151 H   0  0  0  0  0  0  0  0  0  0  0  0
    5.3377    7.0321   17.7876 H   0  0  0  0  0  0  0  0  0  0  0  0
    5.7216    6.1718   16.2726 H   0  0  0  0  0  0  0  0  0  0  0  0
    5.3916    9.6091   17.8101 H   0  0  0  0  0  0  0  0  0  0  0  0
    5.8520   11.7120   16.4969 H   0  0  0  0  0  0  0  0  0  0  0  0
  1  2  1  0  0  0  0
  2  3  2  0  0  0  0
  2 14  1  0  0  0  0
  3  4  1  0  0  0  0
  3 17  1  0  0  0  0
  4  5  1  0  0  0  0
  5  6  2  0  0  0  0
  5 10  1  0  0  0  0
  6  7  1  0  0  0  0
  6 30  1  0  0  0  0
  7  8  1  0  0  0  0
  7 13  2  0  0  0  0
  8  9  3  0  0  0  0
 10 11  2  0  0  0  0
 10 31  1  0  0  0  0
 11 12  1  0  0  0  0
 11 13  1  0  0  0  0
 13 32  1  0  0  0  0
 14 15  2  0  0  0  0
 14 33  1  0  0  0  0
 15 16  1  0  0  0  0
 15 34  1  0  0  0  0
 16 17  2  0  0  0  0
 16 18  1  0  0  0  0
 17 35  1  0  0  0  0
 18 19  1  0  0  0  0
 19 20  1  0  0  0  0
 19 36  1  0  0  0  0
 19 37  1  0  0  0  0
 20 21  1  0  0  0  0
 20 29  2  0  0  0  0
 21 22  1  0  0  0  0
 21 38  1  0  0  0  0
 22 23  2  0  0  0  0
 23 24  1  0  0  0  0
 23 29  1  0  0  0  0
 24 25  2  0  0  0  0
 25 26  1  0  0  0  0
 25 27  1  0  0  0  0
 26 39  1  0  0  0  0
 26 40  1  0  0  0  0
 27 28  2  0  0  0  0
 27 41  1  0  0  0  0
 28 29  1  0  0  0  0
 28 42  1  0  0  0  0
M  END
