3ds0_ligand
 OpenBabel08222323343D

196199  0  0  1  0  0  0  0  0999 V2000
  -16.1670   -1.5670  -21.2580 N   0  3  0  0  0  0  0  0  0  0  0  0
  -17.6340   -1.3130  -21.1870 C   0  0  2  0  0  0  0  0  0  0  0  0
  -17.8970    0.1360  -21.5760 C   0  0  0  0  0  0  0  0  0  0  0  0
  -16.9630    0.9470  -21.5750 O   0  0  0  0  0  0  0  0  0  0  0  0
  -18.2400   -1.6510  -19.7900 C   0  0  2  0  0  0  0  0  0  0  0  0
  -17.8730   -0.5960  -18.7490 C   0  0  0  0  0  0  0  0  0  0  0  0
  -17.8380   -3.0780  -19.3350 C   0  0  0  0  0  0  0  0  0  0  0  0
  -18.8330   -0.5050  -17.5910 C   0  0  0  0  0  0  0  0  0  0  0  0
  -19.1500    0.4400  -21.9110 N   0  0  0  0  0  0  0  0  0  0  0  0
  -19.5380    1.7620  -22.4050 C   0  0  2  0  0  0  0  0  0  0  0  0
  -20.4580    2.4740  -21.4200 C   0  0  0  0  0  0  0  0  0  0  0  0
  -20.9120    1.8900  -20.4310 O   0  0  0  0  0  0  0  0  0  0  0  0
  -20.3030    1.6490  -23.7340 C   0  0  2  0  0  0  0  0  0  0  0  0
  -21.4600    0.8210  -23.5440 O   0  0  0  0  0  0  0  0  0  0  0  0
  -19.4180    1.0490  -24.8270 C   0  0  0  0  0  0  0  0  0  0  0  0
  -20.7470    3.7390  -21.6940 N   0  0  0  0  0  0  0  0  0  0  0  0
  -21.6480    4.4810  -20.8260 C   0  0  2  0  0  0  0  0  0  0  0  0
  -23.0530    3.8750  -20.8540 C   0  0  0  0  0  0  0  0  0  0  0  0
  -23.7090    3.7860  -19.8070 O   0  0  0  0  0  0  0  0  0  0  0  0
  -21.6720    5.9640  -21.2050 C   0  0  0  0  0  0  0  0  0  0  0  0
  -22.5110    6.8110  -20.2810 C   0  0  0  0  0  0  0  0  0  0  0  0
  -22.3400    6.7620  -18.8950 C   0  0  0  0  0  0  0  0  0  0  0  0
  -23.4600    7.6680  -20.8080 C   0  0  0  0  0  0  0  0  0  0  0  0
  -23.1330    7.5500  -18.0470 C   0  0  0  0  0  0  0  0  0  0  0  0
  -24.2420    8.4580  -19.9700 C   0  0  0  0  0  0  0  0  0  0  0  0
  -24.0730    8.3980  -18.5990 C   0  0  0  0  0  0  0  0  0  0  0  0
  -23.4990    3.4460  -22.0380 N   0  0  0  0  0  0  0  0  0  0  0  0
  -24.7730    2.7220  -22.1590 C   0  0  2  0  0  0  0  0  0  0  0  0
  -24.8610    1.4770  -21.2740 C   0  0  0  0  0  0  0  0  0  0  0  0
  -25.9350    1.1610  -20.7680 O   0  0  0  0  0  0  0  0  0  0  0  0
  -25.0540    2.3740  -23.6150 C   0  0  0  0  0  0  0  0  0  0  0  0
  -25.4180    3.6010  -24.4020 C   0  0  0  0  0  0  0  0  0  0  0  0
  -25.7200    3.3440  -25.8780 C   0  0  0  0  0  0  0  0  0  0  0  0
  -26.1210    2.2220  -26.2530 O   0  5  0  0  0  0  0  0  0  0  0  0
  -25.5820    4.3050  -26.6690 O   0  0  0  0  0  0  0  0  0  0  0  0
  -23.7430    0.7740  -21.0850 N   0  0  0  0  0  0  0  0  0  0  0  0
  -23.6960   -0.3760  -20.1620 C   0  0  2  0  0  0  0  0  0  0  0  0
  -23.9710    0.0700  -18.7250 C   0  0  0  0  0  0  0  0  0  0  0  0
  -24.6850   -0.6250  -17.9960 O   0  0  0  0  0  0  0  0  0  0  0  0
  -22.3520   -1.0930  -20.1990 C   0  0  0  0  0  0  0  0  0  0  0  0
  -22.0590   -1.7280  -21.5450 C   0  0  0  0  0  0  0  0  0  0  0  0
  -23.0120   -2.1250  -22.2490 O   0  5  0  0  0  0  0  0  0  0  0  0
  -20.8730   -1.8560  -21.8890 O   0  0  0  0  0  0  0  0  0  0  0  0
  -23.4260    1.2230  -18.3240 N   0  0  0  0  0  0  0  0  0  0  0  0
  -23.6950    1.7440  -16.9770 C   0  0  2  0  0  0  0  0  0  0  0  0
  -25.1560    2.1300  -16.8430 C   0  0  0  0  0  0  0  0  0  0  0  0
  -25.7800    1.8230  -15.8320 O   0  0  0  0  0  0  0  0  0  0  0  0
  -22.7880    2.9400  -16.6270 C   0  0  0  0  0  0  0  0  0  0  0  0
  -21.2870    2.6140  -16.6210 C   0  0  0  0  0  0  0  0  0  0  0  0
  -20.4520    3.8870  -16.4220 C   0  0  0  0  0  0  0  0  0  0  0  0
  -20.9540    1.5550  -15.5410 C   0  0  0  0  0  0  0  0  0  0  0  0
  -25.6980    2.7690  -17.8750 N   0  0  0  0  0  0  0  0  0  0  0  0
  -27.1070    3.1560  -17.8610 C   0  0  2  0  0  0  0  0  0  0  0  0
  -28.0240    1.9430  -17.7080 C   0  0  0  0  0  0  0  0  0  0  0  0
  -29.0070    1.9940  -16.9410 O   0  0  0  0  0  0  0  0  0  0  0  0
  -27.4610    3.9770  -19.1140 C   0  0  0  0  0  0  0  0  0  0  0  0
  -26.8220    5.3590  -19.2140 C   0  0  0  0  0  0  0  0  0  0  0  0
  -26.9490    5.8910  -20.6400 C   0  0  0  0  0  0  0  0  0  0  0  0
  -27.4520    6.3420  -18.2050 C   0  0  0  0  0  0  0  0  0  0  0  0
  -27.7040    0.8630  -18.4220 N   0  0  0  0  0  0  0  0  0  0  0  0
  -28.4900   -0.3840  -18.3450 C   0  0  2  0  0  0  0  0  0  0  0  0
  -28.3560   -1.0180  -16.9610 C   0  0  0  0  0  0  0  0  0  0  0  0
  -29.3170   -1.5550  -16.3970 O   0  0  0  0  0  0  0  0  0  0  0  0
  -28.0320   -1.3990  -19.4020 C   0  0  0  0  0  0  0  0  0  0  0  0
  -28.4620   -1.0310  -20.8220 C   0  0  0  0  0  0  0  0  0  0  0  0
  -29.2510   -0.0840  -21.0210 O   0  5  0  0  0  0  0  0  0  0  0  0
  -27.9740   -1.7050  -21.7560 O   0  0  0  0  0  0  0  0  0  0  0  0
  -27.1400   -0.9770  -16.4190 N   0  0  0  0  0  0  0  0  0  0  0  0
  -26.8470   -1.6670  -15.1700 C   0  0  2  0  0  0  0  0  0  0  0  0
  -27.5930   -1.0060  -14.0130 C   0  0  0  0  0  0  0  0  0  0  0  0
  -28.2150   -1.6910  -13.1790 O   0  0  0  0  0  0  0  0  0  0  0  0
  -25.3390   -1.6350  -14.9280 C   0  0  0  0  0  0  0  0  0  0  0  0
  -24.8550   -2.4960  -13.7850 C   0  0  0  0  0  0  0  0  0  0  0  0
  -24.6430   -3.8630  -13.9570 C   0  0  0  0  0  0  0  0  0  0  0  0
  -24.5400   -1.9360  -12.5490 C   0  0  0  0  0  0  0  0  0  0  0  0
  -24.1680   -4.6500  -12.9030 C   0  0  0  0  0  0  0  0  0  0  0  0
  -24.0670   -2.7150  -11.4900 C   0  0  0  0  0  0  0  0  0  0  0  0
  -23.8790   -4.0690  -11.6690 C   0  0  0  0  0  0  0  0  0  0  0  0
  -23.4150   -4.8550  -10.6110 O   0  0  0  0  0  0  0  0  0  0  0  0
  -27.5560    0.3190  -13.9730 N   0  0  0  0  0  0  0  0  0  0  0  0
  -28.1380    1.0530  -12.8420 C   0  0  2  0  0  0  0  0  0  0  0  0
  -29.5560    1.5630  -13.0840 C   0  0  0  0  0  0  0  0  0  0  0  0
  -30.2350    1.9990  -12.1390 O   0  0  0  0  0  0  0  0  0  0  0  0
  -27.2260    2.2160  -12.4430 C   0  0  0  0  0  0  0  0  0  0  0  0
  -25.9180    1.7770  -11.8420 C   0  0  0  0  0  0  0  0  0  0  0  0
  -24.7170    1.9790  -12.5280 C   0  0  0  0  0  0  0  0  0  0  0  0
  -25.8670    1.1450  -10.5920 C   0  0  0  0  0  0  0  0  0  0  0  0
  -23.5060    1.5660  -11.9860 C   0  0  0  0  0  0  0  0  0  0  0  0
  -24.6470    0.7330  -10.0390 C   0  0  0  0  0  0  0  0  0  0  0  0
  -23.4690    0.9580  -10.7500 C   0  0  0  0  0  0  0  0  0  0  0  0
  -22.2450    0.5640  -10.2410 O   0  0  0  0  0  0  0  0  0  0  0  0
  -29.9860    1.5120  -14.3450 N   0  0  0  0  0  0  0  0  0  0  0  0
  -31.2910    2.0360  -14.7780 C   0  0  0  0  0  0  0  0  0  0  0  0
  -32.4040    1.0010  -14.7780 C   0  0  0  0  0  0  0  0  0  0  0  0
  -32.3680    0.0650  -13.9670 O   0  0  0  0  0  0  0  0  0  0  0  0
  -33.3920    1.1240  -15.7020 N   0  0  0  0  0  0  0  0  0  0  0  0
  -33.5540    1.8960  -16.9550 C   0  0  2  0  0  0  0  0  0  0  0  0
  -32.7460    3.1880  -17.1250 C   0  0  0  0  0  0  0  0  0  0  0  0
  -31.9380    3.3050  -18.0650 O   0  5  0  0  0  0  0  0  0  0  0  0
  -35.0530    2.2020  -16.9660 C   0  0  0  0  0  0  0  0  0  0  0  0
  -35.6680    0.9930  -16.3240 C   0  0  0  0  0  0  0  0  0  0  0  0
  -34.6210    0.3620  -15.4070 C   0  0  0  0  0  0  0  0  0  0  0  0
  -32.8930    4.1530  -16.3610 O   0  0  0  0  0  0  0  0  0  0  0  0
  -15.8296   -1.3326  -22.1785 H   0  0  0  0  0  0  0  0  0  0  0  0
  -15.9851   -2.5407  -21.0714 H   0  0  0  0  0  0  0  0  0  0  0  0
  -15.6941   -0.9994  -20.5722 H   0  0  0  0  0  0  0  0  0  0  0  0
  -18.1271   -1.9624  -21.9253 H   0  0  0  0  0  0  0  0  0  0  0  0
  -19.3349   -1.6377  -19.8951 H   0  0  0  0  0  0  0  0  0  0  0  0
  -17.8419    0.3838  -19.2480 H   0  0  0  0  0  0  0  0  0  0  0  0
  -16.8761   -0.8369  -18.3514 H   0  0  0  0  0  0  0  0  0  0  0  0
  -18.1199   -3.8036  -20.1121 H   0  0  0  0  0  0  0  0  0  0  0  0
  -18.3582   -3.3241  -18.3976 H   0  0  0  0  0  0  0  0  0  0  0  0
  -16.7508   -3.1185  -19.1727 H   0  0  0  0  0  0  0  0  0  0  0  0
  -18.4937    0.2754  -16.8940 H   0  0  0  0  0  0  0  0  0  0  0  0
  -18.8701   -1.4723  -17.0685 H   0  0  0  0  0  0  0  0  0  0  0  0
  -19.8359   -0.2516  -17.9651 H   0  0  0  0  0  0  0  0  0  0  0  0
  -19.8545   -0.2640  -21.8213 H   0  0  0  0  0  0  0  0  0  0  0  0
  -18.6284    2.3621  -22.5550 H   0  0  0  0  0  0  0  0  0  0  0  0
  -20.6238    2.6533  -24.0477 H   0  0  0  0  0  0  0  0  0  0  0  0
  -21.1864   -0.0429  -23.2586 H   0  0  0  0  0  0  0  0  0  0  0  0
  -19.9893    0.9799  -25.7645 H   0  0  0  0  0  0  0  0  0  0  0  0
  -19.0899    0.0442  -24.5227 H   0  0  0  0  0  0  0  0  0  0  0  0
  -18.5383    1.6913  -24.9802 H   0  0  0  0  0  0  0  0  0  0  0  0
  -20.3462    4.1820  -22.4960 H   0  0  0  0  0  0  0  0  0  0  0  0
  -21.2678    4.4027  -19.7968 H   0  0  0  0  0  0  0  0  0  0  0  0
  -22.0765    6.0559  -22.2238 H   0  0  0  0  0  0  0  0  0  0  0  0
  -20.6402    6.3447  -21.1844 H   0  0  0  0  0  0  0  0  0  0  0  0
  -21.5867    6.1083  -18.4704 H   0  0  0  0  0  0  0  0  0  0  0  0
  -23.5959    7.7250  -21.8819 H   0  0  0  0  0  0  0  0  0  0  0  0
  -23.0093    7.4938  -16.9715 H   0  0  0  0  0  0  0  0  0  0  0  0
  -24.9861    9.1226  -20.3938 H   0  0  0  0  0  0  0  0  0  0  0  0
  -24.6821    9.0204  -17.9534 H   0  0  0  0  0  0  0  0  0  0  0  0
  -22.9552    3.6209  -22.8588 H   0  0  0  0  0  0  0  0  0  0  0  0
  -25.5647    3.4083  -21.8241 H   0  0  0  0  0  0  0  0  0  0  0  0
  -25.8879    1.6580  -23.6591 H   0  0  0  0  0  0  0  0  0  0  0  0
  -24.1553    1.9178  -24.0556 H   0  0  0  0  0  0  0  0  0  0  0  0
  -24.5781    4.3088  -24.3419 H   0  0  0  0  0  0  0  0  0  0  0  0
  -26.3104    4.0510  -23.9426 H   0  0  0  0  0  0  0  0  0  0  0  0
  -22.9150    1.0334  -21.5821 H   0  0  0  0  0  0  0  0  0  0  0  0
  -24.4776   -1.0876  -20.4663 H   0  0  0  0  0  0  0  0  0  0  0  0
  -22.3534   -1.8813  -19.4319 H   0  0  0  0  0  0  0  0  0  0  0  0
  -21.5591   -0.3644  -19.9746 H   0  0  0  0  0  0  0  0  0  0  0  0
  -22.8315    1.7340  -18.9448 H   0  0  0  0  0  0  0  0  0  0  0  0
  -23.4851    0.9399  -16.2563 H   0  0  0  0  0  0  0  0  0  0  0  0
  -23.0659    3.3020  -15.6262 H   0  0  0  0  0  0  0  0  0  0  0  0
  -22.9650    3.7347  -17.3666 H   0  0  0  0  0  0  0  0  0  0  0  0
  -21.0284    2.1893  -17.6022 H   0  0  0  0  0  0  0  0  0  0  0  0
  -19.3830    3.6279  -16.4214 H   0  0  0  0  0  0  0  0  0  0  0  0
  -20.7169    4.3529  -15.4614 H   0  0  0  0  0  0  0  0  0  0  0  0
  -20.6578    4.5922  -17.2407 H   0  0  0  0  0  0  0  0  0  0  0  0
  -21.5656    0.6561  -15.7081 H   0  0  0  0  0  0  0  0  0  0  0  0
  -21.1718    1.9666  -14.5444 H   0  0  0  0  0  0  0  0  0  0  0  0
  -19.8882    1.2901  -15.6035 H   0  0  0  0  0  0  0  0  0  0  0  0
  -25.1341    2.9877  -18.6714 H   0  0  0  0  0  0  0  0  0  0  0  0
  -27.2655    3.8016  -16.9846 H   0  0  0  0  0  0  0  0  0  0  0  0
  -28.5528    4.1096  -19.1315 H   0  0  0  0  0  0  0  0  0  0  0  0
  -27.1479    3.3975  -19.9950 H   0  0  0  0  0  0  0  0  0  0  0  0
  -25.7528    5.2622  -18.9744 H   0  0  0  0  0  0  0  0  0  0  0  0
  -26.4860    6.8868  -20.7024 H   0  0  0  0  0  0  0  0  0  0  0  0
  -28.0126    5.9636  -20.9109 H   0  0  0  0  0  0  0  0  0  0  0  0
  -26.4398    5.2058  -21.3337 H   0  0  0  0  0  0  0  0  0  0  0  0
  -27.3488    5.9386  -17.1869 H   0  0  0  0  0  0  0  0  0  0  0  0
  -28.5182    6.4756  -18.4401 H   0  0  0  0  0  0  0  0  0  0  0  0
  -26.9380    7.3124  -18.2687 H   0  0  0  0  0  0  0  0  0  0  0  0
  -26.9086    0.8990  -19.0270 H   0  0  0  0  0  0  0  0  0  0  0  0
  -29.5475   -0.1398  -18.5243 H   0  0  0  0  0  0  0  0  0  0  0  0
  -28.4599   -2.3809  -19.1514 H   0  0  0  0  0  0  0  0  0  0  0  0
  -26.9340   -1.4597  -19.3747 H   0  0  0  0  0  0  0  0  0  0  0  0
  -26.4151   -0.4632  -16.8778 H   0  0  0  0  0  0  0  0  0  0  0  0
  -27.1752   -2.7137  -15.2510 H   0  0  0  0  0  0  0  0  0  0  0  0
  -25.0497   -0.5949  -14.7173 H   0  0  0  0  0  0  0  0  0  0  0  0
  -24.8391   -1.9758  -15.8467 H   0  0  0  0  0  0  0  0  0  0  0  0
  -24.8485   -4.3208  -14.9178 H   0  0  0  0  0  0  0  0  0  0  0  0
  -24.6650   -0.8689  -12.4052 H   0  0  0  0  0  0  0  0  0  0  0  0
  -24.0241   -5.7149  -13.0459 H   0  0  0  0  0  0  0  0  0  0  0  0
  -23.8488   -2.2569  -10.5321 H   0  0  0  0  0  0  0  0  0  0  0  0
  -23.3407   -5.7577  -10.8975 H   0  0  0  0  0  0  0  0  0  0  0  0
  -27.1268    0.8242  -14.7217 H   0  0  0  0  0  0  0  0  0  0  0  0
  -28.1861    0.3539  -11.9941 H   0  0  0  0  0  0  0  0  0  0  0  0
  -27.7564    2.8368  -11.7059 H   0  0  0  0  0  0  0  0  0  0  0  0
  -27.0126    2.8145  -13.3409 H   0  0  0  0  0  0  0  0  0  0  0  0
  -24.7305    2.4649  -13.4969 H   0  0  0  0  0  0  0  0  0  0  0  0
  -26.7862    0.9721  -10.0441 H   0  0  0  0  0  0  0  0  0  0  0  0
  -22.5863    1.7228  -12.5380 H   0  0  0  0  0  0  0  0  0  0  0  0
  -24.6196    0.2457   -9.0711 H   0  0  0  0  0  0  0  0  0  0  0  0
  -22.2471   -0.3765  -10.1066 H   0  0  0  0  0  0  0  0  0  0  0  0
  -29.3906    1.0960  -15.0323 H   0  0  0  0  0  0  0  0  0  0  0  0
  -31.1842    2.4289  -15.7999 H   0  0  0  0  0  0  0  0  0  0  0  0
  -31.5782    2.8526  -14.0993 H   0  0  0  0  0  0  0  0  0  0  0  0
  -33.2955    1.2425  -17.8012 H   0  0  0  0  0  0  0  0  0  0  0  0
  -35.4199    2.3288  -17.9952 H   0  0  0  0  0  0  0  0  0  0  0  0
  -35.2724    3.1093  -16.3841 H   0  0  0  0  0  0  0  0  0  0  0  0
  -35.9696    0.2719  -17.0980 H   0  0  0  0  0  0  0  0  0  0  0  0
  -36.5490    1.2898  -15.7360 H   0  0  0  0  0  0  0  0  0  0  0  0
  -34.9071    0.4728  -14.3507 H   0  0  0  0  0  0  0  0  0  0  0  0
  -34.4868   -0.7045  -15.6406 H   0  0  0  0  0  0  0  0  0  0  0  0
  1  2  1  0  0  0  0
  1104  1  0  0  0  0
  1105  1  0  0  0  0
  1106  1  0  0  0  0
  2  3  1  0  0  0  0
  2  5  1  0  0  0  0
  2107  1  6  0  0  0
  3  4  2  0  0  0  0
  3  9  1  0  0  0  0
  5  6  1  0  0  0  0
  5  7  1  0  0  0  0
  5108  1  6  0  0  0
  6  8  1  0  0  0  0
  6109  1  0  0  0  0
  6110  1  0  0  0  0
  7111  1  0  0  0  0
  7112  1  0  0  0  0
  7113  1  0  0  0  0
  8114  1  0  0  0  0
  8115  1  0  0  0  0
  8116  1  0  0  0  0
  9 10  1  0  0  0  0
  9117  1  0  0  0  0
 10 11  1  0  0  0  0
 10 13  1  0  0  0  0
 10118  1  6  0  0  0
 11 12  2  0  0  0  0
 11 16  1  0  0  0  0
 13 14  1  0  0  0  0
 13 15  1  0  0  0  0
 13119  1  6  0  0  0
 14120  1  0  0  0  0
 15121  1  0  0  0  0
 15122  1  0  0  0  0
 15123  1  0  0  0  0
 16 17  1  0  0  0  0
 16124  1  0  0  0  0
 17 18  1  0  0  0  0
 17 20  1  0  0  0  0
 17125  1  1  0  0  0
 18 19  2  0  0  0  0
 18 27  1  0  0  0  0
 20 21  1  0  0  0  0
 20126  1  0  0  0  0
 20127  1  0  0  0  0
 21 22  2  0  0  0  0
 21 23  1  0  0  0  0
 22 24  1  0  0  0  0
 22128  1  0  0  0  0
 23 25  2  0  0  0  0
 23129  1  0  0  0  0
 24 26  2  0  0  0  0
 24130  1  0  0  0  0
 25 26  1  0  0  0  0
 25131  1  0  0  0  0
 26132  1  0  0  0  0
 27 28  1  0  0  0  0
 27133  1  0  0  0  0
 28 29  1  0  0  0  0
 28 31  1  0  0  0  0
 28134  1  1  0  0  0
 29 30  2  0  0  0  0
 29 36  1  0  0  0  0
 31 32  1  0  0  0  0
 31135  1  0  0  0  0
 31136  1  0  0  0  0
 32 33  1  0  0  0  0
 32137  1  0  0  0  0
 32138  1  0  0  0  0
 33 34  1  0  0  0  0
 33 35  2  0  0  0  0
 36 37  1  0  0  0  0
 36139  1  0  0  0  0
 37 38  1  0  0  0  0
 37 40  1  0  0  0  0
 37140  1  6  0  0  0
 38 39  2  0  0  0  0
 38 44  1  0  0  0  0
 40 41  1  0  0  0  0
 40141  1  0  0  0  0
 40142  1  0  0  0  0
 41 42  1  0  0  0  0
 41 43  2  0  0  0  0
 44 45  1  0  0  0  0
 44143  1  0  0  0  0
 45 46  1  0  0  0  0
 45 48  1  0  0  0  0
 45144  1  1  0  0  0
 46 47  2  0  0  0  0
 46 52  1  0  0  0  0
 48 49  1  0  0  0  0
 48145  1  0  0  0  0
 48146  1  0  0  0  0
 49 50  1  0  0  0  0
 49 51  1  0  0  0  0
 49147  1  0  0  0  0
 50148  1  0  0  0  0
 50149  1  0  0  0  0
 50150  1  0  0  0  0
 51151  1  0  0  0  0
 51152  1  0  0  0  0
 51153  1  0  0  0  0
 52 53  1  0  0  0  0
 52154  1  0  0  0  0
 53 54  1  0  0  0  0
 53 56  1  0  0  0  0
 53155  1  1  0  0  0
 54 55  2  0  0  0  0
 54 60  1  0  0  0  0
 56 57  1  0  0  0  0
 56156  1  0  0  0  0
 56157  1  0  0  0  0
 57 58  1  0  0  0  0
 57 59  1  0  0  0  0
 57158  1  0  0  0  0
 58159  1  0  0  0  0
 58160  1  0  0  0  0
 58161  1  0  0  0  0
 59162  1  0  0  0  0
 59163  1  0  0  0  0
 59164  1  0  0  0  0
 60 61  1  0  0  0  0
 60165  1  0  0  0  0
 61 62  1  0  0  0  0
 61 64  1  0  0  0  0
 61166  1  6  0  0  0
 62 63  2  0  0  0  0
 62 68  1  0  0  0  0
 64 65  1  0  0  0  0
 64167  1  0  0  0  0
 64168  1  0  0  0  0
 65 66  1  0  0  0  0
 65 67  2  0  0  0  0
 68 69  1  0  0  0  0
 68169  1  0  0  0  0
 69 70  1  0  0  0  0
 69 72  1  0  0  0  0
 69170  1  6  0  0  0
 70 71  2  0  0  0  0
 70 80  1  0  0  0  0
 72 73  1  0  0  0  0
 72171  1  0  0  0  0
 72172  1  0  0  0  0
 73 74  2  0  0  0  0
 73 75  1  0  0  0  0
 74 76  1  0  0  0  0
 74173  1  0  0  0  0
 75 77  2  0  0  0  0
 75174  1  0  0  0  0
 76 78  2  0  0  0  0
 76175  1  0  0  0  0
 77 78  1  0  0  0  0
 77176  1  0  0  0  0
 78 79  1  0  0  0  0
 79177  1  0  0  0  0
 80 81  1  0  0  0  0
 80178  1  0  0  0  0
 81 82  1  0  0  0  0
 81 84  1  0  0  0  0
 81179  1  1  0  0  0
 82 83  2  0  0  0  0
 82 92  1  0  0  0  0
 84 85  1  0  0  0  0
 84180  1  0  0  0  0
 84181  1  0  0  0  0
 85 86  2  0  0  0  0
 85 87  1  0  0  0  0
 86 88  1  0  0  0  0
 86182  1  0  0  0  0
 87 89  2  0  0  0  0
 87183  1  0  0  0  0
 88 90  2  0  0  0  0
 88184  1  0  0  0  0
 89 90  1  0  0  0  0
 89185  1  0  0  0  0
 90 91  1  0  0  0  0
 91186  1  0  0  0  0
 92 93  1  0  0  0  0
 92187  1  0  0  0  0
 93 94  1  0  0  0  0
 93188  1  0  0  0  0
 93189  1  0  0  0  0
 94 95  2  0  0  0  0
 94 96  1  0  0  0  0
 96 97  1  0  0  0  0
 96102  1  0  0  0  0
 97 98  1  0  0  0  0
 97100  1  0  0  0  0
 97190  1  6  0  0  0
 98 99  1  0  0  0  0
 98103  2  0  0  0  0
100101  1  0  0  0  0
100191  1  0  0  0  0
100192  1  0  0  0  0
101102  1  0  0  0  0
101193  1  0  0  0  0
101194  1  0  0  0  0
102195  1  0  0  0  0
102196  1  0  0  0  0
M  CHG  5   1   1  34  -1  42  -1  66  -1  99  -1
M  END
