3dsu_ligand
 OpenBabel08222323343D

 49 48  0  0  0  0  0  0  0  0999 V2000
    8.1360   17.4420   20.3000 C   0  0  0  0  0  0  0  0  0  0  0  0
    8.0570   17.6070   21.7260 O   0  0  0  0  0  0  0  0  0  0  0  0
    8.2990   18.6840   19.6740 C   0  0  0  0  0  0  0  0  0  0  0  0
    7.3200   19.6640   19.4770 C   0  0  0  0  0  0  0  0  0  0  0  0
    5.8590   19.4600   19.9340 C   0  0  0  0  0  0  0  0  0  0  0  0
    7.6880   20.9740   18.7570 C   0  0  0  0  0  0  0  0  0  0  0  0
    7.2420   22.1960   19.5750 C   0  0  0  0  0  0  0  0  0  0  0  0
    7.4330   23.3870   18.8710 C   0  0  0  0  0  0  0  0  0  0  0  0
    7.9830   24.5740   19.3460 C   0  0  0  0  0  0  0  0  0  0  0  0
    8.4360   24.6940   20.8020 C   0  0  0  0  0  0  0  0  0  0  0  0
    8.0920   25.7760   18.3970 C   0  0  0  0  0  0  0  0  0  0  0  0
    7.1440   26.9510   18.7700 C   0  0  0  0  0  0  0  0  0  0  0  0
    5.7810   26.6360   18.7700 C   0  0  0  0  0  0  0  0  0  0  0  0
    4.7180   27.4100   18.2630 C   0  0  0  0  0  0  0  0  0  0  0  0
    4.9260   28.7580   17.5680 C   0  0  0  0  0  0  0  0  0  0  0  0
    3.2710   26.9060   18.3730 C   0  0  0  0  0  0  0  0  0  0  0  0
    7.6410   16.4310   22.7790 P   0  0  2  0  0  0  0  0  0  0  0  0
    6.8020   17.0590   23.8230 O   0  0  0  0  0  1  0  0  0  0  0  0
    8.8690   15.7050   23.1570 O   0  0  0  0  0  0  0  0  0  0  0  0
    6.7120   15.4310   21.8810 O   0  0  0  0  0  0  0  0  0  0  0  0
    5.7820   14.2130   22.4600 P   0  0  0  0  0  0  0  0  0  0  0  0
    4.3920   14.2920   21.9420 O   0  0  0  0  0  1  0  0  0  0  0  0
    6.5420   12.8430   22.0320 O   0  0  0  0  0  1  0  0  0  0  0  0
    5.8270   14.2270   24.0820 O   0  0  0  0  0  0  0  0  0  0  0  0
    7.2099   16.9720   19.9375 H   0  0  0  0  0  0  0  0  0  0  0  0
    8.9938   16.7979   20.0564 H   0  0  0  0  0  0  0  0  0  0  0  0
    9.2960   18.9118   19.2999 H   0  0  0  0  0  0  0  0  0  0  0  0
    5.2674   20.3519   19.6799 H   0  0  0  0  0  0  0  0  0  0  0  0
    5.8339   19.3012   21.0222 H   0  0  0  0  0  0  0  0  0  0  0  0
    5.4349   18.5817   19.4254 H   0  0  0  0  0  0  0  0  0  0  0  0
    7.1911   20.9971   17.7759 H   0  0  0  0  0  0  0  0  0  0  0  0
    8.7783   21.0135   18.6169 H   0  0  0  0  0  0  0  0  0  0  0  0
    7.8268   22.2346   20.5058 H   0  0  0  0  0  0  0  0  0  0  0  0
    6.1740   22.0924   19.8170 H   0  0  0  0  0  0  0  0  0  0  0  0
    7.1146   23.3869   17.8296 H   0  0  0  0  0  0  0  0  0  0  0  0
    8.8391   25.7021   20.9787 H   0  0  0  0  0  0  0  0  0  0  0  0
    9.2164   23.9461   21.0061 H   0  0  0  0  0  0  0  0  0  0  0  0
    7.5783   24.5202   21.4684 H   0  0  0  0  0  0  0  0  0  0  0  0
    7.8449   25.4393   17.3794 H   0  0  0  0  0  0  0  0  0  0  0  0
    9.1282   26.1444   18.4199 H   0  0  0  0  0  0  0  0  0  0  0  0
    7.3062   27.7629   18.0458 H   0  0  0  0  0  0  0  0  0  0  0  0
    7.4133   27.2995   19.7780 H   0  0  0  0  0  0  0  0  0  0  0  0
    5.5092   25.6796   19.2143 H   0  0  0  0  0  0  0  0  0  0  0  0
    3.9517   29.1671   17.2624 H   0  0  0  0  0  0  0  0  0  0  0  0
    5.5600   28.6187   16.6800 H   0  0  0  0  0  0  0  0  0  0  0  0
    5.4156   29.4568   18.2622 H   0  0  0  0  0  0  0  0  0  0  0  0
    3.2593   25.9346   18.8890 H   0  0  0  0  0  0  0  0  0  0  0  0
    2.8451   26.7910   17.3653 H   0  0  0  0  0  0  0  0  0  0  0  0
    2.6724   27.6314   18.9435 H   0  0  0  0  0  0  0  0  0  0  0  0
  1  2  1  0  0  0  0
  1  3  1  0  0  0  0
  1 25  1  0  0  0  0
  1 26  1  0  0  0  0
  2 17  1  0  0  0  0
  3  4  2  0  0  0  0
  3 27  1  0  0  0  0
  4  5  1  0  0  0  0
  4  6  1  0  0  0  0
  5 28  1  0  0  0  0
  5 29  1  0  0  0  0
  5 30  1  0  0  0  0
  6  7  1  0  0  0  0
  6 31  1  0  0  0  0
  6 32  1  0  0  0  0
  7  8  1  0  0  0  0
  7 33  1  0  0  0  0
  7 34  1  0  0  0  0
  8  9  2  0  0  0  0
  8 35  1  0  0  0  0
  9 10  1  0  0  0  0
  9 11  1  0  0  0  0
 10 36  1  0  0  0  0
 10 37  1  0  0  0  0
 10 38  1  0  0  0  0
 11 12  1  0  0  0  0
 11 39  1  0  0  0  0
 11 40  1  0  0  0  0
 12 13  1  0  0  0  0
 12 41  1  0  0  0  0
 12 42  1  0  0  0  0
 13 14  2  0  0  0  0
 13 43  1  0  0  0  0
 14 15  1  0  0  0  0
 14 16  1  0  0  0  0
 15 44  1  0  0  0  0
 15 45  1  0  0  0  0
 15 46  1  0  0  0  0
 16 47  1  0  0  0  0
 16 48  1  0  0  0  0
 16 49  1  0  0  0  0
 17 18  1  1  0  0  0
 17 19  2  0  0  0  0
 17 20  1  0  0  0  0
 20 21  1  0  0  0  0
 21 22  1  0  0  0  0
 21 23  1  0  0  0  0
 21 24  2  0  0  0  0
M  END
