3dv1_ligand
 OpenBabel08222323343D

 76 76  0  0  1  0  0  0  0  0999 V2000
   30.2780    6.1680   16.1530 N   0  0  0  0  0  0  0  0  0  0  0  0
   31.3230    6.4560   15.1800 C   0  0  1  0  0  0  0  0  0  0  0  0
   32.3640    7.3660   15.9020 C   0  0  0  0  0  0  0  0  0  0  0  0
   31.7050    8.7570   16.1610 C   0  0  1  0  0  0  0  0  0  0  0  0
   32.5680    9.5910   17.1470 C   0  0  0  0  0  0  0  0  0  0  0  0
   32.3670    9.0960   18.5910 C   0  0  0  0  0  0  0  0  0  0  0  0
   31.2010    9.8610   19.2110 C   0  0  0  0  0  0  0  0  0  0  0  0
   30.9680    9.4240   20.6960 C   0  0  0  0  0  0  0  0  0  0  0  0
   29.8610    8.3500   20.7720 C   0  0  0  0  0  0  0  0  0  0  0  0
   28.6230    8.9690   20.1150 C   0  0  0  0  0  0  0  0  0  0  0  0
   27.4380    8.0290   20.1090 C   0  0  0  0  0  0  0  0  0  0  0  0
   27.5710    6.8730   19.1500 C   0  0  0  0  0  0  0  0  0  0  0  0
   27.9460    7.1350   17.8630 N   0  0  0  0  0  0  0  0  0  0  0  0
   28.0080    6.0150   16.9000 C   0  0  2  0  0  0  0  0  0  0  0  0
   28.9810    6.3180   15.8050 C   0  0  0  0  0  0  0  0  0  0  0  0
   28.6100    6.6670   14.6830 O   0  0  0  0  0  0  0  0  0  0  0  0
   26.5760    5.8380   16.3420 C   0  0  0  0  0  0  0  0  0  0  0  0
   27.3280    5.7550   19.5810 O   0  0  0  0  0  0  0  0  0  0  0  0
   31.6520    9.5150   14.8030 C   0  0  0  0  0  0  0  0  0  0  0  0
   31.9740    5.1550   14.6640 C   0  0  1  0  0  0  0  0  0  0  0  0
   32.6100    4.4580   15.7470 O   0  0  0  0  0  0  0  0  0  0  0  0
   30.9060    4.2010   14.0630 C   0  0  0  0  0  0  0  0  0  0  0  0
   31.6250    3.2060   13.1350 C   0  0  1  0  0  0  0  0  0  0  0  0
   30.8100    1.8980   13.0480 C   0  0  0  0  0  0  0  0  0  0  0  0
   31.6660    3.7310   11.7080 C   0  0  0  0  0  0  0  0  0  0  0  0
   30.7560    4.4310   11.2930 O   0  0  0  0  0  0  0  0  0  0  0  0
   32.7300    3.3850   10.9810 N   0  0  0  0  0  0  0  0  0  0  0  0
   32.8420    3.8090    9.5900 C   0  0  0  0  0  0  0  0  0  0  0  0
   34.2010    3.2980    9.0660 C   0  0  0  0  0  0  0  0  0  0  0  0
   34.3310    3.4770    7.5290 C   0  0  0  0  0  0  0  0  0  0  0  0
   34.4690    4.9720    7.1620 C   0  0  0  0  0  0  0  0  0  0  0  0
   30.5192    5.8609   17.0736 H   0  0  0  0  0  0  0  0  0  0  0  0
   30.8921    6.9970   14.3246 H   0  0  0  0  0  0  0  0  0  0  0  0
   33.2539    7.4888   15.2672 H   0  0  0  0  0  0  0  0  0  0  0  0
   32.6564    6.9093   16.8590 H   0  0  0  0  0  0  0  0  0  0  0  0
   30.6918    8.6244   16.5683 H   0  0  0  0  0  0  0  0  0  0  0  0
   32.2717   10.6483   17.0823 H   0  0  0  0  0  0  0  0  0  0  0  0
   33.6288    9.4901   16.8741 H   0  0  0  0  0  0  0  0  0  0  0  0
   33.2812    9.2770   19.1753 H   0  0  0  0  0  0  0  0  0  0  0  0
   32.1424    8.0192   18.5856 H   0  0  0  0  0  0  0  0  0  0  0  0
   30.2891    9.6595   18.6297 H   0  0  0  0  0  0  0  0  0  0  0  0
   31.4227   10.9381   19.1838 H   0  0  0  0  0  0  0  0  0  0  0  0
   30.6650   10.2998   21.2886 H   0  0  0  0  0  0  0  0  0  0  0  0
   31.9026    9.0111   21.1035 H   0  0  0  0  0  0  0  0  0  0  0  0
   29.6489    8.0938   21.8205 H   0  0  0  0  0  0  0  0  0  0  0  0
   30.1693    7.4448   20.2284 H   0  0  0  0  0  0  0  0  0  0  0  0
   28.8696    9.2319   19.0758 H   0  0  0  0  0  0  0  0  0  0  0  0
   28.3482    9.8792   20.6682 H   0  0  0  0  0  0  0  0  0  0  0  0
   26.5423    8.6048   19.8331 H   0  0  0  0  0  0  0  0  0  0  0  0
   27.3146    7.6229   21.1238 H   0  0  0  0  0  0  0  0  0  0  0  0
   28.1741    8.0659   17.5778 H   0  0  0  0  0  0  0  0  0  0  0  0
   28.3234    5.0953   17.4145 H   0  0  0  0  0  0  0  0  0  0  0  0
   26.5650    5.0119   15.6157 H   0  0  0  0  0  0  0  0  0  0  0  0
   26.2585    6.7668   15.8456 H   0  0  0  0  0  0  0  0  0  0  0  0
   25.8863    5.6093   17.1678 H   0  0  0  0  0  0  0  0  0  0  0  0
   31.0447    8.9421   14.0868 H   0  0  0  0  0  0  0  0  0  0  0  0
   32.6720    9.6315   14.4080 H   0  0  0  0  0  0  0  0  0  0  0  0
   31.2018   10.5072   14.9542 H   0  0  0  0  0  0  0  0  0  0  0  0
   32.7190    5.4065   13.8947 H   0  0  0  0  0  0  0  0  0  0  0  0
   33.2803    5.0125   16.1288 H   0  0  0  0  0  0  0  0  0  0  0  0
   30.1685    4.7808   13.4887 H   0  0  0  0  0  0  0  0  0  0  0  0
   30.3955    3.6560   14.8707 H   0  0  0  0  0  0  0  0  0  0  0  0
   32.6412    3.0140   13.5096 H   0  0  0  0  0  0  0  0  0  0  0  0
   31.3255    1.1882   12.3843 H   0  0  0  0  0  0  0  0  0  0  0  0
   29.8095    2.1154   12.6459 H   0  0  0  0  0  0  0  0  0  0  0  0
   30.7143    1.4582   14.0517 H   0  0  0  0  0  0  0  0  0  0  0  0
   33.4546    2.8319   11.3921 H   0  0  0  0  0  0  0  0  0  0  0  0
   32.8018    4.9064    9.5259 H   0  0  0  0  0  0  0  0  0  0  0  0
   32.0226    3.3767    8.9969 H   0  0  0  0  0  0  0  0  0  0  0  0
   34.2975    2.2296    9.3094 H   0  0  0  0  0  0  0  0  0  0  0  0
   35.0072    3.8607    9.5593 H   0  0  0  0  0  0  0  0  0  0  0  0
   33.4347    3.0668    7.0407 H   0  0  0  0  0  0  0  0  0  0  0  0
   35.2211    2.9352    7.1765 H   0  0  0  0  0  0  0  0  0  0  0  0
   34.5595    5.0747    6.0706 H   0  0  0  0  0  0  0  0  0  0  0  0
   35.3660    5.3869    7.6449 H   0  0  0  0  0  0  0  0  0  0  0  0
   33.5797    5.5184    7.5092 H   0  0  0  0  0  0  0  0  0  0  0  0
  1  2  1  0  0  0  0
  1 15  1  0  0  0  0
  1 32  1  0  0  0  0
  2  3  1  0  0  0  0
  2 20  1  0  0  0  0
  2 33  1  6  0  0  0
  3  4  1  0  0  0  0
  3 34  1  0  0  0  0
  3 35  1  0  0  0  0
  4  5  1  0  0  0  0
  4 19  1  0  0  0  0
  4 36  1  1  0  0  0
  5  6  1  0  0  0  0
  5 37  1  0  0  0  0
  5 38  1  0  0  0  0
  6  7  1  0  0  0  0
  6 39  1  0  0  0  0
  6 40  1  0  0  0  0
  7  8  1  0  0  0  0
  7 41  1  0  0  0  0
  7 42  1  0  0  0  0
  8  9  1  0  0  0  0
  8 43  1  0  0  0  0
  8 44  1  0  0  0  0
  9 10  1  0  0  0  0
  9 45  1  0  0  0  0
  9 46  1  0  0  0  0
 10 11  1  0  0  0  0
 10 47  1  0  0  0  0
 10 48  1  0  0  0  0
 11 12  1  0  0  0  0
 11 49  1  0  0  0  0
 11 50  1  0  0  0  0
 12 13  1  0  0  0  0
 12 18  2  0  0  0  0
 13 14  1  0  0  0  0
 13 51  1  0  0  0  0
 14 15  1  0  0  0  0
 14 17  1  0  0  0  0
 14 52  1  1  0  0  0
 15 16  2  0  0  0  0
 17 53  1  0  0  0  0
 17 54  1  0  0  0  0
 17 55  1  0  0  0  0
 19 56  1  0  0  0  0
 19 57  1  0  0  0  0
 19 58  1  0  0  0  0
 20 21  1  0  0  0  0
 20 22  1  0  0  0  0
 20 59  1  6  0  0  0
 21 60  1  0  0  0  0
 22 23  1  0  0  0  0
 22 61  1  0  0  0  0
 22 62  1  0  0  0  0
 23 24  1  0  0  0  0
 23 25  1  0  0  0  0
 23 63  1  1  0  0  0
 24 64  1  0  0  0  0
 24 65  1  0  0  0  0
 24 66  1  0  0  0  0
 25 26  2  0  0  0  0
 25 27  1  0  0  0  0
 27 28  1  0  0  0  0
 27 67  1  0  0  0  0
 28 29  1  0  0  0  0
 28 68  1  0  0  0  0
 28 69  1  0  0  0  0
 29 30  1  0  0  0  0
 29 70  1  0  0  0  0
 29 71  1  0  0  0  0
 30 31  1  0  0  0  0
 30 72  1  0  0  0  0
 30 73  1  0  0  0  0
 31 74  1  0  0  0  0
 31 75  1  0  0  0  0
 31 76  1  0  0  0  0
M  END
