3dvp_ligand
 OpenBabel08222323343D

128128  0  0  1  0  0  0  0  0999 V2000
   15.6030    9.9530  -16.3890 N   0  3  0  0  0  0  0  0  0  0  0  0
   14.7200   10.5890  -15.4050 C   0  0  2  0  0  0  0  0  0  0  0  0
   14.9740   10.0850  -13.9820 C   0  0  0  0  0  0  0  0  0  0  0  0
   14.1240    9.3450  -13.4940 O   0  0  0  0  0  0  0  0  0  0  0  0
   13.2390   10.3700  -15.8650 C   0  0  0  0  0  0  0  0  0  0  0  0
   16.0810   10.4960  -13.3150 N   0  0  0  0  0  0  0  0  0  0  0  0
   16.5660    9.8840  -12.0290 C   0  0  2  0  0  0  0  0  0  0  0  0
   17.2450   10.7890  -11.0190 C   0  0  0  0  0  0  0  0  0  0  0  0
   17.9080   11.7390  -11.4460 O   0  0  0  0  0  0  0  0  0  0  0  0
   17.5940    8.7830  -12.3370 C   0  0  2  0  0  0  0  0  0  0  0  0
   16.8690    7.6430  -12.7790 O   0  0  0  0  0  0  0  0  0  0  0  0
   18.3750    8.4120  -11.1180 C   0  0  0  0  0  0  0  0  0  0  0  0
   17.1110   10.4520   -9.7080 N   0  0  0  0  0  0  0  0  0  0  0  0
   17.7150   11.1660   -8.5640 C   0  0  2  0  0  0  0  0  0  0  0  0
   18.2910   10.2460   -7.4810 C   0  0  0  0  0  0  0  0  0  0  0  0
   17.7500    9.1870   -7.2490 O   0  0  0  0  0  0  0  0  0  0  0  0
   16.6910   12.0940   -7.8980 C   0  0  0  0  0  0  0  0  0  0  0  0
   16.2200   13.3280   -8.7000 C   0  0  0  0  0  0  0  0  0  0  0  0
   15.6360   14.3560   -7.6980 C   0  0  0  0  0  0  0  0  0  0  0  0
   15.5560   15.6950   -8.2250 N   0  0  0  0  0  0  0  0  0  0  0  0
   14.5050   16.1070   -8.9430 C   0  0  0  0  0  3  0  0  0  0  0  0
   13.4800   15.2520   -9.1520 N   0  0  0  0  0  0  0  0  0  0  0  0
   14.4500   17.3600   -9.4380 N   0  0  0  0  0  0  0  0  0  0  0  0
   19.3440   10.6740   -6.7820 N   0  0  0  0  0  0  0  0  0  0  0  0
   19.9220    9.9180   -5.6880 C   0  0  2  0  0  0  0  0  0  0  0  0
   19.5640   10.6030   -4.4420 C   0  0  0  0  0  0  0  0  0  0  0  0
   19.8800   11.8180   -4.2840 O   0  0  0  0  0  0  0  0  0  0  0  0
   21.4530    9.8400   -5.7470 C   0  0  0  0  0  0  0  0  0  0  0  0
   21.9500    9.0940   -6.9440 C   0  0  0  0  0  0  0  0  0  0  0  0
   21.2510    8.1460   -7.3740 O   0  5  0  0  0  0  0  0  0  0  0  0
   23.0510    9.4380   -7.4600 O   0  0  0  0  0  0  0  0  0  0  0  0
   19.0060    9.8590   -3.4980 N   0  0  0  0  0  0  0  0  0  0  0  0
   18.6150   10.5290   -2.2370 C   0  0  2  0  0  0  0  0  0  0  0  0
   18.9510    9.6020   -1.0710 C   0  0  0  0  0  0  0  0  0  0  0  0
   18.7940    8.3990   -1.2250 O   0  0  0  0  0  0  0  0  0  0  0  0
   17.1250   10.9710   -2.2040 C   0  0  0  0  0  0  0  0  0  0  0  0
   16.3020    9.7410   -2.0780 C   0  0  0  0  0  0  0  0  0  0  0  0
   16.8760   12.0050   -1.0720 C   0  0  0  0  0  0  0  0  0  0  0  0
   19.5010   10.1710    0.0170 N   0  0  0  0  0  0  0  0  0  0  0  0
   19.5220    9.5380    1.3640 C   0  0  2  0  0  0  0  0  0  0  0  0
   18.3040    9.8650    2.2620 C   0  0  0  0  0  0  0  0  0  0  0  0
   17.7800   10.9970    2.2690 O   0  0  0  0  0  0  0  0  0  0  0  0
   20.7910    9.9170    2.1140 C   0  0  0  0  0  0  0  0  0  0  0  0
   17.8720    8.8530    3.0190 N   0  0  0  0  0  0  0  0  0  0  0  0
   16.9050    9.0040    4.1430 C   0  0  2  0  0  0  0  0  0  0  0  0
   17.6060    8.6910    5.4390 C   0  0  0  0  0  0  0  0  0  0  0  0
   18.4040    7.7880    5.5240 O   0  0  0  0  0  0  0  0  0  0  0  0
   15.6190    8.1350    3.9050 C   0  0  2  0  0  0  0  0  0  0  0  0
   15.8490    6.7080    4.0710 O   0  0  0  0  0  0  0  0  0  0  0  0
   14.9930    8.4050    2.4770 C   0  0  0  0  0  0  0  0  0  0  0  0
   17.2730    9.4640    6.4460 N   0  0  0  0  0  0  0  0  0  0  0  0
   17.6650    9.3070    7.8880 C   0  0  2  0  0  0  0  0  0  0  0  0
   16.5640    8.8760    8.8680 C   0  0  0  0  0  0  0  0  0  0  0  0
   15.4400    9.3600    8.7770 O   0  0  0  0  0  0  0  0  0  0  0  0
   18.2670   10.6380    8.3730 C   0  0  0  0  0  0  0  0  0  0  0  0
   19.3160   11.0850    7.5250 O   0  0  0  0  0  0  0  0  0  0  0  0
   16.8760    8.0040    9.8320 N   0  0  0  0  0  0  0  0  0  0  0  0
   15.7790    7.7030   10.8320 C   0  0  2  0  0  0  0  0  0  0  0  0
   15.2310    8.9360   11.5240 C   0  0  0  0  0  0  0  0  0  0  0  0
   15.9700    9.9280   11.7010 O   0  5  0  0  0  0  0  0  0  0  0  0
   16.4400    6.7910   11.8690 C   0  0  0  0  0  0  0  0  0  0  0  0
   18.0480    6.8910   11.5900 C   0  0  0  0  0  0  0  0  0  0  0  0
   18.1170    7.2220   10.0720 C   0  0  0  0  0  0  0  0  0  0  0  0
   14.0470    8.9680   11.9420 O   0  0  0  0  0  0  0  0  0  0  0  0
   15.3991   10.3155  -17.3072 H   0  0  0  0  0  0  0  0  0  0  0  0
   15.4531    8.9563  -16.3803 H   0  0  0  0  0  0  0  0  0  0  0  0
   16.5635   10.1504  -16.1556 H   0  0  0  0  0  0  0  0  0  0  0  0
   14.9234   11.6700  -15.4101 H   0  0  0  0  0  0  0  0  0  0  0  0
   12.5569   10.8394  -15.1408 H   0  0  0  0  0  0  0  0  0  0  0  0
   13.0282    9.2919  -15.9216 H   0  0  0  0  0  0  0  0  0  0  0  0
   13.0916   10.8250  -16.8556 H   0  0  0  0  0  0  0  0  0  0  0  0
   16.6076   11.2529  -13.7020 H   0  0  0  0  0  0  0  0  0  0  0  0
   15.6885    9.4371  -11.5389 H   0  0  0  0  0  0  0  0  0  0  0  0
   18.2825    9.1260  -13.1233 H   0  0  0  0  0  0  0  0  0  0  0  0
   17.4766    6.9406  -12.9788 H   0  0  0  0  0  0  0  0  0  0  0  0
   19.0994    7.6242  -11.3724 H   0  0  0  0  0  0  0  0  0  0  0  0
   17.6891    8.0425  -10.3414 H   0  0  0  0  0  0  0  0  0  0  0  0
   18.9114    9.2961  -10.7430 H   0  0  0  0  0  0  0  0  0  0  0  0
   16.5534    9.6485   -9.4996 H   0  0  0  0  0  0  0  0  0  0  0  0
   18.5384   11.7793   -8.9589 H   0  0  0  0  0  0  0  0  0  0  0  0
   17.1378   12.4602   -6.9619 H   0  0  0  0  0  0  0  0  0  0  0  0
   15.8003   11.4909   -7.6678 H   0  0  0  0  0  0  0  0  0  0  0  0
   15.4462   13.0303   -9.4229 H   0  0  0  0  0  0  0  0  0  0  0  0
   17.0716   13.7719   -9.2364 H   0  0  0  0  0  0  0  0  0  0  0  0
   16.2762   14.3721   -6.8037 H   0  0  0  0  0  0  0  0  0  0  0  0
   14.6229   14.0316   -7.4179 H   0  0  0  0  0  0  0  0  0  0  0  0
   16.3283   16.3521   -8.0441 H   0  0  0  0  0  0  0  0  0  0  0  0
   12.6629   15.5524   -9.7024 H   0  0  0  0  0  0  0  0  0  0  0  0
   13.5157   14.2998   -8.7609 H   0  0  0  0  0  0  0  0  0  0  0  0
   15.2316   18.0115   -9.2784 H   0  0  0  0  0  0  0  0  0  0  0  0
   13.6264   17.6656   -9.9757 H   0  0  0  0  0  0  0  0  0  0  0  0
   19.7523   11.5544   -7.0231 H   0  0  0  0  0  0  0  0  0  0  0  0
   19.5085    8.8987   -5.6959 H   0  0  0  0  0  0  0  0  0  0  0  0
   21.8141    9.3312   -4.8411 H   0  0  0  0  0  0  0  0  0  0  0  0
   21.8560   10.8630   -5.7783 H   0  0  0  0  0  0  0  0  0  0  0  0
   18.8544    8.8798   -3.6326 H   0  0  0  0  0  0  0  0  0  0  0  0
   19.2252   11.4388   -2.1379 H   0  0  0  0  0  0  0  0  0  0  0  0
   16.8769   11.4570   -3.1591 H   0  0  0  0  0  0  0  0  0  0  0  0
   15.2367   10.0138   -2.0512 H   0  0  0  0  0  0  0  0  0  0  0  0
   16.5691    9.2146   -1.1498 H   0  0  0  0  0  0  0  0  0  0  0  0
   16.4906    9.0837   -2.9396 H   0  0  0  0  0  0  0  0  0  0  0  0
   17.5171   12.8845   -1.2313 H   0  0  0  0  0  0  0  0  0  0  0  0
   17.1143   11.5489   -0.0998 H   0  0  0  0  0  0  0  0  0  0  0  0
   15.8203   12.3139   -1.0832 H   0  0  0  0  0  0  0  0  0  0  0  0
   19.9207   11.0729   -0.0853 H   0  0  0  0  0  0  0  0  0  0  0  0
   19.5287    8.4495    1.2056 H   0  0  0  0  0  0  0  0  0  0  0  0
   20.7873    9.4401    3.1052 H   0  0  0  0  0  0  0  0  0  0  0  0
   20.8341   11.0097    2.2330 H   0  0  0  0  0  0  0  0  0  0  0  0
   21.6687    9.5751    1.5459 H   0  0  0  0  0  0  0  0  0  0  0  0
   18.2191    7.9367    2.8191 H   0  0  0  0  0  0  0  0  0  0  0  0
   16.5859   10.0560    4.1811 H   0  0  0  0  0  0  0  0  0  0  0  0
   14.8793    8.4400    4.6599 H   0  0  0  0  0  0  0  0  0  0  0  0
   16.5080    6.4203    3.4502 H   0  0  0  0  0  0  0  0  0  0  0  0
   14.0967    7.7810    2.3457 H   0  0  0  0  0  0  0  0  0  0  0  0
   15.7306    8.1553    1.7001 H   0  0  0  0  0  0  0  0  0  0  0  0
   14.7165    9.4663    2.3925 H   0  0  0  0  0  0  0  0  0  0  0  0
   16.6913   10.2478    6.2285 H   0  0  0  0  0  0  0  0  0  0  0  0
   18.4464    8.5337    7.9257 H   0  0  0  0  0  0  0  0  0  0  0  0
   18.6656   10.4989    9.3887 H   0  0  0  0  0  0  0  0  0  0  0  0
   17.4749   11.4010    8.3912 H   0  0  0  0  0  0  0  0  0  0  0  0
   19.6609   11.9061    7.8557 H   0  0  0  0  0  0  0  0  0  0  0  0
   14.9514    7.1813   10.3291 H   0  0  0  0  0  0  0  0  0  0  0  0
   16.0934    5.7546   11.7440 H   0  0  0  0  0  0  0  0  0  0  0  0
   16.2058    7.1357   12.8870 H   0  0  0  0  0  0  0  0  0  0  0  0
   18.5480    5.9362   11.8100 H   0  0  0  0  0  0  0  0  0  0  0  0
   18.5049    7.6912   12.1907 H   0  0  0  0  0  0  0  0  0  0  0  0
   19.0102    7.8206    9.8401 H   0  0  0  0  0  0  0  0  0  0  0  0
   18.1252    6.3022    9.4688 H   0  0  0  0  0  0  0  0  0  0  0  0
  1  2  1  0  0  0  0
  1 65  1  0  0  0  0
  1 66  1  0  0  0  0
  1 67  1  0  0  0  0
  2  3  1  0  0  0  0
  2  5  1  0  0  0  0
  2 68  1  6  0  0  0
  3  4  2  0  0  0  0
  3  6  1  0  0  0  0
  5 69  1  0  0  0  0
  5 70  1  0  0  0  0
  5 71  1  0  0  0  0
  6  7  1  0  0  0  0
  6 72  1  0  0  0  0
  7  8  1  0  0  0  0
  7 10  1  0  0  0  0
  7 73  1  1  0  0  0
  8  9  2  0  0  0  0
  8 13  1  0  0  0  0
 10 11  1  0  0  0  0
 10 12  1  0  0  0  0
 10 74  1  6  0  0  0
 11 75  1  0  0  0  0
 12 76  1  0  0  0  0
 12 77  1  0  0  0  0
 12 78  1  0  0  0  0
 13 14  1  0  0  0  0
 13 79  1  0  0  0  0
 14 15  1  0  0  0  0
 14 17  1  0  0  0  0
 14 80  1  6  0  0  0
 15 16  2  0  0  0  0
 15 24  1  0  0  0  0
 17 18  1  0  0  0  0
 17 81  1  0  0  0  0
 17 82  1  0  0  0  0
 18 19  1  0  0  0  0
 18 83  1  0  0  0  0
 18 84  1  0  0  0  0
 19 20  1  0  0  0  0
 19 85  1  0  0  0  0
 19 86  1  0  0  0  0
 20 21  1  0  0  0  0
 20 87  1  0  0  0  0
 21 22  1  0  0  0  0
 21 23  1  0  0  0  0
 22 88  1  0  0  0  0
 22 89  1  0  0  0  0
 23 90  1  0  0  0  0
 23 91  1  0  0  0  0
 24 25  1  0  0  0  0
 24 92  1  0  0  0  0
 25 26  1  0  0  0  0
 25 28  1  0  0  0  0
 25 93  1  1  0  0  0
 26 27  2  0  0  0  0
 26 32  1  0  0  0  0
 28 29  1  0  0  0  0
 28 94  1  0  0  0  0
 28 95  1  0  0  0  0
 29 30  1  0  0  0  0
 29 31  2  0  0  0  0
 32 33  1  0  0  0  0
 32 96  1  0  0  0  0
 33 34  1  0  0  0  0
 33 36  1  0  0  0  0
 33 97  1  1  0  0  0
 34 35  2  0  0  0  0
 34 39  1  0  0  0  0
 36 37  1  0  0  0  0
 36 38  1  0  0  0  0
 36 98  1  0  0  0  0
 37 99  1  0  0  0  0
 37100  1  0  0  0  0
 37101  1  0  0  0  0
 38102  1  0  0  0  0
 38103  1  0  0  0  0
 38104  1  0  0  0  0
 39 40  1  0  0  0  0
 39105  1  0  0  0  0
 40 41  1  0  0  0  0
 40 43  1  0  0  0  0
 40106  1  6  0  0  0
 41 42  2  0  0  0  0
 41 44  1  0  0  0  0
 43107  1  0  0  0  0
 43108  1  0  0  0  0
 43109  1  0  0  0  0
 44 45  1  0  0  0  0
 44110  1  0  0  0  0
 45 46  1  0  0  0  0
 45 48  1  0  0  0  0
 45111  1  1  0  0  0
 46 47  2  0  0  0  0
 46 51  1  0  0  0  0
 48 49  1  0  0  0  0
 48 50  1  0  0  0  0
 48112  1  1  0  0  0
 49113  1  0  0  0  0
 50114  1  0  0  0  0
 50115  1  0  0  0  0
 50116  1  0  0  0  0
 51 52  1  0  0  0  0
 51117  1  0  0  0  0
 52 53  1  0  0  0  0
 52 55  1  0  0  0  0
 52118  1  1  0  0  0
 53 54  2  0  0  0  0
 53 57  1  0  0  0  0
 55 56  1  0  0  0  0
 55119  1  0  0  0  0
 55120  1  0  0  0  0
 56121  1  0  0  0  0
 57 58  1  0  0  0  0
 57 63  1  0  0  0  0
 58 59  1  0  0  0  0
 58 61  1  0  0  0  0
 58122  1  6  0  0  0
 59 60  1  0  0  0  0
 59 64  2  0  0  0  0
 61 62  1  0  0  0  0
 61123  1  0  0  0  0
 61124  1  0  0  0  0
 62 63  1  0  0  0  0
 62125  1  0  0  0  0
 62126  1  0  0  0  0
 63127  1  0  0  0  0
 63128  1  0  0  0  0
M  CHG  3   1   1  30  -1  60  -1
M  END
