3dx3_ligand
 OpenBabel08222323343D

 22 22  0  0  1  0  0  0  0  0999 V2000
   29.4900   66.1080    7.0040 O   0  0  0  0  0  0  0  0  0  0  0  0
   30.8790   66.0110    7.3610 C   0  0  1  0  0  0  0  0  0  0  0  0
   31.6160   67.2730    6.9750 C   0  0  2  0  0  0  0  0  0  0  0  0
   31.6710   67.5460    5.5680 O   0  0  0  0  0  0  0  0  0  0  0  0
   32.9770   67.0720    7.6370 C   0  0  2  0  0  0  0  0  0  0  0  0
   33.7270   66.1020    6.8880 O   0  0  0  0  0  0  0  0  0  0  0  0
   31.1590   65.9730    8.8560 C   0  0  1  0  0  0  0  0  0  0  0  0
   31.0030   64.6330    9.4250 N   0  3  0  0  0  0  0  0  0  0  0  0
   32.5940   66.4880    9.0130 C   0  0  1  0  0  0  0  0  0  0  0  0
   33.4960   65.4580    9.4720 O   0  0  0  0  0  0  0  0  0  0  0  0
   29.0434   65.3075    7.2536 H   0  0  0  0  0  0  0  0  0  0  0  0
   31.3074   65.1270    6.8660 H   0  0  0  0  0  0  0  0  0  0  0  0
   31.1146   68.1341    7.4410 H   0  0  0  0  0  0  0  0  0  0  0  0
   32.1111   66.8302    5.1246 H   0  0  0  0  0  0  0  0  0  0  0  0
   33.5387   68.0133    7.7286 H   0  0  0  0  0  0  0  0  0  0  0  0
   34.5748   65.9742    7.2971 H   0  0  0  0  0  0  0  0  0  0  0  0
   30.4645   66.6497    9.3754 H   0  0  0  0  0  0  0  0  0  0  0  0
   31.1990   64.6628   10.4133 H   0  0  0  0  0  0  0  0  0  0  0  0
   31.6447   63.9997    8.9742 H   0  0  0  0  0  0  0  0  0  0  0  0
   30.0580   64.3140    9.2793 H   0  0  0  0  0  0  0  0  0  0  0  0
   32.6069   67.2968    9.7585 H   0  0  0  0  0  0  0  0  0  0  0  0
   33.5050   64.7442    8.8452 H   0  0  0  0  0  0  0  0  0  0  0  0
  1  2  1  0  0  0  0
  1 11  1  0  0  0  0
  2  3  1  0  0  0  0
  2  7  1  0  0  0  0
  2 12  1  6  0  0  0
  3  4  1  0  0  0  0
  3  5  1  0  0  0  0
  3 13  1  1  0  0  0
  4 14  1  0  0  0  0
  5  6  1  0  0  0  0
  5  9  1  0  0  0  0
  5 15  1  1  0  0  0
  6 16  1  0  0  0  0
  7  8  1  0  0  0  0
  7  9  1  0  0  0  0
  7 17  1  1  0  0  0
  8 18  1  0  0  0  0
  8 19  1  0  0  0  0
  8 20  1  0  0  0  0
  9 10  1  0  0  0  0
  9 21  1  1  0  0  0
 10 22  1  0  0  0  0
M  CHG  1   8   1
M  END
