3e1r_ligand
 OpenBabel08222323343D

194200  0  0  1  0  0  0  0  0999 V2000
   38.2300   28.0490   13.8260 N   0  3  0  0  0  0  0  0  0  0  0  0
   38.1270   27.5910   12.4100 C   0  0  2  0  0  0  0  0  0  0  0  0
   36.8620   26.7510   12.2100 C   0  0  0  0  0  0  0  0  0  0  0  0
   36.1390   26.9430   11.2340 O   0  0  0  0  0  0  0  0  0  0  0  0
   39.3720   26.7810   12.0300 C   0  0  0  0  0  0  0  0  0  0  0  0
   39.4000   26.2540   10.5940 C   0  0  0  0  0  0  0  0  0  0  0  0
   39.6550   27.3320    9.5490 C   0  0  0  0  0  0  0  0  0  0  0  0
   39.9320   28.4870    9.8780 O   0  0  0  0  0  0  0  0  0  0  0  0
   39.5720   26.9510    8.2780 N   0  0  0  0  0  0  0  0  0  0  0  0
   36.5930   25.8220   13.1220 N   0  0  0  0  0  0  0  0  0  0  0  0
   35.3900   25.0030   13.0030 C   0  0  2  0  0  0  0  0  0  0  0  0
   34.1780   25.9050   13.2310 C   0  0  0  0  0  0  0  0  0  0  0  0
   34.2090   26.7870   14.0890 O   0  0  0  0  0  0  0  0  0  0  0  0
   35.4060   23.8680   14.0300 C   0  0  0  0  0  0  0  0  0  0  0  0
   33.1160   25.6870   12.4580 N   0  0  0  0  0  0  0  0  0  0  0  0
   31.9010   26.4910   12.5850 C   0  0  2  0  0  0  0  0  0  0  0  0
   30.6700   25.6330   12.7890 C   0  0  0  0  0  0  0  0  0  0  0  0
   30.5580   24.5530   12.2200 O   0  0  0  0  0  0  0  0  0  0  0  0
   31.6430   27.3180   11.3290 C   0  0  0  0  0  0  0  0  0  0  0  0
   32.6670   28.3580   10.9610 C   0  0  0  0  0  0  0  0  0  0  0  0
   32.1890   29.1900    9.7850 C   0  0  0  0  0  0  0  0  0  0  0  0
   32.9870   29.7500    9.0380 O   0  0  0  0  0  0  0  0  0  0  0  0
   30.8700   29.2750    9.6210 N   0  0  0  0  0  0  0  0  0  0  0  0
   29.7330   26.1330   13.5840 N   0  0  0  0  0  0  0  0  0  0  0  0
   28.4940   25.4120   13.8030 C   0  0  0  0  0  0  0  0  0  0  0  0
   27.4580   26.0460   12.8960 C   0  0  0  0  0  0  0  0  0  0  0  0
   27.7900   26.9630   12.1530 O   0  0  0  0  0  0  0  0  0  0  0  0
   26.2010   25.5750   12.9180 N   0  0  0  0  0  0  0  0  0  0  0  0
   25.1000   26.0970   12.0920 C   0  0  2  0  0  0  0  0  0  0  0  0
   24.7180   27.5420   12.4510 C   0  0  0  0  0  0  0  0  0  0  0  0
   25.0200   28.0100   13.5470 O   0  0  0  0  0  0  0  0  0  0  0  0
   23.9650   25.1090   12.3670 C   0  0  0  0  0  0  0  0  0  0  0  0
   24.2650   24.6200   13.7550 C   0  0  0  0  0  0  0  0  0  0  0  0
   25.7560   24.4200   13.7140 C   0  0  0  0  0  0  0  0  0  0  0  0
   24.0560   28.2670   11.5240 N   0  0  0  0  0  0  0  0  0  0  0  0
   23.6270   29.6590   11.7290 C   0  0  2  0  0  0  0  0  0  0  0  0
   22.7590   29.8440   12.9740 C   0  0  0  0  0  0  0  0  0  0  0  0
   22.8420   30.8670   13.6570 O   0  0  0  0  0  0  0  0  0  0  0  0
   22.8470   29.9720   10.4530 C   0  0  0  0  0  0  0  0  0  0  0  0
   23.5290   29.1430    9.4300 C   0  0  0  0  0  0  0  0  0  0  0  0
   23.7430   27.8280   10.1500 C   0  0  0  0  0  0  0  0  0  0  0  0
   21.9130   28.8560   13.2420 N   0  0  0  0  0  0  0  0  0  0  0  0
   21.0080   28.8770   14.3880 C   0  0  2  0  0  0  0  0  0  0  0  0
   21.0170   27.4780   14.9930 C   0  0  0  0  0  0  0  0  0  0  0  0
   21.3840   26.5110   14.3240 O   0  0  0  0  0  0  0  0  0  0  0  0
   19.5800   29.2170   13.9340 C   0  0  0  0  0  0  0  0  0  0  0  0
   19.4370   30.5140   13.1590 C   0  0  0  0  0  0  0  0  0  0  0  0
   19.3170   31.7370   13.8170 C   0  0  0  0  0  0  0  0  0  0  0  0
   19.4190   30.5150   11.7610 C   0  0  0  0  0  0  0  0  0  0  0  0
   19.1770   32.9330   13.1040 C   0  0  0  0  0  0  0  0  0  0  0  0
   19.2830   31.7040   11.0380 C   0  0  0  0  0  0  0  0  0  0  0  0
   19.1600   32.9080   11.7160 C   0  0  0  0  0  0  0  0  0  0  0  0
   19.0040   34.0800   11.0080 O   0  0  0  0  0  0  0  0  0  0  0  0
   20.6290   27.3430   16.2690 N   0  0  0  0  0  0  0  0  0  0  0  0
   20.6380   25.9890   16.8370 C   0  0  2  0  0  0  0  0  0  0  0  0
   19.4960   25.1270   16.2920 C   0  0  0  0  0  0  0  0  0  0  0  0
   19.5790   23.8970   16.2870 O   0  0  0  0  0  0  0  0  0  0  0  0
   20.5300   26.2410   18.3420 C   0  0  0  0  0  0  0  0  0  0  0  0
   19.7940   27.5510   18.4250 C   0  0  0  0  0  0  0  0  0  0  0  0
   20.4430   28.3580   17.3220 C   0  0  0  0  0  0  0  0  0  0  0  0
   18.4420   25.7810   15.8160 N   0  0  0  0  0  0  0  0  0  0  0  0
   17.2740   25.0990   15.2600 C   0  0  2  0  0  0  0  0  0  0  0  0
   17.0670   25.5670   13.8270 C   0  0  0  0  0  0  0  0  0  0  0  0
   17.2900   26.7360   13.5190 O   0  0  0  0  0  0  0  0  0  0  0  0
   16.0040   25.4460   16.0520 C   0  0  2  0  0  0  0  0  0  0  0  0
   16.1750   25.0670   17.4240 O   0  0  0  0  0  0  0  0  0  0  0  0
   14.7920   24.7230   15.4680 C   0  0  0  0  0  0  0  0  0  0  0  0
   16.6300   24.6750   12.9470 N   0  0  0  0  0  0  0  0  0  0  0  0
   16.4110   25.0950   11.5700 C   0  0  2  0  0  0  0  0  0  0  0  0
   15.1620   25.9490   11.4460 C   0  0  0  0  0  0  0  0  0  0  0  0
   14.1070   25.5640   11.9350 O   0  0  0  0  0  0  0  0  0  0  0  0
   16.2680   23.9040   10.6210 C   0  0  0  0  0  0  0  0  0  0  0  0
   16.3100   24.3540    9.1770 C   0  0  0  0  0  0  0  0  0  0  0  0
   15.1410   24.5690    8.4420 C   0  0  0  0  0  0  0  0  0  0  0  0
   17.5260   24.6450    8.5710 C   0  0  0  0  0  0  0  0  0  0  0  0
   15.1970   25.0720    7.1250 C   0  0  0  0  0  0  0  0  0  0  0  0
   17.5940   25.1430    7.2770 C   0  0  0  0  0  0  0  0  0  0  0  0
   16.4290   25.3560    6.5580 C   0  0  0  0  0  0  0  0  0  0  0  0
   16.5200   25.8620    5.2810 O   0  0  0  0  0  0  0  0  0  0  0  0
   15.2750   27.1190   10.7890 N   0  0  0  0  0  0  0  0  0  0  0  0
   14.1320   28.0130   10.6070 C   0  0  2  0  0  0  0  0  0  0  0  0
   12.9560   27.2860    9.9890 C   0  0  0  0  0  0  0  0  0  0  0  0
   13.0720   26.6930    8.9170 O   0  0  0  0  0  0  0  0  0  0  0  0
   14.6890   29.0980    9.6880 C   0  0  0  0  0  0  0  0  0  0  0  0
   16.0570   29.2660   10.2630 C   0  0  0  0  0  0  0  0  0  0  0  0
   16.5200   27.8220   10.4430 C   0  0  0  0  0  0  0  0  0  0  0  0
   11.8010   27.3470   10.6350 N   0  0  0  0  0  0  0  0  0  0  0  0
   10.6330   26.6830   10.0960 C   0  0  0  0  0  0  0  0  0  0  0  0
   10.3850   25.3310   10.7480 C   0  0  0  0  0  0  0  0  0  0  0  0
    9.3030   24.7590   10.5520 O   0  0  0  0  0  0  0  0  0  0  0  0
   11.3500   24.8050   11.5060 N   0  0  0  0  0  0  0  0  0  0  0  0
   11.1330   23.5260   12.1770 C   0  0  2  0  0  0  0  0  0  0  0  0
   10.3260   23.7640   13.4530 C   0  0  0  0  0  0  0  0  0  0  0  0
   10.2510   24.9250   13.9120 O   0  5  0  0  0  0  0  0  0  0  0  0
   12.4610   22.8620   12.5330 C   0  0  0  0  0  0  0  0  0  0  0  0
   12.3080   21.5250   13.2680 C   0  0  0  0  0  0  0  0  0  0  0  0
   11.9520   20.3540   12.5860 C   0  0  0  0  0  0  0  0  0  0  0  0
   12.5080   21.4360   14.6520 C   0  0  0  0  0  0  0  0  0  0  0  0
   11.8050   19.1360   13.2640 C   0  0  0  0  0  0  0  0  0  0  0  0
   12.3600   20.2280   15.3300 C   0  0  0  0  0  0  0  0  0  0  0  0
   12.0120   19.0830   14.6340 C   0  0  0  0  0  0  0  0  0  0  0  0
   11.8790   17.8870   15.3100 O   0  0  0  0  0  0  0  0  0  0  0  0
    9.8000   22.7750   13.9900 O   0  0  0  0  0  0  0  0  0  0  0  0
   39.0664   28.5996   13.9410 H   0  0  0  0  0  0  0  0  0  0  0  0
   38.2687   27.2477   14.4364 H   0  0  0  0  0  0  0  0  0  0  0  0
   37.4246   28.6092   14.0574 H   0  0  0  0  0  0  0  0  0  0  0  0
   38.0684   28.4744   11.7572 H   0  0  0  0  0  0  0  0  0  0  0  0
   39.4356   25.9181   12.7092 H   0  0  0  0  0  0  0  0  0  0  0  0
   40.2522   27.4252   12.1721 H   0  0  0  0  0  0  0  0  0  0  0  0
   38.4292   25.7842   10.3779 H   0  0  0  0  0  0  0  0  0  0  0  0
   40.1975   25.5003   10.5165 H   0  0  0  0  0  0  0  0  0  0  0  0
   39.7292   27.6139    7.5460 H   0  0  0  0  0  0  0  0  0  0  0  0
   39.3524   26.0015    8.0540 H   0  0  0  0  0  0  0  0  0  0  0  0
   37.2162   25.6837   13.8917 H   0  0  0  0  0  0  0  0  0  0  0  0
   35.3407   24.5705   11.9928 H   0  0  0  0  0  0  0  0  0  0  0  0
   34.4927   23.2643   13.9235 H   0  0  0  0  0  0  0  0  0  0  0  0
   35.4492   24.2917   15.0442 H   0  0  0  0  0  0  0  0  0  0  0  0
   36.2875   23.2323   13.8603 H   0  0  0  0  0  0  0  0  0  0  0  0
   33.1500   24.9571   11.7753 H   0  0  0  0  0  0  0  0  0  0  0  0
   32.0216   27.1639   13.4468 H   0  0  0  0  0  0  0  0  0  0  0  0
   30.6821   27.8355   11.4665 H   0  0  0  0  0  0  0  0  0  0  0  0
   31.5651   26.6184   10.4837 H   0  0  0  0  0  0  0  0  0  0  0  0
   33.6084   27.8577   10.6902 H   0  0  0  0  0  0  0  0  0  0  0  0
   32.8376   29.0179   11.8243 H   0  0  0  0  0  0  0  0  0  0  0  0
   30.4937   29.8090    8.8639 H   0  0  0  0  0  0  0  0  0  0  0  0
   30.2560   28.8049   10.2550 H   0  0  0  0  0  0  0  0  0  0  0  0
   29.8821   27.0129   14.0352 H   0  0  0  0  0  0  0  0  0  0  0  0
   28.1835   25.5015   14.8545 H   0  0  0  0  0  0  0  0  0  0  0  0
   28.6227   24.3498   13.5478 H   0  0  0  0  0  0  0  0  0  0  0  0
   25.3790   26.0682   11.0284 H   0  0  0  0  0  0  0  0  0  0  0  0
   23.9803   24.2796   11.6447 H   0  0  0  0  0  0  0  0  0  0  0  0
   22.9870   25.6109   12.3284 H   0  0  0  0  0  0  0  0  0  0  0  0
   23.7427   23.6750   13.9652 H   0  0  0  0  0  0  0  0  0  0  0  0
   23.9850   25.3695   14.5099 H   0  0  0  0  0  0  0  0  0  0  0  0
   26.1894   24.4410   14.7248 H   0  0  0  0  0  0  0  0  0  0  0  0
   26.0181   23.4716   13.2223 H   0  0  0  0  0  0  0  0  0  0  0  0
   24.5046   30.3166   11.8147 H   0  0  0  0  0  0  0  0  0  0  0  0
   22.9123   31.0411   10.2025 H   0  0  0  0  0  0  0  0  0  0  0  0
   21.7905   29.6831   10.5551 H   0  0  0  0  0  0  0  0  0  0  0  0
   24.4880   29.5917    9.1317 H   0  0  0  0  0  0  0  0  0  0  0  0
   22.8946   29.0092    8.5414 H   0  0  0  0  0  0  0  0  0  0  0  0
   22.8339   27.2092   10.1272 H   0  0  0  0  0  0  0  0  0  0  0  0
   24.5804   27.2657    9.7113 H   0  0  0  0  0  0  0  0  0  0  0  0
   21.8949   28.0633   12.6327 H   0  0  0  0  0  0  0  0  0  0  0  0
   21.3495   29.6168   15.1270 H   0  0  0  0  0  0  0  0  0  0  0  0
   18.9457   29.2850   14.8301 H   0  0  0  0  0  0  0  0  0  0  0  0
   19.2229   28.3973   13.2933 H   0  0  0  0  0  0  0  0  0  0  0  0
   19.3324   31.7621   14.9006 H   0  0  0  0  0  0  0  0  0  0  0  0
   19.5123   29.5760   11.2274 H   0  0  0  0  0  0  0  0  0  0  0  0
   19.0823   33.8745   13.6329 H   0  0  0  0  0  0  0  0  0  0  0  0
   19.2737   31.6851    9.9542 H   0  0  0  0  0  0  0  0  0  0  0  0
   18.9348   34.8081   11.6143 H   0  0  0  0  0  0  0  0  0  0  0  0
   21.5893   25.4870   16.6067 H   0  0  0  0  0  0  0  0  0  0  0  0
   21.5268   26.3200   18.8003 H   0  0  0  0  0  0  0  0  0  0  0  0
   19.9620   25.4386   18.8356 H   0  0  0  0  0  0  0  0  0  0  0  0
   19.9395   28.0279   19.4055 H   0  0  0  0  0  0  0  0  0  0  0  0
   18.7183   27.4157   18.2390 H   0  0  0  0  0  0  0  0  0  0  0  0
   19.7851   29.1712   16.9816 H   0  0  0  0  0  0  0  0  0  0  0  0
   21.4063   28.7775   17.6475 H   0  0  0  0  0  0  0  0  0  0  0  0
   18.4476   26.7807   15.8389 H   0  0  0  0  0  0  0  0  0  0  0  0
   17.4394   24.0118   15.2829 H   0  0  0  0  0  0  0  0  0  0  0  0
   15.8335   26.5312   15.9960 H   0  0  0  0  0  0  0  0  0  0  0  0
   16.3344   24.1319   17.4755 H   0  0  0  0  0  0  0  0  0  0  0  0
   13.8946   24.9843   16.0481 H   0  0  0  0  0  0  0  0  0  0  0  0
   14.9555   23.6362   15.5151 H   0  0  0  0  0  0  0  0  0  0  0  0
   14.6529   25.0278   14.4203 H   0  0  0  0  0  0  0  0  0  0  0  0
   16.4541   23.7306   13.2247 H   0  0  0  0  0  0  0  0  0  0  0  0
   17.2799   25.6916   11.2552 H   0  0  0  0  0  0  0  0  0  0  0  0
   15.3078   23.4033   10.8140 H   0  0  0  0  0  0  0  0  0  0  0  0
   17.0923   23.1986   10.8021 H   0  0  0  0  0  0  0  0  0  0  0  0
   14.1790   24.3465    8.8894 H   0  0  0  0  0  0  0  0  0  0  0  0
   18.4444   24.4790    9.1224 H   0  0  0  0  0  0  0  0  0  0  0  0
   14.2850   25.2347    6.5621 H   0  0  0  0  0  0  0  0  0  0  0  0
   18.5564   25.3647    6.8301 H   0  0  0  0  0  0  0  0  0  0  0  0
   17.0299   25.2686    4.7420 H   0  0  0  0  0  0  0  0  0  0  0  0
   13.8184   28.4451   11.5687 H   0  0  0  0  0  0  0  0  0  0  0  0
   14.1035   30.0268    9.7550 H   0  0  0  0  0  0  0  0  0  0  0  0
   14.7270   28.7632    8.6409 H   0  0  0  0  0  0  0  0  0  0  0  0
   16.0208   29.7948   11.2269 H   0  0  0  0  0  0  0  0  0  0  0  0
   16.7151   29.8109    9.5703 H   0  0  0  0  0  0  0  0  0  0  0  0
   16.9526   27.4261    9.5123 H   0  0  0  0  0  0  0  0  0  0  0  0
   17.2587   27.7414   11.2541 H   0  0  0  0  0  0  0  0  0  0  0  0
   11.7359   27.8521   11.4956 H   0  0  0  0  0  0  0  0  0  0  0  0
   10.7780   26.5335    9.0159 H   0  0  0  0  0  0  0  0  0  0  0  0
    9.7539   27.3227   10.2629 H   0  0  0  0  0  0  0  0  0  0  0  0
   12.2200   25.2860   11.6142 H   0  0  0  0  0  0  0  0  0  0  0  0
   10.5687   22.8604   11.5072 H   0  0  0  0  0  0  0  0  0  0  0  0
   13.0301   23.5484   13.1771 H   0  0  0  0  0  0  0  0  0  0  0  0
   13.0200   22.6840   11.6025 H   0  0  0  0  0  0  0  0  0  0  0  0
   11.7874   20.3906   11.5152 H   0  0  0  0  0  0  0  0  0  0  0  0
   12.7836   22.3256   15.2067 H   0  0  0  0  0  0  0  0  0  0  0  0
   11.5307   18.2396   12.7197 H   0  0  0  0  0  0  0  0  0  0  0  0
   12.5172   20.1846   16.4017 H   0  0  0  0  0  0  0  0  0  0  0  0
   11.6386   17.2028   14.6964 H   0  0  0  0  0  0  0  0  0  0  0  0
  1  2  1  0  0  0  0
  1104  1  0  0  0  0
  1105  1  0  0  0  0
  1106  1  0  0  0  0
  2  3  1  0  0  0  0
  2  5  1  0  0  0  0
  2107  1  6  0  0  0
  3  4  2  0  0  0  0
  3 10  1  0  0  0  0
  5  6  1  0  0  0  0
  5108  1  0  0  0  0
  5109  1  0  0  0  0
  6  7  1  0  0  0  0
  6110  1  0  0  0  0
  6111  1  0  0  0  0
  7  8  2  0  0  0  0
  7  9  1  0  0  0  0
  9112  1  0  0  0  0
  9113  1  0  0  0  0
 10 11  1  0  0  0  0
 10114  1  0  0  0  0
 11 12  1  0  0  0  0
 11 14  1  0  0  0  0
 11115  1  6  0  0  0
 12 13  2  0  0  0  0
 12 15  1  0  0  0  0
 14116  1  0  0  0  0
 14117  1  0  0  0  0
 14118  1  0  0  0  0
 15 16  1  0  0  0  0
 15119  1  0  0  0  0
 16 17  1  0  0  0  0
 16 19  1  0  0  0  0
 16120  1  1  0  0  0
 17 18  2  0  0  0  0
 17 24  1  0  0  0  0
 19 20  1  0  0  0  0
 19121  1  0  0  0  0
 19122  1  0  0  0  0
 20 21  1  0  0  0  0
 20123  1  0  0  0  0
 20124  1  0  0  0  0
 21 22  2  0  0  0  0
 21 23  1  0  0  0  0
 23125  1  0  0  0  0
 23126  1  0  0  0  0
 24 25  1  0  0  0  0
 24127  1  0  0  0  0
 25 26  1  0  0  0  0
 25128  1  0  0  0  0
 25129  1  0  0  0  0
 26 27  2  0  0  0  0
 26 28  1  0  0  0  0
 28 29  1  0  0  0  0
 28 34  1  0  0  0  0
 29 30  1  0  0  0  0
 29 32  1  0  0  0  0
 29130  1  6  0  0  0
 30 31  2  0  0  0  0
 30 35  1  0  0  0  0
 32 33  1  0  0  0  0
 32131  1  0  0  0  0
 32132  1  0  0  0  0
 33 34  1  0  0  0  0
 33133  1  0  0  0  0
 33134  1  0  0  0  0
 34135  1  0  0  0  0
 34136  1  0  0  0  0
 35 36  1  0  0  0  0
 35 41  1  0  0  0  0
 36 37  1  0  0  0  0
 36 39  1  0  0  0  0
 36137  1  1  0  0  0
 37 38  2  0  0  0  0
 37 42  1  0  0  0  0
 39 40  1  0  0  0  0
 39138  1  0  0  0  0
 39139  1  0  0  0  0
 40 41  1  0  0  0  0
 40140  1  0  0  0  0
 40141  1  0  0  0  0
 41142  1  0  0  0  0
 41143  1  0  0  0  0
 42 43  1  0  0  0  0
 42144  1  0  0  0  0
 43 44  1  0  0  0  0
 43 46  1  0  0  0  0
 43145  1  1  0  0  0
 44 45  2  0  0  0  0
 44 54  1  0  0  0  0
 46 47  1  0  0  0  0
 46146  1  0  0  0  0
 46147  1  0  0  0  0
 47 48  2  0  0  0  0
 47 49  1  0  0  0  0
 48 50  1  0  0  0  0
 48148  1  0  0  0  0
 49 51  2  0  0  0  0
 49149  1  0  0  0  0
 50 52  2  0  0  0  0
 50150  1  0  0  0  0
 51 52  1  0  0  0  0
 51151  1  0  0  0  0
 52 53  1  0  0  0  0
 53152  1  0  0  0  0
 54 55  1  0  0  0  0
 54 60  1  0  0  0  0
 55 56  1  0  0  0  0
 55 58  1  0  0  0  0
 55153  1  6  0  0  0
 56 57  2  0  0  0  0
 56 61  1  0  0  0  0
 58 59  1  0  0  0  0
 58154  1  0  0  0  0
 58155  1  0  0  0  0
 59 60  1  0  0  0  0
 59156  1  0  0  0  0
 59157  1  0  0  0  0
 60158  1  0  0  0  0
 60159  1  0  0  0  0
 61 62  1  0  0  0  0
 61160  1  0  0  0  0
 62 63  1  0  0  0  0
 62 65  1  0  0  0  0
 62161  1  1  0  0  0
 63 64  2  0  0  0  0
 63 68  1  0  0  0  0
 65 66  1  0  0  0  0
 65 67  1  0  0  0  0
 65162  1  6  0  0  0
 66163  1  0  0  0  0
 67164  1  0  0  0  0
 67165  1  0  0  0  0
 67166  1  0  0  0  0
 68 69  1  0  0  0  0
 68167  1  0  0  0  0
 69 70  1  0  0  0  0
 69 72  1  0  0  0  0
 69168  1  6  0  0  0
 70 71  2  0  0  0  0
 70 80  1  0  0  0  0
 72 73  1  0  0  0  0
 72169  1  0  0  0  0
 72170  1  0  0  0  0
 73 74  2  0  0  0  0
 73 75  1  0  0  0  0
 74 76  1  0  0  0  0
 74171  1  0  0  0  0
 75 77  2  0  0  0  0
 75172  1  0  0  0  0
 76 78  2  0  0  0  0
 76173  1  0  0  0  0
 77 78  1  0  0  0  0
 77174  1  0  0  0  0
 78 79  1  0  0  0  0
 79175  1  0  0  0  0
 80 81  1  0  0  0  0
 80 86  1  0  0  0  0
 81 82  1  0  0  0  0
 81 84  1  0  0  0  0
 81176  1  1  0  0  0
 82 83  2  0  0  0  0
 82 87  1  0  0  0  0
 84 85  1  0  0  0  0
 84177  1  0  0  0  0
 84178  1  0  0  0  0
 85 86  1  0  0  0  0
 85179  1  0  0  0  0
 85180  1  0  0  0  0
 86181  1  0  0  0  0
 86182  1  0  0  0  0
 87 88  1  0  0  0  0
 87183  1  0  0  0  0
 88 89  1  0  0  0  0
 88184  1  0  0  0  0
 88185  1  0  0  0  0
 89 90  2  0  0  0  0
 89 91  1  0  0  0  0
 91 92  1  0  0  0  0
 91186  1  0  0  0  0
 92 93  1  0  0  0  0
 92 95  1  0  0  0  0
 92187  1  6  0  0  0
 93 94  1  0  0  0  0
 93103  2  0  0  0  0
 95 96  1  0  0  0  0
 95188  1  0  0  0  0
 95189  1  0  0  0  0
 96 97  2  0  0  0  0
 96 98  1  0  0  0  0
 97 99  1  0  0  0  0
 97190  1  0  0  0  0
 98100  2  0  0  0  0
 98191  1  0  0  0  0
 99101  2  0  0  0  0
 99192  1  0  0  0  0
100101  1  0  0  0  0
100193  1  0  0  0  0
101102  1  0  0  0  0
102194  1  0  0  0  0
M  CHG  2   1   1  94  -1
M  END
