3e3b_ligand
 OpenBabel08222323343D

 47 50  0  0  0  0  0  0  0  0999 V2000
  -24.5950   26.2430  -17.4690 N   0  0  0  0  0  0  0  0  0  0  0  0
  -24.9520   26.0670  -18.7360 C   0  0  0  0  0  0  0  0  0  0  0  0
  -25.8320   25.0290  -19.0460 C   0  0  0  0  0  0  0  0  0  0  0  0
  -26.3060   24.2390  -18.0770 N   0  0  0  0  0  0  0  0  0  0  0  0
  -25.9330   24.4470  -16.8370 C   0  0  0  0  0  0  0  0  0  0  0  0
  -25.0450   25.4720  -16.4930 C   0  0  0  0  0  0  0  0  0  0  0  0
  -26.2300   24.7880  -20.3010 N   0  0  0  0  0  0  0  0  0  0  0  0
  -26.4090   23.6530  -15.9480 N   0  0  0  0  0  0  0  0  0  0  0  0
  -26.8930   23.6610  -20.7010 C   0  0  0  0  0  0  0  0  0  0  0  0
  -27.3680   23.8630  -22.0180 C   0  0  0  0  0  0  0  0  0  0  0  0
  -26.8810   25.1810  -22.2890 C   0  0  0  0  0  0  0  0  0  0  0  0
  -26.1360   25.6140  -21.2340 N   0  0  0  0  0  0  0  0  0  0  0  0
  -27.1800   22.4520  -16.0950 C   0  0  0  0  0  0  0  0  0  0  0  0
  -27.3730   21.7560  -14.8950 C   0  0  0  0  0  0  0  0  0  0  0  0
  -26.5940   22.4160  -13.9150 C   0  0  0  0  0  0  0  0  0  0  0  0
  -26.1550   23.5900  -14.5260 C   0  0  0  0  0  0  0  0  0  0  0  0
  -28.1200   22.9210  -22.7500 C   0  0  0  0  0  0  0  0  0  0  0  0
  -28.3730   21.7040  -22.0690 C   0  0  0  0  0  0  0  0  0  0  0  0
  -27.8980   21.4540  -20.7440 C   0  0  0  0  0  0  0  0  0  0  0  0
  -27.1550   22.4360  -20.0460 C   0  0  0  0  0  0  0  0  0  0  0  0
  -28.1840   20.2220  -20.1880 N   0  0  0  0  0  0  0  0  0  0  0  0
  -28.6280   19.9080  -18.8200 C   0  0  0  0  0  0  0  0  0  0  0  0
  -29.3950   18.6080  -18.8340 C   0  0  0  0  0  0  0  0  0  0  0  0
  -29.6620   20.8830  -18.3420 C   0  0  0  0  0  0  0  0  0  0  0  0
  -28.2700   20.5610  -14.6890 C   0  0  0  0  0  0  0  0  0  0  0  0
  -27.8430   19.5900  -13.5940 C   0  0  0  0  0  0  0  0  0  0  0  0
  -28.6620   18.7210  -13.2910 O   0  5  0  0  0  0  0  0  0  0  0  0
  -26.7330   19.6770  -13.0540 O   0  0  0  0  0  0  0  0  0  0  0  0
  -24.5675   26.7166  -19.5140 H   0  0  0  0  0  0  0  0  0  0  0  0
  -24.7374   25.6284  -15.4654 H   0  0  0  0  0  0  0  0  0  0  0  0
  -27.0757   25.7494  -23.1973 H   0  0  0  0  0  0  0  0  0  0  0  0
  -27.5780   22.1132  -17.0504 H   0  0  0  0  0  0  0  0  0  0  0  0
  -26.3827   22.0792  -12.9012 H   0  0  0  0  0  0  0  0  0  0  0  0
  -25.6623   24.3920  -13.9783 H   0  0  0  0  0  0  0  0  0  0  0  0
  -28.4768   23.1128  -23.7555 H   0  0  0  0  0  0  0  0  0  0  0  0
  -28.9479   20.9344  -22.5714 H   0  0  0  0  0  0  0  0  0  0  0  0
  -26.7975   22.2540  -19.0390 H   0  0  0  0  0  0  0  0  0  0  0  0
  -28.0713   19.4134  -20.8159 H   0  0  0  0  0  0  0  0  0  0  0  0
  -27.7642   19.8698  -18.1400 H   0  0  0  0  0  0  0  0  0  0  0  0
  -29.7293   18.3685  -17.8137 H   0  0  0  0  0  0  0  0  0  0  0  0
  -28.7445   17.8024  -19.2052 H   0  0  0  0  0  0  0  0  0  0  0  0
  -30.2702   18.7057  -19.4931 H   0  0  0  0  0  0  0  0  0  0  0  0
  -29.9700   20.6189  -17.3196 H   0  0  0  0  0  0  0  0  0  0  0  0
  -30.5360   20.8471  -19.0090 H   0  0  0  0  0  0  0  0  0  0  0  0
  -29.2386   21.8982  -18.3467 H   0  0  0  0  0  0  0  0  0  0  0  0
  -28.3120   20.0036  -15.6364 H   0  0  0  0  0  0  0  0  0  0  0  0
  -29.2743   20.9326  -14.4373 H   0  0  0  0  0  0  0  0  0  0  0  0
  1  2  2  0  0  0  0
  1  6  1  0  0  0  0
  2  3  1  0  0  0  0
  2 29  1  0  0  0  0
  3  4  2  0  0  0  0
  3  7  1  0  0  0  0
  4  5  1  0  0  0  0
  5  6  2  0  0  0  0
  5  8  1  0  0  0  0
  6 30  1  0  0  0  0
  7  9  1  0  0  0  0
  7 12  1  0  0  0  0
  8 13  1  0  0  0  0
  8 16  1  0  0  0  0
  9 10  2  0  0  0  0
  9 20  1  0  0  0  0
 10 11  1  0  0  0  0
 10 17  1  0  0  0  0
 11 12  2  0  0  0  0
 11 31  1  0  0  0  0
 13 14  2  0  0  0  0
 13 32  1  0  0  0  0
 14 15  1  0  0  0  0
 14 25  1  0  0  0  0
 15 16  2  0  0  0  0
 15 33  1  0  0  0  0
 16 34  1  0  0  0  0
 17 18  2  0  0  0  0
 17 35  1  0  0  0  0
 18 19  1  0  0  0  0
 18 36  1  0  0  0  0
 19 20  2  0  0  0  0
 19 21  1  0  0  0  0
 20 37  1  0  0  0  0
 21 22  1  0  0  0  0
 21 38  1  0  0  0  0
 22 23  1  0  0  0  0
 22 24  1  0  0  0  0
 22 39  1  0  0  0  0
 23 40  1  0  0  0  0
 23 41  1  0  0  0  0
 23 42  1  0  0  0  0
 24 43  1  0  0  0  0
 24 44  1  0  0  0  0
 24 45  1  0  0  0  0
 25 26  1  0  0  0  0
 25 46  1  0  0  0  0
 25 47  1  0  0  0  0
 26 27  1  0  0  0  0
 26 28  2  0  0  0  0
M  CHG  1  27  -1
M  END
