3e62_ligand
 OpenBabel08222323343D

 17 18  0  0  0  0  0  0  0  0999 V2000
   33.7560   40.6770   36.4760 C   0  0  0  0  0  0  0  0  0  0  0  0
   33.1580   39.5960   37.1320 C   0  0  0  0  0  0  0  0  0  0  0  0
   33.4490   42.0510   36.3260 C   0  0  0  0  0  0  0  0  0  0  0  0
   32.3800   42.6610   36.8630 N   0  0  0  0  0  0  0  0  0  0  0  0
   33.7830   38.3500   37.0230 C   0  0  0  0  0  0  0  0  0  0  0  0
   34.9720   38.1490   36.3020 C   0  0  0  0  0  0  0  0  0  0  0  0
   32.9450   36.9070   37.9130 Br  0  0  0  0  0  0  0  0  0  0  0  0
   35.5840   39.2270   35.6420 C   0  0  0  0  0  0  0  0  0  0  0  0
   34.9400   40.4720   35.7550 C   0  0  0  0  0  0  0  0  0  0  0  0
   35.2370   41.7040   35.2440 N   0  0  0  0  0  0  0  0  0  0  0  0
   34.3560   42.6620   35.5880 N   0  0  0  0  0  0  0  0  0  0  0  0
   32.2449   39.7195   37.7031 H   0  0  0  0  0  0  0  0  0  0  0  0
   32.2284   43.6676   36.7057 H   0  0  0  0  0  0  0  0  0  0  0  0
   31.7116   42.1223   37.4322 H   0  0  0  0  0  0  0  0  0  0  0  0
   35.4170   37.1617   36.2552 H   0  0  0  0  0  0  0  0  0  0  0  0
   36.5013   39.1062   35.0772 H   0  0  0  0  0  0  0  0  0  0  0  0
   34.3840   43.6588   35.3302 H   0  0  0  0  0  0  0  0  0  0  0  0
  1  2  1  0  0  0  0
  1  3  2  0  0  0  0
  1  9  1  0  0  0  0
  2  5  2  0  0  0  0
  2 12  1  0  0  0  0
  3  4  1  0  0  0  0
  3 11  1  0  0  0  0
  4 13  1  0  0  0  0
  4 14  1  0  0  0  0
  5  6  1  0  0  0  0
  5  7  1  0  0  0  0
  6  8  2  0  0  0  0
  6 15  1  0  0  0  0
  8  9  1  0  0  0  0
  8 16  1  0  0  0  0
  9 10  2  0  0  0  0
 10 11  1  0  0  0  0
 11 17  1  0  0  0  0
M  END
