3e64_ligand
 OpenBabel08222323343D

 44 46  0  0  0  0  0  0  0  0999 V2000
   30.0080   33.3830   38.5690 O   0  0  0  0  0  0  0  0  0  0  0  0
   32.6360   36.3980   37.0060 C   0  0  0  0  0  0  0  0  0  0  0  0
   29.1580   35.0050   40.2630 O   0  0  0  0  0  0  0  0  0  0  0  0
   31.8480   35.4090   37.6030 C   0  0  0  0  0  0  0  0  0  0  0  0
   33.7460   33.6920   41.3140 C   0  0  0  0  0  0  0  0  0  0  0  0
   31.3820   33.9130   40.7950 N   0  0  0  0  0  0  0  0  0  0  0  0
   31.2700   35.6550   38.8510 C   0  0  0  0  0  0  0  0  0  0  0  0
   32.9110   32.5760   39.2990 C   0  0  0  0  0  0  0  0  0  0  0  0
   32.2480   31.6990   41.5400 C   0  0  0  0  0  0  0  0  0  0  0  0
   32.5370   32.9690   40.7350 C   0  0  0  0  0  0  0  0  0  0  0  0
   30.2760   34.3750   39.5910 S   0  0  0  0  0  0  0  0  0  0  0  0
   31.4670   36.8690   39.5250 C   0  0  0  0  0  0  0  0  0  0  0  0
   32.2440   37.8610   38.9180 C   0  0  0  0  0  0  0  0  0  0  0  0
   32.8600   37.6250   37.6630 C   0  0  0  0  0  0  0  0  0  0  0  0
   33.6390   38.6620   36.9790 C   0  0  0  0  0  0  0  0  0  0  0  0
   33.0980   39.9660   37.0080 C   0  0  0  0  0  0  0  0  0  0  0  0
   33.7580   41.0150   36.3330 C   0  0  0  0  0  0  0  0  0  0  0  0
   33.5390   42.4050   36.1310 C   0  0  0  0  0  0  0  0  0  0  0  0
   32.4560   43.0880   36.5580 N   0  0  0  0  0  0  0  0  0  0  0  0
   34.5070   42.9430   35.3840 N   0  0  0  0  0  0  0  0  0  0  0  0
   35.3360   41.9210   35.1090 N   0  0  0  0  0  0  0  0  0  0  0  0
   34.9420   40.7200   35.6530 C   0  0  0  0  0  0  0  0  0  0  0  0
   35.5060   39.4370   35.5790 C   0  0  0  0  0  0  0  0  0  0  0  0
   34.8290   38.4080   36.2580 C   0  0  0  0  0  0  0  0  0  0  0  0
   33.0773   36.2201   36.0320 H   0  0  0  0  0  0  0  0  0  0  0  0
   31.6872   34.4610   37.1025 H   0  0  0  0  0  0  0  0  0  0  0  0
   34.6201   33.0248   41.2863 H   0  0  0  0  0  0  0  0  0  0  0  0
   33.5373   33.9798   42.3549 H   0  0  0  0  0  0  0  0  0  0  0  0
   33.9539   34.5935   40.7189 H   0  0  0  0  0  0  0  0  0  0  0  0
   31.2360   34.3420   41.6864 H   0  0  0  0  0  0  0  0  0  0  0  0
   32.0670   32.0473   38.8320 H   0  0  0  0  0  0  0  0  0  0  0  0
   33.7917   31.9172   39.3167 H   0  0  0  0  0  0  0  0  0  0  0  0
   33.1422   33.4818   38.7193 H   0  0  0  0  0  0  0  0  0  0  0  0
   31.3738   31.1855   41.1134 H   0  0  0  0  0  0  0  0  0  0  0  0
   32.0410   31.9673   42.5865 H   0  0  0  0  0  0  0  0  0  0  0  0
   33.1215   31.0318   41.4984 H   0  0  0  0  0  0  0  0  0  0  0  0
   31.0244   37.0358   40.5004 H   0  0  0  0  0  0  0  0  0  0  0  0
   32.3762   38.8174   39.4108 H   0  0  0  0  0  0  0  0  0  0  0  0
   32.1781   40.1608   37.5474 H   0  0  0  0  0  0  0  0  0  0  0  0
   32.3760   44.0973   36.3687 H   0  0  0  0  0  0  0  0  0  0  0  0
   31.7095   42.5999   37.0732 H   0  0  0  0  0  0  0  0  0  0  0  0
   34.5981   43.9243   35.0847 H   0  0  0  0  0  0  0  0  0  0  0  0
   36.4188   39.2483   35.0256 H   0  0  0  0  0  0  0  0  0  0  0  0
   35.2272   37.4002   36.2281 H   0  0  0  0  0  0  0  0  0  0  0  0
  2 14  1  0  0  0  0
  2 25  1  0  0  0  0
  4  2  2  0  0  0  0
  4 26  1  0  0  0  0
  5 27  1  0  0  0  0
  5 28  1  0  0  0  0
  5 29  1  0  0  0  0
  6 10  1  0  0  0  0
  6 30  1  0  0  0  0
  7  4  1  0  0  0  0
  7 11  1  0  0  0  0
  7 12  2  0  0  0  0
  8 31  1  0  0  0  0
  8 32  1  0  0  0  0
  8 33  1  0  0  0  0
  9 34  1  0  0  0  0
  9 35  1  0  0  0  0
  9 36  1  0  0  0  0
 10  5  1  0  0  0  0
 10  8  1  0  0  0  0
 10  9  1  0  0  0  0
 11  1  2  0  0  0  0
 11  3  2  0  0  0  0
 11  6  1  0  0  0  0
 12 13  1  0  0  0  0
 12 37  1  0  0  0  0
 13 14  2  0  0  0  0
 13 38  1  0  0  0  0
 14 15  1  0  0  0  0
 15 16  2  0  0  0  0
 15 24  1  0  0  0  0
 16 17  1  0  0  0  0
 16 39  1  0  0  0  0
 17 18  2  0  0  0  0
 17 22  1  0  0  0  0
 18 19  1  0  0  0  0
 18 20  1  0  0  0  0
 19 40  1  0  0  0  0
 19 41  1  0  0  0  0
 20 21  1  0  0  0  0
 20 42  1  0  0  0  0
 21 22  2  0  0  0  0
 22 23  1  0  0  0  0
 23 24  2  0  0  0  0
 23 43  1  0  0  0  0
 24 44  1  0  0  0  0
M  END
