3e6v_ligand
 OpenBabel08222323343D

 25 24  0  0  1  0  0  0  0  0999 V2000
   26.0850   -9.9980   -4.6650 N   0  3  0  0  0  0  0  0  0  0  0  0
   25.9660  -10.0600   -6.1400 C   0  0  2  0  0  0  0  0  0  0  0  0
   24.5180   -9.5620   -6.4670 C   0  0  0  0  0  0  0  0  0  0  0  0
   24.0300   -9.4690   -7.5560 O   0  5  0  0  0  0  0  0  0  0  0  0
   23.8260   -9.2240   -5.3470 O   0  0  0  0  0  0  0  0  0  0  0  0
   26.2090  -11.5220   -6.6340 C   0  0  0  0  0  0  0  0  0  0  0  0
   25.0650  -12.5050   -6.4170 C   0  0  0  0  0  0  0  0  0  0  0  0
   25.4790  -13.9580   -6.3220 C   0  0  0  0  0  0  0  0  0  0  0  0
   24.2880  -14.8550   -5.9800 C   0  0  0  0  0  0  0  0  0  0  0  0
   24.5650  -16.4070   -5.8270 Br  0  0  0  0  0  4  0  0  0  0  0  0
   23.3350  -17.1330   -5.6050 O   0  0  0  0  0  1  0  0  0  0  0  0
   25.3780  -16.6580   -4.6670 O   0  0  0  0  0  1  0  0  0  0  0  0
   25.2240  -17.0140   -6.9550 O   0  0  0  0  0  1  0  0  0  0  0  0
   27.0032  -10.3089   -4.3887 H   0  0  0  0  0  0  0  0  0  0  0  0
   25.3883  -10.5941   -4.2463 H   0  0  0  0  0  0  0  0  0  0  0  0
   25.9446   -9.0488   -4.3562 H   0  0  0  0  0  0  0  0  0  0  0  0
   26.7052   -9.3952   -6.6108 H   0  0  0  0  0  0  0  0  0  0  0  0
   27.0914  -11.9123   -6.1058 H   0  0  0  0  0  0  0  0  0  0  0  0
   26.4161  -11.4813   -7.7136 H   0  0  0  0  0  0  0  0  0  0  0  0
   24.3643  -12.4043   -7.2589 H   0  0  0  0  0  0  0  0  0  0  0  0
   24.5550  -12.2337   -5.4809 H   0  0  0  0  0  0  0  0  0  0  0  0
   26.2428  -14.0622   -5.5373 H   0  0  0  0  0  0  0  0  0  0  0  0
   25.8999  -14.2744   -7.2878 H   0  0  0  0  0  0  0  0  0  0  0  0
   23.6763  -15.0114   -6.8807 H   0  0  0  0  0  0  0  0  0  0  0  0
   23.6779  -14.3735   -5.2016 H   0  0  0  0  0  0  0  0  0  0  0  0
  1  2  1  0  0  0  0
  1 14  1  0  0  0  0
  1 15  1  0  0  0  0
  1 16  1  0  0  0  0
  2  3  1  0  0  0  0
  2  6  1  0  0  0  0
  2 17  1  6  0  0  0
  3  4  1  0  0  0  0
  3  5  2  0  0  0  0
  6  7  1  0  0  0  0
  6 18  1  0  0  0  0
  6 19  1  0  0  0  0
  7  8  1  0  0  0  0
  7 20  1  0  0  0  0
  7 21  1  0  0  0  0
  8  9  1  0  0  0  0
  8 22  1  0  0  0  0
  8 23  1  0  0  0  0
  9 10  1  0  0  0  0
  9 24  1  0  0  0  0
  9 25  1  0  0  0  0
 10 12  1  0  0  0  0
 10 13  1  0  0  0  0
 10 11  1  0  0  0  0
M  CHG  2   1   1   4  -1
M  END
