3e8u_ligand
 OpenBabel08222323343D

128128  0  0  1  0  0  0  0  0999 V2000
   23.6090   30.5110   45.1100 C   0  0  0  0  0  0  0  0  0  0  0  0
   23.7700   31.5340   46.2310 C   0  0  0  0  0  0  0  0  0  0  0  0
   24.7790   32.2540   46.2890 O   0  0  0  0  0  0  0  0  0  0  0  0
   22.7720   31.6080   47.1080 N   0  0  0  0  0  0  0  0  0  0  0  0
   22.7900   32.5030   48.2660 C   0  0  2  0  0  0  0  0  0  0  0  0
   22.2310   31.7590   49.4800 C   0  0  0  0  0  0  0  0  0  0  0  0
   21.0410   31.4630   49.5400 O   0  0  0  0  0  0  0  0  0  0  0  0
   21.9430   33.7970   48.0250 C   0  0  0  0  0  0  0  0  0  0  0  0
   22.0180   34.7140   49.2180 C   0  0  0  0  0  0  0  0  0  0  0  0
   22.4180   34.5390   46.7990 C   0  0  0  0  0  0  0  0  0  0  0  0
   23.0810   31.4590   50.4550 N   0  0  0  0  0  0  0  0  0  0  0  0
   22.5790   30.8800   51.6910 C   0  0  2  0  0  0  0  0  0  0  0  0
   21.9970   31.9450   52.6240 C   0  0  0  0  0  0  0  0  0  0  0  0
   20.7690   32.0850   52.7300 O   0  0  0  0  0  0  0  0  0  0  0  0
   23.6400   30.0090   52.3850 C   0  0  0  0  0  0  0  0  0  0  0  0
   23.8210   28.6210   51.7450 C   0  0  0  0  0  0  0  0  0  0  0  0
   22.5610   27.7820   51.7840 C   0  0  0  0  0  0  0  0  0  0  0  0
   21.6630   28.0210   52.6020 O   0  0  0  0  0  0  0  0  0  0  0  0
   22.4940   26.7750   50.9140 N   0  0  0  0  0  0  0  0  0  0  0  0
   22.8650   32.7050   53.2830 N   0  0  0  0  0  0  0  0  0  0  0  0
   22.4180   33.7540   54.1860 C   0  0  0  0  0  0  0  0  0  0  0  0
   22.1440   35.0330   53.4300 C   0  0  0  0  0  0  0  0  0  0  0  0
   22.9660   35.4780   52.6230 O   0  0  0  0  0  0  0  0  0  0  0  0
   20.9710   35.6200   53.6870 N   0  0  0  0  0  0  0  0  0  0  0  0
   20.6260   36.8990   53.0950 C   0  0  2  0  0  0  0  0  0  0  0  0
   21.3200   38.0310   53.8530 C   0  0  0  0  0  0  0  0  0  0  0  0
   21.5550   37.9250   55.0610 O   0  0  0  0  0  0  0  0  0  0  0  0
   19.1060   37.1070   53.0930 C   0  0  0  0  0  0  0  0  0  0  0  0
   18.7920   38.3650   52.5380 O   0  0  0  0  0  0  0  0  0  0  0  0
   21.6460   39.1010   53.1270 N   0  0  0  0  0  0  0  0  0  0  0  0
   22.1950   40.3170   53.7110 C   0  0  0  0  0  0  0  0  0  0  0  0
   23.3750   40.0640   54.6250 C   0  0  0  0  0  0  0  0  0  0  0  0
   24.3400   39.4170   54.2240 O   0  0  0  0  0  0  0  0  0  0  0  0
   23.2740   40.5400   55.8650 N   0  0  0  0  0  0  0  0  0  0  0  0
   24.3340   40.3660   56.8710 C   0  0  2  0  0  0  0  0  0  0  0  0
   24.8280   38.9270   57.0440 C   0  0  0  0  0  0  0  0  0  0  0  0
   26.0010   38.7080   57.3290 O   0  0  0  0  0  0  0  0  0  0  0  0
   23.8910   40.9430   58.2090 C   0  0  0  0  0  0  0  0  0  0  0  0
   23.9460   37.9510   56.8590 N   0  0  0  0  0  0  0  0  0  0  0  0
   24.3050   36.5380   57.0220 C   0  0  2  0  0  0  0  0  0  0  0  0
   25.1230   35.9470   55.8730 C   0  0  0  0  0  0  0  0  0  0  0  0
   25.7090   34.8690   56.0230 O   0  0  0  0  0  0  0  0  0  0  0  0
   23.0520   35.6840   57.2600 C   0  0  0  0  0  0  0  0  0  0  0  0
   22.3680   35.9680   58.5690 C   0  0  0  0  0  0  0  0  0  0  0  0
   21.2420   36.7780   58.6170 C   0  0  0  0  0  0  0  0  0  0  0  0
   22.8580   35.4250   59.7580 C   0  0  0  0  0  0  0  0  0  0  0  0
   20.6100   37.0500   59.8180 C   0  0  0  0  0  0  0  0  0  0  0  0
   22.2330   35.6850   60.9700 C   0  0  0  0  0  0  0  0  0  0  0  0
   21.1060   36.4960   61.0030 C   0  0  0  0  0  0  0  0  0  0  0  0
   25.1400   36.6340   54.7310 N   0  0  0  0  0  0  0  0  0  0  0  0
   25.9210   36.2080   53.5730 C   0  0  0  0  0  0  0  0  0  0  0  0
   27.2940   36.8540   53.5330 C   0  0  0  0  0  0  0  0  0  0  0  0
   28.0210   36.7250   52.5370 O   0  0  0  0  0  0  0  0  0  0  0  0
   27.6530   37.5320   54.6230 N   0  0  0  0  0  0  0  0  0  0  0  0
   28.9470   38.2040   54.7470 C   0  0  2  0  0  0  0  0  0  0  0  0
   30.0430   37.2060   55.1310 C   0  0  0  0  0  0  0  0  0  0  0  0
   30.9820   36.9940   54.3570 O   0  0  0  0  0  0  0  0  0  0  0  0
   28.8730   39.3720   55.7360 C   0  0  0  0  0  0  0  0  0  0  0  0
   28.2840   40.6400   55.1240 C   0  0  0  0  0  0  0  0  0  0  0  0
   27.9040   41.6720   56.1850 C   0  0  0  0  0  0  0  0  0  0  0  0
   26.8830   42.5940   55.6800 N   0  0  0  0  0  0  0  0  0  0  0  0
   26.2330   43.4900   56.4170 C   0  0  0  0  0  3  0  0  0  0  0  0
   26.4870   43.6320   57.7210 N   0  0  0  0  0  0  0  0  0  0  0  0
   25.3250   44.2570   55.8420 N   0  0  0  0  0  0  0  0  0  0  0  0
   29.9130   36.5840   56.3060 N   0  0  0  0  0  0  0  0  0  0  0  0
   22.6553   29.9773   45.2349 H   0  0  0  0  0  0  0  0  0  0  0  0
   24.4398   29.7911   45.1484 H   0  0  0  0  0  0  0  0  0  0  0  0
   23.6157   31.0272   44.1387 H   0  0  0  0  0  0  0  0  0  0  0  0
   21.9718   31.0245   46.9694 H   0  0  0  0  0  0  0  0  0  0  0  0
   23.8308   32.7965   48.4677 H   0  0  0  0  0  0  0  0  0  0  0  0
   20.8947   33.5009   47.8725 H   0  0  0  0  0  0  0  0  0  0  0  0
   21.4165   35.6148   49.0264 H   0  0  0  0  0  0  0  0  0  0  0  0
   23.0649   35.0026   49.3934 H   0  0  0  0  0  0  0  0  0  0  0  0
   21.6273   34.1942   50.1052 H   0  0  0  0  0  0  0  0  0  0  0  0
   22.3653   33.8738   45.9245 H   0  0  0  0  0  0  0  0  0  0  0  0
   23.4574   34.8665   46.9484 H   0  0  0  0  0  0  0  0  0  0  0  0
   21.7774   35.4172   46.6307 H   0  0  0  0  0  0  0  0  0  0  0  0
   24.0596   31.6300   50.3402 H   0  0  0  0  0  0  0  0  0  0  0  0
   21.7497   30.2115   51.4167 H   0  0  0  0  0  0  0  0  0  0  0  0
   23.3422   29.8704   53.4348 H   0  0  0  0  0  0  0  0  0  0  0  0
   24.6036   30.5379   52.3440 H   0  0  0  0  0  0  0  0  0  0  0  0
   24.6150   28.0861   52.2867 H   0  0  0  0  0  0  0  0  0  0  0  0
   24.1200   28.7555   50.6950 H   0  0  0  0  0  0  0  0  0  0  0  0
   21.6863   26.1858   50.8924 H   0  0  0  0  0  0  0  0  0  0  0  0
   23.2514   26.6085   50.2826 H   0  0  0  0  0  0  0  0  0  0  0  0
   23.8451   32.5528   53.1556 H   0  0  0  0  0  0  0  0  0  0  0  0
   23.1994   33.9399   54.9376 H   0  0  0  0  0  0  0  0  0  0  0  0
   21.4957   33.4279   54.6889 H   0  0  0  0  0  0  0  0  0  0  0  0
   20.3198   35.1698   54.2980 H   0  0  0  0  0  0  0  0  0  0  0  0
   20.9788   36.9076   52.0532 H   0  0  0  0  0  0  0  0  0  0  0  0
   18.7306   37.0607   54.1259 H   0  0  0  0  0  0  0  0  0  0  0  0
   18.6308   36.3159   52.4943 H   0  0  0  0  0  0  0  0  0  0  0  0
   17.8496   38.4848   52.5409 H   0  0  0  0  0  0  0  0  0  0  0  0
   21.5073   39.0669   52.1372 H   0  0  0  0  0  0  0  0  0  0  0  0
   21.4037   40.8131   54.2921 H   0  0  0  0  0  0  0  0  0  0  0  0
   22.5211   40.9793   52.8955 H   0  0  0  0  0  0  0  0  0  0  0  0
   22.4445   41.0355   56.1227 H   0  0  0  0  0  0  0  0  0  0  0  0
   25.1964   40.9551   56.5256 H   0  0  0  0  0  0  0  0  0  0  0  0
   24.6919   40.8062   58.9505 H   0  0  0  0  0  0  0  0  0  0  0  0
   22.9832   40.4236   58.5498 H   0  0  0  0  0  0  0  0  0  0  0  0
   23.6780   42.0159   58.0932 H   0  0  0  0  0  0  0  0  0  0  0  0
   23.0091   38.1866   56.6008 H   0  0  0  0  0  0  0  0  0  0  0  0
   24.9299   36.4731   57.9249 H   0  0  0  0  0  0  0  0  0  0  0  0
   23.3457   34.6241   57.2442 H   0  0  0  0  0  0  0  0  0  0  0  0
   22.3387   35.8791   56.4457 H   0  0  0  0  0  0  0  0  0  0  0  0
   20.8516   37.2041   57.6999 H   0  0  0  0  0  0  0  0  0  0  0  0
   23.7378   34.7922   59.7346 H   0  0  0  0  0  0  0  0  0  0  0  0
   19.7348   37.6893   59.8403 H   0  0  0  0  0  0  0  0  0  0  0  0
   22.6228   35.2570   61.8865 H   0  0  0  0  0  0  0  0  0  0  0  0
   20.6113   36.6995   61.9458 H   0  0  0  0  0  0  0  0  0  0  0  0
   24.5981   37.4718   54.6648 H   0  0  0  0  0  0  0  0  0  0  0  0
   25.3749   36.4817   52.6582 H   0  0  0  0  0  0  0  0  0  0  0  0
   26.0453   35.1158   53.6129 H   0  0  0  0  0  0  0  0  0  0  0  0
   27.0112   37.5836   55.3881 H   0  0  0  0  0  0  0  0  0  0  0  0
   29.2047   38.6194   53.7616 H   0  0  0  0  0  0  0  0  0  0  0  0
   29.8900   39.5948   56.0911 H   0  0  0  0  0  0  0  0  0  0  0  0
   28.2452   39.0703   56.5874 H   0  0  0  0  0  0  0  0  0  0  0  0
   27.3832   40.3718   54.5525 H   0  0  0  0  0  0  0  0  0  0  0  0
   29.0284   41.0854   54.4476 H   0  0  0  0  0  0  0  0  0  0  0  0
   28.7995   42.2459   56.4655 H   0  0  0  0  0  0  0  0  0  0  0  0
   27.5110   41.1500   57.0699 H   0  0  0  0  0  0  0  0  0  0  0  0
   26.6511   42.5443   54.6777 H   0  0  0  0  0  0  0  0  0  0  0  0
   25.9715   44.3325   58.2728 H   0  0  0  0  0  0  0  0  0  0  0  0
   27.1983   43.0410   58.1745 H   0  0  0  0  0  0  0  0  0  0  0  0
   25.1244   44.1527   54.8371 H   0  0  0  0  0  0  0  0  0  0  0  0
   24.8173   44.9596   56.3983 H   0  0  0  0  0  0  0  0  0  0  0  0
   30.6032   35.9232   56.6010 H   0  0  0  0  0  0  0  0  0  0  0  0
   29.1255   36.7791   56.8906 H   0  0  0  0  0  0  0  0  0  0  0  0
  1  2  1  0  0  0  0
  1 66  1  0  0  0  0
  1 67  1  0  0  0  0
  1 68  1  0  0  0  0
  2  3  2  0  0  0  0
  2  4  1  0  0  0  0
  4  5  1  0  0  0  0
  4 69  1  0  0  0  0
  5  6  1  0  0  0  0
  5  8  1  0  0  0  0
  5 70  1  1  0  0  0
  6  7  2  0  0  0  0
  6 11  1  0  0  0  0
  8  9  1  0  0  0  0
  8 10  1  0  0  0  0
  8 71  1  0  0  0  0
  9 72  1  0  0  0  0
  9 73  1  0  0  0  0
  9 74  1  0  0  0  0
 10 75  1  0  0  0  0
 10 76  1  0  0  0  0
 10 77  1  0  0  0  0
 11 12  1  0  0  0  0
 11 78  1  0  0  0  0
 12 13  1  0  0  0  0
 12 15  1  0  0  0  0
 12 79  1  6  0  0  0
 13 14  2  0  0  0  0
 13 20  1  0  0  0  0
 15 16  1  0  0  0  0
 15 80  1  0  0  0  0
 15 81  1  0  0  0  0
 16 17  1  0  0  0  0
 16 82  1  0  0  0  0
 16 83  1  0  0  0  0
 17 18  2  0  0  0  0
 17 19  1  0  0  0  0
 19 84  1  0  0  0  0
 19 85  1  0  0  0  0
 20 21  1  0  0  0  0
 20 86  1  0  0  0  0
 21 22  1  0  0  0  0
 21 87  1  0  0  0  0
 21 88  1  0  0  0  0
 22 23  2  0  0  0  0
 22 24  1  0  0  0  0
 24 25  1  0  0  0  0
 24 89  1  0  0  0  0
 25 26  1  0  0  0  0
 25 28  1  0  0  0  0
 25 90  1  6  0  0  0
 26 27  2  0  0  0  0
 26 30  1  0  0  0  0
 28 29  1  0  0  0  0
 28 91  1  0  0  0  0
 28 92  1  0  0  0  0
 29 93  1  0  0  0  0
 30 31  1  0  0  0  0
 30 94  1  0  0  0  0
 31 32  1  0  0  0  0
 31 95  1  0  0  0  0
 31 96  1  0  0  0  0
 32 33  2  0  0  0  0
 32 34  1  0  0  0  0
 34 35  1  0  0  0  0
 34 97  1  0  0  0  0
 35 36  1  0  0  0  0
 35 38  1  0  0  0  0
 35 98  1  6  0  0  0
 36 37  2  0  0  0  0
 36 39  1  0  0  0  0
 38 99  1  0  0  0  0
 38100  1  0  0  0  0
 38101  1  0  0  0  0
 39 40  1  0  0  0  0
 39102  1  0  0  0  0
 40 41  1  0  0  0  0
 40 43  1  0  0  0  0
 40103  1  1  0  0  0
 41 42  2  0  0  0  0
 41 50  1  0  0  0  0
 43 44  1  0  0  0  0
 43104  1  0  0  0  0
 43105  1  0  0  0  0
 44 45  2  0  0  0  0
 44 46  1  0  0  0  0
 45 47  1  0  0  0  0
 45106  1  0  0  0  0
 46 48  2  0  0  0  0
 46107  1  0  0  0  0
 47 49  2  0  0  0  0
 47108  1  0  0  0  0
 48 49  1  0  0  0  0
 48109  1  0  0  0  0
 49110  1  0  0  0  0
 50 51  1  0  0  0  0
 50111  1  0  0  0  0
 51 52  1  0  0  0  0
 51112  1  0  0  0  0
 51113  1  0  0  0  0
 52 53  2  0  0  0  0
 52 54  1  0  0  0  0
 54 55  1  0  0  0  0
 54114  1  0  0  0  0
 55 56  1  0  0  0  0
 55 58  1  0  0  0  0
 55115  1  6  0  0  0
 56 57  2  0  0  0  0
 56 65  1  0  0  0  0
 58 59  1  0  0  0  0
 58116  1  0  0  0  0
 58117  1  0  0  0  0
 59 60  1  0  0  0  0
 59118  1  0  0  0  0
 59119  1  0  0  0  0
 60 61  1  0  0  0  0
 60120  1  0  0  0  0
 60121  1  0  0  0  0
 61 62  1  0  0  0  0
 61122  1  0  0  0  0
 62 63  1  0  0  0  0
 62 64  1  0  0  0  0
 63123  1  0  0  0  0
 63124  1  0  0  0  0
 64125  1  0  0  0  0
 64126  1  0  0  0  0
 65127  1  0  0  0  0
 65128  1  0  0  0  0
M  END
