3e9i_ligand
 OpenBabel08222323343D

 61 63  0  0  1  0  0  0  0  0999 V2000
   64.2030  -73.4430   18.1720 N   0  3  0  0  0  0  0  0  0  0  0  0
   63.4370  -74.5700   17.6200 C   0  0  0  0  0  0  0  0  0  0  0  0
   62.3550  -75.0020   18.6140 C   0  0  0  0  0  0  0  0  0  0  0  0
   62.9540  -75.5590   19.9080 C   0  0  0  0  0  0  0  0  0  0  0  0
   61.8650  -75.9390   20.9160 C   0  0  0  0  0  0  0  0  0  0  0  0
   61.1230  -74.7010   21.4260 C   0  0  2  0  0  0  0  0  0  0  0  0
   62.0770  -73.8450   22.1450 N   0  3  0  0  0  0  0  0  0  0  0  0
   59.9970  -75.0750   22.3930 C   0  0  0  0  0  0  0  0  0  0  0  0
   59.9690  -74.5900   23.5210 O   0  0  0  0  0  0  0  0  0  0  0  0
   59.0870  -75.9450   21.9620 N   0  0  0  0  0  0  0  0  0  0  0  0
   58.0850  -76.2490   22.8320 O   0  0  0  0  0  0  0  0  0  0  0  0
   57.0800  -77.3790   22.2840 P   0  0  1  0  0  0  0  0  0  0  0  0
   55.7530  -77.0850   22.8690 O   0  0  0  0  0  1  0  0  0  0  0  0
   57.1950  -77.4990   20.8140 O   0  0  0  0  0  0  0  0  0  0  0  0
   57.6650  -78.7120   22.9730 O   0  0  0  0  0  0  0  0  0  0  0  0
   58.5860  -79.5580   22.2790 C   0  0  0  0  0  0  0  0  0  0  0  0
   58.2740  -81.0200   22.6020 C   0  0  1  0  0  0  0  0  0  0  0  0
   58.3940  -81.2900   24.0080 O   0  0  0  0  0  0  0  0  0  0  0  0
   56.8090  -81.3070   22.2780 C   0  0  1  0  0  0  0  0  0  0  0  0
   56.7000  -81.5850   20.8790 O   0  0  0  0  0  0  0  0  0  0  0  0
   56.6310  -82.5950   23.0790 C   0  0  1  0  0  0  0  0  0  0  0  0
   57.2690  -83.6890   22.4130 O   0  0  0  0  0  0  0  0  0  0  0  0
   57.3930  -82.2620   24.3650 C   0  0  2  0  0  0  0  0  0  0  0  0
   56.5420  -81.6380   25.4050 N   0  0  0  0  0  0  0  0  0  0  0  0
   56.1160  -80.3770   25.4220 C   0  0  0  0  0  0  0  0  0  0  0  0
   55.4550  -80.1410   26.5540 N   0  0  0  0  0  0  0  0  0  0  0  0
   55.4570  -81.2640   27.2660 C   0  0  0  0  0  0  0  0  0  0  0  0
   56.1450  -82.2210   26.5330 C   0  0  0  0  0  0  0  0  0  0  0  0
   56.2910  -83.4560   27.0330 N   0  0  0  0  0  0  0  0  0  0  0  0
   55.7890  -83.7740   28.2140 C   0  0  0  0  0  0  0  0  0  0  0  0
   55.1320  -82.8860   28.9390 N   0  0  0  0  0  0  0  0  0  0  0  0
   54.9460  -81.6290   28.5060 C   0  0  0  0  0  0  0  0  0  0  0  0
   54.3010  -80.7440   29.2620 N   0  0  0  0  0  0  0  0  0  0  0  0
   64.9128  -73.1643   17.5128 H   0  0  0  0  0  0  0  0  0  0  0  0
   64.6390  -73.7242   19.0362 H   0  0  0  0  0  0  0  0  0  0  0  0
   63.5825  -72.6678   18.3454 H   0  0  0  0  0  0  0  0  0  0  0  0
   64.1160  -75.4144   17.4304 H   0  0  0  0  0  0  0  0  0  0  0  0
   62.9631  -74.2615   16.6765 H   0  0  0  0  0  0  0  0  0  0  0  0
   61.7337  -75.7802   18.1466 H   0  0  0  0  0  0  0  0  0  0  0  0
   61.7293  -74.1310   18.8586 H   0  0  0  0  0  0  0  0  0  0  0  0
   63.6055  -74.7951   20.3575 H   0  0  0  0  0  0  0  0  0  0  0  0
   63.5480  -76.4537   19.6702 H   0  0  0  0  0  0  0  0  0  0  0  0
   62.3304  -76.4545   21.7690 H   0  0  0  0  0  0  0  0  0  0  0  0
   61.1450  -76.6128   20.4287 H   0  0  0  0  0  0  0  0  0  0  0  0
   60.7004  -74.1544   20.5700 H   0  0  0  0  0  0  0  0  0  0  0  0
   61.6010  -73.0248   22.4868 H   0  0  0  0  0  0  0  0  0  0  0  0
   62.8172  -73.5677   21.5195 H   0  0  0  0  0  0  0  0  0  0  0  0
   62.4670  -74.3553   22.9219 H   0  0  0  0  0  0  0  0  0  0  0  0
   59.1364  -76.3526   21.0502 H   0  0  0  0  0  0  0  0  0  0  0  0
   59.6123  -79.3227   22.5974 H   0  0  0  0  0  0  0  0  0  0  0  0
   58.4912  -79.3931   21.1956 H   0  0  0  0  0  0  0  0  0  0  0  0
   58.9417  -81.6764   22.0247 H   0  0  0  0  0  0  0  0  0  0  0  0
   56.1229  -80.5038   22.5847 H   0  0  0  0  0  0  0  0  0  0  0  0
   57.2342  -82.3409   20.6649 H   0  0  0  0  0  0  0  0  0  0  0  0
   55.5716  -82.8229   23.2681 H   0  0  0  0  0  0  0  0  0  0  0  0
   56.8827  -83.8033   21.5526 H   0  0  0  0  0  0  0  0  0  0  0  0
   57.8566  -83.1750   24.7669 H   0  0  0  0  0  0  0  0  0  0  0  0
   56.2827  -79.6484   24.6300 H   0  0  0  0  0  0  0  0  0  0  0  0
   55.9187  -84.7808   28.5942 H   0  0  0  0  0  0  0  0  0  0  0  0
   53.9266  -81.0260   30.1792 H   0  0  0  0  0  0  0  0  0  0  0  0
   54.1761  -79.7770   28.9300 H   0  0  0  0  0  0  0  0  0  0  0  0
  1  2  1  0  0  0  0
  1 34  1  0  0  0  0
  1 35  1  0  0  0  0
  1 36  1  0  0  0  0
  2  3  1  0  0  0  0
  2 37  1  0  0  0  0
  2 38  1  0  0  0  0
  3  4  1  0  0  0  0
  3 39  1  0  0  0  0
  3 40  1  0  0  0  0
  4  5  1  0  0  0  0
  4 41  1  0  0  0  0
  4 42  1  0  0  0  0
  5  6  1  0  0  0  0
  5 43  1  0  0  0  0
  5 44  1  0  0  0  0
  6  7  1  0  0  0  0
  6  8  1  0  0  0  0
  6 45  1  6  0  0  0
  7 46  1  0  0  0  0
  7 47  1  0  0  0  0
  7 48  1  0  0  0  0
  8  9  2  0  0  0  0
  8 10  1  0  0  0  0
 10 11  1  0  0  0  0
 10 49  1  0  0  0  0
 11 12  1  0  0  0  0
 12 13  1  1  0  0  0
 12 14  2  0  0  0  0
 12 15  1  0  0  0  0
 15 16  1  0  0  0  0
 16 17  1  0  0  0  0
 16 50  1  0  0  0  0
 16 51  1  0  0  0  0
 17 18  1  0  0  0  0
 17 19  1  0  0  0  0
 17 52  1  6  0  0  0
 18 23  1  0  0  0  0
 19 20  1  0  0  0  0
 19 21  1  0  0  0  0
 19 53  1  1  0  0  0
 20 54  1  0  0  0  0
 21 22  1  0  0  0  0
 21 23  1  0  0  0  0
 21 55  1  1  0  0  0
 22 56  1  0  0  0  0
 23 24  1  0  0  0  0
 23 57  1  1  0  0  0
 24 25  1  0  0  0  0
 24 28  1  0  0  0  0
 25 26  2  0  0  0  0
 25 58  1  0  0  0  0
 26 27  1  0  0  0  0
 27 28  2  0  0  0  0
 27 32  1  0  0  0  0
 28 29  1  0  0  0  0
 29 30  2  0  0  0  0
 30 31  1  0  0  0  0
 30 59  1  0  0  0  0
 31 32  2  0  0  0  0
 32 33  1  0  0  0  0
 33 60  1  0  0  0  0
 33 61  1  0  0  0  0
M  CHG  2   1   1   7   1
M  END
