3ebb_ligand
 OpenBabel08222323343D

 62 62  0  0  1  0  0  0  0  0999 V2000
    8.4020  -14.3700   33.6810 N   0  3  0  0  0  0  0  0  0  0  0  0
    9.2080  -14.6810   34.8950 C   0  0  2  0  0  0  0  0  0  0  0  0
   10.6930  -14.3150   34.7240 C   0  0  0  0  0  0  0  0  0  0  0  0
   11.4620  -14.2970   35.6940 O   0  0  0  0  0  0  0  0  0  0  0  0
    9.0610  -16.1650   35.2460 C   0  0  0  0  0  0  0  0  0  0  0  0
    9.0250  -16.4170   36.7540 C   0  0  0  0  0  0  0  0  0  0  0  0
    8.3940  -17.4210   37.1610 O   0  5  0  0  0  0  0  0  0  0  0  0
    9.6150  -15.6230   37.5290 O   0  0  0  0  0  0  0  0  0  0  0  0
   11.0860  -14.0170   33.4900 N   0  0  0  0  0  0  0  0  0  0  0  0
   12.4850  -13.7400   33.1640 C   0  0  2  0  0  0  0  0  0  0  0  0
   13.0690  -12.4520   33.7730 C   0  0  0  0  0  0  0  0  0  0  0  0
   14.2250  -12.4480   34.2100 O   0  0  0  0  0  0  0  0  0  0  0  0
   12.6700  -13.7380   31.6410 C   0  0  0  0  0  0  0  0  0  0  0  0
   13.0920  -15.0030   30.8720 C   0  0  0  0  0  0  0  0  0  0  0  0
   12.9670  -16.2920   31.6820 C   0  0  0  0  0  0  0  0  0  0  0  0
   12.3150  -15.0980   29.5740 C   0  0  0  0  0  0  0  0  0  0  0  0
   12.2770  -11.3780   33.8020 N   0  0  0  0  0  0  0  0  0  0  0  0
   12.7950  -10.0210   34.0590 C   0  0  2  0  0  0  0  0  0  0  0  0
   12.1860   -9.3340   35.2960 C   0  0  0  0  0  0  0  0  0  0  0  0
   11.1650   -9.7960   35.8110 O   0  0  0  0  0  0  0  0  0  0  0  0
   12.5770   -9.1440   32.8190 C   0  0  0  0  0  0  0  0  0  0  0  0
   13.2730   -9.6750   31.5900 C   0  0  0  0  0  0  0  0  0  0  0  0
   14.6530   -9.5160   31.4170 C   0  0  0  0  0  0  0  0  0  0  0  0
   12.5590  -10.3480   30.6040 C   0  0  0  0  0  0  0  0  0  0  0  0
   15.2970  -10.0190   30.2870 C   0  0  0  0  0  0  0  0  0  0  0  0
   13.1950  -10.8590   29.4720 C   0  0  0  0  0  0  0  0  0  0  0  0
   14.5570  -10.6910   29.3200 C   0  0  0  0  0  0  0  0  0  0  0  0
   15.1690  -11.1920   28.1920 O   0  0  0  0  0  0  0  0  0  0  0  0
   12.8020   -8.2470   35.7850 N   0  0  0  0  0  0  0  0  0  0  0  0
   14.1050   -7.7360   35.3050 C   0  0  0  0  0  0  0  0  0  0  0  0
   14.0590   -6.4160   34.5480 C   0  0  0  0  0  0  0  0  0  0  0  0
   13.0520   -5.6920   34.5710 O   0  5  0  0  0  0  0  0  0  0  0  0
   15.0655   -6.0510   33.8837 O   0  0  0  0  0  0  0  0  0  0  0  0
    7.4404  -14.6264   33.8414 H   0  0  0  0  0  0  0  0  0  0  0  0
    8.7620  -14.8903   32.8963 H   0  0  0  0  0  0  0  0  0  0  0  0
    8.4582  -13.3830   33.4841 H   0  0  0  0  0  0  0  0  0  0  0  0
    8.8083  -14.0860   35.7294 H   0  0  0  0  0  0  0  0  0  0  0  0
    9.9133  -16.7133   34.8184 H   0  0  0  0  0  0  0  0  0  0  0  0
    8.1255  -16.5395   34.8048 H   0  0  0  0  0  0  0  0  0  0  0  0
   10.4031  -13.9809   32.7604 H   0  0  0  0  0  0  0  0  0  0  0  0
   13.0746  -14.5743   33.5717 H   0  0  0  0  0  0  0  0  0  0  0  0
   13.4330  -12.9760   31.4238 H   0  0  0  0  0  0  0  0  0  0  0  0
   11.7063  -13.4242   31.2135 H   0  0  0  0  0  0  0  0  0  0  0  0
   14.1559  -14.8876   30.6174 H   0  0  0  0  0  0  0  0  0  0  0  0
   13.2858  -17.1451   31.0651 H   0  0  0  0  0  0  0  0  0  0  0  0
   11.9200  -16.4323   31.9886 H   0  0  0  0  0  0  0  0  0  0  0  0
   13.6052  -16.2269   32.5755 H   0  0  0  0  0  0  0  0  0  0  0  0
   12.4227  -14.1582   29.0126 H   0  0  0  0  0  0  0  0  0  0  0  0
   11.2518  -15.2733   29.7951 H   0  0  0  0  0  0  0  0  0  0  0  0
   12.7067  -15.9314   28.9723 H   0  0  0  0  0  0  0  0  0  0  0  0
   11.2969  -11.4977   33.6438 H   0  0  0  0  0  0  0  0  0  0  0  0
   13.8775  -10.1099   34.2328 H   0  0  0  0  0  0  0  0  0  0  0  0
   12.9617   -8.1355   33.0311 H   0  0  0  0  0  0  0  0  0  0  0  0
   11.4977   -9.0892   32.6141 H   0  0  0  0  0  0  0  0  0  0  0  0
   15.2294   -8.9943   32.1724 H   0  0  0  0  0  0  0  0  0  0  0  0
   11.4888  -10.4779   30.7171 H   0  0  0  0  0  0  0  0  0  0  0  0
   16.3658   -9.8873   30.1633 H   0  0  0  0  0  0  0  0  0  0  0  0
   12.6230  -11.3849   28.7162 H   0  0  0  0  0  0  0  0  0  0  0  0
   14.7903  -10.7862   27.4209 H   0  0  0  0  0  0  0  0  0  0  0  0
   12.3496   -7.7482   36.5243 H   0  0  0  0  0  0  0  0  0  0  0  0
   14.5395   -8.4938   34.6365 H   0  0  0  0  0  0  0  0  0  0  0  0
   14.7580   -7.6011   36.1799 H   0  0  0  0  0  0  0  0  0  0  0  0
  1  2  1  0  0  0  0
  1 34  1  0  0  0  0
  1 35  1  0  0  0  0
  1 36  1  0  0  0  0
  2  3  1  0  0  0  0
  2  5  1  0  0  0  0
  2 37  1  1  0  0  0
  3  4  2  0  0  0  0
  3  9  1  0  0  0  0
  5  6  1  0  0  0  0
  5 38  1  0  0  0  0
  5 39  1  0  0  0  0
  6  7  1  0  0  0  0
  6  8  2  0  0  0  0
  9 10  1  0  0  0  0
  9 40  1  0  0  0  0
 10 11  1  0  0  0  0
 10 13  1  0  0  0  0
 10 41  1  1  0  0  0
 11 12  2  0  0  0  0
 11 17  1  0  0  0  0
 13 14  1  0  0  0  0
 13 42  1  0  0  0  0
 13 43  1  0  0  0  0
 14 15  1  0  0  0  0
 14 16  1  0  0  0  0
 14 44  1  0  0  0  0
 15 45  1  0  0  0  0
 15 46  1  0  0  0  0
 15 47  1  0  0  0  0
 16 48  1  0  0  0  0
 16 49  1  0  0  0  0
 16 50  1  0  0  0  0
 17 18  1  0  0  0  0
 17 51  1  0  0  0  0
 18 19  1  0  0  0  0
 18 21  1  0  0  0  0
 18 52  1  1  0  0  0
 19 20  2  0  0  0  0
 19 29  1  0  0  0  0
 21 22  1  0  0  0  0
 21 53  1  0  0  0  0
 21 54  1  0  0  0  0
 22 23  2  0  0  0  0
 22 24  1  0  0  0  0
 23 25  1  0  0  0  0
 23 55  1  0  0  0  0
 24 26  2  0  0  0  0
 24 56  1  0  0  0  0
 25 27  2  0  0  0  0
 25 57  1  0  0  0  0
 26 27  1  0  0  0  0
 26 58  1  0  0  0  0
 27 28  1  0  0  0  0
 28 59  1  0  0  0  0
 29 30  1  0  0  0  0
 29 60  1  0  0  0  0
 30 31  1  0  0  0  0
 30 61  1  0  0  0  0
 30 62  1  0  0  0  0
 31 32  1  0  0  0  0
 31 33  2  0  0  0  0
M  CHG  3   1   1   7  -1  32  -1
M  END
