3efj_ligand
 OpenBabel08222323343D

 61 65  0  0  0  0  0  0  0  0999 V2000
   62.4910   15.2630  110.3790 N   0  0  0  0  0  0  0  0  0  0  0  0
   64.0070   12.8630  121.0900 N   0  0  0  0  0  0  0  0  0  0  0  0
   66.9580   15.6790  106.7630 C   0  0  0  0  0  0  0  0  0  0  0  0
   65.7570   16.0580  106.1680 C   0  0  0  0  0  0  0  0  0  0  0  0
   64.7190   16.5520  106.9520 C   0  0  0  0  0  0  0  0  0  0  0  0
   62.6710   15.1320  112.7970 C   0  0  0  0  0  0  0  0  0  0  0  0
   62.1690   14.6200  111.5940 C   0  0  0  0  0  0  0  0  0  0  0  0
   63.4730   16.2650  112.7420 C   0  0  0  0  0  0  0  0  0  0  0  0
   62.3990   13.1910  114.2650 C   0  0  0  0  0  0  0  0  0  0  0  0
   62.0720   15.4190  115.1280 C   0  0  0  0  0  0  0  0  0  0  0  0
   61.8860   12.4840  120.1070 C   0  0  0  0  0  0  0  0  0  0  0  0
   60.9340   11.6390  122.5970 C   0  0  0  0  0  0  0  0  0  0  0  0
   62.2640   12.0490  122.4550 C   0  0  0  0  0  0  0  0  0  0  0  0
   62.7330   12.4680  121.2150 C   0  0  0  0  0  0  0  0  0  0  0  0
   63.6970   13.3260  118.7800 C   0  0  0  0  0  0  0  0  0  0  0  0
   57.9050   11.2980  120.6350 C   0  0  0  0  0  0  0  0  0  0  0  0
   63.7170   17.2120  109.1500 C   0  0  0  0  0  0  0  0  0  0  0  0
   61.2930   10.5380  124.6840 C   0  0  0  0  0  0  0  0  0  0  0  0
   60.3960   11.2090  123.7760 O   0  0  0  0  0  0  0  0  0  0  0  0
   60.0890   11.6630  121.5050 C   0  0  0  0  0  0  0  0  0  0  0  0
   58.8170   11.2440  121.7320 O   0  0  0  0  0  0  0  0  0  0  0  0
   60.5570   12.0830  120.2570 C   0  0  0  0  0  0  0  0  0  0  0  0
   64.4910   13.2810  119.9240 C   0  0  0  0  0  0  0  0  0  0  0  0
   62.3700   12.9240  118.8680 C   0  0  0  0  0  0  0  0  0  0  0  0
   61.5230   12.9450  117.7910 O   0  0  0  0  0  0  0  0  0  0  0  0
   61.8180   13.5450  116.6020 C   0  0  0  0  0  0  0  0  0  0  0  0
   62.1110   12.7070  115.5400 C   0  0  0  0  0  0  0  0  0  0  0  0
   62.1220   11.3920  115.7930 F   0  0  0  0  0  0  0  0  0  0  0  0
   61.7840   14.9240  116.4040 C   0  0  0  0  0  0  0  0  0  0  0  0
   62.3880   14.5690  114.0540 C   0  0  0  0  0  0  0  0  0  0  0  0
   61.4500   13.6140  111.5800 O   0  0  0  0  0  0  0  0  0  0  0  0
   61.9550   14.7140  109.1000 C   0  0  0  0  0  0  0  0  0  0  0  0
   63.7680   16.8540  111.5940 N   0  0  0  0  0  0  0  0  0  0  0  0
   63.3260   16.4060  110.4070 C   0  0  0  0  0  0  0  0  0  0  0  0
   64.8730   16.6580  108.3310 C   0  0  0  0  0  0  0  0  0  0  0  0
   66.0750   16.2860  108.9280 C   0  0  0  0  0  0  0  0  0  0  0  0
   67.1180   15.7910  108.1440 C   0  0  0  0  0  0  0  0  0  0  0  0
   67.7684   15.2970  106.1527 H   0  0  0  0  0  0  0  0  0  0  0  0
   65.6311   15.9682  105.0951 H   0  0  0  0  0  0  0  0  0  0  0  0
   63.7878   16.8551  106.4873 H   0  0  0  0  0  0  0  0  0  0  0  0
   63.8694   16.6794  113.6678 H   0  0  0  0  0  0  0  0  0  0  0  0
   62.6270   12.5094  113.4535 H   0  0  0  0  0  0  0  0  0  0  0  0
   62.0509   16.4901  114.9623 H   0  0  0  0  0  0  0  0  0  0  0  0
   62.9286   12.0400  123.3113 H   0  0  0  0  0  0  0  0  0  0  0  0
   64.1077   13.6689  117.8372 H   0  0  0  0  0  0  0  0  0  0  0  0
   56.9197   10.9317  120.9590 H   0  0  0  0  0  0  0  0  0  0  0  0
   58.2794   10.6670  119.8155 H   0  0  0  0  0  0  0  0  0  0  0  0
   57.8131   12.3369  120.2853 H   0  0  0  0  0  0  0  0  0  0  0  0
   63.9909   18.2270  109.4736 H   0  0  0  0  0  0  0  0  0  0  0  0
   62.8348   17.2615  108.4949 H   0  0  0  0  0  0  0  0  0  0  0  0
   60.7440   10.2426  125.5903 H   0  0  0  0  0  0  0  0  0  0  0  0
   62.1137   11.2174  124.9576 H   0  0  0  0  0  0  0  0  0  0  0  0
   61.7055    9.6422  124.1969 H   0  0  0  0  0  0  0  0  0  0  0  0
   59.8876   12.0975  119.4045 H   0  0  0  0  0  0  0  0  0  0  0  0
   65.5270   13.5939  119.8622 H   0  0  0  0  0  0  0  0  0  0  0  0
   61.5404   15.5963  117.2187 H   0  0  0  0  0  0  0  0  0  0  0  0
   61.3346   13.8307  109.3116 H   0  0  0  0  0  0  0  0  0  0  0  0
   62.7910   14.4265  108.4454 H   0  0  0  0  0  0  0  0  0  0  0  0
   61.3441   15.4798  108.5997 H   0  0  0  0  0  0  0  0  0  0  0  0
   66.2003   16.3809  110.0006 H   0  0  0  0  0  0  0  0  0  0  0  0
   68.0516   15.4938  108.6079 H   0  0  0  0  0  0  0  0  0  0  0  0
  1 32  1  0  0  0  0
  1 34  1  0  0  0  0
  3 37  1  0  0  0  0
  3 38  1  0  0  0  0
  4  3  2  0  0  0  0
  4 39  1  0  0  0  0
  5  4  1  0  0  0  0
  5 40  1  0  0  0  0
  6  7  1  0  0  0  0
  6  8  2  0  0  0  0
  7  1  1  0  0  0  0
  7 31  2  0  0  0  0
  8 33  1  0  0  0  0
  8 41  1  0  0  0  0
  9 30  1  0  0  0  0
  9 42  1  0  0  0  0
 10 29  1  0  0  0  0
 10 43  1  0  0  0  0
 11 14  1  0  0  0  0
 11 22  1  0  0  0  0
 12 19  1  0  0  0  0
 13 12  2  0  0  0  0
 13 44  1  0  0  0  0
 14  2  2  0  0  0  0
 14 13  1  0  0  0  0
 15 23  2  0  0  0  0
 15 45  1  0  0  0  0
 16 46  1  0  0  0  0
 16 47  1  0  0  0  0
 16 48  1  0  0  0  0
 17 35  1  0  0  0  0
 17 49  1  0  0  0  0
 17 50  1  0  0  0  0
 18 51  1  0  0  0  0
 18 52  1  0  0  0  0
 18 53  1  0  0  0  0
 19 18  1  0  0  0  0
 20 12  1  0  0  0  0
 20 21  1  0  0  0  0
 21 16  1  0  0  0  0
 22 20  2  0  0  0  0
 22 54  1  0  0  0  0
 23  2  1  0  0  0  0
 23 55  1  0  0  0  0
 24 11  2  0  0  0  0
 24 15  1  0  0  0  0
 25 24  1  0  0  0  0
 26 25  1  0  0  0  0
 26 27  1  0  0  0  0
 26 29  2  0  0  0  0
 27  9  2  0  0  0  0
 27 28  1  0  0  0  0
 29 56  1  0  0  0  0
 30  6  1  0  0  0  0
 30 10  2  0  0  0  0
 32 57  1  0  0  0  0
 32 58  1  0  0  0  0
 32 59  1  0  0  0  0
 33 34  2  0  0  0  0
 34 17  1  0  0  0  0
 35  5  2  0  0  0  0
 35 36  1  0  0  0  0
 36 37  2  0  0  0  0
 36 60  1  0  0  0  0
 37 61  1  0  0  0  0
M  END
