3efk_ligand
 OpenBabel08222323343D

 61 65  0  0  1  0  0  0  0  0999 V2000
   64.5820   12.5240  121.0950 N   0  0  0  0  0  0  0  0  0  0  0  0
   65.0080   15.1890  111.0510 N   0  0  0  0  0  0  0  0  0  0  0  0
   64.3200   13.0940  118.8090 C   0  0  0  0  0  0  0  0  0  0  0  0
   62.9650   12.7540  118.8510 C   0  0  0  0  0  0  0  0  0  0  0  0
   60.5950   11.4610  121.3880 C   0  0  0  0  0  0  0  0  0  0  0  0
   61.4230   11.3570  122.5030 C   0  0  0  0  0  0  0  0  0  0  0  0
   62.7750   11.7090  122.3980 C   0  0  0  0  0  0  0  0  0  0  0  0
   61.6580   10.8720  124.8540 C   0  0  0  0  0  0  0  0  0  0  0  0
   62.7350   12.8440  115.4850 C   0  0  0  0  0  0  0  0  0  0  0  0
   63.3380   14.8260  114.2740 C   0  0  0  0  0  0  0  0  0  0  0  0
   62.7460   14.9370  116.6600 C   0  0  0  0  0  0  0  0  0  0  0  0
   64.8910   16.4950  110.7420 C   0  0  2  0  0  3  0  0  0  0  0  0
   64.5090   14.6770  112.1700 C   0  0  0  0  0  0  0  0  0  0  0  0
   64.0480   18.7970  111.3310 C   0  0  0  0  0  0  0  0  0  0  0  0
   66.0660   16.3510  107.4320 C   0  0  0  0  0  0  0  0  0  0  0  0
   68.1850   15.2360  107.1250 C   0  0  0  0  0  0  0  0  0  0  0  0
   67.4970   15.9060  109.3290 C   0  0  0  0  0  0  0  0  0  0  0  0
   60.8560   10.8850  123.6640 O   0  0  0  0  0  0  0  0  0  0  0  0
   59.2830   11.1060  121.5270 O   0  0  0  0  0  0  0  0  0  0  0  0
   58.5190   11.1880  120.3220 C   0  0  0  0  0  0  0  0  0  0  0  0
   61.1050   11.9240  120.1720 C   0  0  0  0  0  0  0  0  0  0  0  0
   62.4480   12.2850  120.0660 C   0  0  0  0  0  0  0  0  0  0  0  0
   63.2860   12.1740  121.1850 C   0  0  0  0  0  0  0  0  0  0  0  0
   65.1030   12.9730  119.9600 C   0  0  0  0  0  0  0  0  0  0  0  0
   62.1320   12.8550  117.7580 O   0  0  0  0  0  0  0  0  0  0  0  0
   62.5410   13.5570  116.6590 C   0  0  0  0  0  0  0  0  0  0  0  0
   63.1350   13.4500  114.3020 C   0  0  0  0  0  0  0  0  0  0  0  0
   62.5240   11.5250  115.5180 F   0  0  0  0  0  0  0  0  0  0  0  0
   63.1590   15.5440  115.4680 C   0  0  0  0  0  0  0  0  0  0  0  0
   63.7970   15.4470  113.0960 C   0  0  0  0  0  0  0  0  0  0  0  0
   63.6630   16.8160  112.8260 C   0  0  0  0  0  0  0  0  0  0  0  0
   63.0700   17.5700  113.5940 O   0  0  0  0  0  0  0  0  0  0  0  0
   64.2080   17.3480  111.6360 N   0  0  0  0  0  0  0  0  0  0  0  0
   65.4000   17.0080  109.6040 N   0  0  0  0  0  0  0  0  0  0  0  0
   66.3070   16.4250  108.8080 C   0  0  0  0  0  0  0  0  0  0  0  0
   67.0020   15.7510  106.5880 C   0  0  0  0  0  0  0  0  0  0  0  0
   69.1000   14.6580  106.3250 F   0  0  0  0  0  0  0  0  0  0  0  0
   68.4350   15.3150  108.4920 C   0  0  0  0  0  0  0  0  0  0  0  0
   65.5018   14.5657  110.3963 H   0  0  0  0  0  0  0  0  0  0  0  0
   64.7624   13.4507  117.8859 H   0  0  0  0  0  0  0  0  0  0  0  0
   63.4256   11.6201  123.2605 H   0  0  0  0  0  0  0  0  0  0  0  0
   61.0670   10.4699  125.6901 H   0  0  0  0  0  0  0  0  0  0  0  0
   61.9787   11.8971  125.0913 H   0  0  0  0  0  0  0  0  0  0  0  0
   62.5430   10.2390  124.6928 H   0  0  0  0  0  0  0  0  0  0  0  0
   62.5899   15.5228  117.5586 H   0  0  0  0  0  0  0  0  0  0  0  0
   64.6596   13.6180  112.3746 H   0  0  0  0  0  0  0  0  0  0  0  0
   64.5336   19.0254  110.3708 H   0  0  0  0  0  0  0  0  0  0  0  0
   64.5147   19.3934  112.1288 H   0  0  0  0  0  0  0  0  0  0  0  0
   62.9776   19.0425  111.2680 H   0  0  0  0  0  0  0  0  0  0  0  0
   65.1506   16.7604  107.0204 H   0  0  0  0  0  0  0  0  0  0  0  0
   67.6887   15.9655  110.3943 H   0  0  0  0  0  0  0  0  0  0  0  0
   57.4808   10.8862  120.5249 H   0  0  0  0  0  0  0  0  0  0  0  0
   58.9543   10.5184  119.5656 H   0  0  0  0  0  0  0  0  0  0  0  0
   58.5337   12.2224  119.9481 H   0  0  0  0  0  0  0  0  0  0  0  0
   60.4546   12.0028  119.3084 H   0  0  0  0  0  0  0  0  0  0  0  0
   66.1505   13.2497  119.9254 H   0  0  0  0  0  0  0  0  0  0  0  0
   63.2878   12.8564  113.4080 H   0  0  0  0  0  0  0  0  0  0  0  0
   63.3483   16.6113  115.4664 H   0  0  0  0  0  0  0  0  0  0  0  0
   65.0591   17.9372  109.3189 H   0  0  0  0  0  0  0  0  0  0  0  0
   66.8125   15.6849  105.5227 H   0  0  0  0  0  0  0  0  0  0  0  0
   69.3567   14.9175  108.9013 H   0  0  0  0  0  0  0  0  0  0  0  0
  2 13  1  0  0  0  0
  2 39  1  0  0  0  0
  3 24  2  0  0  0  0
  3 40  1  0  0  0  0
  4  3  1  0  0  0  0
  4 22  2  0  0  0  0
  5  6  1  0  0  0  0
  5 19  1  0  0  0  0
  6 18  1  0  0  0  0
  7  6  2  0  0  0  0
  7 41  1  0  0  0  0
  8 42  1  0  0  0  0
  8 43  1  0  0  0  0
  8 44  1  0  0  0  0
  9 26  2  0  0  0  0
  9 28  1  0  0  0  0
 10 27  2  0  0  0  0
 10 29  1  0  0  0  0
 11 26  1  0  0  0  0
 11 45  1  0  0  0  0
 12  2  1  0  0  0  0
 12 33  1  0  0  0  0
 12 34  1  6  0  0  0
 13 30  2  0  0  0  0
 13 46  1  0  0  0  0
 14 47  1  0  0  0  0
 14 48  1  0  0  0  0
 14 49  1  0  0  0  0
 15 36  1  0  0  0  0
 15 50  1  0  0  0  0
 16 37  1  0  0  0  0
 17 38  2  0  0  0  0
 17 51  1  0  0  0  0
 18  8  1  0  0  0  0
 19 20  1  0  0  0  0
 20 52  1  0  0  0  0
 20 53  1  0  0  0  0
 20 54  1  0  0  0  0
 21  5  2  0  0  0  0
 21 55  1  0  0  0  0
 22 21  1  0  0  0  0
 22 23  1  0  0  0  0
 23  1  2  0  0  0  0
 23  7  1  0  0  0  0
 24  1  1  0  0  0  0
 24 56  1  0  0  0  0
 25  4  1  0  0  0  0
 26 25  1  0  0  0  0
 27  9  1  0  0  0  0
 27 57  1  0  0  0  0
 29 11  2  0  0  0  0
 29 58  1  0  0  0  0
 30 10  1  0  0  0  0
 31 30  1  0  0  0  0
 31 32  2  0  0  0  0
 33 14  1  0  0  0  0
 33 31  1  0  0  0  0
 34 35  1  0  0  0  0
 34 59  1  0  0  0  0
 35 15  2  0  0  0  0
 35 17  1  0  0  0  0
 36 16  2  0  0  0  0
 36 60  1  0  0  0  0
 38 16  1  0  0  0  0
 38 61  1  0  0  0  0
M  END
