3efr_ligand
 OpenBabel08222323343D

 31 32  0  0  1  0  0  0  0  0999 V2000
   13.1660    4.3510   12.8710 C   0  0  0  0  0  0  0  0  0  0  0  0
   13.0800    5.1890   11.9470 O   0  5  0  0  0  0  0  0  0  0  0  0
   14.1040    3.5220   12.8480 O   0  0  0  0  0  0  0  0  0  0  0  0
   12.1400    4.3490   13.9810 C   0  0  0  0  0  0  0  0  0  0  0  0
   12.7870    4.6550   15.3250 C   0  0  0  0  0  0  0  0  0  0  0  0
   13.7330    3.5290   15.7180 C   0  0  0  0  0  0  0  0  0  0  0  0
   13.2560    2.8390   16.9910 C   0  0  0  0  0  0  0  0  0  0  0  0
   13.2070    3.7810   18.1840 C   0  0  2  0  0  0  0  0  0  0  0  0
   14.4560    3.3770   19.2160 S   0  0  0  0  0  0  0  0  0  0  0  0
   13.4710    3.7360   20.6920 C   0  0  0  0  0  0  0  0  0  0  0  0
   11.9910    3.7080   20.3690 C   0  0  2  0  0  0  0  0  0  0  0  0
   11.3850    2.4580   20.7830 N   0  0  0  0  0  0  0  0  0  0  0  0
   10.9950    1.7370   19.7390 C   0  0  0  0  0  0  0  0  0  0  0  0
   10.4040    0.4580   19.8090 O   0  0  0  0  0  0  0  0  0  0  0  0
   11.2410    2.3910   18.6120 N   0  0  0  0  0  0  0  0  0  0  0  0
   11.8470    3.6820   18.8610 C   0  0  2  0  0  0  0  0  0  0  0  0
   11.6639    3.3585   14.0286 H   0  0  0  0  0  0  0  0  0  0  0  0
   11.3776    5.1125   13.7671 H   0  0  0  0  0  0  0  0  0  0  0  0
   12.0042    4.7566   16.0911 H   0  0  0  0  0  0  0  0  0  0  0  0
   13.3521    5.5959   15.2511 H   0  0  0  0  0  0  0  0  0  0  0  0
   14.7371    3.9447   15.8880 H   0  0  0  0  0  0  0  0  0  0  0  0
   13.7745    2.7920   14.9025 H   0  0  0  0  0  0  0  0  0  0  0  0
   13.9440    2.0126   17.2228 H   0  0  0  0  0  0  0  0  0  0  0  0
   12.2466    2.4379   16.8172 H   0  0  0  0  0  0  0  0  0  0  0  0
   13.3515    4.8152   17.8384 H   0  0  0  0  0  0  0  0  0  0  0  0
   13.7389    4.7333   21.0709 H   0  0  0  0  0  0  0  0  0  0  0  0
   13.6866    2.9809   21.4623 H   0  0  0  0  0  0  0  0  0  0  0  0
   11.4805    4.5715   20.8203 H   0  0  0  0  0  0  0  0  0  0  0  0
   11.2713    2.1659   21.7642 H   0  0  0  0  0  0  0  0  0  0  0  0
   11.0332    2.0356   17.7007 H   0  0  0  0  0  0  0  0  0  0  0  0
   11.1994    4.4989   18.5100 H   0  0  0  0  0  0  0  0  0  0  0  0
  1  2  1  0  0  0  0
  1  3  2  0  0  0  0
  1  4  1  0  0  0  0
  4  5  1  0  0  0  0
  4 17  1  0  0  0  0
  4 18  1  0  0  0  0
  5  6  1  0  0  0  0
  5 19  1  0  0  0  0
  5 20  1  0  0  0  0
  6  7  1  0  0  0  0
  6 21  1  0  0  0  0
  6 22  1  0  0  0  0
  7  8  1  0  0  0  0
  7 23  1  0  0  0  0
  7 24  1  0  0  0  0
  8  9  1  0  0  0  0
  8 16  1  0  0  0  0
  8 25  1  6  0  0  0
  9 10  1  0  0  0  0
 10 11  1  0  0  0  0
 10 26  1  0  0  0  0
 10 27  1  0  0  0  0
 11 12  1  0  0  0  0
 11 16  1  0  0  0  0
 11 28  1  1  0  0  0
 12 13  1  0  0  0  0
 12 29  1  0  0  0  0
 13 14  2  0  0  0  0
 13 15  1  0  0  0  0
 15 16  1  0  0  0  0
 15 30  1  0  0  0  0
 16 31  1  6  0  0  0
M  CHG  1   2  -1
M  END
