3efw_ligand
 OpenBabel08222323343D

 57 60  0  0  0  0  0  0  0  0999 V2000
   64.4400   30.4790    5.0730 N   0  0  0  0  0  0  0  0  0  0  0  0
   65.4140   26.0240    6.1320 N   0  0  0  0  0  0  0  0  0  0  0  0
   64.7660   30.2380    2.3830 C   0  0  0  0  0  0  0  0  0  0  0  0
   65.2660   28.3120    5.5060 C   0  0  0  0  0  0  0  0  0  0  0  0
   65.8180   28.6770    6.7320 C   0  0  0  0  0  0  0  0  0  0  0  0
   66.1570   27.6860    7.6460 C   0  0  0  0  0  0  0  0  0  0  0  0
   65.9400   26.3530    7.3060 C   0  0  0  0  0  0  0  0  0  0  0  0
   63.6270   32.9120    6.1860 C   0  0  0  0  0  0  0  0  0  0  0  0
   65.4780   23.3750    2.5240 C   0  0  0  0  0  0  0  0  0  0  0  0
   63.4620   23.0610    3.8030 C   0  0  0  0  0  0  0  0  0  0  0  0
   62.3330   24.9370    5.0700 C   0  0  0  0  0  0  0  0  0  0  0  0
   67.1230   18.0460    3.5800 C   0  0  0  0  0  0  0  0  0  0  0  0
   67.8720   16.8930    3.8070 C   0  0  0  0  0  0  0  0  0  0  0  0
   67.4390   15.6600    3.3190 C   0  0  0  0  0  0  0  0  0  0  0  0
   65.5020   16.7380    2.3730 C   0  0  0  0  0  0  0  0  0  0  0  0
   63.6130   32.6240    4.7330 N   0  0  0  0  0  0  0  0  0  0  0  0
   64.1080   31.4820    4.2410 C   0  0  0  0  0  0  0  0  0  0  0  0
   64.2750   31.3470    2.9120 N   0  0  0  0  0  0  0  0  0  0  0  0
   65.1120   29.1850    3.2220 C   0  0  0  0  0  0  0  0  0  0  0  0
   64.9300   29.3240    4.6030 C   0  0  0  0  0  0  0  0  0  0  0  0
   65.0740   26.9530    5.2230 C   0  0  0  0  0  0  0  0  0  0  0  0
   64.5270   26.5810    4.0250 O   0  0  0  0  0  0  0  0  0  0  0  0
   64.4870   25.2480    3.7090 C   0  0  0  0  0  0  0  0  0  0  0  0
   63.4600   24.4100    4.1640 C   0  0  0  0  0  0  0  0  0  0  0  0
   65.4860   24.7240    2.8850 C   0  0  0  0  0  0  0  0  0  0  0  0
   64.4660   22.5310    2.9850 C   0  0  0  0  0  0  0  0  0  0  0  0
   64.4250   21.2210    2.6590 N   0  0  0  0  0  0  0  0  0  0  0  0
   65.3660   20.3390    3.0270 C   0  0  0  0  0  0  0  0  0  0  0  0
   66.3510   20.6870    3.6840 O   0  0  0  0  0  0  0  0  0  0  0  0
   65.1640   19.0720    2.6180 N   0  0  0  0  0  0  0  0  0  0  0  0
   65.9340   17.9850    2.8520 C   0  0  0  0  0  0  0  0  0  0  0  0
   66.2480   15.5700    2.5970 C   0  0  0  0  0  0  0  0  0  0  0  0
   65.7870   14.1900    2.0580 C   0  0  0  0  0  0  0  0  0  0  0  0
   64.4600   14.1080    1.9760 F   0  0  0  0  0  0  0  0  0  0  0  0
   66.2800   13.9880    0.8300 F   0  0  0  0  0  0  0  0  0  0  0  0
   66.2280   13.2300    2.8830 F   0  0  0  0  0  0  0  0  0  0  0  0
   64.8966   30.1518    1.3104 H   0  0  0  0  0  0  0  0  0  0  0  0
   65.9813   29.7218    6.9704 H   0  0  0  0  0  0  0  0  0  0  0  0
   66.5834   27.9466    8.6079 H   0  0  0  0  0  0  0  0  0  0  0  0
   66.2044   25.5725    8.0102 H   0  0  0  0  0  0  0  0  0  0  0  0
   63.1744   33.8978    6.3687 H   0  0  0  0  0  0  0  0  0  0  0  0
   64.6651   32.9120    6.5498 H   0  0  0  0  0  0  0  0  0  0  0  0
   63.0518   32.1402    6.7184 H   0  0  0  0  0  0  0  0  0  0  0  0
   66.2598   22.9821    1.8840 H   0  0  0  0  0  0  0  0  0  0  0  0
   62.6714   22.4126    4.1630 H   0  0  0  0  0  0  0  0  0  0  0  0
   61.6388   24.1171    5.3063 H   0  0  0  0  0  0  0  0  0  0  0  0
   61.7892   25.7393    4.5498 H   0  0  0  0  0  0  0  0  0  0  0  0
   62.7654   25.3312    6.0015 H   0  0  0  0  0  0  0  0  0  0  0  0
   67.4663   18.9967    3.9716 H   0  0  0  0  0  0  0  0  0  0  0  0
   68.7981   16.9547    4.3670 H   0  0  0  0  0  0  0  0  0  0  0  0
   68.0293   14.7692    3.5011 H   0  0  0  0  0  0  0  0  0  0  0  0
   64.5727   16.6757    1.8184 H   0  0  0  0  0  0  0  0  0  0  0  0
   63.2130   33.3188    4.0863 H   0  0  0  0  0  0  0  0  0  0  0  0
   65.5178   28.2673    2.8118 H   0  0  0  0  0  0  0  0  0  0  0  0
   66.2759   25.3715    2.5219 H   0  0  0  0  0  0  0  0  0  0  0  0
   63.6532   20.8916    2.1151 H   0  0  0  0  0  0  0  0  0  0  0  0
   64.3408   18.9150    2.0724 H   0  0  0  0  0  0  0  0  0  0  0  0
  1 17  2  0  0  0  0
  2  7  2  0  0  0  0
  3 18  2  0  0  0  0
  3 37  1  0  0  0  0
  4  5  1  0  0  0  0
  4 20  1  0  0  0  0
  5  6  2  0  0  0  0
  5 38  1  0  0  0  0
  6 39  1  0  0  0  0
  7  6  1  0  0  0  0
  7 40  1  0  0  0  0
  8 41  1  0  0  0  0
  8 42  1  0  0  0  0
  8 43  1  0  0  0  0
  9 25  2  0  0  0  0
  9 44  1  0  0  0  0
 10 24  1  0  0  0  0
 10 45  1  0  0  0  0
 11 46  1  0  0  0  0
 11 47  1  0  0  0  0
 11 48  1  0  0  0  0
 12 13  2  0  0  0  0
 12 49  1  0  0  0  0
 13 14  1  0  0  0  0
 13 50  1  0  0  0  0
 14 51  1  0  0  0  0
 15 32  1  0  0  0  0
 15 52  1  0  0  0  0
 16  8  1  0  0  0  0
 16 53  1  0  0  0  0
 17 16  1  0  0  0  0
 17 18  1  0  0  0  0
 19  3  1  0  0  0  0
 19 54  1  0  0  0  0
 20  1  1  0  0  0  0
 20 19  2  0  0  0  0
 21  2  1  0  0  0  0
 21  4  2  0  0  0  0
 22 21  1  0  0  0  0
 23 22  1  0  0  0  0
 24 11  1  0  0  0  0
 24 23  2  0  0  0  0
 25 23  1  0  0  0  0
 25 55  1  0  0  0  0
 26  9  1  0  0  0  0
 26 10  2  0  0  0  0
 27 26  1  0  0  0  0
 27 56  1  0  0  0  0
 28 27  1  0  0  0  0
 28 29  2  0  0  0  0
 30 28  1  0  0  0  0
 30 31  1  0  0  0  0
 30 57  1  0  0  0  0
 31 12  1  0  0  0  0
 31 15  2  0  0  0  0
 32 14  2  0  0  0  0
 32 33  1  0  0  0  0
 33 34  1  0  0  0  0
 33 35  1  0  0  0  0
 33 36  1  0  0  0  0
M  END
