3eio_ligand
 OpenBabel08222323343D

 57 59  0  0  1  0  0  0  0  0999 V2000
   47.1420   12.6010   25.7920 C   0  0  0  0  0  0  0  0  0  0  0  0
   48.2620   13.3960   26.0230 C   0  0  0  0  0  0  0  0  0  0  0  0
   49.4480   12.8340   26.4830 C   0  0  0  0  0  0  0  0  0  0  0  0
   50.6800   13.7150   26.7320 C   0  0  0  0  0  0  0  0  0  0  0  0
   51.3530   13.5240   27.7710 O   0  5  0  0  0  0  0  0  0  0  0  0
   50.9230   14.6170   25.9020 O   0  0  0  0  0  0  0  0  0  0  0  0
   49.5030   11.4630   26.7020 C   0  0  0  0  0  0  0  0  0  0  0  0
   48.3860   10.6680   26.4550 C   0  0  0  0  0  0  0  0  0  0  0  0
   47.1800   11.2160   25.9980 C   0  0  0  0  0  0  0  0  0  0  0  0
   46.0970   10.4340   25.9740 C   0  0  0  0  0  0  0  0  0  0  0  0
   46.3140    9.2230   25.9940 O   0  0  0  0  0  0  0  0  0  0  0  0
   44.8490   10.8940   25.8590 N   0  0  0  0  0  0  0  0  0  0  0  0
   44.5380   12.3120   26.0820 C   0  0  0  0  0  0  0  0  0  0  0  0
   44.3550   12.5150   27.5900 C   0  0  0  0  0  0  0  0  0  0  0  0
   43.7150    9.9610   25.7600 C   0  0  0  0  0  0  0  0  0  0  0  0
   43.3280    9.3210   27.0980 C   0  0  0  0  0  0  0  0  0  0  0  0
   43.6260   10.1780   28.3340 C   0  0  0  0  0  0  0  0  0  0  0  0
   43.3280   11.6040   28.1220 N   0  0  0  0  0  0  0  0  0  0  0  0
   42.1270   12.1140   28.4300 C   0  0  0  0  0  0  0  0  0  0  0  0
   41.8570   13.3010   28.2770 O   0  0  0  0  0  0  0  0  0  0  0  0
   41.0720   11.1610   29.0030 C   0  0  0  0  0  0  0  0  0  0  0  0
   39.7140   11.8580   29.1450 C   0  0  2  0  0  0  0  0  0  0  0  0
   38.7830   11.0590   29.9550 N   0  3  0  0  0  0  0  0  0  0  0  0
   39.1140   12.1380   27.7660 C   0  0  0  0  0  0  0  0  0  0  0  0
   37.6740   12.6500   27.8790 C   0  0  0  0  0  0  0  0  0  0  0  0
   37.5060   13.9820   28.2430 C   0  0  0  0  0  0  0  0  0  0  0  0
   36.2430   14.5630   28.3470 C   0  0  0  0  0  0  0  0  0  0  0  0
   36.1480   15.8530   28.7240 F   0  0  0  0  0  0  0  0  0  0  0  0
   35.1200   13.7810   28.0760 C   0  0  0  0  0  0  0  0  0  0  0  0
   33.8770   14.2970   28.0310 F   0  0  0  0  0  0  0  0  0  0  0  0
   35.2830   12.4410   27.7350 C   0  0  0  0  0  0  0  0  0  0  0  0
   36.5480   11.8800   27.6290 C   0  0  0  0  0  0  0  0  0  0  0  0
   36.6430   10.5820   27.2530 F   0  0  0  0  0  0  0  0  0  0  0  0
   46.2240   13.0625   25.4465 H   0  0  0  0  0  0  0  0  0  0  0  0
   48.2087   14.4635   25.8424 H   0  0  0  0  0  0  0  0  0  0  0  0
   50.4182   11.0105   27.0663 H   0  0  0  0  0  0  0  0  0  0  0  0
   48.4514    9.5987   26.6205 H   0  0  0  0  0  0  0  0  0  0  0  0
   43.6121   12.5807   25.5524 H   0  0  0  0  0  0  0  0  0  0  0  0
   45.3646   12.9392   25.7168 H   0  0  0  0  0  0  0  0  0  0  0  0
   44.0473   13.5541   27.7788 H   0  0  0  0  0  0  0  0  0  0  0  0
   45.3101   12.3172   28.0986 H   0  0  0  0  0  0  0  0  0  0  0  0
   43.9844    9.1596   25.0563 H   0  0  0  0  0  0  0  0  0  0  0  0
   42.8447   10.5113   25.3732 H   0  0  0  0  0  0  0  0  0  0  0  0
   43.8807    8.3751   27.1968 H   0  0  0  0  0  0  0  0  0  0  0  0
   42.2478    9.1142   27.0781 H   0  0  0  0  0  0  0  0  0  0  0  0
   44.6920   10.0749   28.5851 H   0  0  0  0  0  0  0  0  0  0  0  0
   43.0148    9.8116   29.1720 H   0  0  0  0  0  0  0  0  0  0  0  0
   41.4022   10.8136   29.9931 H   0  0  0  0  0  0  0  0  0  0  0  0
   40.9638   10.2984   28.3290 H   0  0  0  0  0  0  0  0  0  0  0  0
   39.8738   12.8194   29.6551 H   0  0  0  0  0  0  0  0  0  0  0  0
   37.9019   11.5429   30.0294 H   0  0  0  0  0  0  0  0  0  0  0  0
   39.1703   10.9227   30.8756 H   0  0  0  0  0  0  0  0  0  0  0  0
   38.6384   10.1635   29.5154 H   0  0  0  0  0  0  0  0  0  0  0  0
   39.1187   11.2086   27.1777 H   0  0  0  0  0  0  0  0  0  0  0  0
   39.7254   12.8975   27.2567 H   0  0  0  0  0  0  0  0  0  0  0  0
   38.3820   14.5854   28.4517 H   0  0  0  0  0  0  0  0  0  0  0  0
   34.4091   11.8269   27.5496 H   0  0  0  0  0  0  0  0  0  0  0  0
  1  2  2  0  0  0  0
  1  9  1  0  0  0  0
  1 34  1  0  0  0  0
  2  3  1  0  0  0  0
  2 35  1  0  0  0  0
  3  4  1  0  0  0  0
  3  7  2  0  0  0  0
  4  5  1  0  0  0  0
  4  6  2  0  0  0  0
  7  8  1  0  0  0  0
  7 36  1  0  0  0  0
  8  9  2  0  0  0  0
  8 37  1  0  0  0  0
  9 10  1  0  0  0  0
 10 11  2  0  0  0  0
 10 12  1  0  0  0  0
 12 13  1  0  0  0  0
 12 15  1  0  0  0  0
 13 14  1  0  0  0  0
 13 38  1  0  0  0  0
 13 39  1  0  0  0  0
 14 18  1  0  0  0  0
 14 40  1  0  0  0  0
 14 41  1  0  0  0  0
 15 16  1  0  0  0  0
 15 42  1  0  0  0  0
 15 43  1  0  0  0  0
 16 17  1  0  0  0  0
 16 44  1  0  0  0  0
 16 45  1  0  0  0  0
 17 18  1  0  0  0  0
 17 46  1  0  0  0  0
 17 47  1  0  0  0  0
 18 19  1  0  0  0  0
 19 20  2  0  0  0  0
 19 21  1  0  0  0  0
 21 22  1  0  0  0  0
 21 48  1  0  0  0  0
 21 49  1  0  0  0  0
 22 23  1  0  0  0  0
 22 24  1  0  0  0  0
 22 50  1  1  0  0  0
 23 51  1  0  0  0  0
 23 52  1  0  0  0  0
 23 53  1  0  0  0  0
 24 25  1  0  0  0  0
 24 54  1  0  0  0  0
 24 55  1  0  0  0  0
 25 26  2  0  0  0  0
 25 32  1  0  0  0  0
 26 27  1  0  0  0  0
 26 56  1  0  0  0  0
 27 28  1  0  0  0  0
 27 29  2  0  0  0  0
 29 30  1  0  0  0  0
 29 31  1  0  0  0  0
 31 32  2  0  0  0  0
 31 57  1  0  0  0  0
 32 33  1  0  0  0  0
M  CHG  2   5  -1  23   1
M  END
