3ejs_ligand
 OpenBabel08222323343D

 56 58  0  0  1  0  0  0  0  0999 V2000
   31.7270   68.3070    5.5800 O   0  0  0  0  0  0  0  0  0  0  0  0
   31.3450   67.1010    6.2580 C   0  0  1  0  0  0  0  0  0  0  0  0
   31.6100   67.2370    7.7550 C   0  0  1  0  0  0  0  0  0  0  0  0
   31.0420   66.0860    8.4860 N   0  3  1  0  0  0  0  0  0  0  0  0
   31.5260   66.2780    9.8770 C   0  0  0  0  0  0  0  0  0  0  0  0
   32.9780   66.8100    9.6640 C   0  0  1  0  0  0  0  0  0  0  0  0
   33.8820   65.7420    9.8920 O   0  0  0  0  0  0  0  0  0  0  0  0
   33.0670   67.2960    8.2000 C   0  0  1  0  0  0  0  0  0  0  0  0
   33.9480   66.5200    7.3370 O   0  0  0  0  0  0  0  0  0  0  0  0
   29.8470   66.8210    5.9950 C   0  0  0  0  0  0  0  0  0  0  0  0
   29.2860   65.6580    6.8280 C   0  0  0  0  0  0  0  0  0  0  0  0
   29.5610   65.9080    8.3120 C   0  0  2  0  0  0  0  0  0  0  0  0
   28.6910   67.0580    8.8870 C   0  0  0  0  0  0  0  0  0  0  0  0
   28.3100   66.9230   10.3790 C   0  0  0  0  0  0  0  0  0  0  0  0
   27.3150   67.9850   10.8550 C   0  0  0  0  0  0  0  0  0  0  0  0
   27.7100   68.8050   11.9080 C   0  0  0  0  0  0  0  0  0  0  0  0
   26.8310   69.7870   12.4160 C   0  0  0  0  0  0  0  0  0  0  0  0
   25.5610   69.9880   11.8470 C   0  0  0  0  0  0  0  0  0  0  0  0
   24.6220   71.0490   12.4040 C   0  0  0  0  0  0  0  0  0  0  0  0
   24.0110   71.8660   11.2700 C   0  0  0  0  0  0  0  0  0  0  0  0
   25.3140   71.9660   13.3990 C   0  0  0  0  0  0  0  0  0  0  0  0
   23.5070   70.3000   13.1220 C   0  0  0  0  0  0  0  0  0  0  0  0
   25.0740   69.1100   10.7100 C   0  0  0  0  0  0  0  0  0  0  0  0
   26.0560   68.1010   10.2600 C   0  0  0  0  0  0  0  0  0  0  0  0
   32.6525   68.4684    5.7206 H   0  0  0  0  0  0  0  0  0  0  0  0
   31.9403   66.2632    5.8661 H   0  0  0  0  0  0  0  0  0  0  0  0
   31.1146   68.1616    8.0861 H   0  0  0  0  0  0  0  0  0  0  0  0
   31.4636   65.2442    8.1258 H   0  0  0  0  0  0  0  0  0  0  0  0
   31.5290   65.3276   10.4308 H   0  0  0  0  0  0  0  0  0  0  0  0
   30.9088   67.0134   10.4139 H   0  0  0  0  0  0  0  0  0  0  0  0
   33.1941   67.6388   10.3541 H   0  0  0  0  0  0  0  0  0  0  0  0
   34.7720   66.0496    9.7662 H   0  0  0  0  0  0  0  0  0  0  0  0
   33.4232   68.3366    8.1820 H   0  0  0  0  0  0  0  0  0  0  0  0
   34.8321   66.5455    7.6838 H   0  0  0  0  0  0  0  0  0  0  0  0
   29.7197   66.5793    4.9295 H   0  0  0  0  0  0  0  0  0  0  0  0
   29.2753   67.7294    6.2359 H   0  0  0  0  0  0  0  0  0  0  0  0
   29.7704   64.7199    6.5193 H   0  0  0  0  0  0  0  0  0  0  0  0
   28.2009   65.5814    6.6650 H   0  0  0  0  0  0  0  0  0  0  0  0
   29.2762   64.9994    8.8627 H   0  0  0  0  0  0  0  0  0  0  0  0
   27.7603   67.1035    8.3025 H   0  0  0  0  0  0  0  0  0  0  0  0
   29.2479   67.9985    8.7634 H   0  0  0  0  0  0  0  0  0  0  0  0
   29.2263   67.0099   10.9814 H   0  0  0  0  0  0  0  0  0  0  0  0
   27.8612   65.9309   10.5352 H   0  0  0  0  0  0  0  0  0  0  0  0
   28.6973   68.6894   12.3404 H   0  0  0  0  0  0  0  0  0  0  0  0
   27.1405   70.3955   13.2581 H   0  0  0  0  0  0  0  0  0  0  0  0
   23.3361   72.6270   11.6888 H   0  0  0  0  0  0  0  0  0  0  0  0
   23.4439   71.2003   10.6027 H   0  0  0  0  0  0  0  0  0  0  0  0
   24.8123   72.3599   10.7008 H   0  0  0  0  0  0  0  0  0  0  0  0
   25.7496   71.3645   14.2104 H   0  0  0  0  0  0  0  0  0  0  0  0
   24.5816   72.6716   13.8182 H   0  0  0  0  0  0  0  0  0  0  0  0
   26.1117   72.5256   12.8886 H   0  0  0  0  0  0  0  0  0  0  0  0
   22.9976   69.6320   12.4119 H   0  0  0  0  0  0  0  0  0  0  0  0
   22.7839   71.0217   13.5297 H   0  0  0  0  0  0  0  0  0  0  0  0
   23.9342   69.7053   13.9429 H   0  0  0  0  0  0  0  0  0  0  0  0
   24.0906   69.2136   10.2658 H   0  0  0  0  0  0  0  0  0  0  0  0
   25.7926   67.4337    9.4473 H   0  0  0  0  0  0  0  0  0  0  0  0
  1  2  1  0  0  0  0
  1 25  1  0  0  0  0
  2  3  1  0  0  0  0
  2 10  1  0  0  0  0
  2 26  1  6  0  0  0
  3  4  1  0  0  0  0
  3  8  1  0  0  0  0
  3 27  1  1  0  0  0
  4  5  1  0  0  0  0
  4 12  1  0  0  0  0
  4 28  1  6  0  0  0
  5  6  1  0  0  0  0
  5 29  1  0  0  0  0
  5 30  1  0  0  0  0
  6  7  1  0  0  0  0
  6  8  1  0  0  0  0
  6 31  1  1  0  0  0
  7 32  1  0  0  0  0
  8  9  1  0  0  0  0
  8 33  1  6  0  0  0
  9 34  1  0  0  0  0
 10 11  1  0  0  0  0
 10 35  1  0  0  0  0
 10 36  1  0  0  0  0
 11 12  1  0  0  0  0
 11 37  1  0  0  0  0
 11 38  1  0  0  0  0
 12 13  1  0  0  0  0
 12 39  1  1  0  0  0
 13 14  1  0  0  0  0
 13 40  1  0  0  0  0
 13 41  1  0  0  0  0
 14 15  1  0  0  0  0
 14 42  1  0  0  0  0
 14 43  1  0  0  0  0
 15 16  2  0  0  0  0
 15 24  1  0  0  0  0
 16 17  1  0  0  0  0
 16 44  1  0  0  0  0
 17 18  2  0  0  0  0
 17 45  1  0  0  0  0
 18 19  1  0  0  0  0
 18 23  1  0  0  0  0
 19 20  1  0  0  0  0
 19 21  1  0  0  0  0
 19 22  1  0  0  0  0
 20 46  1  0  0  0  0
 20 47  1  0  0  0  0
 20 48  1  0  0  0  0
 21 49  1  0  0  0  0
 21 50  1  0  0  0  0
 21 51  1  0  0  0  0
 22 52  1  0  0  0  0
 22 53  1  0  0  0  0
 22 54  1  0  0  0  0
 23 24  2  0  0  0  0
 23 55  1  0  0  0  0
 24 56  1  0  0  0  0
M  CHG  1   4   1
M  END
