3el8_ligand
 OpenBabel08222323343D

 53 56  0  0  0  0  0  0  0  0999 V2000
    6.2140    8.2230    6.7640 C   0  0  0  0  0  0  0  0  0  0  0  0
    5.5660    7.2160    7.4560 C   0  0  0  0  0  0  0  0  0  0  0  0
    6.3210    6.1690    7.9710 C   0  0  0  0  0  0  0  0  0  0  0  0
    7.6450    6.1770    7.7750 N   0  0  0  0  0  0  0  0  0  0  0  0
    7.5500    8.1660    6.6060 N   0  0  0  0  0  0  0  0  0  0  0  0
    4.5340   11.3850    5.9670 C   0  0  0  0  0  0  0  0  0  0  0  0
    5.5470   10.2950    5.6080 C   0  0  0  0  0  0  0  0  0  0  0  0
    5.4760    9.9560    4.1170 C   0  0  0  0  0  0  0  0  0  0  0  0
    5.2760    9.0850    6.3950 N   0  0  0  0  0  0  0  0  0  0  0  0
    4.1520    8.7370    6.7720 N   0  0  0  0  0  0  0  0  0  0  0  0
    8.2340    7.1580    7.1080 C   0  0  0  0  0  0  0  0  0  0  0  0
    5.7480    5.1820    8.6540 N   0  0  0  0  0  0  0  0  0  0  0  0
    4.2290    7.5870    7.4340 C   0  0  0  0  0  0  0  0  0  0  0  0
    3.1800    6.8750    8.0070 C   0  0  0  0  0  0  0  0  0  0  0  0
    2.2670    7.5370    8.8170 C   0  0  0  0  0  0  0  0  0  0  0  0
    1.1220    6.8810    9.2590 C   0  0  0  0  0  0  0  0  0  0  0  0
    2.9520    5.5450    7.6680 C   0  0  0  0  0  0  0  0  0  0  0  0
    1.8060    4.8880    8.1080 C   0  0  0  0  0  0  0  0  0  0  0  0
    0.8780    5.5610    8.8950 C   0  0  0  0  0  0  0  0  0  0  0  0
   -0.3080    5.0370    9.2080 N   0  0  0  0  0  0  0  0  0  0  0  0
   -0.7220    3.8010    8.9400 C   0  0  0  0  0  0  0  0  0  0  0  0
   -0.0200    2.9710    8.3680 O   0  0  0  0  0  0  0  0  0  0  0  0
   -1.9640    3.5470    9.3470 N   0  0  0  0  0  0  0  0  0  0  0  0
   -2.6380    2.4050    9.2120 C   0  0  0  0  0  0  0  0  0  0  0  0
   -2.1110    1.2750    8.5990 C   0  0  0  0  0  0  0  0  0  0  0  0
   -3.9360    2.3690    9.7040 C   0  0  0  0  0  0  0  0  0  0  0  0
   -4.7120    1.2210    9.5860 C   0  0  0  0  0  0  0  0  0  0  0  0
   -4.1780    0.0970    8.9700 C   0  0  0  0  0  0  0  0  0  0  0  0
   -2.8790    0.1200    8.4760 C   0  0  0  0  0  0  0  0  0  0  0  0
   -2.3200   -1.1450    7.8190 C   0  0  0  0  0  0  0  0  0  0  0  0
   -2.2560   -2.1120    8.7290 F   0  0  0  0  0  0  0  0  0  0  0  0
   -3.1270   -1.5200    6.8320 F   0  0  0  0  0  0  0  0  0  0  0  0
   -1.1040   -0.9320    7.3280 F   0  0  0  0  0  0  0  0  0  0  0  0
    4.7420   12.2883    5.3747 H   0  0  0  0  0  0  0  0  0  0  0  0
    4.6148   11.6223    7.0381 H   0  0  0  0  0  0  0  0  0  0  0  0
    3.5173   11.0278    5.7462 H   0  0  0  0  0  0  0  0  0  0  0  0
    6.5581   10.6588    5.8433 H   0  0  0  0  0  0  0  0  0  0  0  0
    6.2116    9.1721    3.8838 H   0  0  0  0  0  0  0  0  0  0  0  0
    5.6993   10.8560    3.5253 H   0  0  0  0  0  0  0  0  0  0  0  0
    4.4662    9.5963    3.8704 H   0  0  0  0  0  0  0  0  0  0  0  0
    9.3090    7.1308    6.9713 H   0  0  0  0  0  0  0  0  0  0  0  0
    6.3226    4.4137    9.0287 H   0  0  0  0  0  0  0  0  0  0  0  0
    4.7296    5.1859    8.8082 H   0  0  0  0  0  0  0  0  0  0  0  0
    2.4464    8.5664    9.1055 H   0  0  0  0  0  0  0  0  0  0  0  0
    0.4142    7.4033    9.8924 H   0  0  0  0  0  0  0  0  0  0  0  0
    3.6731    5.0155    7.0558 H   0  0  0  0  0  0  0  0  0  0  0  0
    1.6373    3.8520    7.8371 H   0  0  0  0  0  0  0  0  0  0  0  0
   -0.9497    5.6319    9.6920 H   0  0  0  0  0  0  0  0  0  0  0  0
   -2.4441    4.2955    9.8044 H   0  0  0  0  0  0  0  0  0  0  0  0
   -1.0975    1.2926    8.2148 H   0  0  0  0  0  0  0  0  0  0  0  0
   -4.3498    3.2472   10.1863 H   0  0  0  0  0  0  0  0  0  0  0  0
   -5.7250    1.2038    9.9716 H   0  0  0  0  0  0  0  0  0  0  0  0
   -4.7764   -0.8018    8.8740 H   0  0  0  0  0  0  0  0  0  0  0  0
  1  2  2  0  0  0  0
  1  5  1  0  0  0  0
  2  3  1  0  0  0  0
  2 13  1  0  0  0  0
  3  4  2  0  0  0  0
  3 12  1  0  0  0  0
  5 11  2  0  0  0  0
  6 34  1  0  0  0  0
  6 35  1  0  0  0  0
  6 36  1  0  0  0  0
  7  6  1  0  0  0  0
  7  8  1  0  0  0  0
  7  9  1  0  0  0  0
  7 37  1  0  0  0  0
  8 38  1  0  0  0  0
  8 39  1  0  0  0  0
  8 40  1  0  0  0  0
  9  1  1  0  0  0  0
  9 10  1  0  0  0  0
 10 13  2  0  0  0  0
 11  4  1  0  0  0  0
 11 41  1  0  0  0  0
 12 42  1  0  0  0  0
 12 43  1  0  0  0  0
 13 14  1  0  0  0  0
 14 15  2  0  0  0  0
 14 17  1  0  0  0  0
 15 16  1  0  0  0  0
 15 44  1  0  0  0  0
 16 19  2  0  0  0  0
 16 45  1  0  0  0  0
 17 18  2  0  0  0  0
 17 46  1  0  0  0  0
 18 19  1  0  0  0  0
 18 47  1  0  0  0  0
 19 20  1  0  0  0  0
 20 21  1  0  0  0  0
 20 48  1  0  0  0  0
 21 22  2  0  0  0  0
 21 23  1  0  0  0  0
 23 24  1  0  0  0  0
 23 49  1  0  0  0  0
 24 25  2  0  0  0  0
 24 26  1  0  0  0  0
 25 29  1  0  0  0  0
 25 50  1  0  0  0  0
 26 27  2  0  0  0  0
 26 51  1  0  0  0  0
 27 28  1  0  0  0  0
 27 52  1  0  0  0  0
 28 29  2  0  0  0  0
 28 53  1  0  0  0  0
 29 30  1  0  0  0  0
 30 31  1  0  0  0  0
 30 32  1  0  0  0  0
 30 33  1  0  0  0  0
M  END
