3emg_ligand
 OpenBabel08222323343D

 51 53  0  0  1  0  0  0  0  0999 V2000
   15.7190   39.6340    6.3370 C   0  0  0  0  0  0  0  0  0  0  0  0
   14.5590   38.8840    6.9040 C   0  0  1  0  0  0  0  0  0  0  0  0
   15.1970   37.6190    7.2780 C   0  0  0  0  0  0  0  0  0  0  0  0
   15.2430   37.1750    5.9480 O   0  0  0  0  0  0  0  0  0  0  0  0
   13.9660   39.5200    8.0260 N   0  0  0  0  0  0  0  0  0  0  0  0
   12.7120   39.6910    8.1220 C   0  0  0  0  0  0  0  0  0  0  0  0
   12.1050   39.2640    7.2770 O   0  0  0  0  0  0  0  0  0  0  0  0
   12.1660   40.3430    9.3120 C   0  0  0  0  0  0  0  0  0  0  0  0
   12.7940   41.7140   10.0650 S   0  0  0  0  0  0  0  0  0  0  0  0
   11.6680   41.7020   11.1760 C   0  0  0  0  0  0  0  0  0  0  0  0
   10.9430   40.7210   11.0000 N   0  0  0  0  0  0  0  0  0  0  0  0
   11.1030   39.9920   10.0550 C   0  0  0  0  0  0  0  0  0  0  0  0
   10.1970   38.8610    9.8350 C   0  0  0  0  0  0  0  0  0  0  0  0
   11.5740   42.6030   12.2620 C   0  0  0  0  0  0  0  0  0  0  0  0
   10.5490   42.6030   13.1230 C   0  0  0  0  0  0  0  0  0  0  0  0
   10.6700   43.4750   14.1260 C   0  0  0  0  0  0  0  0  0  0  0  0
   11.6530   44.2590   14.2790 N   0  0  0  0  0  0  0  0  0  0  0  0
   12.6110   44.1580   13.4980 C   0  0  0  0  0  0  0  0  0  0  0  0
   13.6640   44.9360   13.7070 N   0  0  0  0  0  0  0  0  0  0  0  0
   14.8490   44.9240   13.0370 C   0  0  0  0  0  0  0  0  0  0  0  0
   15.1010   44.1790   11.9450 C   0  0  0  0  0  0  0  0  0  0  0  0
   16.3550   44.2380   11.3560 C   0  0  0  0  0  0  0  0  0  0  0  0
   16.7570   43.4330   10.1780 C   0  0  0  0  0  0  0  0  0  0  0  0
   17.2970   45.0740   11.8300 C   0  0  0  0  0  0  0  0  0  0  0  0
   17.0420   45.8220   12.9190 C   0  0  0  0  0  0  0  0  0  0  0  0
   18.1270   46.6820   13.4620 C   0  0  0  0  0  0  0  0  0  0  0  0
   15.8300   45.7480   13.5260 C   0  0  0  0  0  0  0  0  0  0  0  0
   12.5870   43.3520   12.5060 N   0  0  0  0  0  0  0  0  0  0  0  0
   16.1252   39.0842    5.4752 H   0  0  0  0  0  0  0  0  0  0  0  0
   16.4989   39.7389    7.1056 H   0  0  0  0  0  0  0  0  0  0  0  0
   15.3875   40.6314    6.0124 H   0  0  0  0  0  0  0  0  0  0  0  0
   13.7852   38.7270    6.1381 H   0  0  0  0  0  0  0  0  0  0  0  0
   14.5736   36.9890    7.9295 H   0  0  0  0  0  0  0  0  0  0  0  0
   16.1905   37.7463    7.7326 H   0  0  0  0  0  0  0  0  0  0  0  0
   15.6425   36.3137    5.9165 H   0  0  0  0  0  0  0  0  0  0  0  0
   14.5560   39.8442    8.7655 H   0  0  0  0  0  0  0  0  0  0  0  0
    9.4277   38.8492   10.6212 H   0  0  0  0  0  0  0  0  0  0  0  0
   10.7685   37.9217    9.8672 H   0  0  0  0  0  0  0  0  0  0  0  0
    9.7148   38.9633    8.8517 H   0  0  0  0  0  0  0  0  0  0  0  0
    9.6915   41.9488   13.0145 H   0  0  0  0  0  0  0  0  0  0  0  0
    9.8729   43.5150   14.8596 H   0  0  0  0  0  0  0  0  0  0  0  0
   13.5753   45.6294   14.4635 H   0  0  0  0  0  0  0  0  0  0  0  0
   14.3310   43.5389   11.5298 H   0  0  0  0  0  0  0  0  0  0  0  0
   17.7982   43.6675    9.9117 H   0  0  0  0  0  0  0  0  0  0  0  0
   16.0990   43.6711    9.3293 H   0  0  0  0  0  0  0  0  0  0  0  0
   16.6723   42.3630   10.4188 H   0  0  0  0  0  0  0  0  0  0  0  0
   18.2591   45.1446   11.3356 H   0  0  0  0  0  0  0  0  0  0  0  0
   17.7581   47.2237   14.3454 H   0  0  0  0  0  0  0  0  0  0  0  0
   18.4416   47.4041   12.6941 H   0  0  0  0  0  0  0  0  0  0  0  0
   18.9839   46.0544   13.7482 H   0  0  0  0  0  0  0  0  0  0  0  0
   15.6353   46.3475   14.4079 H   0  0  0  0  0  0  0  0  0  0  0  0
  1  2  1  0  0  0  0
  1 29  1  0  0  0  0
  1 30  1  0  0  0  0
  1 31  1  0  0  0  0
  2  3  1  0  0  0  0
  2  5  1  0  0  0  0
  2 32  1  6  0  0  0
  3  4  1  0  0  0  0
  3 33  1  0  0  0  0
  3 34  1  0  0  0  0
  4 35  1  0  0  0  0
  5  6  1  0  0  0  0
  5 36  1  0  0  0  0
  6  7  2  0  0  0  0
  6  8  1  0  0  0  0
  8  9  1  0  0  0  0
  8 12  2  0  0  0  0
  9 10  1  0  0  0  0
 10 11  2  0  0  0  0
 10 14  1  0  0  0  0
 11 12  1  0  0  0  0
 12 13  1  0  0  0  0
 13 37  1  0  0  0  0
 13 38  1  0  0  0  0
 13 39  1  0  0  0  0
 14 15  2  0  0  0  0
 14 28  1  0  0  0  0
 15 16  1  0  0  0  0
 15 40  1  0  0  0  0
 16 17  2  0  0  0  0
 16 41  1  0  0  0  0
 17 18  1  0  0  0  0
 18 19  1  0  0  0  0
 18 28  2  0  0  0  0
 19 20  1  0  0  0  0
 19 42  1  0  0  0  0
 20 21  2  0  0  0  0
 20 27  1  0  0  0  0
 21 22  1  0  0  0  0
 21 43  1  0  0  0  0
 22 23  1  0  0  0  0
 22 24  2  0  0  0  0
 23 44  1  0  0  0  0
 23 45  1  0  0  0  0
 23 46  1  0  0  0  0
 24 25  1  0  0  0  0
 24 47  1  0  0  0  0
 25 26  1  0  0  0  0
 25 27  2  0  0  0  0
 26 48  1  0  0  0  0
 26 49  1  0  0  0  0
 26 50  1  0  0  0  0
 27 51  1  0  0  0  0
M  END
