3eoc_ligand
 OpenBabel08222323343D

 50 53  0  0  0  0  0  0  0  0999 V2000
    0.0510   91.8050   30.5140 N   0  0  0  0  0  0  0  0  0  0  0  0
    0.6360   91.9280   32.8490 C   0  0  0  0  0  0  0  0  0  0  0  0
    0.4750   91.2270   31.6810 C   0  0  0  0  0  0  0  0  0  0  0  0
    0.6800   89.9050   31.3650 C   0  0  0  0  0  0  0  0  0  0  0  0
   -0.4080   91.1640   28.0970 C   0  0  0  0  0  0  0  0  0  0  0  0
   -1.0430   91.5730   25.4700 C   0  0  0  0  0  0  0  0  0  0  0  0
   -1.6450   91.6780   27.7820 C   0  0  0  0  0  0  0  0  0  0  0  0
   -0.6700   96.9130   28.5480 C   0  0  0  0  0  0  0  0  0  0  0  0
   -1.5440   97.9240   28.8830 C   0  0  0  0  0  0  0  0  0  0  0  0
   -2.0090   98.0210   30.1790 C   0  0  0  0  0  0  0  0  0  0  0  0
   -0.2530   93.2240   30.5070 N   0  0  0  0  0  0  0  0  0  0  0  0
   -0.0710   93.8260   31.6920 C   0  0  0  0  0  0  0  0  0  0  0  0
    0.3520   93.2350   32.8200 N   0  0  0  0  0  0  0  0  0  0  0  0
    0.3580   89.7700   30.0290 N   0  0  0  0  0  0  0  0  0  0  0  0
   -0.0260   90.9350   29.5040 C   0  0  0  0  0  0  0  0  0  0  0  0
    0.5120   90.8520   27.1190 C   0  0  0  0  0  0  0  0  0  0  0  0
    0.1940   91.0590   25.7960 C   0  0  0  0  0  0  0  0  0  0  0  0
   -1.9580   91.8800   26.4550 C   0  0  0  0  0  0  0  0  0  0  0  0
    1.1310   88.7590   32.1470 C   0  0  0  0  0  0  0  0  0  0  0  0
   -0.3290   95.2020   31.8210 N   0  0  0  0  0  0  0  0  0  0  0  0
   -0.7180   96.0940   30.8040 C   0  0  0  0  0  0  0  0  0  0  0  0
   -0.2560   96.0090   29.5070 C   0  0  0  0  0  0  0  0  0  0  0  0
   -1.5920   97.1090   31.1270 C   0  0  0  0  0  0  0  0  0  0  0  0
   -2.8960   99.0400   30.5040 O   0  0  0  0  0  0  0  0  0  0  0  0
   -2.7070   99.3690   31.8750 C   0  0  0  0  0  0  0  0  0  0  0  0
   -1.9560   98.8260   27.9150 O   0  0  0  0  0  0  0  0  0  0  0  0
   -1.0530   99.9230   27.9700 C   0  0  0  0  0  0  0  0  0  0  0  0
   -0.2110   96.8350   27.2440 O   0  0  0  0  0  0  0  0  0  0  0  0
    0.2610   95.5090   27.0460 C   0  0  0  0  0  0  0  0  0  0  0  0
    0.9801   91.4416   33.7605 H   0  0  0  0  0  0  0  0  0  0  0  0
   -1.2988   91.7374   24.4295 H   0  0  0  0  0  0  0  0  0  0  0  0
   -2.3586   91.9191   28.5615 H   0  0  0  0  0  0  0  0  0  0  0  0
    1.4799   90.4462   27.3902 H   0  0  0  0  0  0  0  0  0  0  0  0
    0.9095   90.8201   25.0175 H   0  0  0  0  0  0  0  0  0  0  0  0
   -2.9277   92.2820   26.1844 H   0  0  0  0  0  0  0  0  0  0  0  0
    1.1588   87.8657   31.5058 H   0  0  0  0  0  0  0  0  0  0  0  0
    0.4362   88.5890   32.9826 H   0  0  0  0  0  0  0  0  0  0  0  0
    2.1381   88.9582   32.5422 H   0  0  0  0  0  0  0  0  0  0  0  0
   -0.2214   95.6016   32.7642 H   0  0  0  0  0  0  0  0  0  0  0  0
    0.4403   95.2233   29.2371 H   0  0  0  0  0  0  0  0  0  0  0  0
   -1.9585   97.1926   32.1437 H   0  0  0  0  0  0  0  0  0  0  0  0
   -3.3996  100.1756   32.1574 H   0  0  0  0  0  0  0  0  0  0  0  0
   -1.6710   99.7036   32.0324 H   0  0  0  0  0  0  0  0  0  0  0  0
   -2.9043   98.4824   32.4954 H   0  0  0  0  0  0  0  0  0  0  0  0
   -1.3388  100.6713   27.2161 H   0  0  0  0  0  0  0  0  0  0  0  0
   -0.0321   99.5682   27.7657 H   0  0  0  0  0  0  0  0  0  0  0  0
   -1.0896  100.3783   28.9707 H   0  0  0  0  0  0  0  0  0  0  0  0
    0.6366   95.4033   26.0175 H   0  0  0  0  0  0  0  0  0  0  0  0
   -0.5623   94.7983   27.2106 H   0  0  0  0  0  0  0  0  0  0  0  0
    1.0741   95.2992   27.7566 H   0  0  0  0  0  0  0  0  0  0  0  0
  1  3  1  0  0  0  0
  1 15  1  0  0  0  0
  2  3  1  0  0  0  0
  2 30  1  0  0  0  0
  3  4  2  0  0  0  0
  4 14  1  0  0  0  0
  4 19  1  0  0  0  0
  5  7  2  0  0  0  0
  5 16  1  0  0  0  0
  6 31  1  0  0  0  0
  7 18  1  0  0  0  0
  7 32  1  0  0  0  0
  8  9  2  0  0  0  0
  8 28  1  0  0  0  0
  9 10  1  0  0  0  0
  9 26  1  0  0  0  0
 10 23  2  0  0  0  0
 10 24  1  0  0  0  0
 11  1  1  0  0  0  0
 12 11  2  0  0  0  0
 12 13  1  0  0  0  0
 13  2  2  0  0  0  0
 15  5  1  0  0  0  0
 15 14  2  0  0  0  0
 16 17  2  0  0  0  0
 16 33  1  0  0  0  0
 17  6  1  0  0  0  0
 17 34  1  0  0  0  0
 18  6  2  0  0  0  0
 18 35  1  0  0  0  0
 19 36  1  0  0  0  0
 19 37  1  0  0  0  0
 19 38  1  0  0  0  0
 20 12  1  0  0  0  0
 20 39  1  0  0  0  0
 21 20  1  0  0  0  0
 21 22  2  0  0  0  0
 21 23  1  0  0  0  0
 22  8  1  0  0  0  0
 22 40  1  0  0  0  0
 23 41  1  0  0  0  0
 24 25  1  0  0  0  0
 25 42  1  0  0  0  0
 25 43  1  0  0  0  0
 25 44  1  0  0  0  0
 26 27  1  0  0  0  0
 27 45  1  0  0  0  0
 27 46  1  0  0  0  0
 27 47  1  0  0  0  0
 28 29  1  0  0  0  0
 29 48  1  0  0  0  0
 29 49  1  0  0  0  0
 29 50  1  0  0  0  0
M  END
