3eor_ligand
 OpenBabel08222323343D

 30 30  0  0  1  0  0  0  0  0999 V2000
  139.4770  101.0830   43.5270 O   0  0  0  0  0  1  0  0  0  0  0  0
  140.0950   99.8960   44.1150 P   0  0  0  0  0  0  0  0  0  0  0  0
  140.9030   99.0870   43.2120 O   0  0  0  0  0  1  0  0  0  0  0  0
  139.2450   99.1180   45.0070 O   0  0  0  0  0  0  0  0  0  0  0  0
  141.3260  100.6400   45.1830 C   0  0  0  0  0  0  0  0  0  0  0  0
  140.8440  101.0260   46.4580 O   0  0  0  0  0  0  0  0  0  0  0  0
  141.1170   99.9410   47.2670 C   0  0  1  0  0  0  0  0  0  0  0  0
  142.5430   99.8620   47.0690 C   0  0  0  0  0  0  0  0  0  0  0  0
  142.9990   99.0090   48.0760 O   0  0  0  0  0  0  0  0  0  0  0  0
  141.1050  100.1320   48.7410 C   0  0  0  0  0  0  0  0  0  0  0  0
  139.9510  100.9120   49.0900 N   0  0  0  0  0  0  0  0  0  0  0  0
  138.7110  100.5390   48.7120 C   0  0  0  0  0  0  0  0  0  0  0  0
  137.6590  101.3330   49.0640 C   0  0  0  0  0  0  0  0  0  0  0  0
  137.9080  102.4530   49.7810 C   0  0  0  0  0  0  0  0  0  0  0  0
  136.9260  103.2160   50.1250 N   0  0  0  0  0  0  0  0  0  0  0  0
  139.1270  102.7790   50.1280 N   0  0  0  0  0  0  0  0  0  0  0  0
  140.1330  102.0170   49.7900 C   0  0  0  0  0  0  0  0  0  0  0  0
  141.3710  102.3180   50.1280 O   0  0  0  0  0  0  0  0  0  0  0  0
  141.7209  101.5350   44.6801 H   0  0  0  0  0  0  0  0  0  0  0  0
  142.1384   99.9129   45.3290 H   0  0  0  0  0  0  0  0  0  0  0  0
  140.5387   99.0549   46.9665 H   0  0  0  0  0  0  0  0  0  0  0  0
  143.0029  100.8564   47.1666 H   0  0  0  0  0  0  0  0  0  0  0  0
  142.7735   99.4471   46.0767 H   0  0  0  0  0  0  0  0  0  0  0  0
  143.9412   98.9112   48.0041 H   0  0  0  0  0  0  0  0  0  0  0  0
  142.0180  100.6596   49.0543 H   0  0  0  0  0  0  0  0  0  0  0  0
  141.0568   99.1537   49.2416 H   0  0  0  0  0  0  0  0  0  0  0  0
  138.5535   99.6260   48.1396 H   0  0  0  0  0  0  0  0  0  0  0  0
  136.6423  101.0714   48.7746 H   0  0  0  0  0  0  0  0  0  0  0  0
  137.1010  104.0527   50.6592 H   0  0  0  0  0  0  0  0  0  0  0  0
  139.2890  103.6142   50.6536 H   0  0  0  0  0  0  0  0  0  0  0  0
  1  2  1  0  0  0  0
  2  3  1  0  0  0  0
  2  4  2  0  0  0  0
  2  5  1  0  0  0  0
  5  6  1  0  0  0  0
  5 19  1  0  0  0  0
  5 20  1  0  0  0  0
  6  7  1  0  0  0  0
  7  8  1  0  0  0  0
  7 10  1  0  0  0  0
  7 21  1  6  0  0  0
  8  9  1  0  0  0  0
  8 22  1  0  0  0  0
  8 23  1  0  0  0  0
  9 24  1  0  0  0  0
 10 11  1  0  0  0  0
 10 25  1  0  0  0  0
 10 26  1  0  0  0  0
 11 12  1  0  0  0  0
 11 17  1  0  0  0  0
 12 13  2  0  0  0  0
 12 27  1  0  0  0  0
 13 14  1  0  0  0  0
 13 28  1  0  0  0  0
 14 15  2  0  0  0  0
 14 16  1  0  0  0  0
 15 29  1  0  0  0  0
 16 17  1  0  0  0  0
 16 30  1  0  0  0  0
 17 18  2  0  0  0  0
M  END
