3eos_ligand
 OpenBabel08222323343D

 56 59  0  0  1  0  0  0  0  0999 V2000
   18.1690   17.3800   22.8140 C   0  0  0  0  0  0  0  0  0  0  0  0
   19.2470   17.7530   23.2210 O   0  0  0  0  0  0  0  0  0  0  0  0
   17.1440   17.0090   23.5930 N   0  0  0  0  0  0  0  0  0  0  0  0
   15.9580   16.6240   23.0610 C   0  0  2  0  0  3  0  0  0  0  0  0
   14.9770   16.3890   23.9720 N   0  0  0  0  0  0  0  0  0  0  0  0
   15.8200   16.4880   21.7920 N   0  0  0  0  0  0  0  0  0  0  0  0
   16.7510   16.8250   20.8690 C   0  0  0  0  0  0  0  0  0  0  0  0
   16.4890   16.6880   19.4910 C   0  0  0  0  0  0  0  0  0  0  0  0
   15.1720   16.2230   18.8750 C   0  0  0  0  0  0  0  0  0  0  0  0
   15.3450   14.8200   18.2040 C   0  0  0  0  0  0  0  0  0  0  0  0
   14.2740   14.6820   17.1460 N   0  3  0  0  0  0  0  0  0  0  0  0
   12.9590   14.4180   17.8070 C   0  0  0  0  0  0  0  0  0  0  0  0
   11.7670   14.5320   16.8130 C   0  0  0  0  0  0  0  0  0  0  0  0
   11.8790   15.8710   16.0240 C   0  0  0  0  0  0  0  0  0  0  0  0
   10.7470   15.9060   14.9540 C   0  0  0  0  0  0  0  0  0  0  0  0
    9.3620   15.8220   15.6440 C   0  0  0  0  0  0  0  0  0  0  0  0
    9.2400   14.5530   16.5260 C   0  0  0  0  0  0  0  0  0  0  0  0
   10.3950   14.5280   17.5720 C   0  0  0  0  0  0  0  0  0  0  0  0
   17.5240   17.1240   18.6530 C   0  0  0  0  0  0  0  0  0  0  0  0
   17.5590   17.2670   17.3110 N   0  0  0  0  0  0  0  0  0  0  0  0
   18.6800   17.7430   16.9420 C   0  0  0  0  0  0  0  0  0  0  0  0
   19.0220   18.0980   15.6900 N   0  0  0  0  0  0  0  0  0  0  0  0
   18.1860   17.9390   14.5130 C   0  0  0  0  0  0  0  0  0  0  0  0
   19.5060   17.9810   17.9980 N   0  0  0  0  0  0  0  0  0  0  0  0
   18.7170   17.6220   19.1040 C   0  0  0  0  0  0  0  0  0  0  0  0
   19.0560   17.6670   20.4660 C   0  0  0  0  0  0  0  0  0  0  0  0
   18.0140   17.2480   21.3130 C   0  0  0  0  0  0  0  0  0  0  0  0
   17.2560   17.0162   24.5867 H   0  0  0  0  0  0  0  0  0  0  0  0
   14.0423   16.0920   23.6573 H   0  0  0  0  0  0  0  0  0  0  0  0
   15.1683   16.5079   24.9771 H   0  0  0  0  0  0  0  0  0  0  0  0
   14.9328   16.0921   21.4499 H   0  0  0  0  0  0  0  0  0  0  0  0
   14.8513   16.9505   18.1148 H   0  0  0  0  0  0  0  0  0  0  0  0
   14.4078   16.1553   19.6633 H   0  0  0  0  0  0  0  0  0  0  0  0
   15.2311   14.0273   18.9581 H   0  0  0  0  0  0  0  0  0  0  0  0
   16.3403   14.7459   17.7415 H   0  0  0  0  0  0  0  0  0  0  0  0
   14.5028   13.9153   16.5330 H   0  0  0  0  0  0  0  0  0  0  0  0
   14.2170   15.5344   16.6111 H   0  0  0  0  0  0  0  0  0  0  0  0
   12.8163   15.1493   18.6162 H   0  0  0  0  0  0  0  0  0  0  0  0
   12.9723   13.4022   18.2288 H   0  0  0  0  0  0  0  0  0  0  0  0
   11.7992   13.6843   16.1128 H   0  0  0  0  0  0  0  0  0  0  0  0
   12.8598   15.9302   15.5295 H   0  0  0  0  0  0  0  0  0  0  0  0
   11.7645   16.7198   16.7142 H   0  0  0  0  0  0  0  0  0  0  0  0
   10.8656   15.0525   14.2703 H   0  0  0  0  0  0  0  0  0  0  0  0
   10.8135   16.8444   14.3840 H   0  0  0  0  0  0  0  0  0  0  0  0
    8.5793   15.7964   14.8716 H   0  0  0  0  0  0  0  0  0  0  0  0
    9.2239   16.7111   16.2768 H   0  0  0  0  0  0  0  0  0  0  0  0
    9.3034   13.6579   15.8898 H   0  0  0  0  0  0  0  0  0  0  0  0
    8.2726   14.5631   17.0495 H   0  0  0  0  0  0  0  0  0  0  0  0
   10.3276   15.4159   18.2179 H   0  0  0  0  0  0  0  0  0  0  0  0
   10.3161   13.6198   18.1876 H   0  0  0  0  0  0  0  0  0  0  0  0
   19.9532   18.5170   15.5552 H   0  0  0  0  0  0  0  0  0  0  0  0
   18.7220   18.3150   13.6291 H   0  0  0  0  0  0  0  0  0  0  0  0
   17.2538   18.5076   14.6458 H   0  0  0  0  0  0  0  0  0  0  0  0
   17.9491   16.8740   14.3726 H   0  0  0  0  0  0  0  0  0  0  0  0
   20.4725   18.3370   17.9885 H   0  0  0  0  0  0  0  0  0  0  0  0
   20.0244   17.9923   20.8286 H   0  0  0  0  0  0  0  0  0  0  0  0
  1  2  2  0  0  0  0
  1  3  1  0  0  0  0
  1 27  1  0  0  0  0
  3  4  1  0  0  0  0
  3 28  1  0  0  0  0
  4  5  1  1  0  0  0
  4  6  1  0  0  0  0
  5 29  1  0  0  0  0
  5 30  1  0  0  0  0
  6  7  1  0  0  0  0
  6 31  1  0  0  0  0
  7  8  2  0  0  0  0
  7 27  1  0  0  0  0
  8  9  1  0  0  0  0
  8 19  1  0  0  0  0
  9 10  1  0  0  0  0
  9 32  1  0  0  0  0
  9 33  1  0  0  0  0
 10 11  1  0  0  0  0
 10 34  1  0  0  0  0
 10 35  1  0  0  0  0
 11 12  1  0  0  0  0
 11 36  1  0  0  0  0
 11 37  1  0  0  0  0
 12 13  1  0  0  0  0
 12 38  1  0  0  0  0
 12 39  1  0  0  0  0
 13 14  1  0  0  0  0
 13 18  1  0  0  0  0
 13 40  1  0  0  0  0
 14 15  1  0  0  0  0
 14 41  1  0  0  0  0
 14 42  1  0  0  0  0
 15 16  1  0  0  0  0
 15 43  1  0  0  0  0
 15 44  1  0  0  0  0
 16 17  1  0  0  0  0
 16 45  1  0  0  0  0
 16 46  1  0  0  0  0
 17 18  1  0  0  0  0
 17 47  1  0  0  0  0
 17 48  1  0  0  0  0
 18 49  1  0  0  0  0
 18 50  1  0  0  0  0
 19 20  1  0  0  0  0
 19 25  2  0  0  0  0
 20 21  2  0  0  0  0
 21 22  1  0  0  0  0
 21 24  1  0  0  0  0
 22 23  1  0  0  0  0
 22 51  1  0  0  0  0
 23 52  1  0  0  0  0
 23 53  1  0  0  0  0
 23 54  1  0  0  0  0
 24 25  1  0  0  0  0
 24 55  1  0  0  0  0
 25 26  1  0  0  0  0
 26 27  2  0  0  0  0
 26 56  1  0  0  0  0
M  CHG  1  11   1
M  END
