3eq8_ligand
 OpenBabel08222323343D

 61 65  0  0  1  0  0  0  0  0999 V2000
    6.6990   38.8090   30.8800 C   0  0  0  0  0  0  0  0  0  0  0  0
    7.4710   38.1050   30.2310 O   0  0  0  0  0  0  0  0  0  0  0  0
    7.1290   39.4130   32.2010 C   0  0  0  0  0  0  0  0  0  0  0  0
    8.6530   39.4760   32.2360 C   0  0  0  0  0  0  0  0  0  0  0  0
    9.2530   39.0130   33.4750 N   0  0  0  0  0  0  0  0  0  0  0  0
    9.3640   39.9400   34.5400 C   0  0  0  0  0  0  0  0  0  0  0  0
   10.0010   39.4290   35.8200 C   0  0  0  0  0  0  0  0  0  0  0  0
   10.4290   38.1910   35.9570 N   0  0  0  0  0  0  0  0  0  0  0  0
   10.3010   37.2990   34.8840 C   0  0  0  0  0  0  0  0  0  0  0  0
   10.7660   35.9640   35.0420 C   0  0  0  0  0  0  0  0  0  0  0  0
   10.6560   35.0500   33.9990 C   0  0  0  0  0  0  0  0  0  0  0  0
   10.0830   35.4270   32.7760 C   0  0  0  0  0  0  0  0  0  0  0  0
    9.6160   36.7230   32.5810 C   0  0  0  0  0  0  0  0  0  0  0  0
    9.7090   37.6900   33.6240 C   0  0  0  0  0  0  0  0  0  0  0  0
    8.9470   41.1090   34.3730 O   0  0  0  0  0  0  0  0  0  0  0  0
   10.1180   40.4160   36.9330 C   0  0  0  0  0  0  0  0  0  0  0  0
   10.1620   39.9720   38.2720 C   0  0  0  0  0  0  0  0  0  0  0  0
   10.2780   40.9000   39.3160 C   0  0  0  0  0  0  0  0  0  0  0  0
   10.3470   42.2790   39.0370 C   0  0  0  0  0  0  0  0  0  0  0  0
   10.3020   42.7260   37.7110 C   0  0  0  0  0  0  0  0  0  0  0  0
   10.1870   41.8040   36.6610 C   0  0  0  0  0  0  0  0  0  0  0  0
    5.3730   38.5970   30.8730 N   0  0  0  0  0  0  0  0  0  0  0  0
    4.7010   38.0220   29.7080 C   0  0  2  0  0  0  0  0  0  0  0  0
    4.3080   39.0890   28.7020 C   0  0  0  0  0  0  0  0  0  0  0  0
    4.3540   40.2840   28.9970 O   0  0  0  0  0  0  0  0  0  0  0  0
    3.4800   37.3120   30.3030 C   0  0  0  0  0  0  0  0  0  0  0  0
    3.3470   37.8380   31.7350 C   0  0  0  0  0  0  0  0  0  0  0  0
    4.4210   38.8690   31.9630 C   0  0  0  0  0  0  0  0  0  0  0  0
    3.8950   38.6630   27.5010 N   0  0  0  0  0  0  0  0  0  0  0  0
    3.4370   39.5180   26.3940 C   0  0  0  0  0  0  0  0  0  0  0  0
    3.8180   37.2440   27.1590 C   0  0  0  0  0  0  0  0  0  0  0  0
    2.7960   37.2330   26.0280 C   0  0  0  0  0  0  0  0  0  0  0  0
    3.0340   38.5280   25.3310 C   0  0  0  0  0  0  0  0  0  0  0  0
    6.7651   38.7881   33.0299 H   0  0  0  0  0  0  0  0  0  0  0  0
    6.7142   40.4272   32.2970 H   0  0  0  0  0  0  0  0  0  0  0  0
    8.9561   40.5217   32.0788 H   0  0  0  0  0  0  0  0  0  0  0  0
    9.0402   38.8546   31.4151 H   0  0  0  0  0  0  0  0  0  0  0  0
   11.2094   35.6565   35.9822 H   0  0  0  0  0  0  0  0  0  0  0  0
   11.0167   34.0366   34.1330 H   0  0  0  0  0  0  0  0  0  0  0  0
   10.0031   34.7015   31.9745 H   0  0  0  0  0  0  0  0  0  0  0  0
    9.1781   36.9994   31.6287 H   0  0  0  0  0  0  0  0  0  0  0  0
   10.1060   38.9123   38.4932 H   0  0  0  0  0  0  0  0  0  0  0  0
   10.3148   40.5549   40.3429 H   0  0  0  0  0  0  0  0  0  0  0  0
   10.4348   42.9931   39.8478 H   0  0  0  0  0  0  0  0  0  0  0  0
   10.3562   43.7870   37.4957 H   0  0  0  0  0  0  0  0  0  0  0  0
   10.1507   42.1553   35.6361 H   0  0  0  0  0  0  0  0  0  0  0  0
    5.3581   37.2940   29.2098 H   0  0  0  0  0  0  0  0  0  0  0  0
    3.6351   36.2230   30.3080 H   0  0  0  0  0  0  0  0  0  0  0  0
    2.5772   37.5512   29.7219 H   0  0  0  0  0  0  0  0  0  0  0  0
    3.4696   37.0096   32.4482 H   0  0  0  0  0  0  0  0  0  0  0  0
    2.3566   38.2964   31.8722 H   0  0  0  0  0  0  0  0  0  0  0  0
    4.0138   39.8881   31.8880 H   0  0  0  0  0  0  0  0  0  0  0  0
    4.8959   38.7352   32.9461 H   0  0  0  0  0  0  0  0  0  0  0  0
    4.2488   40.1692   26.0378 H   0  0  0  0  0  0  0  0  0  0  0  0
    2.5802   40.1353   26.7020 H   0  0  0  0  0  0  0  0  0  0  0  0
    3.4703   36.6470   28.0149 H   0  0  0  0  0  0  0  0  0  0  0  0
    4.7923   36.8636   26.8182 H   0  0  0  0  0  0  0  0  0  0  0  0
    1.7712   37.1826   26.4246 H   0  0  0  0  0  0  0  0  0  0  0  0
    2.9690   36.3842   25.3501 H   0  0  0  0  0  0  0  0  0  0  0  0
    3.8388   38.4181   24.5892 H   0  0  0  0  0  0  0  0  0  0  0  0
    2.1150   38.8634   24.8280 H   0  0  0  0  0  0  0  0  0  0  0  0
  1  2  2  0  0  0  0
  1  3  1  0  0  0  0
  1 22  1  0  0  0  0
  3  4  1  0  0  0  0
  3 34  1  0  0  0  0
  3 35  1  0  0  0  0
  4  5  1  0  0  0  0
  4 36  1  0  0  0  0
  4 37  1  0  0  0  0
  5  6  1  0  0  0  0
  5 14  1  0  0  0  0
  6  7  1  0  0  0  0
  6 15  2  0  0  0  0
  7  8  2  0  0  0  0
  7 16  1  0  0  0  0
  8  9  1  0  0  0  0
  9 10  2  0  0  0  0
  9 14  1  0  0  0  0
 10 11  1  0  0  0  0
 10 38  1  0  0  0  0
 11 12  2  0  0  0  0
 11 39  1  0  0  0  0
 12 13  1  0  0  0  0
 12 40  1  0  0  0  0
 13 14  2  0  0  0  0
 13 41  1  0  0  0  0
 16 17  2  0  0  0  0
 16 21  1  0  0  0  0
 17 18  1  0  0  0  0
 17 42  1  0  0  0  0
 18 19  2  0  0  0  0
 18 43  1  0  0  0  0
 19 20  1  0  0  0  0
 19 44  1  0  0  0  0
 20 21  2  0  0  0  0
 20 45  1  0  0  0  0
 21 46  1  0  0  0  0
 22 23  1  0  0  0  0
 22 28  1  0  0  0  0
 23 24  1  0  0  0  0
 23 26  1  0  0  0  0
 23 47  1  6  0  0  0
 24 25  2  0  0  0  0
 24 29  1  0  0  0  0
 26 27  1  0  0  0  0
 26 48  1  0  0  0  0
 26 49  1  0  0  0  0
 27 28  1  0  0  0  0
 27 50  1  0  0  0  0
 27 51  1  0  0  0  0
 28 52  1  0  0  0  0
 28 53  1  0  0  0  0
 29 30  1  0  0  0  0
 29 31  1  0  0  0  0
 30 33  1  0  0  0  0
 30 54  1  0  0  0  0
 30 55  1  0  0  0  0
 31 32  1  0  0  0  0
 31 56  1  0  0  0  0
 31 57  1  0  0  0  0
 32 33  1  0  0  0  0
 32 58  1  0  0  0  0
 32 59  1  0  0  0  0
 33 60  1  0  0  0  0
 33 61  1  0  0  0  0
M  END
