3eql_ligand
 OpenBabel08222323343D

 63 63  0  0  1  0  0  0  0  0999 V2000
  -11.7150   57.2370    2.8410 O   0  0  0  0  0  0  0  0  0  0  0  0
   -9.3460   57.7160    2.5350 C   0  0  0  0  0  0  0  0  0  0  0  0
   -7.3060   53.7010    7.9880 N   0  0  0  0  0  0  0  0  0  0  0  0
   -9.6250   59.0970    2.5600 C   0  0  0  0  0  0  0  0  0  0  0  0
  -10.9860   59.5820    2.6870 C   0  0  1  0  0  0  0  0  0  0  0  0
   -8.5780   59.9970    2.4230 O   0  0  0  0  0  0  0  0  0  0  0  0
  -12.0130   58.6080    2.8140 C   0  0  0  0  0  0  0  0  0  0  0  0
  -10.3740   56.7680    2.6860 C   0  0  2  0  0  0  0  0  0  0  0  0
  -11.1580   61.1640    2.6710 C   0  0  0  0  0  0  0  0  0  0  0  0
  -11.8490   61.5950    3.9670 C   0  0  0  0  0  0  0  0  0  0  0  0
  -13.1700   58.9770    2.8840 O   0  0  0  0  0  0  0  0  0  0  0  0
  -11.0480   61.2920    5.0980 C   0  0  0  0  0  0  0  0  0  0  0  0
  -11.6660   61.6930    6.4710 C   0  0  0  0  0  0  0  0  0  0  0  0
  -11.0670   61.1540    7.6190 C   0  0  0  0  0  0  0  0  0  0  0  0
  -11.5500   61.4720    9.0060 C   0  0  0  0  0  0  0  0  0  0  0  0
  -11.3110   62.8610    9.5820 C   0  0  0  0  0  0  0  0  0  0  0  0
  -12.4710   63.8290    9.3920 C   0  0  0  0  0  0  0  0  0  0  0  0
  -12.3960   65.2650    9.8880 C   0  0  0  0  0  0  0  0  0  0  0  0
  -13.1920   62.2830    4.0150 C   0  0  0  0  0  0  0  0  0  0  0  0
   -9.8870   60.1750    7.5260 C   0  0  0  0  0  0  0  0  0  0  0  0
  -10.1100   55.2510    2.6670 C   0  0  0  0  0  0  0  0  0  0  0  0
   -8.9150   54.9100    3.5740 C   0  0  0  0  0  0  0  0  0  0  0  0
   -9.3000   54.6100    5.0250 C   0  0  0  0  0  0  0  0  0  0  0  0
   -8.0460   54.2970    5.8130 C   0  0  0  0  0  0  0  0  0  0  0  0
   -8.3010   54.0080    7.1340 C   0  0  0  0  0  0  0  0  0  0  0  0
   -7.4860   53.4010    9.2840 C   0  0  0  0  0  0  0  0  0  0  0  0
   -6.4000   52.7840   11.2550 C   0  0  0  0  0  0  0  0  0  0  0  0
  -10.7510   61.6980    1.6530 O   0  0  0  0  0  0  0  0  0  0  0  0
   -6.4110   53.1310    9.9220 O   0  0  0  0  0  0  0  0  0  0  0  0
   -8.6720   53.4040    9.7940 O   0  0  0  0  0  0  0  0  0  0  0  0
   -8.3200   57.3780    2.3968 H   0  0  0  0  0  0  0  0  0  0  0  0
  -11.1262   59.5653    1.5961 H   0  0  0  0  0  0  0  0  0  0  0  0
   -8.7106   60.5186    1.6401 H   0  0  0  0  0  0  0  0  0  0  0  0
  -10.2273   56.7795    3.7761 H   0  0  0  0  0  0  0  0  0  0  0  0
  -10.0730   60.8143    5.0129 H   0  0  0  0  0  0  0  0  0  0  0  0
  -12.5236   62.3610    6.5363 H   0  0  0  0  0  0  0  0  0  0  0  0
  -11.0654   60.7558    9.6858 H   0  0  0  0  0  0  0  0  0  0  0  0
  -12.6373   61.3056    9.0124 H   0  0  0  0  0  0  0  0  0  0  0  0
  -10.4230   63.2881    9.0931 H   0  0  0  0  0  0  0  0  0  0  0  0
  -11.1219   62.7583   10.6607 H   0  0  0  0  0  0  0  0  0  0  0  0
  -13.3401   63.3737    9.8894 H   0  0  0  0  0  0  0  0  0  0  0  0
  -12.6555   63.8839    8.3090 H   0  0  0  0  0  0  0  0  0  0  0  0
  -13.3354   65.7850    9.6489 H   0  0  0  0  0  0  0  0  0  0  0  0
  -11.5570   65.7793    9.3966 H   0  0  0  0  0  0  0  0  0  0  0  0
  -12.2415   65.2692   10.9771 H   0  0  0  0  0  0  0  0  0  0  0  0
  -13.5863   62.3891    2.9936 H   0  0  0  0  0  0  0  0  0  0  0  0
  -13.0781   63.2783    4.4693 H   0  0  0  0  0  0  0  0  0  0  0  0
  -13.8902   61.6829    4.6170 H   0  0  0  0  0  0  0  0  0  0  0  0
   -9.6224   60.0190    6.4698 H   0  0  0  0  0  0  0  0  0  0  0  0
  -10.1716   59.2136    7.9785 H   0  0  0  0  0  0  0  0  0  0  0  0
   -9.0220   60.5913    8.0630 H   0  0  0  0  0  0  0  0  0  0  0  0
   -9.8874   54.9335    1.6376 H   0  0  0  0  0  0  0  0  0  0  0  0
  -11.0038   54.7217    3.0289 H   0  0  0  0  0  0  0  0  0  0  0  0
   -8.2225   55.7646    3.5696 H   0  0  0  0  0  0  0  0  0  0  0  0
   -8.4084   54.0254    3.1607 H   0  0  0  0  0  0  0  0  0  0  0  0
   -9.9797   53.7457    5.0551 H   0  0  0  0  0  0  0  0  0  0  0  0
   -9.8012   55.4861    5.4623 H   0  0  0  0  0  0  0  0  0  0  0  0
   -7.3764   55.1685    5.7675 H   0  0  0  0  0  0  0  0  0  0  0  0
   -7.5503   53.4292    5.3534 H   0  0  0  0  0  0  0  0  0  0  0  0
   -9.3279   54.0279    7.4960 H   0  0  0  0  0  0  0  0  0  0  0  0
   -5.3646   52.5998   11.5774 H   0  0  0  0  0  0  0  0  0  0  0  0
   -6.9974   51.8720   11.4015 H   0  0  0  0  0  0  0  0  0  0  0  0
   -6.8292   53.6031   11.8507 H   0  0  0  0  0  0  0  0  0  0  0  0
  1  7  1  0  0  0  0
  2  4  2  0  0  0  0
  2 31  1  0  0  0  0
  3 26  1  0  0  0  0
  4  5  1  0  0  0  0
  4  6  1  0  0  0  0
  5  9  1  0  0  0  0
  5 32  1  6  0  0  0
  6 33  1  0  0  0  0
  7  5  1  0  0  0  0
  7 11  2  0  0  0  0
  8  1  1  0  0  0  0
  8  2  1  0  0  0  0
  8 34  1  1  0  0  0
  9 10  1  0  0  0  0
  9 28  2  0  0  0  0
 10 12  2  0  0  0  0
 10 19  1  0  0  0  0
 12 13  1  0  0  0  0
 12 35  1  0  0  0  0
 13 14  2  0  0  0  0
 13 36  1  0  0  0  0
 14 15  1  0  0  0  0
 14 20  1  0  0  0  0
 15 16  1  0  0  0  0
 15 37  1  0  0  0  0
 15 38  1  0  0  0  0
 16 17  1  0  0  0  0
 16 39  1  0  0  0  0
 16 40  1  0  0  0  0
 17 18  1  0  0  0  0
 17 41  1  0  0  0  0
 17 42  1  0  0  0  0
 18 43  1  0  0  0  0
 18 44  1  0  0  0  0
 18 45  1  0  0  0  0
 19 46  1  0  0  0  0
 19 47  1  0  0  0  0
 19 48  1  0  0  0  0
 20 49  1  0  0  0  0
 20 50  1  0  0  0  0
 20 51  1  0  0  0  0
 21  8  1  0  0  0  0
 21 52  1  0  0  0  0
 21 53  1  0  0  0  0
 22 21  1  0  0  0  0
 22 54  1  0  0  0  0
 22 55  1  0  0  0  0
 23 22  1  0  0  0  0
 23 56  1  0  0  0  0
 23 57  1  0  0  0  0
 24 23  1  0  0  0  0
 24 25  1  0  0  0  0
 24 58  1  0  0  0  0
 24 59  1  0  0  0  0
 25  3  2  0  0  0  0
 25 60  1  0  0  0  0
 26 29  1  0  0  0  0
 26 30  2  0  0  0  0
 27 61  1  0  0  0  0
 27 62  1  0  0  0  0
 27 63  1  0  0  0  0
 29 27  1  0  0  0  0
M  END
