3erk_ligand
 OpenBabel08222323343D

 45 48  0  0  0  0  0  0  0  0999 V2000
  -12.9880   14.7970   44.3980 C   0  0  0  0  0  0  0  0  0  0  0  0
  -13.2530   15.1750   45.8760 C   0  0  0  0  0  0  0  0  0  0  0  0
  -13.0720   16.6510   46.1480 N   0  3  0  0  0  0  0  0  0  0  0  0
  -13.7500   17.6150   45.1990 C   0  0  0  0  0  0  0  0  0  0  0  0
  -13.5720   17.2100   43.7000 C   0  0  0  0  0  0  0  0  0  0  0  0
  -13.8090   15.6920   43.4140 C   0  0  0  0  0  0  0  0  0  0  0  0
  -14.5360   13.2100   37.9750 C   0  0  0  0  0  0  0  0  0  0  0  0
  -14.5580   12.3140   36.8780 C   0  0  0  0  0  0  0  0  0  0  0  0
  -13.3690   11.6650   36.4790 C   0  0  0  0  0  0  0  0  0  0  0  0
  -12.1630   11.9040   37.1590 C   0  0  0  0  0  0  0  0  0  0  0  0
  -12.1350   12.7950   38.2530 C   0  0  0  0  0  0  0  0  0  0  0  0
  -13.3220   13.4750   38.6950 C   0  0  0  0  0  0  0  0  0  0  0  0
  -13.3820   10.8070   35.4380 F   0  0  0  0  0  0  0  0  0  0  0  0
  -16.5490   14.3810   41.7750 C   0  0  0  0  0  0  0  0  0  0  0  0
  -15.3520   13.6930   41.3060 C   0  0  0  0  0  0  0  0  0  0  0  0
  -15.4020   12.3420   41.0870 N   0  0  0  0  0  0  0  0  0  0  0  0
  -16.5450   11.6890   41.3090 C   0  0  0  0  0  0  0  0  0  0  0  0
  -17.6910   12.2340   41.7400 N   0  0  0  0  0  0  0  0  0  0  0  0
  -17.7110   13.5640   41.9770 C   0  0  0  0  0  0  0  0  0  0  0  0
  -16.5420   10.3960   41.0790 N   0  0  0  0  0  0  0  0  0  0  0  0
  -13.4740   15.2840   42.0050 N   0  0  0  0  0  0  0  0  0  0  0  0
  -12.3750   15.6630   41.2650 C   0  0  0  0  0  0  0  0  0  0  0  0
  -12.1510   15.2100   40.0160 N   0  0  0  0  0  0  0  0  0  0  0  0
  -13.2610   14.3660   39.8260 C   0  0  0  0  0  0  0  0  0  0  0  0
  -14.1090   14.4140   41.0570 C   0  0  0  0  0  0  0  0  0  0  0  0
  -11.9163   14.9236   44.1847 H   0  0  0  0  0  0  0  0  0  0  0  0
  -13.2709   13.7453   44.2432 H   0  0  0  0  0  0  0  0  0  0  0  0
  -12.5542   14.6127   46.5127 H   0  0  0  0  0  0  0  0  0  0  0  0
  -14.2862   14.8956   46.1298 H   0  0  0  0  0  0  0  0  0  0  0  0
  -12.0832   16.8454   46.1231 H   0  0  0  0  0  0  0  0  0  0  0  0
  -13.4275   16.8351   47.0731 H   0  0  0  0  0  0  0  0  0  0  0  0
  -13.3190   18.6162   45.3467 H   0  0  0  0  0  0  0  0  0  0  0  0
  -14.8248   17.6405   45.4315 H   0  0  0  0  0  0  0  0  0  0  0  0
  -12.5461   17.4626   43.3939 H   0  0  0  0  0  0  0  0  0  0  0  0
  -14.2874   17.7901   43.0986 H   0  0  0  0  0  0  0  0  0  0  0  0
  -14.8784   15.4922   43.5764 H   0  0  0  0  0  0  0  0  0  0  0  0
  -15.4522   13.7046   38.2765 H   0  0  0  0  0  0  0  0  0  0  0  0
  -15.4842   12.1272   36.3467 H   0  0  0  0  0  0  0  0  0  0  0  0
  -11.2544   11.4042   36.8434 H   0  0  0  0  0  0  0  0  0  0  0  0
  -11.1990   12.9703   38.7708 H   0  0  0  0  0  0  0  0  0  0  0  0
  -16.5603   15.4490   41.9605 H   0  0  0  0  0  0  0  0  0  0  0  0
  -18.6271   14.0249   42.3282 H   0  0  0  0  0  0  0  0  0  0  0  0
  -17.3973    9.8434   41.2338 H   0  0  0  0  0  0  0  0  0  0  0  0
  -15.6843    9.9345   40.7438 H   0  0  0  0  0  0  0  0  0  0  0  0
  -11.6599   16.3554   41.7068 H   0  0  0  0  0  0  0  0  0  0  0  0
  1  6  1  0  0  0  0
  1  2  1  0  0  0  0
  1 26  1  0  0  0  0
  1 27  1  0  0  0  0
  2  3  1  0  0  0  0
  2 28  1  0  0  0  0
  2 29  1  0  0  0  0
  3  4  1  0  0  0  0
  3 30  1  0  0  0  0
  3 31  1  0  0  0  0
  4  5  1  0  0  0  0
  4 32  1  0  0  0  0
  4 33  1  0  0  0  0
  5  6  1  0  0  0  0
  5 34  1  0  0  0  0
  5 35  1  0  0  0  0
  6 21  1  0  0  0  0
  6 36  1  0  0  0  0
  7  8  1  0  0  0  0
  7 37  1  0  0  0  0
  8  9  2  0  0  0  0
  8 38  1  0  0  0  0
  9 13  1  0  0  0  0
  9 10  1  0  0  0  0
 10 11  2  0  0  0  0
 10 39  1  0  0  0  0
 11 40  1  0  0  0  0
 12 11  1  0  0  0  0
 12  7  2  0  0  0  0
 14 19  1  0  0  0  0
 14 41  1  0  0  0  0
 15 16  1  0  0  0  0
 15 14  2  0  0  0  0
 17 20  1  0  0  0  0
 17 16  2  0  0  0  0
 18 17  1  0  0  0  0
 19 18  2  0  0  0  0
 19 42  1  0  0  0  0
 20 43  1  0  0  0  0
 20 44  1  0  0  0  0
 21 25  1  0  0  0  0
 21 22  1  0  0  0  0
 22 23  2  0  0  0  0
 22 45  1  0  0  0  0
 23 24  1  0  0  0  0
 24 25  2  0  0  0  0
 24 12  1  0  0  0  0
 25 15  1  0  0  0  0
M  CHG  1   3   1
M  END
