3ert_ligand
 OpenBabel08222323343D

 59 61  0  0  0  0  0  0  0  0999 V2000
   30.5740    1.4650   29.5500 C   0  0  0  0  0  0  0  0  0  0  0  0
   30.7020   -0.0230   29.3720 C   0  0  0  0  0  0  0  0  0  0  0  0
   31.3630   -0.3880   28.0590 C   0  0  0  0  0  0  0  0  0  0  0  0
   32.7880    0.0530   27.9620 C   0  0  0  0  0  0  0  0  0  0  0  0
   33.2410    0.7820   26.8420 C   0  0  0  0  0  0  0  0  0  0  0  0
   34.5590    1.2350   26.7760 C   0  0  0  0  0  0  0  0  0  0  0  0
   35.4510    0.9800   27.7990 C   0  0  0  0  0  0  0  0  0  0  0  0
   35.0270    0.2700   28.8970 C   0  0  0  0  0  0  0  0  0  0  0  0
   33.7070   -0.1880   28.9760 C   0  0  0  0  0  0  0  0  0  0  0  0
   30.7080   -1.0570   27.0650 C   0  0  0  0  0  0  0  0  0  0  0  0
   29.2100   -1.2330   27.0160 C   0  0  0  0  0  0  0  0  0  0  0  0
   28.6090   -2.4900   26.6950 C   0  0  0  0  0  0  0  0  0  0  0  0
   27.2150   -2.6130   26.6050 C   0  0  0  0  0  0  0  0  0  0  0  0
   26.4090   -1.4820   26.8350 C   0  0  0  0  0  0  0  0  0  0  0  0
   25.0580   -1.6220   26.7220 O   0  0  0  0  0  0  0  0  0  0  0  0
   26.9920   -0.2350   27.1560 C   0  0  0  0  0  0  0  0  0  0  0  0
   28.3750   -0.1340   27.2390 C   0  0  0  0  0  0  0  0  0  0  0  0
   31.4110   -1.6900   25.9450 C   0  0  0  0  0  0  0  0  0  0  0  0
   32.5290   -2.4960   26.1460 C   0  0  0  0  0  0  0  0  0  0  0  0
   33.1820   -3.1140   25.1170 C   0  0  0  0  0  0  0  0  0  0  0  0
   32.7250   -2.9440   23.8200 C   0  0  0  0  0  0  0  0  0  0  0  0
   33.2960   -3.5540   22.7400 O   0  0  0  0  0  0  0  0  0  0  0  0
   32.9000   -3.1830   21.4230 C   0  0  0  0  0  0  0  0  0  0  0  0
   34.0590   -3.5080   20.5200 C   0  0  0  0  0  0  0  0  0  0  0  0
   34.1090   -4.8870   20.1180 N   0  3  0  0  0  0  0  0  0  0  0  0
   33.3900   -5.1110   18.8630 C   0  0  0  0  0  0  0  0  0  0  0  0
   35.5060   -5.2910   19.9220 C   0  0  0  0  0  0  0  0  0  0  0  0
   31.6010   -2.1350   23.5790 C   0  0  0  0  0  0  0  0  0  0  0  0
   30.9660   -1.5280   24.6260 C   0  0  0  0  0  0  0  0  0  0  0  0
   30.0899    1.6786   30.5144 H   0  0  0  0  0  0  0  0  0  0  0  0
   29.9648    1.8809   28.7340 H   0  0  0  0  0  0  0  0  0  0  0  0
   31.5736    1.9238   29.5319 H   0  0  0  0  0  0  0  0  0  0  0  0
   29.6976   -0.4706   29.3992 H   0  0  0  0  0  0  0  0  0  0  0  0
   31.3063   -0.4277   30.1972 H   0  0  0  0  0  0  0  0  0  0  0  0
   32.5592    0.9919   26.0259 H   0  0  0  0  0  0  0  0  0  0  0  0
   34.8879    1.7957   25.9085 H   0  0  0  0  0  0  0  0  0  0  0  0
   36.4732    1.3355   27.7368 H   0  0  0  0  0  0  0  0  0  0  0  0
   35.7186    0.0638   29.7058 H   0  0  0  0  0  0  0  0  0  0  0  0
   33.3932   -0.7454   29.8512 H   0  0  0  0  0  0  0  0  0  0  0  0
   29.2368   -3.3561   26.5196 H   0  0  0  0  0  0  0  0  0  0  0  0
   26.7634   -3.5678   26.3612 H   0  0  0  0  0  0  0  0  0  0  0  0
   24.8425   -1.9029   25.8404 H   0  0  0  0  0  0  0  0  0  0  0  0
   26.3672    0.6325   27.3353 H   0  0  0  0  0  0  0  0  0  0  0  0
   28.8194    0.8240   27.4836 H   0  0  0  0  0  0  0  0  0  0  0  0
   32.8947   -2.6383   27.1565 H   0  0  0  0  0  0  0  0  0  0  0  0
   34.0504   -3.7322   25.3138 H   0  0  0  0  0  0  0  0  0  0  0  0
   32.6771   -2.1066   21.3824 H   0  0  0  0  0  0  0  0  0  0  0  0
   32.0100   -3.7535   21.1190 H   0  0  0  0  0  0  0  0  0  0  0  0
   34.9915   -3.2672   21.0514 H   0  0  0  0  0  0  0  0  0  0  0  0
   33.9806   -2.8855   19.6165 H   0  0  0  0  0  0  0  0  0  0  0  0
   33.6932   -5.4520   20.8418 H   0  0  0  0  0  0  0  0  0  0  0  0
   33.4514   -6.1749   18.5902 H   0  0  0  0  0  0  0  0  0  0  0  0
   33.8430   -4.5017   18.0671 H   0  0  0  0  0  0  0  0  0  0  0  0
   32.3353   -4.8249   18.9885 H   0  0  0  0  0  0  0  0  0  0  0  0
   36.0680   -5.1315   20.8540 H   0  0  0  0  0  0  0  0  0  0  0  0
   35.9524   -4.6887   19.1171 H   0  0  0  0  0  0  0  0  0  0  0  0
   35.5449   -6.3556   19.6481 H   0  0  0  0  0  0  0  0  0  0  0  0
   31.2394   -1.9932   22.5670 H   0  0  0  0  0  0  0  0  0  0  0  0
   30.0987   -0.9074   24.4318 H   0  0  0  0  0  0  0  0  0  0  0  0
  1  2  1  0  0  0  0
  1 30  1  0  0  0  0
  1 31  1  0  0  0  0
  1 32  1  0  0  0  0
  2  3  1  0  0  0  0
  2 33  1  0  0  0  0
  2 34  1  0  0  0  0
  3  4  1  0  0  0  0
  3 10  2  0  0  0  0
  4  5  2  0  0  0  0
  4  9  1  0  0  0  0
  5  6  1  0  0  0  0
  5 35  1  0  0  0  0
  6  7  2  0  0  0  0
  6 36  1  0  0  0  0
  7  8  1  0  0  0  0
  7 37  1  0  0  0  0
  8  9  2  0  0  0  0
  8 38  1  0  0  0  0
  9 39  1  0  0  0  0
 10 11  1  0  0  0  0
 10 18  1  0  0  0  0
 11 12  2  0  0  0  0
 11 17  1  0  0  0  0
 12 13  1  0  0  0  0
 12 40  1  0  0  0  0
 13 14  2  0  0  0  0
 13 41  1  0  0  0  0
 14 15  1  0  0  0  0
 14 16  1  0  0  0  0
 15 42  1  0  0  0  0
 16 17  2  0  0  0  0
 16 43  1  0  0  0  0
 17 44  1  0  0  0  0
 18 19  2  0  0  0  0
 18 29  1  0  0  0  0
 19 20  1  0  0  0  0
 19 45  1  0  0  0  0
 20 21  2  0  0  0  0
 20 46  1  0  0  0  0
 21 22  1  0  0  0  0
 21 28  1  0  0  0  0
 22 23  1  0  0  0  0
 23 24  1  0  0  0  0
 23 47  1  0  0  0  0
 23 48  1  0  0  0  0
 24 25  1  0  0  0  0
 24 49  1  0  0  0  0
 24 50  1  0  0  0  0
 25 26  1  0  0  0  0
 25 27  1  0  0  0  0
 25 51  1  0  0  0  0
 26 52  1  0  0  0  0
 26 53  1  0  0  0  0
 26 54  1  0  0  0  0
 27 55  1  0  0  0  0
 27 56  1  0  0  0  0
 27 57  1  0  0  0  0
 28 29  2  0  0  0  0
 28 58  1  0  0  0  0
 29 59  1  0  0  0  0
M  CHG  1  25   1
M  END
