3esj_ligand
 OpenBabel08222323343D

 31 33  0  0  1  0  0  0  0  0999 V2000
    7.1860   31.9020   13.7680 O   0  0  0  0  0  0  0  0  0  0  0  0
    7.5130   30.7710   13.4550 C   0  0  0  0  0  0  0  0  0  0  0  0
    6.7530   29.7220   13.7820 N   0  0  0  0  0  0  0  0  0  0  0  0
    7.1180   28.4830   13.4370 C   0  0  0  0  0  0  0  0  0  0  0  0
    6.3460   27.4900   13.7790 N   0  0  0  0  0  0  0  0  0  0  0  0
    8.2780   28.2370   12.7210 C   0  0  0  0  0  0  0  0  0  0  0  0
    9.0790   29.3090   12.3530 C   0  0  0  0  0  0  0  0  0  0  0  0
    8.6740   30.5960   12.7440 N   0  0  0  0  0  0  0  0  0  0  0  0
    9.4330   31.7930   12.4090 C   0  0  2  0  0  0  0  0  0  0  0  0
    9.0060   32.0570   11.0650 O   0  0  0  0  0  0  0  0  0  0  0  0
   10.1340   32.5570   10.4090 C   0  0  2  0  0  0  0  0  0  0  0  0
   10.0490   32.3200    8.9070 C   0  0  0  0  0  0  0  0  0  0  0  0
   11.3270   32.5710    8.3130 O   0  0  0  0  0  0  0  0  0  0  0  0
   12.6700   31.9050    8.9540 P   0  0  1  0  0  0  0  0  0  0  0  0
   12.5170   30.3360    8.7810 O   0  0  0  0  0  1  0  0  0  0  0  0
   13.8910   32.5090    8.3770 O   0  0  0  0  0  0  0  0  0  0  0  0
   12.4840   32.0200   10.4900 O   0  0  0  0  0  0  0  0  0  0  0  0
   11.1870   31.5810   10.9030 C   0  0  1  0  0  0  0  0  0  0  0  0
   10.9430   31.6450   12.3850 C   0  0  1  0  0  0  0  0  0  0  0  0
   11.4810   32.8460   12.8880 O   0  0  0  0  0  0  0  0  0  0  0  0
    5.9033   29.8649   14.2895 H   0  0  0  0  0  0  0  0  0  0  0  0
    6.5989   26.5463   13.5308 H   0  0  0  0  0  0  0  0  0  0  0  0
    8.5568   27.2194   12.4513 H   0  0  0  0  0  0  0  0  0  0  0  0
    9.9922   29.1573   11.7795 H   0  0  0  0  0  0  0  0  0  0  0  0
    9.1643   32.6121   13.0923 H   0  0  0  0  0  0  0  0  0  0  0  0
   10.3415   33.6098   10.6508 H   0  0  0  0  0  0  0  0  0  0  0  0
    9.3016   32.9986    8.4701 H   0  0  0  0  0  0  0  0  0  0  0  0
    9.7539   31.2777    8.7160 H   0  0  0  0  0  0  0  0  0  0  0  0
   11.0144   30.5637   10.5220 H   0  0  0  0  0  0  0  0  0  0  0  0
   11.3139   30.7638   12.9289 H   0  0  0  0  0  0  0  0  0  0  0  0
   12.4149   32.8700   12.7156 H   0  0  0  0  0  0  0  0  0  0  0  0
  1  2  2  0  0  0  0
  2  3  1  0  0  0  0
  2  8  1  0  0  0  0
  3  4  1  0  0  0  0
  3 21  1  0  0  0  0
  4  5  2  0  0  0  0
  4  6  1  0  0  0  0
  5 22  1  0  0  0  0
  6  7  2  0  0  0  0
  6 23  1  0  0  0  0
  7  8  1  0  0  0  0
  7 24  1  0  0  0  0
  8  9  1  0  0  0  0
  9 10  1  0  0  0  0
  9 19  1  0  0  0  0
  9 25  1  1  0  0  0
 10 11  1  0  0  0  0
 11 12  1  0  0  0  0
 11 18  1  0  0  0  0
 11 26  1  1  0  0  0
 12 13  1  0  0  0  0
 12 27  1  0  0  0  0
 12 28  1  0  0  0  0
 13 14  1  0  0  0  0
 14 15  1  6  0  0  0
 14 16  2  0  0  0  0
 14 17  1  0  0  0  0
 17 18  1  0  0  0  0
 18 19  1  0  0  0  0
 18 29  1  6  0  0  0
 19 20  1  0  0  0  0
 19 30  1  1  0  0  0
 20 31  1  0  0  0  0
M  END
