3et7_ligand
 OpenBabel08222323343D

 60 64  0  0  0  0  0  0  0  0999 V2000
   21.5830   66.1030   21.8780 O   0  0  0  0  0  0  0  0  0  0  0  0
   21.3840   65.2620   20.7320 S   0  0  0  0  0  0  0  0  0  0  0  0
   20.8370   65.5760   19.4620 O   0  0  0  0  0  0  0  0  0  0  0  0
   20.5480   63.8960   21.3040 N   0  0  0  0  0  0  0  0  0  0  0  0
   20.5270   63.3990   22.7220 C   0  0  0  0  0  0  0  0  0  0  0  0
   19.2590   62.4560   22.8440 C   0  0  0  0  0  0  0  0  0  0  0  0
   19.0590   61.9040   21.4120 C   0  0  0  0  0  0  0  0  0  0  0  0
   19.5810   63.0670   20.5130 C   0  0  0  0  0  0  0  0  0  0  0  0
   23.0160   64.6640   20.4240 C   0  0  0  0  0  0  0  0  0  0  0  0
   23.2960   63.2900   20.7100 C   0  0  0  0  0  0  0  0  0  0  0  0
   24.5630   62.8190   20.5020 C   0  0  0  0  0  0  0  0  0  0  0  0
   25.4990   63.7790   20.0650 C   0  0  0  0  0  0  0  0  0  0  0  0
   25.2630   65.1280   19.7900 C   0  0  0  0  0  0  0  0  0  0  0  0
   23.9640   65.6060   19.9680 C   0  0  0  0  0  0  0  0  0  0  0  0
   23.5770   67.0580   19.7320 C   0  0  0  0  0  0  0  0  0  0  0  0
   24.8870   67.7350   19.4920 N   0  0  0  0  0  0  0  0  0  0  0  0
   25.3060   68.1770   18.2340 C   0  0  0  0  0  0  0  0  0  0  0  0
   24.6050   67.8560   17.1570 N   0  0  0  0  0  0  0  0  0  0  0  0
   25.0440   68.3070   15.9780 C   0  0  0  0  0  0  0  0  0  0  0  0
   26.0750   69.1450   15.7700 N   0  0  0  0  0  0  0  0  0  0  0  0
   26.8320   69.4800   16.8270 C   0  0  0  0  0  0  0  0  0  0  0  0
   26.4300   68.9500   18.0450 C   0  0  0  0  0  0  0  0  0  0  0  0
   27.2140   69.2640   19.2410 C   0  0  0  0  0  0  0  0  0  0  0  0
   26.3410   69.8890   20.1270 F   0  0  0  0  0  0  0  0  0  0  0  0
   27.6710   68.1240   19.9250 F   0  0  0  0  0  0  0  0  0  0  0  0
   28.3560   69.8960   18.7630 F   0  0  0  0  0  0  0  0  0  0  0  0
   24.2300   67.9690   14.9630 N   0  0  0  0  0  0  0  0  0  0  0  0
   23.1360   67.0770   15.2160 C   0  0  0  0  0  0  0  0  0  0  0  0
   23.0750   66.3970   16.3790 C   0  0  0  0  0  0  0  0  0  0  0  0
   22.0130   65.5240   16.5170 C   0  0  0  0  0  0  0  0  0  0  0  0
   20.9940   65.2960   15.6410 C   0  0  0  0  0  0  0  0  0  0  0  0
   19.8580   64.4620   15.7070 N   0  0  0  0  0  0  0  0  0  0  0  0
   21.0750   65.9850   14.4420 C   0  0  0  0  0  0  0  0  0  0  0  0
   22.1170   66.8650   14.2450 C   0  0  0  0  0  0  0  0  0  0  0  0
   19.8840   65.5810   13.5620 C   0  0  0  0  0  0  0  0  0  0  0  0
   19.1630   64.5920   14.4910 C   0  0  0  0  0  0  0  0  0  0  0  0
   18.1410   64.0210   14.1200 O   0  0  0  0  0  0  0  0  0  0  0  0
   20.4416   64.2443   23.4207 H   0  0  0  0  0  0  0  0  0  0  0  0
   21.4447   62.8335   22.9410 H   0  0  0  0  0  0  0  0  0  0  0  0
   18.3771   63.0277   23.1686 H   0  0  0  0  0  0  0  0  0  0  0  0
   19.4478   61.6380   23.5548 H   0  0  0  0  0  0  0  0  0  0  0  0
   17.9974   61.6961   21.2129 H   0  0  0  0  0  0  0  0  0  0  0  0
   19.6477   60.9881   21.2553 H   0  0  0  0  0  0  0  0  0  0  0  0
   20.0874   62.6517   19.6292 H   0  0  0  0  0  0  0  0  0  0  0  0
   18.7356   63.6927   20.1909 H   0  0  0  0  0  0  0  0  0  0  0  0
   22.5181   62.6346   21.0846 H   0  0  0  0  0  0  0  0  0  0  0  0
   24.8291   61.7804   20.6619 H   0  0  0  0  0  0  0  0  0  0  0  0
   26.5162   63.4308   19.9269 H   0  0  0  0  0  0  0  0  0  0  0  0
   26.0599   65.7799   19.4507 H   0  0  0  0  0  0  0  0  0  0  0  0
   23.0732   67.4788   20.6146 H   0  0  0  0  0  0  0  0  0  0  0  0
   22.9197   67.1519   18.8550 H   0  0  0  0  0  0  0  0  0  0  0  0
   25.5141   67.8838   20.2955 H   0  0  0  0  0  0  0  0  0  0  0  0
   27.7003   70.1224   16.7351 H   0  0  0  0  0  0  0  0  0  0  0  0
   24.3897   68.3451   14.0175 H   0  0  0  0  0  0  0  0  0  0  0  0
   23.8156   66.5277   17.1597 H   0  0  0  0  0  0  0  0  0  0  0  0
   21.9870   64.9492   17.4357 H   0  0  0  0  0  0  0  0  0  0  0  0
   19.5945   63.8831   16.4787 H   0  0  0  0  0  0  0  0  0  0  0  0
   22.1625   67.4177   13.3136 H   0  0  0  0  0  0  0  0  0  0  0  0
   20.2141   65.0956   12.6317 H   0  0  0  0  0  0  0  0  0  0  0  0
   19.2484   66.4453   13.3191 H   0  0  0  0  0  0  0  0  0  0  0  0
  1  2  2  0  0  0  0
  2  3  2  0  0  0  0
  2  4  1  0  0  0  0
  2  9  1  0  0  0  0
  4  5  1  0  0  0  0
  4  8  1  0  0  0  0
  5  6  1  0  0  0  0
  5 38  1  0  0  0  0
  5 39  1  0  0  0  0
  6  7  1  0  0  0  0
  6 40  1  0  0  0  0
  6 41  1  0  0  0  0
  7  8  1  0  0  0  0
  7 42  1  0  0  0  0
  7 43  1  0  0  0  0
  8 44  1  0  0  0  0
  8 45  1  0  0  0  0
  9 10  2  0  0  0  0
  9 14  1  0  0  0  0
 10 11  1  0  0  0  0
 10 46  1  0  0  0  0
 11 12  2  0  0  0  0
 11 47  1  0  0  0  0
 12 13  1  0  0  0  0
 12 48  1  0  0  0  0
 13 14  2  0  0  0  0
 13 49  1  0  0  0  0
 14 15  1  0  0  0  0
 15 16  1  0  0  0  0
 15 50  1  0  0  0  0
 15 51  1  0  0  0  0
 16 17  1  0  0  0  0
 16 52  1  0  0  0  0
 17 18  2  0  0  0  0
 17 22  1  0  0  0  0
 18 19  1  0  0  0  0
 19 20  2  0  0  0  0
 19 27  1  0  0  0  0
 20 21  1  0  0  0  0
 21 22  2  0  0  0  0
 21 53  1  0  0  0  0
 22 23  1  0  0  0  0
 23 24  1  0  0  0  0
 23 25  1  0  0  0  0
 23 26  1  0  0  0  0
 27 28  1  0  0  0  0
 27 54  1  0  0  0  0
 28 29  2  0  0  0  0
 28 34  1  0  0  0  0
 29 30  1  0  0  0  0
 29 55  1  0  0  0  0
 30 31  2  0  0  0  0
 30 56  1  0  0  0  0
 31 32  1  0  0  0  0
 31 33  1  0  0  0  0
 32 36  1  0  0  0  0
 32 57  1  0  0  0  0
 33 34  2  0  0  0  0
 33 35  1  0  0  0  0
 34 58  1  0  0  0  0
 35 36  1  0  0  0  0
 35 59  1  0  0  0  0
 35 60  1  0  0  0  0
 36 37  2  0  0  0  0
M  END
