3eta_ligand
 OpenBabel08222323343D

 68 73  0  0  0  0  0  0  0  0999 V2000
   46.2360   21.9090    0.1360 N   0  3  0  0  0  0  0  0  0  0  0  0
   47.2360   22.8500    0.6670 C   0  0  0  0  0  0  0  0  0  0  0  0
   48.1430   22.1140    1.5810 C   0  0  0  0  0  0  0  0  0  0  0  0
   47.7500   21.8290    2.8710 C   0  0  0  0  0  0  0  0  0  0  0  0
   48.6120   21.1490    3.7060 C   0  0  0  0  0  0  0  0  0  0  0  0
   49.8590   20.7520    3.2650 C   0  0  0  0  0  0  0  0  0  0  0  0
   50.2320   21.0370    1.9670 C   0  0  0  0  0  0  0  0  0  0  0  0
   49.3810   21.7150    1.1260 C   0  0  0  0  0  0  0  0  0  0  0  0
   50.7740   20.0450    4.1230 C   0  0  0  0  0  0  0  0  0  0  0  0
   52.1310   20.1630    3.9150 C   0  0  0  0  0  0  0  0  0  0  0  0
   53.0960   19.5590    4.6090 N   0  0  0  0  0  0  0  0  0  0  0  0
   52.5920   18.7810    5.5670 C   0  0  0  0  0  0  0  0  0  0  0  0
   53.3510   18.0440    6.4250 N   0  0  0  0  0  0  0  0  0  0  0  0
   52.5480   17.3600    7.2870 C   0  0  0  0  0  0  0  0  0  0  0  0
   51.2410   17.6650    6.9820 C   0  0  0  0  0  0  0  0  0  0  0  0
   50.1400   17.0960    7.7170 C   0  0  0  0  0  0  0  0  0  0  0  0
   48.9600   17.7920    7.8470 C   0  0  0  0  0  0  0  0  0  0  0  0
   47.9150   17.2340    8.5470 C   0  0  0  0  0  0  0  0  0  0  0  0
   48.0410   15.9840    9.1120 C   0  0  0  0  0  0  0  0  0  0  0  0
   49.2170   15.2800    8.9870 C   0  0  0  0  0  0  0  0  0  0  0  0
   49.3130   14.0090    9.5860 N   0  0  0  0  0  0  0  0  0  0  0  0
   49.9640   12.9370    9.0090 C   0  0  0  0  0  0  0  0  0  0  0  0
   50.3750   12.9180    7.8550 O   0  0  0  0  0  0  0  0  0  0  0  0
   50.1000   11.8910    9.9040 N   0  0  0  0  0  0  0  0  0  0  0  0
   50.4060   10.5710    9.5270 C   0  0  0  0  0  0  0  0  0  0  0  0
   51.4680   10.2900    8.6950 C   0  0  0  0  0  0  0  0  0  0  0  0
   51.7470    8.9810    8.3540 C   0  0  0  0  0  0  0  0  0  0  0  0
   50.9690    7.9490    8.8360 C   0  0  0  0  0  0  0  0  0  0  0  0
   49.9070    8.2230    9.6690 C   0  0  0  0  0  0  0  0  0  0  0  0
   49.6410    9.5330   10.0140 C   0  0  0  0  0  0  0  0  0  0  0  0
   48.5840    9.8530   10.8430 O   0  0  0  0  0  0  0  0  0  0  0  0
   48.4760    9.1490   12.0280 C   0  0  0  0  0  0  0  0  0  0  0  0
   49.5880    8.7210   12.7210 C   0  0  0  0  0  0  0  0  0  0  0  0
   49.4130    8.0290   13.9030 C   0  0  0  0  0  0  0  0  0  0  0  0
   48.1430    7.7750   14.3800 C   0  0  0  0  0  0  0  0  0  0  0  0
   47.0380    8.2080   13.6790 C   0  0  0  0  0  0  0  0  0  0  0  0
   47.2050    8.9000   12.4990 C   0  0  0  0  0  0  0  0  0  0  0  0
   50.2680   15.8450    8.2890 C   0  0  0  0  0  0  0  0  0  0  0  0
   51.2650   18.5700    5.8850 C   0  0  0  0  0  0  0  0  0  0  0  0
   50.3070   19.2300    5.1340 C   0  0  0  0  0  0  0  0  0  0  0  0
   45.6126   22.3976   -0.4875 H   0  0  0  0  0  0  0  0  0  0  0  0
   45.7076   21.5146    0.8984 H   0  0  0  0  0  0  0  0  0  0  0  0
   46.7031   21.1705   -0.3666 H   0  0  0  0  0  0  0  0  0  0  0  0
   46.7297   23.6563    1.2180 H   0  0  0  0  0  0  0  0  0  0  0  0
   47.8161   23.2808   -0.1624 H   0  0  0  0  0  0  0  0  0  0  0  0
   46.7729   22.1363    3.2259 H   0  0  0  0  0  0  0  0  0  0  0  0
   48.3067   20.9234    4.7213 H   0  0  0  0  0  0  0  0  0  0  0  0
   51.2052   20.7233    1.6070 H   0  0  0  0  0  0  0  0  0  0  0  0
   49.6831   21.9349    0.1084 H   0  0  0  0  0  0  0  0  0  0  0  0
   52.4456   20.8121    3.1058 H   0  0  0  0  0  0  0  0  0  0  0  0
   54.3804   18.0090    6.4224 H   0  0  0  0  0  0  0  0  0  0  0  0
   52.8815   16.6899    8.0780 H   0  0  0  0  0  0  0  0  0  0  0  0
   48.8543   18.7741    7.4005 H   0  0  0  0  0  0  0  0  0  0  0  0
   46.9859   17.7820    8.6546 H   0  0  0  0  0  0  0  0  0  0  0  0
   47.2097   15.5526    9.6578 H   0  0  0  0  0  0  0  0  0  0  0  0
   48.8853   13.8754   10.4800 H   0  0  0  0  0  0  0  0  0  0  0  0
   49.9732   12.0849   10.8768 H   0  0  0  0  0  0  0  0  0  0  0  0
   52.0832   11.0947    8.3089 H   0  0  0  0  0  0  0  0  0  0  0  0
   52.5849    8.7627    7.7018 H   0  0  0  0  0  0  0  0  0  0  0  0
   51.1929    6.9249    8.5599 H   0  0  0  0  0  0  0  0  0  0  0  0
   49.2871    7.4192   10.0494 H   0  0  0  0  0  0  0  0  0  0  0  0
   50.5838    8.9244   12.3441 H   0  0  0  0  0  0  0  0  0  0  0  0
   50.2771    7.6836   14.4589 H   0  0  0  0  0  0  0  0  0  0  0  0
   48.0140    7.2328   15.3097 H   0  0  0  0  0  0  0  0  0  0  0  0
   46.0415    8.0050   14.0544 H   0  0  0  0  0  0  0  0  0  0  0  0
   46.3408    9.2468   11.9440 H   0  0  0  0  0  0  0  0  0  0  0  0
   51.2007   15.3017    8.1896 H   0  0  0  0  0  0  0  0  0  0  0  0
   49.2473   19.1128    5.3297 H   0  0  0  0  0  0  0  0  0  0  0  0
  1  2  1  0  0  0  0
  1 41  1  0  0  0  0
  1 42  1  0  0  0  0
  1 43  1  0  0  0  0
  2  3  1  0  0  0  0
  2 44  1  0  0  0  0
  2 45  1  0  0  0  0
  3  4  2  0  0  0  0
  3  8  1  0  0  0  0
  4  5  1  0  0  0  0
  4 46  1  0  0  0  0
  5  6  2  0  0  0  0
  5 47  1  0  0  0  0
  6  7  1  0  0  0  0
  6  9  1  0  0  0  0
  7  8  2  0  0  0  0
  7 48  1  0  0  0  0
  8 49  1  0  0  0  0
  9 10  2  0  0  0  0
  9 40  1  0  0  0  0
 10 11  1  0  0  0  0
 10 50  1  0  0  0  0
 11 12  2  0  0  0  0
 12 13  1  0  0  0  0
 12 39  1  0  0  0  0
 13 14  1  0  0  0  0
 13 51  1  0  0  0  0
 14 15  2  0  0  0  0
 14 52  1  0  0  0  0
 15 16  1  0  0  0  0
 15 39  1  0  0  0  0
 16 17  2  0  0  0  0
 16 38  1  0  0  0  0
 17 18  1  0  0  0  0
 17 53  1  0  0  0  0
 18 19  2  0  0  0  0
 18 54  1  0  0  0  0
 19 20  1  0  0  0  0
 19 55  1  0  0  0  0
 20 21  1  0  0  0  0
 20 38  2  0  0  0  0
 21 22  1  0  0  0  0
 21 56  1  0  0  0  0
 22 23  2  0  0  0  0
 22 24  1  0  0  0  0
 24 25  1  0  0  0  0
 24 57  1  0  0  0  0
 25 26  2  0  0  0  0
 25 30  1  0  0  0  0
 26 27  1  0  0  0  0
 26 58  1  0  0  0  0
 27 28  2  0  0  0  0
 27 59  1  0  0  0  0
 28 29  1  0  0  0  0
 28 60  1  0  0  0  0
 29 30  2  0  0  0  0
 29 61  1  0  0  0  0
 30 31  1  0  0  0  0
 31 32  1  0  0  0  0
 32 33  2  0  0  0  0
 32 37  1  0  0  0  0
 33 34  1  0  0  0  0
 33 62  1  0  0  0  0
 34 35  2  0  0  0  0
 34 63  1  0  0  0  0
 35 36  1  0  0  0  0
 35 64  1  0  0  0  0
 36 37  2  0  0  0  0
 36 65  1  0  0  0  0
 37 66  1  0  0  0  0
 38 67  1  0  0  0  0
 39 40  2  0  0  0  0
 40 68  1  0  0  0  0
M  CHG  1   1   1
M  END
