3eu7_ligand
 OpenBabel08222323343D

211214  0  0  1  0  0  0  0  0999 V2000
   -6.2680  -23.9430   -3.7810 N   0  3  0  0  0  0  0  0  0  0  0  0
   -6.5920  -22.7070   -4.4960 C   0  0  2  0  0  0  0  0  0  0  0  0
   -6.9700  -21.5460   -3.5600 C   0  0  0  0  0  0  0  0  0  0  0  0
   -7.5670  -20.5630   -3.9980 O   0  0  0  0  0  0  0  0  0  0  0  0
   -7.7220  -22.9640   -5.4950 C   0  0  0  0  0  0  0  0  0  0  0  0
   -6.6070  -21.6740   -2.2810 N   0  0  0  0  0  0  0  0  0  0  0  0
   -6.9590  -20.7270   -1.2220 C   0  0  0  0  0  0  0  0  0  0  0  0
   -7.5740  -19.3910   -1.6210 C   0  0  0  0  0  0  0  0  0  0  0  0
   -6.8630  -18.4330   -1.9130 O   0  0  0  0  0  0  0  0  0  0  0  0
   -8.9120  -19.3030   -1.5950 N   0  0  0  0  0  0  0  0  0  0  0  0
   -9.6050  -18.0660   -1.9840 C   0  0  2  0  0  0  0  0  0  0  0  0
   -9.2230  -16.8930   -1.0720 C   0  0  0  0  0  0  0  0  0  0  0  0
   -9.0670  -17.0900    0.1420 O   0  0  0  0  0  0  0  0  0  0  0  0
  -11.0910  -18.4040   -1.7720 C   0  0  0  0  0  0  0  0  0  0  0  0
  -11.1470  -19.8750   -1.4640 C   0  0  0  0  0  0  0  0  0  0  0  0
   -9.8140  -20.2660   -0.9430 C   0  0  0  0  0  0  0  0  0  0  0  0
   -9.0610  -15.7030   -1.6500 N   0  0  0  0  0  0  0  0  0  0  0  0
   -8.8730  -14.4950   -0.8750 C   0  0  2  0  0  0  0  0  0  0  0  0
  -10.1470  -13.6660   -0.9010 C   0  0  0  0  0  0  0  0  0  0  0  0
  -10.7440  -13.4580   -1.9560 O   0  0  0  0  0  0  0  0  0  0  0  0
   -7.7230  -13.6050   -1.4180 C   0  0  2  0  0  0  0  0  0  0  0  0
   -6.3520  -14.2550   -1.2010 C   0  0  0  0  0  0  0  0  0  0  0  0
   -7.7330  -12.2740   -0.7170 C   0  0  0  0  0  0  0  0  0  0  0  0
   -5.2180  -13.5250   -1.9370 C   0  0  0  0  0  0  0  0  0  0  0  0
  -10.5610  -13.1740    0.2580 N   0  0  0  0  0  0  0  0  0  0  0  0
  -11.7350  -12.3300    0.3090 C   0  0  2  0  0  0  0  0  0  0  0  0
  -11.3630  -10.9780    0.8810 C   0  0  0  0  0  0  0  0  0  0  0  0
  -10.9680  -10.8920    2.0500 O   0  0  0  0  0  0  0  0  0  0  0  0
  -12.8540  -12.9790    1.1330 C   0  0  0  0  0  0  0  0  0  0  0  0
  -14.0370  -12.2100    1.0060 O   0  0  0  0  0  0  0  0  0  0  0  0
  -11.5040   -9.9320    0.0570 N   0  0  0  0  0  0  0  0  0  0  0  0
  -11.1160   -8.5710    0.4430 C   0  0  2  0  0  0  0  0  0  0  0  0
  -12.1090   -7.9850    1.4600 C   0  0  0  0  0  0  0  0  0  0  0  0
  -11.9150   -6.8810    2.0020 O   0  0  0  0  0  0  0  0  0  0  0  0
  -11.0180   -7.6630   -0.7980 C   0  0  0  0  0  0  0  0  0  0  0  0
  -10.3950   -8.2310   -2.0820 C   0  0  0  0  0  0  0  0  0  0  0  0
  -10.7680   -7.3640   -3.2770 C   0  0  0  0  0  0  0  0  0  0  0  0
   -8.8890   -8.3550   -1.9510 C   0  0  0  0  0  0  0  0  0  0  0  0
  -13.1790   -8.7300    1.7100 N   0  0  0  0  0  0  0  0  0  0  0  0
  -14.2260   -8.2780    2.6160 C   0  0  2  0  0  0  0  0  0  0  0  0
  -14.4350   -9.2280    3.8080 C   0  0  0  0  0  0  0  0  0  0  0  0
  -15.5010   -9.2400    4.4260 O   0  0  0  0  0  0  0  0  0  0  0  0
  -15.5380   -8.1060    1.8300 C   0  0  0  0  0  0  0  0  0  0  0  0
  -16.4130   -7.0420    2.4210 C   0  0  0  0  0  0  0  0  0  0  0  0
  -15.9030   -6.0240    2.9000 O   0  0  0  0  0  0  0  0  0  0  0  0
  -17.7330   -7.2730    2.4320 N   0  0  0  0  0  0  0  0  0  0  0  0
  -13.4140  -10.0360    4.0960 N   0  0  0  0  0  0  0  0  0  0  0  0
  -13.4830  -11.0730    5.1240 C   0  0  2  0  0  0  0  0  0  0  0  0
  -13.9470  -10.5200    6.4660 C   0  0  0  0  0  0  0  0  0  0  0  0
  -14.5750  -11.2270    7.2580 O   0  0  0  0  0  0  0  0  0  0  0  0
  -12.1250  -11.7660    5.2950 C   0  0  0  0  0  0  0  0  0  0  0  0
  -11.0170  -10.8180    5.7070 C   0  0  0  0  0  0  0  0  0  0  0  0
  -10.1580  -10.1280    4.8790 C   0  0  0  0  0  0  0  0  0  0  0  0
  -10.6640  -10.4530    7.0440 C   0  0  0  0  0  0  0  0  0  0  0  0
   -9.2940   -9.3740    5.6260 N   0  0  0  0  0  0  0  0  0  0  0  0
   -9.5770   -9.5510    6.9570 C   0  0  0  0  0  0  0  0  0  0  0  0
  -11.1600  -10.8020    8.3110 C   0  0  0  0  0  0  0  0  0  0  0  0
   -8.9840   -8.9750    8.0960 C   0  0  0  0  0  0  0  0  0  0  0  0
  -10.5680  -10.2380    9.4480 C   0  0  0  0  0  0  0  0  0  0  0  0
   -9.4920   -9.3280    9.3290 C   0  0  0  0  0  0  0  0  0  0  0  0
  -13.6300   -9.2580    6.7200 N   0  0  0  0  0  0  0  0  0  0  0  0
  -13.8810   -8.7050    8.0310 C   0  0  2  0  0  0  0  0  0  0  0  0
  -15.3670   -8.4220    8.2800 C   0  0  0  0  0  0  0  0  0  0  0  0
  -15.9310   -8.9120    9.2580 O   0  0  0  0  0  0  0  0  0  0  0  0
  -13.0240   -7.4690    8.2830 C   0  0  0  0  0  0  0  0  0  0  0  0
  -13.2120   -6.8780    9.6510 C   0  0  0  0  0  0  0  0  0  0  0  0
  -12.4590   -7.3310   10.7280 C   0  0  0  0  0  0  0  0  0  0  0  0
  -14.1540   -5.8930    9.8700 C   0  0  0  0  0  0  0  0  0  0  0  0
  -12.6180   -6.7860   11.9960 C   0  0  0  0  0  0  0  0  0  0  0  0
  -14.3290   -5.3510   11.1400 C   0  0  0  0  0  0  0  0  0  0  0  0
  -13.5520   -5.7990   12.2040 C   0  0  0  0  0  0  0  0  0  0  0  0
  -15.9870   -7.6390    7.3950 N   0  0  0  0  0  0  0  0  0  0  0  0
  -17.4210   -7.3990    7.4660 C   0  0  2  0  0  0  0  0  0  0  0  0
  -18.1620   -8.7200    7.2620 C   0  0  0  0  0  0  0  0  0  0  0  0
  -19.1970   -8.9660    7.8900 O   0  0  0  0  0  0  0  0  0  0  0  0
  -17.8710   -6.3590    6.4380 C   0  0  0  0  0  0  0  0  0  0  0  0
  -19.3250   -5.9340    6.6360 C   0  0  0  0  0  0  0  0  0  0  0  0
  -20.0870   -5.7400    5.3120 C   0  0  0  0  0  0  0  0  0  0  0  0
  -19.4640   -5.2580    4.3270 O   0  5  0  0  0  0  0  0  0  0  0  0
  -21.3080   -6.0660    5.2620 O   0  0  0  0  0  0  0  0  0  0  0  0
  -17.5990   -9.5910    6.4270 N   0  0  0  0  0  0  0  0  0  0  0  0
  -18.1790  -10.9230    6.2190 C   0  0  2  0  0  0  0  0  0  0  0  0
  -18.3790  -11.6660    7.5410 C   0  0  0  0  0  0  0  0  0  0  0  0
  -19.5020  -12.0630    7.8720 O   0  0  0  0  0  0  0  0  0  0  0  0
  -17.3450  -11.7510    5.2270 C   0  0  0  0  0  0  0  0  0  0  0  0
  -17.6950  -11.5000    3.7480 C   0  0  0  0  0  0  0  0  0  0  0  0
  -16.6100  -11.9610    2.7580 C   0  0  0  0  0  0  0  0  0  0  0  0
  -15.9420  -13.0040    2.9940 O   0  5  0  0  0  0  0  0  0  0  0  0
  -16.4390  -11.2690    1.7290 O   0  0  0  0  0  0  0  0  0  0  0  0
  -17.3060  -11.8480    8.3040 N   0  0  0  0  0  0  0  0  0  0  0  0
  -17.4000  -12.5260    9.5870 C   0  0  2  0  0  0  0  0  0  0  0  0
  -18.2150  -11.6680   10.5720 C   0  0  0  0  0  0  0  0  0  0  0  0
  -18.9040  -12.1690   11.4510 O   0  0  0  0  0  0  0  0  0  0  0  0
  -16.0080  -12.8080   10.1280 C   0  0  0  0  0  0  0  0  0  0  0  0
  -15.1700  -13.6380    9.1590 C   0  0  0  0  0  0  0  0  0  0  0  0
  -13.6900  -13.4260    9.3860 C   0  0  0  0  0  0  0  0  0  0  0  0
  -15.5310  -15.1120    9.2870 C   0  0  0  0  0  0  0  0  0  0  0  0
  -18.1390  -10.3590   10.4090 N   0  0  0  0  0  0  0  0  0  0  0  0
  -18.9360   -9.4590   11.2270 C   0  0  2  0  0  0  0  0  0  0  0  0
  -20.4410   -9.4910   10.8670 C   0  0  0  0  0  0  0  0  0  0  0  0
  -21.2120   -8.6360   11.3120 O   0  0  0  0  0  0  0  0  0  0  0  0
  -18.3860   -8.0330   11.1010 C   0  0  0  0  0  0  0  0  0  0  0  0
  -17.0650   -7.9730   11.5880 O   0  0  0  0  0  0  0  0  0  0  0  0
  -20.8660  -10.4640   10.0670 N   0  0  0  0  0  0  0  0  0  0  0  0
  -22.2220  -10.4090    9.5110 C   0  0  2  0  0  0  0  0  0  0  0  0
  -23.0270  -11.6780    9.7860 C   0  0  0  0  0  0  0  0  0  0  0  0
  -24.2110  -11.6070   10.1090 O   0  0  0  0  0  0  0  0  0  0  0  0
  -22.1820  -10.1050    8.0050 C   0  0  0  0  0  0  0  0  0  0  0  0
   -6.0298  -24.6628   -4.4452 H   0  0  0  0  0  0  0  0  0  0  0  0
   -7.0655  -24.2366   -3.2390 H   0  0  0  0  0  0  0  0  0  0  0  0
   -5.4856  -23.7806   -3.1666 H   0  0  0  0  0  0  0  0  0  0  0  0
   -5.6970  -22.4030   -5.0586 H   0  0  0  0  0  0  0  0  0  0  0  0
   -7.9595  -22.0314   -6.0278 H   0  0  0  0  0  0  0  0  0  0  0  0
   -8.6143  -23.3161   -4.9567 H   0  0  0  0  0  0  0  0  0  0  0  0
   -7.4046  -23.7291   -6.2188 H   0  0  0  0  0  0  0  0  0  0  0  0
   -6.0575  -22.4709   -2.0300 H   0  0  0  0  0  0  0  0  0  0  0  0
   -6.0377  -20.5070   -0.6627 H   0  0  0  0  0  0  0  0  0  0  0  0
   -7.6782  -21.2315   -0.5601 H   0  0  0  0  0  0  0  0  0  0  0  0
   -9.3948  -17.8093   -3.0327 H   0  0  0  0  0  0  0  0  0  0  0  0
  -11.6661  -18.1831   -2.6833 H   0  0  0  0  0  0  0  0  0  0  0  0
  -11.4981  -17.8227   -0.9316 H   0  0  0  0  0  0  0  0  0  0  0  0
  -11.3756  -20.4428   -2.3779 H   0  0  0  0  0  0  0  0  0  0  0  0
  -11.9201  -20.0722   -0.7067 H   0  0  0  0  0  0  0  0  0  0  0  0
   -9.7727  -20.1685    0.1519 H   0  0  0  0  0  0  0  0  0  0  0  0
   -9.5645  -21.2985   -1.2289 H   0  0  0  0  0  0  0  0  0  0  0  0
   -9.0696  -15.6430   -2.6482 H   0  0  0  0  0  0  0  0  0  0  0  0
   -8.6421  -14.7797    0.1621 H   0  0  0  0  0  0  0  0  0  0  0  0
   -7.8776  -13.4495   -2.4959 H   0  0  0  0  0  0  0  0  0  0  0  0
   -6.3946  -15.2925   -1.5641 H   0  0  0  0  0  0  0  0  0  0  0  0
   -6.1294  -14.2523   -0.1238 H   0  0  0  0  0  0  0  0  0  0  0  0
   -8.7106  -11.7909   -0.8614 H   0  0  0  0  0  0  0  0  0  0  0  0
   -6.9423  -11.6335   -1.1349 H   0  0  0  0  0  0  0  0  0  0  0  0
   -7.5535  -12.4243    0.3578 H   0  0  0  0  0  0  0  0  0  0  0  0
   -4.2646  -14.0379   -1.7421 H   0  0  0  0  0  0  0  0  0  0  0  0
   -5.1561  -12.4872   -1.5778 H   0  0  0  0  0  0  0  0  0  0  0  0
   -5.4213  -13.5273   -3.0180 H   0  0  0  0  0  0  0  0  0  0  0  0
  -10.0615  -13.3863    1.0979 H   0  0  0  0  0  0  0  0  0  0  0  0
  -12.1040  -12.1859   -0.7172 H   0  0  0  0  0  0  0  0  0  0  0  0
  -12.5546  -13.0202    2.1907 H   0  0  0  0  0  0  0  0  0  0  0  0
  -13.0376  -13.9988    0.7639 H   0  0  0  0  0  0  0  0  0  0  0  0
  -14.7306  -12.6114    1.5161 H   0  0  0  0  0  0  0  0  0  0  0  0
  -11.8875  -10.0840   -0.8540 H   0  0  0  0  0  0  0  0  0  0  0  0
  -10.1244   -8.6172    0.9168 H   0  0  0  0  0  0  0  0  0  0  0  0
  -10.4214   -6.7849   -0.5101 H   0  0  0  0  0  0  0  0  0  0  0  0
  -12.0410   -7.3453   -1.0480 H   0  0  0  0  0  0  0  0  0  0  0  0
  -10.8063   -9.2379   -2.2463 H   0  0  0  0  0  0  0  0  0  0  0  0
  -10.3157   -7.7818   -4.1885 H   0  0  0  0  0  0  0  0  0  0  0  0
  -10.3954   -6.3412   -3.1185 H   0  0  0  0  0  0  0  0  0  0  0  0
  -11.8622   -7.3427   -3.3873 H   0  0  0  0  0  0  0  0  0  0  0  0
   -8.6472   -8.9848   -1.0822 H   0  0  0  0  0  0  0  0  0  0  0  0
   -8.4494   -7.3561   -1.8135 H   0  0  0  0  0  0  0  0  0  0  0  0
   -8.4782   -8.8141   -2.8623 H   0  0  0  0  0  0  0  0  0  0  0  0
  -13.2682   -9.6217    1.2662 H   0  0  0  0  0  0  0  0  0  0  0  0
  -13.9287   -7.2976    3.0165 H   0  0  0  0  0  0  0  0  0  0  0  0
  -16.0848   -9.0604    1.8389 H   0  0  0  0  0  0  0  0  0  0  0  0
  -15.2968   -7.8312    0.7926 H   0  0  0  0  0  0  0  0  0  0  0  0
  -18.3566   -6.5921    2.8161 H   0  0  0  0  0  0  0  0  0  0  0  0
  -18.0944   -8.1263    2.0561 H   0  0  0  0  0  0  0  0  0  0  0  0
  -12.5614   -9.9275    3.5849 H   0  0  0  0  0  0  0  0  0  0  0  0
  -14.2148  -11.8250    4.7940 H   0  0  0  0  0  0  0  0  0  0  0  0
  -11.8478  -12.2323    4.3381 H   0  0  0  0  0  0  0  0  0  0  0  0
  -12.2243  -12.5436    6.0667 H   0  0  0  0  0  0  0  0  0  0  0  0
  -10.1656  -10.1757    3.7911 H   0  0  0  0  0  0  0  0  0  0  0  0
   -8.5498   -8.7698    5.2491 H   0  0  0  0  0  0  0  0  0  0  0  0
  -11.9870  -11.4962    8.4071 H   0  0  0  0  0  0  0  0  0  0  0  0
   -8.1577   -8.2789    8.0076 H   0  0  0  0  0  0  0  0  0  0  0  0
  -10.9392  -10.5023   10.4316 H   0  0  0  0  0  0  0  0  0  0  0  0
   -9.0576   -8.8992   10.2248 H   0  0  0  0  0  0  0  0  0  0  0  0
  -13.2185   -8.6907    6.0066 H   0  0  0  0  0  0  0  0  0  0  0  0
  -13.5746   -9.4664    8.7634 H   0  0  0  0  0  0  0  0  0  0  0  0
  -13.2853   -6.7058    7.5352 H   0  0  0  0  0  0  0  0  0  0  0  0
  -11.9666   -7.7490    8.1671 H   0  0  0  0  0  0  0  0  0  0  0  0
  -11.7351   -8.1234   10.5759 H   0  0  0  0  0  0  0  0  0  0  0  0
  -14.7626   -5.5386    9.0459 H   0  0  0  0  0  0  0  0  0  0  0  0
  -12.0071   -7.1382   12.8193 H   0  0  0  0  0  0  0  0  0  0  0  0
  -15.0721   -4.5783   11.3006 H   0  0  0  0  0  0  0  0  0  0  0  0
  -13.6826   -5.3719   13.1917 H   0  0  0  0  0  0  0  0  0  0  0  0
  -15.4546   -7.2075    6.6668 H   0  0  0  0  0  0  0  0  0  0  0  0
  -17.6598   -7.0141    8.4684 H   0  0  0  0  0  0  0  0  0  0  0  0
  -17.7627   -6.7881    5.4310 H   0  0  0  0  0  0  0  0  0  0  0  0
  -17.2281   -5.4711    6.5294 H   0  0  0  0  0  0  0  0  0  0  0  0
  -19.3390   -4.9836    7.1896 H   0  0  0  0  0  0  0  0  0  0  0  0
  -19.8385   -6.7087    7.2243 H   0  0  0  0  0  0  0  0  0  0  0  0
  -16.7680   -9.3335    5.9339 H   0  0  0  0  0  0  0  0  0  0  0  0
  -19.1735  -10.7801    5.7711 H   0  0  0  0  0  0  0  0  0  0  0  0
  -17.5078  -12.8169    5.4443 H   0  0  0  0  0  0  0  0  0  0  0  0
  -16.2837  -11.5040    5.3775 H   0  0  0  0  0  0  0  0  0  0  0  0
  -17.8531  -10.4204    3.6089 H   0  0  0  0  0  0  0  0  0  0  0  0
  -18.6252  -12.0397    3.5168 H   0  0  0  0  0  0  0  0  0  0  0  0
  -16.4178  -11.5125    7.9900 H   0  0  0  0  0  0  0  0  0  0  0  0
  -17.9203  -13.4846    9.4441 H   0  0  0  0  0  0  0  0  0  0  0  0
  -16.1011  -13.3576   11.0763 H   0  0  0  0  0  0  0  0  0  0  0  0
  -15.4971  -11.8506   10.3077 H   0  0  0  0  0  0  0  0  0  0  0  0
  -15.4070  -13.3124    8.1354 H   0  0  0  0  0  0  0  0  0  0  0  0
  -13.1183  -14.0376    8.6725 H   0  0  0  0  0  0  0  0  0  0  0  0
  -13.4304  -13.7222   10.4131 H   0  0  0  0  0  0  0  0  0  0  0  0
  -13.4446  -12.3641    9.2375 H   0  0  0  0  0  0  0  0  0  0  0  0
  -16.6103  -15.2411    9.1182 H   0  0  0  0  0  0  0  0  0  0  0  0
  -15.2727  -15.4665   10.2957 H   0  0  0  0  0  0  0  0  0  0  0  0
  -14.9709  -15.6930    8.5395 H   0  0  0  0  0  0  0  0  0  0  0  0
  -17.5258   -9.9826    9.7145 H   0  0  0  0  0  0  0  0  0  0  0  0
  -18.8363   -9.7777   12.2751 H   0  0  0  0  0  0  0  0  0  0  0  0
  -19.0188   -7.3473   11.6835 H   0  0  0  0  0  0  0  0  0  0  0  0
  -18.3966   -7.7322   10.0430 H   0  0  0  0  0  0  0  0  0  0  0  0
  -16.5161   -8.5631   11.0850 H   0  0  0  0  0  0  0  0  0  0  0  0
  -20.2633  -11.2305    9.8452 H   0  0  0  0  0  0  0  0  0  0  0  0
  -22.7444   -9.5771   10.0059 H   0  0  0  0  0  0  0  0  0  0  0  0
  -22.5487  -12.6521    9.6953 H   0  0  0  0  0  0  0  0  0  0  0  0
  -23.2083  -10.0687    7.6109 H   0  0  0  0  0  0  0  0  0  0  0  0
  -21.6178  -10.8942    7.4865 H   0  0  0  0  0  0  0  0  0  0  0  0
  -21.6913   -9.1345    7.8397 H   0  0  0  0  0  0  0  0  0  0  0  0
  1  2  1  0  0  0  0
  1109  1  0  0  0  0
  1110  1  0  0  0  0
  1111  1  0  0  0  0
  2  3  1  0  0  0  0
  2  5  1  0  0  0  0
  2112  1  6  0  0  0
  3  4  2  0  0  0  0
  3  6  1  0  0  0  0
  5113  1  0  0  0  0
  5114  1  0  0  0  0
  5115  1  0  0  0  0
  6  7  1  0  0  0  0
  6116  1  0  0  0  0
  7  8  1  0  0  0  0
  7117  1  0  0  0  0
  7118  1  0  0  0  0
  8  9  2  0  0  0  0
  8 10  1  0  0  0  0
 10 11  1  0  0  0  0
 10 16  1  0  0  0  0
 11 12  1  0  0  0  0
 11 14  1  0  0  0  0
 11119  1  6  0  0  0
 12 13  2  0  0  0  0
 12 17  1  0  0  0  0
 14 15  1  0  0  0  0
 14120  1  0  0  0  0
 14121  1  0  0  0  0
 15 16  1  0  0  0  0
 15122  1  0  0  0  0
 15123  1  0  0  0  0
 16124  1  0  0  0  0
 16125  1  0  0  0  0
 17 18  1  0  0  0  0
 17126  1  0  0  0  0
 18 19  1  0  0  0  0
 18 21  1  0  0  0  0
 18127  1  1  0  0  0
 19 20  2  0  0  0  0
 19 25  1  0  0  0  0
 21 22  1  0  0  0  0
 21 23  1  0  0  0  0
 21128  1  6  0  0  0
 22 24  1  0  0  0  0
 22129  1  0  0  0  0
 22130  1  0  0  0  0
 23131  1  0  0  0  0
 23132  1  0  0  0  0
 23133  1  0  0  0  0
 24134  1  0  0  0  0
 24135  1  0  0  0  0
 24136  1  0  0  0  0
 25 26  1  0  0  0  0
 25137  1  0  0  0  0
 26 27  1  0  0  0  0
 26 29  1  0  0  0  0
 26138  1  6  0  0  0
 27 28  2  0  0  0  0
 27 31  1  0  0  0  0
 29 30  1  0  0  0  0
 29139  1  0  0  0  0
 29140  1  0  0  0  0
 30141  1  0  0  0  0
 31 32  1  0  0  0  0
 31142  1  0  0  0  0
 32 33  1  0  0  0  0
 32 35  1  0  0  0  0
 32143  1  1  0  0  0
 33 34  2  0  0  0  0
 33 39  1  0  0  0  0
 35 36  1  0  0  0  0
 35144  1  0  0  0  0
 35145  1  0  0  0  0
 36 37  1  0  0  0  0
 36 38  1  0  0  0  0
 36146  1  0  0  0  0
 37147  1  0  0  0  0
 37148  1  0  0  0  0
 37149  1  0  0  0  0
 38150  1  0  0  0  0
 38151  1  0  0  0  0
 38152  1  0  0  0  0
 39 40  1  0  0  0  0
 39153  1  0  0  0  0
 40 41  1  0  0  0  0
 40 43  1  0  0  0  0
 40154  1  1  0  0  0
 41 42  2  0  0  0  0
 41 47  1  0  0  0  0
 43 44  1  0  0  0  0
 43155  1  0  0  0  0
 43156  1  0  0  0  0
 44 45  2  0  0  0  0
 44 46  1  0  0  0  0
 46157  1  0  0  0  0
 46158  1  0  0  0  0
 47 48  1  0  0  0  0
 47159  1  0  0  0  0
 48 49  1  0  0  0  0
 48 51  1  0  0  0  0
 48160  1  6  0  0  0
 49 50  2  0  0  0  0
 49 61  1  0  0  0  0
 51 52  1  0  0  0  0
 51161  1  0  0  0  0
 51162  1  0  0  0  0
 52 53  2  0  0  0  0
 52 54  1  0  0  0  0
 53 55  1  0  0  0  0
 53163  1  0  0  0  0
 54 56  2  0  0  0  0
 54 57  1  0  0  0  0
 55 56  1  0  0  0  0
 55164  1  0  0  0  0
 56 58  1  0  0  0  0
 57 59  2  0  0  0  0
 57165  1  0  0  0  0
 58 60  2  0  0  0  0
 58166  1  0  0  0  0
 59 60  1  0  0  0  0
 59167  1  0  0  0  0
 60168  1  0  0  0  0
 61 62  1  0  0  0  0
 61169  1  0  0  0  0
 62 63  1  0  0  0  0
 62 65  1  0  0  0  0
 62170  1  1  0  0  0
 63 64  2  0  0  0  0
 63 72  1  0  0  0  0
 65 66  1  0  0  0  0
 65171  1  0  0  0  0
 65172  1  0  0  0  0
 66 67  2  0  0  0  0
 66 68  1  0  0  0  0
 67 69  1  0  0  0  0
 67173  1  0  0  0  0
 68 70  2  0  0  0  0
 68174  1  0  0  0  0
 69 71  2  0  0  0  0
 69175  1  0  0  0  0
 70 71  1  0  0  0  0
 70176  1  0  0  0  0
 71177  1  0  0  0  0
 72 73  1  0  0  0  0
 72178  1  0  0  0  0
 73 74  1  0  0  0  0
 73 76  1  0  0  0  0
 73179  1  1  0  0  0
 74 75  2  0  0  0  0
 74 81  1  0  0  0  0
 76 77  1  0  0  0  0
 76180  1  0  0  0  0
 76181  1  0  0  0  0
 77 78  1  0  0  0  0
 77182  1  0  0  0  0
 77183  1  0  0  0  0
 78 79  1  0  0  0  0
 78 80  2  0  0  0  0
 81 82  1  0  0  0  0
 81184  1  0  0  0  0
 82 83  1  0  0  0  0
 82 85  1  0  0  0  0
 82185  1  6  0  0  0
 83 84  2  0  0  0  0
 83 90  1  0  0  0  0
 85 86  1  0  0  0  0
 85186  1  0  0  0  0
 85187  1  0  0  0  0
 86 87  1  0  0  0  0
 86188  1  0  0  0  0
 86189  1  0  0  0  0
 87 88  1  0  0  0  0
 87 89  2  0  0  0  0
 90 91  1  0  0  0  0
 90190  1  0  0  0  0
 91 92  1  0  0  0  0
 91 94  1  0  0  0  0
 91191  1  6  0  0  0
 92 93  2  0  0  0  0
 92 98  1  0  0  0  0
 94 95  1  0  0  0  0
 94192  1  0  0  0  0
 94193  1  0  0  0  0
 95 96  1  0  0  0  0
 95 97  1  0  0  0  0
 95194  1  0  0  0  0
 96195  1  0  0  0  0
 96196  1  0  0  0  0
 96197  1  0  0  0  0
 97198  1  0  0  0  0
 97199  1  0  0  0  0
 97200  1  0  0  0  0
 98 99  1  0  0  0  0
 98201  1  0  0  0  0
 99100  1  0  0  0  0
 99102  1  0  0  0  0
 99202  1  1  0  0  0
100101  2  0  0  0  0
100104  1  0  0  0  0
102103  1  0  0  0  0
102203  1  0  0  0  0
102204  1  0  0  0  0
103205  1  0  0  0  0
104105  1  0  0  0  0
104206  1  0  0  0  0
105106  1  0  0  0  0
105108  1  0  0  0  0
105207  1  1  0  0  0
106107  2  0  0  0  0
106208  1  0  0  0  0
108209  1  0  0  0  0
108210  1  0  0  0  0
108211  1  0  0  0  0
M  CHG  3   1   1  79  -1  88  -1
M  END
