3ewz_ligand
 OpenBabel08222323343D

 33 34  0  0  1  0  0  0  0  0999 V2000
   -1.7230   -9.6130   29.7050 O   0  0  0  0  0  1  0  0  0  0  0  0
   -3.0980   -9.9440   29.2130 P   0  0  0  0  0  0  0  0  0  0  0  0
   -3.8840  -10.7570   30.2110 O   0  0  0  0  0  1  0  0  0  0  0  0
   -3.0810  -10.6190   27.8650 O   0  0  0  0  0  0  0  0  0  0  0  0
   -3.9150   -8.5650   29.1770 O   0  0  0  0  0  0  0  0  0  0  0  0
   -3.6570   -7.6480   28.1170 C   0  0  0  0  0  0  0  0  0  0  0  0
   -4.5760   -6.4680   28.4100 C   0  0  1  0  0  0  0  0  0  0  0  0
   -4.2670   -5.3050   27.4950 O   0  0  0  0  0  0  0  0  0  0  0  0
   -6.0730   -6.8100   28.3000 C   0  0  1  0  0  0  0  0  0  0  0  0
   -6.8320   -6.0040   29.2080 O   0  0  0  0  0  0  0  0  0  0  0  0
   -6.2990   -6.3200   26.8750 C   0  0  1  0  0  0  0  0  0  0  0  0
   -7.6610   -5.9890   26.6330 O   0  0  0  0  0  0  0  0  0  0  0  0
   -5.4100   -5.1060   26.6400 C   0  0  2  0  0  0  0  0  0  0  0  0
   -4.9380   -4.8370   25.2850 N   0  0  0  0  0  0  0  0  0  0  0  0
   -4.1890   -5.7700   24.5650 C   0  0  0  0  0  0  0  0  0  0  0  0
   -3.9070   -6.9510   25.1190 O   0  0  0  0  0  0  0  0  0  0  0  0
   -3.7440   -5.5100   23.2960 N   0  0  0  0  0  0  0  0  0  0  0  0
   -4.0090   -4.3320   22.7240 C   0  0  0  0  0  0  0  0  0  0  0  0
   -3.5580   -4.1150   21.5820 O   0  0  0  0  0  0  0  0  0  0  0  0
   -5.2220   -3.6740   24.7020 C   0  0  0  0  0  0  0  0  0  0  0  0
   -4.7620   -3.3990   23.4180 C   0  0  0  0  0  0  0  0  0  0  0  0
   -5.1310   -2.1000   22.9360 C   0  0  0  0  0  0  0  0  0  0  0  0
   -5.4210   -1.0690   22.5290 N   0  0  0  0  0  0  0  0  0  0  0  0
   -3.8998   -8.0989   27.1435 H   0  0  0  0  0  0  0  0  0  0  0  0
   -2.6033   -7.3323   28.1223 H   0  0  0  0  0  0  0  0  0  0  0  0
   -4.3817   -6.1515   29.4454 H   0  0  0  0  0  0  0  0  0  0  0  0
   -6.2903   -7.8793   28.4390 H   0  0  0  0  0  0  0  0  0  0  0  0
   -6.5392   -6.1687   30.0965 H   0  0  0  0  0  0  0  0  0  0  0  0
   -6.0081   -7.1188   26.1769 H   0  0  0  0  0  0  0  0  0  0  0  0
   -7.7585   -5.6892   25.7369 H   0  0  0  0  0  0  0  0  0  0  0  0
   -5.9676   -4.2164   26.9682 H   0  0  0  0  0  0  0  0  0  0  0  0
   -3.2210   -6.2016   22.7978 H   0  0  0  0  0  0  0  0  0  0  0  0
   -5.8180   -2.9335   25.2335 H   0  0  0  0  0  0  0  0  0  0  0  0
  1  2  1  0  0  0  0
  2  3  1  0  0  0  0
  2  4  2  0  0  0  0
  2  5  1  0  0  0  0
  5  6  1  0  0  0  0
  6  7  1  0  0  0  0
  6 24  1  0  0  0  0
  6 25  1  0  0  0  0
  7  8  1  0  0  0  0
  7  9  1  0  0  0  0
  7 26  1  1  0  0  0
  8 13  1  0  0  0  0
  9 10  1  0  0  0  0
  9 11  1  0  0  0  0
  9 27  1  1  0  0  0
 10 28  1  0  0  0  0
 11 12  1  0  0  0  0
 11 13  1  0  0  0  0
 11 29  1  6  0  0  0
 12 30  1  0  0  0  0
 13 14  1  0  0  0  0
 13 31  1  1  0  0  0
 14 15  1  0  0  0  0
 14 20  1  0  0  0  0
 15 16  2  0  0  0  0
 15 17  1  0  0  0  0
 17 18  1  0  0  0  0
 17 32  1  0  0  0  0
 18 19  2  0  0  0  0
 18 21  1  0  0  0  0
 20 21  2  0  0  0  0
 20 33  1  0  0  0  0
 21 22  1  0  0  0  0
 22 23  3  0  0  0  0
M  END
