3ex2_ligand
 OpenBabel08222323343D

 35 36  0  0  1  0  0  0  0  0999 V2000
    2.0620   10.3530   30.7510 O   0  0  0  0  0  1  0  0  0  0  0  0
    3.4550   10.8210   30.3570 P   0  0  0  0  0  0  0  0  0  0  0  0
    4.3500   11.4250   31.4180 O   0  0  0  0  0  1  0  0  0  0  0  0
    3.6230   11.3660   29.0050 O   0  0  0  0  0  0  0  0  0  0  0  0
    4.1800    9.3710   30.1640 O   0  0  0  0  0  0  0  0  0  0  0  0
    4.1640    8.5200   28.9640 C   0  0  0  0  0  0  0  0  0  0  0  0
    4.9100    7.2470   29.3530 C   0  0  2  0  0  0  0  0  0  0  0  0
    6.4110    7.4270   29.1250 C   0  0  1  0  0  0  0  0  0  0  0  0
    7.0990    6.5950   30.0930 O   0  0  0  0  0  0  0  0  0  0  0  0
    6.6370    6.9300   27.7200 C   0  0  1  0  0  0  0  0  0  0  0  0
    7.9960    6.4890   27.4710 O   0  0  0  0  0  0  0  0  0  0  0  0
    4.5140    6.1480   28.4790 O   0  0  0  0  0  0  0  0  0  0  0  0
    5.5500    5.8720   27.4810 C   0  0  1  0  0  0  0  0  0  0  0  0
    4.9870    5.8040   26.0840 N   0  0  0  0  0  0  0  0  0  0  0  0
    5.1450    4.6720   25.4360 C   0  0  2  0  0  0  0  0  0  0  0  0
    4.7460    4.6360   24.1590 C   0  0  0  0  0  0  0  0  0  0  0  0
    3.8740    5.5480   23.6310 C   0  0  0  0  0  0  0  0  0  0  0  0
    3.3700    5.3780   22.5020 O   0  0  0  0  0  0  0  0  0  0  0  0
    3.6860    6.6700   24.2850 N   0  0  0  0  0  0  0  0  0  0  0  0
    4.2190    6.8450   25.4960 C   0  0  0  0  0  0  0  0  0  0  0  0
    4.0050    7.9300   26.0480 O   0  0  0  0  0  0  0  0  0  0  0  0
    4.5500    3.6600   26.2510 C   0  0  0  0  0  0  0  0  0  0  0  0
    4.0710    2.8520   26.9170 N   0  0  0  0  0  0  0  0  0  0  0  0
    4.6736    9.0237   28.1294 H   0  0  0  0  0  0  0  0  0  0  0  0
    3.1293    8.2850   28.6738 H   0  0  0  0  0  0  0  0  0  0  0  0
    4.7032    7.0012   30.4050 H   0  0  0  0  0  0  0  0  0  0  0  0
    6.7201    8.4775   29.2293 H   0  0  0  0  0  0  0  0  0  0  0  0
    6.8600    6.8687   30.9707 H   0  0  0  0  0  0  0  0  0  0  0  0
    6.4525    7.7644   27.0274 H   0  0  0  0  0  0  0  0  0  0  0  0
    8.0710    6.1898   26.5725 H   0  0  0  0  0  0  0  0  0  0  0  0
    5.9878    4.8850   27.6912 H   0  0  0  0  0  0  0  0  0  0  0  0
    6.2268    4.4750   25.4059 H   0  0  0  0  0  0  0  0  0  0  0  0
    4.2806    3.6501   24.0131 H   0  0  0  0  0  0  0  0  0  0  0  0
    5.6610    4.7030   23.5521 H   0  0  0  0  0  0  0  0  0  0  0  0
    3.1395    7.3991   23.8731 H   0  0  0  0  0  0  0  0  0  0  0  0
  1  2  1  0  0  0  0
  2  3  1  0  0  0  0
  2  4  2  0  0  0  0
  2  5  1  0  0  0  0
  5  6  1  0  0  0  0
  6  7  1  0  0  0  0
  6 24  1  0  0  0  0
  6 25  1  0  0  0  0
  7  8  1  0  0  0  0
  7 12  1  0  0  0  0
  7 26  1  1  0  0  0
  8  9  1  0  0  0  0
  8 10  1  0  0  0  0
  8 27  1  1  0  0  0
  9 28  1  0  0  0  0
 10 11  1  0  0  0  0
 10 13  1  0  0  0  0
 10 29  1  6  0  0  0
 11 30  1  0  0  0  0
 12 13  1  0  0  0  0
 13 14  1  0  0  0  0
 13 31  1  1  0  0  0
 14 15  1  0  0  0  0
 14 20  1  0  0  0  0
 15 16  1  0  0  0  0
 15 22  1  0  0  0  0
 15 32  1  6  0  0  0
 16 17  1  0  0  0  0
 16 33  1  0  0  0  0
 16 34  1  0  0  0  0
 17 18  2  0  0  0  0
 17 19  1  0  0  0  0
 19 20  1  0  0  0  0
 19 35  1  0  0  0  0
 20 21  2  0  0  0  0
 22 23  3  0  0  0  0
M  END
