3exf_ligand
 OpenBabel08222323343D

 42 43  0  0  0  0  0  0  0  0999 V2000
  -14.6010   -2.3310   -6.6860 N   0  0  0  0  0  0  0  0  0  0  0  0
  -15.1920   -2.4600   -7.9250 C   0  0  0  0  0  0  0  0  0  0  0  0
  -16.0820   -3.6090   -8.2100 C   0  0  0  0  0  0  0  0  0  0  0  0
  -14.9940   -1.5550   -8.9210 N   0  0  0  0  0  0  0  0  0  0  0  0
  -14.1650   -0.4830   -8.6830 C   0  0  0  0  0  0  0  0  0  0  0  0
  -13.9830    0.4110   -9.6730 N   0  0  0  0  0  0  0  0  0  0  0  0
  -13.5670   -0.3510   -7.4150 C   0  0  0  0  0  0  0  0  0  0  0  0
  -13.7860   -1.2720   -6.4250 C   0  0  0  0  0  0  0  0  0  0  0  0
  -12.6380    0.7790   -7.0830 C   0  0  0  0  0  0  0  0  0  0  0  0
  -11.4280    0.4920   -7.8110 N   0  0  0  0  0  4  0  0  0  0  0  0
  -11.1540    1.0830   -9.0280 C   0  0  0  0  0  0  0  0  0  0  0  0
   -9.7660    0.6080   -9.6790 S   0  0  0  0  0  0  0  0  0  0  0  0
   -9.4470   -0.3770   -8.4380 C   0  0  0  0  0  0  0  0  0  0  0  0
  -10.4350   -0.3640   -7.4530 C   0  0  0  0  0  0  0  0  0  0  0  0
  -10.3760   -1.1810   -6.2030 C   0  0  0  0  0  0  0  0  0  0  0  0
   -8.1350   -1.1350   -8.5130 C   0  0  0  0  0  0  0  0  0  0  0  0
   -7.9540   -2.2350   -9.5550 C   0  0  0  0  0  0  0  0  0  0  0  0
   -6.5480   -2.4540   -9.6790 O   0  0  0  0  0  0  0  0  0  0  0  0
   -5.8580   -3.4270  -10.7850 P   0  0  2  0  0  0  0  0  0  0  0  0
   -6.7200   -4.6130  -11.0810 O   0  0  0  0  0  1  0  0  0  0  0  0
   -4.4680   -3.8120  -10.3720 O   0  0  0  0  0  0  0  0  0  0  0  0
   -5.9560   -2.5820  -12.1550 O   0  0  0  0  0  0  0  0  0  0  0  0
   -4.9580   -1.3750  -12.5350 P   0  0  0  0  0  0  0  0  0  0  0  0
   -3.6010   -1.6930  -11.9530 O   0  0  0  0  0  1  0  0  0  0  0  0
   -5.0170   -1.1610  -14.0350 O   0  0  0  0  0  1  0  0  0  0  0  0
   -5.4030   -0.0790  -11.9280 O   0  0  0  0  0  0  0  0  0  0  0  0
  -16.1473   -4.2518   -7.3198 H   0  0  0  0  0  0  0  0  0  0  0  0
  -15.6746   -4.1885   -9.0516 H   0  0  0  0  0  0  0  0  0  0  0  0
  -17.0851   -3.2401   -8.4703 H   0  0  0  0  0  0  0  0  0  0  0  0
  -13.3684    1.2243   -9.5259 H   0  0  0  0  0  0  0  0  0  0  0  0
  -14.4584    0.2817  -10.5775 H   0  0  0  0  0  0  0  0  0  0  0  0
  -13.3196   -1.1599   -5.4529 H   0  0  0  0  0  0  0  0  0  0  0  0
  -12.4400    0.8120   -6.0015 H   0  0  0  0  0  0  0  0  0  0  0  0
  -13.0657    1.7393   -7.4069 H   0  0  0  0  0  0  0  0  0  0  0  0
  -11.8178    1.8044   -9.5022 H   0  0  0  0  0  0  0  0  0  0  0  0
   -9.4502   -1.7750   -6.1966 H   0  0  0  0  0  0  0  0  0  0  0  0
  -11.2444   -1.8551   -6.1642 H   0  0  0  0  0  0  0  0  0  0  0  0
  -10.3899   -0.5143   -5.3282 H   0  0  0  0  0  0  0  0  0  0  0  0
   -7.9789   -1.6000   -7.5284 H   0  0  0  0  0  0  0  0  0  0  0  0
   -7.3466   -0.3901   -8.6959 H   0  0  0  0  0  0  0  0  0  0  0  0
   -8.3748   -1.9163  -10.5201 H   0  0  0  0  0  0  0  0  0  0  0  0
   -8.4537   -3.1572   -9.2237 H   0  0  0  0  0  0  0  0  0  0  0  0
  1  2  2  0  0  0  0
  1  8  1  0  0  0  0
  2  3  1  0  0  0  0
  2  4  1  0  0  0  0
  3 27  1  0  0  0  0
  3 28  1  0  0  0  0
  3 29  1  0  0  0  0
  4  5  2  0  0  0  0
  5  6  1  0  0  0  0
  5  7  1  0  0  0  0
  6 30  1  0  0  0  0
  6 31  1  0  0  0  0
  7  8  2  0  0  0  0
  7  9  1  0  0  0  0
  8 32  1  0  0  0  0
  9 10  1  0  0  0  0
  9 33  1  0  0  0  0
  9 34  1  0  0  0  0
 10 11  2  0  0  0  0
 10 14  1  0  0  0  0
 11 12  1  0  0  0  0
 11 35  1  0  0  0  0
 12 13  1  0  0  0  0
 13 14  2  0  0  0  0
 13 16  1  0  0  0  0
 14 15  1  0  0  0  0
 15 36  1  0  0  0  0
 15 37  1  0  0  0  0
 15 38  1  0  0  0  0
 16 17  1  0  0  0  0
 16 39  1  0  0  0  0
 16 40  1  0  0  0  0
 17 18  1  0  0  0  0
 17 41  1  0  0  0  0
 17 42  1  0  0  0  0
 18 19  1  0  0  0  0
 19 20  1  6  0  0  0
 19 21  2  0  0  0  0
 19 22  1  0  0  0  0
 22 23  1  0  0  0  0
 23 24  1  0  0  0  0
 23 25  1  0  0  0  0
 23 26  2  0  0  0  0
M  END
