3eyg_ligand
 OpenBabel08222323343D

 43 45  0  0  1  0  0  0  0  0999 V2000
   11.4000   14.0760  -15.3490 C   0  0  1  0  0  0  0  0  0  0  0  0
   11.1110   14.1980  -16.8320 C   0  0  0  0  0  0  0  0  0  0  0  0
   10.0430   11.9040  -16.9620 C   0  0  0  0  0  0  0  0  0  0  0  0
   10.5440   11.6320  -15.5380 C   0  0  0  0  0  0  0  0  0  0  0  0
   11.7130   12.5520  -15.1220 C   0  0  1  0  0  0  0  0  0  0  0  0
    9.9090   13.3800  -17.0700 N   0  0  0  0  0  0  0  0  0  0  0  0
    8.6640   15.1600  -17.5640 O   0  0  0  0  0  0  0  0  0  0  0  0
    8.7790   13.9460  -17.4370 C   0  0  0  0  0  0  0  0  0  0  0  0
    7.5860   13.0420  -17.6590 C   0  0  0  0  0  0  0  0  0  0  0  0
    6.4020   13.8860  -17.8860 C   0  0  0  0  0  0  0  0  0  0  0  0
    5.4400   14.5060  -18.0770 N   0  0  0  0  0  0  0  0  0  0  0  0
   13.0070   11.9550  -15.7290 C   0  0  0  0  0  0  0  0  0  0  0  0
   12.6080   14.8790  -14.9290 N   0  0  0  0  0  0  0  0  0  0  0  0
   13.6000   15.3730  -15.8880 C   0  0  0  0  0  0  0  0  0  0  0  0
   12.8720   15.1980  -13.6120 C   0  0  0  0  0  0  0  0  0  0  0  0
   12.0370   14.7960  -12.5530 C   0  0  0  0  0  0  0  0  0  0  0  0
   10.7790   14.0680  -12.4890 C   0  0  0  0  0  0  0  0  0  0  0  0
   10.5020   14.0170  -11.1370 C   0  0  0  0  0  0  0  0  0  0  0  0
   11.4780   14.6740  -10.4210 N   0  0  0  0  0  0  0  0  0  0  0  0
   12.4150   15.1380  -11.2680 C   0  0  0  0  0  0  0  0  0  0  0  0
   13.5300   15.8160  -10.9460 N   0  0  0  0  0  0  0  0  0  0  0  0
   14.3090   16.1740  -12.0020 C   0  0  0  0  0  0  0  0  0  0  0  0
   14.0160   15.9020  -13.3080 N   0  0  0  0  0  0  0  0  0  0  0  0
   10.5247   14.3924  -14.7627 H   0  0  0  0  0  0  0  0  0  0  0  0
   11.9580   13.8163  -17.4210 H   0  0  0  0  0  0  0  0  0  0  0  0
   10.9207   15.2475  -17.1011 H   0  0  0  0  0  0  0  0  0  0  0  0
    9.0696   11.4183  -17.1247 H   0  0  0  0  0  0  0  0  0  0  0  0
   10.7673   11.5303  -17.7007 H   0  0  0  0  0  0  0  0  0  0  0  0
   10.8827   10.5871  -15.4794 H   0  0  0  0  0  0  0  0  0  0  0  0
    9.7100   11.7870  -14.8377 H   0  0  0  0  0  0  0  0  0  0  0  0
   11.8244   12.4521  -14.0322 H   0  0  0  0  0  0  0  0  0  0  0  0
    7.4279   12.4104  -16.7724 H   0  0  0  0  0  0  0  0  0  0  0  0
    7.7615   12.4036  -18.5374 H   0  0  0  0  0  0  0  0  0  0  0  0
   13.8657   12.5850  -15.4537 H   0  0  0  0  0  0  0  0  0  0  0  0
   12.9153   11.9187  -16.8246 H   0  0  0  0  0  0  0  0  0  0  0  0
   13.1591   10.9375  -15.3398 H   0  0  0  0  0  0  0  0  0  0  0  0
   14.3840   15.9276  -15.3516 H   0  0  0  0  0  0  0  0  0  0  0  0
   13.1094   16.0398  -16.6123 H   0  0  0  0  0  0  0  0  0  0  0  0
   14.0512   14.5224  -16.4198 H   0  0  0  0  0  0  0  0  0  0  0  0
   10.1943   13.6600  -13.3122 H   0  0  0  0  0  0  0  0  0  0  0  0
    9.6341   13.5264  -10.6988 H   0  0  0  0  0  0  0  0  0  0  0  0
   11.4890   14.7917   -9.3978 H   0  0  0  0  0  0  0  0  0  0  0  0
   15.2261   16.7126  -11.7925 H   0  0  0  0  0  0  0  0  0  0  0  0
  1  5  1  0  0  0  0
  1 13  1  0  0  0  0
  1 24  1  1  0  0  0
  2  1  1  0  0  0  0
  2 25  1  0  0  0  0
  2 26  1  0  0  0  0
  3  4  1  0  0  0  0
  3  6  1  0  0  0  0
  3 27  1  0  0  0  0
  3 28  1  0  0  0  0
  4  5  1  0  0  0  0
  4 29  1  0  0  0  0
  4 30  1  0  0  0  0
  5 12  1  0  0  0  0
  5 31  1  1  0  0  0
  6  2  1  0  0  0  0
  6  8  1  0  0  0  0
  8  7  2  0  0  0  0
  8  9  1  0  0  0  0
  9 10  1  0  0  0  0
  9 32  1  0  0  0  0
  9 33  1  0  0  0  0
 10 11  3  0  0  0  0
 12 34  1  0  0  0  0
 12 35  1  0  0  0  0
 12 36  1  0  0  0  0
 13 14  1  0  0  0  0
 13 15  1  0  0  0  0
 14 37  1  0  0  0  0
 14 38  1  0  0  0  0
 14 39  1  0  0  0  0
 15 16  2  0  0  0  0
 15 23  1  0  0  0  0
 16 17  1  0  0  0  0
 16 20  1  0  0  0  0
 17 18  2  0  0  0  0
 17 40  1  0  0  0  0
 18 19  1  0  0  0  0
 18 41  1  0  0  0  0
 19 20  1  0  0  0  0
 19 42  1  0  0  0  0
 20 21  2  0  0  0  0
 21 22  1  0  0  0  0
 22 23  2  0  0  0  0
 22 43  1  0  0  0  0
M  END
