3eyh_ligand
 OpenBabel08222323343D

 39 42  0  0  0  0  0  0  0  0999 V2000
    9.0710  -15.8700  -10.7010 O   0  0  0  0  0  0  0  0  0  0  0  0
   10.0600  -15.2630  -11.1630 C   0  0  0  0  0  0  0  0  0  0  0  0
   11.0020  -14.7310  -10.3350 N   0  0  0  0  0  0  0  0  0  0  0  0
   12.0870  -14.0540  -10.7930 C   0  0  0  0  0  0  0  0  0  0  0  0
   12.3000  -13.8740  -12.1640 C   0  0  0  0  0  0  0  0  0  0  0  0
   11.3690  -14.3870  -13.0810 C   0  0  0  0  0  0  0  0  0  0  0  0
   11.5460  -14.2140  -14.4560 C   0  0  0  0  0  0  0  0  0  0  0  0
   10.2320  -15.0720  -12.6260 C   0  0  0  0  0  0  0  0  0  0  0  0
    9.2630  -15.6220  -13.6180 C   0  0  0  0  0  0  0  0  0  0  0  0
    8.1200  -16.3010  -13.2550 C   0  0  0  0  0  0  0  0  0  0  0  0
    7.2790  -16.7340  -14.2550 C   0  0  0  0  0  0  0  0  0  0  0  0
    6.0970  -17.4650  -13.8310 F   0  0  0  0  0  0  0  0  0  0  0  0
    7.5740  -16.5210  -15.6080 C   0  0  0  0  0  0  0  0  0  0  0  0
    8.6520  -15.8620  -15.9380 C   0  0  0  0  0  0  0  0  0  0  0  0
    9.5020  -15.4120  -15.0660 C   0  0  0  0  0  0  0  0  0  0  0  0
   10.6560  -14.6980  -15.4090 C   0  0  0  0  0  0  0  0  0  0  0  0
   11.1070  -14.3510  -16.6500 N   0  0  0  0  0  0  0  0  0  0  0  0
   12.2640  -13.7000  -16.3920 C   0  0  0  0  0  0  0  0  0  0  0  0
   12.5660  -13.5720  -15.0800 N   0  0  0  0  0  0  0  0  0  0  0  0
   13.1360  -13.1100  -17.4830 C   0  0  0  0  0  0  0  0  0  0  0  0
   12.8300  -13.7360  -18.8490 C   0  0  0  0  0  0  0  0  0  0  0  0
   14.6290  -13.2270  -17.2200 C   0  0  0  0  0  0  0  0  0  0  0  0
   12.7910  -11.6220  -17.5200 C   0  0  0  0  0  0  0  0  0  0  0  0
   12.8026  -13.6447  -10.0815 H   0  0  0  0  0  0  0  0  0  0  0  0
   13.2699  -14.3358  -12.4006 H   0  0  0  0  0  0  0  0  0  0  0  0
   12.3576  -12.7896  -12.3393 H   0  0  0  0  0  0  0  0  0  0  0  0
    7.8900  -16.4886  -12.2124 H   0  0  0  0  0  0  0  0  0  0  0  0
    6.9110  -16.9012  -16.3767 H   0  0  0  0  0  0  0  0  0  0  0  0
    8.8462  -15.6823  -16.9892 H   0  0  0  0  0  0  0  0  0  0  0  0
   10.6707  -14.5398  -17.5637 H   0  0  0  0  0  0  0  0  0  0  0  0
   13.4799  -13.2845  -19.6131 H   0  0  0  0  0  0  0  0  0  0  0  0
   11.7769  -13.5528  -19.1087 H   0  0  0  0  0  0  0  0  0  0  0  0
   13.0138  -14.8196  -18.8052 H   0  0  0  0  0  0  0  0  0  0  0  0
   14.8650  -12.7817  -16.2422 H   0  0  0  0  0  0  0  0  0  0  0  0
   15.1829  -12.6958  -18.0081 H   0  0  0  0  0  0  0  0  0  0  0  0
   14.9192  -14.2880  -17.2193 H   0  0  0  0  0  0  0  0  0  0  0  0
   11.7143  -11.4999  -17.7091 H   0  0  0  0  0  0  0  0  0  0  0  0
   13.3620  -11.1330  -18.3230 H   0  0  0  0  0  0  0  0  0  0  0  0
   13.0482  -11.1618  -16.5546 H   0  0  0  0  0  0  0  0  0  0  0  0
  1  2  2  0  0  0  0
  2  3  1  0  0  0  0
  2  8  1  0  0  0  0
  3  4  2  0  0  0  0
  4  5  1  0  0  0  0
  4 24  1  0  0  0  0
  5  6  1  0  0  0  0
  5 25  1  0  0  0  0
  5 26  1  0  0  0  0
  6  7  2  0  0  0  0
  6  8  1  0  0  0  0
  7 16  1  0  0  0  0
  7 19  1  0  0  0  0
  8  9  2  0  0  0  0
  9 10  1  0  0  0  0
  9 15  1  0  0  0  0
 10 11  2  0  0  0  0
 10 27  1  0  0  0  0
 11 12  1  0  0  0  0
 11 13  1  0  0  0  0
 13 14  2  0  0  0  0
 13 28  1  0  0  0  0
 14 15  1  0  0  0  0
 14 29  1  0  0  0  0
 15 16  2  0  0  0  0
 16 17  1  0  0  0  0
 17 18  1  0  0  0  0
 17 30  1  0  0  0  0
 18 19  2  0  0  0  0
 18 20  1  0  0  0  0
 20 21  1  0  0  0  0
 20 22  1  0  0  0  0
 20 23  1  0  0  0  0
 21 31  1  0  0  0  0
 21 32  1  0  0  0  0
 21 33  1  0  0  0  0
 22 34  1  0  0  0  0
 22 35  1  0  0  0  0
 22 36  1  0  0  0  0
 23 37  1  0  0  0  0
 23 38  1  0  0  0  0
 23 39  1  0  0  0  0
M  END
