3eyu_ligand
 OpenBabel08222323343D

104105  0  0  1  0  0  0  0  0999 V2000
   31.8620  -18.9080  -34.3030 N   0  3  0  0  0  0  0  0  0  0  0  0
   30.4530  -19.3380  -34.5490 C   0  0  2  0  0  0  0  0  0  0  0  0
   29.9840  -20.4620  -33.6080 C   0  0  0  0  0  0  0  0  0  0  0  0
   30.7980  -21.2170  -33.0570 O   0  0  0  0  0  0  0  0  0  0  0  0
   30.2840  -19.7770  -36.0090 C   0  0  0  0  0  0  0  0  0  0  0  0
   30.6540  -18.7240  -37.0420 C   0  0  0  0  0  0  0  0  0  0  0  0
   29.6270  -17.6030  -37.1450 C   0  0  0  0  0  0  0  0  0  0  0  0
   28.7420  -17.6810  -38.0290 O   0  5  0  0  0  0  0  0  0  0  0  0
   29.7010  -16.6470  -36.3390 O   0  0  0  0  0  0  0  0  0  0  0  0
   28.6640  -20.5400  -33.4270 N   0  0  0  0  0  0  0  0  0  0  0  0
   27.9780  -21.6700  -32.7760 C   0  0  2  0  0  0  0  0  0  0  0  0
   27.8990  -22.8490  -33.7550 C   0  0  0  0  0  0  0  0  0  0  0  0
   27.7440  -22.6440  -34.9640 O   0  0  0  0  0  0  0  0  0  0  0  0
   26.5590  -21.2470  -32.3370 C   0  0  0  0  0  0  0  0  0  0  0  0
   25.8250  -22.2740  -31.4820 C   0  0  0  0  0  0  0  0  0  0  0  0
   26.2200  -22.5280  -30.1600 C   0  0  0  0  0  0  0  0  0  0  0  0
   24.7100  -22.9520  -31.9850 C   0  0  0  0  0  0  0  0  0  0  0  0
   25.5350  -23.4620  -29.3730 C   0  0  0  0  0  0  0  0  0  0  0  0
   24.0140  -23.8870  -31.2020 C   0  0  0  0  0  0  0  0  0  0  0  0
   24.4300  -24.1430  -29.8990 C   0  0  0  0  0  0  0  0  0  0  0  0
   28.0030  -24.0700  -33.2310 N   0  0  0  0  0  0  0  0  0  0  0  0
   28.0410  -25.2900  -34.0540 C   0  0  2  0  0  0  0  0  0  0  0  0
   26.7400  -25.5380  -34.8630 C   0  0  0  0  0  0  0  0  0  0  0  0
   25.6390  -25.5870  -34.2960 O   0  0  0  0  0  0  0  0  0  0  0  0
   28.3900  -26.4990  -33.1720 C   0  0  0  0  0  0  0  0  0  0  0  0
   28.8270  -27.7400  -33.9160 C   0  0  0  0  0  0  0  0  0  0  0  0
   29.4280  -28.7500  -32.9550 C   0  0  0  0  0  0  0  0  0  0  0  0
   29.7820  -30.0140  -33.6040 N   0  0  0  0  0  0  0  0  0  0  0  0
   30.0340  -31.1450  -32.9510 C   0  0  0  0  0  3  0  0  0  0  0  0
   29.9620  -31.1730  -31.6270 N   0  0  0  0  0  0  0  0  0  0  0  0
   30.3460  -32.2510  -33.6160 N   0  0  0  0  0  0  0  0  0  0  0  0
   26.8920  -25.6770  -36.1830 N   0  0  0  0  0  0  0  0  0  0  0  0
   25.7950  -25.9560  -37.1170 C   0  0  2  0  0  0  0  0  0  0  0  0
   26.3550  -26.6990  -38.3230 C   0  0  0  0  0  0  0  0  0  0  0  0
   27.5190  -26.5360  -38.6740 O   0  0  0  0  0  0  0  0  0  0  0  0
   25.1510  -24.6600  -37.6200 C   0  0  0  0  0  0  0  0  0  0  0  0
   24.3950  -23.8980  -36.5750 C   0  0  0  0  0  0  0  0  0  0  0  0
   23.0870  -24.1800  -36.2480 N   0  0  0  0  0  0  0  0  0  0  0  0
   24.7560  -22.8490  -35.8010 C   0  0  0  0  0  0  0  0  0  0  0  0
   22.6800  -23.3490  -35.3060 C   0  0  0  0  0  0  0  0  0  0  0  0
   23.6720  -22.5300  -35.0200 N   0  0  0  0  0  0  0  0  0  0  0  0
   25.5310  -27.5070  -38.9720 N   0  0  0  0  0  0  0  0  0  0  0  0
   25.9850  -28.2030  -40.1600 C   0  0  2  0  0  0  0  0  0  0  0  0
   25.0150  -28.0390  -41.3140 C   0  0  0  0  0  0  0  0  0  0  0  0
   23.8260  -28.3490  -41.1950 O   0  0  0  0  0  0  0  0  0  0  0  0
   26.2180  -29.6880  -39.8750 C   0  0  0  0  0  0  0  0  0  0  0  0
   27.2940  -29.9760  -38.8410 C   0  0  0  0  0  0  0  0  0  0  0  0
   27.5040  -31.4600  -38.6370 C   0  0  0  0  0  0  0  0  0  0  0  0
   26.7500  -32.2610  -39.2390 O   0  5  0  0  0  0  0  0  0  0  0  0
   28.4270  -31.8340  -37.8770 O   0  0  0  0  0  0  0  0  0  0  0  0
   25.5390  -27.5310  -42.4230 N   0  0  0  0  0  0  0  0  0  0  0  0
   24.8470  -27.5680  -43.7040 C   0  0  2  0  0  0  0  0  0  0  0  0
   25.7860  -28.1950  -44.7130 C   0  0  0  0  0  0  0  0  0  0  0  0
   26.9590  -27.8210  -44.7850 O   0  5  0  0  0  0  0  0  0  0  0  0
   24.4320  -26.1700  -44.1510 C   0  0  0  0  0  0  0  0  0  0  0  0
   25.3990  -29.0960  -45.4570 O   0  0  0  0  0  0  0  0  0  0  0  0
   32.1066  -18.1734  -34.9485 H   0  0  0  0  0  0  0  0  0  0  0  0
   32.4809  -19.6924  -34.4364 H   0  0  0  0  0  0  0  0  0  0  0  0
   31.9494  -18.5679  -33.3582 H   0  0  0  0  0  0  0  0  0  0  0  0
   29.8051  -18.4664  -34.3743 H   0  0  0  0  0  0  0  0  0  0  0  0
   29.2300  -20.0513  -36.1634 H   0  0  0  0  0  0  0  0  0  0  0  0
   30.9206  -20.6583  -36.1766 H   0  0  0  0  0  0  0  0  0  0  0  0
   30.7399  -19.2117  -38.0242 H   0  0  0  0  0  0  0  0  0  0  0  0
   31.6240  -18.2860  -36.7639 H   0  0  0  0  0  0  0  0  0  0  0  0
   28.1026  -19.7803  -33.7553 H   0  0  0  0  0  0  0  0  0  0  0  0
   28.5506  -21.9765  -31.8882 H   0  0  0  0  0  0  0  0  0  0  0  0
   25.9607  -21.0636  -33.2416 H   0  0  0  0  0  0  0  0  0  0  0  0
   26.6427  -20.3157  -31.7577 H   0  0  0  0  0  0  0  0  0  0  0  0
   27.0662  -21.9945  -29.7424 H   0  0  0  0  0  0  0  0  0  0  0  0
   24.3772  -22.7522  -32.9971 H   0  0  0  0  0  0  0  0  0  0  0  0
   25.8597  -23.6578  -28.3575 H   0  0  0  0  0  0  0  0  0  0  0  0
   23.1557  -24.4075  -31.6111 H   0  0  0  0  0  0  0  0  0  0  0  0
   23.8998  -24.8681  -29.2923 H   0  0  0  0  0  0  0  0  0  0  0  0
   28.0575  -24.1613  -32.2367 H   0  0  0  0  0  0  0  0  0  0  0  0
   28.8531  -25.1643  -34.7852 H   0  0  0  0  0  0  0  0  0  0  0  0
   27.4995  -26.7548  -32.5791 H   0  0  0  0  0  0  0  0  0  0  0  0
   29.2068  -26.2025  -32.4976 H   0  0  0  0  0  0  0  0  0  0  0  0
   29.5796  -27.4646  -34.6695 H   0  0  0  0  0  0  0  0  0  0  0  0
   27.9556  -28.1889  -34.4151 H   0  0  0  0  0  0  0  0  0  0  0  0
   28.6962  -28.9566  -32.1601 H   0  0  0  0  0  0  0  0  0  0  0  0
   30.3369  -28.3160  -32.5129 H   0  0  0  0  0  0  0  0  0  0  0  0
   29.8396  -30.0282  -34.6323 H   0  0  0  0  0  0  0  0  0  0  0  0
   30.1567  -32.0476  -31.1190 H   0  0  0  0  0  0  0  0  0  0  0  0
   29.7114  -30.3201  -31.1067 H   0  0  0  0  0  0  0  0  0  0  0  0
   30.4033  -32.2348  -34.6443 H   0  0  0  0  0  0  0  0  0  0  0  0
   30.5308  -33.1252  -33.1036 H   0  0  0  0  0  0  0  0  0  0  0  0
   27.8139  -25.5849  -36.5593 H   0  0  0  0  0  0  0  0  0  0  0  0
   25.0357  -26.5726  -36.6138 H   0  0  0  0  0  0  0  0  0  0  0  0
   24.4537  -24.9149  -38.4316 H   0  0  0  0  0  0  0  0  0  0  0  0
   25.9472  -24.0096  -38.0113 H   0  0  0  0  0  0  0  0  0  0  0  0
   25.7244  -22.3508  -35.7977 H   0  0  0  0  0  0  0  0  0  0  0  0
   21.6936  -23.3417  -34.8445 H   0  0  0  0  0  0  0  0  0  0  0  0
   23.6397  -21.7724  -34.3229 H   0  0  0  0  0  0  0  0  0  0  0  0
   24.5957  -27.6372  -38.6428 H   0  0  0  0  0  0  0  0  0  0  0  0
   26.9457  -27.7595  -40.4605 H   0  0  0  0  0  0  0  0  0  0  0  0
   26.5089  -30.1760  -40.8169 H   0  0  0  0  0  0  0  0  0  0  0  0
   25.2727  -30.1201  -39.5149 H   0  0  0  0  0  0  0  0  0  0  0  0
   26.9954  -29.5251  -37.8832 H   0  0  0  0  0  0  0  0  0  0  0  0
   28.2397  -29.5270  -39.1786 H   0  0  0  0  0  0  0  0  0  0  0  0
   26.4434  -27.1067  -42.3770 H   0  0  0  0  0  0  0  0  0  0  0  0
   23.9442  -28.1894  -43.6105 H   0  0  0  0  0  0  0  0  0  0  0  0
   23.9134  -26.2334  -45.1190 H   0  0  0  0  0  0  0  0  0  0  0  0
   25.3261  -25.5377  -44.2548 H   0  0  0  0  0  0  0  0  0  0  0  0
   23.7571  -25.7307  -43.4017 H   0  0  0  0  0  0  0  0  0  0  0  0
  1  2  1  0  0  0  0
  1 57  1  0  0  0  0
  1 58  1  0  0  0  0
  1 59  1  0  0  0  0
  2  3  1  0  0  0  0
  2  5  1  0  0  0  0
  2 60  1  1  0  0  0
  3  4  2  0  0  0  0
  3 10  1  0  0  0  0
  5  6  1  0  0  0  0
  5 61  1  0  0  0  0
  5 62  1  0  0  0  0
  6  7  1  0  0  0  0
  6 63  1  0  0  0  0
  6 64  1  0  0  0  0
  7  8  1  0  0  0  0
  7  9  2  0  0  0  0
 10 11  1  0  0  0  0
 10 65  1  0  0  0  0
 11 12  1  0  0  0  0
 11 14  1  0  0  0  0
 11 66  1  1  0  0  0
 12 13  2  0  0  0  0
 12 21  1  0  0  0  0
 14 15  1  0  0  0  0
 14 67  1  0  0  0  0
 14 68  1  0  0  0  0
 15 16  2  0  0  0  0
 15 17  1  0  0  0  0
 16 18  1  0  0  0  0
 16 69  1  0  0  0  0
 17 19  2  0  0  0  0
 17 70  1  0  0  0  0
 18 20  2  0  0  0  0
 18 71  1  0  0  0  0
 19 20  1  0  0  0  0
 19 72  1  0  0  0  0
 20 73  1  0  0  0  0
 21 22  1  0  0  0  0
 21 74  1  0  0  0  0
 22 23  1  0  0  0  0
 22 25  1  0  0  0  0
 22 75  1  6  0  0  0
 23 24  2  0  0  0  0
 23 32  1  0  0  0  0
 25 26  1  0  0  0  0
 25 76  1  0  0  0  0
 25 77  1  0  0  0  0
 26 27  1  0  0  0  0
 26 78  1  0  0  0  0
 26 79  1  0  0  0  0
 27 28  1  0  0  0  0
 27 80  1  0  0  0  0
 27 81  1  0  0  0  0
 28 29  1  0  0  0  0
 28 82  1  0  0  0  0
 29 30  1  0  0  0  0
 29 31  1  0  0  0  0
 30 83  1  0  0  0  0
 30 84  1  0  0  0  0
 31 85  1  0  0  0  0
 31 86  1  0  0  0  0
 32 33  1  0  0  0  0
 32 87  1  0  0  0  0
 33 34  1  0  0  0  0
 33 36  1  0  0  0  0
 33 88  1  1  0  0  0
 34 35  2  0  0  0  0
 34 42  1  0  0  0  0
 36 37  1  0  0  0  0
 36 89  1  0  0  0  0
 36 90  1  0  0  0  0
 37 38  1  0  0  0  0
 37 39  2  0  0  0  0
 38 40  2  0  0  0  0
 39 41  1  0  0  0  0
 39 91  1  0  0  0  0
 40 41  1  0  0  0  0
 40 92  1  0  0  0  0
 41 93  1  0  0  0  0
 42 43  1  0  0  0  0
 42 94  1  0  0  0  0
 43 44  1  0  0  0  0
 43 46  1  0  0  0  0
 43 95  1  6  0  0  0
 44 45  2  0  0  0  0
 44 51  1  0  0  0  0
 46 47  1  0  0  0  0
 46 96  1  0  0  0  0
 46 97  1  0  0  0  0
 47 48  1  0  0  0  0
 47 98  1  0  0  0  0
 47 99  1  0  0  0  0
 48 49  1  0  0  0  0
 48 50  2  0  0  0  0
 51 52  1  0  0  0  0
 51100  1  0  0  0  0
 52 53  1  0  0  0  0
 52 55  1  0  0  0  0
 52101  1  1  0  0  0
 53 54  1  0  0  0  0
 53 56  2  0  0  0  0
 55102  1  0  0  0  0
 55103  1  0  0  0  0
 55104  1  0  0  0  0
M  CHG  4   1   1   8  -1  49  -1  54  -1
M  END
