3ezv_ligand
 OpenBabel08222323343D

 58 63  0  0  0  0  0  0  0  0999 V2000
   -1.3570   30.1410   10.0370 C   0  0  0  0  0  0  0  0  0  0  0  0
   -1.8950   31.4030    9.9820 C   0  0  0  0  0  0  0  0  0  0  0  0
   -1.3610   32.3680    9.1600 C   0  0  0  0  0  0  0  0  0  0  0  0
   -0.2810   31.9710    8.4140 C   0  0  0  0  0  0  0  0  0  0  0  0
    0.2860   30.7150    8.4700 C   0  0  0  0  0  0  0  0  0  0  0  0
   -0.2600   29.7550    9.3020 C   0  0  0  0  0  0  0  0  0  0  0  0
    0.4700   32.6760    7.5210 N   0  0  0  0  0  0  0  0  0  0  0  0
    1.4840   31.9770    6.9900 N   0  0  0  0  0  0  0  0  0  0  0  0
    1.3760   30.7730    7.5670 C   0  0  0  0  0  0  0  0  0  0  0  0
    2.3430   29.6880    7.2960 C   0  0  0  0  0  0  0  0  0  0  0  0
    3.3510   29.7990    6.4670 N   0  0  0  0  0  0  0  0  0  0  0  0
    4.0040   28.5970    6.5060 C   0  0  0  0  0  0  0  0  0  0  0  0
    3.3820   27.7380    7.3830 C   0  0  0  0  0  0  0  0  0  0  0  0
    2.3320   28.4520    7.8750 N   0  0  0  0  0  0  0  0  0  0  0  0
    5.1290   28.1940    5.8110 C   0  0  0  0  0  0  0  0  0  0  0  0
    5.5590   26.9120    6.0560 C   0  0  0  0  0  0  0  0  0  0  0  0
    4.9190   26.0740    6.9370 C   0  0  0  0  0  0  0  0  0  0  0  0
    3.8010   26.4550    7.6380 C   0  0  0  0  0  0  0  0  0  0  0  0
   -2.9750   31.7610   10.8590 C   0  0  0  0  0  0  0  0  0  0  0  0
    3.1440   25.6050    8.5300 N   0  0  0  0  0  0  0  0  0  0  0  0
    2.9180   26.3300    9.7550 C   0  0  0  0  0  0  0  0  0  0  0  0
    2.0220   25.4640   10.6060 C   0  0  0  0  0  0  0  0  0  0  0  0
    2.7380   24.1820   10.8440 N   0  3  0  0  0  0  0  0  0  0  0  0
    3.1180   23.4600    9.6020 C   0  0  0  0  0  0  0  0  0  0  0  0
    3.9120   24.3960    8.7210 C   0  0  0  0  0  0  0  0  0  0  0  0
    1.9710   23.3080   11.7600 C   0  0  0  0  0  0  0  0  0  0  0  0
   -3.9780   30.8940   11.2230 C   0  0  0  0  0  0  0  0  0  0  0  0
   -4.9490   31.2940   12.1130 C   0  0  0  0  0  0  0  0  0  0  0  0
   -4.9360   32.5620   12.6500 C   0  0  0  0  0  0  0  0  0  0  0  0
   -3.9340   33.4320   12.2830 C   0  0  0  0  0  0  0  0  0  0  0  0
   -2.9620   33.0240   11.4020 C   0  0  0  0  0  0  0  0  0  0  0  0
   -5.9220   32.9760   13.5650 N   0  0  0  0  0  0  0  0  0  0  0  0
   -1.8199   29.4122   10.6925 H   0  0  0  0  0  0  0  0  0  0  0  0
   -1.7656   33.3722    9.1057 H   0  0  0  0  0  0  0  0  0  0  0  0
    0.1529   28.7551    9.3712 H   0  0  0  0  0  0  0  0  0  0  0  0
    2.1816   32.2919    6.3007 H   0  0  0  0  0  0  0  0  0  0  0  0
    3.6011   30.6227    5.9013 H   0  0  0  0  0  0  0  0  0  0  0  0
    5.6407   28.8492    5.1153 H   0  0  0  0  0  0  0  0  0  0  0  0
    6.4367   26.5479    5.5343 H   0  0  0  0  0  0  0  0  0  0  0  0
    5.3113   25.0743    7.0844 H   0  0  0  0  0  0  0  0  0  0  0  0
    2.4273   27.2913    9.5427 H   0  0  0  0  0  0  0  0  0  0  0  0
    3.8724   26.5115   10.2708 H   0  0  0  0  0  0  0  0  0  0  0  0
    1.0743   25.2735   10.0810 H   0  0  0  0  0  0  0  0  0  0  0  0
    1.8164   25.9633   11.5643 H   0  0  0  0  0  0  0  0  0  0  0  0
    3.5991   24.4176   11.3120 H   0  0  0  0  0  0  0  0  0  0  0  0
    2.2114   23.1328    9.0719 H   0  0  0  0  0  0  0  0  0  0  0  0
    3.7307   22.5826    9.8566 H   0  0  0  0  0  0  0  0  0  0  0  0
    4.8703   24.6372    9.2041 H   0  0  0  0  0  0  0  0  0  0  0  0
    4.1016   23.9189    7.7482 H   0  0  0  0  0  0  0  0  0  0  0  0
    1.7057   23.8707   12.6672 H   0  0  0  0  0  0  0  0  0  0  0  0
    2.5841   22.4371   12.0350 H   0  0  0  0  0  0  0  0  0  0  0  0
    1.0533   22.9668   11.2586 H   0  0  0  0  0  0  0  0  0  0  0  0
   -4.0043   29.8929   10.8081 H   0  0  0  0  0  0  0  0  0  0  0  0
   -5.7342   30.6018   12.3948 H   0  0  0  0  0  0  0  0  0  0  0  0
   -3.9121   34.4371   12.6885 H   0  0  0  0  0  0  0  0  0  0  0  0
   -2.1693   33.7114   11.1297 H   0  0  0  0  0  0  0  0  0  0  0  0
   -6.6729   32.3274   13.8415 H   0  0  0  0  0  0  0  0  0  0  0  0
   -5.8927   33.9276   13.9582 H   0  0  0  0  0  0  0  0  0  0  0  0
  1  2  1  0  0  0  0
  1  6  2  0  0  0  0
  1 33  1  0  0  0  0
  2  3  2  0  0  0  0
  2 19  1  0  0  0  0
  3  4  1  0  0  0  0
  3 34  1  0  0  0  0
  4  5  1  0  0  0  0
  4  7  2  0  0  0  0
  5  6  1  0  0  0  0
  5  9  2  0  0  0  0
  6 35  1  0  0  0  0
  7  8  1  0  0  0  0
  8  9  1  0  0  0  0
  8 36  1  0  0  0  0
  9 10  1  0  0  0  0
 10 11  1  0  0  0  0
 10 14  2  0  0  0  0
 11 12  1  0  0  0  0
 11 37  1  0  0  0  0
 12 13  2  0  0  0  0
 12 15  1  0  0  0  0
 13 14  1  0  0  0  0
 13 18  1  0  0  0  0
 15 16  2  0  0  0  0
 15 38  1  0  0  0  0
 16 17  1  0  0  0  0
 16 39  1  0  0  0  0
 17 18  2  0  0  0  0
 17 40  1  0  0  0  0
 18 20  1  0  0  0  0
 19 27  2  0  0  0  0
 19 31  1  0  0  0  0
 20 21  1  0  0  0  0
 20 25  1  0  0  0  0
 21 22  1  0  0  0  0
 21 41  1  0  0  0  0
 21 42  1  0  0  0  0
 22 23  1  0  0  0  0
 22 43  1  0  0  0  0
 22 44  1  0  0  0  0
 23 24  1  0  0  0  0
 23 26  1  0  0  0  0
 23 45  1  0  0  0  0
 24 25  1  0  0  0  0
 24 46  1  0  0  0  0
 24 47  1  0  0  0  0
 25 48  1  0  0  0  0
 25 49  1  0  0  0  0
 26 50  1  0  0  0  0
 26 51  1  0  0  0  0
 26 52  1  0  0  0  0
 27 28  1  0  0  0  0
 27 53  1  0  0  0  0
 28 29  2  0  0  0  0
 28 54  1  0  0  0  0
 29 30  1  0  0  0  0
 29 32  1  0  0  0  0
 30 31  2  0  0  0  0
 30 55  1  0  0  0  0
 31 56  1  0  0  0  0
 32 57  1  0  0  0  0
 32 58  1  0  0  0  0
M  CHG  1  23   1
M  END
