3f3v_ligand
 OpenBabel08222323343D

 68 72  0  0  0  0  0  0  0  0999 V2000
  -11.0050   37.0580   -6.3800 C   0  0  0  0  0  0  0  0  0  0  0  0
   -9.7470   37.6040   -6.4520 C   0  0  0  0  0  0  0  0  0  0  0  0
   -8.7980   36.9380   -7.1820 C   0  0  0  0  0  0  0  0  0  0  0  0
   -9.1670   35.8230   -7.7430 N   0  0  0  0  0  0  0  0  0  0  0  0
  -11.2740   35.9340   -6.9890 N   0  0  0  0  0  0  0  0  0  0  0  0
    2.1150   35.7970   -9.2860 C   0  0  0  0  0  0  0  0  0  0  0  0
    2.0660   34.3150   -9.5840 C   0  0  0  0  0  0  0  0  0  0  0  0
    1.0700   33.5640   -9.0270 C   0  0  0  0  0  0  0  0  0  0  0  0
    3.0040   33.7670  -10.4080 C   0  0  0  0  0  0  0  0  0  0  0  0
    2.9720   32.4450  -10.6900 C   0  0  0  0  0  0  0  0  0  0  0  0
    1.9880   31.6870  -10.1390 C   0  0  0  0  0  0  0  0  0  0  0  0
    1.0400   32.2470   -9.3330 C   0  0  0  0  0  0  0  0  0  0  0  0
    0.1640   31.4620   -8.8120 N   0  0  0  0  0  0  0  0  0  0  0  0
    0.5300   30.4060   -8.3540 N   0  0  0  0  0  0  0  0  0  0  0  0
   -0.4940   29.8160   -7.8580 C   0  0  0  0  0  0  0  0  0  0  0  0
   -0.4440   28.4130   -7.2500 C   0  0  0  0  0  0  0  0  0  0  0  0
    0.9790   28.0920   -6.9270 C   0  0  0  0  0  0  0  0  0  0  0  0
   -1.2480   28.2390   -6.0230 C   0  0  0  0  0  0  0  0  0  0  0  0
   -1.0220   27.4540   -8.2480 C   0  0  0  0  0  0  0  0  0  0  0  0
   -1.5330   30.5910   -8.0430 C   0  0  0  0  0  0  0  0  0  0  0  0
   -1.0880   31.6680   -8.6140 C   0  0  0  0  0  0  0  0  0  0  0  0
   -1.7850   32.7080   -9.0140 N   0  0  0  0  0  0  0  0  0  0  0  0
   -2.8330   33.1740   -8.4240 C   0  0  0  0  0  0  0  0  0  0  0  0
   -3.1890   32.7220   -7.3730 O   0  0  0  0  0  0  0  0  0  0  0  0
   -3.4090   34.1660   -9.0420 N   0  0  0  0  0  0  0  0  0  0  0  0
   -4.4350   34.9190   -8.6220 C   0  0  0  0  0  0  0  0  0  0  0  0
   -5.2970   35.5370   -9.5100 C   0  0  0  0  0  0  0  0  0  0  0  0
   -6.3370   36.3370   -9.0800 C   0  0  0  0  0  0  0  0  0  0  0  0
   -4.6500   35.1690   -7.2910 C   0  0  0  0  0  0  0  0  0  0  0  0
   -5.6800   35.9640   -6.8690 C   0  0  0  0  0  0  0  0  0  0  0  0
   -6.5570   36.5590   -7.7520 C   0  0  0  0  0  0  0  0  0  0  0  0
   -7.5620   37.3420   -7.3330 N   0  0  0  0  0  0  0  0  0  0  0  0
   -9.5100   38.7770   -5.7910 C   0  0  0  0  0  0  0  0  0  0  0  0
  -10.5190   39.3810   -5.0700 C   0  0  0  0  0  0  0  0  0  0  0  0
  -10.3200   40.5050   -4.4220 N   0  0  0  0  0  0  0  0  0  0  0  0
  -11.7650   38.8160   -5.0140 C   0  0  0  0  0  0  0  0  0  0  0  0
  -12.0120   37.6510   -5.6720 C   0  0  0  0  0  0  0  0  0  0  0  0
  -10.3560   35.3310   -7.6420 C   0  0  0  0  0  0  0  0  0  0  0  0
    1.2892   36.0625   -8.6096 H   0  0  0  0  0  0  0  0  0  0  0  0
    2.0169   36.3631  -10.2240 H   0  0  0  0  0  0  0  0  0  0  0  0
    3.0744   36.0433   -8.8076 H   0  0  0  0  0  0  0  0  0  0  0  0
    0.3332   34.0060   -8.3662 H   0  0  0  0  0  0  0  0  0  0  0  0
    3.7775   34.3929  -10.8382 H   0  0  0  0  0  0  0  0  0  0  0  0
    3.7151   31.9995  -11.3414 H   0  0  0  0  0  0  0  0  0  0  0  0
    1.9557   30.6228  -10.3425 H   0  0  0  0  0  0  0  0  0  0  0  0
    1.0371   27.0852   -6.4878 H   0  0  0  0  0  0  0  0  0  0  0  0
    1.3670   28.8286   -6.2081 H   0  0  0  0  0  0  0  0  0  0  0  0
    1.5805   28.1258   -7.8473 H   0  0  0  0  0  0  0  0  0  0  0  0
   -2.3014   28.4708   -6.2390 H   0  0  0  0  0  0  0  0  0  0  0  0
   -0.8760   28.9179   -5.2415 H   0  0  0  0  0  0  0  0  0  0  0  0
   -1.1654   27.1988   -5.6749 H   0  0  0  0  0  0  0  0  0  0  0  0
   -0.4665   27.5305   -9.1943 H   0  0  0  0  0  0  0  0  0  0  0  0
   -2.0798   27.7000   -8.4229 H   0  0  0  0  0  0  0  0  0  0  0  0
   -0.9436   26.4282   -7.8588 H   0  0  0  0  0  0  0  0  0  0  0  0
   -2.5653   30.3748   -7.7717 H   0  0  0  0  0  0  0  0  0  0  0  0
   -1.4780   33.1758   -9.8428 H   0  0  0  0  0  0  0  0  0  0  0  0
   -3.0391   34.3941   -9.9426 H   0  0  0  0  0  0  0  0  0  0  0  0
   -5.1518   35.3890  -10.5740 H   0  0  0  0  0  0  0  0  0  0  0  0
   -6.9911   36.7974   -9.8115 H   0  0  0  0  0  0  0  0  0  0  0  0
   -3.9880   34.7261   -6.5558 H   0  0  0  0  0  0  0  0  0  0  0  0
   -5.8114   36.1319   -5.8062 H   0  0  0  0  0  0  0  0  0  0  0  0
   -7.3473   38.3257   -7.1158 H   0  0  0  0  0  0  0  0  0  0  0  0
   -8.5276   39.2332   -5.8336 H   0  0  0  0  0  0  0  0  0  0  0  0
  -11.0897   40.9364   -3.8907 H   0  0  0  0  0  0  0  0  0  0  0  0
   -9.3941   40.9557   -4.4448 H   0  0  0  0  0  0  0  0  0  0  0  0
  -12.5536   39.2963   -4.4461 H   0  0  0  0  0  0  0  0  0  0  0  0
  -12.9963   37.1985   -5.6350 H   0  0  0  0  0  0  0  0  0  0  0  0
  -10.5808   34.3853   -8.1218 H   0  0  0  0  0  0  0  0  0  0  0  0
  1  5  2  0  0  0  0
  1 37  1  0  0  0  0
  2  1  1  0  0  0  0
  2 33  1  0  0  0  0
  3  2  2  0  0  0  0
  3  4  1  0  0  0  0
  4 38  2  0  0  0  0
  6 39  1  0  0  0  0
  6 40  1  0  0  0  0
  6 41  1  0  0  0  0
  7  6  1  0  0  0  0
  7  9  1  0  0  0  0
  8  7  2  0  0  0  0
  8 42  1  0  0  0  0
  9 43  1  0  0  0  0
 10  9  2  0  0  0  0
 10 44  1  0  0  0  0
 11 10  1  0  0  0  0
 11 45  1  0  0  0  0
 12  8  1  0  0  0  0
 12 11  2  0  0  0  0
 13 12  1  0  0  0  0
 13 14  1  0  0  0  0
 15 14  2  0  0  0  0
 15 16  1  0  0  0  0
 16 17  1  0  0  0  0
 16 18  1  0  0  0  0
 16 19  1  0  0  0  0
 17 46  1  0  0  0  0
 17 47  1  0  0  0  0
 17 48  1  0  0  0  0
 18 49  1  0  0  0  0
 18 50  1  0  0  0  0
 18 51  1  0  0  0  0
 19 52  1  0  0  0  0
 19 53  1  0  0  0  0
 19 54  1  0  0  0  0
 20 15  1  0  0  0  0
 20 55  1  0  0  0  0
 21 13  1  0  0  0  0
 21 20  2  0  0  0  0
 22 21  1  0  0  0  0
 22 56  1  0  0  0  0
 23 22  1  0  0  0  0
 23 24  2  0  0  0  0
 25 23  1  0  0  0  0
 25 57  1  0  0  0  0
 26 25  1  0  0  0  0
 27 26  2  0  0  0  0
 27 58  1  0  0  0  0
 28 27  1  0  0  0  0
 28 59  1  0  0  0  0
 29 26  1  0  0  0  0
 29 60  1  0  0  0  0
 30 29  2  0  0  0  0
 30 61  1  0  0  0  0
 31 28  2  0  0  0  0
 31 30  1  0  0  0  0
 31 32  1  0  0  0  0
 32  3  1  0  0  0  0
 32 62  1  0  0  0  0
 33 34  2  0  0  0  0
 33 63  1  0  0  0  0
 34 35  1  0  0  0  0
 34 36  1  0  0  0  0
 35 64  1  0  0  0  0
 35 65  1  0  0  0  0
 36 37  2  0  0  0  0
 36 66  1  0  0  0  0
 37 67  1  0  0  0  0
 38  5  1  0  0  0  0
 38 68  1  0  0  0  0
M  END
