3f66_ligand
 OpenBabel08222323343D

 48 51  0  0  0  0  0  0  0  0999 V2000
   -1.2730  -19.8400   31.0320 C   0  0  0  0  0  0  0  0  0  0  0  0
   -1.3350  -21.2170   30.9190 C   0  0  0  0  0  0  0  0  0  0  0  0
   -1.3180  -19.0680   29.8830 C   0  0  0  0  0  0  0  0  0  0  0  0
   -1.4740  -21.8150   29.6760 C   0  0  0  0  0  0  0  0  0  0  0  0
   -1.4340  -19.6750   28.6330 C   0  0  0  0  0  0  0  0  0  0  0  0
   -1.5140  -21.0620   28.5160 C   0  0  0  0  0  0  0  0  0  0  0  0
   -1.5620  -23.2760   29.6370 C   0  0  0  0  0  0  0  0  0  0  0  0
   -0.8940  -24.0720   28.7190 C   0  0  0  0  0  0  0  0  0  0  0  0
   -2.4040  -23.8800   30.5600 C   0  0  0  0  0  0  0  0  0  0  0  0
   -2.5700  -25.2610   30.5600 C   0  0  0  0  0  0  0  0  0  0  0  0
    0.6150  -24.3380   26.9130 C   0  0  0  0  0  0  0  0  0  0  0  0
    0.4480  -25.7090   27.0320 C   0  0  0  0  0  0  0  0  0  0  0  0
    1.4250  -23.7200   25.9600 N   0  0  0  0  0  0  0  0  0  0  0  0
    3.4040  -23.8820   24.4200 C   0  0  0  0  0  0  0  0  0  0  0  0
    1.5200  -22.2460   25.9290 C   0  0  0  0  0  0  0  0  0  0  0  0
   -4.5530  -25.1880   31.8050 F   0  0  0  0  0  0  0  0  0  0  0  0
   -3.4430  -25.8770   31.6180 C   0  0  0  0  0  0  0  0  0  0  0  0
   -2.7630  -25.7790   32.7710 F   0  0  0  0  0  0  0  0  0  0  0  0
   -3.7730  -27.1450   31.3940 F   0  0  0  0  0  0  0  0  0  0  0  0
   -1.4640  -18.9110   27.5140 O   0  0  0  0  0  0  0  0  0  0  0  0
   -1.8970  -26.0450   29.6890 C   0  0  0  0  0  0  0  0  0  0  0  0
   -1.0550  -25.4600   28.7760 C   0  0  0  0  0  0  0  0  0  0  0  0
   -0.3800  -26.2800   27.9430 N   0  0  0  0  0  0  0  0  0  0  0  0
   -0.0500  -23.5130   27.7810 N   0  0  0  0  0  0  0  0  0  0  0  0
    2.7810  -21.6770   25.2400 C   0  0  0  0  0  0  0  0  0  0  0  0
    3.2360  -22.4640   24.0730 N   0  3  0  0  0  0  0  0  0  0  0  0
    4.5280  -21.9420   23.6090 C   0  0  0  0  0  0  0  0  0  0  0  0
    2.0680  -24.4680   24.8500 C   0  0  0  0  0  0  0  0  0  0  0  0
   -1.1904  -19.3716   32.0061 H   0  0  0  0  0  0  0  0  0  0  0  0
   -1.2745  -21.8332   31.8088 H   0  0  0  0  0  0  0  0  0  0  0  0
   -1.2628  -17.9878   29.9557 H   0  0  0  0  0  0  0  0  0  0  0  0
   -1.6048  -21.5361   27.5454 H   0  0  0  0  0  0  0  0  0  0  0  0
   -2.9348  -23.2728   31.2843 H   0  0  0  0  0  0  0  0  0  0  0  0
    1.0058  -26.3563   26.3650 H   0  0  0  0  0  0  0  0  0  0  0  0
    4.1255  -23.9732   25.2453 H   0  0  0  0  0  0  0  0  0  0  0  0
    3.7784  -24.4308   23.5433 H   0  0  0  0  0  0  0  0  0  0  0  0
    1.5079  -21.8833   26.9674 H   0  0  0  0  0  0  0  0  0  0  0  0
    0.6387  -21.8603   25.3956 H   0  0  0  0  0  0  0  0  0  0  0  0
   -0.7326  -19.1430   26.9538 H   0  0  0  0  0  0  0  0  0  0  0  0
   -2.0204  -27.1217   29.7109 H   0  0  0  0  0  0  0  0  0  0  0  0
    3.5961  -21.6502   25.9781 H   0  0  0  0  0  0  0  0  0  0  0  0
    2.5587  -20.6541   24.9019 H   0  0  0  0  0  0  0  0  0  0  0  0
    2.5540  -22.3820   23.3353 H   0  0  0  0  0  0  0  0  0  0  0  0
    4.8688  -22.5255   22.7410 H   0  0  0  0  0  0  0  0  0  0  0  0
    5.2682  -22.0228   24.4186 H   0  0  0  0  0  0  0  0  0  0  0  0
    4.4146  -20.8868   23.3197 H   0  0  0  0  0  0  0  0  0  0  0  0
    1.3890  -24.4595   23.9846 H   0  0  0  0  0  0  0  0  0  0  0  0
    2.2317  -25.5053   25.1775 H   0  0  0  0  0  0  0  0  0  0  0  0
  1  3  1  0  0  0  0
  1 29  1  0  0  0  0
  2  1  2  0  0  0  0
  2 30  1  0  0  0  0
  3 31  1  0  0  0  0
  4  2  1  0  0  0  0
  4  6  2  0  0  0  0
  5  3  2  0  0  0  0
  5 20  1  0  0  0  0
  6  5  1  0  0  0  0
  6 32  1  0  0  0  0
  7  4  1  0  0  0  0
  7  9  1  0  0  0  0
  8  7  2  0  0  0  0
  8 22  1  0  0  0  0
  9 10  2  0  0  0  0
  9 33  1  0  0  0  0
 10 17  1  0  0  0  0
 10 21  1  0  0  0  0
 11 12  1  0  0  0  0
 11 24  2  0  0  0  0
 12 23  2  0  0  0  0
 12 34  1  0  0  0  0
 13 11  1  0  0  0  0
 13 15  1  0  0  0  0
 14 26  1  0  0  0  0
 14 28  1  0  0  0  0
 14 35  1  0  0  0  0
 14 36  1  0  0  0  0
 15 25  1  0  0  0  0
 15 37  1  0  0  0  0
 15 38  1  0  0  0  0
 17 16  1  0  0  0  0
 17 18  1  0  0  0  0
 17 19  1  0  0  0  0
 20 39  1  0  0  0  0
 21 22  2  0  0  0  0
 21 40  1  0  0  0  0
 22 23  1  0  0  0  0
 24  8  1  0  0  0  0
 25 26  1  0  0  0  0
 25 41  1  0  0  0  0
 25 42  1  0  0  0  0
 26 27  1  0  0  0  0
 26 43  1  0  0  0  0
 27 44  1  0  0  0  0
 27 45  1  0  0  0  0
 27 46  1  0  0  0  0
 28 13  1  0  0  0  0
 28 47  1  0  0  0  0
 28 48  1  0  0  0  0
M  CHG  1  26   1
M  END
