3f88_ligand
 OpenBabel08222323343D

 35 38  0  0  0  0  0  0  0  0999 V2000
    4.1670  -14.3600   32.5100 C   0  0  0  0  0  0  0  0  0  0  0  0
    4.1380  -13.9590   33.8450 C   0  0  0  0  0  0  0  0  0  0  0  0
    5.0490  -14.3420   34.8370 C   0  0  0  0  0  0  0  0  0  0  0  0
    6.0660  -15.1780   34.3760 C   0  0  0  0  0  0  0  0  0  0  0  0
    6.1360  -15.6100   33.0360 C   0  0  0  0  0  0  0  0  0  0  0  0
    3.6740  -14.0180   36.6710 C   0  0  0  0  0  0  0  0  0  0  0  0
    5.5120  -12.0330   38.9920 C   0  0  0  0  0  0  0  0  0  0  0  0
    7.5190  -11.8660   37.6910 C   0  0  0  0  0  0  0  0  0  0  0  0
    5.6800  -13.0980   36.8050 C   0  0  0  0  0  0  0  0  0  0  0  0
   10.9250  -11.2970   36.9610 C   0  0  0  0  0  0  0  0  0  0  0  0
   12.4110  -11.7090   36.1890 S   0  0  0  0  0  0  0  0  0  0  0  0
   10.7810  -10.2230   37.7490 N   0  0  0  0  0  0  0  0  0  0  0  0
    9.4310  -10.2900   38.1300 N   0  0  0  0  0  0  0  0  0  0  0  0
    9.8300  -12.0640   36.8050 O   0  0  0  0  0  0  0  0  0  0  0  0
    8.8940  -11.3910   37.5420 C   0  0  0  0  0  0  0  0  0  0  0  0
    6.8120  -11.5690   38.8550 C   0  0  0  0  0  0  0  0  0  0  0  0
    6.9810  -12.6260   36.6690 C   0  0  0  0  0  0  0  0  0  0  0  0
    4.9520  -12.8070   37.9670 C   0  0  0  0  0  0  0  0  0  0  0  0
    3.7340  -13.3880   37.8590 N   0  0  0  0  0  0  0  0  0  0  0  0
    4.8580  -13.8620   36.0830 N   0  0  0  0  0  0  0  0  0  0  0  0
    5.1840  -15.2040   32.0890 C   0  0  0  0  0  0  0  0  0  0  0  0
    5.2100  -15.5810   30.7640 O   0  0  0  0  0  0  0  0  0  0  0  0
    5.9440  -16.7150   30.2970 C   0  0  0  0  0  0  0  0  0  0  0  0
    3.4091  -14.0186   31.8142 H   0  0  0  0  0  0  0  0  0  0  0  0
    3.3380  -13.2904   34.1418 H   0  0  0  0  0  0  0  0  0  0  0  0
    6.8289  -15.5069   35.0723 H   0  0  0  0  0  0  0  0  0  0  0  0
    6.9412  -16.2688   32.7314 H   0  0  0  0  0  0  0  0  0  0  0  0
    2.8172  -14.5549   36.2666 H   0  0  0  0  0  0  0  0  0  0  0  0
    4.9367  -11.7998   39.8806 H   0  0  0  0  0  0  0  0  0  0  0  0
   11.4667   -9.5410   38.0034 H   0  0  0  0  0  0  0  0  0  0  0  0
    7.2720  -10.9832   39.6426 H   0  0  0  0  0  0  0  0  0  0  0  0
    7.5609  -12.8492   35.7807 H   0  0  0  0  0  0  0  0  0  0  0  0
    5.8130  -16.8140   29.2093 H   0  0  0  0  0  0  0  0  0  0  0  0
    5.5726  -17.6227   30.7951 H   0  0  0  0  0  0  0  0  0  0  0  0
    7.0113  -16.5811   30.5270 H   0  0  0  0  0  0  0  0  0  0  0  0
  1 21  1  0  0  0  0
  1 24  1  0  0  0  0
  2  1  2  0  0  0  0
  2 25  1  0  0  0  0
  3  2  1  0  0  0  0
  3  4  2  0  0  0  0
  4  5  1  0  0  0  0
  4 26  1  0  0  0  0
  5 21  2  0  0  0  0
  5 27  1  0  0  0  0
  6 19  2  0  0  0  0
  6 28  1  0  0  0  0
  7 18  1  0  0  0  0
  7 29  1  0  0  0  0
  8 16  1  0  0  0  0
  8 17  2  0  0  0  0
  9 18  2  0  0  0  0
  9 20  1  0  0  0  0
 10 11  2  0  0  0  0
 10 14  1  0  0  0  0
 12 10  1  0  0  0  0
 12 30  1  0  0  0  0
 13 12  1  0  0  0  0
 13 15  2  0  0  0  0
 14 15  1  0  0  0  0
 15  8  1  0  0  0  0
 16  7  2  0  0  0  0
 16 31  1  0  0  0  0
 17  9  1  0  0  0  0
 17 32  1  0  0  0  0
 18 19  1  0  0  0  0
 20  3  1  0  0  0  0
 20  6  1  0  0  0  0
 21 22  1  0  0  0  0
 22 23  1  0  0  0  0
 23 33  1  0  0  0  0
 23 34  1  0  0  0  0
 23 35  1  0  0  0  0
M  END
