3f8w_ligand
 OpenBabel08222323343D

 35 37  0  0  1  0  0  0  0  0999 V2000
   18.3920   25.7370    7.1700 O   0  0  0  0  0  0  0  0  0  0  0  0
   18.9620   25.6790    8.4690 C   0  0  0  0  0  0  0  0  0  0  0  0
   19.4330   27.0990    8.8990 C   0  0  1  0  0  0  0  0  0  0  0  0
   18.3010   27.9950    8.7660 O   0  0  0  0  0  0  0  0  0  0  0  0
   19.8130   27.1670   10.3990 C   0  0  1  0  0  0  0  0  0  0  0  0
   20.7130   28.2440   10.5830 O   0  0  0  0  0  0  0  0  0  0  0  0
   18.4920   27.3630   11.1470 C   0  0  1  0  0  0  0  0  0  0  0  0
   18.5650   28.3600   12.1310 O   0  0  0  0  0  0  0  0  0  0  0  0
   17.5470   27.8320   10.0080 C   0  0  2  0  0  0  0  0  0  0  0  0
   16.4110   26.9470    9.7080 N   0  0  0  0  0  0  0  0  0  0  0  0
   15.6300   26.9880    8.4100 C   0  0  0  0  0  0  0  0  0  0  0  0
   14.5700   25.9450    8.5290 N   0  0  0  0  0  0  0  0  0  0  0  0
   14.6860   25.2770    9.8750 C   0  0  0  0  0  0  0  0  0  0  0  0
   13.8910   24.1180   10.5280 C   0  0  2  0  0  0  0  0  0  0  0  0
   12.7570   23.5150    9.8300 N   0  3  0  0  0  0  0  0  0  0  0  0
   14.2630   23.6460   11.8380 N   0  0  0  0  0  0  0  0  0  0  0  0
   15.4250   24.2900   12.5950 C   0  0  0  0  0  0  0  0  0  0  0  0
   16.2150   25.4160   11.9480 N   0  0  0  0  0  0  0  0  0  0  0  0
   15.8380   25.8860   10.5960 C   0  0  0  0  0  0  0  0  0  0  0  0
   18.1061   24.8686    6.9118 H   0  0  0  0  0  0  0  0  0  0  0  0
   19.8235   24.9951    8.4601 H   0  0  0  0  0  0  0  0  0  0  0  0
   18.2096   25.3117    9.1824 H   0  0  0  0  0  0  0  0  0  0  0  0
   20.2780   27.4201    8.2722 H   0  0  0  0  0  0  0  0  0  0  0  0
   20.2923   26.2318   10.7239 H   0  0  0  0  0  0  0  0  0  0  0  0
   21.4902   28.0992   10.0564 H   0  0  0  0  0  0  0  0  0  0  0  0
   18.1502   26.4208   11.6002 H   0  0  0  0  0  0  0  0  0  0  0  0
   18.7941   29.1878   11.7251 H   0  0  0  0  0  0  0  0  0  0  0  0
   17.1394   28.8087   10.3078 H   0  0  0  0  0  0  0  0  0  0  0  0
   15.8070   27.6465    7.5609 H   0  0  0  0  0  0  0  0  0  0  0  0
   14.5694   23.3861   10.0652 H   0  0  0  0  0  0  0  0  0  0  0  0
   12.3631   22.7823   10.3993 H   0  0  0  0  0  0  0  0  0  0  0  0
   13.0693   23.1280    8.9532 H   0  0  0  0  0  0  0  0  0  0  0  0
   12.0566   24.2188    9.6562 H   0  0  0  0  0  0  0  0  0  0  0  0
   13.7418   22.8685   12.2678 H   0  0  0  0  0  0  0  0  0  0  0  0
   15.6856   23.9433   13.5939 H   0  0  0  0  0  0  0  0  0  0  0  0
  1  2  1  0  0  0  0
  1 20  1  0  0  0  0
  2  3  1  0  0  0  0
  2 21  1  0  0  0  0
  2 22  1  0  0  0  0
  3  4  1  0  0  0  0
  3  5  1  0  0  0  0
  3 23  1  6  0  0  0
  4  9  1  0  0  0  0
  5  6  1  0  0  0  0
  5  7  1  0  0  0  0
  5 24  1  1  0  0  0
  6 25  1  0  0  0  0
  7  8  1  0  0  0  0
  7  9  1  0  0  0  0
  7 26  1  1  0  0  0
  8 27  1  0  0  0  0
  9 10  1  0  0  0  0
  9 28  1  1  0  0  0
 10 11  1  0  0  0  0
 10 19  1  0  0  0  0
 11 12  2  0  0  0  0
 11 29  1  0  0  0  0
 12 13  1  0  0  0  0
 13 14  1  0  0  0  0
 13 19  2  0  0  0  0
 14 15  1  0  0  0  0
 14 16  1  0  0  0  0
 14 30  1  6  0  0  0
 15 31  1  0  0  0  0
 15 32  1  0  0  0  0
 15 33  1  0  0  0  0
 16 17  1  0  0  0  0
 16 34  1  0  0  0  0
 17 18  2  0  0  0  0
 17 35  1  0  0  0  0
 18 19  1  0  0  0  0
M  CHG  1  15   1
M  END
