3f9n_ligand
 OpenBabel08222323343D

 74 78  0  0  1  0  0  0  0  0999 V2000
   21.9150  -10.0200   26.5790 C   0  0  0  0  0  0  0  0  0  0  0  0
   22.7720  -10.4020   27.6140 C   0  0  0  0  0  0  0  0  0  0  0  0
   24.0580   -9.8790   27.6790 C   0  0  0  0  0  0  0  0  0  0  0  0
   24.4750   -8.9320   26.7520 C   0  0  0  0  0  0  0  0  0  0  0  0
   23.6520   -8.5590   25.7450 C   0  0  0  0  0  0  0  0  0  0  0  0
   22.3450   -9.1150   25.6140 C   0  0  0  0  0  0  0  0  0  0  0  0
   24.1370   -7.5530   24.7720 C   0  0  0  0  0  0  0  0  0  0  0  0
   23.3920   -7.1880   23.8960 O   0  0  0  0  0  0  0  0  0  0  0  0
   25.4080   -7.0150   24.9700 N   0  0  0  0  0  4  0  0  0  0  0  0
   25.7400   -8.3660   26.8550 N   0  0  0  0  0  0  0  0  0  0  0  0
   26.1610   -7.4120   25.9810 C   0  0  0  0  0  0  0  0  0  0  0  0
   27.7240   -6.6650   26.1310 S   0  0  0  0  0  0  0  0  0  0  0  0
   28.6690   -7.5120   27.3140 C   0  0  2  0  0  0  0  0  0  0  0  0
   27.9600   -7.4310   28.6900 C   0  0  0  0  0  0  0  0  0  0  0  0
   29.9630   -6.7130   27.2780 C   0  0  0  0  0  0  0  0  0  0  0  0
   27.6000   -6.3540   29.1270 O   0  0  0  0  0  0  0  0  0  0  0  0
   27.7420   -8.5720   29.4400 N   0  0  0  0  0  0  0  0  0  0  0  0
   31.1220   -7.4690   27.8670 C   0  0  0  0  0  0  0  0  0  0  0  0
   32.4240   -6.6460   27.7490 C   0  0  0  0  0  0  0  0  0  0  0  0
   32.6760   -5.8450   29.0350 C   0  0  0  0  0  0  0  0  0  0  0  0
   28.1920   -9.8760   28.9430 C   0  0  0  0  0  0  0  0  0  0  0  0
   29.3320  -10.3090   29.9030 C   0  0  0  0  0  0  0  0  0  0  0  0
   28.9650  -10.1700   31.4080 C   0  0  0  0  0  0  0  0  0  0  0  0
   28.1280   -8.9390   31.8260 C   0  0  2  0  0  0  0  0  0  0  0  0
   27.0810   -8.5550   30.7810 C   0  0  0  0  0  0  0  0  0  0  0  0
   29.1460   -7.8310   32.0880 C   0  0  0  0  0  0  0  0  0  0  0  0
   27.4370   -9.2580   33.1920 C   0  0  0  0  0  0  0  0  0  0  0  0
   26.8430   -8.0120   33.8000 C   0  0  0  0  0  0  0  0  0  0  0  0
   28.6570   -6.6580   32.8550 N   0  3  0  0  0  0  0  0  0  0  0  0
   27.9920   -7.0720   34.1610 C   0  0  0  0  0  0  0  0  0  0  0  0
   25.8180   -6.0450   24.1030 C   0  0  0  0  0  0  0  0  0  0  0  0
   26.9190   -6.1850   23.2330 C   0  0  0  0  0  0  0  0  0  0  0  0
   27.2750   -5.1640   22.3420 C   0  0  0  0  0  0  0  0  0  0  0  0
   26.5520   -3.9640   22.3130 C   0  0  0  0  0  0  0  0  0  0  0  0
   25.4750   -3.8430   23.1740 C   0  0  0  0  0  0  0  0  0  0  0  0
   25.0790   -4.8660   24.0640 C   0  0  0  0  0  0  0  0  0  0  0  0
   24.5440   -2.3910   23.1880 Cl  0  0  0  0  0  0  0  0  0  0  0  0
   20.9127  -10.4297   26.5277 H   0  0  0  0  0  0  0  0  0  0  0  0
   22.4342  -11.1059   28.3660 H   0  0  0  0  0  0  0  0  0  0  0  0
   24.7377  -10.2110   28.4554 H   0  0  0  0  0  0  0  0  0  0  0  0
   21.7038   -8.8396   24.7845 H   0  0  0  0  0  0  0  0  0  0  0  0
   26.3714   -8.6748   27.6079 H   0  0  0  0  0  0  0  0  0  0  0  0
   28.8355   -8.5639   27.0388 H   0  0  0  0  0  0  0  0  0  0  0  0
   29.8204   -5.7842   27.8498 H   0  0  0  0  0  0  0  0  0  0  0  0
   30.1971   -6.4672   26.2317 H   0  0  0  0  0  0  0  0  0  0  0  0
   31.2452   -8.4197   27.3276 H   0  0  0  0  0  0  0  0  0  0  0  0
   30.9184   -7.6733   28.9285 H   0  0  0  0  0  0  0  0  0  0  0  0
   32.3364   -5.9505   26.9013 H   0  0  0  0  0  0  0  0  0  0  0  0
   33.2690   -7.3289   27.5772 H   0  0  0  0  0  0  0  0  0  0  0  0
   33.6060   -5.2670   28.9306 H   0  0  0  0  0  0  0  0  0  0  0  0
   32.7676   -6.5364   29.8856 H   0  0  0  0  0  0  0  0  0  0  0  0
   31.8350   -5.1579   29.2098 H   0  0  0  0  0  0  0  0  0  0  0  0
   28.5685   -9.7869   27.9133 H   0  0  0  0  0  0  0  0  0  0  0  0
   27.3679  -10.6041   28.9704 H   0  0  0  0  0  0  0  0  0  0  0  0
   30.2135   -9.6829   29.7008 H   0  0  0  0  0  0  0  0  0  0  0  0
   29.5760  -11.3623   29.7004 H   0  0  0  0  0  0  0  0  0  0  0  0
   29.9067  -10.1366   31.9755 H   0  0  0  0  0  0  0  0  0  0  0  0
   28.3966  -11.0675   31.6932 H   0  0  0  0  0  0  0  0  0  0  0  0
   26.2527   -9.2786   30.7986 H   0  0  0  0  0  0  0  0  0  0  0  0
   26.6928   -7.5480   30.9936 H   0  0  0  0  0  0  0  0  0  0  0  0
   29.5053   -7.4684   31.1136 H   0  0  0  0  0  0  0  0  0  0  0  0
   29.9846   -8.2714   32.6473 H   0  0  0  0  0  0  0  0  0  0  0  0
   28.1832   -9.6756   33.8840 H   0  0  0  0  0  0  0  0  0  0  0  0
   26.6369   -9.9947   33.0273 H   0  0  0  0  0  0  0  0  0  0  0  0
   26.2746   -8.2722   34.7051 H   0  0  0  0  0  0  0  0  0  0  0  0
   26.1749   -7.5243   33.0749 H   0  0  0  0  0  0  0  0  0  0  0  0
   27.9872   -6.1569   32.2926 H   0  0  0  0  0  0  0  0  0  0  0  0
   29.4381   -6.0560   33.0634 H   0  0  0  0  0  0  0  0  0  0  0  0
   28.7165   -7.5913   34.8055 H   0  0  0  0  0  0  0  0  0  0  0  0
   27.6045   -6.1858   34.6849 H   0  0  0  0  0  0  0  0  0  0  0  0
   27.5007   -7.0995   23.2540 H   0  0  0  0  0  0  0  0  0  0  0  0
   28.1149   -5.3032   21.6710 H   0  0  0  0  0  0  0  0  0  0  0  0
   26.8263   -3.1594   21.6404 H   0  0  0  0  0  0  0  0  0  0  0  0
   24.2149   -4.7352   24.7053 H   0  0  0  0  0  0  0  0  0  0  0  0
  1  2  2  0  0  0  0
  1  6  1  0  0  0  0
  1 38  1  0  0  0  0
  2  3  1  0  0  0  0
  2 39  1  0  0  0  0
  3  4  2  0  0  0  0
  3 40  1  0  0  0  0
  4  5  1  0  0  0  0
  4 10  1  0  0  0  0
  5  6  2  0  0  0  0
  5  7  1  0  0  0  0
  6 41  1  0  0  0  0
  7  8  2  0  0  0  0
  7  9  1  0  0  0  0
  9 11  2  0  0  0  0
  9 31  1  0  0  0  0
 10 11  1  0  0  0  0
 10 42  1  0  0  0  0
 11 12  1  0  0  0  0
 12 13  1  0  0  0  0
 13 14  1  0  0  0  0
 13 15  1  0  0  0  0
 13 43  1  6  0  0  0
 14 16  2  0  0  0  0
 14 17  1  0  0  0  0
 15 18  1  0  0  0  0
 15 44  1  0  0  0  0
 15 45  1  0  0  0  0
 17 21  1  0  0  0  0
 17 25  1  0  0  0  0
 18 19  1  0  0  0  0
 18 46  1  0  0  0  0
 18 47  1  0  0  0  0
 19 20  1  0  0  0  0
 19 48  1  0  0  0  0
 19 49  1  0  0  0  0
 20 50  1  0  0  0  0
 20 51  1  0  0  0  0
 20 52  1  0  0  0  0
 21 22  1  0  0  0  0
 21 53  1  0  0  0  0
 21 54  1  0  0  0  0
 22 23  1  0  0  0  0
 22 55  1  0  0  0  0
 22 56  1  0  0  0  0
 23 57  1  0  0  0  0
 23 58  1  0  0  0  0
 24 23  1  6  0  0  0
 24 25  1  0  0  0  0
 24 26  1  0  0  0  0
 24 27  1  0  0  0  0
 25 59  1  0  0  0  0
 25 60  1  0  0  0  0
 26 29  1  0  0  0  0
 26 61  1  0  0  0  0
 26 62  1  0  0  0  0
 27 28  1  0  0  0  0
 27 63  1  0  0  0  0
 27 64  1  0  0  0  0
 28 30  1  0  0  0  0
 28 65  1  0  0  0  0
 28 66  1  0  0  0  0
 29 30  1  0  0  0  0
 29 67  1  0  0  0  0
 29 68  1  0  0  0  0
 30 69  1  0  0  0  0
 30 70  1  0  0  0  0
 31 32  2  0  0  0  0
 31 36  1  0  0  0  0
 32 33  1  0  0  0  0
 32 71  1  0  0  0  0
 33 34  2  0  0  0  0
 33 72  1  0  0  0  0
 34 35  1  0  0  0  0
 34 73  1  0  0  0  0
 35 36  2  0  0  0  0
 35 37  1  0  0  0  0
 36 74  1  0  0  0  0
M  CHG  1  29   1
M  END
