3faa_ligand
 OpenBabel08222323343D

 42 45  0  0  0  0  0  0  0  0999 V2000
   75.0700   22.1240   96.0950 C   0  0  0  0  0  0  0  0  0  0  0  0
   74.0740   22.8710   96.7350 C   0  0  0  0  0  0  0  0  0  0  0  0
   73.6510   24.0830   96.2550 N   0  0  0  0  0  0  0  0  0  0  0  0
   74.2380   24.5440   95.1160 C   0  0  0  0  0  0  0  0  0  0  0  0
   75.2760   23.7680   94.4430 C   0  0  0  0  0  0  0  0  0  0  0  0
   75.6780   22.5660   94.9450 N   0  0  0  0  0  0  0  0  0  0  0  0
   73.8420   25.7790   94.5770 C   0  0  0  0  0  0  0  0  0  0  0  0
   74.4390   26.2720   93.3870 C   0  0  0  0  0  0  0  0  0  0  0  0
   75.4570   25.5190   92.7190 C   0  0  0  0  0  0  0  0  0  0  0  0
   75.8620   24.2700   93.2650 C   0  0  0  0  0  0  0  0  0  0  0  0
   76.0780   26.0040   91.4940 C   0  0  0  0  0  0  0  0  0  0  0  0
   76.5180   27.2440   91.0120 C   0  0  0  0  0  0  0  0  0  0  0  0
   77.0340   27.0880   89.7450 N   0  0  0  0  0  0  0  0  0  0  0  0
   76.9340   25.8290   89.4340 C   0  0  0  0  0  0  0  0  0  0  0  0
   76.3610   25.1360   90.4650 N   0  0  0  0  0  0  0  0  0  0  0  0
   76.5020   28.5700   91.6410 C   0  0  0  0  0  0  0  0  0  0  0  0
   76.7760   28.7250   93.0200 C   0  0  0  0  0  0  0  0  0  0  0  0
   76.7570   30.0050   93.5840 C   0  0  0  0  0  0  0  0  0  0  0  0
   76.4690   31.1050   92.7810 C   0  0  0  0  0  0  0  0  0  0  0  0
   76.2090   30.9080   91.4150 C   0  0  0  0  0  0  0  0  0  0  0  0
   76.2210   29.6490   90.8390 N   0  0  0  0  0  0  0  0  0  0  0  0
   77.3230   25.2050   88.2690 N   0  0  0  0  0  0  0  0  0  0  0  0
   75.9020   32.0800   90.5300 C   0  0  0  0  0  0  0  0  0  0  0  0
   76.4490   32.3190   93.3170 F   0  0  0  0  0  0  0  0  0  0  0  0
   77.7870   23.8930   88.2350 C   0  0  0  0  0  0  0  0  0  0  0  0
   77.9240   23.1010   89.1740 O   0  0  0  0  0  0  0  0  0  0  0  0
   78.1420   23.4720   86.8300 C   0  0  0  0  0  0  0  0  0  0  0  0
   75.3694   21.1718   96.5179 H   0  0  0  0  0  0  0  0  0  0  0  0
   73.6229   22.4783   97.6391 H   0  0  0  0  0  0  0  0  0  0  0  0
   73.0740   26.3607   95.0738 H   0  0  0  0  0  0  0  0  0  0  0  0
   74.1216   27.2257   92.9811 H   0  0  0  0  0  0  0  0  0  0  0  0
   76.6341   23.6952   92.7665 H   0  0  0  0  0  0  0  0  0  0  0  0
   77.4274   27.8324   89.1517 H   0  0  0  0  0  0  0  0  0  0  0  0
   76.9986   27.8599   93.6341 H   0  0  0  0  0  0  0  0  0  0  0  0
   76.9652   30.1394   94.6393 H   0  0  0  0  0  0  0  0  0  0  0  0
   77.2698   25.7163   87.4113 H   0  0  0  0  0  0  0  0  0  0  0  0
   75.7282   31.7279   89.5025 H   0  0  0  0  0  0  0  0  0  0  0  0
   76.7513   32.7789   90.5393 H   0  0  0  0  0  0  0  0  0  0  0  0
   75.0014   32.5924   90.8993 H   0  0  0  0  0  0  0  0  0  0  0  0
   78.5040   22.4333   86.8389 H   0  0  0  0  0  0  0  0  0  0  0  0
   78.9300   24.1316   86.4376 H   0  0  0  0  0  0  0  0  0  0  0  0
   77.2507   23.5441   86.1893 H   0  0  0  0  0  0  0  0  0  0  0  0
  1  2  2  0  0  0  0
  1  6  1  0  0  0  0
  1 28  1  0  0  0  0
  2  3  1  0  0  0  0
  2 29  1  0  0  0  0
  3  4  2  0  0  0  0
  4  5  1  0  0  0  0
  4  7  1  0  0  0  0
  5  6  2  0  0  0  0
  5 10  1  0  0  0  0
  7  8  2  0  0  0  0
  7 30  1  0  0  0  0
  8  9  1  0  0  0  0
  8 31  1  0  0  0  0
  9 10  2  0  0  0  0
  9 11  1  0  0  0  0
 10 32  1  0  0  0  0
 11 12  2  0  0  0  0
 11 15  1  0  0  0  0
 12 13  1  0  0  0  0
 12 16  1  0  0  0  0
 13 14  1  0  0  0  0
 13 33  1  0  0  0  0
 14 15  2  0  0  0  0
 14 22  1  0  0  0  0
 16 17  2  0  0  0  0
 16 21  1  0  0  0  0
 17 18  1  0  0  0  0
 17 34  1  0  0  0  0
 18 19  2  0  0  0  0
 18 35  1  0  0  0  0
 19 20  1  0  0  0  0
 19 24  1  0  0  0  0
 20 21  2  0  0  0  0
 20 23  1  0  0  0  0
 22 25  1  0  0  0  0
 22 36  1  0  0  0  0
 23 37  1  0  0  0  0
 23 38  1  0  0  0  0
 23 39  1  0  0  0  0
 25 26  2  0  0  0  0
 25 27  1  0  0  0  0
 27 40  1  0  0  0  0
 27 41  1  0  0  0  0
 27 42  1  0  0  0  0
M  END
