3fc2_ligand
 OpenBabel08222323343D

 97102  0  0  1  0  0  0  0  0999 V2000
   51.3340   -0.9140    9.5630 C   0  0  0  0  0  0  0  0  0  0  0  0
   52.2400    0.2950    9.2360 C   0  0  0  0  0  0  0  0  0  0  0  0
   53.1760   -2.0350   10.6170 C   0  0  0  0  0  0  0  0  0  0  0  0
   54.1060   -0.8360   10.3100 C   0  0  0  0  0  0  0  0  0  0  0  0
   49.3040   -4.8030    8.6510 C   0  0  0  0  0  0  0  0  0  0  0  0
   50.0260   -3.4450    8.8300 C   0  0  0  0  0  0  0  0  0  0  0  0
   51.3230   -6.0230    9.2350 C   0  0  0  0  0  0  0  0  0  0  0  0
   52.1330   -4.7060    9.4000 C   0  0  0  0  0  0  0  0  0  0  0  0
   47.2310   -9.3550    7.9190 C   0  0  0  0  0  0  0  0  0  0  0  0
   47.6870  -11.4320    6.1530 C   0  0  0  0  0  0  0  0  0  0  0  0
   48.2740   -9.2290    6.9840 C   0  0  0  0  0  0  0  0  0  0  0  0
   48.4800  -10.2810    6.0990 C   0  0  0  0  0  0  0  0  0  0  0  0
   42.4420  -12.9700   12.1850 C   0  0  1  0  0  0  0  0  0  0  0  0
   42.1240  -14.8970   10.6010 N   0  0  0  0  0  0  0  0  0  0  0  0
   43.1220  -14.3450    9.7300 C   0  0  0  0  0  0  0  0  0  0  0  0
   43.3060  -13.4930   13.3750 C   0  0  0  0  0  0  0  0  0  0  0  0
   44.5820  -14.2730   12.9590 C   0  0  0  0  0  0  0  0  0  0  0  0
   43.9630  -11.1270   11.7920 C   0  0  0  0  0  0  0  0  0  0  0  0
   45.3720  -10.8250   11.2990 C   0  0  0  0  0  0  0  0  0  0  0  0
   43.0430   -9.8930   11.6820 C   0  0  0  0  0  0  0  0  0  0  0  0
   41.4420  -16.1750   10.2940 C   0  0  0  0  0  0  0  0  0  0  0  0
   49.0960  -12.8170    4.6800 C   0  0  0  0  0  0  0  0  0  0  0  0
   49.1590   -7.9890    6.9350 C   0  0  0  0  0  0  0  0  0  0  0  0
   49.6650   -7.7030    5.8870 O   0  0  0  0  0  0  0  0  0  0  0  0
   47.8620  -12.4980    5.3050 O   0  0  0  0  0  0  0  0  0  0  0  0
   46.6520  -11.5440    7.0780 C   0  0  0  0  0  0  0  0  0  0  0  0
   45.9580  -12.7920    7.0550 N   0  0  0  0  0  0  0  0  0  0  0  0
   45.0190  -13.3310    7.9740 C   0  0  0  0  0  0  0  0  0  0  0  0
   44.6880  -12.6510    9.1330 N   0  0  0  0  0  0  0  0  0  0  0  0
   43.7440  -13.1260   10.0220 C   0  0  0  0  0  0  0  0  0  0  0  0
   43.3950  -12.3960   11.2130 N   0  0  0  0  0  0  0  0  0  0  0  0
   44.4080  -14.5280    7.6920 N   0  0  0  0  0  0  0  0  0  0  0  0
   43.4680  -15.0220    8.5700 C   0  0  0  0  0  0  0  0  0  0  0  0
   41.7550  -14.2360   11.7700 C   0  0  0  0  0  0  0  0  0  0  0  0
   40.9280  -14.6910   12.5390 O   0  0  0  0  0  0  0  0  0  0  0  0
   46.4270  -10.4980    7.9660 C   0  0  0  0  0  0  0  0  0  0  0  0
   49.4110   -7.1880    8.0600 N   0  0  0  0  0  0  0  0  0  0  0  0
   50.2190   -5.9320    8.1790 C   0  0  1  0  0  0  0  0  0  0  0  0
   51.2850   -3.4520    9.7480 C   0  0  1  0  0  0  0  0  0  0  0  0
   52.1030   -2.1950    9.5910 N   0  3  1  0  0  0  0  0  0  0  0  0
   53.3610    0.4360   10.1910 N   0  3  1  0  0  0  0  0  0  0  0  0
   54.2470    1.5720    9.8800 C   0  0  0  0  0  0  0  0  0  0  0  0
   53.8040    2.9140   10.4990 C   0  0  0  0  0  0  0  0  0  0  0  0
   54.0860    4.2970    9.9520 C   0  0  0  0  0  0  0  0  0  0  0  0
   52.7320    3.7130    9.7130 C   0  0  0  0  0  0  0  0  0  0  0  0
   50.5485   -0.9875    8.7964 H   0  0  0  0  0  0  0  0  0  0  0  0
   50.8712   -0.7555   10.5482 H   0  0  0  0  0  0  0  0  0  0  0  0
   51.6317    1.2109    9.2681 H   0  0  0  0  0  0  0  0  0  0  0  0
   52.6523    0.1639    8.2247 H   0  0  0  0  0  0  0  0  0  0  0  0
   52.7061   -1.8763   11.5988 H   0  0  0  0  0  0  0  0  0  0  0  0
   53.7801   -2.9539   10.6437 H   0  0  0  0  0  0  0  0  0  0  0  0
   54.6305   -1.0287    9.3625 H   0  0  0  0  0  0  0  0  0  0  0  0
   54.8407   -0.7409   11.1231 H   0  0  0  0  0  0  0  0  0  0  0  0
   48.5020   -4.6740    7.9093 H   0  0  0  0  0  0  0  0  0  0  0  0
   48.8664   -5.0929    9.6177 H   0  0  0  0  0  0  0  0  0  0  0  0
   49.3032   -2.7341    9.2568 H   0  0  0  0  0  0  0  0  0  0  0  0
   50.3384   -3.0970    7.8344 H   0  0  0  0  0  0  0  0  0  0  0  0
   50.8605   -6.2709   10.2018 H   0  0  0  0  0  0  0  0  0  0  0  0
   52.0175   -6.8250    8.9444 H   0  0  0  0  0  0  0  0  0  0  0  0
   52.6606   -4.5094    8.4550 H   0  0  0  0  0  0  0  0  0  0  0  0
   52.8670   -4.8556   10.2055 H   0  0  0  0  0  0  0  0  0  0  0  0
   47.0463   -8.5480    8.6188 H   0  0  0  0  0  0  0  0  0  0  0  0
   49.2664  -10.2083    5.3565 H   0  0  0  0  0  0  0  0  0  0  0  0
   41.7096  -12.2065   12.4860 H   0  0  0  0  0  0  0  0  0  0  0  0
   42.6801  -14.1611   13.9848 H   0  0  0  0  0  0  0  0  0  0  0  0
   43.6157  -12.6277   13.9794 H   0  0  0  0  0  0  0  0  0  0  0  0
   45.1222  -14.5994   13.8599 H   0  0  0  0  0  0  0  0  0  0  0  0
   45.2318  -13.6195   12.3585 H   0  0  0  0  0  0  0  0  0  0  0  0
   44.2962  -15.1529   12.3639 H   0  0  0  0  0  0  0  0  0  0  0  0
   44.0600  -11.3226   12.8701 H   0  0  0  0  0  0  0  0  0  0  0  0
   45.7280   -9.8901   11.7565 H   0  0  0  0  0  0  0  0  0  0  0  0
   45.3622  -10.7170   10.2044 H   0  0  0  0  0  0  0  0  0  0  0  0
   46.0435  -11.6496   11.5801 H   0  0  0  0  0  0  0  0  0  0  0  0
   42.0379  -10.1514   12.0466 H   0  0  0  0  0  0  0  0  0  0  0  0
   42.9810   -9.5743   10.6310 H   0  0  0  0  0  0  0  0  0  0  0  0
   43.4542   -9.0737   12.2900 H   0  0  0  0  0  0  0  0  0  0  0  0
   41.8315  -16.5805    9.3486 H   0  0  0  0  0  0  0  0  0  0  0  0
   40.3601  -15.9999   10.1998 H   0  0  0  0  0  0  0  0  0  0  0  0
   41.6278  -16.8940   11.1055 H   0  0  0  0  0  0  0  0  0  0  0  0
   48.9691  -13.7124    4.0538 H   0  0  0  0  0  0  0  0  0  0  0  0
   49.8571  -13.0128    5.4497 H   0  0  0  0  0  0  0  0  0  0  0  0
   49.4180  -11.9731    4.0522 H   0  0  0  0  0  0  0  0  0  0  0  0
   46.1715  -13.3942    6.2471 H   0  0  0  0  0  0  0  0  0  0  0  0
   42.9851  -15.9667    8.3478 H   0  0  0  0  0  0  0  0  0  0  0  0
   45.6279  -10.5687    8.6951 H   0  0  0  0  0  0  0  0  0  0  0  0
   48.9877   -7.5030    8.9094 H   0  0  0  0  0  0  0  0  0  0  0  0
   50.6590   -5.6927    7.1997 H   0  0  0  0  0  0  0  0  0  0  0  0
   50.9577   -3.5211   10.7959 H   0  0  0  0  0  0  0  0  0  0  0  0
   52.5578   -2.2813    8.6956 H   0  0  0  0  0  0  0  0  0  0  0  0
   52.9547    0.6268   11.0935 H   0  0  0  0  0  0  0  0  0  0  0  0
   54.2817    1.6921    8.7871 H   0  0  0  0  0  0  0  0  0  0  0  0
   55.2537    1.3359   10.2551 H   0  0  0  0  0  0  0  0  0  0  0  0
   53.7405    2.7937   11.5905 H   0  0  0  0  0  0  0  0  0  0  0  0
   54.7831    4.4173    9.1096 H   0  0  0  0  0  0  0  0  0  0  0  0
   54.1987    5.1437   10.6451 H   0  0  0  0  0  0  0  0  0  0  0  0
   51.8553    4.1217   10.2367 H   0  0  0  0  0  0  0  0  0  0  0  0
   52.4396    3.3953    8.7013 H   0  0  0  0  0  0  0  0  0  0  0  0
  1  2  1  0  0  0  0
  1 46  1  0  0  0  0
  1 47  1  0  0  0  0
  2 41  1  0  0  0  0
  2 48  1  0  0  0  0
  2 49  1  0  0  0  0
  3  4  1  0  0  0  0
  3 50  1  0  0  0  0
  3 51  1  0  0  0  0
  4 41  1  0  0  0  0
  4 52  1  0  0  0  0
  4 53  1  0  0  0  0
  5 38  1  0  0  0  0
  5 54  1  0  0  0  0
  5 55  1  0  0  0  0
  6  5  1  0  0  0  0
  6 56  1  0  0  0  0
  6 57  1  0  0  0  0
  7 38  1  0  0  0  0
  7 58  1  0  0  0  0
  7 59  1  0  0  0  0
  8  7  1  0  0  0  0
  8 60  1  0  0  0  0
  8 61  1  0  0  0  0
  9 36  1  0  0  0  0
  9 62  1  0  0  0  0
 10 25  1  0  0  0  0
 10 26  1  0  0  0  0
 11  9  2  0  0  0  0
 11 12  1  0  0  0  0
 12 10  2  0  0  0  0
 12 63  1  0  0  0  0
 13 16  1  0  0  0  0
 13 34  1  0  0  0  0
 13 64  1  1  0  0  0
 14 21  1  0  0  0  0
 14 34  1  0  0  0  0
 15 14  1  0  0  0  0
 16 17  1  0  0  0  0
 16 65  1  0  0  0  0
 16 66  1  0  0  0  0
 17 67  1  0  0  0  0
 17 68  1  0  0  0  0
 17 69  1  0  0  0  0
 18 19  1  0  0  0  0
 18 20  1  0  0  0  0
 18 70  1  0  0  0  0
 19 71  1  0  0  0  0
 19 72  1  0  0  0  0
 19 73  1  0  0  0  0
 20 74  1  0  0  0  0
 20 75  1  0  0  0  0
 20 76  1  0  0  0  0
 21 77  1  0  0  0  0
 21 78  1  0  0  0  0
 21 79  1  0  0  0  0
 22 80  1  0  0  0  0
 22 81  1  0  0  0  0
 22 82  1  0  0  0  0
 23 11  1  0  0  0  0
 23 24  2  0  0  0  0
 25 22  1  0  0  0  0
 26 27  1  0  0  0  0
 27 28  1  0  0  0  0
 27 83  1  0  0  0  0
 28 29  2  0  0  0  0
 28 32  1  0  0  0  0
 29 30  1  0  0  0  0
 30 15  2  0  0  0  0
 30 31  1  0  0  0  0
 31 13  1  0  0  0  0
 31 18  1  0  0  0  0
 32 33  2  0  0  0  0
 33 15  1  0  0  0  0
 33 84  1  0  0  0  0
 34 35  2  0  0  0  0
 36 26  2  0  0  0  0
 36 85  1  0  0  0  0
 37 23  1  0  0  0  0
 37 86  1  0  0  0  0
 38 37  1  0  0  0  0
 38 87  1  6  0  0  0
 39  6  1  0  0  0  0
 39  8  1  0  0  0  0
 39 40  1  0  0  0  0
 39 88  1  1  0  0  0
 40  1  1  0  0  0  0
 40  3  1  0  0  0  0
 40 89  1  6  0  0  0
 41 42  1  0  0  0  0
 41 90  1  1  0  0  0
 42 43  1  0  0  0  0
 42 91  1  0  0  0  0
 42 92  1  0  0  0  0
 43 44  1  0  0  0  0
 43 45  1  0  0  0  0
 43 93  1  0  0  0  0
 44 45  1  0  0  0  0
 44 94  1  0  0  0  0
 44 95  1  0  0  0  0
 45 96  1  0  0  0  0
 45 97  1  0  0  0  0
M  CHG  2  40   1  41   1
M  END
