3fck_ligand
 OpenBabel08222323343D

 43 44  0  0  0  0  0  0  0  0999 V2000
  -18.0920   -2.4200    9.2670 C   0  0  0  0  0  0  0  0  0  0  0  0
  -17.3120   -1.7000    8.3680 C   0  0  0  0  0  0  0  0  0  0  0  0
  -17.4500   -1.8990    6.9970 C   0  0  0  0  0  0  0  0  0  0  0  0
  -18.3790   -2.8250    6.5370 C   0  0  0  0  0  0  0  0  0  0  0  0
  -19.1630   -3.5500    7.4280 C   0  0  0  0  0  0  0  0  0  0  0  0
  -19.0170   -3.3450    8.7980 C   0  0  0  0  0  0  0  0  0  0  0  0
  -16.8390    0.3650    4.0530 C   0  0  0  0  0  0  0  0  0  0  0  0
  -20.2450   -4.7070    5.7370 O   0  5  0  0  0  0  0  0  0  0  0  0
  -20.1320   -4.5210    6.9090 C   0  0  0  0  0  0  0  0  0  0  0  0
  -20.8660   -5.1690    7.8290 O   0  0  0  0  0  0  0  0  0  0  0  0
  -16.6190   -1.1330    6.0060 C   0  0  0  0  0  0  0  0  0  0  0  0
  -17.4370   -0.1610    5.2810 N   0  3  0  0  0  0  0  0  0  0  0  0
  -17.0630   -0.5600    2.8500 C   0  0  0  0  0  0  0  0  0  0  0  0
  -16.4860    0.0100    1.5520 C   0  0  0  0  0  0  0  0  0  0  0  0
  -16.7490   -0.8900    0.5000 O   0  0  0  0  0  0  0  0  0  0  0  0
  -15.8620   -0.8430   -0.7620 N   0  0  0  0  0  0  0  0  0  0  0  0
  -16.4230   -1.0440   -1.8730 C   0  0  0  0  0  0  0  0  0  0  0  0
  -15.8400   -0.5190   -3.1330 C   0  0  0  0  0  0  0  0  0  0  0  0
  -15.1420    0.6320   -3.1460 N   0  0  0  0  0  0  0  0  0  0  0  0
  -16.0230   -1.2210   -4.3230 C   0  0  0  0  0  0  0  0  0  0  0  0
  -15.4740   -0.7110   -5.4960 C   0  0  0  0  0  0  0  0  0  0  0  0
  -15.6180   -1.3140   -6.5800 O   0  0  0  0  0  0  0  0  0  0  0  0
  -14.7850    0.4380   -5.4550 N   0  0  0  0  0  0  0  0  0  0  0  0
  -14.6210    1.0980   -4.2980 C   0  0  0  0  0  0  0  0  0  0  0  0
  -13.9740    2.1640   -4.3060 O   0  0  0  0  0  0  0  0  0  0  0  0
  -17.9783   -2.2596   10.3330 H   0  0  0  0  0  0  0  0  0  0  0  0
  -16.5918   -0.9790    8.7375 H   0  0  0  0  0  0  0  0  0  0  0  0
  -18.4938   -2.9840    5.4709 H   0  0  0  0  0  0  0  0  0  0  0  0
  -19.6247   -3.9068    9.4981 H   0  0  0  0  0  0  0  0  0  0  0  0
  -15.7568    0.4842    4.2101 H   0  0  0  0  0  0  0  0  0  0  0  0
  -17.2878    1.3450    3.8333 H   0  0  0  0  0  0  0  0  0  0  0  0
  -16.1749   -1.8375    5.2873 H   0  0  0  0  0  0  0  0  0  0  0  0
  -15.8183   -0.6019    6.5414 H   0  0  0  0  0  0  0  0  0  0  0  0
  -18.3079   -0.6064    5.0377 H   0  0  0  0  0  0  0  0  0  0  0  0
  -17.6176    0.6158    5.8974 H   0  0  0  0  0  0  0  0  0  0  0  0
  -18.1446   -0.7104    2.7182 H   0  0  0  0  0  0  0  0  0  0  0  0
  -16.5805   -1.5271    3.0548 H   0  0  0  0  0  0  0  0  0  0  0  0
  -15.3996    0.1450    1.6591 H   0  0  0  0  0  0  0  0  0  0  0  0
  -16.9563    0.9801    1.3338 H   0  0  0  0  0  0  0  0  0  0  0  0
  -17.3511   -1.6125   -1.9088 H   0  0  0  0  0  0  0  0  0  0  0  0
  -17.1078   -1.3055   -4.4844 H   0  0  0  0  0  0  0  0  0  0  0  0
  -15.5950   -2.2235   -4.1755 H   0  0  0  0  0  0  0  0  0  0  0  0
  -14.3889    0.8074   -6.2956 H   0  0  0  0  0  0  0  0  0  0  0  0
  1  6  1  0  0  0  0
  1 26  1  0  0  0  0
  2  1  2  0  0  0  0
  2 27  1  0  0  0  0
  3  2  1  0  0  0  0
  3  4  2  0  0  0  0
  4  5  1  0  0  0  0
  4 28  1  0  0  0  0
  5  6  2  0  0  0  0
  5  9  1  0  0  0  0
  6 29  1  0  0  0  0
  7 13  1  0  0  0  0
  7 30  1  0  0  0  0
  7 31  1  0  0  0  0
  9  8  1  0  0  0  0
  9 10  2  0  0  0  0
 11  3  1  0  0  0  0
 11 12  1  0  0  0  0
 11 32  1  0  0  0  0
 11 33  1  0  0  0  0
 12  7  1  0  0  0  0
 12 34  1  0  0  0  0
 12 35  1  0  0  0  0
 13 14  1  0  0  0  0
 13 36  1  0  0  0  0
 13 37  1  0  0  0  0
 14 15  1  0  0  0  0
 14 38  1  0  0  0  0
 14 39  1  0  0  0  0
 15 16  1  0  0  0  0
 16 17  2  0  0  0  0
 17 18  1  0  0  0  0
 17 40  1  0  0  0  0
 18 19  2  0  0  0  0
 18 20  1  0  0  0  0
 19 24  1  0  0  0  0
 20 21  1  0  0  0  0
 20 41  1  0  0  0  0
 20 42  1  0  0  0  0
 21 22  2  0  0  0  0
 21 23  1  0  0  0  0
 23 24  1  0  0  0  0
 23 43  1  0  0  0  0
 24 25  2  0  0  0  0
M  CHG  2   8  -1  12   1
M  END
