3fcl_ligand
 OpenBabel08222323343D

 48 49  0  0  0  0  0  0  0  0999 V2000
   35.0190    4.6120   19.0000 C   0  0  0  0  0  0  0  0  0  0  0  0
   40.9530    1.0470   14.9850 C   0  0  0  0  0  0  0  0  0  0  0  0
   41.5200    2.3120   14.8690 C   0  0  0  0  0  0  0  0  0  0  0  0
   39.3140    3.2920   14.8070 C   0  0  0  0  0  0  0  0  0  0  0  0
   39.5670    0.8960   15.0060 C   0  0  0  0  0  0  0  0  0  0  0  0
   41.8780   -0.8370   16.0430 O   0  5  0  0  0  0  0  0  0  0  0  0
   41.8590   -0.1460   15.0620 C   0  0  0  0  0  0  0  0  0  0  0  0
   42.6280   -0.3970   14.0100 O   0  0  0  0  0  0  0  0  0  0  0  0
   40.7010    3.4350   14.7830 C   0  0  0  0  0  0  0  0  0  0  0  0
   38.7480    2.0250   14.9180 C   0  0  0  0  0  0  0  0  0  0  0  0
   37.2440    1.8880   14.9510 C   0  0  0  0  0  0  0  0  0  0  0  0
   36.8120    1.6570   16.3170 N   0  3  0  0  0  0  0  0  0  0  0  0
   36.8750    2.7140   17.3040 C   0  0  0  0  0  0  0  0  0  0  0  0
   36.0250    2.3820   18.5220 C   0  0  0  0  0  0  0  0  0  0  0  0
   35.9790    3.5420   19.5040 C   0  0  0  0  0  0  0  0  0  0  0  0
   33.8040    4.6370   19.7300 N   0  3  0  0  0  0  0  0  0  0  0  0
   33.1230    5.8270   19.3690 C   0  0  0  0  0  0  0  0  0  0  0  0
   31.8710    5.4740   18.6000 C   0  0  0  0  0  0  0  0  0  0  0  0
   31.9660    4.8730   17.3990 N   0  0  0  0  0  0  0  0  0  0  0  0
   30.6260    5.7740   19.1360 C   0  0  0  0  0  0  0  0  0  0  0  0
   29.5030    5.4370   18.3910 C   0  0  0  0  0  0  0  0  0  0  0  0
   28.3620    5.6830   18.8290 O   0  0  0  0  0  0  0  0  0  0  0  0
   29.6490    4.8340   17.1970 N   0  0  0  0  0  0  0  0  0  0  0  0
   30.8640    4.5560   16.7020 C   0  0  0  0  0  0  0  0  0  0  0  0
   30.9640    3.9900   15.5920 O   0  0  0  0  0  0  0  0  0  0  0  0
   34.7913    4.4122   17.9425 H   0  0  0  0  0  0  0  0  0  0  0  0
   35.5058    5.5942   19.0911 H   0  0  0  0  0  0  0  0  0  0  0  0
   42.5980    2.4234   14.8456 H   0  0  0  0  0  0  0  0  0  0  0  0
   38.6772    4.1666   14.7393 H   0  0  0  0  0  0  0  0  0  0  0  0
   39.1273   -0.0913   15.0901 H   0  0  0  0  0  0  0  0  0  0  0  0
   41.1421    4.4215   14.6973 H   0  0  0  0  0  0  0  0  0  0  0  0
   36.9386    1.0396   14.3209 H   0  0  0  0  0  0  0  0  0  0  0  0
   36.7827    2.8116   14.5713 H   0  0  0  0  0  0  0  0  0  0  0  0
   37.3738    0.8989   16.6717 H   0  0  0  0  0  0  0  0  0  0  0  0
   35.8480    1.3666   16.2682 H   0  0  0  0  0  0  0  0  0  0  0  0
   36.5071    3.6477   16.8536 H   0  0  0  0  0  0  0  0  0  0  0  0
   37.9199    2.8467   17.6212 H   0  0  0  0  0  0  0  0  0  0  0  0
   36.4524    1.5032   19.0271 H   0  0  0  0  0  0  0  0  0  0  0  0
   35.0011    2.1531   18.1914 H   0  0  0  0  0  0  0  0  0  0  0  0
   35.6363    3.1770   20.4834 H   0  0  0  0  0  0  0  0  0  0  0  0
   36.9856    3.9739   19.6053 H   0  0  0  0  0  0  0  0  0  0  0  0
   33.9955    4.6353   20.7196 H   0  0  0  0  0  0  0  0  0  0  0  0
   33.2431    3.8332   19.4949 H   0  0  0  0  0  0  0  0  0  0  0  0
   33.7774    6.4481   18.7398 H   0  0  0  0  0  0  0  0  0  0  0  0
   32.8510    6.3844   20.2774 H   0  0  0  0  0  0  0  0  0  0  0  0
   30.5942    6.8605   19.3045 H   0  0  0  0  0  0  0  0  0  0  0  0
   30.5491    5.2509   20.1006 H   0  0  0  0  0  0  0  0  0  0  0  0
   28.8362    4.5885   16.6688 H   0  0  0  0  0  0  0  0  0  0  0  0
  1 16  1  0  0  0  0
  1 26  1  0  0  0  0
  1 27  1  0  0  0  0
  2  3  2  0  0  0  0
  2  7  1  0  0  0  0
  3 28  1  0  0  0  0
  4  9  2  0  0  0  0
  4 29  1  0  0  0  0
  5  2  1  0  0  0  0
  5 30  1  0  0  0  0
  7  6  1  0  0  0  0
  7  8  2  0  0  0  0
  9  3  1  0  0  0  0
  9 31  1  0  0  0  0
 10  4  1  0  0  0  0
 10  5  2  0  0  0  0
 11 10  1  0  0  0  0
 11 32  1  0  0  0  0
 11 33  1  0  0  0  0
 12 11  1  0  0  0  0
 12 34  1  0  0  0  0
 12 35  1  0  0  0  0
 13 12  1  0  0  0  0
 13 36  1  0  0  0  0
 13 37  1  0  0  0  0
 14 13  1  0  0  0  0
 14 15  1  0  0  0  0
 14 38  1  0  0  0  0
 14 39  1  0  0  0  0
 15  1  1  0  0  0  0
 15 40  1  0  0  0  0
 15 41  1  0  0  0  0
 16 17  1  0  0  0  0
 16 42  1  0  0  0  0
 16 43  1  0  0  0  0
 17 18  1  0  0  0  0
 17 44  1  0  0  0  0
 17 45  1  0  0  0  0
 18 19  2  0  0  0  0
 18 20  1  0  0  0  0
 19 24  1  0  0  0  0
 20 21  1  0  0  0  0
 20 46  1  0  0  0  0
 20 47  1  0  0  0  0
 21 22  2  0  0  0  0
 21 23  1  0  0  0  0
 23 24  1  0  0  0  0
 23 48  1  0  0  0  0
 24 25  2  0  0  0  0
M  CHG  3   6  -1  12   1  16   1
M  END
