3fej_ligand
 OpenBabel08222323343D

 50 52  0  0  1  0  0  0  0  0999 V2000
    6.7330   24.1690   17.1050 N   0  0  0  0  0  0  0  0  0  0  0  0
    7.0120   24.4000   15.8520 C   0  0  0  0  0  0  0  0  0  0  0  0
    7.6150   26.0030   15.5000 S   0  0  0  0  0  0  0  0  0  0  0  0
    6.9720   25.2660   17.8680 C   0  0  0  0  0  0  0  0  0  0  0  0
    7.4530   26.3440   17.1970 C   0  0  0  0  0  0  0  0  0  0  0  0
   -1.2690   28.4770   20.0010 C   0  0  0  0  0  0  0  0  0  0  0  0
    2.4520   27.6830   20.4590 C   0  0  0  0  0  0  0  0  0  0  0  0
    1.0520   28.1220   20.7880 C   0  0  0  0  0  0  0  0  0  0  0  0
    6.8290   23.4120   14.7980 C   0  0  0  0  0  0  0  0  0  0  0  0
    3.3860   28.6040   19.9710 C   0  0  0  0  0  0  0  0  0  0  0  0
    0.1180   28.0780   19.5730 C   0  0  2  0  0  0  0  0  0  0  0  0
    4.6960   28.2030   19.7420 C   0  0  0  0  0  0  0  0  0  0  0  0
   -1.5900   29.7030   19.9690 O   0  5  0  0  0  0  0  0  0  0  0  0
    2.8340   26.3560   20.6780 C   0  0  0  0  0  0  0  0  0  0  0  0
    7.1460   23.7110   13.4670 C   0  0  0  0  0  0  0  0  0  0  0  0
    6.3110   22.1470   15.1080 C   0  0  0  0  0  0  0  0  0  0  0  0
    6.7030   25.2430   19.3420 C   0  0  0  0  0  0  0  0  0  0  0  0
    5.0730   26.8850   19.9860 C   0  0  0  0  0  0  0  0  0  0  0  0
    6.3890   26.5540   19.7850 O   0  0  0  0  0  0  0  0  0  0  0  0
   -2.0470   27.5760   20.4340 O   0  0  0  0  0  0  0  0  0  0  0  0
    6.4030   21.5220   12.7850 C   0  0  0  0  0  0  0  0  0  0  0  0
    4.1440   25.9470   20.4400 C   0  0  0  0  0  0  0  0  0  0  0  0
    6.9340   22.7730   12.4650 C   0  0  0  0  0  0  0  0  0  0  0  0
    6.0980   21.2070   14.1100 C   0  0  0  0  0  0  0  0  0  0  0  0
    6.1080   20.3430   11.5180 Cl  0  0  0  0  0  0  0  0  0  0  0  0
    0.5940   28.9380   18.5370 O   0  0  0  0  0  0  0  0  0  0  0  0
    3.0150   30.0380   19.7160 C   0  0  0  0  0  0  0  0  0  0  0  0
    0.1630   28.5100   17.2480 C   0  0  0  0  0  0  0  0  0  0  0  0
    0.7000   29.4520   16.1700 C   0  0  0  0  0  0  0  0  0  0  0  0
    7.7042   27.2967   17.6608 H   0  0  0  0  0  0  0  0  0  0  0  0
    1.0867   29.1536   21.1681 H   0  0  0  0  0  0  0  0  0  0  0  0
    0.6485   27.4577   21.5664 H   0  0  0  0  0  0  0  0  0  0  0  0
    0.0877   27.0488   19.1859 H   0  0  0  0  0  0  0  0  0  0  0  0
    5.4247   28.9159   19.3734 H   0  0  0  0  0  0  0  0  0  0  0  0
    2.1041   25.6391   21.0362 H   0  0  0  0  0  0  0  0  0  0  0  0
    7.5597   24.6813   13.2172 H   0  0  0  0  0  0  0  0  0  0  0  0
    6.0746   21.9009   16.1369 H   0  0  0  0  0  0  0  0  0  0  0  0
    7.5960   24.8807   19.8723 H   0  0  0  0  0  0  0  0  0  0  0  0
    5.8559   24.5728   19.5499 H   0  0  0  0  0  0  0  0  0  0  0  0
    4.4376   24.9166   20.6047 H   0  0  0  0  0  0  0  0  0  0  0  0
    7.1803   23.0116   11.4367 H   0  0  0  0  0  0  0  0  0  0  0  0
    5.6961   20.2314   14.3585 H   0  0  0  0  0  0  0  0  0  0  0  0
    1.9495   30.1874   19.9451 H   0  0  0  0  0  0  0  0  0  0  0  0
    3.2007   30.2826   18.6597 H   0  0  0  0  0  0  0  0  0  0  0  0
    3.6231   30.6936   20.3566 H   0  0  0  0  0  0  0  0  0  0  0  0
   -0.9365   28.5093   17.2145 H   0  0  0  0  0  0  0  0  0  0  0  0
    0.5363   27.4926   17.0597 H   0  0  0  0  0  0  0  0  0  0  0  0
    0.3598   29.1098   15.1815 H   0  0  0  0  0  0  0  0  0  0  0  0
    1.7996   29.4536   16.1990 H   0  0  0  0  0  0  0  0  0  0  0  0
    0.3269   30.4703   16.3539 H   0  0  0  0  0  0  0  0  0  0  0  0
  1  2  2  0  0  0  0
  2  9  1  0  0  0  0
  3  2  1  0  0  0  0
  4  1  1  0  0  0  0
  4  5  2  0  0  0  0
  5  3  1  0  0  0  0
  5 30  1  0  0  0  0
  6 13  1  0  0  0  0
  6 20  2  0  0  0  0
  7  8  1  0  0  0  0
  7 14  1  0  0  0  0
  8 11  1  0  0  0  0
  8 31  1  0  0  0  0
  8 32  1  0  0  0  0
  9 15  2  0  0  0  0
  9 16  1  0  0  0  0
 10  7  2  0  0  0  0
 10 27  1  0  0  0  0
 11  6  1  0  0  0  0
 11 26  1  0  0  0  0
 11 33  1  6  0  0  0
 12 10  1  0  0  0  0
 12 34  1  0  0  0  0
 14 22  2  0  0  0  0
 14 35  1  0  0  0  0
 15 23  1  0  0  0  0
 15 36  1  0  0  0  0
 16 24  2  0  0  0  0
 16 37  1  0  0  0  0
 17  4  1  0  0  0  0
 17 38  1  0  0  0  0
 17 39  1  0  0  0  0
 18 12  2  0  0  0  0
 18 19  1  0  0  0  0
 18 22  1  0  0  0  0
 19 17  1  0  0  0  0
 21 24  1  0  0  0  0
 21 25  1  0  0  0  0
 22 40  1  0  0  0  0
 23 21  2  0  0  0  0
 23 41  1  0  0  0  0
 24 42  1  0  0  0  0
 26 28  1  0  0  0  0
 27 43  1  0  0  0  0
 27 44  1  0  0  0  0
 27 45  1  0  0  0  0
 28 29  1  0  0  0  0
 28 46  1  0  0  0  0
 28 47  1  0  0  0  0
 29 48  1  0  0  0  0
 29 49  1  0  0  0  0
 29 50  1  0  0  0  0
M  CHG  1  13  -1
M  END
