3ff6_ligand
 OpenBabel08222323343D

 72 77  0  0  1  0  0  0  0  0999 V2000
    8.6880   17.8500   26.0430 C   0  0  0  0  0  0  0  0  0  0  0  0
    9.6030   16.6560   25.9210 C   0  0  0  0  0  0  0  0  0  0  0  0
   10.9300   17.0780   25.6430 O   0  0  0  0  0  0  0  0  0  0  0  0
   10.9610   17.7800   24.4120 C   0  0  0  0  0  0  0  0  0  0  0  0
   10.3320   19.1160   24.6870 C   0  0  0  0  0  0  0  0  0  0  0  0
    8.9630   18.9020   25.0730 N   0  0  0  0  0  0  0  0  0  0  0  0
    7.9700   19.4900   24.3190 C   0  0  0  0  0  0  0  0  0  0  0  0
    8.1080   19.9000   23.1750 O   0  0  0  0  0  0  0  0  0  0  0  0
    6.6600   19.5680   25.0550 C   0  0  1  0  0  0  0  0  0  0  0  0
    6.2320   21.0160   25.2290 C   0  0  0  0  0  0  0  0  0  0  0  0
    5.6750   18.6960   24.3070 C   0  0  0  0  0  0  0  0  0  0  0  0
    5.1800   19.3860   23.0750 C   0  0  0  0  0  0  0  0  0  0  0  0
    4.6210   20.7170   23.4750 C   0  0  0  0  0  0  0  0  0  0  0  0
    5.7120   21.5880   23.9750 N   0  3  1  0  0  0  0  0  0  0  0  0
    5.2900   23.0170   24.0850 C   0  0  0  0  0  0  0  0  0  0  0  0
    3.8030   23.1890   24.2910 C   0  0  0  0  0  0  0  0  0  0  0  0
    3.4850   24.6230   24.0010 C   0  0  0  0  0  0  0  0  0  0  0  0
    5.9780   23.7670   25.1970 C   0  0  0  0  0  0  0  0  0  0  0  0
    5.5960   25.2280   25.1160 C   0  0  0  0  0  0  0  0  0  0  0  0
    4.1680   25.4260   24.9670 N   0  0  0  0  0  0  0  0  0  0  0  0
    3.4330   26.3330   25.6870 C   0  0  0  0  0  0  0  0  0  0  0  0
    2.2230   26.4980   25.6360 O   0  0  0  0  0  0  0  0  0  0  0  0
    4.2020   27.1700   26.6010 C   0  0  0  0  0  0  0  0  0  0  0  0
    4.3240   26.7770   27.9240 C   0  0  0  0  0  0  0  0  0  0  0  0
    3.7490   25.6200   28.4140 C   0  0  0  0  0  0  0  0  0  0  0  0
    3.8960   25.2700   29.7330 C   0  0  0  0  0  0  0  0  0  0  0  0
    4.6220   26.0730   30.5750 C   0  0  0  0  0  0  0  0  0  0  0  0
    5.1990   27.2240   30.0950 C   0  0  0  0  0  0  0  0  0  0  0  0
    5.0500   27.5760   28.7730 C   0  0  0  0  0  0  0  0  0  0  0  0
    5.6290   28.7320   28.2980 C   0  0  0  0  0  0  0  0  0  0  0  0
    5.4940   29.1050   26.9760 C   0  0  0  0  0  0  0  0  0  0  0  0
    4.7750   28.3230   26.1030 C   0  0  0  0  0  0  0  0  0  0  0  0
    4.6480   28.7120   24.7830 C   0  0  0  0  0  0  0  0  0  0  0  0
    5.2310   29.8750   24.3330 C   0  0  0  0  0  0  0  0  0  0  0  0
    5.9490   30.6510   25.2080 C   0  0  0  0  0  0  0  0  0  0  0  0
    6.0800   30.2660   26.5240 C   0  0  0  0  0  0  0  0  0  0  0  0
    8.8001   18.2713   27.0529 H   0  0  0  0  0  0  0  0  0  0  0  0
    7.6519   17.5091   25.9008 H   0  0  0  0  0  0  0  0  0  0  0  0
    9.2492   16.0097   25.1042 H   0  0  0  0  0  0  0  0  0  0  0  0
    9.5919   16.0924   26.8656 H   0  0  0  0  0  0  0  0  0  0  0  0
   10.3873   17.2368   23.6467 H   0  0  0  0  0  0  0  0  0  0  0  0
   11.9986   17.9083   24.0702 H   0  0  0  0  0  0  0  0  0  0  0  0
   10.3695   19.7380   23.7806 H   0  0  0  0  0  0  0  0  0  0  0  0
   10.8729   19.6209   25.5009 H   0  0  0  0  0  0  0  0  0  0  0  0
    6.7921   19.1432   26.0610 H   0  0  0  0  0  0  0  0  0  0  0  0
    7.1001   21.6068   25.5566 H   0  0  0  0  0  0  0  0  0  0  0  0
    5.4448   21.0648   25.9957 H   0  0  0  0  0  0  0  0  0  0  0  0
    4.8206   18.4733   24.9630 H   0  0  0  0  0  0  0  0  0  0  0  0
    6.1710   17.7573   24.0194 H   0  0  0  0  0  0  0  0  0  0  0  0
    4.3946   18.7803   22.5994 H   0  0  0  0  0  0  0  0  0  0  0  0
    6.0113   19.5286   22.3689 H   0  0  0  0  0  0  0  0  0  0  0  0
    3.8731   20.5757   24.2691 H   0  0  0  0  0  0  0  0  0  0  0  0
    4.1455   21.1906   22.6035 H   0  0  0  0  0  0  0  0  0  0  0  0
    6.4599   21.5599   23.2998 H   0  0  0  0  0  0  0  0  0  0  0  0
    5.5592   23.4998   23.1340 H   0  0  0  0  0  0  0  0  0  0  0  0
    3.5345   22.9449   25.3294 H   0  0  0  0  0  0  0  0  0  0  0  0
    3.2479   22.5326   23.6047 H   0  0  0  0  0  0  0  0  0  0  0  0
    2.4002   24.7885   24.0766 H   0  0  0  0  0  0  0  0  0  0  0  0
    3.8261   24.8846   22.9885 H   0  0  0  0  0  0  0  0  0  0  0  0
    7.0681   23.6646   25.0915 H   0  0  0  0  0  0  0  0  0  0  0  0
    5.6634   23.3570   26.1680 H   0  0  0  0  0  0  0  0  0  0  0  0
    6.1056   25.6774   24.2509 H   0  0  0  0  0  0  0  0  0  0  0  0
    5.9264   25.7296   26.0375 H   0  0  0  0  0  0  0  0  0  0  0  0
    3.1762   24.9825   27.7502 H   0  0  0  0  0  0  0  0  0  0  0  0
    3.4394   24.3612   30.1082 H   0  0  0  0  0  0  0  0  0  0  0  0
    4.7404   25.8002   31.6174 H   0  0  0  0  0  0  0  0  0  0  0  0
    5.7741   27.8575   30.7606 H   0  0  0  0  0  0  0  0  0  0  0  0
    6.1999   29.3589   28.9733 H   0  0  0  0  0  0  0  0  0  0  0  0
    4.0830   28.0944   24.0943 H   0  0  0  0  0  0  0  0  0  0  0  0
    5.1239   30.1751   23.2969 H   0  0  0  0  0  0  0  0  0  0  0  0
    6.4135   31.5678   24.8632 H   0  0  0  0  0  0  0  0  0  0  0  0
    6.6495   30.8826   27.2099 H   0  0  0  0  0  0  0  0  0  0  0  0
  1  2  1  0  0  0  0
  1  6  1  0  0  0  0
  1 37  1  0  0  0  0
  1 38  1  0  0  0  0
  2  3  1  0  0  0  0
  2 39  1  0  0  0  0
  2 40  1  0  0  0  0
  3  4  1  0  0  0  0
  4  5  1  0  0  0  0
  4 41  1  0  0  0  0
  4 42  1  0  0  0  0
  5  6  1  0  0  0  0
  5 43  1  0  0  0  0
  5 44  1  0  0  0  0
  6  7  1  0  0  0  0
  7  8  2  0  0  0  0
  7  9  1  0  0  0  0
  9 10  1  0  0  0  0
  9 11  1  0  0  0  0
  9 45  1  1  0  0  0
 10 14  1  0  0  0  0
 10 46  1  0  0  0  0
 10 47  1  0  0  0  0
 11 12  1  0  0  0  0
 11 48  1  0  0  0  0
 11 49  1  0  0  0  0
 12 13  1  0  0  0  0
 12 50  1  0  0  0  0
 12 51  1  0  0  0  0
 13 14  1  0  0  0  0
 13 52  1  0  0  0  0
 13 53  1  0  0  0  0
 14 15  1  0  0  0  0
 14 54  1  6  0  0  0
 15 16  1  0  0  0  0
 15 18  1  0  0  0  0
 15 55  1  0  0  0  0
 16 17  1  0  0  0  0
 16 56  1  0  0  0  0
 16 57  1  0  0  0  0
 17 20  1  0  0  0  0
 17 58  1  0  0  0  0
 17 59  1  0  0  0  0
 18 19  1  0  0  0  0
 18 60  1  0  0  0  0
 18 61  1  0  0  0  0
 19 20  1  0  0  0  0
 19 62  1  0  0  0  0
 19 63  1  0  0  0  0
 20 21  1  0  0  0  0
 21 22  2  0  0  0  0
 21 23  1  0  0  0  0
 23 24  2  0  0  0  0
 23 32  1  0  0  0  0
 24 25  1  0  0  0  0
 24 29  1  0  0  0  0
 25 26  2  0  0  0  0
 25 64  1  0  0  0  0
 26 27  1  0  0  0  0
 26 65  1  0  0  0  0
 27 28  2  0  0  0  0
 27 66  1  0  0  0  0
 28 29  1  0  0  0  0
 28 67  1  0  0  0  0
 29 30  2  0  0  0  0
 30 31  1  0  0  0  0
 30 68  1  0  0  0  0
 31 32  2  0  0  0  0
 31 36  1  0  0  0  0
 32 33  1  0  0  0  0
 33 34  2  0  0  0  0
 33 69  1  0  0  0  0
 34 35  1  0  0  0  0
 34 70  1  0  0  0  0
 35 36  2  0  0  0  0
 35 71  1  0  0  0  0
 36 72  1  0  0  0  0
M  CHG  1  14   1
M  END
