3fh5_ligand
 OpenBabel08222323343D

 42 44  0  0  1  0  0  0  0  0999 V2000
   24.3950   -2.0670   -2.0270 C   0  0  0  0  0  0  0  0  0  0  0  0
   23.9350   -2.8640   -3.0830 C   0  0  0  0  0  0  0  0  0  0  0  0
   23.6910   -2.3030   -4.3390 C   0  0  0  0  0  0  0  0  0  0  0  0
   23.8970   -0.9370   -4.5260 C   0  0  0  0  0  0  0  0  0  0  0  0
   24.3560   -0.1410   -3.4790 C   0  0  0  0  0  0  0  0  0  0  0  0
   24.6140   -0.6960   -2.2150 C   0  0  0  0  0  0  0  0  0  0  0  0
   25.0970    0.1980   -1.0710 C   0  0  0  0  0  0  0  0  0  0  0  0
   26.5030   -0.1370   -0.5410 C   0  0  0  0  0  0  0  0  0  0  0  0
   26.6720   -0.6300    0.7550 C   0  0  0  0  0  0  0  0  0  0  0  0
   27.9540   -0.9140    1.2530 C   0  0  0  0  0  0  0  0  0  0  0  0
   27.6150    0.0910   -1.3530 C   0  0  0  0  0  0  0  0  0  0  0  0
   28.8870   -0.1970   -0.8590 C   0  0  0  0  0  0  0  0  0  0  0  0
   29.0690   -0.7040    0.4320 C   0  0  0  0  0  0  0  0  0  0  0  0
   30.3560   -0.9740    0.8340 O   0  0  0  0  0  0  0  0  0  0  0  0
   30.5630   -1.8210    2.0050 C   0  0  0  0  0  0  0  0  0  0  0  0
   31.8900   -2.5840    1.8320 C   0  0  1  0  0  0  0  0  0  0  0  0
   31.9690   -3.4260    0.5540 C   0  0  0  0  0  0  0  0  0  0  0  0
   33.4780   -3.7040    0.4740 C   0  0  0  0  0  0  0  0  0  0  0  0
   34.1210   -2.5540    1.2500 C   0  0  0  0  0  0  0  0  0  0  0  0
   33.0190   -1.6570    1.6630 N   0  3  0  0  0  0  0  0  0  0  0  0
   24.5829   -2.5141   -1.0575 H   0  0  0  0  0  0  0  0  0  0  0  0
   23.7672   -3.9232   -2.9246 H   0  0  0  0  0  0  0  0  0  0  0  0
   23.3455   -2.9227   -5.1586 H   0  0  0  0  0  0  0  0  0  0  0  0
   23.6985   -0.4907   -5.4937 H   0  0  0  0  0  0  0  0  0  0  0  0
   24.5158    0.9187   -3.6417 H   0  0  0  0  0  0  0  0  0  0  0  0
   24.3853    0.1024   -0.2378 H   0  0  0  0  0  0  0  0  0  0  0  0
   25.1049    1.2380   -1.4291 H   0  0  0  0  0  0  0  0  0  0  0  0
   25.8041   -0.7952    1.3832 H   0  0  0  0  0  0  0  0  0  0  0  0
   28.0791   -1.2915    2.2614 H   0  0  0  0  0  0  0  0  0  0  0  0
   27.4916    0.4868   -2.3546 H   0  0  0  0  0  0  0  0  0  0  0  0
   29.7525   -0.0244   -1.4884 H   0  0  0  0  0  0  0  0  0  0  0  0
   29.7330   -2.5372    2.0956 H   0  0  0  0  0  0  0  0  0  0  0  0
   30.6096   -1.1973    2.9098 H   0  0  0  0  0  0  0  0  0  0  0  0
   32.0398   -3.2226    2.7150 H   0  0  0  0  0  0  0  0  0  0  0  0
   31.6157   -2.8630   -0.3224 H   0  0  0  0  0  0  0  0  0  0  0  0
   31.3918   -4.3576    0.6485 H   0  0  0  0  0  0  0  0  0  0  0  0
   33.8182   -3.7052   -0.5721 H   0  0  0  0  0  0  0  0  0  0  0  0
   33.7205   -4.6706    0.9396 H   0  0  0  0  0  0  0  0  0  0  0  0
   34.8311   -2.0125    0.6077 H   0  0  0  0  0  0  0  0  0  0  0  0
   34.6480   -2.9405    2.1348 H   0  0  0  0  0  0  0  0  0  0  0  0
   33.2371   -1.1888    2.5286 H   0  0  0  0  0  0  0  0  0  0  0  0
   32.8225   -0.9716    0.9505 H   0  0  0  0  0  0  0  0  0  0  0  0
  1  2  2  0  0  0  0
  1  6  1  0  0  0  0
  1 21  1  0  0  0  0
  2  3  1  0  0  0  0
  2 22  1  0  0  0  0
  3  4  2  0  0  0  0
  3 23  1  0  0  0  0
  4  5  1  0  0  0  0
  4 24  1  0  0  0  0
  5  6  2  0  0  0  0
  5 25  1  0  0  0  0
  6  7  1  0  0  0  0
  7  8  1  0  0  0  0
  7 26  1  0  0  0  0
  7 27  1  0  0  0  0
  8  9  2  0  0  0  0
  8 11  1  0  0  0  0
  9 10  1  0  0  0  0
  9 28  1  0  0  0  0
 10 13  2  0  0  0  0
 10 29  1  0  0  0  0
 11 12  2  0  0  0  0
 11 30  1  0  0  0  0
 12 13  1  0  0  0  0
 12 31  1  0  0  0  0
 13 14  1  0  0  0  0
 14 15  1  0  0  0  0
 15 16  1  0  0  0  0
 15 32  1  0  0  0  0
 15 33  1  0  0  0  0
 16 17  1  0  0  0  0
 16 20  1  0  0  0  0
 16 34  1  1  0  0  0
 17 18  1  0  0  0  0
 17 35  1  0  0  0  0
 17 36  1  0  0  0  0
 18 19  1  0  0  0  0
 18 37  1  0  0  0  0
 18 38  1  0  0  0  0
 19 20  1  0  0  0  0
 19 39  1  0  0  0  0
 19 40  1  0  0  0  0
 20 41  1  0  0  0  0
 20 42  1  0  0  0  0
M  CHG  1  20   1
M  END
