3fkv_ligand
 OpenBabel08222323343D

 19 20  0  0  0  0  0  0  0  0999 V2000
   26.2240    4.8290   16.4410 B   0  0  0  0  0  0  0  0  0  0  0  0
   26.4520    5.7000   17.6170 O   0  0  0  0  0  0  0  0  0  0  0  0
   25.2200    3.7530   16.7350 O   0  0  0  0  0  0  0  0  0  0  0  0
   25.5950    5.6870   15.3190 C   0  0  0  0  0  0  0  0  0  0  0  0
   25.1940    7.0200   15.5230 C   0  0  0  0  0  0  0  0  0  0  0  0
   24.6310    6.4830   13.1850 C   0  0  0  0  0  0  0  0  0  0  0  0
   24.6270    7.4980   14.2700 C   0  0  0  0  0  0  0  0  0  0  0  0
   24.1250    6.7730   11.9200 C   0  0  0  0  0  0  0  0  0  0  0  0
   25.3090    5.0280   13.7300 S   0  0  0  0  0  0  0  0  0  0  0  0
   24.1110    8.7680   13.9920 C   0  0  0  0  0  0  0  0  0  0  0  0
   23.6110    8.0610   11.6990 C   0  0  0  0  0  0  0  0  0  0  0  0
   23.6080    9.0400   12.7100 C   0  0  0  0  0  0  0  0  0  0  0  0
   27.0908    6.3675   17.3961 H   0  0  0  0  0  0  0  0  0  0  0  0
   25.0985    3.2149   15.9616 H   0  0  0  0  0  0  0  0  0  0  0  0
   25.2899    7.5888   16.4467 H   0  0  0  0  0  0  0  0  0  0  0  0
   24.1279    6.0287   11.1319 H   0  0  0  0  0  0  0  0  0  0  0  0
   24.0996    9.5343   14.7586 H   0  0  0  0  0  0  0  0  0  0  0  0
   23.2060    8.3076   10.7242 H   0  0  0  0  0  0  0  0  0  0  0  0
   23.2090   10.0245   12.4943 H   0  0  0  0  0  0  0  0  0  0  0  0
  1  2  1  0  0  0  0
  1  3  1  0  0  0  0
  1  4  1  0  0  0  0
  2 13  1  0  0  0  0
  3 14  1  0  0  0  0
  4  5  2  0  0  0  0
  4  9  1  0  0  0  0
  5  7  1  0  0  0  0
  5 15  1  0  0  0  0
  6  8  1  0  0  0  0
  6  9  1  0  0  0  0
  7  6  2  0  0  0  0
  7 10  1  0  0  0  0
  8 11  2  0  0  0  0
  8 16  1  0  0  0  0
 10 12  2  0  0  0  0
 10 17  1  0  0  0  0
 11 12  1  0  0  0  0
 11 18  1  0  0  0  0
 12 19  1  0  0  0  0
M  END
