3fl8_ligand
 OpenBabel08222323343D

 75 78  0  0  1  0  0  0  0  0999 V2000
   15.3970  -31.3430   -6.2690 N   0  0  0  0  0  0  0  0  0  0  0  0
   15.8540  -31.8660   -5.0940 C   0  0  0  0  0  0  0  0  0  0  0  0
   16.2330  -30.9060   -4.0160 C   0  0  0  0  0  0  0  0  0  0  0  0
   16.1620  -29.4160   -4.2890 C   0  0  0  0  0  0  0  0  0  0  0  0
   16.9700  -28.6240   -3.2920 C   0  0  1  0  0  0  0  0  0  0  0  0
   16.2650  -27.4860   -2.5250 C   0  0  0  0  0  0  0  0  0  0  0  0
   17.0230  -26.7130   -1.4790 C   0  0  2  0  0  0  0  0  0  0  0  0
   16.3420  -25.7030   -0.8310 O   0  0  0  0  0  0  0  0  0  0  0  0
   15.0780  -25.4890   -1.3010 C   0  0  0  0  0  0  0  0  0  0  0  0
   18.4860  -27.0610   -1.1890 C   0  0  1  0  0  0  0  0  0  0  0  0
   19.0900  -26.3360   -0.1930 O   0  0  0  0  0  0  0  0  0  0  0  0
   18.6330  -26.5470    1.1530 C   0  0  0  0  0  0  0  0  0  0  0  0
   19.2210  -28.2020   -1.9390 C   0  0  1  0  0  0  0  0  0  0  0  0
   20.6800  -28.5920   -1.6810 C   0  0  0  0  0  0  0  0  0  0  0  0
   21.5310  -27.8320   -1.0510 C   0  0  0  0  0  0  0  0  0  0  0  0
   22.9260  -28.2980   -0.6990 C   0  0  0  0  0  0  0  0  0  0  0  0
   23.5290  -29.3200   -1.4780 N   0  0  0  0  0  0  0  0  0  0  0  0
   22.6920  -29.8720   -2.5010 N   0  3  0  0  0  0  0  0  0  0  0  0
   23.1870  -30.9750   -3.2220 C   0  0  0  0  0  0  0  0  0  0  0  0
   24.9290  -29.7900   -1.3140 C   0  0  1  0  0  0  0  0  0  0  0  0
   25.1220  -31.2630   -0.7360 C   0  0  0  0  0  0  0  0  0  0  0  0
   26.1410  -31.2130    0.3760 C   0  0  0  0  0  0  0  0  0  0  0  0
   25.8070  -30.0460    1.2950 C   0  0  0  0  0  0  0  0  0  0  0  0
   25.4890  -30.1040   -2.7450 C   0  0  0  0  0  0  0  0  0  0  0  0
   24.5700  -30.7260   -3.6910 C   0  0  0  0  0  0  0  0  0  0  0  0
   25.0310  -31.0640   -5.1120 C   0  0  0  0  0  0  0  0  0  0  0  0
   26.4580  -30.7340   -5.4390 C   0  0  0  0  0  0  0  0  0  0  0  0
   27.3820  -30.1120   -4.4570 C   0  0  0  0  0  0  0  0  0  0  0  0
   26.9420  -29.7690   -3.0780 C   0  0  0  0  0  0  0  0  0  0  0  0
   23.5170  -27.8010    0.1640 O   0  0  0  0  0  0  0  0  0  0  0  0
   18.4360  -28.9780   -2.9930 C   0  0  0  0  0  0  0  0  0  0  0  0
   16.7030  -31.4680   -2.7430 C   0  0  0  0  0  0  0  0  0  0  0  0
   16.7610  -32.8710   -2.6230 N   0  0  0  0  0  0  0  0  0  0  0  0
   16.3770  -33.8330   -3.7060 C   0  0  0  0  0  0  0  0  0  0  0  0
   16.5040  -35.2090   -3.5200 N   0  0  0  0  0  0  0  0  0  0  0  0
   15.9230  -33.2890   -4.9570 N   0  0  0  0  0  0  0  0  0  0  0  0
   15.1243  -31.9693   -7.0399 H   0  0  0  0  0  0  0  0  0  0  0  0
   15.3249  -30.3221   -6.3848 H   0  0  0  0  0  0  0  0  0  0  0  0
   15.1119  -29.0934   -4.2324 H   0  0  0  0  0  0  0  0  0  0  0  0
   16.5519  -29.2202   -5.2988 H   0  0  0  0  0  0  0  0  0  0  0  0
   17.2898  -27.9246   -4.0785 H   0  0  0  0  0  0  0  0  0  0  0  0
   15.3929  -27.9311   -2.0237 H   0  0  0  0  0  0  0  0  0  0  0  0
   15.9244  -26.7579   -3.2759 H   0  0  0  0  0  0  0  0  0  0  0  0
   16.7089  -27.4255   -0.7021 H   0  0  0  0  0  0  0  0  0  0  0  0
   14.6089  -24.6723   -0.7327 H   0  0  0  0  0  0  0  0  0  0  0  0
   14.4828  -26.4065   -1.1833 H   0  0  0  0  0  0  0  0  0  0  0  0
   15.1240  -25.2157   -2.3655 H   0  0  0  0  0  0  0  0  0  0  0  0
   18.8298  -26.3433   -1.9484 H   0  0  0  0  0  0  0  0  0  0  0  0
   19.2033  -25.9034    1.8390 H   0  0  0  0  0  0  0  0  0  0  0  0
   18.7823  -27.6010    1.4300 H   0  0  0  0  0  0  0  0  0  0  0  0
   17.5637  -26.2980    1.2205 H   0  0  0  0  0  0  0  0  0  0  0  0
   19.5569  -27.4798   -2.6977 H   0  0  0  0  0  0  0  0  0  0  0  0
   21.0255  -29.5587   -2.0445 H   0  0  0  0  0  0  0  0  0  0  0  0
   21.2266  -26.8254   -0.7680 H   0  0  0  0  0  0  0  0  0  0  0  0
   22.5030  -29.1377   -3.1651 H   0  0  0  0  0  0  0  0  0  0  0  0
   21.8305  -30.1595   -2.0636 H   0  0  0  0  0  0  0  0  0  0  0  0
   22.5392  -31.1557   -4.0924 H   0  0  0  0  0  0  0  0  0  0  0  0
   23.1822  -31.8616   -2.5710 H   0  0  0  0  0  0  0  0  0  0  0  0
   25.5133  -29.0446   -0.7546 H   0  0  0  0  0  0  0  0  0  0  0  0
   25.4771  -31.9311   -1.5345 H   0  0  0  0  0  0  0  0  0  0  0  0
   24.1641  -31.6362   -0.3446 H   0  0  0  0  0  0  0  0  0  0  0  0
   27.1458  -31.0729   -0.0492 H   0  0  0  0  0  0  0  0  0  0  0  0
   26.1121  -32.1530    0.9466 H   0  0  0  0  0  0  0  0  0  0  0  0
   26.5437  -29.9991    2.1106 H   0  0  0  0  0  0  0  0  0  0  0  0
   24.8012  -30.1879    1.7172 H   0  0  0  0  0  0  0  0  0  0  0  0
   25.8349  -29.1079    0.7213 H   0  0  0  0  0  0  0  0  0  0  0  0
   24.3654  -31.5152   -5.8390 H   0  0  0  0  0  0  0  0  0  0  0  0
   26.8293  -30.9588   -6.4323 H   0  0  0  0  0  0  0  0  0  0  0  0
   28.4036  -29.9024   -4.7527 H   0  0  0  0  0  0  0  0  0  0  0  0
   27.6089  -29.3112   -2.3564 H   0  0  0  0  0  0  0  0  0  0  0  0
   18.9859  -28.8686   -3.9393 H   0  0  0  0  0  0  0  0  0  0  0  0
   18.4483  -30.0329   -2.6816 H   0  0  0  0  0  0  0  0  0  0  0  0
   16.9960  -30.8240   -1.9217 H   0  0  0  0  0  0  0  0  0  0  0  0
   16.8310  -35.5785   -2.6159 H   0  0  0  0  0  0  0  0  0  0  0  0
   16.2708  -35.8560   -4.2867 H   0  0  0  0  0  0  0  0  0  0  0  0
  1  2  1  0  0  0  0
  1 37  1  0  0  0  0
  1 38  1  0  0  0  0
  2  3  2  0  0  0  0
  2 36  1  0  0  0  0
  3  4  1  0  0  0  0
  3 32  1  0  0  0  0
  4  5  1  0  0  0  0
  4 39  1  0  0  0  0
  4 40  1  0  0  0  0
  5  6  1  0  0  0  0
  5 31  1  0  0  0  0
  5 41  1  6  0  0  0
  6  7  1  0  0  0  0
  6 42  1  0  0  0  0
  6 43  1  0  0  0  0
  7  8  1  0  0  0  0
  7 10  1  0  0  0  0
  7 44  1  1  0  0  0
  8  9  1  0  0  0  0
  9 45  1  0  0  0  0
  9 46  1  0  0  0  0
  9 47  1  0  0  0  0
 10 11  1  0  0  0  0
 10 13  1  0  0  0  0
 10 48  1  6  0  0  0
 11 12  1  0  0  0  0
 12 49  1  0  0  0  0
 12 50  1  0  0  0  0
 12 51  1  0  0  0  0
 13 14  1  0  0  0  0
 13 31  1  0  0  0  0
 13 52  1  6  0  0  0
 14 15  2  0  0  0  0
 14 53  1  0  0  0  0
 15 16  1  0  0  0  0
 15 54  1  0  0  0  0
 16 17  1  0  0  0  0
 16 30  2  0  0  0  0
 17 18  1  0  0  0  0
 17 20  1  0  0  0  0
 18 19  1  0  0  0  0
 18 55  1  0  0  0  0
 18 56  1  0  0  0  0
 19 25  1  0  0  0  0
 19 57  1  0  0  0  0
 19 58  1  0  0  0  0
 20 21  1  0  0  0  0
 20 24  1  0  0  0  0
 20 59  1  1  0  0  0
 21 22  1  0  0  0  0
 21 60  1  0  0  0  0
 21 61  1  0  0  0  0
 22 23  1  0  0  0  0
 22 62  1  0  0  0  0
 22 63  1  0  0  0  0
 23 64  1  0  0  0  0
 23 65  1  0  0  0  0
 23 66  1  0  0  0  0
 24 25  2  0  0  0  0
 24 29  1  0  0  0  0
 25 26  1  0  0  0  0
 26 27  2  0  0  0  0
 26 67  1  0  0  0  0
 27 28  1  0  0  0  0
 27 68  1  0  0  0  0
 28 29  2  0  0  0  0
 28 69  1  0  0  0  0
 29 70  1  0  0  0  0
 31 71  1  0  0  0  0
 31 72  1  0  0  0  0
 32 33  2  0  0  0  0
 32 73  1  0  0  0  0
 33 34  1  0  0  0  0
 34 35  1  0  0  0  0
 34 36  2  0  0  0  0
 35 74  1  0  0  0  0
 35 75  1  0  0  0  0
M  CHG  1  18   1
M  END
