3fqa_ligand
 OpenBabel08222323343D

 16 16  0  0  0  0  0  0  0  0999 V2000
    9.9040   25.4340  -30.7060 C   0  0  0  0  0  0  0  0  0  0  0  0
   10.7560   25.4560  -29.8170 O   0  5  0  0  0  0  0  0  0  0  0  0
    9.3240   26.6300  -30.6540 O   0  0  0  0  0  0  0  0  0  0  0  0
    9.5350   24.3720  -31.6530 C   0  0  0  0  0  0  0  0  0  0  0  0
   10.2610   23.0100  -31.6460 C   0  0  0  0  0  0  0  0  0  0  0  0
    9.7860   22.0260  -32.6700 C   0  0  0  0  0  0  0  0  0  0  0  0
    8.7130   22.3450  -33.5860 C   0  0  0  0  0  0  0  0  0  0  0  0
    8.1030   23.5780  -33.5300 C   0  0  0  0  0  0  0  0  0  0  0  0
    8.5190   24.6010  -32.5600 C   0  0  0  0  0  0  0  0  0  0  0  0
   10.3720   20.8460  -32.7270 N   0  0  0  0  0  0  0  0  0  0  0  0
   11.0589   22.7817  -30.9486 H   0  0  0  0  0  0  0  0  0  0  0  0
    8.3890   21.6130  -34.3169 H   0  0  0  0  0  0  0  0  0  0  0  0
    7.2957   23.7999  -34.2185 H   0  0  0  0  0  0  0  0  0  0  0  0
    8.0149   25.5607  -32.5564 H   0  0  0  0  0  0  0  0  0  0  0  0
   11.1361   20.6184  -32.0749 H   0  0  0  0  0  0  0  0  0  0  0  0
   10.0656   20.1519  -33.4236 H   0  0  0  0  0  0  0  0  0  0  0  0
  1  2  1  0  0  0  0
  1  3  2  0  0  0  0
  1  4  1  0  0  0  0
  4  5  2  0  0  0  0
  4  9  1  0  0  0  0
  5  6  1  0  0  0  0
  5 11  1  0  0  0  0
  6  7  2  0  0  0  0
  6 10  1  0  0  0  0
  7  8  1  0  0  0  0
  7 12  1  0  0  0  0
  8  9  2  0  0  0  0
  8 13  1  0  0  0  0
  9 14  1  0  0  0  0
 10 15  1  0  0  0  0
 10 16  1  0  0  0  0
M  CHG  1   2  -1
M  END
