3fqk_ligand
 OpenBabel08222323343D

 54 57  0  0  0  0  0  0  0  0999 V2000
  -50.2710    8.7310    9.1190 C   0  0  0  0  0  0  0  0  0  0  0  0
  -49.6810    8.8100   10.5370 C   0  0  0  0  0  0  0  0  0  0  0  0
  -48.9570    8.0160    9.4410 C   0  0  0  0  0  0  0  0  0  0  0  0
  -45.8720   15.3300   11.0380 C   0  0  0  0  0  0  0  0  0  0  0  0
  -44.6290   15.3640   10.3860 C   0  0  0  0  0  0  0  0  0  0  0  0
  -43.8470   16.4900   10.4890 C   0  0  0  0  0  0  0  0  0  0  0  0
  -44.2750   17.5630   11.2610 C   0  0  0  0  0  0  0  0  0  0  0  0
  -45.4860   17.5330   11.9310 C   0  0  0  0  0  0  0  0  0  0  0  0
  -46.2810   16.4050   11.8390 C   0  0  0  0  0  0  0  0  0  0  0  0
  -49.1330   10.1460   11.0150 C   0  0  0  0  0  0  0  0  0  0  0  0
  -49.5550   10.7340   12.2370 C   0  0  0  0  0  0  0  0  0  0  0  0
  -49.0370   11.9630   12.6310 C   0  0  0  0  0  0  0  0  0  0  0  0
  -48.2210   10.8500   10.2210 C   0  0  0  0  0  0  0  0  0  0  0  0
  -47.7060   12.0880   10.6340 C   0  0  0  0  0  0  0  0  0  0  0  0
  -48.1210   12.6470   11.8520 C   0  0  0  0  0  0  0  0  0  0  0  0
  -47.5020   13.8320   12.0340 O   0  0  0  0  0  0  0  0  0  0  0  0
  -46.6980   14.1150   11.0030 C   0  0  0  0  0  0  0  0  0  0  0  0
  -46.7430   13.0640   10.0750 C   0  0  0  0  0  0  0  0  0  0  0  0
  -46.0340   12.9020    8.8040 C   0  0  0  0  0  0  0  0  0  0  0  0
  -45.2360   11.9890    8.7030 O   0  0  0  0  0  0  0  0  0  0  0  0
  -46.2930   13.7200    7.7640 N   0  0  0  0  0  0  0  0  0  0  0  0
  -45.6110   13.5910    6.4680 C   0  0  0  0  0  0  0  0  0  0  0  0
  -50.4380   10.1750   13.1800 N   0  0  0  0  0  0  0  0  0  0  0  0
  -49.7620    9.3270   14.4520 S   0  0  0  0  0  0  0  0  0  0  0  0
  -50.5680    8.1660   14.6160 O   0  0  0  0  0  0  0  0  0  0  0  0
  -48.3820    9.1150   14.2150 O   0  0  0  0  0  0  0  0  0  0  0  0
  -49.9110   10.4510   15.8670 C   0  0  0  0  0  0  0  0  0  0  0  0
  -43.4910   18.6420   11.3580 F   0  0  0  0  0  0  0  0  0  0  0  0
  -51.8880   10.4030   13.1610 C   0  0  0  0  0  0  0  0  0  0  0  0
  -52.6020    9.8930   11.9150 C   0  0  0  0  0  0  0  0  0  0  0  0
  -53.6790   10.8030   11.6810 O   0  0  0  0  0  0  0  0  0  0  0  0
  -50.2687    9.6207    8.4721 H   0  0  0  0  0  0  0  0  0  0  0  0
  -51.1844    8.1463    8.9352 H   0  0  0  0  0  0  0  0  0  0  0  0
  -50.1585    8.2808   11.3748 H   0  0  0  0  0  0  0  0  0  0  0  0
  -48.0107    8.3917    9.0246 H   0  0  0  0  0  0  0  0  0  0  0  0
  -48.9265    6.9174    9.4877 H   0  0  0  0  0  0  0  0  0  0  0  0
  -44.2898   14.5120    9.8079 H   0  0  0  0  0  0  0  0  0  0  0  0
  -42.8975   16.5407    9.9685 H   0  0  0  0  0  0  0  0  0  0  0  0
  -45.8075   18.3837   12.5209 H   0  0  0  0  0  0  0  0  0  0  0  0
  -47.2165   16.3525   12.3841 H   0  0  0  0  0  0  0  0  0  0  0  0
  -49.3588   12.3955   13.5714 H   0  0  0  0  0  0  0  0  0  0  0  0
  -47.9072   10.4321    9.2713 H   0  0  0  0  0  0  0  0  0  0  0  0
  -46.9752   14.4422    7.8786 H   0  0  0  0  0  0  0  0  0  0  0  0
  -45.9840   14.3631    5.7790 H   0  0  0  0  0  0  0  0  0  0  0  0
  -45.8112   12.5952    6.0458 H   0  0  0  0  0  0  0  0  0  0  0  0
  -44.5276   13.7183    6.6095 H   0  0  0  0  0  0  0  0  0  0  0  0
  -49.4868    9.9722   16.7618 H   0  0  0  0  0  0  0  0  0  0  0  0
  -50.9723   10.6809   16.0425 H   0  0  0  0  0  0  0  0  0  0  0  0
  -49.3643   11.3817   15.6552 H   0  0  0  0  0  0  0  0  0  0  0  0
  -52.0645   11.4861   13.2366 H   0  0  0  0  0  0  0  0  0  0  0  0
  -52.3246    9.8984   14.0355 H   0  0  0  0  0  0  0  0  0  0  0  0
  -52.9891    8.8774   12.0845 H   0  0  0  0  0  0  0  0  0  0  0  0
  -51.9145    9.8849   11.0563 H   0  0  0  0  0  0  0  0  0  0  0  0
  -54.1610   10.5297   10.9094 H   0  0  0  0  0  0  0  0  0  0  0  0
  1 32  1  0  0  0  0
  1 33  1  0  0  0  0
  2  1  1  0  0  0  0
  2  3  1  0  0  0  0
  2 34  1  0  0  0  0
  3  1  1  0  0  0  0
  3 35  1  0  0  0  0
  3 36  1  0  0  0  0
  4  5  2  0  0  0  0
  4  9  1  0  0  0  0
  5  6  1  0  0  0  0
  5 37  1  0  0  0  0
  6  7  2  0  0  0  0
  6 38  1  0  0  0  0
  7 28  1  0  0  0  0
  8  7  1  0  0  0  0
  8 39  1  0  0  0  0
  9  8  2  0  0  0  0
  9 40  1  0  0  0  0
 10  2  1  0  0  0  0
 11 10  2  0  0  0  0
 11 23  1  0  0  0  0
 12 11  1  0  0  0  0
 12 41  1  0  0  0  0
 13 10  1  0  0  0  0
 13 42  1  0  0  0  0
 14 13  2  0  0  0  0
 14 18  1  0  0  0  0
 15 12  2  0  0  0  0
 15 14  1  0  0  0  0
 16 15  1  0  0  0  0
 16 17  1  0  0  0  0
 17  4  1  0  0  0  0
 17 18  2  0  0  0  0
 18 19  1  0  0  0  0
 19 20  2  0  0  0  0
 19 21  1  0  0  0  0
 21 22  1  0  0  0  0
 21 43  1  0  0  0  0
 22 44  1  0  0  0  0
 22 45  1  0  0  0  0
 22 46  1  0  0  0  0
 23 24  1  0  0  0  0
 23 29  1  0  0  0  0
 24 25  2  0  0  0  0
 24 26  2  0  0  0  0
 24 27  1  0  0  0  0
 27 47  1  0  0  0  0
 27 48  1  0  0  0  0
 27 49  1  0  0  0  0
 29 30  1  0  0  0  0
 29 50  1  0  0  0  0
 29 51  1  0  0  0  0
 30 31  1  0  0  0  0
 30 52  1  0  0  0  0
 30 53  1  0  0  0  0
 31 54  1  0  0  0  0
M  END
