3fqs_ligand
 OpenBabel08222323343D

 57 60  0  0  0  0  0  0  0  0999 V2000
    2.3230    4.8800   10.1750 N   0  0  0  0  0  0  0  0  0  0  0  0
    2.7780    0.2080   14.5220 N   0  0  0  0  0  0  0  0  0  0  0  0
    2.1900    3.5960   10.7240 C   0  0  0  0  0  0  0  0  0  0  0  0
    3.9150    0.7920   14.1530 C   0  0  0  0  0  0  0  0  0  0  0  0
    1.2540    5.4280    9.5410 C   0  0  0  0  0  0  0  0  0  0  0  0
    3.0910    3.1620   11.5890 N   0  0  0  0  0  0  0  0  0  0  0  0
    2.7120   -0.5290   15.6230 C   0  0  0  0  0  0  0  0  0  0  0  0
    0.1510    3.2330    9.4820 O   0  0  0  0  0  0  0  0  0  0  0  0
   -0.0440    4.6500    9.4320 C   0  0  0  0  0  0  0  0  0  0  0  0
    4.0310    1.5900   13.0240 N   0  0  0  0  0  0  0  0  0  0  0  0
    5.0510    0.6010   14.9350 C   0  0  0  0  0  0  0  0  0  0  0  0
   -2.3270   -0.4880   14.3850 C   0  0  0  0  0  0  0  0  0  0  0  0
    1.0940    2.8040   10.3670 C   0  0  0  0  0  0  0  0  0  0  0  0
    3.0060    1.9600   12.1470 C   0  0  0  0  0  0  0  0  0  0  0  0
   -2.0030   -1.6810   15.0590 C   0  0  0  0  0  0  0  0  0  0  0  0
   -1.3660    0.5310   14.2540 C   0  0  0  0  0  0  0  0  0  0  0  0
    3.7790   -0.7230   16.3820 N   0  0  0  0  0  0  0  0  0  0  0  0
    0.2540   -0.8560   15.4420 C   0  0  0  0  0  0  0  0  0  0  0  0
   -0.7180   -1.8510   15.5750 C   0  0  0  0  0  0  0  0  0  0  0  0
   -0.0750    0.3440   14.7850 C   0  0  0  0  0  0  0  0  0  0  0  0
    1.5190   -1.1250   16.0040 N   0  0  0  0  0  0  0  0  0  0  0  0
    4.9520   -0.1760   16.0800 C   0  0  0  0  0  0  0  0  0  0  0  0
    1.3490    6.5430    9.0750 O   0  0  0  0  0  0  0  0  0  0  0  0
    0.9710    1.5310   10.9260 C   0  0  0  0  0  0  0  0  0  0  0  0
    6.2000    1.2050   14.5850 F   0  0  0  0  0  0  0  0  0  0  0  0
    1.9440    1.1070   11.8240 C   0  0  0  0  0  0  0  0  0  0  0  0
   -3.5940   -0.2900   13.8970 O   0  0  0  0  0  0  0  0  0  0  0  0
   -1.7420    1.6720   13.5910 O   0  0  0  0  0  0  0  0  0  0  0  0
   -2.9520   -2.6650   15.1940 O   0  0  0  0  0  0  0  0  0  0  0  0
   -1.0060    5.0790   10.5480 C   0  0  0  0  0  0  0  0  0  0  0  0
   -0.6990    4.9680    8.0800 C   0  0  0  0  0  0  0  0  0  0  0  0
   -3.7820   -0.8050   12.5770 C   0  0  0  0  0  0  0  0  0  0  0  0
   -0.7190    2.6820   13.6160 C   0  0  0  0  0  0  0  0  0  0  0  0
   -2.4020   -3.8060   15.8710 C   0  0  0  0  0  0  0  0  0  0  0  0
    3.1855    5.3807   10.2487 H   0  0  0  0  0  0  0  0  0  0  0  0
    4.9724    1.9482   12.8086 H   0  0  0  0  0  0  0  0  0  0  0  0
   -0.4689   -2.7724   16.0888 H   0  0  0  0  0  0  0  0  0  0  0  0
    0.6679    1.1274   14.6872 H   0  0  0  0  0  0  0  0  0  0  0  0
    1.5605   -1.8225   16.7608 H   0  0  0  0  0  0  0  0  0  0  0  0
    5.8152   -0.3340   16.7164 H   0  0  0  0  0  0  0  0  0  0  0  0
    0.1373    0.8887   10.6663 H   0  0  0  0  0  0  0  0  0  0  0  0
    1.8807    0.1217   12.2714 H   0  0  0  0  0  0  0  0  0  0  0  0
   -1.9439    4.5108   10.4621 H   0  0  0  0  0  0  0  0  0  0  0  0
   -1.2189    6.1542   10.4554 H   0  0  0  0  0  0  0  0  0  0  0  0
   -0.5448    4.8795   11.5265 H   0  0  0  0  0  0  0  0  0  0  0  0
   -1.6421    4.4092    7.9890 H   0  0  0  0  0  0  0  0  0  0  0  0
   -0.0197    4.6758    7.2657 H   0  0  0  0  0  0  0  0  0  0  0  0
   -0.9045    6.0468    8.0168 H   0  0  0  0  0  0  0  0  0  0  0  0
   -4.8149   -0.6119   12.2518 H   0  0  0  0  0  0  0  0  0  0  0  0
   -3.5939   -1.8888   12.5760 H   0  0  0  0  0  0  0  0  0  0  0  0
   -3.0820   -0.3106   11.8874 H   0  0  0  0  0  0  0  0  0  0  0  0
   -1.0693    3.5722   13.0730 H   0  0  0  0  0  0  0  0  0  0  0  0
    0.1912    2.2940   13.1354 H   0  0  0  0  0  0  0  0  0  0  0  0
   -0.4963    2.9526   14.6587 H   0  0  0  0  0  0  0  0  0  0  0  0
   -3.1755   -4.5819   15.9695 H   0  0  0  0  0  0  0  0  0  0  0  0
   -2.0536   -3.5066   16.8705 H   0  0  0  0  0  0  0  0  0  0  0  0
   -1.5557   -4.2035   15.2915 H   0  0  0  0  0  0  0  0  0  0  0  0
  1  5  1  0  0  0  0
  1 35  1  0  0  0  0
  2  4  2  0  0  0  0
  3  1  1  0  0  0  0
  3 13  1  0  0  0  0
  4 10  1  0  0  0  0
  4 11  1  0  0  0  0
  5  9  1  0  0  0  0
  5 23  2  0  0  0  0
  6  3  2  0  0  0  0
  7  2  1  0  0  0  0
  7 17  2  0  0  0  0
  8  9  1  0  0  0  0
  9 30  1  0  0  0  0
  9 31  1  0  0  0  0
 10 14  1  0  0  0  0
 10 36  1  0  0  0  0
 11 25  1  0  0  0  0
 12 27  1  0  0  0  0
 13  8  1  0  0  0  0
 13 24  2  0  0  0  0
 14  6  1  0  0  0  0
 14 26  2  0  0  0  0
 15 12  2  0  0  0  0
 15 29  1  0  0  0  0
 16 12  1  0  0  0  0
 16 28  1  0  0  0  0
 17 22  1  0  0  0  0
 18 19  2  0  0  0  0
 18 20  1  0  0  0  0
 18 21  1  0  0  0  0
 19 15  1  0  0  0  0
 19 37  1  0  0  0  0
 20 16  2  0  0  0  0
 20 38  1  0  0  0  0
 21  7  1  0  0  0  0
 21 39  1  0  0  0  0
 22 11  2  0  0  0  0
 22 40  1  0  0  0  0
 24 26  1  0  0  0  0
 24 41  1  0  0  0  0
 26 42  1  0  0  0  0
 27 32  1  0  0  0  0
 28 33  1  0  0  0  0
 29 34  1  0  0  0  0
 30 43  1  0  0  0  0
 30 44  1  0  0  0  0
 30 45  1  0  0  0  0
 31 46  1  0  0  0  0
 31 47  1  0  0  0  0
 31 48  1  0  0  0  0
 32 49  1  0  0  0  0
 32 50  1  0  0  0  0
 32 51  1  0  0  0  0
 33 52  1  0  0  0  0
 33 53  1  0  0  0  0
 33 54  1  0  0  0  0
 34 55  1  0  0  0  0
 34 56  1  0  0  0  0
 34 57  1  0  0  0  0
M  END
