3fr2_ligand
 OpenBabel08222323343D

 37 40  0  0  0  0  0  0  0  0999 V2000
   17.6020    5.1640    1.0550 O   0  5  0  0  0  0  0  0  0  0  0  0
   18.0400    6.0880    1.7230 C   0  0  0  0  0  0  0  0  0  0  0  0
   17.4000    7.2540    1.6380 O   0  0  0  0  0  0  0  0  0  0  0  0
   19.1460    5.8400    2.7000 C   0  0  0  0  0  0  0  0  0  0  0  0
   18.8430    6.0320    4.0380 C   0  0  0  0  0  0  0  0  0  0  0  0
   19.7700    5.8230    5.0530 C   0  0  0  0  0  0  0  0  0  0  0  0
   21.0780    5.4000    4.8290 C   0  0  0  0  0  0  0  0  0  0  0  0
   21.4790    5.1670    3.5260 C   0  0  0  0  0  0  0  0  0  0  0  0
   22.7360    4.7430    2.8940 C   0  0  0  0  0  0  0  0  0  0  0  0
   24.0410    4.3600    3.5350 C   0  0  0  0  0  0  0  0  0  0  0  0
   25.1090    4.1730    2.4650 C   0  0  0  0  0  0  0  0  0  0  0  0
   24.6450    3.6030    1.1230 C   0  0  0  0  0  0  0  0  0  0  0  0
   23.4830    4.3450    0.4410 C   0  0  0  0  0  0  0  0  0  0  0  0
   22.4230    4.7350    1.4440 C   0  0  0  0  0  0  0  0  0  0  0  0
   21.1190    5.1000    1.2200 N   0  0  0  0  0  0  0  0  0  0  0  0
   20.5320    5.3720    2.4010 C   0  0  0  0  0  0  0  0  0  0  0  0
   20.5110    5.2600   -0.1000 C   0  0  0  0  0  0  0  0  0  0  0  0
   20.1900    4.0500   -0.9260 C   0  0  0  0  0  0  0  0  0  0  0  0
   20.2980    2.7770   -0.4000 C   0  0  0  0  0  0  0  0  0  0  0  0
   19.9970    1.6790   -1.2080 C   0  0  0  0  0  0  0  0  0  0  0  0
   19.5660    1.8730   -2.5200 C   0  0  0  0  0  0  0  0  0  0  0  0
   19.4610    3.1610   -3.0410 C   0  0  0  0  0  0  0  0  0  0  0  0
   19.7700    4.2570   -2.2390 C   0  0  0  0  0  0  0  0  0  0  0  0
   17.8440    6.3580    4.3041 H   0  0  0  0  0  0  0  0  0  0  0  0
   19.4572    5.9991    6.0759 H   0  0  0  0  0  0  0  0  0  0  0  0
   21.7647    5.2569    5.6555 H   0  0  0  0  0  0  0  0  0  0  0  0
   24.1985    4.2354    4.6002 H   0  0  0  0  0  0  0  0  0  0  0  0
   26.1463    4.4310    2.6454 H   0  0  0  0  0  0  0  0  0  0  0  0
   25.1075    2.7287    0.6795 H   0  0  0  0  0  0  0  0  0  0  0  0
   23.4315    4.5599   -0.6202 H   0  0  0  0  0  0  0  0  0  0  0  0
   21.1999    5.8777   -0.6949 H   0  0  0  0  0  0  0  0  0  0  0  0
   19.5663    5.8036    0.0485 H   0  0  0  0  0  0  0  0  0  0  0  0
   20.6125    2.6326    0.6273 H   0  0  0  0  0  0  0  0  0  0  0  0
   20.0985    0.6739   -0.8149 H   0  0  0  0  0  0  0  0  0  0  0  0
   19.3117    1.0186   -3.1368 H   0  0  0  0  0  0  0  0  0  0  0  0
   19.1403    3.3094   -4.0658 H   0  0  0  0  0  0  0  0  0  0  0  0
   19.6845    5.2633   -2.6328 H   0  0  0  0  0  0  0  0  0  0  0  0
  1  2  1  0  0  0  0
  2  3  2  0  0  0  0
  2  4  1  0  0  0  0
  4  5  2  0  0  0  0
  4 16  1  0  0  0  0
  5  6  1  0  0  0  0
  5 24  1  0  0  0  0
  6  7  2  0  0  0  0
  6 25  1  0  0  0  0
  7  8  1  0  0  0  0
  7 26  1  0  0  0  0
  8  9  1  0  0  0  0
  8 16  2  0  0  0  0
  9 10  2  0  0  0  0
  9 14  1  0  0  0  0
 10 11  1  0  0  0  0
 10 27  1  0  0  0  0
 11 12  2  0  0  0  0
 11 28  1  0  0  0  0
 12 13  1  0  0  0  0
 12 29  1  0  0  0  0
 13 14  2  0  0  0  0
 13 30  1  0  0  0  0
 14 15  1  0  0  0  0
 15 16  1  0  0  0  0
 15 17  1  0  0  0  0
 17 18  1  0  0  0  0
 17 31  1  0  0  0  0
 17 32  1  0  0  0  0
 18 19  2  0  0  0  0
 18 23  1  0  0  0  0
 19 20  1  0  0  0  0
 19 33  1  0  0  0  0
 20 21  2  0  0  0  0
 20 34  1  0  0  0  0
 21 22  1  0  0  0  0
 21 35  1  0  0  0  0
 22 23  2  0  0  0  0
 22 36  1  0  0  0  0
 23 37  1  0  0  0  0
M  CHG  1   1  -1
M  END
