3frz_ligand
 OpenBabel08222323343D

 74 78  0  0  1  0  0  0  0  0999 V2000
   44.3910   15.1730   53.4050 O   0  0  0  0  0  0  0  0  0  0  0  0
   43.3270   14.6420   53.3930 C   0  0  0  0  0  0  0  0  0  0  0  0
   43.0870   13.5250   52.4850 C   0  0  0  0  0  0  0  0  0  0  0  0
   41.8380   12.9230   52.5130 C   0  0  0  0  0  0  0  0  0  0  0  0
   41.5840   11.8920   51.6950 O   0  0  0  0  0  0  0  0  0  0  0  0
   44.2620   13.0230   51.5630 C   0  0  0  0  0  0  0  0  0  0  0  0
   44.5410   13.8790   50.3340 C   0  0  0  0  0  0  0  0  0  0  0  0
   45.7290   14.0770   49.8250 N   0  0  0  0  0  0  0  0  0  0  0  0
   43.5340   14.5690   49.6350 N   0  0  0  0  0  0  0  0  0  0  0  0
   44.1590   15.1600   48.6940 C   0  0  0  0  0  0  0  0  0  0  0  0
   45.4790   14.8470   48.8200 N   0  0  0  0  0  0  0  0  0  0  0  0
   46.3370   15.3880   47.9440 C   0  0  0  0  0  0  0  0  0  0  0  0
   45.8850   16.2230   46.9550 C   0  0  0  0  0  0  0  0  0  0  0  0
   47.7950   15.0410   48.0970 C   0  0  0  0  0  0  0  0  0  0  0  0
   43.6220   15.9730   47.7660 N   0  0  0  0  0  0  0  0  0  0  0  0
   44.5030   16.4880   46.8930 C   0  0  0  0  0  0  0  0  0  0  0  0
   43.9820   17.4050   45.8200 C   0  0  0  0  0  0  0  0  0  0  0  0
   42.3030   15.0680   54.1570 O   0  0  0  0  0  0  0  0  0  0  0  0
   41.0500   14.4180   54.3730 C   0  0  2  0  0  0  0  0  0  0  0  0
   40.6630   13.3270   53.3690 C   0  0  0  0  0  0  0  0  0  0  0  0
   39.9540   15.4580   54.7220 C   0  0  0  0  0  0  0  0  0  0  0  0
   38.6510   14.9170   55.3320 C   0  0  0  0  0  0  0  0  0  0  0  0
   39.5430   16.3050   53.5470 C   0  0  0  0  0  0  0  0  0  0  0  0
   38.1800   16.9360   53.9030 C   0  0  0  0  0  0  0  0  0  0  0  0
   37.6030   15.9930   54.9470 C   0  0  0  0  0  0  0  0  0  0  0  0
   41.3930   13.5900   55.6550 C   0  0  0  0  0  0  0  0  0  0  0  0
   41.9230   14.4070   56.8880 C   0  0  0  0  0  0  0  0  0  0  0  0
   42.2090   13.4780   58.0000 C   0  0  0  0  0  0  0  0  0  0  0  0
   43.4390   12.7680   58.1400 C   0  0  0  0  0  0  0  0  0  0  0  0
   41.2750   13.2220   58.9650 C   0  0  0  0  0  0  0  0  0  0  0  0
   41.4860   12.3590   59.9760 C   0  0  0  0  0  0  0  0  0  0  0  0
   40.3700   12.1700   60.9790 C   0  0  0  0  0  0  0  0  0  0  0  0
   40.6310   12.9700   62.2710 C   0  0  0  0  0  0  0  0  0  0  0  0
   42.6520   11.6790   60.1470 N   0  0  0  0  0  0  0  0  0  0  0  0
   43.5830   11.9150   59.2220 C   0  0  0  0  0  0  0  0  0  0  0  0
   44.8850   11.1630   59.3880 C   0  0  0  0  0  0  0  0  0  0  0  0
   44.9860   10.0280   58.3810 C   0  0  0  0  0  0  0  0  0  0  0  0
   41.6897   12.1712   50.7931 H   0  0  0  0  0  0  0  0  0  0  0  0
   44.0139   12.0078   51.2199 H   0  0  0  0  0  0  0  0  0  0  0  0
   45.1792   12.9912   52.1695 H   0  0  0  0  0  0  0  0  0  0  0  0
   46.5740   16.6681   46.2387 H   0  0  0  0  0  0  0  0  0  0  0  0
   48.3774   15.5519   47.3161 H   0  0  0  0  0  0  0  0  0  0  0  0
   47.9253   13.9532   47.9989 H   0  0  0  0  0  0  0  0  0  0  0  0
   48.1470   15.3646   49.0876 H   0  0  0  0  0  0  0  0  0  0  0  0
   42.8905   17.5004   45.9174 H   0  0  0  0  0  0  0  0  0  0  0  0
   44.2269   16.9892   44.8315 H   0  0  0  0  0  0  0  0  0  0  0  0
   44.4476   18.3959   45.9266 H   0  0  0  0  0  0  0  0  0  0  0  0
   40.3020   12.4459   53.9198 H   0  0  0  0  0  0  0  0  0  0  0  0
   39.8610   13.7072   52.7192 H   0  0  0  0  0  0  0  0  0  0  0  0
   40.4066   16.1237   55.4717 H   0  0  0  0  0  0  0  0  0  0  0  0
   38.7365   14.8235   56.4247 H   0  0  0  0  0  0  0  0  0  0  0  0
   38.3895   13.9399   54.8997 H   0  0  0  0  0  0  0  0  0  0  0  0
   39.4470   15.6810   52.6462 H   0  0  0  0  0  0  0  0  0  0  0  0
   40.2896   17.0930   53.3694 H   0  0  0  0  0  0  0  0  0  0  0  0
   37.5286   16.9860   53.0180 H   0  0  0  0  0  0  0  0  0  0  0  0
   38.3126   17.9459   54.3183 H   0  0  0  0  0  0  0  0  0  0  0  0
   37.3262   16.5680   55.8429 H   0  0  0  0  0  0  0  0  0  0  0  0
   36.7092   15.4999   54.5371 H   0  0  0  0  0  0  0  0  0  0  0  0
   42.1646   12.8548   55.3830 H   0  0  0  0  0  0  0  0  0  0  0  0
   40.4795   13.0638   55.9689 H   0  0  0  0  0  0  0  0  0  0  0  0
   41.1599   15.1339   57.2031 H   0  0  0  0  0  0  0  0  0  0  0  0
   42.8436   14.9399   56.6079 H   0  0  0  0  0  0  0  0  0  0  0  0
   44.2390   12.8928   57.4192 H   0  0  0  0  0  0  0  0  0  0  0  0
   40.3224   13.7368   58.9136 H   0  0  0  0  0  0  0  0  0  0  0  0
   40.2915   11.1018   61.2296 H   0  0  0  0  0  0  0  0  0  0  0  0
   39.4252   12.5120   60.5314 H   0  0  0  0  0  0  0  0  0  0  0  0
   39.8017   12.8093   62.9756 H   0  0  0  0  0  0  0  0  0  0  0  0
   40.7056   14.0408   62.0305 H   0  0  0  0  0  0  0  0  0  0  0  0
   41.5719   12.6306   62.7287 H   0  0  0  0  0  0  0  0  0  0  0  0
   44.9343   10.7477   60.4054 H   0  0  0  0  0  0  0  0  0  0  0  0
   45.7244   11.8571   59.2342 H   0  0  0  0  0  0  0  0  0  0  0  0
   45.9392    9.4972   58.5212 H   0  0  0  0  0  0  0  0  0  0  0  0
   44.9410   10.4376   57.3611 H   0  0  0  0  0  0  0  0  0  0  0  0
   44.1509    9.3282   58.5323 H   0  0  0  0  0  0  0  0  0  0  0  0
  1  2  2  0  0  0  0
  2  3  1  0  0  0  0
  2 18  1  0  0  0  0
  3  4  2  0  0  0  0
  3  6  1  0  0  0  0
  4  5  1  0  0  0  0
  4 20  1  0  0  0  0
  5 38  1  0  0  0  0
  6  7  1  0  0  0  0
  6 39  1  0  0  0  0
  6 40  1  0  0  0  0
  7  8  2  0  0  0  0
  7  9  1  0  0  0  0
  8 11  1  0  0  0  0
  9 10  2  0  0  0  0
 10 11  1  0  0  0  0
 10 15  1  0  0  0  0
 11 12  1  0  0  0  0
 12 13  2  0  0  0  0
 12 14  1  0  0  0  0
 13 16  1  0  0  0  0
 13 41  1  0  0  0  0
 14 42  1  0  0  0  0
 14 43  1  0  0  0  0
 14 44  1  0  0  0  0
 15 16  2  0  0  0  0
 16 17  1  0  0  0  0
 17 45  1  0  0  0  0
 17 46  1  0  0  0  0
 17 47  1  0  0  0  0
 18 19  1  0  0  0  0
 19 20  1  0  0  0  0
 19 21  1  0  0  0  0
 19 26  1  1  0  0  0
 20 48  1  0  0  0  0
 20 49  1  0  0  0  0
 21 22  1  0  0  0  0
 21 23  1  0  0  0  0
 21 50  1  0  0  0  0
 22 25  1  0  0  0  0
 22 51  1  0  0  0  0
 22 52  1  0  0  0  0
 23 24  1  0  0  0  0
 23 53  1  0  0  0  0
 23 54  1  0  0  0  0
 24 25  1  0  0  0  0
 24 55  1  0  0  0  0
 24 56  1  0  0  0  0
 25 57  1  0  0  0  0
 25 58  1  0  0  0  0
 26 27  1  0  0  0  0
 26 59  1  0  0  0  0
 26 60  1  0  0  0  0
 27 28  1  0  0  0  0
 27 61  1  0  0  0  0
 27 62  1  0  0  0  0
 28 29  2  0  0  0  0
 28 30  1  0  0  0  0
 29 35  1  0  0  0  0
 29 63  1  0  0  0  0
 30 31  2  0  0  0  0
 30 64  1  0  0  0  0
 31 32  1  0  0  0  0
 31 34  1  0  0  0  0
 32 33  1  0  0  0  0
 32 65  1  0  0  0  0
 32 66  1  0  0  0  0
 33 67  1  0  0  0  0
 33 68  1  0  0  0  0
 33 69  1  0  0  0  0
 34 35  2  0  0  0  0
 35 36  1  0  0  0  0
 36 37  1  0  0  0  0
 36 70  1  0  0  0  0
 36 71  1  0  0  0  0
 37 72  1  0  0  0  0
 37 73  1  0  0  0  0
 37 74  1  0  0  0  0
M  END
