3ft3_ligand
 OpenBabel08222323343D

142142  0  0  1  0  0  0  0  0999 V2000
  -15.0420    1.4900    8.4940 N   0  3  0  0  0  0  0  0  0  0  0  0
  -15.6960    2.8010    8.2220 C   0  0  2  0  0  0  0  0  0  0  0  0
  -15.2120    3.8720    9.2180 C   0  0  0  0  0  0  0  0  0  0  0  0
  -15.0360    3.5860   10.4130 O   0  0  0  0  0  0  0  0  0  0  0  0
  -17.2470    2.6190    8.2540 C   0  0  0  0  0  0  0  0  0  0  0  0
  -17.9440    3.6940    9.0250 C   0  0  0  0  0  0  0  0  0  0  0  0
  -17.8250    2.4130    6.8510 C   0  0  0  0  0  0  0  0  0  0  0  0
  -14.9720    5.0790    8.6930 N   0  0  0  0  0  0  0  0  0  0  0  0
  -14.5100    6.2450    9.4400 C   0  0  2  0  0  0  0  0  0  0  0  0
  -15.5580    6.7720   10.3940 C   0  0  0  0  0  0  0  0  0  0  0  0
  -16.7470    6.6080   10.1590 O   0  0  0  0  0  0  0  0  0  0  0  0
  -14.1700    7.3810    8.4680 C   0  0  0  0  0  0  0  0  0  0  0  0
  -12.9060    7.2050    7.6290 C   0  0  0  0  0  0  0  0  0  0  0  0
  -12.7520    8.3770    6.6700 C   0  0  0  0  0  0  0  0  0  0  0  0
  -11.6890    7.0760    8.5260 C   0  0  0  0  0  0  0  0  0  0  0  0
  -15.1080    7.4130   11.4680 N   0  0  0  0  0  0  0  0  0  0  0  0
  -16.0060    8.1730   12.3320 C   0  0  2  0  0  0  0  0  0  0  0  0
  -16.6090    9.3230   11.5180 C   0  0  0  0  0  0  0  0  0  0  0  0
  -15.9430    9.8620   10.6250 O   0  0  0  0  0  0  0  0  0  0  0  0
  -15.2610    8.6930   13.5650 C   0  0  0  0  0  0  0  0  0  0  0  0
  -16.1660    9.2920   14.5970 C   0  0  0  0  0  0  0  0  0  0  0  0
  -15.8870   10.4750   15.2460 N   0  0  0  0  0  0  0  0  0  0  0  0
  -17.3710    8.8890   15.0580 C   0  0  0  0  0  0  0  0  0  0  0  0
  -16.8700   10.7590   16.0810 C   0  0  0  0  0  0  0  0  0  0  0  0
  -17.7840    9.8130   15.9860 N   0  0  0  0  0  0  0  0  0  0  0  0
  -17.8510    9.6870   11.8260 N   0  0  0  0  0  0  0  0  0  0  0  0
  -18.6010   10.6200   10.9860 C   0  0  2  0  0  0  0  0  0  0  0  0
  -18.1650   12.0800   11.1080 C   0  0  0  0  0  0  0  0  0  0  0  0
  -18.1860   12.8250   10.1180 O   0  0  0  0  0  0  0  0  0  0  0  0
  -20.1070   10.4850   11.2410 C   0  0  0  0  0  0  0  0  0  0  0  0
  -20.4670   10.6350   12.7020 C   0  0  0  0  0  0  0  0  0  0  0  0
  -20.0450   11.6330   13.3230 O   0  5  0  0  0  0  0  0  0  0  0  0
  -21.1760    9.7570   13.2350 O   0  0  0  0  0  0  0  0  0  0  0  0
  -17.7750   12.4910   12.3090 N   0  0  0  0  0  0  0  0  0  0  0  0
  -17.4850   13.9120   12.5620 C   0  0  2  0  0  0  0  0  0  0  0  0
  -16.4960   14.1090   13.7030 C   0  0  0  0  0  0  0  0  0  0  0  0
  -16.8430   13.9080   14.8610 O   0  0  0  0  0  0  0  0  0  0  0  0
  -18.7850   14.6940   12.8560 C   0  0  0  0  0  0  0  0  0  0  0  0
  -18.5810   16.2330   12.8820 C   0  0  0  0  0  0  0  0  0  0  0  0
  -17.4350   16.7040   13.0880 O   0  5  0  0  0  0  0  0  0  0  0  0
  -19.5840   16.9710   12.6950 O   0  0  0  0  0  0  0  0  0  0  0  0
  -15.2740   14.5200   13.3650 N   0  0  0  0  0  0  0  0  0  0  0  0
  -14.2590   14.8790   14.3640 C   0  0  2  0  0  0  0  0  0  0  0  0
  -14.3150   16.3480   14.7860 C   0  0  0  0  0  0  0  0  0  0  0  0
  -14.4200   17.2440   13.9460 O   0  0  0  0  0  0  0  0  0  0  0  0
  -12.8660   14.5940   13.8080 C   0  0  0  0  0  0  0  0  0  0  0  0
  -12.5010   13.1350   13.5610 C   0  0  0  0  0  0  0  0  0  0  0  0
  -11.0890   13.0590   13.0280 C   0  0  0  0  0  0  0  0  0  0  0  0
  -12.6410   12.3310   14.8550 C   0  0  0  0  0  0  0  0  0  0  0  0
  -14.2030   16.6100   16.0820 N   0  0  0  0  0  0  0  0  0  0  0  0
  -14.1340   17.9940   16.5520 C   0  0  2  0  0  0  0  0  0  0  0  0
  -12.7100   18.5570   16.4510 C   0  0  0  0  0  0  0  0  0  0  0  0
  -11.7300   17.8540   16.6920 O   0  0  0  0  0  0  0  0  0  0  0  0
  -14.6480   18.1040   17.9910 C   0  0  0  0  0  0  0  0  0  0  0  0
  -15.0490   19.5000   18.4740 C   0  0  0  0  0  0  0  0  0  0  0  0
  -16.3320   19.9630   17.7810 C   0  0  0  0  0  0  0  0  0  0  0  0
  -15.2170   19.5210   20.0010 C   0  0  0  0  0  0  0  0  0  0  0  0
  -12.6110   19.8340   16.1060 N   0  0  0  0  0  0  0  0  0  0  0  0
  -11.3300   20.5230   16.0190 C   0  0  2  0  0  0  0  0  0  0  0  0
  -10.6510   20.5770   17.3950 C   0  0  0  0  0  0  0  0  0  0  0  0
  -11.3310   20.6310   18.4020 O   0  0  0  0  0  0  0  0  0  0  0  0
  -11.5560   21.9290   15.4670 C   0  0  0  0  0  0  0  0  0  0  0  0
  -11.9300   21.9400   13.9790 C   0  0  0  0  0  0  0  0  0  0  0  0
  -12.4870   23.2730   13.4950 C   0  0  0  0  0  0  0  0  0  0  0  0
  -12.4000   24.2910   14.2280 O   0  5  0  0  0  0  0  0  0  0  0  0
  -13.0240   23.2990   12.3660 O   0  0  0  0  0  0  0  0  0  0  0  0
   -9.3190   20.5530   17.4270 N   0  0  0  0  0  0  0  0  0  0  0  0
   -8.5670   20.6530   18.6850 C   0  0  2  0  0  0  0  0  0  0  0  0
   -8.5650   22.0560   19.2950 C   0  0  0  0  0  0  0  0  0  0  0  0
   -8.1210   22.2470   20.4360 O   0  5  0  0  0  0  0  0  0  0  0  0
   -7.1350   20.1820   18.4890 C   0  0  0  0  0  0  0  0  0  0  0  0
   -8.9660   23.0390   18.6650 O   0  0  0  0  0  0  0  0  0  0  0  0
  -14.0406    1.6036    8.4742 H   0  0  0  0  0  0  0  0  0  0  0  0
  -15.3186    0.8240    7.7898 H   0  0  0  0  0  0  0  0  0  0  0  0
  -15.3243    1.1557    9.4021 H   0  0  0  0  0  0  0  0  0  0  0  0
  -15.4109    3.1284    7.2113 H   0  0  0  0  0  0  0  0  0  0  0  0
  -17.4348    1.6841    8.8024 H   0  0  0  0  0  0  0  0  0  0  0  0
  -19.0286    3.5109    9.0109 H   0  0  0  0  0  0  0  0  0  0  0  0
  -17.7311    4.6709    8.5665 H   0  0  0  0  0  0  0  0  0  0  0  0
  -17.5852    3.6909   10.0648 H   0  0  0  0  0  0  0  0  0  0  0  0
  -17.2702    1.6124    6.3398 H   0  0  0  0  0  0  0  0  0  0  0  0
  -17.7343    3.3465    6.2763 H   0  0  0  0  0  0  0  0  0  0  0  0
  -18.8856    2.1320    6.9290 H   0  0  0  0  0  0  0  0  0  0  0  0
  -15.1210    5.1914    7.7106 H   0  0  0  0  0  0  0  0  0  0  0  0
  -13.6122    5.9641   10.0101 H   0  0  0  0  0  0  0  0  0  0  0  0
  -14.0538    8.3021    9.0580 H   0  0  0  0  0  0  0  0  0  0  0  0
  -15.0175    7.4934    7.7758 H   0  0  0  0  0  0  0  0  0  0  0  0
  -13.0022    6.2815    7.0391 H   0  0  0  0  0  0  0  0  0  0  0  0
  -11.8399    8.2424    6.0700 H   0  0  0  0  0  0  0  0  0  0  0  0
  -12.6789    9.3129    7.2434 H   0  0  0  0  0  0  0  0  0  0  0  0
  -13.6258    8.4227    6.0035 H   0  0  0  0  0  0  0  0  0  0  0  0
  -11.8249    6.2237    9.2080 H   0  0  0  0  0  0  0  0  0  0  0  0
  -11.5660    7.9986    9.1122 H   0  0  0  0  0  0  0  0  0  0  0  0
  -10.7938    6.9120    7.9082 H   0  0  0  0  0  0  0  0  0  0  0  0
  -14.1335    7.3737   11.6888 H   0  0  0  0  0  0  0  0  0  0  0  0
  -16.8188    7.5136   12.6704 H   0  0  0  0  0  0  0  0  0  0  0  0
  -14.5443    9.4620   13.2410 H   0  0  0  0  0  0  0  0  0  0  0  0
  -14.7166    7.8541   14.0232 H   0  0  0  0  0  0  0  0  0  0  0  0
  -17.9139    7.9965   14.7503 H   0  0  0  0  0  0  0  0  0  0  0  0
  -16.9178   11.6271   16.7368 H   0  0  0  0  0  0  0  0  0  0  0  0
  -18.6636    9.7737   16.5204 H   0  0  0  0  0  0  0  0  0  0  0  0
  -18.2805    9.3150   12.6488 H   0  0  0  0  0  0  0  0  0  0  0  0
  -18.4158   10.3226    9.9433 H   0  0  0  0  0  0  0  0  0  0  0  0
  -20.4345    9.4925   10.8980 H   0  0  0  0  0  0  0  0  0  0  0  0
  -20.6322   11.2629   10.6675 H   0  0  0  0  0  0  0  0  0  0  0  0
  -17.6771   11.8272   13.0505 H   0  0  0  0  0  0  0  0  0  0  0  0
  -17.0337   14.3278   11.6491 H   0  0  0  0  0  0  0  0  0  0  0  0
  -19.1702   14.3759   13.8360 H   0  0  0  0  0  0  0  0  0  0  0  0
  -19.5222   14.4523   12.0762 H   0  0  0  0  0  0  0  0  0  0  0  0
  -15.0395   14.5864   12.3951 H   0  0  0  0  0  0  0  0  0  0  0  0
  -14.4240   14.2566   15.2559 H   0  0  0  0  0  0  0  0  0  0  0  0
  -12.1348   15.0020   14.5214 H   0  0  0  0  0  0  0  0  0  0  0  0
  -12.7775   15.1245   12.8484 H   0  0  0  0  0  0  0  0  0  0  0  0
  -13.1872   12.7161   12.8103 H   0  0  0  0  0  0  0  0  0  0  0  0
  -10.8211   12.0074   12.8482 H   0  0  0  0  0  0  0  0  0  0  0  0
  -10.3956   13.4934   13.7632 H   0  0  0  0  0  0  0  0  0  0  0  0
  -11.0224   13.6208   12.0846 H   0  0  0  0  0  0  0  0  0  0  0  0
  -13.6758   12.4027   15.2211 H   0  0  0  0  0  0  0  0  0  0  0  0
  -11.9548   12.7351   15.6138 H   0  0  0  0  0  0  0  0  0  0  0  0
  -12.3931   11.2771   14.6605 H   0  0  0  0  0  0  0  0  0  0  0  0
  -14.1656   15.8583   16.7404 H   0  0  0  0  0  0  0  0  0  0  0  0
  -14.7858   18.6024   15.9078 H   0  0  0  0  0  0  0  0  0  0  0  0
  -13.8538   17.7364   18.6574 H   0  0  0  0  0  0  0  0  0  0  0  0
  -15.5312   17.4544   18.0798 H   0  0  0  0  0  0  0  0  0  0  0  0
  -14.2432   20.2000   18.2080 H   0  0  0  0  0  0  0  0  0  0  0  0
  -16.6019   20.9665   18.1418 H   0  0  0  0  0  0  0  0  0  0  0  0
  -17.1465   19.2599   18.0095 H   0  0  0  0  0  0  0  0  0  0  0  0
  -16.1701   19.9957   16.6935 H   0  0  0  0  0  0  0  0  0  0  0  0
  -14.2841   19.1850   20.4771 H   0  0  0  0  0  0  0  0  0  0  0  0
  -16.0384   18.8484   20.2888 H   0  0  0  0  0  0  0  0  0  0  0  0
  -15.4487   20.5446   20.3304 H   0  0  0  0  0  0  0  0  0  0  0  0
  -13.4464   20.3427   15.8979 H   0  0  0  0  0  0  0  0  0  0  0  0
  -10.6755   19.9716   15.3280 H   0  0  0  0  0  0  0  0  0  0  0  0
  -10.6312   22.5097   15.5995 H   0  0  0  0  0  0  0  0  0  0  0  0
  -12.3704   22.4015   16.0358 H   0  0  0  0  0  0  0  0  0  0  0  0
  -12.6898   21.1635   13.8066 H   0  0  0  0  0  0  0  0  0  0  0  0
  -11.0286   21.7075   13.3930 H   0  0  0  0  0  0  0  0  0  0  0  0
   -8.8155   20.4641   16.5676 H   0  0  0  0  0  0  0  0  0  0  0  0
   -9.0514   19.9804   19.4082 H   0  0  0  0  0  0  0  0  0  0  0  0
   -6.5886   20.2641   19.4402 H   0  0  0  0  0  0  0  0  0  0  0  0
   -6.6440   20.8075   17.7290 H   0  0  0  0  0  0  0  0  0  0  0  0
   -7.1361   19.1336   18.1562 H   0  0  0  0  0  0  0  0  0  0  0  0
  1  2  1  0  0  0  0
  1 73  1  0  0  0  0
  1 74  1  0  0  0  0
  1 75  1  0  0  0  0
  2  3  1  0  0  0  0
  2  5  1  0  0  0  0
  2 76  1  6  0  0  0
  3  4  2  0  0  0  0
  3  8  1  0  0  0  0
  5  6  1  0  0  0  0
  5  7  1  0  0  0  0
  5 77  1  0  0  0  0
  6 78  1  0  0  0  0
  6 79  1  0  0  0  0
  6 80  1  0  0  0  0
  7 81  1  0  0  0  0
  7 82  1  0  0  0  0
  7 83  1  0  0  0  0
  8  9  1  0  0  0  0
  8 84  1  0  0  0  0
  9 10  1  0  0  0  0
  9 12  1  0  0  0  0
  9 85  1  1  0  0  0
 10 11  2  0  0  0  0
 10 16  1  0  0  0  0
 12 13  1  0  0  0  0
 12 86  1  0  0  0  0
 12 87  1  0  0  0  0
 13 14  1  0  0  0  0
 13 15  1  0  0  0  0
 13 88  1  0  0  0  0
 14 89  1  0  0  0  0
 14 90  1  0  0  0  0
 14 91  1  0  0  0  0
 15 92  1  0  0  0  0
 15 93  1  0  0  0  0
 15 94  1  0  0  0  0
 16 17  1  0  0  0  0
 16 95  1  0  0  0  0
 17 18  1  0  0  0  0
 17 20  1  0  0  0  0
 17 96  1  1  0  0  0
 18 19  2  0  0  0  0
 18 26  1  0  0  0  0
 20 21  1  0  0  0  0
 20 97  1  0  0  0  0
 20 98  1  0  0  0  0
 21 22  1  0  0  0  0
 21 23  2  0  0  0  0
 22 24  2  0  0  0  0
 23 25  1  0  0  0  0
 23 99  1  0  0  0  0
 24 25  1  0  0  0  0
 24100  1  0  0  0  0
 25101  1  0  0  0  0
 26 27  1  0  0  0  0
 26102  1  0  0  0  0
 27 28  1  0  0  0  0
 27 30  1  0  0  0  0
 27103  1  6  0  0  0
 28 29  2  0  0  0  0
 28 34  1  0  0  0  0
 30 31  1  0  0  0  0
 30104  1  0  0  0  0
 30105  1  0  0  0  0
 31 32  1  0  0  0  0
 31 33  2  0  0  0  0
 34 35  1  0  0  0  0
 34106  1  0  0  0  0
 35 36  1  0  0  0  0
 35 38  1  0  0  0  0
 35107  1  6  0  0  0
 36 37  2  0  0  0  0
 36 42  1  0  0  0  0
 38 39  1  0  0  0  0
 38108  1  0  0  0  0
 38109  1  0  0  0  0
 39 40  1  0  0  0  0
 39 41  2  0  0  0  0
 42 43  1  0  0  0  0
 42110  1  0  0  0  0
 43 44  1  0  0  0  0
 43 46  1  0  0  0  0
 43111  1  1  0  0  0
 44 45  2  0  0  0  0
 44 50  1  0  0  0  0
 46 47  1  0  0  0  0
 46112  1  0  0  0  0
 46113  1  0  0  0  0
 47 48  1  0  0  0  0
 47 49  1  0  0  0  0
 47114  1  0  0  0  0
 48115  1  0  0  0  0
 48116  1  0  0  0  0
 48117  1  0  0  0  0
 49118  1  0  0  0  0
 49119  1  0  0  0  0
 49120  1  0  0  0  0
 50 51  1  0  0  0  0
 50121  1  0  0  0  0
 51 52  1  0  0  0  0
 51 54  1  0  0  0  0
 51122  1  6  0  0  0
 52 53  2  0  0  0  0
 52 58  1  0  0  0  0
 54 55  1  0  0  0  0
 54123  1  0  0  0  0
 54124  1  0  0  0  0
 55 56  1  0  0  0  0
 55 57  1  0  0  0  0
 55125  1  0  0  0  0
 56126  1  0  0  0  0
 56127  1  0  0  0  0
 56128  1  0  0  0  0
 57129  1  0  0  0  0
 57130  1  0  0  0  0
 57131  1  0  0  0  0
 58 59  1  0  0  0  0
 58132  1  0  0  0  0
 59 60  1  0  0  0  0
 59 62  1  0  0  0  0
 59133  1  6  0  0  0
 60 61  2  0  0  0  0
 60 67  1  0  0  0  0
 62 63  1  0  0  0  0
 62134  1  0  0  0  0
 62135  1  0  0  0  0
 63 64  1  0  0  0  0
 63136  1  0  0  0  0
 63137  1  0  0  0  0
 64 65  1  0  0  0  0
 64 66  2  0  0  0  0
 67 68  1  0  0  0  0
 67138  1  0  0  0  0
 68 69  1  0  0  0  0
 68 71  1  0  0  0  0
 68139  1  1  0  0  0
 69 70  1  0  0  0  0
 69 72  2  0  0  0  0
 71140  1  0  0  0  0
 71141  1  0  0  0  0
 71142  1  0  0  0  0
M  CHG  5   1   1  32  -1  40  -1  65  -1  70  -1
M  END
