3ftu_ligand
 OpenBabel08222323343D

 31 32  0  0  0  0  0  0  0  0999 V2000
   22.4510   -2.8540   -4.4560 C   0  0  0  0  0  0  0  0  0  0  0  0
   22.1970   -1.7950   -5.3160 C   0  0  0  0  0  0  0  0  0  0  0  0
   22.7080   -0.5380   -5.0300 C   0  0  0  0  0  0  0  0  0  0  0  0
   25.2740    0.1880   -1.6330 C   0  0  0  0  0  0  0  0  0  0  0  0
   24.5630   -1.1840   -1.7440 C   0  0  0  0  0  0  0  0  0  0  0  0
   23.4660   -0.3490   -3.8850 C   0  0  0  0  0  0  0  0  0  0  0  0
   23.7110   -1.3940   -3.0030 C   0  0  0  0  0  0  0  0  0  0  0  0
   23.1920   -2.6480   -3.2970 C   0  0  0  0  0  0  0  0  0  0  0  0
   22.4690    0.5210   -5.8800 O   0  0  0  0  0  0  0  0  0  0  0  0
   21.9240   -4.0800   -4.7300 O   0  0  0  0  0  0  0  0  0  0  0  0
   26.3430    0.0110   -0.5700 C   0  0  0  0  0  0  0  0  0  0  0  0
   26.0100   -0.2870    0.7480 C   0  0  0  0  0  0  0  0  0  0  0  0
   27.0200   -0.4690    1.7060 C   0  0  0  0  0  0  0  0  0  0  0  0
   28.3740   -0.3470    1.3620 C   0  0  0  0  0  0  0  0  0  0  0  0
   29.3840   -0.5230    2.3020 O   0  0  0  0  0  0  0  0  0  0  0  0
   28.6920   -0.0350    0.0490 C   0  0  0  0  0  0  0  0  0  0  0  0
   27.6790    0.1520   -0.9140 C   0  0  0  0  0  0  0  0  0  0  0  0
   21.6012   -1.9498   -6.2083 H   0  0  0  0  0  0  0  0  0  0  0  0
   24.5588    0.9675   -1.3317 H   0  0  0  0  0  0  0  0  0  0  0  0
   25.7314    0.4621   -2.5951 H   0  0  0  0  0  0  0  0  0  0  0  0
   23.9057   -1.2954   -0.8691 H   0  0  0  0  0  0  0  0  0  0  0  0
   25.3353   -1.9671   -1.7245 H   0  0  0  0  0  0  0  0  0  0  0  0
   23.8752    0.6324   -3.6739 H   0  0  0  0  0  0  0  0  0  0  0  0
   23.3659   -3.4740   -2.6170 H   0  0  0  0  0  0  0  0  0  0  0  0
   23.2958    0.8585   -6.2039 H   0  0  0  0  0  0  0  0  0  0  0  0
   21.4520   -4.0437   -5.5536 H   0  0  0  0  0  0  0  0  0  0  0  0
   24.9688   -0.3788    1.0354 H   0  0  0  0  0  0  0  0  0  0  0  0
   26.7488   -0.7077    2.7280 H   0  0  0  0  0  0  0  0  0  0  0  0
   29.2801    0.1134    2.9997 H   0  0  0  0  0  0  0  0  0  0  0  0
   29.7317    0.0664   -0.2407 H   0  0  0  0  0  0  0  0  0  0  0  0
   27.9471    0.4083   -1.9326 H   0  0  0  0  0  0  0  0  0  0  0  0
  1  8  1  0  0  0  0
  1 10  1  0  0  0  0
  2  1  2  0  0  0  0
  2 18  1  0  0  0  0
  3  2  1  0  0  0  0
  3  9  1  0  0  0  0
  4 11  1  0  0  0  0
  4 19  1  0  0  0  0
  4 20  1  0  0  0  0
  5  4  1  0  0  0  0
  5 21  1  0  0  0  0
  5 22  1  0  0  0  0
  6  3  2  0  0  0  0
  6  7  1  0  0  0  0
  6 23  1  0  0  0  0
  7  5  1  0  0  0  0
  7  8  2  0  0  0  0
  8 24  1  0  0  0  0
  9 25  1  0  0  0  0
 10 26  1  0  0  0  0
 11 12  2  0  0  0  0
 11 17  1  0  0  0  0
 12 13  1  0  0  0  0
 12 27  1  0  0  0  0
 13 14  2  0  0  0  0
 13 28  1  0  0  0  0
 14 15  1  0  0  0  0
 14 16  1  0  0  0  0
 15 29  1  0  0  0  0
 16 17  2  0  0  0  0
 16 30  1  0  0  0  0
 17 31  1  0  0  0  0
M  END
