3fu0_ligand
 OpenBabel08222323343D

 23 24  0  0  0  0  0  0  0  0999 V2000
   29.6910   -0.7530    1.3560 F   0  0  0  0  0  0  0  0  0  0  0  0
   28.5660   -0.6370    0.6190 C   0  0  0  0  0  0  0  0  0  0  0  0
   28.5360   -0.0180   -0.6350 C   0  0  0  0  0  0  0  0  0  0  0  0
   27.3520    0.0850   -1.3830 C   0  0  0  0  0  0  0  0  0  0  0  0
   27.3950   -1.1530    1.1220 C   0  0  0  0  0  0  0  0  0  0  0  0
   26.2330   -1.0510    0.3660 C   0  0  0  0  0  0  0  0  0  0  0  0
   26.1810   -0.4690   -0.8880 C   0  0  0  0  0  0  0  0  0  0  0  0
   24.8210   -0.4170   -1.5570 C   0  0  0  0  0  0  0  0  0  0  0  0
   24.0040    0.2620   -0.9700 O   0  0  0  0  0  0  0  0  0  0  0  0
   24.2950   -1.1060   -2.8090 C   0  0  0  0  0  0  0  0  0  0  0  0
   23.9340   -2.4480   -2.8180 C   0  0  0  0  0  0  0  0  0  0  0  0
   23.4180   -3.0300   -3.9750 C   0  0  0  0  0  0  0  0  0  0  0  0
   23.2340   -2.3150   -5.0910 N   0  0  0  0  0  0  0  0  0  0  0  0
   23.5400   -1.0170   -5.1120 C   0  0  0  0  0  0  0  0  0  0  0  0
   24.0580   -0.3890   -3.9770 C   0  0  0  0  0  0  0  0  0  0  0  0
   29.4528    0.3939   -1.0410 H   0  0  0  0  0  0  0  0  0  0  0  0
   27.3533    0.5938   -2.3402 H   0  0  0  0  0  0  0  0  0  0  0  0
   27.3782   -1.6324    2.0941 H   0  0  0  0  0  0  0  0  0  0  0  0
   25.3154   -1.4502    0.7827 H   0  0  0  0  0  0  0  0  0  0  0  0
   24.0542   -3.0450   -1.9212 H   0  0  0  0  0  0  0  0  0  0  0  0
   23.1607   -4.0830   -3.9705 H   0  0  0  0  0  0  0  0  0  0  0  0
   23.3852   -0.4438   -6.0189 H   0  0  0  0  0  0  0  0  0  0  0  0
   24.2784    0.6719   -4.0069 H   0  0  0  0  0  0  0  0  0  0  0  0
  1  2  1  0  0  0  0
  2  3  2  0  0  0  0
  2  5  1  0  0  0  0
  3  4  1  0  0  0  0
  3 16  1  0  0  0  0
  4  7  2  0  0  0  0
  4 17  1  0  0  0  0
  5  6  2  0  0  0  0
  5 18  1  0  0  0  0
  6  7  1  0  0  0  0
  6 19  1  0  0  0  0
  7  8  1  0  0  0  0
  8  9  2  0  0  0  0
  8 10  1  0  0  0  0
 10 11  2  0  0  0  0
 10 15  1  0  0  0  0
 11 12  1  0  0  0  0
 11 20  1  0  0  0  0
 12 13  2  0  0  0  0
 12 21  1  0  0  0  0
 13 14  1  0  0  0  0
 14 15  2  0  0  0  0
 14 22  1  0  0  0  0
 15 23  1  0  0  0  0
M  END
