3fu6_ligand
 OpenBabel08222323343D

 25 26  0  0  0  0  0  0  0  0999 V2000
   25.8510    0.5640    1.3510 C   0  0  0  0  0  0  0  0  0  0  0  0
   25.5350    1.0840    0.1010 C   0  0  0  0  0  0  0  0  0  0  0  0
   26.4660    1.0340   -0.9290 C   0  0  0  0  0  0  0  0  0  0  0  0
   27.7140    0.4620   -0.7100 C   0  0  0  0  0  0  0  0  0  0  0  0
   28.0310   -0.0580    0.5400 C   0  0  0  0  0  0  0  0  0  0  0  0
   27.0990   -0.0080    1.5700 C   0  0  0  0  0  0  0  0  0  0  0  0
   24.8520    0.6180    2.4550 C   0  0  0  0  0  0  0  0  0  0  0  0
   22.9170    1.4920    3.9530 C   0  0  0  0  0  0  0  0  0  0  0  0
   23.4830    0.2700    4.3210 C   0  0  0  0  0  0  0  0  0  0  0  0
   24.5290   -0.2150    3.5210 C   0  0  0  0  0  0  0  0  0  0  0  0
   28.7270    0.4070   -1.8300 C   0  0  0  0  0  0  0  0  0  0  0  0
   29.7880    1.3610   -1.5700 N   0  3  0  0  0  0  0  0  0  0  0  0
   23.7870    2.0420    2.4920 S   0  0  0  0  0  0  0  0  0  0  0  0
   24.5614    1.5288   -0.0701 H   0  0  0  0  0  0  0  0  0  0  0  0
   26.2194    1.4408   -1.9030 H   0  0  0  0  0  0  0  0  0  0  0  0
   29.0048   -0.5023    0.7112 H   0  0  0  0  0  0  0  0  0  0  0  0
   27.3453   -0.4150    2.5440 H   0  0  0  0  0  0  0  0  0  0  0  0
   22.1030    2.0098    4.4583 H   0  0  0  0  0  0  0  0  0  0  0  0
   23.1286   -0.2822    5.1901 H   0  0  0  0  0  0  0  0  0  0  0  0
   25.0404   -1.1563    3.7167 H   0  0  0  0  0  0  0  0  0  0  0  0
   28.2351    0.6562   -2.7818 H   0  0  0  0  0  0  0  0  0  0  0  0
   29.1516   -0.6059   -1.8909 H   0  0  0  0  0  0  0  0  0  0  0  0
   30.4635    1.3241   -2.3172 H   0  0  0  0  0  0  0  0  0  0  0  0
   30.2389    1.1327   -0.6979 H   0  0  0  0  0  0  0  0  0  0  0  0
   29.3990    2.2893   -1.5143 H   0  0  0  0  0  0  0  0  0  0  0  0
  1  2  2  0  0  0  0
  1  6  1  0  0  0  0
  2  3  1  0  0  0  0
  2 14  1  0  0  0  0
  3  4  2  0  0  0  0
  3 15  1  0  0  0  0
  4 11  1  0  0  0  0
  5  4  1  0  0  0  0
  5 16  1  0  0  0  0
  6  5  2  0  0  0  0
  6 17  1  0  0  0  0
  7  1  1  0  0  0  0
  7 10  2  0  0  0  0
  8  9  2  0  0  0  0
  8 13  1  0  0  0  0
  8 18  1  0  0  0  0
  9 10  1  0  0  0  0
  9 19  1  0  0  0  0
 10 20  1  0  0  0  0
 11 12  1  0  0  0  0
 11 21  1  0  0  0  0
 11 22  1  0  0  0  0
 12 23  1  0  0  0  0
 12 24  1  0  0  0  0
 12 25  1  0  0  0  0
 13  7  1  0  0  0  0
M  CHG  1  12   1
M  END
