3fue_ligand
 OpenBabel08222323343D

 16 17  0  0  0  0  0  0  0  0999 V2000
   22.4820   -3.0260   -5.5770 C   0  0  0  0  0  0  0  0  0  0  0  0
   22.8700   -3.2290   -4.2550 C   0  0  0  0  0  0  0  0  0  0  0  0
   24.3200    0.0370   -4.8090 C   0  0  0  0  0  0  0  0  0  0  0  0
   24.9350    0.3370   -3.6040 C   0  0  0  0  0  0  0  0  0  0  0  0
   24.8990   -0.5280   -2.5340 C   0  0  0  0  0  0  0  0  0  0  0  0
   24.2210   -1.7530   -2.6250 C   0  0  0  0  0  0  0  0  0  0  0  0
   23.6020   -2.0660   -3.8510 C   0  0  0  0  0  0  0  0  0  0  0  0
   23.6500   -1.1810   -4.9230 C   0  0  0  0  0  0  0  0  0  0  0  0
   25.7670    0.1420   -1.1100 Cl  0  0  0  0  0  0  0  0  0  0  0  0
   22.9650   -1.7820   -5.9480 N   0  0  0  0  0  0  0  0  0  0  0  0
   21.9095   -3.7126   -6.1989 H   0  0  0  0  0  0  0  0  0  0  0  0
   22.6573   -4.1053   -3.6445 H   0  0  0  0  0  0  0  0  0  0  0  0
   24.3586    0.7307   -5.6411 H   0  0  0  0  0  0  0  0  0  0  0  0
   25.4595    1.2801   -3.5011 H   0  0  0  0  0  0  0  0  0  0  0  0
   24.1752   -2.4337   -1.7826 H   0  0  0  0  0  0  0  0  0  0  0  0
   22.8270   -1.3608   -6.8777 H   0  0  0  0  0  0  0  0  0  0  0  0
  1 10  1  0  0  0  0
  1 11  1  0  0  0  0
  2  1  2  0  0  0  0
  2 12  1  0  0  0  0
  3  8  1  0  0  0  0
  3 13  1  0  0  0  0
  4  3  2  0  0  0  0
  4 14  1  0  0  0  0
  5  4  1  0  0  0  0
  5  9  1  0  0  0  0
  6  5  2  0  0  0  0
  6  7  1  0  0  0  0
  6 15  1  0  0  0  0
  7  2  1  0  0  0  0
  7  8  2  0  0  0  0
  8 10  1  0  0  0  0
 10 16  1  0  0  0  0
M  END
