3fuf_ligand
 OpenBabel08222323343D

 16 17  0  0  0  0  0  0  0  0999 V2000
   14.2750   -0.0260    4.3190 C   0  0  0  0  0  0  0  0  0  0  0  0
   13.8010    0.2660    3.0390 C   0  0  0  0  0  0  0  0  0  0  0  0
   14.0930   -0.5400    1.9480 C   0  0  0  0  0  0  0  0  0  0  0  0
   14.8910   -1.6760    2.1150 C   0  0  0  0  0  0  0  0  0  0  0  0
   15.3830   -1.9530    3.4010 C   0  0  0  0  0  0  0  0  0  0  0  0
   15.0730   -1.1400    4.4880 C   0  0  0  0  0  0  0  0  0  0  0  0
   16.3640   -2.8250    5.1840 C   0  0  0  0  0  0  0  0  0  0  0  0
   16.2050   -3.0490    3.8130 C   0  0  0  0  0  0  0  0  0  0  0  0
   13.5790   -0.1670    0.7650 F   0  0  0  0  0  0  0  0  0  0  0  0
   15.7000   -1.6830    5.5640 N   0  0  0  0  0  0  0  0  0  0  0  0
   14.0223    0.6076    5.1615 H   0  0  0  0  0  0  0  0  0  0  0  0
   13.1873    1.1476    2.8932 H   0  0  0  0  0  0  0  0  0  0  0  0
   15.1229   -2.3234    1.2771 H   0  0  0  0  0  0  0  0  0  0  0  0
   16.9336   -3.4651    5.8561 H   0  0  0  0  0  0  0  0  0  0  0  0
   16.6081   -3.8592    3.2072 H   0  0  0  0  0  0  0  0  0  0  0  0
   15.6807   -1.2977    6.5190 H   0  0  0  0  0  0  0  0  0  0  0  0
  1  2  2  0  0  0  0
  1  6  1  0  0  0  0
  1 11  1  0  0  0  0
  2  3  1  0  0  0  0
  2 12  1  0  0  0  0
  3  4  2  0  0  0  0
  3  9  1  0  0  0  0
  4  5  1  0  0  0  0
  4 13  1  0  0  0  0
  5  6  2  0  0  0  0
  5  8  1  0  0  0  0
  6 10  1  0  0  0  0
  7 10  1  0  0  0  0
  7 14  1  0  0  0  0
  8  7  2  0  0  0  0
  8 15  1  0  0  0  0
 10 16  1  0  0  0  0
M  END
