3fuj_ligand
 OpenBabel08222323343D

 31 33  0  0  0  0  0  0  0  0999 V2000
  -31.0550   -2.9130   -0.4530 C   0  0  0  0  0  0  0  0  0  0  0  0
  -32.4660   -3.3690   -0.0690 C   0  0  0  0  0  0  0  0  0  0  0  0
  -33.4640   -2.7030   -1.0070 C   0  0  0  0  0  0  0  0  0  0  0  0
  -32.6800   -1.7590   -1.9200 C   0  0  0  0  0  0  0  0  0  0  0  0
  -31.2950   -1.9290   -1.5020 N   0  0  0  0  0  0  0  0  0  0  0  0
  -30.2440   -1.1550   -2.1650 C   0  0  0  0  0  0  0  0  0  0  0  0
  -28.8440   -1.3330   -1.5640 C   0  0  0  0  0  0  0  0  0  0  0  0
  -28.5850   -0.2660   -0.6360 O   0  0  0  0  0  0  0  0  0  0  0  0
  -27.5370   -0.1810    0.2710 C   0  0  0  0  0  0  0  0  0  0  0  0
  -27.6720    0.8050    1.2410 C   0  0  0  0  0  0  0  0  0  0  0  0
  -26.4050   -0.9950    0.2790 C   0  0  0  0  0  0  0  0  0  0  0  0
  -25.4130   -0.8020    1.2720 C   0  0  0  0  0  0  0  0  0  0  0  0
  -24.1840   -1.4980    1.4890 C   0  0  0  0  0  0  0  0  0  0  0  0
  -23.6470   -0.8750    2.6210 C   0  0  0  0  0  0  0  0  0  0  0  0
  -24.4830    0.1380    3.0340 N   0  0  0  0  0  0  0  0  0  0  0  0
  -25.5610    0.1910    2.2270 C   0  0  0  0  0  0  0  0  0  0  0  0
  -26.6810    0.9880    2.2010 C   0  0  0  0  0  0  0  0  0  0  0  0
  -30.1024   -3.2439   -0.0418 H   0  0  0  0  0  0  0  0  0  0  0  0
  -32.7141   -4.0549    0.7397 H   0  0  0  0  0  0  0  0  0  0  0  0
  -34.5402   -2.8688   -1.0245 H   0  0  0  0  0  0  0  0  0  0  0  0
  -33.0681   -1.1090   -2.7028 H   0  0  0  0  0  0  0  0  0  0  0  0
  -30.5112   -0.0898   -2.1025 H   0  0  0  0  0  0  0  0  0  0  0  0
  -30.2057   -1.4622   -3.2205 H   0  0  0  0  0  0  0  0  0  0  0  0
  -28.0936   -1.3106   -2.3680 H   0  0  0  0  0  0  0  0  0  0  0  0
  -28.7898   -2.2979   -1.0386 H   0  0  0  0  0  0  0  0  0  0  0  0
  -28.5540    1.4351    1.2500 H   0  0  0  0  0  0  0  0  0  0  0  0
  -26.2847   -1.7701   -0.4693 H   0  0  0  0  0  0  0  0  0  0  0  0
  -23.7644   -2.3194    0.9100 H   0  0  0  0  0  0  0  0  0  0  0  0
  -22.7097   -1.1498    3.1025 H   0  0  0  0  0  0  0  0  0  0  0  0
  -24.3109    0.7600    3.8367 H   0  0  0  0  0  0  0  0  0  0  0  0
  -26.7941    1.7722    2.9408 H   0  0  0  0  0  0  0  0  0  0  0  0
  1  2  2  0  0  0  0
  1  5  1  0  0  0  0
  1 18  1  0  0  0  0
  2  3  1  0  0  0  0
  2 19  1  0  0  0  0
  3  4  2  0  0  0  0
  3 20  1  0  0  0  0
  4  5  1  0  0  0  0
  4 21  1  0  0  0  0
  5  6  1  0  0  0  0
  6  7  1  0  0  0  0
  6 22  1  0  0  0  0
  6 23  1  0  0  0  0
  7  8  1  0  0  0  0
  7 24  1  0  0  0  0
  7 25  1  0  0  0  0
  8  9  1  0  0  0  0
  9 10  2  0  0  0  0
  9 11  1  0  0  0  0
 10 17  1  0  0  0  0
 10 26  1  0  0  0  0
 11 12  2  0  0  0  0
 11 27  1  0  0  0  0
 12 13  1  0  0  0  0
 12 16  1  0  0  0  0
 13 14  2  0  0  0  0
 13 28  1  0  0  0  0
 14 15  1  0  0  0  0
 14 29  1  0  0  0  0
 15 16  1  0  0  0  0
 15 30  1  0  0  0  0
 16 17  2  0  0  0  0
 17 31  1  0  0  0  0
M  END
