3fum_ligand
 OpenBabel08222323343D

 45 47  0  0  1  0  0  0  0  0999 V2000
  -27.1110   -0.3150   -1.5110 C   0  0  0  0  0  0  0  0  0  0  0  0
  -28.1710   -0.1470   -0.6170 C   0  0  0  0  0  0  0  0  0  0  0  0
  -27.9010    0.5350    0.5600 C   0  0  0  0  0  0  0  0  0  0  0  0
  -26.6120    1.0170    0.8040 C   0  0  0  0  0  0  0  0  0  0  0  0
  -25.5680    0.8570   -0.0960 C   0  0  0  0  0  0  0  0  0  0  0  0
  -25.8240    0.2040   -1.2730 C   0  0  0  0  0  0  0  0  0  0  0  0
  -24.6990   -0.0210   -2.2340 C   0  0  1  0  0  0  0  0  0  0  0  0
  -25.1410   -1.1170   -3.0620 O   0  0  0  0  0  0  0  0  0  0  0  0
  -24.1390    1.0830   -3.0920 C   0  0  0  0  0  0  0  0  0  0  0  0
  -23.7850    0.8120   -4.4140 C   0  0  0  0  0  0  0  0  0  0  0  0
  -23.2530    1.7700   -5.2400 C   0  0  0  0  0  0  0  0  0  0  0  0
  -23.0390    2.9810   -4.7410 N   0  0  0  0  0  0  0  0  0  0  0  0
  -23.3370    3.2930   -3.4720 C   0  0  0  0  0  0  0  0  0  0  0  0
  -23.8820    2.3530   -2.6040 C   0  0  0  0  0  0  0  0  0  0  0  0
  -28.8360    0.7540    1.5350 O   0  0  0  0  0  0  0  0  0  0  0  0
  -30.1870    0.9140    1.2060 C   0  0  0  0  0  0  0  0  0  0  0  0
  -30.8960    1.8310    2.1880 C   0  0  0  0  0  0  0  0  0  0  0  0
  -32.0240    2.3380    1.4070 N   0  3  0  0  0  0  0  0  0  0  0  0
  -33.3710    1.9340    1.7270 C   0  0  0  0  0  0  0  0  0  0  0  0
  -34.2220    2.7990    0.7780 C   0  0  0  0  0  0  0  0  0  0  0  0
  -33.3240    3.7760    0.0550 C   0  0  0  0  0  0  0  0  0  0  0  0
  -31.8980    3.2600    0.2810 C   0  0  0  0  0  0  0  0  0  0  0  0
  -27.2866   -0.8682   -2.4265 H   0  0  0  0  0  0  0  0  0  0  0  0
  -29.1607   -0.5326   -0.8336 H   0  0  0  0  0  0  0  0  0  0  0  0
  -26.4198    1.5376    1.7352 H   0  0  0  0  0  0  0  0  0  0  0  0
  -24.5777    1.2379    0.1259 H   0  0  0  0  0  0  0  0  0  0  0  0
  -23.8489   -0.3654   -1.6268 H   0  0  0  0  0  0  0  0  0  0  0  0
  -24.4699   -1.3184   -3.7036 H   0  0  0  0  0  0  0  0  0  0  0  0
  -23.9353   -0.1891   -4.8017 H   0  0  0  0  0  0  0  0  0  0  0  0
  -23.0139    1.5436   -6.2728 H   0  0  0  0  0  0  0  0  0  0  0  0
  -23.1493    4.2991   -3.1148 H   0  0  0  0  0  0  0  0  0  0  0  0
  -24.0997    2.6077   -1.5731 H   0  0  0  0  0  0  0  0  0  0  0  0
  -30.6769   -0.0708    1.2194 H   0  0  0  0  0  0  0  0  0  0  0  0
  -30.2602    1.3462    0.1971 H   0  0  0  0  0  0  0  0  0  0  0  0
  -30.2373    2.6511    2.5098 H   0  0  0  0  0  0  0  0  0  0  0  0
  -31.2443    1.2730    3.0696 H   0  0  0  0  0  0  0  0  0  0  0  0
  -31.9209    1.5556    0.7798 H   0  0  0  0  0  0  0  0  0  0  0  0
  -33.6095    2.1484    2.7792 H   0  0  0  0  0  0  0  0  0  0  0  0
  -33.5211    0.8626    1.5280 H   0  0  0  0  0  0  0  0  0  0  0  0
  -34.9742    3.3521    1.3597 H   0  0  0  0  0  0  0  0  0  0  0  0
  -34.7275    2.1528    0.0453 H   0  0  0  0  0  0  0  0  0  0  0  0
  -33.4386    4.7868    0.4735 H   0  0  0  0  0  0  0  0  0  0  0  0
  -33.5610    3.7948   -1.0190 H   0  0  0  0  0  0  0  0  0  0  0  0
  -31.5267    2.7363   -0.6122 H   0  0  0  0  0  0  0  0  0  0  0  0
  -31.2183    4.0884    0.5294 H   0  0  0  0  0  0  0  0  0  0  0  0
  1  2  2  0  0  0  0
  1  6  1  0  0  0  0
  1 23  1  0  0  0  0
  2  3  1  0  0  0  0
  2 24  1  0  0  0  0
  3  4  2  0  0  0  0
  3 15  1  0  0  0  0
  4  5  1  0  0  0  0
  4 25  1  0  0  0  0
  5  6  2  0  0  0  0
  5 26  1  0  0  0  0
  6  7  1  0  0  0  0
  7  8  1  0  0  0  0
  7  9  1  0  0  0  0
  7 27  1  1  0  0  0
  8 28  1  0  0  0  0
  9 10  2  0  0  0  0
  9 14  1  0  0  0  0
 10 11  1  0  0  0  0
 10 29  1  0  0  0  0
 11 12  2  0  0  0  0
 11 30  1  0  0  0  0
 12 13  1  0  0  0  0
 13 14  2  0  0  0  0
 13 31  1  0  0  0  0
 14 32  1  0  0  0  0
 15 16  1  0  0  0  0
 16 17  1  0  0  0  0
 16 33  1  0  0  0  0
 16 34  1  0  0  0  0
 17 18  1  0  0  0  0
 17 35  1  0  0  0  0
 17 36  1  0  0  0  0
 18 19  1  0  0  0  0
 18 22  1  0  0  0  0
 18 37  1  0  0  0  0
 19 20  1  0  0  0  0
 19 38  1  0  0  0  0
 19 39  1  0  0  0  0
 20 21  1  0  0  0  0
 20 40  1  0  0  0  0
 20 41  1  0  0  0  0
 21 22  1  0  0  0  0
 21 42  1  0  0  0  0
 21 43  1  0  0  0  0
 22 44  1  0  0  0  0
 22 45  1  0  0  0  0
M  CHG  1  18   1
M  END
