3fv8_ligand
 OpenBabel08222323343D

 45 47  0  0  0  0  0  0  0  0999 V2000
  -10.5140  -30.9900   15.5440 Cl  0  0  0  0  0  0  0  0  0  0  0  0
  -11.4650  -36.4200    8.5680 C   0  0  0  0  0  0  0  0  0  0  0  0
  -12.8420  -36.6270    8.4310 C   0  0  0  0  0  0  0  0  0  0  0  0
  -13.5750  -35.9520    9.4700 C   0  0  0  0  0  0  0  0  0  0  0  0
  -12.5490  -35.3070   10.2730 O   0  0  0  0  0  0  0  0  0  0  0  0
  -11.3070  -35.5690    9.7600 C   0  0  0  0  0  0  0  0  0  0  0  0
  -10.0670  -34.9970   10.4110 C   0  0  0  0  0  0  0  0  0  0  0  0
   -8.9720  -35.2130   10.0410 O   0  0  0  0  0  0  0  0  0  0  0  0
  -10.4040  -34.1510   11.5330 N   0  0  0  0  0  0  0  0  0  0  0  0
   -9.5550  -33.3900   12.4050 C   0  0  0  0  0  0  0  0  0  0  0  0
   -8.1820  -33.3490   12.3270 C   0  0  0  0  0  0  0  0  0  0  0  0
   -7.4740  -32.5710   13.2540 C   0  0  0  0  0  0  0  0  0  0  0  0
   -8.1670  -31.8320   14.2700 C   0  0  0  0  0  0  0  0  0  0  0  0
   -9.5770  -31.8940   14.3250 C   0  0  0  0  0  0  0  0  0  0  0  0
  -10.2630  -32.6370   13.4200 C   0  0  0  0  0  0  0  0  0  0  0  0
  -11.7070  -32.7430   13.5020 N   0  0  0  0  0  0  0  0  0  0  0  0
  -12.2700  -34.0140   13.9750 C   0  0  0  0  0  0  0  0  0  0  0  0
  -13.5890  -33.8860   14.5820 C   0  0  0  0  0  0  0  0  0  0  0  0
  -12.6040  -31.5790   13.0900 C   0  0  0  0  0  0  0  0  0  0  0  0
  -14.1850  -31.8880   13.1290 C   0  0  0  0  0  0  0  0  0  0  0  0
  -14.5490  -33.3010   13.6380 N   0  3  0  0  0  0  0  0  0  0  0  0
  -16.0410  -33.5880   13.8910 C   0  0  0  0  0  0  0  0  0  0  0  0
  -16.7830  -34.5200   12.9220 C   0  0  0  0  0  0  0  0  0  0  0  0
  -17.2850  -34.0600   11.7940 C   0  0  0  0  0  0  0  0  0  0  0  0
  -15.5210  -35.8640    9.8060 Br  0  0  0  0  0  0  0  0  0  0  0  0
  -10.6746  -36.8074    7.9269 H   0  0  0  0  0  0  0  0  0  0  0  0
  -13.2996  -37.2212    7.6414 H   0  0  0  0  0  0  0  0  0  0  0  0
  -11.3816  -34.0855   11.7333 H   0  0  0  0  0  0  0  0  0  0  0  0
   -7.6565  -33.9087   11.5618 H   0  0  0  0  0  0  0  0  0  0  0  0
   -6.3921  -32.5274   13.2026 H   0  0  0  0  0  0  0  0  0  0  0  0
   -7.6155  -31.2337   14.9862 H   0  0  0  0  0  0  0  0  0  0  0  0
  -11.5845  -34.4396   14.7226 H   0  0  0  0  0  0  0  0  0  0  0  0
  -12.3483  -34.6986   13.1176 H   0  0  0  0  0  0  0  0  0  0  0  0
  -13.5158  -33.2382   15.4680 H   0  0  0  0  0  0  0  0  0  0  0  0
  -13.9438  -34.8823   14.8845 H   0  0  0  0  0  0  0  0  0  0  0  0
  -12.3383  -31.2911   12.0622 H   0  0  0  0  0  0  0  0  0  0  0  0
  -12.4043  -30.7376   13.7698 H   0  0  0  0  0  0  0  0  0  0  0  0
  -14.5821  -31.7773   12.1092 H   0  0  0  0  0  0  0  0  0  0  0  0
  -14.6631  -31.1507   13.7907 H   0  0  0  0  0  0  0  0  0  0  0  0
  -14.3829  -33.8581   12.8146 H   0  0  0  0  0  0  0  0  0  0  0  0
  -16.5647  -32.6208   13.8761 H   0  0  0  0  0  0  0  0  0  0  0  0
  -16.1205  -34.0327   14.8940 H   0  0  0  0  0  0  0  0  0  0  0  0
  -16.8957  -35.5743   13.1703 H   0  0  0  0  0  0  0  0  0  0  0  0
  -17.8087  -34.7329   11.1166 H   0  0  0  0  0  0  0  0  0  0  0  0
  -17.1762  -33.0069   11.5390 H   0  0  0  0  0  0  0  0  0  0  0  0
  2  3  1  0  0  0  0
  2 26  1  0  0  0  0
  3 27  1  0  0  0  0
  4  3  2  0  0  0  0
  4 25  1  0  0  0  0
  5  4  1  0  0  0  0
  6  2  2  0  0  0  0
  6  5  1  0  0  0  0
  7  6  1  0  0  0  0
  7  8  2  0  0  0  0
  9  7  1  0  0  0  0
  9 28  1  0  0  0  0
 10  9  1  0  0  0  0
 10 15  1  0  0  0  0
 11 10  2  0  0  0  0
 11 29  1  0  0  0  0
 12 11  1  0  0  0  0
 12 30  1  0  0  0  0
 13 12  2  0  0  0  0
 13 14  1  0  0  0  0
 13 31  1  0  0  0  0
 14  1  1  0  0  0  0
 14 15  2  0  0  0  0
 15 16  1  0  0  0  0
 16 17  1  0  0  0  0
 16 19  1  0  0  0  0
 17 18  1  0  0  0  0
 17 32  1  0  0  0  0
 17 33  1  0  0  0  0
 18 21  1  0  0  0  0
 18 34  1  0  0  0  0
 18 35  1  0  0  0  0
 19 20  1  0  0  0  0
 19 36  1  0  0  0  0
 19 37  1  0  0  0  0
 20 21  1  0  0  0  0
 20 38  1  0  0  0  0
 20 39  1  0  0  0  0
 21 22  1  0  0  0  0
 21 40  1  0  0  0  0
 22 23  1  0  0  0  0
 22 41  1  0  0  0  0
 22 42  1  0  0  0  0
 23 24  2  0  0  0  0
 23 43  1  0  0  0  0
 24 44  1  0  0  0  0
 24 45  1  0  0  0  0
M  CHG  1  21   1
M  END
