3fw3_ligand
 OpenBabel08222323343D

 36 37  0  0  1  0  0  0  0  0999 V2000
    3.5390    7.3870   21.0440 S   0  0  0  0  0  0  0  0  0  0  0  0
    3.3660    7.0790   19.3060 C   0  0  0  0  0  0  0  0  0  0  0  0
    2.1230    7.5230   18.9740 C   0  0  0  0  0  0  0  0  0  0  0  0
    1.3540    8.0980   20.0050 C   0  0  0  0  0  0  0  0  0  0  0  0
   -0.0230    8.7530   19.8020 C   0  0  2  0  0  0  0  0  0  0  0  0
   -0.3310    9.7780   20.8950 C   0  0  0  0  0  0  0  0  0  0  0  0
   -0.2740    9.2020   22.3320 C   0  0  1  0  0  0  0  0  0  0  0  0
    1.4540    8.8690   22.7280 S   0  0  0  0  0  0  0  0  0  0  0  0
    1.9710    8.1570   21.2190 C   0  0  0  0  0  0  0  0  0  0  0  0
    4.7520    6.4260   18.5050 S   0  0  0  0  0  0  0  0  0  0  0  0
    5.4310    5.6620   19.5070 O   0  0  0  0  0  0  0  0  0  0  0  0
    5.3820    7.5460   17.8690 O   0  0  0  0  0  0  0  0  0  0  0  0
    4.1370    5.4950   17.2910 N   0  0  0  0  0  0  0  0  0  0  0  0
   -1.0620    7.7060   19.8070 N   0  3  0  0  0  0  0  0  0  0  0  0
   -0.7580   10.2000   23.3920 C   0  0  0  0  0  0  0  0  0  0  0  0
    2.1600   10.0790   22.7470 O   0  0  0  0  0  0  0  0  0  0  0  0
    1.6480    7.8690   23.7090 O   0  0  0  0  0  0  0  0  0  0  0  0
   -1.2840    7.1270   18.4880 C   0  0  0  0  0  0  0  0  0  0  0  0
   -2.5530    6.2770   18.5180 C   0  0  0  0  0  0  0  0  0  0  0  0
    1.7404    7.4377   17.9580 H   0  0  0  0  0  0  0  0  0  0  0  0
   -0.0300    9.2644   18.8281 H   0  0  0  0  0  0  0  0  0  0  0  0
   -1.3418   10.1757   20.7215 H   0  0  0  0  0  0  0  0  0  0  0  0
    0.4022   10.5946   20.8202 H   0  0  0  0  0  0  0  0  0  0  0  0
   -0.8734    8.2811   22.3826 H   0  0  0  0  0  0  0  0  0  0  0  0
    4.7539    5.0035   16.6763 H   0  0  0  0  0  0  0  0  0  0  0  0
    3.1471    5.4219   17.1695 H   0  0  0  0  0  0  0  0  0  0  0  0
   -1.9263    8.1110   20.1309 H   0  0  0  0  0  0  0  0  0  0  0  0
   -0.7776    6.9726   20.4373 H   0  0  0  0  0  0  0  0  0  0  0  0
   -1.8137   10.4477   23.2074 H   0  0  0  0  0  0  0  0  0  0  0  0
   -0.1515   11.1160   23.3372 H   0  0  0  0  0  0  0  0  0  0  0  0
   -0.6559    9.7518   24.3913 H   0  0  0  0  0  0  0  0  0  0  0  0
   -0.4255    6.4962   18.2141 H   0  0  0  0  0  0  0  0  0  0  0  0
   -1.3984    7.9323   17.7475 H   0  0  0  0  0  0  0  0  0  0  0  0
   -2.7239    5.8382   17.5239 H   0  0  0  0  0  0  0  0  0  0  0  0
   -3.4109    6.9084   18.7925 H   0  0  0  0  0  0  0  0  0  0  0  0
   -2.4379    5.4723   19.2591 H   0  0  0  0  0  0  0  0  0  0  0  0
  1  2  1  0  0  0  0
  1  9  1  0  0  0  0
  2  3  2  0  0  0  0
  2 10  1  0  0  0  0
  3  4  1  0  0  0  0
  3 20  1  0  0  0  0
  4  5  1  0  0  0  0
  4  9  2  0  0  0  0
  5  6  1  0  0  0  0
  5 14  1  0  0  0  0
  5 21  1  6  0  0  0
  6  7  1  0  0  0  0
  6 22  1  0  0  0  0
  6 23  1  0  0  0  0
  7  8  1  0  0  0  0
  7 15  1  0  0  0  0
  7 24  1  1  0  0  0
  8  9  1  0  0  0  0
  8 16  2  0  0  0  0
  8 17  2  0  0  0  0
 10 11  2  0  0  0  0
 10 12  2  0  0  0  0
 10 13  1  0  0  0  0
 13 25  1  0  0  0  0
 13 26  1  0  0  0  0
 14 18  1  0  0  0  0
 14 27  1  0  0  0  0
 14 28  1  0  0  0  0
 15 29  1  0  0  0  0
 15 30  1  0  0  0  0
 15 31  1  0  0  0  0
 18 19  1  0  0  0  0
 18 32  1  0  0  0  0
 18 33  1  0  0  0  0
 19 34  1  0  0  0  0
 19 35  1  0  0  0  0
 19 36  1  0  0  0  0
M  CHG  1  14   1
M  END
