3fxb_ligand
 OpenBabel08222323343D

 19 19  0  0  1  0  0  0  0  0999 V2000
    6.8640   -7.7190    7.3890 O   0  5  0  0  0  0  0  0  0  0  0  0
    6.6270   -8.6020    6.5790 C   0  0  0  0  0  0  0  0  0  0  0  0
    7.5980   -9.2170    6.1510 O   0  0  0  0  0  0  0  0  0  0  0  0
    5.2040   -8.9150    6.1080 C   0  0  2  0  0  0  0  0  0  0  0  0
    4.2020   -8.7000    7.2200 C   0  0  0  0  0  0  0  0  0  0  0  0
    2.8050   -8.8980    6.6500 C   0  0  0  0  0  0  0  0  0  0  0  0
    2.7820  -10.3200    6.2160 N   0  0  0  0  0  0  0  0  0  0  0  0
    3.9570  -11.0100    5.7660 C   0  0  0  0  0  0  0  0  0  0  0  0
    3.9610  -12.4830    5.3420 C   0  0  0  0  0  0  0  0  0  0  0  0
    5.1490  -10.3090    5.7000 N   0  0  0  0  0  0  0  0  0  0  0  0
    4.9500   -8.2656    5.2573 H   0  0  0  0  0  0  0  0  0  0  0  0
    4.3003   -7.6788    7.6169 H   0  0  0  0  0  0  0  0  0  0  0  0
    4.3806   -9.4258    8.0270 H   0  0  0  0  0  0  0  0  0  0  0  0
    2.6345   -8.2272    5.7951 H   0  0  0  0  0  0  0  0  0  0  0  0
    2.0407   -8.7132    7.4192 H   0  0  0  0  0  0  0  0  0  0  0  0
    1.8874  -10.8299    6.2393 H   0  0  0  0  0  0  0  0  0  0  0  0
    4.9777  -12.7749    5.0403 H   0  0  0  0  0  0  0  0  0  0  0  0
    3.2729  -12.6227    4.4952 H   0  0  0  0  0  0  0  0  0  0  0  0
    3.6353  -13.1085    6.1862 H   0  0  0  0  0  0  0  0  0  0  0  0
  1  2  1  0  0  0  0
  2  3  2  0  0  0  0
  2  4  1  0  0  0  0
  4  5  1  0  0  0  0
  4 10  1  0  0  0  0
  4 11  1  6  0  0  0
  5  6  1  0  0  0  0
  5 12  1  0  0  0  0
  5 13  1  0  0  0  0
  6  7  1  0  0  0  0
  6 14  1  0  0  0  0
  6 15  1  0  0  0  0
  7  8  1  0  0  0  0
  7 16  1  0  0  0  0
  8  9  1  0  0  0  0
  8 10  2  0  0  0  0
  9 17  1  0  0  0  0
  9 18  1  0  0  0  0
  9 19  1  0  0  0  0
M  CHG  1   1  -1
M  END
