3fxv_ligand
 OpenBabel08222323343D

 62 66  0  0  0  0  0  0  0  0999 V2000
  -13.8000   57.1460   -1.9320 C   0  0  0  0  0  0  0  0  0  0  0  0
  -12.0690   57.2600   -3.9210 C   0  0  0  0  0  0  0  0  0  0  0  0
  -12.7840   56.6970   -2.7670 C   0  0  0  0  0  0  0  0  0  0  0  0
  -12.2310   55.4300   -2.5690 C   0  0  0  0  0  0  0  0  0  0  0  0
  -10.4500   54.0450   -3.6530 C   0  0  0  0  0  0  0  0  0  0  0  0
  -14.2810   54.6930    1.6650 C   0  0  0  0  0  0  0  0  0  0  0  0
  -14.3890   52.8530    0.1390 C   0  0  0  0  0  0  0  0  0  0  0  0
  -18.1310   50.7520    3.6850 C   0  0  0  0  0  0  0  0  0  0  0  0
  -17.8000   49.9020    2.6430 C   0  0  0  0  0  0  0  0  0  0  0  0
  -19.0000   51.8000    3.4160 C   0  0  0  0  0  0  0  0  0  0  0  0
  -16.3670   51.2430    5.4760 C   0  0  0  0  0  0  0  0  0  0  0  0
  -14.2580   56.3550   -0.9200 C   0  0  0  0  0  0  0  0  0  0  0  0
  -13.7170   55.0870   -0.7190 C   0  0  0  0  0  0  0  0  0  0  0  0
  -12.7010   54.6360   -1.5400 C   0  0  0  0  0  0  0  0  0  0  0  0
  -11.2650   55.2440   -3.5190 N   0  0  0  0  0  0  0  0  0  0  0  0
  -11.1730   56.3210   -4.3100 C   0  0  0  0  0  0  0  0  0  0  0  0
  -12.2520   58.5680   -4.5470 C   0  0  0  0  0  0  0  0  0  0  0  0
  -13.0770   59.3370   -4.1340 O   0  5  0  0  0  0  0  0  0  0  0  0
  -11.4730   58.9180   -5.5730 O   0  0  0  0  0  0  0  0  0  0  0  0
  -14.6610   53.8640    2.6900 C   0  0  0  0  0  0  0  0  0  0  0  0
  -14.1550   54.1970    0.3770 C   0  0  0  0  0  0  0  0  0  0  0  0
  -14.7710   52.0280    1.1650 C   0  0  0  0  0  0  0  0  0  0  0  0
  -14.9040   52.5310    2.4390 C   0  0  0  0  0  0  0  0  0  0  0  0
  -15.2740   51.6930    3.4240 O   0  0  0  0  0  0  0  0  0  0  0  0
  -18.3490   50.1140    1.4020 C   0  0  0  0  0  0  0  0  0  0  0  0
  -19.1730   51.1120    1.1990 N   0  0  0  0  0  0  0  0  0  0  0  0
  -19.5080   51.9460    2.1510 C   0  0  0  0  0  0  0  0  0  0  0  0
  -17.5400   50.5840    5.0280 C   0  0  0  0  0  0  0  0  0  0  0  0
  -16.2030   50.7980    6.7290 C   0  0  0  0  0  0  0  0  0  0  0  0
  -17.2070   49.9600    6.9600 O   0  0  0  0  0  0  0  0  0  0  0  0
  -17.9390   49.8480    6.0170 N   0  0  0  0  0  0  0  0  0  0  0  0
  -16.7270   48.5950    2.9310 Cl  0  0  0  0  0  0  0  0  0  0  0  0
  -15.1060   51.1890    7.6790 C   0  0  0  0  0  0  0  0  0  0  0  0
  -15.6650   52.1500    8.7210 C   0  0  0  0  0  0  0  0  0  0  0  0
  -14.5620   49.9520    8.3870 C   0  0  0  0  0  0  0  0  0  0  0  0
  -15.5070   52.2150    4.7210 C   0  0  0  0  0  0  0  0  0  0  0  0
  -19.4440   52.8740    4.6820 Cl  0  0  0  0  0  0  0  0  0  0  0  0
  -14.2510   52.2940   -1.2460 C   0  0  0  0  0  0  0  0  0  0  0  0
  -14.2302   58.1290   -2.0857 H   0  0  0  0  0  0  0  0  0  0  0  0
   -9.7563   54.1658   -4.4981 H   0  0  0  0  0  0  0  0  0  0  0  0
  -11.1013   53.1773   -3.8344 H   0  0  0  0  0  0  0  0  0  0  0  0
   -9.8766   53.8861   -2.7278 H   0  0  0  0  0  0  0  0  0  0  0  0
  -14.0786   55.7393    1.8632 H   0  0  0  0  0  0  0  0  0  0  0  0
  -15.0466   56.7145   -0.2689 H   0  0  0  0  0  0  0  0  0  0  0  0
  -12.2706   53.6547   -1.3761 H   0  0  0  0  0  0  0  0  0  0  0  0
  -10.4799   56.4264   -5.1433 H   0  0  0  0  0  0  0  0  0  0  0  0
  -14.7698   54.2565    3.6946 H   0  0  0  0  0  0  0  0  0  0  0  0
  -14.9683   50.9796    0.9728 H   0  0  0  0  0  0  0  0  0  0  0  0
  -18.0982   49.4495    0.5831 H   0  0  0  0  0  0  0  0  0  0  0  0
  -20.1927   52.7587    1.9372 H   0  0  0  0  0  0  0  0  0  0  0  0
  -14.2948   51.6790    7.1205 H   0  0  0  0  0  0  0  0  0  0  0  0
  -14.8657   52.4394    9.4191 H   0  0  0  0  0  0  0  0  0  0  0  0
  -16.4763   51.6570    9.2766 H   0  0  0  0  0  0  0  0  0  0  0  0
  -16.0565   53.0474    8.2196 H   0  0  0  0  0  0  0  0  0  0  0  0
  -14.1560   49.2520    7.6420 H   0  0  0  0  0  0  0  0  0  0  0  0
  -15.3734   49.4628    8.9458 H   0  0  0  0  0  0  0  0  0  0  0  0
  -13.7643   50.2493    9.0836 H   0  0  0  0  0  0  0  0  0  0  0  0
  -14.5492   52.3485    5.2452 H   0  0  0  0  0  0  0  0  0  0  0  0
  -16.0213   53.1843    4.6443 H   0  0  0  0  0  0  0  0  0  0  0  0
  -13.9392   53.0932   -1.9345 H   0  0  0  0  0  0  0  0  0  0  0  0
  -15.2176   51.8839   -1.5739 H   0  0  0  0  0  0  0  0  0  0  0  0
  -13.4950   51.4950   -1.2453 H   0  0  0  0  0  0  0  0  0  0  0  0
  1  3  2  0  0  0  0
  1 39  1  0  0  0  0
  2 17  1  0  0  0  0
  3  2  1  0  0  0  0
  4  3  1  0  0  0  0
  4 15  1  0  0  0  0
  5 40  1  0  0  0  0
  5 41  1  0  0  0  0
  5 42  1  0  0  0  0
  6 21  1  0  0  0  0
  6 43  1  0  0  0  0
  7 21  2  0  0  0  0
  7 38  1  0  0  0  0
  8  9  2  0  0  0  0
  8 10  1  0  0  0  0
  9 25  1  0  0  0  0
  9 32  1  0  0  0  0
 10 27  2  0  0  0  0
 10 37  1  0  0  0  0
 11 28  1  0  0  0  0
 11 29  2  0  0  0  0
 12  1  1  0  0  0  0
 12 44  1  0  0  0  0
 13 12  2  0  0  0  0
 13 14  1  0  0  0  0
 14  4  2  0  0  0  0
 14 45  1  0  0  0  0
 15  5  1  0  0  0  0
 15 16  1  0  0  0  0
 16  2  2  0  0  0  0
 16 46  1  0  0  0  0
 17 18  1  0  0  0  0
 17 19  2  0  0  0  0
 20  6  2  0  0  0  0
 20 47  1  0  0  0  0
 21 13  1  0  0  0  0
 22  7  1  0  0  0  0
 22 48  1  0  0  0  0
 23 20  1  0  0  0  0
 23 22  2  0  0  0  0
 24 23  1  0  0  0  0
 24 36  1  0  0  0  0
 25 26  2  0  0  0  0
 25 49  1  0  0  0  0
 26 27  1  0  0  0  0
 27 50  1  0  0  0  0
 28  8  1  0  0  0  0
 28 31  2  0  0  0  0
 29 30  1  0  0  0  0
 29 33  1  0  0  0  0
 30 31  1  0  0  0  0
 33 34  1  0  0  0  0
 33 35  1  0  0  0  0
 33 51  1  0  0  0  0
 34 52  1  0  0  0  0
 34 53  1  0  0  0  0
 34 54  1  0  0  0  0
 35 55  1  0  0  0  0
 35 56  1  0  0  0  0
 35 57  1  0  0  0  0
 36 11  1  0  0  0  0
 36 58  1  0  0  0  0
 36 59  1  0  0  0  0
 38 60  1  0  0  0  0
 38 61  1  0  0  0  0
 38 62  1  0  0  0  0
M  CHG  1  18  -1
M  END
