3fxz_ligand
 OpenBabel08222323343D

 64 72  0  0  1  0  0  0  0  0999 V2000
  -17.0160   35.3940  -16.1810 F   0  0  0  0  0  0  0  0  0  0  0  0
  -15.6820   35.2860  -16.1360 C   0  0  0  0  0  0  0  0  0  0  0  0
  -15.0430   35.2100  -17.3820 C   0  0  0  0  0  0  0  0  0  0  0  0
  -13.7110   35.1140  -17.4080 N   0  0  0  0  0  0  0  0  0  0  0  0
  -10.9530   34.9100  -17.4980 N   0  0  0  0  0  4  0  0  0  0  0  0
  -12.6970   32.8090  -18.6480 N   0  0  0  0  0  0  0  0  0  0  0  0
  -12.0240   32.0330  -17.7620 C   0  0  0  0  0  3  0  0  0  0  0  0
  -12.3400   30.6760  -17.5760 C   0  0  0  0  0  0  0  0  0  0  0  0
  -13.3890   30.1500  -18.3100 C   0  0  0  0  0  0  0  0  0  0  0  0
  -14.1220   30.9240  -19.1990 C   0  0  0  0  0  0  0  0  0  0  0  0
  -13.7440   32.2600  -19.3320 C   0  0  0  0  0  0  0  0  0  0  0  0
  -14.4210   33.1830  -20.2260 C   0  0  0  0  0  3  0  0  0  0  0  0
  -12.2770   36.6640  -19.3780 C   0  0  0  0  0  0  0  0  0  0  0  0
  -12.2040   37.7900  -19.7060 O   0  0  0  0  0  0  0  0  0  0  0  0
  -13.9640   34.3980  -20.2620 N   0  0  0  0  0  4  0  0  0  0  0  0
  -14.5870   35.3320  -21.1920 C   0  0  0  0  0  0  0  0  0  0  0  0
  -15.8410   35.8340  -20.9340 C   0  0  0  0  0  0  0  0  0  0  0  0
  -16.4190   36.7400  -21.8100 C   0  0  0  0  0  0  0  0  0  0  0  0
  -15.7300   37.1340  -22.9500 C   0  0  0  0  0  0  0  0  0  0  0  0
  -14.4660   36.6450  -23.2260 C   0  0  0  0  0  0  0  0  0  0  0  0
  -13.8910   35.7310  -22.3300 C   0  0  0  0  0  0  0  0  0  0  0  0
  -10.8740   34.2590  -20.7720 Cl  0  0  0  0  0  2  0  0  0  0  0  0
  -15.0480   35.2380  -14.9310 C   0  0  0  0  0  0  0  0  0  0  0  0
  -13.6300   35.1280  -14.9410 C   0  0  0  0  0  0  0  0  0  0  0  0
  -13.0150   35.0590  -16.2180 C   0  0  2  0  0  3  0  0  0  0  0  0
  -12.7330   35.0550  -13.8300 C   0  0  0  0  0  0  0  0  0  0  0  0
  -13.0410   35.0760  -12.4040 C   0  0  0  0  0  0  0  0  0  0  0  0
  -11.8420   34.9720  -11.7310 N   0  0  0  0  0  0  0  0  0  0  0  0
  -14.1500   35.1460  -11.9100 O   0  0  0  0  0  0  0  0  0  0  0  0
  -11.3520   34.9420  -13.9640 C   0  0  0  0  0  0  0  0  0  0  0  0
  -10.7690   34.8810  -12.5920 C   0  0  0  0  0  0  0  0  0  0  0  0
   -9.5930   34.8070  -12.2740 O   0  0  0  0  0  0  0  0  0  0  0  0
  -10.7440   34.8830  -15.2180 C   0  0  0  0  0  0  0  0  0  0  0  0
  -11.6060   34.9370  -16.3320 C   0  0  0  0  0  0  0  0  0  0  0  0
   -9.4190   34.7670  -15.7820 C   0  0  0  0  0  0  0  0  0  0  0  0
   -9.6080   34.7710  -17.1930 C   0  0  0  0  0  0  0  0  0  0  0  0
   -8.1590   34.6540  -15.2130 C   0  0  0  0  0  0  0  0  0  0  0  0
   -7.0640   34.5480  -16.0640 C   0  0  0  0  0  0  0  0  0  0  0  0
   -5.7990   34.4440  -15.5800 O   0  0  0  0  0  0  0  0  0  0  0  0
   -7.2510   34.5640  -17.4530 C   0  0  0  0  0  0  0  0  0  0  0  0
   -8.4930   34.6520  -18.0290 C   0  0  0  0  0  0  0  0  0  0  0  0
  -12.4020   34.8750  -19.0280 Ru  0  0  0  0  0  0  0  0  0  0  0  0
  -15.6162   35.2287  -18.3018 H   0  0  0  0  0  0  0  0  0  0  0  0
  -11.3677   34.9789  -18.4383 H   0  0  0  0  0  0  0  0  0  0  0  0
  -11.2204   32.4714  -17.1814 H   0  0  0  0  0  0  0  0  0  0  0  0
  -11.7803   30.0614  -16.8803 H   0  0  0  0  0  0  0  0  0  0  0  0
  -13.6454   29.1039  -18.1871 H   0  0  0  0  0  0  0  0  0  0  0  0
  -14.9495   30.5096  -19.7635 H   0  0  0  0  0  0  0  0  0  0  0  0
  -15.2686   32.8720  -20.8350 H   0  0  0  0  0  0  0  0  0  0  0  0
  -13.2461   36.2278  -19.1405 H   0  0  0  0  0  0  0  0  0  0  0  0
  -11.3755   36.0567  -19.3116 H   0  0  0  0  0  0  0  0  0  0  0  0
  -13.1868   34.6922  -19.6534 H   0  0  0  0  0  0  0  0  0  0  0  0
  -16.3777   35.5213  -20.0456 H   0  0  0  0  0  0  0  0  0  0  0  0
  -17.4057   37.1397  -21.6059 H   0  0  0  0  0  0  0  0  0  0  0  0
  -16.1908   37.8366  -23.6349 H   0  0  0  0  0  0  0  0  0  0  0  0
  -13.9315   36.9608  -24.1146 H   0  0  0  0  0  0  0  0  0  0  0  0
  -12.9012   35.3340  -22.5245 H   0  0  0  0  0  0  0  0  0  0  0  0
   -9.8661   34.2729  -20.7770 H   0  0  0  0  0  0  0  0  0  0  0  0
  -15.6028   35.2819  -14.0008 H   0  0  0  0  0  0  0  0  0  0  0  0
  -11.7602   34.9636  -10.7344 H   0  0  0  0  0  0  0  0  0  0  0  0
   -8.0315   34.6485  -14.1365 H   0  0  0  0  0  0  0  0  0  0  0  0
   -5.1880   34.3817  -16.3047 H   0  0  0  0  0  0  0  0  0  0  0  0
   -6.3809   34.5046  -18.0968 H   0  0  0  0  0  0  0  0  0  0  0  0
   -8.6075   34.6298  -19.1067 H   0  0  0  0  0  0  0  0  0  0  0  0
  2  1  1  0  0  0  0
  2 23  1  0  0  0  0
  3  2  2  0  0  0  0
  3 43  1  0  0  0  0
  4  3  1  0  0  0  0
  4 25  1  0  0  0  0
  5 34  1  0  0  0  0
  5 36  1  0  0  0  0
  5 44  1  0  0  0  0
  6  7  1  0  0  0  0
  6 11  1  0  0  0  0
  7  8  1  0  0  0  0
  7 45  1  0  0  0  0
  8  9  2  0  0  0  0
  8 46  1  0  0  0  0
  9 47  1  0  0  0  0
 10  9  1  0  0  0  0
 10 48  1  0  0  0  0
 11 10  2  0  0  0  0
 11 12  1  0  0  0  0
 12 15  1  0  0  0  0
 12 49  1  0  0  0  0
 13 14  2  0  0  0  0
 13 50  1  0  0  0  0
 13 51  1  0  0  0  0
 15 16  1  0  0  0  0
 15 52  1  0  0  0  0
 16 17  2  0  0  0  0
 16 21  1  0  0  0  0
 17 18  1  0  0  0  0
 17 53  1  0  0  0  0
 18 19  2  0  0  0  0
 18 54  1  0  0  0  0
 19 55  1  0  0  0  0
 20 19  1  0  0  0  0
 20 56  1  0  0  0  0
 21 20  2  0  0  0  0
 21 57  1  0  0  0  0
 22 58  1  0  0  0  0
 23 59  1  0  0  0  0
 24 23  2  0  0  0  0
 24 26  1  0  0  0  0
 25 24  1  6  0  0  0
 26 27  1  0  0  0  0
 27 28  1  0  0  0  0
 27 29  2  0  0  0  0
 28 60  1  0  0  0  0
 30 26  2  0  0  0  0
 30 31  1  0  0  0  0
 31 28  1  0  0  0  0
 31 32  2  0  0  0  0
 33 30  1  0  0  0  0
 34 25  1  0  0  0  0
 34 33  2  0  0  0  0
 35 33  1  0  0  0  0
 35 37  1  0  0  0  0
 36 35  2  0  0  0  0
 36 41  1  0  0  0  0
 37 38  2  0  0  0  0
 37 61  1  0  0  0  0
 38 39  1  0  0  0  0
 39 62  1  0  0  0  0
 40 38  1  0  0  0  0
 40 63  1  0  0  0  0
 41 40  2  0  0  0  0
 41 64  1  0  0  0  0
 42  4  1  0  0  0  0
 42  5  1  0  0  0  0
 42  6  1  0  0  0  0
 42 13  1  0  0  0  0
 42 15  1  0  0  0  0
 42 22  1  0  0  0  0
M  END
