3fyj_ligand
 OpenBabel08222323343D

 45 49  0  0  1  0  0  0  0  0999 V2000
   81.6070  262.5390  109.5160 C   0  0  0  0  0  0  0  0  0  0  0  0
   78.4150  264.7470  106.7450 C   0  0  0  0  0  0  0  0  0  0  0  0
   83.3860  263.4780  106.5460 C   0  0  0  0  0  0  0  0  0  0  0  0
   84.6910  263.2190  106.8690 C   0  0  0  0  0  0  0  0  0  0  0  0
   80.3250  262.8230  109.1210 C   0  0  0  0  0  0  0  0  0  0  0  0
   77.0950  265.0480  106.4790 C   0  0  0  0  0  0  0  0  0  0  0  0
   77.6580  262.8840  107.9140 C   0  0  0  0  0  0  0  0  0  0  0  0
   82.6580  262.7530  108.6580 C   0  0  0  0  0  0  0  0  0  0  0  0
   83.9680  262.4570  109.0650 C   0  0  0  0  0  0  0  0  0  0  0  0
   78.7330  263.6370  107.4910 C   0  0  0  0  0  0  0  0  0  0  0  0
   82.3540  263.2570  107.4110 C   0  0  0  0  0  0  0  0  0  0  0  0
   84.5660  261.9380  110.2720 C   0  0  0  0  0  0  0  0  0  0  0  0
   84.9500  262.7150  108.1190 C   0  0  0  0  0  0  0  0  0  0  0  0
   80.1020  263.3210  107.8640 C   0  0  0  0  0  0  0  0  0  0  0  0
   85.9450  261.8130  110.2130 C   0  0  0  0  0  0  0  0  0  0  0  0
   76.1040  264.2250  106.9600 C   0  0  0  0  0  0  0  0  0  0  0  0
   86.9510  261.3790  111.1340 C   0  0  0  0  0  0  0  0  0  0  0  0
   84.2870  260.8810  112.5500 C   0  0  0  0  0  0  0  0  0  0  0  0
   85.3200  259.8170  112.2420 C   0  0  1  0  0  0  0  0  0  0  0  0
   74.6780  264.5520  106.6720 C   0  0  0  0  0  0  0  0  0  0  0  0
   84.8780  258.7880  111.2320 C   0  0  0  0  0  0  0  0  0  0  0  0
   76.3620  263.1260  107.6740 N   0  0  0  0  0  0  0  0  0  0  0  0
   81.1060  263.5450  107.0120 N   0  0  0  0  0  0  0  0  0  0  0  0
   83.8150  261.6080  111.3720 N   0  0  0  0  0  0  0  0  0  0  0  0
   86.6370  260.3100  111.9370 N   0  0  0  0  0  0  0  0  0  0  0  0
   88.0320  261.9510  111.2130 O   0  0  0  0  0  0  0  0  0  0  0  0
   86.5220  262.3270  108.6950 S   0  0  0  0  0  0  0  0  0  0  0  0
   81.7916  262.1443  110.5086 H   0  0  0  0  0  0  0  0  0  0  0  0
   79.2029  265.3871  106.3649 H   0  0  0  0  0  0  0  0  0  0  0  0
   83.1633  263.8751  105.5623 H   0  0  0  0  0  0  0  0  0  0  0  0
   85.4915  263.4055  106.1623 H   0  0  0  0  0  0  0  0  0  0  0  0
   79.4948  262.6550  109.7975 H   0  0  0  0  0  0  0  0  0  0  0  0
   76.8413  265.9258  105.8958 H   0  0  0  0  0  0  0  0  0  0  0  0
   77.8854  262.0029  108.5031 H   0  0  0  0  0  0  0  0  0  0  0  0
   84.7330  261.6049  113.2479 H   0  0  0  0  0  0  0  0  0  0  0  0
   83.4224  260.3964  113.0272 H   0  0  0  0  0  0  0  0  0  0  0  0
   85.4333  259.2643  113.1863 H   0  0  0  0  0  0  0  0  0  0  0  0
   74.0279  263.7922  107.1302 H   0  0  0  0  0  0  0  0  0  0  0  0
   74.5171  264.5643  105.5839 H   0  0  0  0  0  0  0  0  0  0  0  0
   74.4370  265.5407  107.0895 H   0  0  0  0  0  0  0  0  0  0  0  0
   85.6871  258.0602  111.0720 H   0  0  0  0  0  0  0  0  0  0  0  0
   84.6399  259.2865  110.2808 H   0  0  0  0  0  0  0  0  0  0  0  0
   83.9847  258.2667  111.6065 H   0  0  0  0  0  0  0  0  0  0  0  0
   82.8271  261.8994  111.3677 H   0  0  0  0  0  0  0  0  0  0  0  0
   87.4045  259.8229  112.3537 H   0  0  0  0  0  0  0  0  0  0  0  0
  1  5  2  0  0  0  0
  1 28  1  0  0  0  0
  2  6  2  0  0  0  0
  2 29  1  0  0  0  0
  3 30  1  0  0  0  0
  4  3  2  0  0  0  0
  4 31  1  0  0  0  0
  5 14  1  0  0  0  0
  5 32  1  0  0  0  0
  6 16  1  0  0  0  0
  6 33  1  0  0  0  0
  7 22  1  0  0  0  0
  7 34  1  0  0  0  0
  8  1  1  0  0  0  0
  8 11  2  0  0  0  0
  9  8  1  0  0  0  0
  9 13  2  0  0  0  0
 10  2  1  0  0  0  0
 10  7  2  0  0  0  0
 11  3  1  0  0  0  0
 11 23  1  0  0  0  0
 12  9  1  0  0  0  0
 12 15  2  0  0  0  0
 13  4  1  0  0  0  0
 14 10  1  0  0  0  0
 15 17  1  0  0  0  0
 15 27  1  0  0  0  0
 16 20  1  0  0  0  0
 17 25  1  0  0  0  0
 17 26  2  0  0  0  0
 18 19  1  0  0  0  0
 18 24  1  0  0  0  0
 18 35  1  0  0  0  0
 18 36  1  0  0  0  0
 19 21  1  0  0  0  0
 19 25  1  0  0  0  0
 19 37  1  1  0  0  0
 20 38  1  0  0  0  0
 20 39  1  0  0  0  0
 20 40  1  0  0  0  0
 21 41  1  0  0  0  0
 21 42  1  0  0  0  0
 21 43  1  0  0  0  0
 22 16  2  0  0  0  0
 23 14  2  0  0  0  0
 24 12  1  0  0  0  0
 24 44  1  0  0  0  0
 25 45  1  0  0  0  0
 27 13  1  0  0  0  0
M  END
