3g0b_ligand
 OpenBabel08222323343D

 47 49  0  0  1  0  0  0  0  0999 V2000
   41.2630   33.8520   11.7700 O   0  0  0  0  0  0  0  0  0  0  0  0
   42.0840   33.4010   12.6020 C   0  0  0  0  0  0  0  0  0  0  0  0
   42.5640   32.1420   12.4290 N   0  0  0  0  0  0  0  0  0  0  0  0
   42.0920   31.3540   11.2710 C   0  0  0  0  0  0  0  0  0  0  0  0
   42.4670   34.1610   13.6530 N   0  0  0  0  0  0  0  0  0  0  0  0
   41.9100   35.5340   13.7850 C   0  0  0  0  0  0  0  0  0  0  0  0
   40.3890   35.6000   13.9450 C   0  0  0  0  0  0  0  0  0  0  0  0
   39.6620   34.8050   14.8640 C   0  0  0  0  0  0  0  0  0  0  0  0
   40.2280   33.9290   15.6510 C   0  0  0  0  0  0  0  0  0  0  0  0
   40.7240   33.1510   16.3760 N   0  0  0  0  0  0  0  0  0  0  0  0
   38.2650   34.9480   14.9320 C   0  0  0  0  0  0  0  0  0  0  0  0
   37.5930   35.8730   14.1150 C   0  0  0  0  0  0  0  0  0  0  0  0
   38.3180   36.6800   13.2310 C   0  0  0  0  0  0  0  0  0  0  0  0
   39.7050   36.5260   13.1540 C   0  0  0  0  0  0  0  0  0  0  0  0
   43.3720   33.6580   14.5520 C   0  0  0  0  0  0  0  0  0  0  0  0
   43.8720   32.3590   14.3960 C   0  0  0  0  0  0  0  0  0  0  0  0
   43.4460   31.6200   13.3110 C   0  0  0  0  0  0  0  0  0  0  0  0
   43.9100   30.4730   13.1810 O   0  0  0  0  0  0  0  0  0  0  0  0
   43.9910   34.4110   15.5810 N   0  0  0  0  0  0  0  0  0  0  0  0
   44.0770   33.8920   16.9690 C   0  0  0  0  0  0  0  0  0  0  0  0
   44.0450   34.9720   18.0630 C   0  0  2  0  0  0  0  0  0  0  0  0
   42.6720   35.5000   18.2800 N   0  3  0  0  0  0  0  0  0  0  0  0
   45.0000   36.1080   17.7300 C   0  0  0  0  0  0  0  0  0  0  0  0
   44.7530   36.6570   16.3310 C   0  0  0  0  0  0  0  0  0  0  0  0
   44.8200   35.5820   15.2680 C   0  0  0  0  0  0  0  0  0  0  0  0
   41.3847   31.9560   10.6816 H   0  0  0  0  0  0  0  0  0  0  0  0
   41.5894   30.4429   11.6278 H   0  0  0  0  0  0  0  0  0  0  0  0
   42.9505   31.0767   10.6417 H   0  0  0  0  0  0  0  0  0  0  0  0
   42.1836   36.1019   12.8836 H   0  0  0  0  0  0  0  0  0  0  0  0
   42.3671   36.0048   14.6678 H   0  0  0  0  0  0  0  0  0  0  0  0
   37.6983   34.3361   15.6244 H   0  0  0  0  0  0  0  0  0  0  0  0
   36.5140   35.9614   14.1695 H   0  0  0  0  0  0  0  0  0  0  0  0
   37.8112   37.4139   12.6149 H   0  0  0  0  0  0  0  0  0  0  0  0
   40.2657   37.1426   12.4609 H   0  0  0  0  0  0  0  0  0  0  0  0
   44.5787   31.9428   15.1124 H   0  0  0  0  0  0  0  0  0  0  0  0
   45.0189   33.3325   17.0677 H   0  0  0  0  0  0  0  0  0  0  0  0
   43.2278   33.2125   17.1338 H   0  0  0  0  0  0  0  0  0  0  0  0
   44.3807   34.5082   19.0023 H   0  0  0  0  0  0  0  0  0  0  0  0
   42.6927   36.2031   19.0020 H   0  0  0  0  0  0  0  0  0  0  0  0
   42.0632   34.7475   18.5612 H   0  0  0  0  0  0  0  0  0  0  0  0
   42.3295   35.9074   17.4240 H   0  0  0  0  0  0  0  0  0  0  0  0
   46.0330   35.7349   17.7896 H   0  0  0  0  0  0  0  0  0  0  0  0
   44.8599   36.9179   18.4610 H   0  0  0  0  0  0  0  0  0  0  0  0
   45.5153   37.4189   16.1110 H   0  0  0  0  0  0  0  0  0  0  0  0
   43.7548   37.1184   16.3040 H   0  0  0  0  0  0  0  0  0  0  0  0
   44.4760   36.0100   14.3149 H   0  0  0  0  0  0  0  0  0  0  0  0
   45.8651   35.2543   15.1668 H   0  0  0  0  0  0  0  0  0  0  0  0
  1  2  2  0  0  0  0
  2  3  1  0  0  0  0
  2  5  1  0  0  0  0
  3  4  1  0  0  0  0
  3 17  1  0  0  0  0
  4 26  1  0  0  0  0
  4 27  1  0  0  0  0
  4 28  1  0  0  0  0
  5  6  1  0  0  0  0
  5 15  1  0  0  0  0
  6  7  1  0  0  0  0
  6 29  1  0  0  0  0
  6 30  1  0  0  0  0
  7  8  2  0  0  0  0
  7 14  1  0  0  0  0
  8  9  1  0  0  0  0
  8 11  1  0  0  0  0
  9 10  3  0  0  0  0
 11 12  2  0  0  0  0
 11 31  1  0  0  0  0
 12 13  1  0  0  0  0
 12 32  1  0  0  0  0
 13 14  2  0  0  0  0
 13 33  1  0  0  0  0
 14 34  1  0  0  0  0
 15 16  2  0  0  0  0
 15 19  1  0  0  0  0
 16 17  1  0  0  0  0
 16 35  1  0  0  0  0
 17 18  2  0  0  0  0
 19 20  1  0  0  0  0
 19 25  1  0  0  0  0
 20 21  1  0  0  0  0
 20 36  1  0  0  0  0
 20 37  1  0  0  0  0
 21 22  1  0  0  0  0
 21 23  1  0  0  0  0
 21 38  1  1  0  0  0
 22 39  1  0  0  0  0
 22 40  1  0  0  0  0
 22 41  1  0  0  0  0
 23 24  1  0  0  0  0
 23 42  1  0  0  0  0
 23 43  1  0  0  0  0
 24 25  1  0  0  0  0
 24 44  1  0  0  0  0
 24 45  1  0  0  0  0
 25 46  1  0  0  0  0
 25 47  1  0  0  0  0
M  CHG  1  22   1
M  END
