3g2k_ligand
 OpenBabel08222323343D

 45 48  0  0  1  0  0  0  0  0999 V2000
   36.3060   25.3510   32.4860 C   0  0  0  0  0  0  0  0  0  0  0  0
   37.4310   25.7570   33.2120 C   0  0  0  0  0  0  0  0  0  0  0  0
   37.2850   26.3610   34.4670 C   0  0  0  0  0  0  0  0  0  0  0  0
   38.4180   26.7640   35.1850 C   0  0  0  0  0  0  0  0  0  0  0  0
   39.6960   26.5690   34.6520 C   0  0  0  0  0  0  0  0  0  0  0  0
   39.8400   25.9660   33.3990 C   0  0  0  0  0  0  0  0  0  0  0  0
   38.7100   25.5580   32.6800 C   0  0  0  0  0  0  0  0  0  0  0  0
   38.8520   24.9570   31.4270 C   0  0  0  0  0  0  0  0  0  0  0  0
   37.7260   24.5510   30.7050 C   0  0  0  0  0  0  0  0  0  0  0  0
   36.4430   24.7460   31.2280 C   0  0  0  0  0  0  0  0  0  0  0  0
   35.3000   24.3490   30.5180 C   0  0  0  0  0  0  0  0  0  0  0  0
   35.2110   23.6790   29.3610 C   0  0  0  0  0  0  0  0  0  0  0  0
   34.0380   24.5740   30.8910 N   0  0  0  0  0  0  0  0  0  0  0  0
   33.2660   24.1010   30.0520 N   0  0  0  0  0  0  0  0  0  0  0  0
   33.8990   23.5740   29.1300 N   0  0  0  0  0  0  0  0  0  0  0  0
   33.1660   22.9230   28.0190 C   0  0  2  0  0  0  0  0  0  0  0  0
   33.2140   21.4890   28.2640 O   0  0  0  0  0  0  0  0  0  0  0  0
   32.1550   20.8410   27.5140 C   0  0  2  0  0  0  0  0  0  0  0  0
   32.1120   19.3730   27.9560 C   0  0  0  0  0  0  0  0  0  0  0  0
   33.2760   18.6840   27.4800 O   0  0  0  0  0  0  0  0  0  0  0  0
   32.3680   21.0090   25.9820 C   0  0  1  0  0  0  0  0  0  0  0  0
   31.2010   20.5580   25.2980 O   0  0  0  0  0  0  0  0  0  0  0  0
   32.6630   22.4740   25.5850 C   0  0  2  0  0  0  0  0  0  0  0  0
   33.1710   22.5200   24.2430 O   0  0  0  0  0  0  0  0  0  0  0  0
   33.6580   23.1290   26.5730 C   0  0  1  0  0  0  0  0  0  0  0  0
   33.8240   24.5240   26.3010 O   0  0  0  0  0  0  0  0  0  0  0  0
   35.3165   25.5059   32.9008 H   0  0  0  0  0  0  0  0  0  0  0  0
   36.2959   26.5165   34.8824 H   0  0  0  0  0  0  0  0  0  0  0  0
   38.3038   27.2288   36.1576 H   0  0  0  0  0  0  0  0  0  0  0  0
   40.5715   26.8841   35.2081 H   0  0  0  0  0  0  0  0  0  0  0  0
   40.8293   25.8139   32.9829 H   0  0  0  0  0  0  0  0  0  0  0  0
   39.8417   24.8045   31.0119 H   0  0  0  0  0  0  0  0  0  0  0  0
   37.8474   24.0827   29.7349 H   0  0  0  0  0  0  0  0  0  0  0  0
   36.0270   23.3033   28.7454 H   0  0  0  0  0  0  0  0  0  0  0  0
   32.1250   23.2754   28.0647 H   0  0  0  0  0  0  0  0  0  0  0  0
   31.1954   21.3121   27.7733 H   0  0  0  0  0  0  0  0  0  0  0  0
   31.2114   18.8945   27.5438 H   0  0  0  0  0  0  0  0  0  0  0  0
   32.0833   19.3238   29.0545 H   0  0  0  0  0  0  0  0  0  0  0  0
   34.0543   19.0959   27.8365 H   0  0  0  0  0  0  0  0  0  0  0  0
   33.2242   20.3884   25.6792 H   0  0  0  0  0  0  0  0  0  0  0  0
   30.4532   21.0736   25.5762 H   0  0  0  0  0  0  0  0  0  0  0  0
   31.7206   23.0402   25.6205 H   0  0  0  0  0  0  0  0  0  0  0  0
   33.3505   23.4218   24.0043 H   0  0  0  0  0  0  0  0  0  0  0  0
   34.6350   22.6363   26.4601 H   0  0  0  0  0  0  0  0  0  0  0  0
   34.1575   24.6359   25.4186 H   0  0  0  0  0  0  0  0  0  0  0  0
  1  2  2  0  0  0  0
  1 10  1  0  0  0  0
  1 27  1  0  0  0  0
  2  3  1  0  0  0  0
  2  7  1  0  0  0  0
  3  4  2  0  0  0  0
  3 28  1  0  0  0  0
  4  5  1  0  0  0  0
  4 29  1  0  0  0  0
  5  6  2  0  0  0  0
  5 30  1  0  0  0  0
  6  7  1  0  0  0  0
  6 31  1  0  0  0  0
  7  8  2  0  0  0  0
  8  9  1  0  0  0  0
  8 32  1  0  0  0  0
  9 10  2  0  0  0  0
  9 33  1  0  0  0  0
 10 11  1  0  0  0  0
 11 12  2  0  0  0  0
 11 13  1  0  0  0  0
 12 15  1  0  0  0  0
 12 34  1  0  0  0  0
 13 14  2  0  0  0  0
 14 15  1  0  0  0  0
 15 16  1  0  0  0  0
 16 17  1  0  0  0  0
 16 25  1  0  0  0  0
 16 35  1  1  0  0  0
 17 18  1  0  0  0  0
 18 19  1  0  0  0  0
 18 21  1  0  0  0  0
 18 36  1  1  0  0  0
 19 20  1  0  0  0  0
 19 37  1  0  0  0  0
 19 38  1  0  0  0  0
 20 39  1  0  0  0  0
 21 22  1  0  0  0  0
 21 23  1  0  0  0  0
 21 40  1  6  0  0  0
 22 41  1  0  0  0  0
 23 24  1  0  0  0  0
 23 25  1  0  0  0  0
 23 42  1  1  0  0  0
 24 43  1  0  0  0  0
 25 26  1  0  0  0  0
 25 44  1  6  0  0  0
 26 45  1  0  0  0  0
M  END
