3g2s_ligand
 OpenBabel08222323343D

157158  0  0  1  0  0  0  0  0999 V2000
   11.1430    4.0870  -50.7710 N   0  3  0  0  0  0  0  0  0  0  0  0
   10.2210    4.9010  -49.9300 C   0  0  0  0  0  0  0  0  0  0  0  0
   10.6780    4.9860  -48.4890 C   0  0  0  0  0  0  0  0  0  0  0  0
   11.7570    5.5060  -48.1980 O   0  0  0  0  0  0  0  0  0  0  0  0
    9.8940    4.3910  -47.5930 N   0  0  0  0  0  0  0  0  0  0  0  0
    9.9980    4.6870  -46.1670 C   0  0  2  0  0  0  0  0  0  0  0  0
   10.2020    3.4210  -45.3430 C   0  0  0  0  0  0  0  0  0  0  0  0
    9.5880    2.3950  -45.6180 O   0  0  0  0  0  0  0  0  0  0  0  0
    8.7560    5.4370  -45.6830 C   0  0  0  0  0  0  0  0  0  0  0  0
    8.5800    6.7800  -46.3240 C   0  0  0  0  0  0  0  0  0  0  0  0
    9.3550    7.8560  -45.9190 C   0  0  0  0  0  0  0  0  0  0  0  0
    7.7350    6.9390  -47.4100 C   0  0  0  0  0  0  0  0  0  0  0  0
    9.2210    9.0980  -46.5210 C   0  0  0  0  0  0  0  0  0  0  0  0
    7.6090    8.1750  -48.0380 C   0  0  0  0  0  0  0  0  0  0  0  0
    8.3620    9.2550  -47.5940 C   0  0  0  0  0  0  0  0  0  0  0  0
   11.1490    3.4770  -44.4110 N   0  0  0  0  0  0  0  0  0  0  0  0
   11.2980    2.4680  -43.3630 C   0  0  2  0  0  0  0  0  0  0  0  0
   10.0260    2.3330  -42.5380 C   0  0  0  0  0  0  0  0  0  0  0  0
    9.3650    3.3360  -42.2510 O   0  0  0  0  0  0  0  0  0  0  0  0
   12.4360    2.8680  -42.4260 C   0  0  0  0  0  0  0  0  0  0  0  0
   12.8480    1.7370  -41.6800 O   0  0  0  0  0  0  0  0  0  0  0  0
    9.6960    1.1080  -42.1360 N   0  0  0  0  0  0  0  0  0  0  0  0
    8.7690    0.9230  -41.0210 C   0  0  2  0  0  0  0  0  0  0  0  0
    9.5110    0.7380  -39.6890 C   0  0  0  0  0  0  0  0  0  0  0  0
    8.9330    0.2810  -38.6990 O   0  0  0  0  0  0  0  0  0  0  0  0
    7.7870   -0.2210  -41.3110 C   0  0  0  0  0  0  0  0  0  0  0  0
    8.4820   -1.5600  -41.4740 C   0  0  0  0  0  0  0  0  0  0  0  0
    9.6780   -1.6630  -41.1230 O   0  5  0  0  0  0  0  0  0  0  0  0
    7.8150   -2.5220  -41.9120 O   0  0  0  0  0  0  0  0  0  0  0  0
   10.8020    1.0670  -39.6720 N   0  0  0  0  0  0  0  0  0  0  0  0
   11.6330    0.9140  -38.4700 C   0  0  2  0  0  0  0  0  0  0  0  0
   12.1080    2.2930  -38.0020 C   0  0  0  0  0  0  0  0  0  0  0  0
   11.7510    3.3210  -38.5900 O   0  0  0  0  0  0  0  0  0  0  0  0
   12.8450    0.0210  -38.7740 C   0  0  0  0  0  0  0  0  0  0  0  0
   13.4450   -0.6590  -37.5370 C   0  0  0  0  0  0  0  0  0  0  0  0
   12.9340   -0.5020  -36.4030 O   0  5  0  0  0  0  0  0  0  0  0  0
   14.4060   -1.4450  -37.7270 O   0  0  0  0  0  0  0  0  0  0  0  0
   12.9840    2.2800  -36.9970 N   0  0  0  0  0  0  0  0  0  0  0  0
   13.5390    3.4870  -36.3930 C   0  0  2  0  0  0  0  0  0  0  0  0
   15.0690    3.3390  -36.3810 C   0  0  0  0  0  0  0  0  0  0  0  0
   15.5980    2.2350  -36.5870 O   0  0  0  0  0  0  0  0  0  0  0  0
   12.9940    3.6670  -34.9510 C   0  0  0  0  0  0  0  0  0  0  0  0
   11.4580    3.7290  -34.9580 C   0  0  0  0  0  0  0  0  0  0  0  0
   13.4700    2.5230  -34.0410 C   0  0  0  0  0  0  0  0  0  0  0  0
   15.7980    4.4550  -36.2250 N   0  0  0  0  0  0  0  0  0  0  0  0
   17.2640    4.3890  -36.1380 C   0  0  2  0  0  0  0  0  0  0  0  0
   17.7670    3.5800  -34.9360 C   0  0  0  0  0  0  0  0  0  0  0  0
   17.0790    3.4900  -33.9230 O   0  0  0  0  0  0  0  0  0  0  0  0
   17.6790    5.8690  -35.9900 C   0  0  0  0  0  0  0  0  0  0  0  0
   16.5280    6.6590  -36.5610 C   0  0  0  0  0  0  0  0  0  0  0  0
   15.2950    5.8410  -36.2120 C   0  0  0  0  0  0  0  0  0  0  0  0
   18.9750    3.0250  -35.0520 N   0  0  0  0  0  0  0  0  0  0  0  0
   19.5580    2.2470  -33.9700 C   0  0  2  0  0  0  0  0  0  0  0  0
   19.9970    3.1770  -32.8450 C   0  0  0  0  0  0  0  0  0  0  0  0
   20.5830    4.2330  -33.1090 O   0  0  0  0  0  0  0  0  0  0  0  0
   20.7680    1.4480  -34.4630 C   0  0  0  0  0  0  0  0  0  0  0  0
   21.4130    0.6120  -33.3670 C   0  0  0  0  0  0  0  0  0  0  0  0
   22.7410   -0.4370  -33.9950 S   0  0  0  0  0  0  0  0  0  0  0  0
   23.9190    0.8430  -34.3440 C   0  0  0  0  0  0  0  0  0  0  0  0
   19.6810    2.8010  -31.6060 N   0  0  0  0  0  0  0  0  0  0  0  0
   20.1920    3.4990  -30.4250 C   0  0  2  0  0  0  0  0  0  0  0  0
   21.6220    3.0570  -30.1050 C   0  0  0  0  0  0  0  0  0  0  0  0
   21.9600    1.8780  -30.1370 O   0  0  0  0  0  0  0  0  0  0  0  0
   19.2700    3.2960  -29.1860 C   0  0  0  0  0  0  0  0  0  0  0  0
   19.9290    3.7970  -27.9020 C   0  0  0  0  0  0  0  0  0  0  0  0
   17.9370    4.0180  -29.3920 C   0  0  0  0  0  0  0  0  0  0  0  0
   22.4940    4.0340  -29.8880 N   0  0  0  0  0  0  0  0  0  0  0  0
   23.8970    3.7350  -29.6260 C   0  0  2  0  0  0  0  0  0  0  0  0
   24.1360    3.4920  -28.1300 C   0  0  0  0  0  0  0  0  0  0  0  0
   23.6830    4.2700  -27.2780 O   0  0  0  0  0  0  0  0  0  0  0  0
   24.8260    4.8700  -30.1450 C   0  0  2  0  0  0  0  0  0  0  0  0
   24.4730    5.2660  -31.5760 C   0  0  0  0  0  0  0  0  0  0  0  0
   26.2900    4.4320  -30.0850 C   0  0  0  0  0  0  0  0  0  0  0  0
   24.4540    4.1270  -32.5660 C   0  0  0  0  0  0  0  0  0  0  0  0
   24.7800    2.3670  -27.8150 N   0  0  0  0  0  0  0  0  0  0  0  0
   25.0720    1.9800  -26.4280 C   0  0  2  0  0  0  0  0  0  0  0  0
   26.2100    2.8130  -25.8210 C   0  0  0  0  0  0  0  0  0  0  0  0
   26.9330    3.5250  -26.5370 O   0  5  0  0  0  0  0  0  0  0  0  0
   25.4390    0.4890  -26.3620 C   0  0  0  0  0  0  0  0  0  0  0  0
   26.3820    2.7800  -24.5940 O   0  0  0  0  0  0  0  0  0  0  0  0
   10.7982    4.0598  -51.7178 H   0  0  0  0  0  0  0  0  0  0  0  0
   11.1926    3.1493  -50.4044 H   0  0  0  0  0  0  0  0  0  0  0  0
   12.0619    4.5012  -50.7598 H   0  0  0  0  0  0  0  0  0  0  0  0
    9.2212    4.4432  -49.9571 H   0  0  0  0  0  0  0  0  0  0  0  0
   10.1698    5.9184  -50.3449 H   0  0  0  0  0  0  0  0  0  0  0  0
    9.2167    3.7244  -47.9043 H   0  0  0  0  0  0  0  0  0  0  0  0
   10.8734    5.3361  -46.0175 H   0  0  0  0  0  0  0  0  0  0  0  0
    8.8368    5.5786  -44.5952 H   0  0  0  0  0  0  0  0  0  0  0  0
    7.8701    4.8251  -45.9083 H   0  0  0  0  0  0  0  0  0  0  0  0
   10.0760    7.7245  -45.1203 H   0  0  0  0  0  0  0  0  0  0  0  0
    7.1656    6.0918  -47.7748 H   0  0  0  0  0  0  0  0  0  0  0  0
    9.7884    9.9445  -46.1514 H   0  0  0  0  0  0  0  0  0  0  0  0
    6.9255    8.2945  -48.8708 H   0  0  0  0  0  0  0  0  0  0  0  0
    8.2767   10.2169  -48.0865 H   0  0  0  0  0  0  0  0  0  0  0  0
   11.7892    4.2450  -44.4276 H   0  0  0  0  0  0  0  0  0  0  0  0
   11.5297    1.4997  -43.8306 H   0  0  0  0  0  0  0  0  0  0  0  0
   12.0877    3.6538  -41.7396 H   0  0  0  0  0  0  0  0  0  0  0  0
   13.2829    3.2465  -43.0172 H   0  0  0  0  0  0  0  0  0  0  0  0
   13.1481    1.0592  -42.2742 H   0  0  0  0  0  0  0  0  0  0  0  0
   10.0838    0.3108  -42.5986 H   0  0  0  0  0  0  0  0  0  0  0  0
    8.1756    1.8450  -40.9326 H   0  0  0  0  0  0  0  0  0  0  0  0
    7.2429    0.0086  -42.2390 H   0  0  0  0  0  0  0  0  0  0  0  0
    7.0742   -0.2935  -40.4763 H   0  0  0  0  0  0  0  0  0  0  0  0
   11.2193    1.4302  -40.5051 H   0  0  0  0  0  0  0  0  0  0  0  0
   11.0339    0.4478  -37.6739 H   0  0  0  0  0  0  0  0  0  0  0  0
   13.6244    0.6423  -39.2393 H   0  0  0  0  0  0  0  0  0  0  0  0
   12.5297   -0.7614  -39.4800 H   0  0  0  0  0  0  0  0  0  0  0  0
   13.2769    1.3942  -36.6372 H   0  0  0  0  0  0  0  0  0  0  0  0
   13.2584    4.3642  -36.9945 H   0  0  0  0  0  0  0  0  0  0  0  0
   13.3805    4.6156  -34.5500 H   0  0  0  0  0  0  0  0  0  0  0  0
   11.0915    3.8566  -33.9287 H   0  0  0  0  0  0  0  0  0  0  0  0
   11.0552    2.7953  -35.3775 H   0  0  0  0  0  0  0  0  0  0  0  0
   11.1281    4.5795  -35.5727 H   0  0  0  0  0  0  0  0  0  0  0  0
   14.5694    2.4866  -34.0424 H   0  0  0  0  0  0  0  0  0  0  0  0
   13.0711    1.5680  -34.4135 H   0  0  0  0  0  0  0  0  0  0  0  0
   13.1102    2.6959  -33.0160 H   0  0  0  0  0  0  0  0  0  0  0  0
   17.6801    3.9549  -37.0591 H   0  0  0  0  0  0  0  0  0  0  0  0
   18.6021    6.0694  -36.5536 H   0  0  0  0  0  0  0  0  0  0  0  0
   17.8336    6.1226  -34.9309 H   0  0  0  0  0  0  0  0  0  0  0  0
   16.6302    6.7623  -37.6513 H   0  0  0  0  0  0  0  0  0  0  0  0
   16.4754    7.6570  -36.1014 H   0  0  0  0  0  0  0  0  0  0  0  0
   14.9099    6.1120  -35.2179 H   0  0  0  0  0  0  0  0  0  0  0  0
   14.5031    5.9807  -36.9626 H   0  0  0  0  0  0  0  0  0  0  0  0
   19.4902    3.1465  -35.9004 H   0  0  0  0  0  0  0  0  0  0  0  0
   18.8002    1.5480  -33.5864 H   0  0  0  0  0  0  0  0  0  0  0  0
   21.5174    2.1518  -34.8543 H   0  0  0  0  0  0  0  0  0  0  0  0
   20.4397    0.7759  -35.2695 H   0  0  0  0  0  0  0  0  0  0  0  0
   20.6430   -0.0276  -32.9109 H   0  0  0  0  0  0  0  0  0  0  0  0
   21.8272    1.2879  -32.6043 H   0  0  0  0  0  0  0  0  0  0  0  0
   24.8371    0.3950  -34.7520 H   0  0  0  0  0  0  0  0  0  0  0  0
   24.1564    1.3855  -33.4170 H   0  0  0  0  0  0  0  0  0  0  0  0
   23.4939    1.5420  -35.0793 H   0  0  0  0  0  0  0  0  0  0  0  0
   19.0747    2.0160  -31.4789 H   0  0  0  0  0  0  0  0  0  0  0  0
   20.2127    4.5744  -30.6555 H   0  0  0  0  0  0  0  0  0  0  0  0
   19.0733    2.2193  -29.0769 H   0  0  0  0  0  0  0  0  0  0  0  0
   19.2478    3.6361  -27.0534 H   0  0  0  0  0  0  0  0  0  0  0  0
   20.1487    4.8706  -27.9973 H   0  0  0  0  0  0  0  0  0  0  0  0
   20.8649    3.2450  -27.7307 H   0  0  0  0  0  0  0  0  0  0  0  0
   17.4634    3.6566  -30.3167 H   0  0  0  0  0  0  0  0  0  0  0  0
   18.1146    5.1007  -29.4701 H   0  0  0  0  0  0  0  0  0  0  0  0
   17.2745    3.8157  -28.5375 H   0  0  0  0  0  0  0  0  0  0  0  0
   22.1855    4.9851  -29.9044 H   0  0  0  0  0  0  0  0  0  0  0  0
   24.1527    2.8121  -30.1673 H   0  0  0  0  0  0  0  0  0  0  0  0
   24.6939    5.7486  -29.4965 H   0  0  0  0  0  0  0  0  0  0  0  0
   25.2135    6.0037  -31.9186 H   0  0  0  0  0  0  0  0  0  0  0  0
   23.4741    5.7265  -31.5663 H   0  0  0  0  0  0  0  0  0  0  0  0
   26.5453    4.1464  -29.0539 H   0  0  0  0  0  0  0  0  0  0  0  0
   26.9349    5.2635  -30.4055 H   0  0  0  0  0  0  0  0  0  0  0  0
   26.4428    3.5711  -30.7524 H   0  0  0  0  0  0  0  0  0  0  0  0
   24.1909    4.5116  -33.5624 H   0  0  0  0  0  0  0  0  0  0  0  0
   23.7089    3.3810  -32.2525 H   0  0  0  0  0  0  0  0  0  0  0  0
   25.4484    3.6583  -32.6048 H   0  0  0  0  0  0  0  0  0  0  0  0
   25.0764    1.7617  -28.5538 H   0  0  0  0  0  0  0  0  0  0  0  0
   24.1652    2.1464  -25.8281 H   0  0  0  0  0  0  0  0  0  0  0  0
   25.6554    0.2105  -25.3201 H   0  0  0  0  0  0  0  0  0  0  0  0
   26.3271    0.3021  -26.9835 H   0  0  0  0  0  0  0  0  0  0  0  0
   24.5971   -0.1127  -26.7350 H   0  0  0  0  0  0  0  0  0  0  0  0
  1  2  1  0  0  0  0
  1 81  1  0  0  0  0
  1 82  1  0  0  0  0
  1 83  1  0  0  0  0
  2  3  1  0  0  0  0
  2 84  1  0  0  0  0
  2 85  1  0  0  0  0
  3  4  2  0  0  0  0
  3  5  1  0  0  0  0
  5  6  1  0  0  0  0
  5 86  1  0  0  0  0
  6  7  1  0  0  0  0
  6  9  1  0  0  0  0
  6 87  1  1  0  0  0
  7  8  2  0  0  0  0
  7 16  1  0  0  0  0
  9 10  1  0  0  0  0
  9 88  1  0  0  0  0
  9 89  1  0  0  0  0
 10 11  2  0  0  0  0
 10 12  1  0  0  0  0
 11 13  1  0  0  0  0
 11 90  1  0  0  0  0
 12 14  2  0  0  0  0
 12 91  1  0  0  0  0
 13 15  2  0  0  0  0
 13 92  1  0  0  0  0
 14 15  1  0  0  0  0
 14 93  1  0  0  0  0
 15 94  1  0  0  0  0
 16 17  1  0  0  0  0
 16 95  1  0  0  0  0
 17 18  1  0  0  0  0
 17 20  1  0  0  0  0
 17 96  1  6  0  0  0
 18 19  2  0  0  0  0
 18 22  1  0  0  0  0
 20 21  1  0  0  0  0
 20 97  1  0  0  0  0
 20 98  1  0  0  0  0
 21 99  1  0  0  0  0
 22 23  1  0  0  0  0
 22100  1  0  0  0  0
 23 24  1  0  0  0  0
 23 26  1  0  0  0  0
 23101  1  1  0  0  0
 24 25  2  0  0  0  0
 24 30  1  0  0  0  0
 26 27  1  0  0  0  0
 26102  1  0  0  0  0
 26103  1  0  0  0  0
 27 28  1  0  0  0  0
 27 29  2  0  0  0  0
 30 31  1  0  0  0  0
 30104  1  0  0  0  0
 31 32  1  0  0  0  0
 31 34  1  0  0  0  0
 31105  1  1  0  0  0
 32 33  2  0  0  0  0
 32 38  1  0  0  0  0
 34 35  1  0  0  0  0
 34106  1  0  0  0  0
 34107  1  0  0  0  0
 35 36  1  0  0  0  0
 35 37  2  0  0  0  0
 38 39  1  0  0  0  0
 38108  1  0  0  0  0
 39 40  1  0  0  0  0
 39 42  1  0  0  0  0
 39109  1  6  0  0  0
 40 41  2  0  0  0  0
 40 45  1  0  0  0  0
 42 43  1  0  0  0  0
 42 44  1  0  0  0  0
 42110  1  0  0  0  0
 43111  1  0  0  0  0
 43112  1  0  0  0  0
 43113  1  0  0  0  0
 44114  1  0  0  0  0
 44115  1  0  0  0  0
 44116  1  0  0  0  0
 45 46  1  0  0  0  0
 45 51  1  0  0  0  0
 46 47  1  0  0  0  0
 46 49  1  0  0  0  0
 46117  1  6  0  0  0
 47 48  2  0  0  0  0
 47 52  1  0  0  0  0
 49 50  1  0  0  0  0
 49118  1  0  0  0  0
 49119  1  0  0  0  0
 50 51  1  0  0  0  0
 50120  1  0  0  0  0
 50121  1  0  0  0  0
 51122  1  0  0  0  0
 51123  1  0  0  0  0
 52 53  1  0  0  0  0
 52124  1  0  0  0  0
 53 54  1  0  0  0  0
 53 56  1  0  0  0  0
 53125  1  1  0  0  0
 54 55  2  0  0  0  0
 54 60  1  0  0  0  0
 56 57  1  0  0  0  0
 56126  1  0  0  0  0
 56127  1  0  0  0  0
 57 58  1  0  0  0  0
 57128  1  0  0  0  0
 57129  1  0  0  0  0
 58 59  1  0  0  0  0
 59130  1  0  0  0  0
 59131  1  0  0  0  0
 59132  1  0  0  0  0
 60 61  1  0  0  0  0
 60133  1  0  0  0  0
 61 62  1  0  0  0  0
 61 64  1  0  0  0  0
 61134  1  6  0  0  0
 62 63  2  0  0  0  0
 62 67  1  0  0  0  0
 64 65  1  0  0  0  0
 64 66  1  0  0  0  0
 64135  1  0  0  0  0
 65136  1  0  0  0  0
 65137  1  0  0  0  0
 65138  1  0  0  0  0
 66139  1  0  0  0  0
 66140  1  0  0  0  0
 66141  1  0  0  0  0
 67 68  1  0  0  0  0
 67142  1  0  0  0  0
 68 69  1  0  0  0  0
 68 71  1  0  0  0  0
 68143  1  6  0  0  0
 69 70  2  0  0  0  0
 69 75  1  0  0  0  0
 71 72  1  0  0  0  0
 71 73  1  0  0  0  0
 71144  1  1  0  0  0
 72 74  1  0  0  0  0
 72145  1  0  0  0  0
 72146  1  0  0  0  0
 73147  1  0  0  0  0
 73148  1  0  0  0  0
 73149  1  0  0  0  0
 74150  1  0  0  0  0
 74151  1  0  0  0  0
 74152  1  0  0  0  0
 75 76  1  0  0  0  0
 75153  1  0  0  0  0
 76 77  1  0  0  0  0
 76 79  1  0  0  0  0
 76154  1  1  0  0  0
 77 78  1  0  0  0  0
 77 80  2  0  0  0  0
 79155  1  0  0  0  0
 79156  1  0  0  0  0
 79157  1  0  0  0  0
M  CHG  4   1   1  28  -1  36  -1  78  -1
M  END
