3g42_ligand
 OpenBabel08222323343D

 48 50  0  0  1  0  0  0  0  0999 V2000
   56.1730   33.8870   99.6560 C   0  0  0  0  0  0  0  0  0  0  0  0
   56.2650   33.2780  100.9540 C   0  0  0  0  0  0  0  0  0  0  0  0
   55.2550   32.3460  101.4160 C   0  0  0  0  0  0  0  0  0  0  0  0
   54.1450   32.0320  100.5520 C   0  0  0  0  0  0  0  0  0  0  0  0
   54.0660   32.6450   99.2580 C   0  0  0  0  0  0  0  0  0  0  0  0
   55.0700   33.5690   98.8080 C   0  0  0  0  0  0  0  0  0  0  0  0
   54.0920   32.5660  107.2620 S   0  0  0  0  0  0  0  0  0  0  0  0
   52.4070   33.1170  107.4550 C   0  0  0  0  0  0  0  0  0  0  0  0
   51.3710   32.1540  107.6780 C   0  0  0  0  0  0  0  0  0  0  0  0
   50.0210   32.5950  107.8320 C   0  0  0  0  0  0  0  0  0  0  0  0
   49.7080   33.9880  107.7660 C   0  0  0  0  0  0  0  0  0  0  0  0
   50.7540   34.9670  107.5410 C   0  0  0  0  0  0  0  0  0  0  0  0
   52.1110   34.5270  107.3850 C   0  0  0  0  0  0  0  0  0  0  0  0
   48.3410   34.3300  107.9240 O   0  0  0  0  0  0  0  0  0  0  0  0
   47.9380   35.1790  109.0130 C   0  0  0  0  0  0  0  0  0  0  0  0
   48.0140   34.4930  110.3260 C   0  0  0  0  0  0  0  0  0  0  0  0
   48.0940   33.9860  111.4000 C   0  0  0  0  0  0  0  0  0  0  0  0
   54.9420   33.5390  107.8800 O   0  0  0  0  0  0  0  0  0  0  0  0
   54.1780   31.2360  107.8120 O   0  0  0  0  0  0  0  0  0  0  0  0
   57.1980   33.3900  101.9730 N   0  0  0  0  0  0  0  0  0  0  0  0
   56.8380   32.6060  103.0180 C   0  0  0  0  0  0  0  0  0  0  0  0
   55.6390   31.9210  102.7590 C   0  0  0  0  0  0  0  0  0  0  0  0
   54.9230   30.9430  103.7130 C   0  0  0  0  0  0  0  0  0  0  0  0
   53.8490   31.5800  104.6630 C   0  0  2  0  0  0  0  0  0  0  0  0
   52.7730   32.2770  103.8560 C   0  0  0  0  0  0  0  0  0  0  0  0
   54.4980   32.4920  105.6450 N   0  0  0  0  0  0  0  0  0  0  0  0
   52.8860   33.4840  103.6660 O   0  5  0  0  0  0  0  0  0  0  0  0
   51.8520   31.6040  103.3960 O   0  0  0  0  0  0  0  0  0  0  0  0
   52.9310   32.3210   98.3790 C   0  0  0  0  0  0  0  0  0  0  0  0
   56.9352   34.5824   99.3234 H   0  0  0  0  0  0  0  0  0  0  0  0
   53.3773   31.3392  100.8772 H   0  0  0  0  0  0  0  0  0  0  0  0
   54.9899   34.0234   97.8271 H   0  0  0  0  0  0  0  0  0  0  0  0
   51.6094   31.0978  107.7296 H   0  0  0  0  0  0  0  0  0  0  0  0
   49.2317   31.8711  107.9994 H   0  0  0  0  0  0  0  0  0  0  0  0
   50.5128   36.0226  107.4911 H   0  0  0  0  0  0  0  0  0  0  0  0
   52.9045   35.2460  107.2165 H   0  0  0  0  0  0  0  0  0  0  0  0
   46.9003   35.5019  108.8433 H   0  0  0  0  0  0  0  0  0  0  0  0
   48.5969   36.0595  109.0364 H   0  0  0  0  0  0  0  0  0  0  0  0
   48.1650   33.5362  112.3528 H   0  0  0  0  0  0  0  0  0  0  0  0
   58.0405   33.9817  101.9407 H   0  0  0  0  0  0  0  0  0  0  0  0
   57.4067   32.5180  103.9425 H   0  0  0  0  0  0  0  0  0  0  0  0
   55.6879   30.4637  104.3416 H   0  0  0  0  0  0  0  0  0  0  0  0
   54.4212   30.1798  103.1000 H   0  0  0  0  0  0  0  0  0  0  0  0
   53.3691   30.7674  105.2281 H   0  0  0  0  0  0  0  0  0  0  0  0
   55.2221   33.0977  105.3151 H   0  0  0  0  0  0  0  0  0  0  0  0
   52.2688   31.6030   98.8849 H   0  0  0  0  0  0  0  0  0  0  0  0
   53.3057   31.8785   97.4443 H   0  0  0  0  0  0  0  0  0  0  0  0
   52.3701   33.2393   98.1509 H   0  0  0  0  0  0  0  0  0  0  0  0
  1  6  1  0  0  0  0
  1 30  1  0  0  0  0
  2  1  2  0  0  0  0
  3  2  1  0  0  0  0
  3  4  2  0  0  0  0
  4  5  1  0  0  0  0
  4 31  1  0  0  0  0
  5  6  2  0  0  0  0
  5 29  1  0  0  0  0
  6 32  1  0  0  0  0
  7  8  1  0  0  0  0
  7 18  2  0  0  0  0
  7 19  2  0  0  0  0
  8  9  2  0  0  0  0
  8 13  1  0  0  0  0
  9 10  1  0  0  0  0
  9 33  1  0  0  0  0
 10 11  2  0  0  0  0
 10 34  1  0  0  0  0
 11 14  1  0  0  0  0
 12 11  1  0  0  0  0
 12 35  1  0  0  0  0
 13 12  2  0  0  0  0
 13 36  1  0  0  0  0
 14 15  1  0  0  0  0
 15 16  1  0  0  0  0
 15 37  1  0  0  0  0
 15 38  1  0  0  0  0
 16 17  3  0  0  0  0
 17 39  1  0  0  0  0
 20  2  1  0  0  0  0
 20 40  1  0  0  0  0
 21 20  1  0  0  0  0
 21 41  1  0  0  0  0
 22  3  1  0  0  0  0
 22 21  2  0  0  0  0
 23 22  1  0  0  0  0
 23 42  1  0  0  0  0
 23 43  1  0  0  0  0
 24 23  1  0  0  0  0
 24 25  1  0  0  0  0
 24 26  1  0  0  0  0
 24 44  1  1  0  0  0
 25 27  1  0  0  0  0
 25 28  2  0  0  0  0
 26  7  1  0  0  0  0
 26 45  1  0  0  0  0
 29 46  1  0  0  0  0
 29 47  1  0  0  0  0
 29 48  1  0  0  0  0
M  CHG  1  27  -1
M  END
