3g4f_ligand
 OpenBabel08222323343D

 49 48  0  0  0  0  0  0  0  0999 V2000
   14.9950  -48.3920   12.4930 C   0  0  0  0  0  0  0  0  0  0  0  0
   15.4410  -49.5580   13.1240 O   0  0  0  0  0  0  0  0  0  0  0  0
   15.8310  -47.2510   13.0920 C   0  0  0  0  0  0  0  0  0  0  0  0
   17.1750  -47.3450   13.0750 F   0  0  0  0  0  0  0  0  0  0  0  0
   15.2320  -46.2070   13.6550 C   0  0  0  0  0  0  0  0  0  0  0  0
   13.7030  -46.1420   13.6560 C   0  0  0  0  0  0  0  0  0  0  0  0
   16.0820  -45.0780   14.3070 C   0  0  0  0  0  0  0  0  0  0  0  0
   16.2620  -43.7310   13.5270 C   0  0  0  0  0  0  0  0  0  0  0  0
   15.0900  -42.8020   13.9300 C   0  0  0  0  0  0  0  0  0  0  0  0
   15.0570  -41.4840   13.6560 C   0  0  0  0  0  0  0  0  0  0  0  0
   16.2270  -40.7530   12.9590 C   0  0  0  0  0  0  0  0  0  0  0  0
   13.8070  -40.7070   14.1080 C   0  0  0  0  0  0  0  0  0  0  0  0
   12.6010  -40.7000   13.1420 C   0  0  0  0  0  0  0  0  0  0  0  0
   11.2600  -41.1710   13.7580 C   0  0  0  0  0  0  0  0  0  0  0  0
   10.8170  -42.4300   13.6280 C   0  0  0  0  0  0  0  0  0  0  0  0
    9.4890  -42.8680   14.2580 C   0  0  0  0  0  0  0  0  0  0  0  0
   11.6320  -43.4630   12.8480 C   0  0  0  0  0  0  0  0  0  0  0  0
   14.4080  -50.6780   13.3590 P   0  0  1  0  0  0  0  0  0  0  0  0
   14.6850  -51.2580   14.6940 O   0  0  0  0  0  1  0  0  0  0  0  0
   13.1210  -49.9630   13.2970 O   0  0  0  0  0  0  0  0  0  0  0  0
   14.6060  -51.6650   12.2560 O   0  0  0  0  0  0  0  0  0  0  0  0
   16.0540  -52.5150   12.2150 P   0  0  0  0  0  0  0  0  0  0  0  0
   15.7960  -54.1590   12.2780 O   0  0  0  0  0  1  0  0  0  0  0  0
   16.8360  -52.2090   10.7900 O   0  0  0  0  0  1  0  0  0  0  0  0
   17.0340  -52.0650   13.4740 O   0  0  0  0  0  0  0  0  0  0  0  0
   13.9258  -48.2312   12.6951 H   0  0  0  0  0  0  0  0  0  0  0  0
   15.1572  -48.4573   11.4070 H   0  0  0  0  0  0  0  0  0  0  0  0
   13.3756  -45.2196   14.1580 H   0  0  0  0  0  0  0  0  0  0  0  0
   13.2993  -47.0140   14.1914 H   0  0  0  0  0  0  0  0  0  0  0  0
   13.3351  -46.1456   12.6194 H   0  0  0  0  0  0  0  0  0  0  0  0
   17.0874  -45.4885   14.4818 H   0  0  0  0  0  0  0  0  0  0  0  0
   15.6126  -44.8342   15.2715 H   0  0  0  0  0  0  0  0  0  0  0  0
   16.2379  -43.9180   12.4433 H   0  0  0  0  0  0  0  0  0  0  0  0
   17.2211  -43.2652   13.7975 H   0  0  0  0  0  0  0  0  0  0  0  0
   14.2470  -43.2383   14.4638 H   0  0  0  0  0  0  0  0  0  0  0  0
   15.9759  -39.6886   12.8407 H   0  0  0  0  0  0  0  0  0  0  0  0
   16.4017  -41.2007   11.9695 H   0  0  0  0  0  0  0  0  0  0  0  0
   17.1361  -40.8494   13.5707 H   0  0  0  0  0  0  0  0  0  0  0  0
   14.1070  -39.6616   14.2725 H   0  0  0  0  0  0  0  0  0  0  0  0
   13.4688  -41.1454   15.0585 H   0  0  0  0  0  0  0  0  0  0  0  0
   12.8383  -41.3624   12.2965 H   0  0  0  0  0  0  0  0  0  0  0  0
   12.4646  -39.6719   12.7754 H   0  0  0  0  0  0  0  0  0  0  0  0
   10.6568  -40.4558   14.3153 H   0  0  0  0  0  0  0  0  0  0  0  0
    9.3106  -43.9305   14.0359 H   0  0  0  0  0  0  0  0  0  0  0  0
    8.6691  -42.2639   13.8424 H   0  0  0  0  0  0  0  0  0  0  0  0
    9.5349  -42.7239   15.3475 H   0  0  0  0  0  0  0  0  0  0  0  0
   12.5490  -42.9923   12.4638 H   0  0  0  0  0  0  0  0  0  0  0  0
   11.0341  -43.8421   12.0061 H   0  0  0  0  0  0  0  0  0  0  0  0
   11.8991  -44.2974   13.5131 H   0  0  0  0  0  0  0  0  0  0  0  0
  1  2  1  0  0  0  0
  1  3  1  0  0  0  0
  1 26  1  0  0  0  0
  1 27  1  0  0  0  0
  2 18  1  0  0  0  0
  3  4  1  0  0  0  0
  3  5  2  0  0  0  0
  5  6  1  0  0  0  0
  5  7  1  0  0  0  0
  6 28  1  0  0  0  0
  6 29  1  0  0  0  0
  6 30  1  0  0  0  0
  7  8  1  0  0  0  0
  7 31  1  0  0  0  0
  7 32  1  0  0  0  0
  8  9  1  0  0  0  0
  8 33  1  0  0  0  0
  8 34  1  0  0  0  0
  9 10  2  0  0  0  0
  9 35  1  0  0  0  0
 10 11  1  0  0  0  0
 10 12  1  0  0  0  0
 11 36  1  0  0  0  0
 11 37  1  0  0  0  0
 11 38  1  0  0  0  0
 12 13  1  0  0  0  0
 12 39  1  0  0  0  0
 12 40  1  0  0  0  0
 13 14  1  0  0  0  0
 13 41  1  0  0  0  0
 13 42  1  0  0  0  0
 14 15  2  0  0  0  0
 14 43  1  0  0  0  0
 15 16  1  0  0  0  0
 15 17  1  0  0  0  0
 16 44  1  0  0  0  0
 16 45  1  0  0  0  0
 16 46  1  0  0  0  0
 17 47  1  0  0  0  0
 17 48  1  0  0  0  0
 17 49  1  0  0  0  0
 18 19  1  1  0  0  0
 18 20  2  0  0  0  0
 18 21  1  0  0  0  0
 21 22  1  0  0  0  0
 22 23  1  0  0  0  0
 22 24  1  0  0  0  0
 22 25  2  0  0  0  0
M  END
