3g4k_ligand
 OpenBabel08222323343D

 41 43  0  0  1  0  0  0  0  0999 V2000
   21.1670   -2.8930   31.0380 C   0  0  0  0  0  0  0  0  0  0  0  0
   21.5800   -4.0560   31.6800 C   0  0  0  0  0  0  0  0  0  0  0  0
   22.0070   -4.0330   33.0190 C   0  0  0  0  0  0  0  0  0  0  0  0
   22.0030   -2.7630   33.7650 C   0  0  0  0  0  0  0  0  0  0  0  0
   21.5810   -1.6220   33.0910 C   0  0  0  0  0  0  0  0  0  0  0  0
   21.1710   -1.6880   31.7490 C   0  0  0  0  0  0  0  0  0  0  0  0
   20.7290   -3.0200   29.6160 C   0  0  1  0  0  0  0  0  0  0  0  0
   19.2980   -2.5240   29.3680 C   0  0  0  0  0  0  0  0  0  0  0  0
   19.3640   -1.8970   27.9890 C   0  0  0  0  0  0  0  0  0  0  0  0
   18.3800   -1.5490   27.3350 O   0  0  0  0  0  0  0  0  0  0  0  0
   20.6410   -1.7940   27.6220 N   0  0  0  0  0  0  0  0  0  0  0  0
   21.6000   -2.2700   28.6110 C   0  0  0  0  0  0  0  0  0  0  0  0
   22.4110   -5.1560   33.6860 O   0  0  0  0  0  0  0  0  0  0  0  0
   22.5040   -6.4230   33.0320 C   0  0  0  0  0  0  0  0  0  0  0  0
   21.1120   -7.0060   32.9320 C   0  0  0  0  0  0  0  0  0  0  0  0
   20.9030   -7.8180   34.1940 C   0  0  0  0  0  0  0  0  0  0  0  0
   22.2750   -8.0640   34.7910 C   0  0  0  0  0  0  0  0  0  0  0  0
   23.2920   -7.4120   33.8780 C   0  0  0  0  0  0  0  0  0  0  0  0
   22.4190   -2.7790   35.0820 O   0  0  0  0  0  0  0  0  0  0  0  0
   22.3180   -1.6500   35.9490 C   0  0  0  0  0  0  0  0  0  0  0  0
   21.5724   -4.9952   31.1388 H   0  0  0  0  0  0  0  0  0  0  0  0
   21.5683   -0.6693   33.6080 H   0  0  0  0  0  0  0  0  0  0  0  0
   20.8490   -0.7807   31.2508 H   0  0  0  0  0  0  0  0  0  0  0  0
   20.7705   -4.0915   29.3706 H   0  0  0  0  0  0  0  0  0  0  0  0
   19.0054   -1.7794   30.1229 H   0  0  0  0  0  0  0  0  0  0  0  0
   18.5851   -3.3616   29.3835 H   0  0  0  0  0  0  0  0  0  0  0  0
   20.9194   -1.4195   26.7375 H   0  0  0  0  0  0  0  0  0  0  0  0
   22.3386   -2.9429   28.1510 H   0  0  0  0  0  0  0  0  0  0  0  0
   22.1201   -1.4284   29.0918 H   0  0  0  0  0  0  0  0  0  0  0  0
   22.9620   -6.3060   32.0388 H   0  0  0  0  0  0  0  0  0  0  0  0
   21.0317   -7.6519   32.0452 H   0  0  0  0  0  0  0  0  0  0  0  0
   20.3650   -6.2011   32.8683 H   0  0  0  0  0  0  0  0  0  0  0  0
   20.4185   -8.7754   33.9520 H   0  0  0  0  0  0  0  0  0  0  0  0
   20.2761   -7.2589   34.9042 H   0  0  0  0  0  0  0  0  0  0  0  0
   22.4678   -9.1450   34.8566 H   0  0  0  0  0  0  0  0  0  0  0  0
   22.3327   -7.6196   35.7955 H   0  0  0  0  0  0  0  0  0  0  0  0
   24.0582   -6.8880   34.4682 H   0  0  0  0  0  0  0  0  0  0  0  0
   23.7739   -8.1663   33.2387 H   0  0  0  0  0  0  0  0  0  0  0  0
   22.7139   -1.9130   36.9410 H   0  0  0  0  0  0  0  0  0  0  0  0
   21.2631   -1.3525   36.0423 H   0  0  0  0  0  0  0  0  0  0  0  0
   22.8992   -0.8143   35.5321 H   0  0  0  0  0  0  0  0  0  0  0  0
  1  2  2  0  0  0  0
  1  6  1  0  0  0  0
  1  7  1  0  0  0  0
  2  3  1  0  0  0  0
  2 21  1  0  0  0  0
  3  4  2  0  0  0  0
  3 13  1  0  0  0  0
  4  5  1  0  0  0  0
  4 19  1  0  0  0  0
  5  6  2  0  0  0  0
  5 22  1  0  0  0  0
  6 23  1  0  0  0  0
  7  8  1  0  0  0  0
  7 12  1  0  0  0  0
  7 24  1  6  0  0  0
  8  9  1  0  0  0  0
  8 25  1  0  0  0  0
  8 26  1  0  0  0  0
  9 10  2  0  0  0  0
  9 11  1  0  0  0  0
 11 12  1  0  0  0  0
 11 27  1  0  0  0  0
 12 28  1  0  0  0  0
 12 29  1  0  0  0  0
 13 14  1  0  0  0  0
 14 15  1  0  0  0  0
 14 18  1  0  0  0  0
 14 30  1  0  0  0  0
 15 16  1  0  0  0  0
 15 31  1  0  0  0  0
 15 32  1  0  0  0  0
 16 17  1  0  0  0  0
 16 33  1  0  0  0  0
 16 34  1  0  0  0  0
 17 18  1  0  0  0  0
 17 35  1  0  0  0  0
 17 36  1  0  0  0  0
 18 37  1  0  0  0  0
 18 38  1  0  0  0  0
 19 20  1  0  0  0  0
 20 39  1  0  0  0  0
 20 40  1  0  0  0  0
 20 41  1  0  0  0  0
M  END
