3g5v_ligand
 OpenBabel08222323343D

227228  0  0  1  0  0  0  0  0999 V2000
   25.3480   17.9730  -10.4960 N   0  3  0  0  0  0  0  0  0  0  0  0
   25.4180   18.2020   -9.0220 C   0  0  2  0  0  0  0  0  0  0  0  0
   26.8240   17.9730   -8.4560 C   0  0  0  0  0  0  0  0  0  0  0  0
   27.6930   17.4190   -9.1310 O   0  0  0  0  0  0  0  0  0  0  0  0
   24.4050   17.3110   -8.2980 C   0  0  0  0  0  0  0  0  0  0  0  0
   24.5650   15.5470   -8.6520 S   0  0  0  0  0  0  0  0  0  0  0  0
   27.0280   18.3940   -7.2080 N   0  0  0  0  0  0  0  0  0  0  0  0
   28.3260   18.2770   -6.5510 C   0  0  0  0  0  0  0  0  0  0  0  0
   29.2660   19.3780   -6.9980 C   0  0  0  0  0  0  0  0  0  0  0  0
   28.8780   20.5470   -7.0460 O   0  0  0  0  0  0  0  0  0  0  0  0
   30.4970   19.0010   -7.3350 N   0  0  0  0  0  0  0  0  0  0  0  0
   31.5080   19.9510   -7.8060 C   0  0  2  0  0  0  0  0  0  0  0  0
   31.1410   20.5780   -9.1550 C   0  0  0  0  0  0  0  0  0  0  0  0
   31.4770   21.7330   -9.4220 O   0  0  0  0  0  0  0  0  0  0  0  0
   32.8720   19.2760   -7.8840 C   0  0  0  0  0  0  0  0  0  0  0  0
   30.4390   19.8120   -9.9870 N   0  0  0  0  0  0  0  0  0  0  0  0
   30.0850   20.2390  -11.3390 C   0  0  2  0  0  0  0  0  0  0  0  0
   28.5640   20.3480  -11.5130 C   0  0  0  0  0  0  0  0  0  0  0  0
   27.8150   20.3380  -10.5300 O   0  0  0  0  0  0  0  0  0  0  0  0
   30.6620   19.2400  -12.3520 C   0  0  0  0  0  0  0  0  0  0  0  0
   31.2850   19.9170  -13.5570 C   0  0  0  0  0  0  0  0  0  0  0  0
   31.7860   19.1930  -14.4440 O   0  5  0  0  0  0  0  0  0  0  0  0
   31.2910   21.1680  -13.6210 O   0  0  0  0  0  0  0  0  0  0  0  0
   28.1180   20.4600  -12.7650 N   0  0  0  0  0  0  0  0  0  0  0  0
   26.6910   20.4340  -13.0950 C   0  0  2  0  0  0  0  0  0  0  0  0
   26.2290   19.0580  -13.6070 C   0  0  0  0  0  0  0  0  0  0  0  0
   25.0410   18.8550  -13.8650 O   0  0  0  0  0  0  0  0  0  0  0  0
   26.3550   21.5230  -14.1150 C   0  0  0  0  0  0  0  0  0  0  0  0
   26.6400   22.8130  -13.6020 O   0  0  0  0  0  0  0  0  0  0  0  0
   27.1700   18.1210  -13.7370 N   0  0  0  0  0  0  0  0  0  0  0  0
   26.8800   16.7670  -14.2200 C   0  0  2  0  0  0  0  0  0  0  0  0
   26.2090   15.8820  -13.1710 C   0  0  0  0  0  0  0  0  0  0  0  0
   26.6860   15.7730  -12.0380 O   0  0  0  0  0  0  0  0  0  0  0  0
   28.1620   16.0720  -14.6880 C   0  0  0  0  0  0  0  0  0  0  0  0
   28.6970   16.5220  -16.0340 C   0  0  0  0  0  0  0  0  0  0  0  0
   28.0410   16.1830  -17.2220 C   0  0  0  0  0  0  0  0  0  0  0  0
   29.8770   17.2560  -16.1230 C   0  0  0  0  0  0  0  0  0  0  0  0
   28.5390   16.5860  -18.4590 C   0  0  0  0  0  0  0  0  0  0  0  0
   30.3840   17.6610  -17.3560 C   0  0  0  0  0  0  0  0  0  0  0  0
   29.7100   17.3220  -18.5170 C   0  0  0  0  0  0  0  0  0  0  0  0
   30.2090   17.7200  -19.7350 O   0  0  0  0  0  0  0  0  0  0  0  0
   25.1020   15.2570  -13.5630 N   0  0  0  0  0  0  0  0  0  0  0  0
   24.5090   14.1460  -12.8120 C   0  0  2  0  0  0  0  0  0  0  0  0
   24.5500   12.9270  -13.7370 C   0  0  0  0  0  0  0  0  0  0  0  0
   24.4960   13.0740  -14.9610 O   0  0  0  0  0  0  0  0  0  0  0  0
   23.0660   14.4540  -12.3820 C   0  0  0  0  0  0  0  0  0  0  0  0
   22.4650   13.4430  -11.3730 C   0  0  0  0  0  0  0  0  0  0  0  0
   20.9300   13.4820  -11.2820 C   0  0  0  0  0  0  0  0  0  0  0  0
   20.2680   13.8740  -12.2710 O   0  5  0  0  0  0  0  0  0  0  0  0
   20.3800   13.1080  -10.2190 O   0  0  0  0  0  0  0  0  0  0  0  0
   24.6640   11.7370  -13.1530 N   0  0  0  0  0  0  0  0  0  0  0  0
   24.7200   10.4880  -13.9190 C   0  0  2  0  0  0  0  0  0  0  0  0
   23.9080    9.3810  -13.2310 C   0  0  0  0  0  0  0  0  0  0  0  0
   23.5570    9.5180  -12.0540 O   0  0  0  0  0  0  0  0  0  0  0  0
   26.1940   10.1070  -14.1870 C   0  0  0  0  0  0  0  0  0  0  0  0
   26.6470    8.7010  -13.7940 C   0  0  0  0  0  0  0  0  0  0  0  0
   27.0850    8.5670  -12.0440 S   0  0  0  0  0  0  0  0  0  0  0  0
   28.5720    9.5730  -11.9960 C   0  0  0  0  0  0  0  0  0  0  0  0
   23.5630    8.3180  -13.9640 N   0  0  0  0  0  0  0  0  0  0  0  0
   22.9860    7.1270  -13.3150 C   0  0  2  0  0  0  0  0  0  0  0  0
   23.7680    5.8420  -13.5560 C   0  0  0  0  0  0  0  0  0  0  0  0
   24.3390    5.6250  -14.6220 O   0  0  0  0  0  0  0  0  0  0  0  0
   21.4690    6.9450  -13.5710 C   0  0  0  0  0  0  0  0  0  0  0  0
   21.0200    6.6230  -14.9880 C   0  0  0  0  0  0  0  0  0  0  0  0
   21.2100    5.1560  -15.4210 C   0  0  0  0  0  0  0  0  0  0  0  0
   21.2620    4.2290  -14.5790 O   0  5  0  0  0  0  0  0  0  0  0  0
   21.2960    4.9370  -16.6400 O   0  0  0  0  0  0  0  0  0  0  0  0
   23.7740    5.0050  -12.5280 N   0  0  0  0  0  0  0  0  0  0  0  0
   24.4350    3.7160  -12.5380 C   0  0  2  0  0  0  0  0  0  0  0  0
   23.4630    2.7150  -11.9250 C   0  0  0  0  0  0  0  0  0  0  0  0
   23.0170    2.9100  -10.7930 O   0  0  0  0  0  0  0  0  0  0  0  0
   25.7080    3.8070  -11.7040 C   0  0  0  0  0  0  0  0  0  0  0  0
   26.3840    2.4840  -11.4010 C   0  0  0  0  0  0  0  0  0  0  0  0
   27.7390    2.6730  -10.7450 C   0  0  0  0  0  0  0  0  0  0  0  0
   27.9680    3.7530  -10.1460 O   0  5  0  0  0  0  0  0  0  0  0  0
   28.5750    1.7430  -10.8380 O   0  0  0  0  0  0  0  0  0  0  0  0
   23.1310    1.6610  -12.6750 N   0  0  0  0  0  0  0  0  0  0  0  0
   22.1630    0.6470  -12.2260 C   0  0  2  0  0  0  0  0  0  0  0  0
   20.8640    1.2760  -11.7040 C   0  0  0  0  0  0  0  0  0  0  0  0
   20.2810    0.7910  -10.7260 O   0  0  0  0  0  0  0  0  0  0  0  0
   22.7740   -0.2330  -11.1250 C   0  0  0  0  0  0  0  0  0  0  0  0
   23.8170   -1.2060  -11.6440 C   0  0  0  0  0  0  0  0  0  0  0  0
   23.7020   -1.6930  -12.7960 O   0  5  0  0  0  0  0  0  0  0  0  0
   24.7560   -1.5010  -10.8710 O   0  0  0  0  0  0  0  0  0  0  0  0
   20.4290    2.3650  -12.3390 N   0  0  0  0  0  0  0  0  0  0  0  0
   19.2180    3.0800  -11.9300 C   0  0  0  0  0  0  0  0  0  0  0  0
   19.3530    3.9960  -10.7230 C   0  0  0  0  0  0  0  0  0  0  0  0
   18.3630    4.5700  -10.2590 O   0  0  0  0  0  0  0  0  0  0  0  0
   20.5720    4.1470  -10.2070 N   0  0  0  0  0  0  0  0  0  0  0  0
   20.7930    5.0650   -9.0950 C   0  0  2  0  0  0  0  0  0  0  0  0
   21.4960    6.3280   -9.5860 C   0  0  0  0  0  0  0  0  0  0  0  0
   22.5450    6.2560  -10.2220 O   0  0  0  0  0  0  0  0  0  0  0  0
   21.5700    4.4210   -7.9260 C   0  0  0  0  0  0  0  0  0  0  0  0
   21.6460    5.3780   -6.7450 C   0  0  0  0  0  0  0  0  0  0  0  0
   20.8940    3.1310   -7.4850 C   0  0  0  0  0  0  0  0  0  0  0  0
   20.8800    7.4670   -9.2870 N   0  0  0  0  0  0  0  0  0  0  0  0
   21.3770    8.7790   -9.6680 C   0  0  2  0  0  0  0  0  0  0  0  0
   22.5010    9.1590   -8.7270 C   0  0  0  0  0  0  0  0  0  0  0  0
   22.3900    8.9860   -7.5120 O   0  0  0  0  0  0  0  0  0  0  0  0
   20.2550    9.8230   -9.6150 C   0  0  0  0  0  0  0  0  0  0  0  0
   19.3840    9.8950  -10.8770 C   0  0  0  0  0  0  0  0  0  0  0  0
   18.6600    8.5870  -11.1340 C   0  0  0  0  0  0  0  0  0  0  0  0
   17.7290    8.6560  -12.2590 N   0  0  0  0  0  0  0  0  0  0  0  0
   17.0070    7.6290  -12.6960 C   0  0  0  0  0  3  0  0  0  0  0  0
   16.1850    7.7880  -13.7280 N   0  0  0  0  0  0  0  0  0  0  0  0
   17.1080    6.4420  -12.1110 N   0  0  0  0  0  0  0  0  0  0  0  0
   23.5880    9.6520   -9.3030 N   0  0  0  0  0  0  0  0  0  0  0  0
   24.7790   10.0190   -8.5520 C   0  0  2  0  0  0  0  0  0  0  0  0
   25.4140   11.2820   -9.1320 C   0  0  0  0  0  0  0  0  0  0  0  0
   25.1950   11.6280  -10.2960 O   0  0  0  0  0  0  0  0  0  0  0  0
   25.7910    8.8640   -8.5400 C   0  0  0  0  0  0  0  0  0  0  0  0
   25.2210    7.5290   -8.0360 C   0  0  0  0  0  0  0  0  0  0  0  0
   26.2620    6.4190   -8.0330 C   0  0  0  0  0  0  0  0  0  0  0  0
   25.5850    5.0670   -7.8540 C   0  0  0  0  0  0  0  0  0  0  0  0
   26.5690    3.9360   -7.8440 N   0  3  0  0  0  0  0  0  0  0  0  0
   26.1910   11.9700   -8.3040 N   0  0  0  0  0  0  0  0  0  0  0  0
   26.9280   13.1500   -8.7350 C   0  0  2  0  0  0  0  0  0  0  0  0
   28.3110   12.7400   -9.2180 C   0  0  0  0  0  0  0  0  0  0  0  0
   28.9990   11.9340   -8.5890 O   0  5  0  0  0  0  0  0  0  0  0  0
   27.0420   14.1660   -7.5970 C   0  0  0  0  0  0  0  0  0  0  0  0
   25.4620   14.7920   -6.9850 S   0  0  0  0  0  0  0  0  0  0  0  0
   28.7630   13.2070  -10.2570 O   0  0  0  0  0  0  0  0  0  0  0  0
   24.4065   18.1360  -10.8170 H   0  0  0  0  0  0  0  0  0  0  0  0
   25.6131   17.0224  -10.7013 H   0  0  0  0  0  0  0  0  0  0  0  0
   25.9770   18.6060  -10.9647 H   0  0  0  0  0  0  0  0  0  0  0  0
   25.1482   19.2516   -8.8334 H   0  0  0  0  0  0  0  0  0  0  0  0
   23.3947   17.6298   -8.5941 H   0  0  0  0  0  0  0  0  0  0  0  0
   24.5328   17.4563   -7.2152 H   0  0  0  0  0  0  0  0  0  0  0  0
   26.2667   18.8035   -6.7053 H   0  0  0  0  0  0  0  0  0  0  0  0
   28.7693   17.3023   -6.8027 H   0  0  0  0  0  0  0  0  0  0  0  0
   28.1849   18.3455   -5.4623 H   0  0  0  0  0  0  0  0  0  0  0  0
   30.7409   18.0338   -7.2641 H   0  0  0  0  0  0  0  0  0  0  0  0
   31.5717   20.7638   -7.0676 H   0  0  0  0  0  0  0  0  0  0  0  0
   33.6199   20.0005   -8.2386 H   0  0  0  0  0  0  0  0  0  0  0  0
   32.8222   18.4284   -8.5834 H   0  0  0  0  0  0  0  0  0  0  0  0
   33.1585   18.9119   -6.8864 H   0  0  0  0  0  0  0  0  0  0  0  0
   30.1424   18.9095   -9.6748 H   0  0  0  0  0  0  0  0  0  0  0  0
   30.5284   21.2288  -11.5225 H   0  0  0  0  0  0  0  0  0  0  0  0
   29.8506   18.5831  -12.6987 H   0  0  0  0  0  0  0  0  0  0  0  0
   31.4331   18.6369  -11.8504 H   0  0  0  0  0  0  0  0  0  0  0  0
   28.7819   20.5656  -13.5053 H   0  0  0  0  0  0  0  0  0  0  0  0
   26.1330   20.6497  -12.1719 H   0  0  0  0  0  0  0  0  0  0  0  0
   25.2849   21.4642  -14.3630 H   0  0  0  0  0  0  0  0  0  0  0  0
   26.9517   21.3590  -15.0244 H   0  0  0  0  0  0  0  0  0  0  0  0
   26.4222   23.4675  -14.2551 H   0  0  0  0  0  0  0  0  0  0  0  0
   28.1124   18.3517  -13.4949 H   0  0  0  0  0  0  0  0  0  0  0  0
   26.1971   16.8583  -15.0775 H   0  0  0  0  0  0  0  0  0  0  0  0
   27.9593   14.9925  -14.7481 H   0  0  0  0  0  0  0  0  0  0  0  0
   28.9419   16.2573  -13.9347 H   0  0  0  0  0  0  0  0  0  0  0  0
   27.1300   15.5970  -17.1794 H   0  0  0  0  0  0  0  0  0  0  0  0
   30.4109   17.5171  -15.2164 H   0  0  0  0  0  0  0  0  0  0  0  0
   28.0130   16.3250  -19.3702 H   0  0  0  0  0  0  0  0  0  0  0  0
   31.3004   18.2379  -17.4060 H   0  0  0  0  0  0  0  0  0  0  0  0
   29.6361   17.4110  -20.4269 H   0  0  0  0  0  0  0  0  0  0  0  0
   24.6553   15.5577  -14.4057 H   0  0  0  0  0  0  0  0  0  0  0  0
   25.1099   13.9492  -11.9119 H   0  0  0  0  0  0  0  0  0  0  0  0
   22.4332   14.4584  -13.2817 H   0  0  0  0  0  0  0  0  0  0  0  0
   23.0514   15.4515  -11.9185 H   0  0  0  0  0  0  0  0  0  0  0  0
   22.8756   13.6640  -10.3767 H   0  0  0  0  0  0  0  0  0  0  0  0
   22.7671   12.4301  -11.6777 H   0  0  0  0  0  0  0  0  0  0  0  0
   24.7133   11.6928  -12.1552 H   0  0  0  0  0  0  0  0  0  0  0  0
   24.2485   10.6717  -14.8957 H   0  0  0  0  0  0  0  0  0  0  0  0
   26.8234   10.8210  -13.6357 H   0  0  0  0  0  0  0  0  0  0  0  0
   26.3714   10.2195  -15.2668 H   0  0  0  0  0  0  0  0  0  0  0  0
   27.5270    8.4340  -14.3976 H   0  0  0  0  0  0  0  0  0  0  0  0
   25.8293    7.9965  -14.0062 H   0  0  0  0  0  0  0  0  0  0  0  0
   28.9696    9.5909  -10.9705 H   0  0  0  0  0  0  0  0  0  0  0  0
   28.3316   10.5982  -12.3140 H   0  0  0  0  0  0  0  0  0  0  0  0
   29.3256    9.1460  -12.6740 H   0  0  0  0  0  0  0  0  0  0  0  0
   23.6966    8.3307  -14.9550 H   0  0  0  0  0  0  0  0  0  0  0  0
   23.0764    7.3217  -12.2362 H   0  0  0  0  0  0  0  0  0  0  0  0
   20.9722    7.8806  -13.2746 H   0  0  0  0  0  0  0  0  0  0  0  0
   21.1236    6.1254  -12.9238 H   0  0  0  0  0  0  0  0  0  0  0  0
   21.5934    7.2584  -15.6790 H   0  0  0  0  0  0  0  0  0  0  0  0
   19.9501    6.8655  -15.0690 H   0  0  0  0  0  0  0  0  0  0  0  0
   23.2932    5.2800  -11.6954 H   0  0  0  0  0  0  0  0  0  0  0  0
   24.6854    3.4195  -13.5673 H   0  0  0  0  0  0  0  0  0  0  0  0
   25.4528    4.2846  -10.7465 H   0  0  0  0  0  0  0  0  0  0  0  0
   26.4260    4.4378  -12.2486 H   0  0  0  0  0  0  0  0  0  0  0  0
   26.5196    1.9311  -12.3422 H   0  0  0  0  0  0  0  0  0  0  0  0
   25.7401    1.9034  -10.7241 H   0  0  0  0  0  0  0  0  0  0  0  0
   23.5555    1.5569  -13.5744 H   0  0  0  0  0  0  0  0  0  0  0  0
   21.9153    0.0093  -13.0873 H   0  0  0  0  0  0  0  0  0  0  0  0
   21.9661   -0.8082  -10.6492 H   0  0  0  0  0  0  0  0  0  0  0  0
   23.2477    0.4209  -10.3780 H   0  0  0  0  0  0  0  0  0  0  0  0
   20.9484    2.7057  -13.1227 H   0  0  0  0  0  0  0  0  0  0  0  0
   18.4480    2.3298  -11.6972 H   0  0  0  0  0  0  0  0  0  0  0  0
   18.8870    3.6933  -12.7811 H   0  0  0  0  0  0  0  0  0  0  0  0
   21.3394    3.6284  -10.5839 H   0  0  0  0  0  0  0  0  0  0  0  0
   19.8056    5.3578   -8.7087 H   0  0  0  0  0  0  0  0  0  0  0  0
   22.5908    4.1911   -8.2653 H   0  0  0  0  0  0  0  0  0  0  0  0
   22.2020    4.9029   -5.9233 H   0  0  0  0  0  0  0  0  0  0  0  0
   20.6288    5.6232   -6.4057 H   0  0  0  0  0  0  0  0  0  0  0  0
   22.1622    6.2995   -7.0523 H   0  0  0  0  0  0  0  0  0  0  0  0
   20.8375    2.4370   -8.3366 H   0  0  0  0  0  0  0  0  0  0  0  0
   19.8785    3.3535   -7.1254 H   0  0  0  0  0  0  0  0  0  0  0  0
   21.4773    2.6699   -6.6743 H   0  0  0  0  0  0  0  0  0  0  0  0
   20.0253    7.4188   -8.7701 H   0  0  0  0  0  0  0  0  0  0  0  0
   21.7667    8.7320  -10.6956 H   0  0  0  0  0  0  0  0  0  0  0  0
   20.7134   10.8106   -9.4586 H   0  0  0  0  0  0  0  0  0  0  0  0
   19.6031    9.5821   -8.7624 H   0  0  0  0  0  0  0  0  0  0  0  0
   20.0259   10.1228  -11.7407 H   0  0  0  0  0  0  0  0  0  0  0  0
   18.6401   10.6956  -10.7516 H   0  0  0  0  0  0  0  0  0  0  0  0
   18.0959    8.3159  -10.2294 H   0  0  0  0  0  0  0  0  0  0  0  0
   19.4081    7.8091  -11.3465 H   0  0  0  0  0  0  0  0  0  0  0  0
   17.6258    9.5586  -12.7443 H   0  0  0  0  0  0  0  0  0  0  0  0
   15.6250    6.9930  -14.0676 H   0  0  0  0  0  0  0  0  0  0  0  0
   16.1079    8.7062  -14.1883 H   0  0  0  0  0  0  0  0  0  0  0  0
   17.7440    6.3146  -11.3109 H   0  0  0  0  0  0  0  0  0  0  0  0
   16.5504    5.6481  -12.4571 H   0  0  0  0  0  0  0  0  0  0  0  0
   23.5897    9.7770  -10.2952 H   0  0  0  0  0  0  0  0  0  0  0  0
   24.4812   10.2277   -7.5138 H   0  0  0  0  0  0  0  0  0  0  0  0
   26.6303    9.1481   -7.8883 H   0  0  0  0  0  0  0  0  0  0  0  0
   26.1575    8.7164   -9.5666 H   0  0  0  0  0  0  0  0  0  0  0  0
   24.3883    7.2308   -8.6900 H   0  0  0  0  0  0  0  0  0  0  0  0
   24.8497    7.6681   -7.0099 H   0  0  0  0  0  0  0  0  0  0  0  0
   26.9680    6.5846   -7.2059 H   0  0  0  0  0  0  0  0  0  0  0  0
   26.8073    6.4291   -8.9882 H   0  0  0  0  0  0  0  0  0  0  0  0
   24.8774    4.9131   -8.6820 H   0  0  0  0  0  0  0  0  0  0  0  0
   25.0380    5.0686   -6.8996 H   0  0  0  0  0  0  0  0  0  0  0  0
   26.0776    3.0642   -7.7236 H   0  0  0  0  0  0  0  0  0  0  0  0
   27.2191    4.0629   -7.0842 H   0  0  0  0  0  0  0  0  0  0  0  0
   27.0719    3.9204   -8.7174 H   0  0  0  0  0  0  0  0  0  0  0  0
   26.2728   11.6684   -7.3541 H   0  0  0  0  0  0  0  0  0  0  0  0
   26.3859   13.6188   -9.5695 H   0  0  0  0  0  0  0  0  0  0  0  0
   27.6326   15.0207   -7.9583 H   0  0  0  0  0  0  0  0  0  0  0  0
   27.5678   13.6849   -6.7592 H   0  0  0  0  0  0  0  0  0  0  0  0
  1  2  1  0  0  0  0
  1123  1  0  0  0  0
  1124  1  0  0  0  0
  1125  1  0  0  0  0
  2  3  1  0  0  0  0
  2  5  1  0  0  0  0
  2126  1  1  0  0  0
  3  4  2  0  0  0  0
  3  7  1  0  0  0  0
  5  6  1  0  0  0  0
  5127  1  0  0  0  0
  5128  1  0  0  0  0
  6121  1  0  0  0  0
  7  8  1  0  0  0  0
  7129  1  0  0  0  0
  8  9  1  0  0  0  0
  8130  1  0  0  0  0
  8131  1  0  0  0  0
  9 10  2  0  0  0  0
  9 11  1  0  0  0  0
 11 12  1  0  0  0  0
 11132  1  0  0  0  0
 12 13  1  0  0  0  0
 12 15  1  0  0  0  0
 12133  1  1  0  0  0
 13 14  2  0  0  0  0
 13 16  1  0  0  0  0
 15134  1  0  0  0  0
 15135  1  0  0  0  0
 15136  1  0  0  0  0
 16 17  1  0  0  0  0
 16137  1  0  0  0  0
 17 18  1  0  0  0  0
 17 20  1  0  0  0  0
 17138  1  6  0  0  0
 18 19  2  0  0  0  0
 18 24  1  0  0  0  0
 20 21  1  0  0  0  0
 20139  1  0  0  0  0
 20140  1  0  0  0  0
 21 22  1  0  0  0  0
 21 23  2  0  0  0  0
 24 25  1  0  0  0  0
 24141  1  0  0  0  0
 25 26  1  0  0  0  0
 25 28  1  0  0  0  0
 25142  1  1  0  0  0
 26 27  2  0  0  0  0
 26 30  1  0  0  0  0
 28 29  1  0  0  0  0
 28143  1  0  0  0  0
 28144  1  0  0  0  0
 29145  1  0  0  0  0
 30 31  1  0  0  0  0
 30146  1  0  0  0  0
 31 32  1  0  0  0  0
 31 34  1  0  0  0  0
 31147  1  6  0  0  0
 32 33  2  0  0  0  0
 32 42  1  0  0  0  0
 34 35  1  0  0  0  0
 34148  1  0  0  0  0
 34149  1  0  0  0  0
 35 36  2  0  0  0  0
 35 37  1  0  0  0  0
 36 38  1  0  0  0  0
 36150  1  0  0  0  0
 37 39  2  0  0  0  0
 37151  1  0  0  0  0
 38 40  2  0  0  0  0
 38152  1  0  0  0  0
 39 40  1  0  0  0  0
 39153  1  0  0  0  0
 40 41  1  0  0  0  0
 41154  1  0  0  0  0
 42 43  1  0  0  0  0
 42155  1  0  0  0  0
 43 44  1  0  0  0  0
 43 46  1  0  0  0  0
 43156  1  1  0  0  0
 44 45  2  0  0  0  0
 44 51  1  0  0  0  0
 46 47  1  0  0  0  0
 46157  1  0  0  0  0
 46158  1  0  0  0  0
 47 48  1  0  0  0  0
 47159  1  0  0  0  0
 47160  1  0  0  0  0
 48 49  1  0  0  0  0
 48 50  2  0  0  0  0
 51 52  1  0  0  0  0
 51161  1  0  0  0  0
 52 53  1  0  0  0  0
 52 55  1  0  0  0  0
 52162  1  6  0  0  0
 53 54  2  0  0  0  0
 53 59  1  0  0  0  0
 55 56  1  0  0  0  0
 55163  1  0  0  0  0
 55164  1  0  0  0  0
 56 57  1  0  0  0  0
 56165  1  0  0  0  0
 56166  1  0  0  0  0
 57 58  1  0  0  0  0
 58167  1  0  0  0  0
 58168  1  0  0  0  0
 58169  1  0  0  0  0
 59 60  1  0  0  0  0
 59170  1  0  0  0  0
 60 61  1  0  0  0  0
 60 63  1  0  0  0  0
 60171  1  1  0  0  0
 61 62  2  0  0  0  0
 61 68  1  0  0  0  0
 63 64  1  0  0  0  0
 63172  1  0  0  0  0
 63173  1  0  0  0  0
 64 65  1  0  0  0  0
 64174  1  0  0  0  0
 64175  1  0  0  0  0
 65 66  1  0  0  0  0
 65 67  2  0  0  0  0
 68 69  1  0  0  0  0
 68176  1  0  0  0  0
 69 70  1  0  0  0  0
 69 72  1  0  0  0  0
 69177  1  6  0  0  0
 70 71  2  0  0  0  0
 70 77  1  0  0  0  0
 72 73  1  0  0  0  0
 72178  1  0  0  0  0
 72179  1  0  0  0  0
 73 74  1  0  0  0  0
 73180  1  0  0  0  0
 73181  1  0  0  0  0
 74 75  1  0  0  0  0
 74 76  2  0  0  0  0
 77 78  1  0  0  0  0
 77182  1  0  0  0  0
 78 79  1  0  0  0  0
 78 81  1  0  0  0  0
 78183  1  6  0  0  0
 79 80  2  0  0  0  0
 79 85  1  0  0  0  0
 81 82  1  0  0  0  0
 81184  1  0  0  0  0
 81185  1  0  0  0  0
 82 83  1  0  0  0  0
 82 84  2  0  0  0  0
 85 86  1  0  0  0  0
 85186  1  0  0  0  0
 86 87  1  0  0  0  0
 86187  1  0  0  0  0
 86188  1  0  0  0  0
 87 88  2  0  0  0  0
 87 89  1  0  0  0  0
 89 90  1  0  0  0  0
 89189  1  0  0  0  0
 90 91  1  0  0  0  0
 90 93  1  0  0  0  0
 90190  1  1  0  0  0
 91 92  2  0  0  0  0
 91 96  1  0  0  0  0
 93 94  1  0  0  0  0
 93 95  1  0  0  0  0
 93191  1  0  0  0  0
 94192  1  0  0  0  0
 94193  1  0  0  0  0
 94194  1  0  0  0  0
 95195  1  0  0  0  0
 95196  1  0  0  0  0
 95197  1  0  0  0  0
 96 97  1  0  0  0  0
 96198  1  0  0  0  0
 97 98  1  0  0  0  0
 97100  1  0  0  0  0
 97199  1  6  0  0  0
 98 99  2  0  0  0  0
 98107  1  0  0  0  0
100101  1  0  0  0  0
100200  1  0  0  0  0
100201  1  0  0  0  0
101102  1  0  0  0  0
101202  1  0  0  0  0
101203  1  0  0  0  0
102103  1  0  0  0  0
102204  1  0  0  0  0
102205  1  0  0  0  0
103104  1  0  0  0  0
103206  1  0  0  0  0
104105  1  0  0  0  0
104106  1  0  0  0  0
105207  1  0  0  0  0
105208  1  0  0  0  0
106209  1  0  0  0  0
106210  1  0  0  0  0
107108  1  0  0  0  0
107211  1  0  0  0  0
108109  1  0  0  0  0
108111  1  0  0  0  0
108212  1  1  0  0  0
109110  2  0  0  0  0
109116  1  0  0  0  0
111112  1  0  0  0  0
111213  1  0  0  0  0
111214  1  0  0  0  0
112113  1  0  0  0  0
112215  1  0  0  0  0
112216  1  0  0  0  0
113114  1  0  0  0  0
113217  1  0  0  0  0
113218  1  0  0  0  0
114115  1  0  0  0  0
114219  1  0  0  0  0
114220  1  0  0  0  0
115221  1  0  0  0  0
115222  1  0  0  0  0
115223  1  0  0  0  0
116117  1  0  0  0  0
116224  1  0  0  0  0
117118  1  0  0  0  0
117120  1  0  0  0  0
117225  1  6  0  0  0
118119  1  0  0  0  0
118122  2  0  0  0  0
120121  1  0  0  0  0
120226  1  0  0  0  0
120227  1  0  0  0  0
M  CHG  8   1   1  22  -1  49  -1  66  -1  75  -1  83  -1 115   1 119  -1
M  END
