3g6h_ligand
 OpenBabel08222323343D

 74 78  0  0  0  0  0  0  0  0999 V2000
   -5.1300  -39.2600  -27.4970 C   0  0  0  0  0  0  0  0  0  0  0  0
   -3.9640  -40.0300  -27.1470 O   0  0  0  0  0  0  0  0  0  0  0  0
   -2.7750  -39.5030  -27.5970 C   0  0  0  0  0  0  0  0  0  0  0  0
   -2.7560  -38.3830  -28.4490 C   0  0  0  0  0  0  0  0  0  0  0  0
   -1.5710  -40.1080  -27.1790 C   0  0  0  0  0  0  0  0  0  0  0  0
   -1.6250  -41.1880  -26.3340 O   0  0  0  0  0  0  0  0  0  0  0  0
   -2.1110  -40.8130  -24.9710 C   0  0  0  0  0  0  0  0  0  0  0  0
   -0.3410  -39.5860  -27.6070 C   0  0  0  0  0  0  0  0  0  0  0  0
    0.8930  -40.1230  -27.2520 O   0  0  0  0  0  0  0  0  0  0  0  0
    1.1580  -40.6590  -25.9040 C   0  0  0  0  0  0  0  0  0  0  0  0
   -0.3600  -38.4700  -28.4680 C   0  0  0  0  0  0  0  0  0  0  0  0
   -1.5450  -37.8480  -28.8950 C   0  0  0  0  0  0  0  0  0  0  0  0
   -1.4840  -36.7870  -29.7370 N   0  0  0  0  0  0  0  0  0  0  0  0
   -2.5120  -36.2160  -30.4050 C   0  0  0  0  0  0  0  0  0  0  0  0
   -3.7360  -36.7930  -30.5080 N   0  0  0  0  0  0  0  0  0  0  0  0
   -2.3320  -35.0230  -30.9900 N   0  0  0  0  0  0  0  0  0  0  0  0
   -3.3290  -34.4200  -31.6350 C   0  0  0  0  0  0  0  0  0  0  0  0
   -4.5330  -34.9850  -31.7420 N   0  0  0  0  0  0  0  0  0  0  0  0
   -4.7620  -36.2010  -31.1790 C   0  0  0  0  0  0  0  0  0  0  0  0
   -6.0230  -36.8520  -31.2220 C   0  0  0  0  0  0  0  0  0  0  0  0
   -6.1370  -38.0650  -30.5390 C   0  0  0  0  0  0  0  0  0  0  0  0
   -7.3480  -38.7710  -30.5160 C   0  0  0  0  0  0  0  0  0  0  0  0
   -8.4580  -38.2390  -31.1750 C   0  0  0  0  0  0  0  0  0  0  0  0
   -8.3440  -37.0790  -31.8150 N   0  0  0  0  0  0  0  0  0  0  0  0
   -7.1920  -36.3630  -31.8650 C   0  0  0  0  0  0  0  0  0  0  0  0
   -7.2260  -35.1950  -32.5410 N   0  0  0  0  0  0  0  0  0  0  0  0
   -8.3060  -34.8060  -33.2840 C   0  0  0  0  0  0  0  0  0  0  0  0
   -9.2640  -33.8950  -32.7680 C   0  0  0  0  0  0  0  0  0  0  0  0
   -8.4820  -35.2910  -34.5980 C   0  0  0  0  0  0  0  0  0  0  0  0
   -7.5090  -36.2760  -35.2740 C   0  0  0  0  0  0  0  0  0  0  0  0
   -9.5730  -34.8750  -35.3490 C   0  0  0  0  0  0  0  0  0  0  0  0
  -10.5120  -33.9960  -34.8270 C   0  0  0  0  0  0  0  0  0  0  0  0
  -10.3850  -33.4980  -33.5390 C   0  0  0  0  0  0  0  0  0  0  0  0
  -11.3450  -32.6300  -33.1780 N   0  0  0  0  0  0  0  0  0  0  0  0
  -11.4990  -31.9970  -32.0140 C   0  0  0  0  0  0  0  0  0  0  0  0
  -10.8300  -32.2120  -31.0110 O   0  0  0  0  0  0  0  0  0  0  0  0
  -12.6630  -30.9910  -31.9410 C   0  0  0  0  0  0  0  0  0  0  0  0
  -12.5520  -29.8780  -31.1070 C   0  0  0  0  0  0  0  0  0  0  0  0
  -13.8260  -31.1640  -32.6870 C   0  0  0  0  0  0  0  0  0  0  0  0
  -14.8650  -30.2310  -32.5970 C   0  0  0  0  0  0  0  0  0  0  0  0
  -14.7420  -29.1290  -31.7510 C   0  0  0  0  0  0  0  0  0  0  0  0
  -13.5840  -28.9470  -30.9990 C   0  0  0  0  0  0  0  0  0  0  0  0
  -13.4240  -27.7320  -30.0530 C   0  0  0  0  0  0  0  0  0  0  0  0
  -13.4520  -28.1260  -28.7880 F   0  0  0  0  0  0  0  0  0  0  0  0
  -14.4160  -26.8710  -30.1790 F   0  0  0  0  0  0  0  0  0  0  0  0
  -12.2680  -27.1190  -30.3070 F   0  0  0  0  0  0  0  0  0  0  0  0
   -6.0286  -39.7536  -27.0983 H   0  0  0  0  0  0  0  0  0  0  0  0
   -5.2067  -39.1878  -28.5919 H   0  0  0  0  0  0  0  0  0  0  0  0
   -5.0453  -38.2507  -27.0680 H   0  0  0  0  0  0  0  0  0  0  0  0
   -3.6902  -37.9310  -28.7622 H   0  0  0  0  0  0  0  0  0  0  0  0
   -2.1371  -41.7080  -24.3320 H   0  0  0  0  0  0  0  0  0  0  0  0
   -3.1223  -40.3869  -25.0466 H   0  0  0  0  0  0  0  0  0  0  0  0
   -1.4312  -40.0683  -24.5313 H   0  0  0  0  0  0  0  0  0  0  0  0
    2.1931  -41.0278  -25.8530 H   0  0  0  0  0  0  0  0  0  0  0  0
    0.4634  -41.4860  -25.6951 H   0  0  0  0  0  0  0  0  0  0  0  0
    1.0153  -39.8631  -25.1583 H   0  0  0  0  0  0  0  0  0  0  0  0
    0.5859  -38.0724  -28.8176 H   0  0  0  0  0  0  0  0  0  0  0  0
   -0.5535  -36.3705  -29.8839 H   0  0  0  0  0  0  0  0  0  0  0  0
   -3.1584  -33.4479  -32.0833 H   0  0  0  0  0  0  0  0  0  0  0  0
   -5.2753  -38.4670  -30.0184 H   0  0  0  0  0  0  0  0  0  0  0  0
   -7.4216  -39.7178  -29.9933 H   0  0  0  0  0  0  0  0  0  0  0  0
   -9.4046  -38.7671  -31.1650 H   0  0  0  0  0  0  0  0  0  0  0  0
   -6.4066  -34.5726  -32.4953 H   0  0  0  0  0  0  0  0  0  0  0  0
   -9.1363  -33.4964  -31.7681 H   0  0  0  0  0  0  0  0  0  0  0  0
   -7.8627  -36.5010  -36.2910 H   0  0  0  0  0  0  0  0  0  0  0  0
   -7.4624  -37.2057  -34.6880 H   0  0  0  0  0  0  0  0  0  0  0  0
   -6.5073  -35.8245  -35.3257 H   0  0  0  0  0  0  0  0  0  0  0  0
   -9.6938  -35.2433  -36.3614 H   0  0  0  0  0  0  0  0  0  0  0  0
  -11.3571  -33.6944  -35.4352 H   0  0  0  0  0  0  0  0  0  0  0  0
  -12.0353  -32.4324  -33.8740 H   0  0  0  0  0  0  0  0  0  0  0  0
  -11.6448  -29.7343  -30.5313 H   0  0  0  0  0  0  0  0  0  0  0  0
  -13.9268  -32.0239  -33.3393 H   0  0  0  0  0  0  0  0  0  0  0  0
  -15.7658  -30.3648  -33.1850 H   0  0  0  0  0  0  0  0  0  0  0  0
  -15.5511  -28.4112  -31.6785 H   0  0  0  0  0  0  0  0  0  0  0  0
  1  2  1  0  0  0  0
  1 47  1  0  0  0  0
  1 48  1  0  0  0  0
  1 49  1  0  0  0  0
  2  3  1  0  0  0  0
  3  4  2  0  0  0  0
  3  5  1  0  0  0  0
  4 12  1  0  0  0  0
  4 50  1  0  0  0  0
  5  6  1  0  0  0  0
  5  8  2  0  0  0  0
  6  7  1  0  0  0  0
  7 51  1  0  0  0  0
  7 52  1  0  0  0  0
  7 53  1  0  0  0  0
  8  9  1  0  0  0  0
  8 11  1  0  0  0  0
  9 10  1  0  0  0  0
 10 54  1  0  0  0  0
 10 55  1  0  0  0  0
 10 56  1  0  0  0  0
 11 12  2  0  0  0  0
 11 57  1  0  0  0  0
 12 13  1  0  0  0  0
 13 14  1  0  0  0  0
 13 58  1  0  0  0  0
 14 15  2  0  0  0  0
 14 16  1  0  0  0  0
 15 19  1  0  0  0  0
 16 17  2  0  0  0  0
 17 18  1  0  0  0  0
 17 59  1  0  0  0  0
 18 19  2  0  0  0  0
 19 20  1  0  0  0  0
 20 21  2  0  0  0  0
 20 25  1  0  0  0  0
 21 22  1  0  0  0  0
 21 60  1  0  0  0  0
 22 23  2  0  0  0  0
 22 61  1  0  0  0  0
 23 24  1  0  0  0  0
 23 62  1  0  0  0  0
 24 25  2  0  0  0  0
 25 26  1  0  0  0  0
 26 27  1  0  0  0  0
 26 63  1  0  0  0  0
 27 28  2  0  0  0  0
 27 29  1  0  0  0  0
 28 33  1  0  0  0  0
 28 64  1  0  0  0  0
 29 30  1  0  0  0  0
 29 31  2  0  0  0  0
 30 65  1  0  0  0  0
 30 66  1  0  0  0  0
 30 67  1  0  0  0  0
 31 32  1  0  0  0  0
 31 68  1  0  0  0  0
 32 33  2  0  0  0  0
 32 69  1  0  0  0  0
 33 34  1  0  0  0  0
 34 35  1  0  0  0  0
 34 70  1  0  0  0  0
 35 36  2  0  0  0  0
 35 37  1  0  0  0  0
 37 38  2  0  0  0  0
 37 39  1  0  0  0  0
 38 42  1  0  0  0  0
 38 71  1  0  0  0  0
 39 40  2  0  0  0  0
 39 72  1  0  0  0  0
 40 41  1  0  0  0  0
 40 73  1  0  0  0  0
 41 42  2  0  0  0  0
 41 74  1  0  0  0  0
 42 43  1  0  0  0  0
 43 44  1  0  0  0  0
 43 45  1  0  0  0  0
 43 46  1  0  0  0  0
M  END
