3g70_ligand
 OpenBabel08222323343D

 75 80  0  0  1  0  0  0  0  0999 V2000
   -2.3890    5.6060    3.9480 Cl  0  0  0  0  0  0  0  0  0  0  0  0
   -0.6840    5.6200    4.4970 C   0  0  0  0  0  0  0  0  0  0  0  0
    0.3190    5.4440    3.5600 C   0  0  0  0  0  0  0  0  0  0  0  0
   -0.1150    5.1910    1.8440 Cl  0  0  0  0  0  0  0  0  0  0  0  0
   -0.3540    5.8280    5.8400 C   0  0  0  0  0  0  0  0  0  0  0  0
    0.9810    5.8310    6.2450 C   0  0  0  0  0  0  0  0  0  0  0  0
    1.9830    5.6330    5.2910 C   0  0  0  0  0  0  0  0  0  0  0  0
    1.6550    5.4450    3.9530 C   0  0  0  0  0  0  0  0  0  0  0  0
    2.6910    5.2330    2.8780 C   0  0  0  0  0  0  0  0  0  0  0  0
    4.0510    5.6960    3.1270 N   0  0  0  0  0  0  0  0  0  0  0  0
    4.2690    7.0630    2.5970 C   0  0  0  0  0  0  0  0  0  0  0  0
    3.4040    8.0690    3.3630 C   0  0  0  0  0  0  0  0  0  0  0  0
    4.8810    7.9540    3.6740 C   0  0  0  0  0  0  0  0  0  0  0  0
    4.9680    4.8770    3.6990 C   0  0  0  0  0  0  0  0  0  0  0  0
    4.6410    3.7320    4.0830 O   0  0  0  0  0  0  0  0  0  0  0  0
    6.3890    5.2640    3.9070 C   0  0  0  0  0  0  0  0  0  0  0  0
    6.8960    5.2820    5.3310 C   0  0  2  0  0  0  0  0  0  0  0  0
    8.0530    6.1670    5.4800 N   0  3  0  0  0  0  0  0  0  0  0  0
    9.1410    5.7470    4.6250 C   0  0  2  0  0  0  0  0  0  0  0  0
    8.7220    5.8900    3.1520 C   0  0  0  0  0  0  0  0  0  0  0  0
    7.2750    3.8680    5.7810 C   0  0  0  0  0  0  0  0  0  0  0  0
    8.3870    3.3880    4.9600 N   0  3  0  0  0  0  0  0  0  0  0  0
    9.5380    4.3010    4.9800 C   0  0  0  0  0  0  0  0  0  0  0  0
    7.2500    5.5370    2.8780 C   0  0  0  0  0  0  0  0  0  0  0  0
    6.8720    5.5410    1.4050 C   0  0  0  0  0  0  0  0  0  0  0  0
    6.0470    4.5670    0.8310 C   0  0  0  0  0  0  0  0  0  0  0  0
    5.7350    4.6150   -0.5280 C   0  0  0  0  0  0  0  0  0  0  0  0
    7.3920    6.5440    0.5780 C   0  0  0  0  0  0  0  0  0  0  0  0
    7.1070    6.5900   -0.7810 C   0  0  0  0  0  0  0  0  0  0  0  0
    6.2780    5.6180   -1.3380 C   0  0  0  0  0  0  0  0  0  0  0  0
    5.9510    5.6690   -2.7840 C   0  0  0  0  0  0  0  0  0  0  0  0
    4.7380    6.0670   -3.1990 C   0  0  0  0  0  0  0  0  0  0  0  0
    3.8590    6.9630   -2.3650 C   0  0  0  0  0  0  0  0  0  0  0  0
    3.2180    8.0010   -3.1320 O   0  0  0  0  0  0  0  0  0  0  0  0
    1.8610    8.0410   -2.8180 C   0  0  0  0  0  0  0  0  0  0  0  0
    1.3300    7.8870   -1.5340 C   0  0  0  0  0  0  0  0  0  0  0  0
    2.1240    7.6740   -0.4840 F   0  0  0  0  0  0  0  0  0  0  0  0
    0.9770    8.2530   -3.8470 C   0  0  0  0  0  0  0  0  0  0  0  0
    1.7120    8.4620   -5.4750 Cl  0  0  0  0  0  0  0  0  0  0  0  0
   -0.3990    8.3000   -3.6140 C   0  0  0  0  0  0  0  0  0  0  0  0
   -1.2690    8.5130   -4.6110 F   0  0  0  0  0  0  0  0  0  0  0  0
   -0.9170    8.1460   -2.3410 C   0  0  0  0  0  0  0  0  0  0  0  0
   -0.0420    7.9250   -1.2960 C   0  0  0  0  0  0  0  0  0  0  0  0
   -1.1394    5.9877    6.5699 H   0  0  0  0  0  0  0  0  0  0  0  0
    1.2380    5.9850    7.2868 H   0  0  0  0  0  0  0  0  0  0  0  0
    3.0231    5.6260    5.5963 H   0  0  0  0  0  0  0  0  0  0  0  0
    2.3324    5.7474    1.9742 H   0  0  0  0  0  0  0  0  0  0  0  0
    2.7453    4.1511    2.6870 H   0  0  0  0  0  0  0  0  0  0  0  0
    4.5027    7.1219    1.5237 H   0  0  0  0  0  0  0  0  0  0  0  0
    2.6598    7.7124    4.0903 H   0  0  0  0  0  0  0  0  0  0  0  0
    3.0180    8.9633    2.8519 H   0  0  0  0  0  0  0  0  0  0  0  0
    5.5662    8.7662    3.3898 H   0  0  0  0  0  0  0  0  0  0  0  0
    5.2081    7.5153    4.6282 H   0  0  0  0  0  0  0  0  0  0  0  0
    6.0885    5.6531    5.9792 H   0  0  0  0  0  0  0  0  0  0  0  0
    8.3615    6.1474    6.4394 H   0  0  0  0  0  0  0  0  0  0  0  0
    7.7834    7.1063    5.2328 H   0  0  0  0  0  0  0  0  0  0  0  0
   10.0084    6.3994    4.8037 H   0  0  0  0  0  0  0  0  0  0  0  0
    9.3548    5.2239    2.5471 H   0  0  0  0  0  0  0  0  0  0  0  0
    8.8894    6.9331    2.8454 H   0  0  0  0  0  0  0  0  0  0  0  0
    6.4109    3.1983    5.6591 H   0  0  0  0  0  0  0  0  0  0  0  0
    7.5784    3.8864    6.8381 H   0  0  0  0  0  0  0  0  0  0  0  0
    8.0680    3.2913    4.0087 H   0  0  0  0  0  0  0  0  0  0  0  0
    8.6816    2.4893    5.3087 H   0  0  0  0  0  0  0  0  0  0  0  0
    9.9795    4.2921    5.9875 H   0  0  0  0  0  0  0  0  0  0  0  0
   10.2821    3.9488    4.2504 H   0  0  0  0  0  0  0  0  0  0  0  0
    5.6475    3.7694    1.4469 H   0  0  0  0  0  0  0  0  0  0  0  0
    5.0706    3.8737   -0.9570 H   0  0  0  0  0  0  0  0  0  0  0  0
    8.0334    7.3041    1.0091 H   0  0  0  0  0  0  0  0  0  0  0  0
    7.5252    7.3740   -1.4018 H   0  0  0  0  0  0  0  0  0  0  0  0
    6.7031    5.3804   -3.5168 H   0  0  0  0  0  0  0  0  0  0  0  0
    4.3773    5.7314   -4.1702 H   0  0  0  0  0  0  0  0  0  0  0  0
    4.4777    7.4343   -1.5871 H   0  0  0  0  0  0  0  0  0  0  0  0
    3.0806    6.3468   -1.8912 H   0  0  0  0  0  0  0  0  0  0  0  0
   -1.9858    8.1976   -2.1675 H   0  0  0  0  0  0  0  0  0  0  0  0
   -0.4224    7.7812   -0.2912 H   0  0  0  0  0  0  0  0  0  0  0  0
  1  2  1  0  0  0  0
  2  3  2  0  0  0  0
  2  5  1  0  0  0  0
  3  4  1  0  0  0  0
  3  8  1  0  0  0  0
  5  6  2  0  0  0  0
  5 44  1  0  0  0  0
  6  7  1  0  0  0  0
  6 45  1  0  0  0  0
  7  8  2  0  0  0  0
  7 46  1  0  0  0  0
  8  9  1  0  0  0  0
  9 10  1  0  0  0  0
  9 47  1  0  0  0  0
  9 48  1  0  0  0  0
 10 11  1  0  0  0  0
 10 14  1  0  0  0  0
 11 12  1  0  0  0  0
 11 13  1  0  0  0  0
 11 49  1  0  0  0  0
 12 13  1  0  0  0  0
 12 50  1  0  0  0  0
 12 51  1  0  0  0  0
 13 52  1  0  0  0  0
 13 53  1  0  0  0  0
 14 15  2  0  0  0  0
 14 16  1  0  0  0  0
 16 17  1  0  0  0  0
 16 24  2  0  0  0  0
 17 18  1  0  0  0  0
 17 21  1  0  0  0  0
 17 54  1  1  0  0  0
 18 19  1  0  0  0  0
 18 55  1  0  0  0  0
 18 56  1  0  0  0  0
 19 20  1  0  0  0  0
 19 23  1  0  0  0  0
 19 57  1  1  0  0  0
 20 24  1  0  0  0  0
 20 58  1  0  0  0  0
 20 59  1  0  0  0  0
 21 22  1  0  0  0  0
 21 60  1  0  0  0  0
 21 61  1  0  0  0  0
 22 23  1  0  0  0  0
 22 62  1  0  0  0  0
 22 63  1  0  0  0  0
 23 64  1  0  0  0  0
 23 65  1  0  0  0  0
 24 25  1  0  0  0  0
 25 26  2  0  0  0  0
 25 28  1  0  0  0  0
 26 27  1  0  0  0  0
 26 66  1  0  0  0  0
 27 30  2  0  0  0  0
 27 67  1  0  0  0  0
 28 29  2  0  0  0  0
 28 68  1  0  0  0  0
 29 30  1  0  0  0  0
 29 69  1  0  0  0  0
 30 31  1  0  0  0  0
 31 32  2  0  0  0  0
 31 70  1  0  0  0  0
 32 33  1  0  0  0  0
 32 71  1  0  0  0  0
 33 34  1  0  0  0  0
 33 72  1  0  0  0  0
 33 73  1  0  0  0  0
 34 35  1  0  0  0  0
 35 36  2  0  0  0  0
 35 38  1  0  0  0  0
 36 37  1  0  0  0  0
 36 43  1  0  0  0  0
 38 39  1  0  0  0  0
 38 40  2  0  0  0  0
 40 41  1  0  0  0  0
 40 42  1  0  0  0  0
 42 43  2  0  0  0  0
 42 74  1  0  0  0  0
 43 75  1  0  0  0  0
M  CHG  2  18   1  22   1
M  END
