3g76_ligand
 OpenBabel08222323343D

 64 66  0  0  1  0  0  0  0  0999 V2000
   18.7870   29.4510    5.3180 C   0  0  0  0  0  0  0  0  0  0  0  0
   18.2510   30.1210    4.1650 C   0  0  0  0  0  0  0  0  0  0  0  0
   19.0030   31.1320    3.5540 C   0  0  0  0  0  0  0  0  0  0  0  0
   20.2610   31.4900    4.0490 C   0  0  0  0  0  0  0  0  0  0  0  0
   20.7770   30.8380    5.1690 C   0  0  0  0  0  0  0  0  0  0  0  0
   20.0490   29.8200    5.7940 C   0  0  0  0  0  0  0  0  0  0  0  0
   20.7210   29.0230    7.1980 S   0  0  0  0  0  0  0  0  0  0  0  0
   20.2570   30.2100    8.3630 C   0  0  0  0  0  0  0  0  0  0  0  0
   19.6760   31.3860    8.1560 N   0  0  0  0  0  0  0  0  0  0  0  0
   19.5310   31.8810    9.2800 N   0  0  0  0  0  0  0  0  0  0  0  0
   19.9670   31.1220   10.1630 N   0  0  0  0  0  0  0  0  0  0  0  0
   20.4160   30.0920    9.6500 N   0  0  0  0  0  0  0  0  0  0  0  0
   21.0170   28.9200   10.3120 C   0  0  0  0  0  0  0  0  0  0  0  0
   20.1370   28.4120   11.4710 C   0  0  2  0  0  0  0  0  0  0  0  0
   20.2930   29.3630   12.6660 C   0  0  0  0  0  0  0  0  0  0  0  0
   20.2680   28.4410   13.8740 C   0  0  0  0  0  0  0  0  0  0  0  0
   21.0340   27.2170   13.3870 C   0  0  0  0  0  0  0  0  0  0  0  0
   20.6750   27.1380   11.9620 N   0  0  0  0  0  0  0  0  0  0  0  0
   20.8230   26.0420   11.2210 C   0  0  0  0  0  0  0  0  0  0  0  0
   20.4930   26.0310   10.0350 O   0  0  0  0  0  0  0  0  0  0  0  0
   21.4190   24.7900   11.8290 C   0  0  1  0  0  0  0  0  0  0  0  0
   20.6980   23.6610   11.2070 N   0  0  0  0  0  0  0  0  0  0  0  0
   19.9620   22.8270   11.9440 C   0  0  0  0  0  0  0  0  0  0  0  0
   19.8480   22.9070   13.1690 O   0  0  0  0  0  0  0  0  0  0  0  0
   19.2540   21.7110   11.1780 C   0  0  2  0  0  0  0  0  0  0  0  0
   17.9010   22.2300   10.7120 C   0  0  0  0  0  0  0  0  0  0  0  0
   19.0460   20.5570   12.0630 N   0  3  0  0  0  0  0  0  0  0  0  0
   20.3220   20.0490   12.6090 C   0  0  0  0  0  0  0  0  0  0  0  0
   22.9500   24.8230   11.5500 C   0  0  1  0  0  0  0  0  0  0  0  0
   23.6230   23.4840   11.8960 C   0  0  0  0  0  0  0  0  0  0  0  0
   23.2350   25.2410   10.1620 O   0  0  0  0  0  0  0  0  0  0  0  0
   24.4660   26.0260    9.9920 C   0  0  0  0  0  0  0  0  0  0  0  0
   18.2205   28.6700    5.8121 H   0  0  0  0  0  0  0  0  0  0  0  0
   17.2778   29.8474    3.7737 H   0  0  0  0  0  0  0  0  0  0  0  0
   18.6046   31.6441    2.6856 H   0  0  0  0  0  0  0  0  0  0  0  0
   20.8336   32.2721    3.5636 H   0  0  0  0  0  0  0  0  0  0  0  0
   21.7483   31.1220    5.5575 H   0  0  0  0  0  0  0  0  0  0  0  0
   22.0036   29.2008   10.7091 H   0  0  0  0  0  0  0  0  0  0  0  0
   21.1350   28.1137    9.5731 H   0  0  0  0  0  0  0  0  0  0  0  0
   19.0877   28.3187   11.1545 H   0  0  0  0  0  0  0  0  0  0  0  0
   19.4612   30.0817   12.7052 H   0  0  0  0  0  0  0  0  0  0  0  0
   21.2466   29.9085   12.6100 H   0  0  0  0  0  0  0  0  0  0  0  0
   19.2360   28.1778   14.1492 H   0  0  0  0  0  0  0  0  0  0  0  0
   20.7704   28.9047   14.7357 H   0  0  0  0  0  0  0  0  0  0  0  0
   20.7141   26.3123   13.9247 H   0  0  0  0  0  0  0  0  0  0  0  0
   22.1180   27.3546   13.5132 H   0  0  0  0  0  0  0  0  0  0  0  0
   21.2555   24.7687   12.9166 H   0  0  0  0  0  0  0  0  0  0  0  0
   20.7624   23.5196   10.2191 H   0  0  0  0  0  0  0  0  0  0  0  0
   19.8603   21.4098   10.3110 H   0  0  0  0  0  0  0  0  0  0  0  0
   17.3759   21.4384   10.1574 H   0  0  0  0  0  0  0  0  0  0  0  0
   18.0483   23.1009   10.0565 H   0  0  0  0  0  0  0  0  0  0  0  0
   17.3011   22.5256   11.5853 H   0  0  0  0  0  0  0  0  0  0  0  0
   18.5985   19.8207   11.5398 H   0  0  0  0  0  0  0  0  0  0  0  0
   18.4512   20.8350   12.8278 H   0  0  0  0  0  0  0  0  0  0  0  0
   20.1235   19.1881   13.2643 H   0  0  0  0  0  0  0  0  0  0  0  0
   20.8157   20.8438   13.1874 H   0  0  0  0  0  0  0  0  0  0  0  0
   20.9765   19.7369   11.7818 H   0  0  0  0  0  0  0  0  0  0  0  0
   23.3851   25.5843   12.2141 H   0  0  0  0  0  0  0  0  0  0  0  0
   24.7005   23.5499   11.6849 H   0  0  0  0  0  0  0  0  0  0  0  0
   23.1786   22.6823   11.2879 H   0  0  0  0  0  0  0  0  0  0  0  0
   23.4713   23.2622   12.9627 H   0  0  0  0  0  0  0  0  0  0  0  0
   24.5901   26.2880    8.9309 H   0  0  0  0  0  0  0  0  0  0  0  0
   25.3291   25.4316   10.3262 H   0  0  0  0  0  0  0  0  0  0  0  0
   24.4000   26.9459   10.5915 H   0  0  0  0  0  0  0  0  0  0  0  0
  1  2  2  0  0  0  0
  1  6  1  0  0  0  0
  1 33  1  0  0  0  0
  2  3  1  0  0  0  0
  2 34  1  0  0  0  0
  3  4  2  0  0  0  0
  3 35  1  0  0  0  0
  4  5  1  0  0  0  0
  4 36  1  0  0  0  0
  5  6  2  0  0  0  0
  5 37  1  0  0  0  0
  6  7  1  0  0  0  0
  7  8  1  0  0  0  0
  8  9  2  0  0  0  0
  8 12  1  0  0  0  0
  9 10  1  0  0  0  0
 10 11  2  0  0  0  0
 11 12  1  0  0  0  0
 12 13  1  0  0  0  0
 13 14  1  0  0  0  0
 13 38  1  0  0  0  0
 13 39  1  0  0  0  0
 14 15  1  0  0  0  0
 14 18  1  0  0  0  0
 14 40  1  6  0  0  0
 15 16  1  0  0  0  0
 15 41  1  0  0  0  0
 15 42  1  0  0  0  0
 16 17  1  0  0  0  0
 16 43  1  0  0  0  0
 16 44  1  0  0  0  0
 17 18  1  0  0  0  0
 17 45  1  0  0  0  0
 17 46  1  0  0  0  0
 18 19  1  0  0  0  0
 19 20  2  0  0  0  0
 19 21  1  0  0  0  0
 21 22  1  0  0  0  0
 21 29  1  0  0  0  0
 21 47  1  1  0  0  0
 22 23  1  0  0  0  0
 22 48  1  0  0  0  0
 23 24  2  0  0  0  0
 23 25  1  0  0  0  0
 25 26  1  0  0  0  0
 25 27  1  0  0  0  0
 25 49  1  6  0  0  0
 26 50  1  0  0  0  0
 26 51  1  0  0  0  0
 26 52  1  0  0  0  0
 27 28  1  0  0  0  0
 27 53  1  0  0  0  0
 27 54  1  0  0  0  0
 28 55  1  0  0  0  0
 28 56  1  0  0  0  0
 28 57  1  0  0  0  0
 29 30  1  0  0  0  0
 29 31  1  0  0  0  0
 29 58  1  1  0  0  0
 30 59  1  0  0  0  0
 30 60  1  0  0  0  0
 30 61  1  0  0  0  0
 31 32  1  0  0  0  0
 32 62  1  0  0  0  0
 32 63  1  0  0  0  0
 32 64  1  0  0  0  0
M  CHG  1  27   1
M  END
