3g9l_ligand
 OpenBabel08222323343D

 51 55  0  0  0  0  0  0  0  0999 V2000
   17.9830    6.2560   33.0480 O   0  0  0  0  0  0  0  0  0  0  0  0
   18.7530    7.4310   32.9490 N   0  0  0  0  0  0  0  0  0  0  0  0
   19.7720    7.3550   32.1670 C   0  0  0  0  0  0  0  0  0  0  0  0
   20.2170    6.1770   31.3870 C   0  0  0  0  0  0  0  0  0  0  0  0
   19.6450    5.1050   31.3070 O   0  0  0  0  0  0  0  0  0  0  0  0
   21.3730    6.4990   30.7980 N   0  0  0  0  0  0  0  0  0  0  0  0
   22.0690    5.5860   29.8960 C   0  0  0  0  0  0  0  0  0  0  0  0
   23.0050    4.6740   30.6320 C   0  0  0  0  0  0  0  0  0  0  0  0
   22.5260    3.7480   31.5350 C   0  0  0  0  0  0  0  0  0  0  0  0
   23.4250    2.9250   32.1940 C   0  0  0  0  0  0  0  0  0  0  0  0
   22.9570    2.0100   33.0750 F   0  0  0  0  0  0  0  0  0  0  0  0
   24.7930    3.0290   31.9410 C   0  0  0  0  0  0  0  0  0  0  0  0
   25.2620    3.9650   31.0260 C   0  0  0  0  0  0  0  0  0  0  0  0
   26.7330    4.1040   30.7210 C   0  0  0  0  0  0  0  0  0  0  0  0
   26.8710    4.6480   29.3900 O   0  0  0  0  0  0  0  0  0  0  0  0
   26.1800    5.8900   29.1980 C   0  0  0  0  0  0  0  0  0  0  0  0
   24.7740    5.7130   29.4570 O   0  0  0  0  0  0  0  0  0  0  0  0
   24.3620    4.7820   30.3650 C   0  0  0  0  0  0  0  0  0  0  0  0
   21.7240    7.8280   31.0670 C   0  0  0  0  0  0  0  0  0  0  0  0
   22.7800    8.6270   30.6390 C   0  0  0  0  0  0  0  0  0  0  0  0
   22.8600    9.9510   31.0300 C   0  0  0  0  0  0  0  0  0  0  0  0
   21.8970   10.5100   31.8590 C   0  0  0  0  0  0  0  0  0  0  0  0
   20.8110    9.7330   32.2940 C   0  0  0  0  0  0  0  0  0  0  0  0
   19.7460   10.2870   33.1510 C   0  0  0  0  0  0  0  0  0  0  0  0
   19.6210   11.6220   33.2210 C   0  0  0  0  0  0  0  0  0  0  0  0
   18.5870   12.2930   34.0320 C   0  0  0  0  0  0  0  0  0  0  0  0
   18.1490   11.7400   35.2520 C   0  0  0  0  0  0  0  0  0  0  0  0
   17.1780   12.3910   35.9940 C   0  0  0  0  0  0  0  0  0  0  0  0
   16.6360   13.5860   35.5310 C   0  0  0  0  0  0  0  0  0  0  0  0
   17.0570   14.1440   34.3230 C   0  0  0  0  0  0  0  0  0  0  0  0
   18.0310   13.5050   33.5700 C   0  0  0  0  0  0  0  0  0  0  0  0
   20.7400    8.4020   31.8820 C   0  0  0  0  0  0  0  0  0  0  0  0
   17.2569    6.4037   33.6425 H   0  0  0  0  0  0  0  0  0  0  0  0
   22.6465    6.1762   29.1693 H   0  0  0  0  0  0  0  0  0  0  0  0
   21.3242    4.9761   29.3638 H   0  0  0  0  0  0  0  0  0  0  0  0
   21.4622    3.6653   31.7263 H   0  0  0  0  0  0  0  0  0  0  0  0
   25.4905    2.3799   32.4579 H   0  0  0  0  0  0  0  0  0  0  0  0
   27.2182    3.1181   30.7719 H   0  0  0  0  0  0  0  0  0  0  0  0
   27.2016    4.7814   31.4500 H   0  0  0  0  0  0  0  0  0  0  0  0
   26.3201    6.2290   28.1610 H   0  0  0  0  0  0  0  0  0  0  0  0
   26.5861    6.6440   29.8883 H   0  0  0  0  0  0  0  0  0  0  0  0
   23.5449    8.2087   29.9948 H   0  0  0  0  0  0  0  0  0  0  0  0
   23.6866   10.5611   30.6842 H   0  0  0  0  0  0  0  0  0  0  0  0
   21.9831   11.5448   32.1702 H   0  0  0  0  0  0  0  0  0  0  0  0
   19.0801    9.6320   33.7109 H   0  0  0  0  0  0  0  0  0  0  0  0
   20.3155   12.2386   32.6524 H   0  0  0  0  0  0  0  0  0  0  0  0
   18.5712   10.8074   35.6086 H   0  0  0  0  0  0  0  0  0  0  0  0
   16.8405   11.9703   36.9343 H   0  0  0  0  0  0  0  0  0  0  0  0
   15.8762   14.0906   36.1167 H   0  0  0  0  0  0  0  0  0  0  0  0
   16.6239   15.0745   33.9741 H   0  0  0  0  0  0  0  0  0  0  0  0
   18.3633   13.9343   32.6317 H   0  0  0  0  0  0  0  0  0  0  0  0
  1  2  1  0  0  0  0
  1 33  1  0  0  0  0
  2  3  2  0  0  0  0
  3  4  1  0  0  0  0
  3 32  1  0  0  0  0
  4  5  2  0  0  0  0
  4  6  1  0  0  0  0
  6  7  1  0  0  0  0
  6 19  1  0  0  0  0
  7  8  1  0  0  0  0
  7 34  1  0  0  0  0
  7 35  1  0  0  0  0
  8  9  2  0  0  0  0
  8 18  1  0  0  0  0
  9 10  1  0  0  0  0
  9 36  1  0  0  0  0
 10 11  1  0  0  0  0
 10 12  2  0  0  0  0
 12 13  1  0  0  0  0
 12 37  1  0  0  0  0
 13 14  1  0  0  0  0
 13 18  2  0  0  0  0
 14 15  1  0  0  0  0
 14 38  1  0  0  0  0
 14 39  1  0  0  0  0
 15 16  1  0  0  0  0
 16 17  1  0  0  0  0
 16 40  1  0  0  0  0
 16 41  1  0  0  0  0
 17 18  1  0  0  0  0
 19 20  2  0  0  0  0
 19 32  1  0  0  0  0
 20 21  1  0  0  0  0
 20 42  1  0  0  0  0
 21 22  2  0  0  0  0
 21 43  1  0  0  0  0
 22 23  1  0  0  0  0
 22 44  1  0  0  0  0
 23 24  1  0  0  0  0
 23 32  2  0  0  0  0
 24 25  2  0  0  0  0
 24 45  1  0  0  0  0
 25 26  1  0  0  0  0
 25 46  1  0  0  0  0
 26 27  2  0  0  0  0
 26 31  1  0  0  0  0
 27 28  1  0  0  0  0
 27 47  1  0  0  0  0
 28 29  2  0  0  0  0
 28 48  1  0  0  0  0
 29 30  1  0  0  0  0
 29 49  1  0  0  0  0
 30 31  2  0  0  0  0
 30 50  1  0  0  0  0
 31 51  1  0  0  0  0
M  END
