3g9n_ligand
 OpenBabel08222323343D

 47 51  0  0  0  0  0  0  0  0999 V2000
   18.0180   29.6100   20.8440 O   0  0  0  0  0  0  0  0  0  0  0  0
   18.7760   28.4110   20.8220 N   0  0  0  0  0  0  0  0  0  0  0  0
   19.9320   28.3700   21.4380 C   0  0  0  0  0  0  0  0  0  0  0  0
   20.4830   29.4920   22.2080 C   0  0  0  0  0  0  0  0  0  0  0  0
   19.9650   30.5860   22.2730 O   0  0  0  0  0  0  0  0  0  0  0  0
   21.5930   29.0600   22.8140 N   0  0  0  0  0  0  0  0  0  0  0  0
   22.4190   29.8590   23.7080 C   0  0  0  0  0  0  0  0  0  0  0  0
   23.2760   30.8480   22.9880 C   0  0  0  0  0  0  0  0  0  0  0  0
   22.7090   31.7570   22.1190 C   0  0  0  0  0  0  0  0  0  0  0  0
   23.5110   32.6720   21.4710 C   0  0  0  0  0  0  0  0  0  0  0  0
   22.9400   33.5430   20.6200 F   0  0  0  0  0  0  0  0  0  0  0  0
   24.8860   32.6860   21.7000 C   0  0  0  0  0  0  0  0  0  0  0  0
   25.4490   31.7710   22.5800 C   0  0  0  0  0  0  0  0  0  0  0  0
   26.9300   31.7660   22.8420 C   0  0  0  0  0  0  0  0  0  0  0  0
   27.1540   31.1600   24.1240 O   0  0  0  0  0  0  0  0  0  0  0  0
   26.5980   29.8390   24.2180 C   0  0  0  0  0  0  0  0  0  0  0  0
   25.1690   29.9360   24.1060 O   0  0  0  0  0  0  0  0  0  0  0  0
   24.6430   30.8480   23.2330 C   0  0  0  0  0  0  0  0  0  0  0  0
   21.8800   27.7400   22.5000 C   0  0  0  0  0  0  0  0  0  0  0  0
   22.9540   26.9210   22.8790 C   0  0  0  0  0  0  0  0  0  0  0  0
   23.0500   25.6160   22.4170 C   0  0  0  0  0  0  0  0  0  0  0  0
   22.0790   25.1210   21.5710 C   0  0  0  0  0  0  0  0  0  0  0  0
   20.9930   25.9130   21.1620 C   0  0  0  0  0  0  0  0  0  0  0  0
   20.9020   27.2520   21.6200 C   0  0  0  0  0  0  0  0  0  0  0  0
   19.9810   25.3210   20.2350 C   0  0  0  0  0  0  0  0  0  0  0  0
   18.9930   26.0990   19.6240 C   0  0  0  0  0  0  0  0  0  0  0  0
   18.0710   25.5410   18.7630 C   0  0  0  0  0  0  0  0  0  0  0  0
   18.1240   24.1850   18.4880 C   0  0  0  0  0  0  0  0  0  0  0  0
   19.0870   23.3860   19.0790 C   0  0  0  0  0  0  0  0  0  0  0  0
   20.0080   23.9520   19.9450 C   0  0  0  0  0  0  0  0  0  0  0  0
   17.2119   29.4827   20.3578 H   0  0  0  0  0  0  0  0  0  0  0  0
   23.0708   29.1825   24.2803 H   0  0  0  0  0  0  0  0  0  0  0  0
   21.7599   30.4049   24.3990 H   0  0  0  0  0  0  0  0  0  0  0  0
   21.6388   31.7518   21.9467 H   0  0  0  0  0  0  0  0  0  0  0  0
   25.5141   33.4092   21.1925 H   0  0  0  0  0  0  0  0  0  0  0  0
   27.3115   32.7977   22.8455 H   0  0  0  0  0  0  0  0  0  0  0  0
   27.4449   31.1873   22.0610 H   0  0  0  0  0  0  0  0  0  0  0  0
   26.8646   29.3925   25.1873 H   0  0  0  0  0  0  0  0  0  0  0  0
   26.9920   29.2120   23.4046 H   0  0  0  0  0  0  0  0  0  0  0  0
   23.7182   27.3123   23.5408 H   0  0  0  0  0  0  0  0  0  0  0  0
   23.8820   24.9900   22.7186 H   0  0  0  0  0  0  0  0  0  0  0  0
   22.1556   24.1001   21.2146 H   0  0  0  0  0  0  0  0  0  0  0  0
   18.9507   27.1622   19.8311 H   0  0  0  0  0  0  0  0  0  0  0  0
   17.3091   26.1607   18.3042 H   0  0  0  0  0  0  0  0  0  0  0  0
   17.4059   23.7461   17.8048 H   0  0  0  0  0  0  0  0  0  0  0  0
   19.1204   22.3237   18.8655 H   0  0  0  0  0  0  0  0  0  0  0  0
   20.7622   23.3243   20.4058 H   0  0  0  0  0  0  0  0  0  0  0  0
  1  2  1  0  0  0  0
  1 31  1  0  0  0  0
  2  3  2  0  0  0  0
  3  4  1  0  0  0  0
  3 24  1  0  0  0  0
  4  5  2  0  0  0  0
  4  6  1  0  0  0  0
  6  7  1  0  0  0  0
  6 19  1  0  0  0  0
  7  8  1  0  0  0  0
  7 32  1  0  0  0  0
  7 33  1  0  0  0  0
  8  9  2  0  0  0  0
  8 18  1  0  0  0  0
  9 10  1  0  0  0  0
  9 34  1  0  0  0  0
 10 11  1  0  0  0  0
 10 12  2  0  0  0  0
 12 13  1  0  0  0  0
 12 35  1  0  0  0  0
 13 14  1  0  0  0  0
 13 18  2  0  0  0  0
 14 15  1  0  0  0  0
 14 36  1  0  0  0  0
 14 37  1  0  0  0  0
 15 16  1  0  0  0  0
 16 17  1  0  0  0  0
 16 38  1  0  0  0  0
 16 39  1  0  0  0  0
 17 18  1  0  0  0  0
 19 20  2  0  0  0  0
 19 24  1  0  0  0  0
 20 21  1  0  0  0  0
 20 40  1  0  0  0  0
 21 22  2  0  0  0  0
 21 41  1  0  0  0  0
 22 23  1  0  0  0  0
 22 42  1  0  0  0  0
 23 24  2  0  0  0  0
 23 25  1  0  0  0  0
 25 26  2  0  0  0  0
 25 30  1  0  0  0  0
 26 27  1  0  0  0  0
 26 43  1  0  0  0  0
 27 28  2  0  0  0  0
 27 44  1  0  0  0  0
 28 29  1  0  0  0  0
 28 45  1  0  0  0  0
 29 30  2  0  0  0  0
 29 46  1  0  0  0  0
 30 47  1  0  0  0  0
M  END
