3gen_ligand
 OpenBabel08222323343D

 50 54  0  0  0  0  0  0  0  0999 V2000
  -19.3930    4.7490  -16.8150 N   0  0  0  0  0  0  0  0  0  0  0  0
  -18.3580    5.0350  -17.6220 C   0  0  0  0  0  0  0  0  0  0  0  0
  -18.4720    4.6780  -18.9310 N   0  0  0  0  0  0  0  0  0  0  0  0
  -17.5020    4.9300  -19.8220 C   0  0  0  0  0  0  0  0  0  0  0  0
  -16.3840    5.5440  -19.4320 N   0  0  0  0  0  0  0  0  0  0  0  0
  -16.2230    5.9140  -18.1310 C   0  0  0  0  0  0  0  0  0  0  0  0
  -17.2010    5.6710  -17.1740 C   0  0  0  0  0  0  0  0  0  0  0  0
  -15.2090    6.5290  -17.5510 N   0  0  0  0  0  0  0  0  0  0  0  0
  -14.0520    6.9970  -18.3400 C   0  0  0  0  0  0  0  0  0  0  0  0
  -14.0670    8.5010  -18.5480 C   0  0  0  0  0  0  0  0  0  0  0  0
  -12.6050    8.9100  -18.6180 C   0  0  0  0  0  0  0  0  0  0  0  0
  -11.7680    7.6640  -18.3770 C   0  0  0  0  0  0  0  0  0  0  0  0
  -12.7040    6.6720  -17.7220 C   0  0  0  0  0  0  0  0  0  0  0  0
  -15.4730    6.7000  -16.2500 C   0  0  0  0  0  0  0  0  0  0  0  0
  -16.7230    6.1820  -15.9620 C   0  0  0  0  0  0  0  0  0  0  0  0
  -17.2900    6.1110  -14.6740 C   0  0  0  0  0  0  0  0  0  0  0  0
  -17.6700    4.8840  -14.1250 C   0  0  0  0  0  0  0  0  0  0  0  0
  -18.1110    4.7870  -12.8040 C   0  0  0  0  0  0  0  0  0  0  0  0
  -18.2030    5.9130  -11.9900 C   0  0  0  0  0  0  0  0  0  0  0  0
  -17.8060    7.1410  -12.5140 C   0  0  0  0  0  0  0  0  0  0  0  0
  -17.3660    7.2350  -13.8380 C   0  0  0  0  0  0  0  0  0  0  0  0
  -18.8410    5.7800  -10.7740 O   0  0  0  0  0  0  0  0  0  0  0  0
  -19.8030    6.6210  -10.2870 C   0  0  0  0  0  0  0  0  0  0  0  0
  -20.8560    7.0490  -11.0900 C   0  0  0  0  0  0  0  0  0  0  0  0
  -21.8240    7.8810  -10.5460 C   0  0  0  0  0  0  0  0  0  0  0  0
  -21.7460    8.2850   -9.2220 C   0  0  0  0  0  0  0  0  0  0  0  0
  -20.6910    7.8570   -8.4300 C   0  0  0  0  0  0  0  0  0  0  0  0
  -19.7290    7.0060   -8.9480 C   0  0  0  0  0  0  0  0  0  0  0  0
  -19.3525    5.0000  -15.8169 H   0  0  0  0  0  0  0  0  0  0  0  0
  -20.2272    4.2787  -17.1943 H   0  0  0  0  0  0  0  0  0  0  0  0
  -17.6263    4.6351  -20.8577 H   0  0  0  0  0  0  0  0  0  0  0  0
  -14.1096    6.5045  -19.3219 H   0  0  0  0  0  0  0  0  0  0  0  0
  -14.5673    9.0016  -17.7059 H   0  0  0  0  0  0  0  0  0  0  0  0
  -14.5836    8.7554  -19.4852 H   0  0  0  0  0  0  0  0  0  0  0  0
  -12.3885    9.6626  -17.8456 H   0  0  0  0  0  0  0  0  0  0  0  0
  -12.3792    9.3275  -19.6103 H   0  0  0  0  0  0  0  0  0  0  0  0
  -10.9217    7.8915  -17.7121 H   0  0  0  0  0  0  0  0  0  0  0  0
  -11.3891    7.2647  -19.3293 H   0  0  0  0  0  0  0  0  0  0  0  0
  -12.4050    5.6386  -17.9513 H   0  0  0  0  0  0  0  0  0  0  0  0
  -12.7268    6.8137  -16.6314 H   0  0  0  0  0  0  0  0  0  0  0  0
  -14.8071    7.1734  -15.5300 H   0  0  0  0  0  0  0  0  0  0  0  0
  -17.6215    3.9901  -14.7363 H   0  0  0  0  0  0  0  0  0  0  0  0
  -18.3868    3.8177  -12.4048 H   0  0  0  0  0  0  0  0  0  0  0  0
  -17.8383    8.0284  -11.8922 H   0  0  0  0  0  0  0  0  0  0  0  0
  -17.0756    8.2033  -14.2293 H   0  0  0  0  0  0  0  0  0  0  0  0
  -20.9191    6.7367  -12.1261 H   0  0  0  0  0  0  0  0  0  0  0  0
  -22.6494    8.2185  -11.1623 H   0  0  0  0  0  0  0  0  0  0  0  0
  -22.5082    8.9342   -8.8066 H   0  0  0  0  0  0  0  0  0  0  0  0
  -20.6191    8.1901   -7.4009 H   0  0  0  0  0  0  0  0  0  0  0  0
  -18.9252    6.6420   -8.3183 H   0  0  0  0  0  0  0  0  0  0  0  0
  1  2  1  0  0  0  0
  1 29  1  0  0  0  0
  1 30  1  0  0  0  0
  2  3  2  0  0  0  0
  2  7  1  0  0  0  0
  3  4  1  0  0  0  0
  4  5  2  0  0  0  0
  4 31  1  0  0  0  0
  5  6  1  0  0  0  0
  6  7  2  0  0  0  0
  6  8  1  0  0  0  0
  7 15  1  0  0  0  0
  8  9  1  0  0  0  0
  8 14  1  0  0  0  0
  9 10  1  0  0  0  0
  9 13  1  0  0  0  0
  9 32  1  0  0  0  0
 10 11  1  0  0  0  0
 10 33  1  0  0  0  0
 10 34  1  0  0  0  0
 11 12  1  0  0  0  0
 11 35  1  0  0  0  0
 11 36  1  0  0  0  0
 12 13  1  0  0  0  0
 12 37  1  0  0  0  0
 12 38  1  0  0  0  0
 13 39  1  0  0  0  0
 13 40  1  0  0  0  0
 14 15  2  0  0  0  0
 14 41  1  0  0  0  0
 15 16  1  0  0  0  0
 16 17  2  0  0  0  0
 16 21  1  0  0  0  0
 17 18  1  0  0  0  0
 17 42  1  0  0  0  0
 18 19  2  0  0  0  0
 18 43  1  0  0  0  0
 19 20  1  0  0  0  0
 19 22  1  0  0  0  0
 20 21  2  0  0  0  0
 20 44  1  0  0  0  0
 21 45  1  0  0  0  0
 22 23  1  0  0  0  0
 23 24  2  0  0  0  0
 23 28  1  0  0  0  0
 24 25  1  0  0  0  0
 24 46  1  0  0  0  0
 25 26  2  0  0  0  0
 25 47  1  0  0  0  0
 26 27  1  0  0  0  0
 26 48  1  0  0  0  0
 27 28  2  0  0  0  0
 27 49  1  0  0  0  0
 28 50  1  0  0  0  0
M  END
