3gep_ligand
 OpenBabel08222323343D

 34 35  0  0  1  0  0  0  0  0999 V2000
   19.2420   55.9400    7.8790 C   0  0  0  0  0  0  0  0  0  0  0  0
   20.2420   54.9740    7.9570 C   0  0  0  0  0  0  0  0  0  0  0  0
   20.0140   53.7050    7.4340 C   0  0  0  0  0  0  0  0  0  0  0  0
   20.9630   56.8160    8.8710 C   0  0  0  0  0  0  0  0  0  0  0  0
   20.9000   52.8240    7.4970 O   0  0  0  0  0  0  0  0  0  0  0  0
   21.2930   55.5380    8.5820 N   0  0  0  0  0  0  0  0  0  0  0  0
   18.8180   53.4320    6.8590 N   0  0  0  0  0  0  0  0  0  0  0  0
   17.8450   54.3760    6.7950 C   0  0  2  0  0  3  0  0  0  0  0  0
   16.6630   54.0790    6.2020 N   0  0  0  0  0  0  0  0  0  0  0  0
   18.0520   55.6160    7.3020 N   0  0  0  0  0  0  0  0  0  0  0  0
   19.7120   57.0590    8.4660 N   0  0  0  0  0  0  0  0  0  0  0  0
   19.0140   58.3380    8.5910 C   0  0  0  0  0  0  0  0  0  0  0  0
   18.6030   58.7820   10.0020 C   0  0  1  0  0  0  0  0  0  0  0  0
   17.2510   58.1590   10.2980 C   0  0  0  0  0  0  0  0  0  0  0  0
   16.3320   59.2590   10.3440 O   0  0  0  0  0  0  0  0  0  0  0  0
   19.5490   58.6020   11.0820 O   0  0  0  0  0  0  0  0  0  0  0  0
   19.3100   59.6060   12.0820 C   0  0  0  0  0  0  0  0  0  0  0  0
   20.7510   60.1120   13.0790 P   0  0  0  0  0  0  0  0  0  0  0  0
   20.8400   59.0940   14.1900 O   0  0  0  0  0  1  0  0  0  0  0  0
   21.9220   60.1400   12.1290 O   0  0  0  0  0  1  0  0  0  0  0  0
   20.4270   61.4920   13.5960 O   0  0  0  0  0  0  0  0  0  0  0  0
   21.6161   57.5379    9.3592 H   0  0  0  0  0  0  0  0  0  0  0  0
   18.6500   52.5233    6.4769 H   0  0  0  0  0  0  0  0  0  0  0  0
   15.9200   54.7904    6.1497 H   0  0  0  0  0  0  0  0  0  0  0  0
   16.5078   53.1419    5.8036 H   0  0  0  0  0  0  0  0  0  0  0  0
   17.3019   56.3199    7.2503 H   0  0  0  0  0  0  0  0  0  0  0  0
   18.0983   58.2751    7.9848 H   0  0  0  0  0  0  0  0  0  0  0  0
   19.6737   59.1159    8.1791 H   0  0  0  0  0  0  0  0  0  0  0  0
   18.4490   59.8695    9.9412 H   0  0  0  0  0  0  0  0  0  0  0  0
   17.2718   57.6331   11.2639 H   0  0  0  0  0  0  0  0  0  0  0  0
   16.9688   57.4537    9.5025 H   0  0  0  0  0  0  0  0  0  0  0  0
   15.4587   58.9331   10.5274 H   0  0  0  0  0  0  0  0  0  0  0  0
   18.5455   59.2176   12.7710 H   0  0  0  0  0  0  0  0  0  0  0  0
   18.9238   60.5012   11.5727 H   0  0  0  0  0  0  0  0  0  0  0  0
  1  2  2  0  0  0  0
  1 10  1  0  0  0  0
  1 11  1  0  0  0  0
  2  3  1  0  0  0  0
  2  6  1  0  0  0  0
  3  5  2  0  0  0  0
  3  7  1  0  0  0  0
  4 11  1  0  0  0  0
  4 22  1  0  0  0  0
  6  4  2  0  0  0  0
  7  8  1  0  0  0  0
  7 23  1  0  0  0  0
  8  9  1  6  0  0  0
  8 10  1  0  0  0  0
  9 24  1  0  0  0  0
  9 25  1  0  0  0  0
 10 26  1  0  0  0  0
 11 12  1  0  0  0  0
 12 13  1  0  0  0  0
 12 27  1  0  0  0  0
 12 28  1  0  0  0  0
 13 14  1  0  0  0  0
 13 16  1  0  0  0  0
 13 29  1  6  0  0  0
 14 15  1  0  0  0  0
 14 30  1  0  0  0  0
 14 31  1  0  0  0  0
 15 32  1  0  0  0  0
 16 17  1  0  0  0  0
 17 18  1  0  0  0  0
 17 33  1  0  0  0  0
 17 34  1  0  0  0  0
 18 19  1  0  0  0  0
 18 20  1  0  0  0  0
 18 21  2  0  0  0  0
M  END
