3ggc_ligand
 OpenBabel08222323343D

 30 31  0  0  0  0  0  0  0  0999 V2000
   19.0370   10.7990   14.7110 O   0  0  0  0  0  1  0  0  0  0  0  0
   17.9180   11.0060   13.7180 P   0  0  0  0  0  0  0  0  0  0  0  0
   16.9520    9.8490   13.5900 O   0  0  0  0  0  1  0  0  0  0  0  0
   18.4090   11.5320   12.3880 O   0  0  0  0  0  0  0  0  0  0  0  0
   16.9100   12.3520   14.3970 C   0  0  0  0  0  0  0  0  0  0  0  0
   16.5860   12.1190   15.8720 C   0  0  0  0  0  0  0  0  0  0  0  0
   15.6780   13.1350   16.3140 O   0  0  0  0  0  0  0  0  0  0  0  0
   15.2460   12.9720   17.6650 C   0  0  0  0  0  0  0  0  0  0  0  0
   16.4340   12.8020   18.6090 C   0  0  0  0  0  0  0  0  0  0  0  0
   17.2580   14.0140   18.6990 N   0  0  0  0  0  0  0  0  0  0  0  0
   18.4640   14.1770   18.1330 C   0  0  0  0  0  0  0  0  0  0  0  0
   18.9360   15.4090   18.4300 N   0  0  0  0  0  0  0  0  0  0  0  0
   16.9560   15.1360   19.3670 C   0  0  0  0  0  0  0  0  0  0  0  0
   18.0080   16.0210   19.1950 C   0  0  0  0  0  0  0  0  0  0  0  0
   15.8880   15.5130   20.1110 N   0  0  0  0  0  0  0  0  0  0  0  0
   15.8460   16.7290   20.6750 C   0  0  0  0  0  0  0  0  0  0  0  0
   16.8540   17.6010   20.5250 N   0  0  0  0  0  0  0  0  0  0  0  0
   17.9440   17.2740   19.7910 C   0  0  0  0  0  0  0  0  0  0  0  0
   18.9690   18.1620   19.6380 O   0  0  0  0  0  0  0  0  0  0  0  0
   15.9695   12.4154   13.8301 H   0  0  0  0  0  0  0  0  0  0  0  0
   17.4627   13.2979   14.2975 H   0  0  0  0  0  0  0  0  0  0  0  0
   17.5110   12.1671   16.4653 H   0  0  0  0  0  0  0  0  0  0  0  0
   16.1217   11.1296   15.9962 H   0  0  0  0  0  0  0  0  0  0  0  0
   14.6048   12.0807   17.7314 H   0  0  0  0  0  0  0  0  0  0  0  0
   14.6718   13.8601   17.9676 H   0  0  0  0  0  0  0  0  0  0  0  0
   17.0607   11.9757   18.2423 H   0  0  0  0  0  0  0  0  0  0  0  0
   16.0553   12.5576   19.6124 H   0  0  0  0  0  0  0  0  0  0  0  0
   18.9816   13.4333   17.5289 H   0  0  0  0  0  0  0  0  0  0  0  0
   14.9769   17.0139   21.2661 H   0  0  0  0  0  0  0  0  0  0  0  0
   16.8002   18.5003   20.9589 H   0  0  0  0  0  0  0  0  0  0  0  0
  1  2  1  0  0  0  0
  2  3  1  0  0  0  0
  2  4  2  0  0  0  0
  2  5  1  0  0  0  0
  5  6  1  0  0  0  0
  5 20  1  0  0  0  0
  5 21  1  0  0  0  0
  6  7  1  0  0  0  0
  6 22  1  0  0  0  0
  6 23  1  0  0  0  0
  7  8  1  0  0  0  0
  8  9  1  0  0  0  0
  8 24  1  0  0  0  0
  8 25  1  0  0  0  0
  9 10  1  0  0  0  0
  9 26  1  0  0  0  0
  9 27  1  0  0  0  0
 10 11  1  0  0  0  0
 10 13  1  0  0  0  0
 11 12  2  0  0  0  0
 11 28  1  0  0  0  0
 12 14  1  0  0  0  0
 13 14  2  0  0  0  0
 13 15  1  0  0  0  0
 14 18  1  0  0  0  0
 15 16  2  0  0  0  0
 16 17  1  0  0  0  0
 16 29  1  0  0  0  0
 17 18  1  0  0  0  0
 17 30  1  0  0  0  0
 18 19  2  0  0  0  0
M  END
