3gn7_ligand
 OpenBabel08222323343D

 35 37  0  0  1  0  0  0  0  0999 V2000
   26.5090   65.4040    9.3900 C   0  0  0  0  0  0  0  0  0  0  0  0
   26.9340   66.1890   10.4440 C   0  0  0  0  0  0  0  0  0  0  0  0
   28.2340   66.0460   10.8660 C   0  0  0  0  0  0  0  0  0  0  0  0
   25.4300   64.4350    7.8210 C   0  0  0  0  0  0  0  0  0  0  0  0
   26.0620   67.1560   11.1150 C   0  0  0  0  0  0  0  0  0  0  0  0
   24.4130   63.9970    6.8530 C   0  0  2  0  0  0  0  0  0  0  0  0
   23.1140   65.8710    6.0270 C   0  0  0  0  0  0  0  0  0  0  0  0
   24.8540   64.2600    5.4360 C   0  0  0  0  0  0  0  0  0  0  0  0
   29.0900   65.1440   10.2740 C   0  0  0  0  0  0  0  0  0  0  0  0
   28.7020   64.3570    9.2150 C   0  0  0  0  0  0  0  0  0  0  0  0
   27.4010   64.5340    8.8050 C   0  0  0  0  0  0  0  0  0  0  0  0
   26.6920   63.9290    7.8070 N   0  0  0  0  0  0  0  0  0  0  0  0
   25.2860   65.3350    8.7730 N   0  0  0  0  0  0  0  0  0  0  0  0
   24.7270   66.9820   10.8570 N   0  0  0  0  0  0  0  0  0  0  0  0
   26.5500   68.0350   11.8080 O   0  0  0  0  0  0  0  0  0  0  0  0
   23.1610   64.7760    7.0210 N   0  3  0  0  0  0  0  0  0  0  0  0
   24.0620   65.4430    4.9320 C   0  0  0  0  0  0  0  0  0  0  0  0
   24.0960   62.5400    7.0200 C   0  0  0  0  0  0  0  0  0  0  0  0
   28.5945   66.6581   11.6848 H   0  0  0  0  0  0  0  0  0  0  0  0
   23.4460   66.8177    6.4781 H   0  0  0  0  0  0  0  0  0  0  0  0
   22.0947   65.9910    5.6313 H   0  0  0  0  0  0  0  0  0  0  0  0
   24.6536   63.3783    4.8095 H   0  0  0  0  0  0  0  0  0  0  0  0
   25.9295   64.4896    5.4128 H   0  0  0  0  0  0  0  0  0  0  0  0
   30.1008   65.0515   10.6545 H   0  0  0  0  0  0  0  0  0  0  0  0
   29.3716   63.6499    8.7389 H   0  0  0  0  0  0  0  0  0  0  0  0
   24.4375   65.8712    9.0040 H   0  0  0  0  0  0  0  0  0  0  0  0
   24.0537   67.5946   11.2710 H   0  0  0  0  0  0  0  0  0  0  0  0
   24.4264   66.2424   10.2548 H   0  0  0  0  0  0  0  0  0  0  0  0
   23.1318   65.1661    7.9500 H   0  0  0  0  0  0  0  0  0  0  0  0
   22.3682   64.1681    6.8867 H   0  0  0  0  0  0  0  0  0  0  0  0
   24.7435   66.2700    4.6840 H   0  0  0  0  0  0  0  0  0  0  0  0
   23.4921   65.1561    4.0359 H   0  0  0  0  0  0  0  0  0  0  0  0
   25.0154   61.9484    6.8981 H   0  0  0  0  0  0  0  0  0  0  0  0
   23.3606   62.2353    6.2608 H   0  0  0  0  0  0  0  0  0  0  0  0
   23.6797   62.3680    8.0235 H   0  0  0  0  0  0  0  0  0  0  0  0
  1  2  2  0  0  0  0
  1 11  1  0  0  0  0
  2  3  1  0  0  0  0
  2  5  1  0  0  0  0
  3  9  2  0  0  0  0
  3 19  1  0  0  0  0
  4  6  1  0  0  0  0
  4 12  2  0  0  0  0
  4 13  1  0  0  0  0
  5 14  1  0  0  0  0
  5 15  2  0  0  0  0
  6  8  1  0  0  0  0
  6 16  1  0  0  0  0
  6 18  1  1  0  0  0
  7 17  1  0  0  0  0
  7 20  1  0  0  0  0
  7 21  1  0  0  0  0
  8 17  1  0  0  0  0
  8 22  1  0  0  0  0
  8 23  1  0  0  0  0
  9 10  1  0  0  0  0
  9 24  1  0  0  0  0
 10 11  2  0  0  0  0
 10 25  1  0  0  0  0
 11 12  1  0  0  0  0
 13  1  1  0  0  0  0
 13 26  1  0  0  0  0
 14 27  1  0  0  0  0
 14 28  1  0  0  0  0
 16  7  1  0  0  0  0
 16 29  1  0  0  0  0
 16 30  1  0  0  0  0
 17 31  1  0  0  0  0
 17 32  1  0  0  0  0
 18 33  1  0  0  0  0
 18 34  1  0  0  0  0
 18 35  1  0  0  0  0
M  CHG  1  16   1
M  END
