3gp0_ligand
 OpenBabel08222323343D

 61 65  0  0  0  0  0  0  0  0999 V2000
   19.8780   60.1390   22.9360 O   0  0  0  0  0  0  0  0  0  0  0  0
   19.1410   59.7490   23.8470 C   0  0  0  0  0  0  0  0  0  0  0  0
   18.3680   58.6150   23.7530 N   0  0  0  0  0  0  0  0  0  0  0  0
   18.4440   57.7110   22.7500 C   0  0  0  0  0  0  0  0  0  0  0  0
   17.3340   56.8940   22.4470 C   0  0  0  0  0  0  0  0  0  0  0  0
   17.3950   55.9320   21.4600 C   0  0  0  0  0  0  0  0  0  0  0  0
   16.3110   55.1500   21.2400 N   0  0  0  0  0  0  0  0  0  0  0  0
   15.2030   55.0650   22.0270 C   0  0  0  0  0  0  0  0  0  0  0  0
   14.4220   54.1530   21.4650 C   0  0  0  0  0  0  0  0  0  0  0  0
   13.0550   53.7100   22.0060 C   0  0  0  0  0  0  0  0  0  0  0  0
   15.0210   53.6560   20.3830 N   0  0  0  0  0  0  0  0  0  0  0  0
   16.1830   54.2740   20.2330 C   0  0  0  0  0  0  0  0  0  0  0  0
   18.6080   55.7200   20.7550 C   0  0  0  0  0  0  0  0  0  0  0  0
   19.6470   57.5120   22.0380 C   0  0  0  0  0  0  0  0  0  0  0  0
   19.7220   56.5290   21.0490 C   0  0  0  0  0  0  0  0  0  0  0  0
   21.0390   56.3490   20.2500 C   0  0  0  0  0  0  0  0  0  0  0  0
   22.1010   56.2240   21.0030 F   0  0  0  0  0  0  0  0  0  0  0  0
   20.9400   55.3410   19.4480 F   0  0  0  0  0  0  0  0  0  0  0  0
   21.3140   57.3350   19.4510 F   0  0  0  0  0  0  0  0  0  0  0  0
   19.0860   60.5960   25.1220 C   0  0  0  0  0  0  0  0  0  0  0  0
   18.4420   60.1960   26.3010 C   0  0  0  0  0  0  0  0  0  0  0  0
   18.4570   61.0080   27.4390 C   0  0  0  0  0  0  0  0  0  0  0  0
   19.1550   62.2240   27.4160 C   0  0  0  0  0  0  0  0  0  0  0  0
   19.1860   63.1270   28.6500 C   0  0  0  0  0  0  0  0  0  0  0  0
   19.8120   62.6190   26.2570 C   0  0  0  0  0  0  0  0  0  0  0  0
   19.7860   61.8080   25.1080 C   0  0  0  0  0  0  0  0  0  0  0  0
   20.4830   63.7890   26.2300 N   0  0  0  0  0  0  0  0  0  0  0  0
   20.2290   64.7980   25.3740 C   0  0  0  0  0  0  0  0  0  0  0  0
   19.0500   64.9280   24.7240 N   0  0  0  0  0  0  0  0  0  0  0  0
   18.8170   65.9400   23.9070 C   0  0  0  0  0  0  0  0  0  0  0  0
   19.8230   66.9020   23.7160 C   0  0  0  0  0  0  0  0  0  0  0  0
   21.0570   66.7530   24.3810 C   0  0  0  0  0  0  0  0  0  0  0  0
   21.2200   65.7040   25.2090 N   0  0  0  0  0  0  0  0  0  0  0  0
   22.1420   67.6590   24.1940 C   0  0  0  0  0  0  0  0  0  0  0  0
   22.0460   68.7000   23.2470 C   0  0  0  0  0  0  0  0  0  0  0  0
   23.1410   69.5810   23.0690 C   0  0  0  0  0  0  0  0  0  0  0  0
   24.3000   69.3720   23.8450 C   0  0  0  0  0  0  0  0  0  0  0  0
   24.3900   68.3550   24.7240 N   0  0  0  0  0  0  0  0  0  0  0  0
   23.3470   67.5040   24.9260 C   0  0  0  0  0  0  0  0  0  0  0  0
   17.7014   58.4468   24.4792 H   0  0  0  0  0  0  0  0  0  0  0  0
   16.4124   57.0253   23.0024 H   0  0  0  0  0  0  0  0  0  0  0  0
   14.9996   55.6316   22.9345 H   0  0  0  0  0  0  0  0  0  0  0  0
   12.6293   52.9428   21.3426 H   0  0  0  0  0  0  0  0  0  0  0  0
   12.3783   54.5763   22.0463 H   0  0  0  0  0  0  0  0  0  0  0  0
   13.1781   53.2935   23.0166 H   0  0  0  0  0  0  0  0  0  0  0  0
   16.9043   54.1017   19.4355 H   0  0  0  0  0  0  0  0  0  0  0  0
   18.6760   54.9452   19.9999 H   0  0  0  0  0  0  0  0  0  0  0  0
   20.5141   58.1236   22.2596 H   0  0  0  0  0  0  0  0  0  0  0  0
   17.9251   59.2437   26.3308 H   0  0  0  0  0  0  0  0  0  0  0  0
   17.9313   60.6989   28.3352 H   0  0  0  0  0  0  0  0  0  0  0  0
   18.6169   62.6547   29.4643 H   0  0  0  0  0  0  0  0  0  0  0  0
   18.7353   64.0998   28.4040 H   0  0  0  0  0  0  0  0  0  0  0  0
   20.2280   63.2759   28.9693 H   0  0  0  0  0  0  0  0  0  0  0  0
   20.3082   62.1218   24.2114 H   0  0  0  0  0  0  0  0  0  0  0  0
   21.2435   63.9203   26.9122 H   0  0  0  0  0  0  0  0  0  0  0  0
   17.8664   66.0265   23.3932 H   0  0  0  0  0  0  0  0  0  0  0  0
   19.6519   67.7506   23.0636 H   0  0  0  0  0  0  0  0  0  0  0  0
   21.1427   68.8247   22.6609 H   0  0  0  0  0  0  0  0  0  0  0  0
   23.0894   70.3948   22.3548 H   0  0  0  0  0  0  0  0  0  0  0  0
   25.1403   70.0473   23.7312 H   0  0  0  0  0  0  0  0  0  0  0  0
   23.4379   66.7030   25.6507 H   0  0  0  0  0  0  0  0  0  0  0  0
  1  2  2  0  0  0  0
  2  3  1  0  0  0  0
  2 20  1  0  0  0  0
  3  4  1  0  0  0  0
  3 40  1  0  0  0  0
  4  5  2  0  0  0  0
  4 14  1  0  0  0  0
  5  6  1  0  0  0  0
  5 41  1  0  0  0  0
  6  7  1  0  0  0  0
  6 13  2  0  0  0  0
  7  8  1  0  0  0  0
  7 12  1  0  0  0  0
  8  9  2  0  0  0  0
  8 42  1  0  0  0  0
  9 10  1  0  0  0  0
  9 11  1  0  0  0  0
 10 43  1  0  0  0  0
 10 44  1  0  0  0  0
 10 45  1  0  0  0  0
 11 12  2  0  0  0  0
 12 46  1  0  0  0  0
 13 15  1  0  0  0  0
 13 47  1  0  0  0  0
 14 15  2  0  0  0  0
 14 48  1  0  0  0  0
 15 16  1  0  0  0  0
 16 17  1  0  0  0  0
 16 18  1  0  0  0  0
 16 19  1  0  0  0  0
 20 21  2  0  0  0  0
 20 26  1  0  0  0  0
 21 22  1  0  0  0  0
 21 49  1  0  0  0  0
 22 23  2  0  0  0  0
 22 50  1  0  0  0  0
 23 24  1  0  0  0  0
 23 25  1  0  0  0  0
 24 51  1  0  0  0  0
 24 52  1  0  0  0  0
 24 53  1  0  0  0  0
 25 26  2  0  0  0  0
 25 27  1  0  0  0  0
 26 54  1  0  0  0  0
 27 28  1  0  0  0  0
 27 55  1  0  0  0  0
 28 29  2  0  0  0  0
 28 33  1  0  0  0  0
 29 30  1  0  0  0  0
 30 31  2  0  0  0  0
 30 56  1  0  0  0  0
 31 32  1  0  0  0  0
 31 57  1  0  0  0  0
 32 33  2  0  0  0  0
 32 34  1  0  0  0  0
 34 35  2  0  0  0  0
 34 39  1  0  0  0  0
 35 36  1  0  0  0  0
 35 58  1  0  0  0  0
 36 37  2  0  0  0  0
 36 59  1  0  0  0  0
 37 38  1  0  0  0  0
 37 60  1  0  0  0  0
 38 39  2  0  0  0  0
 39 61  1  0  0  0  0
M  END
