3gqo_ligand
 OpenBabel08222323343D

 57 60  0  0  1  0  0  0  0  0999 V2000
   -9.3740  -14.7070   32.9450 N   0  0  0  0  0  0  0  0  0  0  0  0
   -9.7340  -14.0650   31.8130 C   0  0  0  0  0  0  0  0  0  0  0  0
   -9.1850  -14.3150   30.6090 N   0  0  0  0  0  0  0  0  0  0  0  0
   -8.2280  -15.2530   30.4950 C   0  0  0  0  0  0  0  0  0  0  0  0
   -7.7830  -15.9970   31.6780 C   0  0  0  0  0  0  0  0  0  0  0  0
   -8.4310  -15.6660   32.9530 C   0  0  0  0  0  0  0  0  0  0  0  0
   -8.0660  -16.2970   34.0860 N   0  0  0  0  0  0  0  0  0  0  0  0
   -6.8280  -16.8490   31.2720 N   0  0  0  0  0  0  0  0  0  0  0  0
   -6.6770  -16.6750   29.9310 C   0  0  0  0  0  0  0  0  0  0  0  0
   -7.5130  -15.7210   29.4840 N   0  0  0  0  0  0  0  0  0  0  0  0
   -7.6940  -15.2290   28.1140 C   0  0  1  0  0  0  0  0  0  0  0  0
   -6.5920  -15.6650   27.1810 C   0  0  2  0  0  0  0  0  0  0  0  0
   -5.5540  -14.6880   27.1300 O   0  0  0  0  0  0  0  0  0  0  0  0
   -7.3620  -15.7890   25.8780 C   0  0  2  0  0  0  0  0  0  0  0  0
   -7.5130  -14.5200   25.2580 O   0  0  0  0  0  0  0  0  0  0  0  0
   -8.8820  -15.8680   27.6510 O   0  0  0  0  0  0  0  0  0  0  0  0
   -8.7640  -16.2050   26.2780 C   0  0  2  0  0  0  0  0  0  0  0  0
   -9.0710  -17.6800   26.0640 C   0  0  0  0  0  0  0  0  0  0  0  0
   -7.8750  -18.4410   26.1390 O   0  0  0  0  0  0  0  0  0  0  0  0
   -7.8690  -19.9370   26.7000 P   0  0  2  0  0  0  0  0  0  0  0  0
   -8.2190  -19.8740   28.1640 O   0  0  0  0  0  1  0  0  0  0  0  0
   -6.5640  -20.5450   26.2650 O   0  0  0  0  0  0  0  0  0  0  0  0
   -9.0540  -20.6900   25.9210 O   0  0  0  0  0  0  0  0  0  0  0  0
   -8.9240  -21.2490   24.4230 P   0  0  1  0  0  0  0  0  0  0  0  0
  -10.3210  -21.4490   23.9020 O   0  0  0  0  0  1  0  0  0  0  0  0
   -7.9520  -20.4140   23.6550 O   0  0  0  0  0  0  0  0  0  0  0  0
   -8.2940  -22.7050   24.6360 O   0  0  0  0  0  0  0  0  0  0  0  0
   -9.0320  -23.6790   25.3680 C   0  0  0  0  0  0  0  0  0  0  0  0
   -7.2210  -24.2710   26.8600 O   0  0  0  0  0  0  0  0  0  0  0  0
   -7.0620  -24.5850   29.1860 O   0  0  0  0  0  0  0  0  0  0  0  0
   -7.2850  -25.2030   27.9400 C   0  0  1  0  0  0  0  0  0  0  0  0
   -8.8930  -26.8270   28.7290 O   0  0  0  0  0  0  0  0  0  0  0  0
   -8.7020  -25.7010   27.8850 C   0  0  2  0  0  0  0  0  0  0  0  0
   -7.9800  -27.1590   26.1200 O   0  0  0  0  0  0  0  0  0  0  0  0
   -8.7670  -25.9980   26.4090 C   0  0  2  0  0  0  0  0  0  0  0  0
   -8.0730  -24.7670   25.8210 C   0  0  1  0  0  0  0  0  0  0  0  0
  -10.5067  -13.3074   31.8768 H   0  0  0  0  0  0  0  0  0  0  0  0
   -7.3402  -17.0273   34.0579 H   0  0  0  0  0  0  0  0  0  0  0  0
   -8.5128  -16.0492   34.9804 H   0  0  0  0  0  0  0  0  0  0  0  0
   -5.9777  -17.2301   29.3075 H   0  0  0  0  0  0  0  0  0  0  0  0
   -7.7876  -14.1330   28.1071 H   0  0  0  0  0  0  0  0  0  0  0  0
   -6.1634  -16.6321   27.4825 H   0  0  0  0  0  0  0  0  0  0  0  0
   -5.9109  -13.8643   26.8190 H   0  0  0  0  0  0  0  0  0  0  0  0
   -6.8861  -16.5123   25.1995 H   0  0  0  0  0  0  0  0  0  0  0  0
   -7.9964  -14.6208   24.4464 H   0  0  0  0  0  0  0  0  0  0  0  0
   -9.4881  -15.6214   25.6905 H   0  0  0  0  0  0  0  0  0  0  0  0
   -9.5282  -17.8168   25.0729 H   0  0  0  0  0  0  0  0  0  0  0  0
   -9.7702  -18.0230   26.8409 H   0  0  0  0  0  0  0  0  0  0  0  0
   -9.8113  -24.1147   24.7255 H   0  0  0  0  0  0  0  0  0  0  0  0
   -9.5006  -23.2083   26.2448 H   0  0  0  0  0  0  0  0  0  0  0  0
   -7.7229  -23.9179   29.3302 H   0  0  0  0  0  0  0  0  0  0  0  0
   -6.5639  -26.0210   27.7958 H   0  0  0  0  0  0  0  0  0  0  0  0
   -8.3165  -27.5297   28.4529 H   0  0  0  0  0  0  0  0  0  0  0  0
   -9.4243  -24.9211   28.1678 H   0  0  0  0  0  0  0  0  0  0  0  0
   -8.3198  -27.9000   26.6078 H   0  0  0  0  0  0  0  0  0  0  0  0
   -9.7986  -26.1181   26.0465 H   0  0  0  0  0  0  0  0  0  0  0  0
   -7.4674  -25.0743   24.9557 H   0  0  0  0  0  0  0  0  0  0  0  0
  2  1  2  0  0  0  0
  2 37  1  0  0  0  0
  3  2  1  0  0  0  0
  4  3  2  0  0  0  0
  4  5  1  0  0  0  0
  5  6  2  0  0  0  0
  6  1  1  0  0  0  0
  6  7  1  0  0  0  0
  7 38  1  0  0  0  0
  7 39  1  0  0  0  0
  8  5  1  0  0  0  0
  9  8  2  0  0  0  0
  9 40  1  0  0  0  0
 10  4  1  0  0  0  0
 10  9  1  0  0  0  0
 11 10  1  0  0  0  0
 11 12  1  0  0  0  0
 11 41  1  6  0  0  0
 12 13  1  0  0  0  0
 12 42  1  1  0  0  0
 13 43  1  0  0  0  0
 14 12  1  0  0  0  0
 14 15  1  0  0  0  0
 14 44  1  6  0  0  0
 15 45  1  0  0  0  0
 16 11  1  0  0  0  0
 17 14  1  0  0  0  0
 17 16  1  0  0  0  0
 17 46  1  6  0  0  0
 18 17  1  0  0  0  0
 18 47  1  0  0  0  0
 18 48  1  0  0  0  0
 19 18  1  0  0  0  0
 20 19  1  0  0  0  0
 20 21  1  1  0  0  0
 20 22  2  0  0  0  0
 23 20  1  0  0  0  0
 24 23  1  0  0  0  0
 24 25  1  6  0  0  0
 24 26  2  0  0  0  0
 27 24  1  0  0  0  0
 28 27  1  0  0  0  0
 28 49  1  0  0  0  0
 28 50  1  0  0  0  0
 29 31  1  0  0  0  0
 29 36  1  0  0  0  0
 30 51  1  0  0  0  0
 31 30  1  0  0  0  0
 31 33  1  0  0  0  0
 31 52  1  6  0  0  0
 32 53  1  0  0  0  0
 33 32  1  0  0  0  0
 33 35  1  0  0  0  0
 33 54  1  1  0  0  0
 34 55  1  0  0  0  0
 35 34  1  0  0  0  0
 35 36  1  0  0  0  0
 35 56  1  6  0  0  0
 36 28  1  0  0  0  0
 36 57  1  6  0  0  0
M  END
