3gs7_ligand
 OpenBabel08222323343D

 28 28  0  0  0  0  0  0  0  0999 V2000
   20.9850   39.4800    8.3190 C   0  0  0  0  0  0  0  0  0  0  0  0
   21.0750   40.3020    9.4670 O   0  0  0  0  0  0  0  0  0  0  0  0
   21.0760   41.6800    9.3190 C   0  0  0  0  0  0  0  0  0  0  0  0
   21.0320   42.5780   10.4310 C   0  0  0  0  0  0  0  0  0  0  0  0
   21.0770   43.9650   10.2400 C   0  0  0  0  0  0  0  0  0  0  0  0
   21.1680   44.4690    8.9520 C   0  0  0  0  0  0  0  0  0  0  0  0
   21.2160   43.5900    7.8480 C   0  0  0  0  0  0  0  0  0  0  0  0
   21.1680   42.1890    8.0230 C   0  0  0  0  0  0  0  0  0  0  0  0
   21.2180   41.2780    6.9380 C   0  0  0  0  0  0  0  0  0  0  0  0
   21.3850   41.4700    5.6500 N   0  0  0  0  0  0  0  0  0  0  0  0
   21.5630   42.6700    5.0660 O   0  0  0  0  0  0  0  0  0  0  0  0
   21.7630   42.4320    3.6810 C   0  0  0  0  0  0  0  0  0  0  0  0
   20.4060   42.3800    3.0190 C   0  0  0  0  0  0  0  0  0  0  0  0
   20.5630   42.1010    1.5480 C   0  0  0  0  0  0  0  0  0  0  0  0
   19.7260   41.3490    0.9690 O   0  5  0  0  0  0  0  0  0  0  0  0
   21.5180   42.6550    1.0070 O   0  0  0  0  0  0  0  0  0  0  0  0
   20.9980   38.4229    8.6230 H   0  0  0  0  0  0  0  0  0  0  0  0
   21.8393   39.6813    7.6560 H   0  0  0  0  0  0  0  0  0  0  0  0
   20.0477   39.6965    7.7855 H   0  0  0  0  0  0  0  0  0  0  0  0
   20.9628   42.1795   11.4367 H   0  0  0  0  0  0  0  0  0  0  0  0
   21.0411   44.6367   11.0901 H   0  0  0  0  0  0  0  0  0  0  0  0
   21.2024   45.5406    8.7919 H   0  0  0  0  0  0  0  0  0  0  0  0
   21.2912   43.9982    6.8466 H   0  0  0  0  0  0  0  0  0  0  0  0
   21.0964   40.2341    7.2234 H   0  0  0  0  0  0  0  0  0  0  0  0
   22.2858   41.4748    3.5377 H   0  0  0  0  0  0  0  0  0  0  0  0
   22.3611   43.2454    3.2444 H   0  0  0  0  0  0  0  0  0  0  0  0
   19.8969   43.3456    3.1546 H   0  0  0  0  0  0  0  0  0  0  0  0
   19.8060   41.5813    3.4795 H   0  0  0  0  0  0  0  0  0  0  0  0
  1  2  1  0  0  0  0
  1 17  1  0  0  0  0
  1 18  1  0  0  0  0
  1 19  1  0  0  0  0
  2  3  1  0  0  0  0
  3  4  2  0  0  0  0
  3  8  1  0  0  0  0
  4  5  1  0  0  0  0
  4 20  1  0  0  0  0
  5  6  2  0  0  0  0
  5 21  1  0  0  0  0
  6  7  1  0  0  0  0
  6 22  1  0  0  0  0
  7  8  2  0  0  0  0
  7 23  1  0  0  0  0
  8  9  1  0  0  0  0
  9 10  2  0  0  0  0
  9 24  1  0  0  0  0
 10 11  1  0  0  0  0
 11 12  1  0  0  0  0
 12 13  1  0  0  0  0
 12 25  1  0  0  0  0
 12 26  1  0  0  0  0
 13 14  1  0  0  0  0
 13 27  1  0  0  0  0
 13 28  1  0  0  0  0
 14 15  1  0  0  0  0
 14 16  2  0  0  0  0
M  CHG  1  15  -1
M  END
