3gwv_ligand
 OpenBabel08222323343D

 41 42  0  0  1  0  0  0  0  0999 V2000
   27.2850   25.1570   19.2720 F   0  0  0  0  0  0  0  0  0  0  0  0
   28.3210   24.7390   19.9700 C   0  0  0  0  0  0  0  0  0  0  0  0
   28.9740   25.8030   20.3920 F   0  0  0  0  0  0  0  0  0  0  0  0
   29.1130   24.0210   19.2000 F   0  0  0  0  0  0  0  0  0  0  0  0
   27.8530   23.9030   21.1340 C   0  0  0  0  0  0  0  0  0  0  0  0
   28.2450   24.2330   22.4320 C   0  0  0  0  0  0  0  0  0  0  0  0
   27.8170   23.4620   23.5130 C   0  0  0  0  0  0  0  0  0  0  0  0
   26.9950   22.3520   23.3130 C   0  0  0  0  0  0  0  0  0  0  0  0
   26.5940   22.0220   22.0120 C   0  0  0  0  0  0  0  0  0  0  0  0
   27.0280   22.7940   20.9270 C   0  0  0  0  0  0  0  0  0  0  0  0
   26.5880   21.6380   24.4210 O   0  0  0  0  0  0  0  0  0  0  0  0
   26.3090   20.2340   24.4430 C   0  0  2  0  0  0  0  0  0  0  0  0
   25.2390   19.9490   25.4940 C   0  0  0  0  0  0  0  0  0  0  0  0
   23.9160   19.5580   24.8450 C   0  0  0  0  0  0  0  0  0  0  0  0
   22.9530   20.6440   24.8690 N   0  3  0  0  0  0  0  0  0  0  0  0
   21.7900   20.5640   25.7350 C   0  0  0  0  0  0  0  0  0  0  0  0
   27.5450   19.4840   24.7680 C   0  0  0  0  0  0  0  0  0  0  0  0
   27.6800   18.1590   24.3590 C   0  0  0  0  0  0  0  0  0  0  0  0
   28.8350   17.4370   24.6450 C   0  0  0  0  0  0  0  0  0  0  0  0
   29.8650   18.0470   25.3510 C   0  0  0  0  0  0  0  0  0  0  0  0
   29.7330   19.3720   25.7640 C   0  0  0  0  0  0  0  0  0  0  0  0
   28.5790   20.0950   25.4760 C   0  0  0  0  0  0  0  0  0  0  0  0
   28.8846   25.0918   22.6010 H   0  0  0  0  0  0  0  0  0  0  0  0
   28.1257   23.7275   24.5176 H   0  0  0  0  0  0  0  0  0  0  0  0
   25.9472   21.1683   21.8449 H   0  0  0  0  0  0  0  0  0  0  0  0
   26.7223   22.5299   19.9211 H   0  0  0  0  0  0  0  0  0  0  0  0
   25.9425   19.9191   23.4548 H   0  0  0  0  0  0  0  0  0  0  0  0
   25.0861   20.8517   26.1037 H   0  0  0  0  0  0  0  0  0  0  0  0
   25.5796   19.1248   26.1380 H   0  0  0  0  0  0  0  0  0  0  0  0
   23.4950   18.6989   25.3879 H   0  0  0  0  0  0  0  0  0  0  0  0
   24.1044   19.2743   23.7990 H   0  0  0  0  0  0  0  0  0  0  0  0
   22.6081   20.7480   23.9276 H   0  0  0  0  0  0  0  0  0  0  0  0
   23.4578   21.4747   25.1357 H   0  0  0  0  0  0  0  0  0  0  0  0
   21.1814   21.4726   25.6165 H   0  0  0  0  0  0  0  0  0  0  0  0
   22.1174   20.4760   26.7814 H   0  0  0  0  0  0  0  0  0  0  0  0
   21.1902   19.6829   25.4630 H   0  0  0  0  0  0  0  0  0  0  0  0
   26.8746   17.6840   23.8106 H   0  0  0  0  0  0  0  0  0  0  0  0
   28.9304   16.4073   24.3198 H   0  0  0  0  0  0  0  0  0  0  0  0
   30.7688   17.4939   25.5800 H   0  0  0  0  0  0  0  0  0  0  0  0
   30.5379   19.8443   26.3155 H   0  0  0  0  0  0  0  0  0  0  0  0
   28.4849   21.1253   25.7997 H   0  0  0  0  0  0  0  0  0  0  0  0
  1  2  1  0  0  0  0
  2  3  1  0  0  0  0
  2  4  1  0  0  0  0
  2  5  1  0  0  0  0
  5  6  2  0  0  0  0
  5 10  1  0  0  0  0
  6  7  1  0  0  0  0
  6 23  1  0  0  0  0
  7  8  2  0  0  0  0
  7 24  1  0  0  0  0
  8  9  1  0  0  0  0
  8 11  1  0  0  0  0
  9 10  2  0  0  0  0
  9 25  1  0  0  0  0
 10 26  1  0  0  0  0
 11 12  1  0  0  0  0
 12 13  1  0  0  0  0
 12 17  1  0  0  0  0
 12 27  1  6  0  0  0
 13 14  1  0  0  0  0
 13 28  1  0  0  0  0
 13 29  1  0  0  0  0
 14 15  1  0  0  0  0
 14 30  1  0  0  0  0
 14 31  1  0  0  0  0
 15 16  1  0  0  0  0
 15 32  1  0  0  0  0
 15 33  1  0  0  0  0
 16 34  1  0  0  0  0
 16 35  1  0  0  0  0
 16 36  1  0  0  0  0
 17 18  2  0  0  0  0
 17 22  1  0  0  0  0
 18 19  1  0  0  0  0
 18 37  1  0  0  0  0
 19 20  2  0  0  0  0
 19 38  1  0  0  0  0
 20 21  1  0  0  0  0
 20 39  1  0  0  0  0
 21 22  2  0  0  0  0
 21 40  1  0  0  0  0
 22 41  1  0  0  0  0
M  CHG  1  15   1
M  END
