3gwx_ligand
 OpenBabel08222323343D

 51 50  0  0  0  0  0  0  0  0999 V2000
   35.2730   12.1360   61.7350 C   0  0  0  0  0  0  0  0  0  0  0  0
   34.4850   13.0750   61.9770 O   0  5  0  0  0  0  0  0  0  0  0  0
   36.2310   11.8620   62.5240 O   0  0  0  0  0  0  0  0  0  0  0  0
   35.0620   11.3240   60.4380 C   0  0  0  0  0  0  0  0  0  0  0  0
   35.2530    9.8000   60.6270 C   0  0  0  0  0  0  0  0  0  0  0  0
   35.0240    9.1900   59.2230 C   0  0  0  0  0  0  0  0  0  0  0  0
   35.2220    7.6510   59.1200 C   0  0  0  0  0  0  0  0  0  0  0  0
   34.2240    6.7670   59.2710 C   0  0  0  0  0  0  0  0  0  0  0  0
   32.8570    7.2170   59.5780 C   0  0  0  0  0  0  0  0  0  0  0  0
   31.8960    6.9060   58.4600 C   0  0  0  0  0  0  0  0  0  0  0  0
   30.5870    7.0900   58.6680 C   0  0  0  0  0  0  0  0  0  0  0  0
   30.0590    7.6010   59.9920 C   0  0  0  0  0  0  0  0  0  0  0  0
   29.1350    8.7640   59.7240 C   0  0  0  0  0  0  0  0  0  0  0  0
   27.8580    8.7800   60.1850 C   0  0  0  0  0  0  0  0  0  0  0  0
   27.2020    7.6620   60.9890 C   0  0  0  0  0  0  0  0  0  0  0  0
   26.4500    8.2610   62.1380 C   0  0  0  0  0  0  0  0  0  0  0  0
   25.1970    8.0900   62.5490 C   0  0  0  0  0  0  0  0  0  0  0  0
   24.0940    7.2290   61.9490 C   0  0  0  0  0  0  0  0  0  0  0  0
   22.7550    7.9330   61.8760 C   0  0  0  0  0  0  0  0  0  0  0  0
   22.4130    9.0390   61.1600 C   0  0  0  0  0  0  0  0  0  0  0  0
   23.2550    9.9010   60.2500 C   0  0  0  0  0  0  0  0  0  0  0  0
   22.9110    9.4190   58.8640 C   0  0  0  0  0  0  0  0  0  0  0  0
   35.7840   11.6749   59.6860 H   0  0  0  0  0  0  0  0  0  0  0  0
   34.0389   11.5046   60.0765 H   0  0  0  0  0  0  0  0  0  0  0  0
   34.5191    9.4045   61.3446 H   0  0  0  0  0  0  0  0  0  0  0  0
   36.2700    9.5791   60.9832 H   0  0  0  0  0  0  0  0  0  0  0  0
   35.7277    9.6693   58.5266 H   0  0  0  0  0  0  0  0  0  0  0  0
   33.9924    9.4199   58.9180 H   0  0  0  0  0  0  0  0  0  0  0  0
   36.2218    7.2713   58.9148 H   0  0  0  0  0  0  0  0  0  0  0  0
   34.4283    5.7026   59.1650 H   0  0  0  0  0  0  0  0  0  0  0  0
   32.8697    8.3045   59.7431 H   0  0  0  0  0  0  0  0  0  0  0  0
   32.5136    6.7112   60.4925 H   0  0  0  0  0  0  0  0  0  0  0  0
   32.2596    6.5387   57.5015 H   0  0  0  0  0  0  0  0  0  0  0  0
   29.8848    6.8670   57.8661 H   0  0  0  0  0  0  0  0  0  0  0  0
   30.8973    7.9313   60.6229 H   0  0  0  0  0  0  0  0  0  0  0  0
   29.5072    6.7997   60.5053 H   0  0  0  0  0  0  0  0  0  0  0  0
   29.5017    9.6113   59.1465 H   0  0  0  0  0  0  0  0  0  0  0  0
   27.2552    9.6595   59.9635 H   0  0  0  0  0  0  0  0  0  0  0  0
   27.9759    6.9799   61.3708 H   0  0  0  0  0  0  0  0  0  0  0  0
   26.5068    7.1039   60.3447 H   0  0  0  0  0  0  0  0  0  0  0  0
   27.0304    8.9574   62.7414 H   0  0  0  0  0  0  0  0  0  0  0  0
   24.9199    8.6458   63.4435 H   0  0  0  0  0  0  0  0  0  0  0  0
   23.9803    6.3266   62.5677 H   0  0  0  0  0  0  0  0  0  0  0  0
   24.3921    6.9401   60.9304 H   0  0  0  0  0  0  0  0  0  0  0  0
   21.9591    7.4957   62.4770 H   0  0  0  0  0  0  0  0  0  0  0  0
   21.3738    9.3495   61.2585 H   0  0  0  0  0  0  0  0  0  0  0  0
   24.3257    9.7588   60.4582 H   0  0  0  0  0  0  0  0  0  0  0  0
   22.9962   10.9635   60.3692 H   0  0  0  0  0  0  0  0  0  0  0  0
   23.4834    9.9959   58.1226 H   0  0  0  0  0  0  0  0  0  0  0  0
   21.8346    9.5571   58.6844 H   0  0  0  0  0  0  0  0  0  0  0  0
   23.1641    8.3524   58.7734 H   0  0  0  0  0  0  0  0  0  0  0  0
  1  4  1  0  0  0  0
  1  3  2  0  0  0  0
  1  2  1  0  0  0  0
  4  5  1  0  0  0  0
  4 23  1  0  0  0  0
  4 24  1  0  0  0  0
  5  6  1  0  0  0  0
  5 25  1  0  0  0  0
  5 26  1  0  0  0  0
  6  7  1  0  0  0  0
  6 27  1  0  0  0  0
  6 28  1  0  0  0  0
  7  8  2  0  0  0  0
  7 29  1  0  0  0  0
  8  9  1  0  0  0  0
  8 30  1  0  0  0  0
  9 10  1  0  0  0  0
  9 31  1  0  0  0  0
  9 32  1  0  0  0  0
 10 11  2  0  0  0  0
 10 33  1  0  0  0  0
 11 12  1  0  0  0  0
 11 34  1  0  0  0  0
 12 13  1  0  0  0  0
 12 35  1  0  0  0  0
 12 36  1  0  0  0  0
 13 14  2  0  0  0  0
 13 37  1  0  0  0  0
 14 15  1  0  0  0  0
 14 38  1  0  0  0  0
 15 16  1  0  0  0  0
 15 39  1  0  0  0  0
 15 40  1  0  0  0  0
 16 17  2  0  0  0  0
 16 41  1  0  0  0  0
 17 18  1  0  0  0  0
 17 42  1  0  0  0  0
 18 19  1  0  0  0  0
 18 43  1  0  0  0  0
 18 44  1  0  0  0  0
 19 20  2  0  0  0  0
 19 45  1  0  0  0  0
 20 21  1  0  0  0  0
 20 46  1  0  0  0  0
 21 22  1  0  0  0  0
 21 47  1  0  0  0  0
 21 48  1  0  0  0  0
 22 49  1  0  0  0  0
 22 50  1  0  0  0  0
 22 51  1  0  0  0  0
M  CHG  1   2  -1
M  END
