3gxz_ligand
 OpenBabel08222323343D

225234  0  0  1  0  0  0  0  0999 V2000
   15.3610   64.4960  142.2250 C   0  0  2  0  0  0  0  0  0  0  0  0
   14.3830   64.2890  141.0360 C   0  0  1  0  0  0  0  0  0  0  0  0
   14.9180   64.9040  139.7260 C   0  0  2  0  0  0  0  0  0  0  0  0
   16.3900   64.5630  139.3700 C   0  0  1  0  0  0  0  0  0  0  0  0
   17.2190   64.2360  140.6430 C   0  0  1  0  0  0  0  0  0  0  0  0
   18.6670   64.7170  140.5070 C   0  0  0  0  0  0  0  0  0  0  0  0
   13.2910   62.1590  141.7500 C   0  0  0  0  0  0  0  0  0  0  0  0
   12.9060   60.7280  141.4290 C   0  0  0  0  0  0  0  0  0  0  0  0
   13.9510   62.8850  140.8320 N   0  0  0  0  0  0  0  0  0  0  0  0
   14.8420   65.5030  143.0950 O   0  0  0  0  0  0  0  0  0  0  0  0
   14.7020   66.3000  139.7800 O   0  0  0  0  0  0  0  0  0  0  0  0
   16.3170   63.5340  138.3520 O   0  0  0  0  0  0  0  0  0  0  0  0
   16.6980   64.8440  141.8290 O   0  0  0  0  0  0  0  0  0  0  0  0
   19.4640   63.6130  140.1210 O   0  0  0  0  0  0  0  0  0  0  0  0
   13.0070   62.6540  142.8470 O   0  0  0  0  0  0  0  0  0  0  0  0
   17.5050   62.9900  137.6470 C   0  0  1  0  0  0  0  0  0  0  0  0
   18.5210   63.9640  136.9840 C   0  0  1  0  0  0  0  0  0  0  0  0
   19.5150   63.1610  136.1030 C   0  0  2  0  0  0  0  0  0  0  0  0
   20.1160   62.0280  136.9900 C   0  0  1  0  0  0  0  0  0  0  0  0
   18.9340   61.1250  137.3580 C   0  0  1  0  0  0  0  0  0  0  0  0
   19.3340   59.7760  137.9690 C   0  0  0  0  0  0  0  0  0  0  0  0
   17.7500   65.1650  134.8950 C   0  0  0  0  0  0  0  0  0  0  0  0
   18.5050   64.1970  134.0050 C   0  0  0  0  0  0  0  0  0  0  0  0
   17.8060   65.0120  136.2380 N   0  0  0  0  0  0  0  0  0  0  0  0
   20.4410   64.0340  135.4690 O   0  0  0  0  0  0  0  0  0  0  0  0
   21.3740   61.3880  136.6460 O   0  0  0  0  0  0  0  0  0  0  0  0
   18.1790   61.8990  138.2890 O   0  0  0  0  0  0  0  0  0  0  0  0
   20.7410   59.6970  138.0140 O   0  0  0  0  0  0  0  0  0  0  0  0
   17.0960   66.0910  134.3860 O   0  0  0  0  0  0  0  0  0  0  0  0
   21.5170   60.3870  135.5710 C   0  0  1  0  0  0  0  0  0  0  0  0
   21.3590   58.8910  135.9620 C   0  0  2  0  0  0  0  0  0  0  0  0
   21.8590   58.0570  134.7610 C   0  0  2  0  0  0  0  0  0  0  0  0
   20.9720   58.3550  133.5430 C   0  0  1  0  0  0  0  0  0  0  0  0
   20.3280   59.7710  133.5100 C   0  0  1  0  0  0  0  0  0  0  0  0
   18.8380   59.8260  133.8410 C   0  0  0  0  0  0  0  0  0  0  0  0
   20.0430   58.5250  136.3690 O   0  0  0  0  0  0  0  0  0  0  0  0
   22.0120   56.6550  135.0080 O   0  0  0  0  0  0  0  0  0  0  0  0
   21.7730   58.1850  132.3940 O   0  0  0  0  0  0  0  0  0  0  0  0
   20.9530   60.7630  134.3100 O   0  0  0  0  0  0  0  0  0  0  0  0
   18.2760   58.8080  133.0610 O   0  0  0  0  0  0  0  0  0  0  0  0
   23.1140   56.0760  134.2340 C   0  0  2  0  0  0  0  0  0  0  0  0
   22.8630   54.6650  133.6730 C   0  0  2  0  0  0  0  0  0  0  0  0
   22.7520   53.6820  134.8360 C   0  0  2  0  0  0  0  0  0  0  0  0
   24.1280   53.6430  135.4720 C   0  0  1  0  0  0  0  0  0  0  0  0
   24.5490   55.0470  135.8950 C   0  0  1  0  0  0  0  0  0  0  0  0
   26.0230   54.9940  136.2740 C   0  0  0  0  0  0  0  0  0  0  0  0
   24.0050   54.2530  132.9370 O   0  0  0  0  0  0  0  0  0  0  0  0
   22.4080   52.3660  134.4580 O   0  0  0  0  0  0  0  0  0  0  0  0
   24.1490   52.7490  136.5710 O   0  0  0  0  0  0  0  0  0  0  0  0
   24.3610   56.0570  134.9040 O   0  0  0  0  0  0  0  0  0  0  0  0
   26.3850   56.2600  136.7690 O   0  0  0  0  0  0  0  0  0  0  0  0
   24.0120   54.5600  131.5240 C   0  0  2  0  0  0  0  0  0  0  0  0
   24.7430   53.4520  130.7520 C   0  0  2  0  0  0  0  0  0  0  0  0
   26.2680   53.5340  130.8700 C   0  0  2  0  0  0  0  0  0  0  0  0
   26.7420   54.9340  130.5200 C   0  0  1  0  0  0  0  0  0  0  0  0
   25.9910   55.9250  131.3910 C   0  0  1  0  0  0  0  0  0  0  0  0
   26.4460   57.3300  131.0390 C   0  0  0  0  0  0  0  0  0  0  0  0
   24.4500   53.4930  129.3680 O   0  0  0  0  0  0  0  0  0  0  0  0
   26.8870   52.6380  129.9790 O   0  0  0  0  0  0  0  0  0  0  0  0
   28.1410   55.0560  130.7240 O   0  0  0  0  0  0  0  0  0  0  0  0
   24.5880   55.8200  131.2080 O   0  0  0  0  0  0  0  0  0  0  0  0
   25.6290   58.2190  131.7720 O   0  0  0  0  0  0  0  0  0  0  0  0
   23.0600   53.7740  129.1080 C   0  0  2  0  0  0  0  0  0  0  0  0
   22.8620   53.5440  127.6090 C   0  0  2  0  0  0  0  0  0  0  0  0
   23.0390   54.8520  126.8590 C   0  0  2  0  0  0  0  0  0  0  0  0
   21.9460   55.8100  127.3040 C   0  0  1  0  0  0  0  0  0  0  0  0
   21.7910   55.8650  128.8270 C   0  0  1  0  0  0  0  0  0  0  0  0
   20.3850   55.5700  129.3330 C   0  0  0  0  0  0  0  0  0  0  0  0
   21.5870   52.9910  127.3560 O   0  0  0  0  0  0  0  0  0  0  0  0
   22.9720   54.6490  125.4630 O   0  0  0  0  0  0  0  0  0  0  0  0
   22.3060   57.0820  126.8310 O   0  0  0  0  0  0  0  0  0  0  0  0
   22.7290   55.0850  129.5520 O   0  0  0  0  0  0  0  0  0  0  0  0
   20.4370   55.3240  130.7280 O   0  0  0  0  0  0  0  0  0  0  0  0
   17.1280   59.2520  132.3200 C   0  0  2  0  0  0  0  0  0  0  0  0
   16.1480   58.0830  132.4210 C   0  0  2  0  0  0  0  0  0  0  0  0
   16.8020   56.8710  131.7540 C   0  0  2  0  0  0  0  0  0  0  0  0
   17.0470   57.2280  130.2880 C   0  0  1  0  0  0  0  0  0  0  0  0
   17.9650   58.4490  130.2260 C   0  0  1  0  0  0  0  0  0  0  0  0
   18.1380   58.8670  128.7780 C   0  0  0  0  0  0  0  0  0  0  0  0
   14.8920   58.3790  131.8420 O   0  0  0  0  0  0  0  0  0  0  0  0
   16.0560   55.6810  131.9460 O   0  0  0  0  0  0  0  0  0  0  0  0
   17.6370   56.1490  129.5980 O   0  0  0  0  0  0  0  0  0  0  0  0
   17.4500   59.5480  130.9700 O   0  0  0  0  0  0  0  0  0  0  0  0
   19.0550   59.9320  128.7240 O   0  0  0  0  0  0  0  0  0  0  0  0
   16.0440   55.3900  133.3590 C   0  0  2  0  0  0  0  0  0  0  0  0
   16.1290   53.8900  133.5360 C   0  0  2  0  0  0  0  0  0  0  0  0
   14.8080   53.3360  133.0280 C   0  0  2  0  0  0  0  0  0  0  0  0
   13.6840   53.7590  133.9720 C   0  0  1  0  0  0  0  0  0  0  0  0
   13.9250   55.1260  134.6420 C   0  0  1  0  0  0  0  0  0  0  0  0
   14.2040   55.0140  136.1450 C   0  0  0  0  0  0  0  0  0  0  0  0
   16.3390   53.5800  134.8970 O   0  0  0  0  0  0  0  0  0  0  0  0
   14.8760   51.9320  132.8780 O   0  0  0  0  0  0  0  0  0  0  0  0
   12.4690   53.8060  133.2510 O   0  0  0  0  0  0  0  0  0  0  0  0
   14.9040   55.9500  134.0050 O   0  0  0  0  0  0  0  0  0  0  0  0
   14.0280   56.2760  136.7550 O   0  0  0  0  0  0  0  0  0  0  0  0
   19.1350   60.3630  127.3490 C   0  0  2  0  0  0  0  0  0  0  0  0
   20.5100   60.0920  126.7190 C   0  0  2  0  0  0  0  0  0  0  0  0
   21.5000   61.2220  127.0690 C   0  0  2  0  0  0  0  0  0  0  0  0
   20.9810   62.2430  128.1060 C   0  0  1  0  0  0  0  0  0  0  0  0
   19.4780   62.5540  128.0830 C   0  0  1  0  0  0  0  0  0  0  0  0
   19.2050   64.0080  127.6840 C   0  0  0  0  0  0  0  0  0  0  0  0
   20.3950   59.8850  125.3020 O   0  0  0  0  0  0  0  0  0  0  0  0
   21.9280   61.9080  125.9100 O   0  0  0  0  0  0  0  0  0  0  0  0
   21.3170   61.8280  129.4170 O   0  0  0  0  0  0  0  0  0  0  0  0
   18.7890   61.7170  127.1830 O   0  0  0  0  0  0  0  0  0  0  0  0
   17.8140   64.1490  127.4760 O   0  0  0  0  0  0  0  0  0  0  0  0
   20.2110   58.4780  124.9180 C   0  0  2  0  0  0  0  0  0  0  0  0
   20.7240   58.2080  123.4810 C   0  0  2  0  0  0  0  0  0  0  0  0
   20.1200   56.9950  122.7450 C   0  0  2  0  0  0  0  0  0  0  0  0
   18.6330   56.7820  123.0530 C   0  0  1  0  0  0  0  0  0  0  0  0
   18.0720   57.8620  123.9750 C   0  0  1  0  0  0  0  0  0  0  0  0
   16.6420   57.5040  124.3940 C   0  0  0  0  0  0  0  0  0  0  0  0
   22.1350   58.0630  123.4790 O   0  0  0  0  0  0  0  0  0  0  0  0
   20.8780   55.8100  122.9750 O   0  0  0  0  0  0  0  0  0  0  0  0
   17.8940   56.7650  121.8470 O   0  0  0  0  0  0  0  0  0  0  0  0
   18.8920   57.9750  125.1270 O   0  0  0  0  0  0  0  0  0  0  0  0
   15.7740   58.6060  124.2220 O   0  0  0  0  0  0  0  0  0  0  0  0
   15.4151   63.5483  142.7807 H   0  0  0  0  0  0  0  0  0  0  0  0
   13.4737   64.8511  141.2951 H   0  0  0  0  0  0  0  0  0  0  0  0
   14.3029   64.5007  138.9081 H   0  0  0  0  0  0  0  0  0  0  0  0
   16.8564   65.4485  138.9134 H   0  0  0  0  0  0  0  0  0  0  0  0
   17.2138   63.1440  140.7751 H   0  0  0  0  0  0  0  0  0  0  0  0
   19.0203   65.1127  141.4706 H   0  0  0  0  0  0  0  0  0  0  0  0
   18.7274   65.5055  139.7425 H   0  0  0  0  0  0  0  0  0  0  0  0
   12.3765   60.2894  142.2876 H   0  0  0  0  0  0  0  0  0  0  0  0
   13.8133   60.1423  141.2196 H   0  0  0  0  0  0  0  0  0  0  0  0
   12.2488   60.7141  140.5470 H   0  0  0  0  0  0  0  0  0  0  0  0
   14.1643   62.4515  139.9564 H   0  0  0  0  0  0  0  0  0  0  0  0
   14.8304   66.3372  142.6406 H   0  0  0  0  0  0  0  0  0  0  0  0
   13.7936   66.4705  139.9996 H   0  0  0  0  0  0  0  0  0  0  0  0
   19.1523   63.2739  139.2902 H   0  0  0  0  0  0  0  0  0  0  0  0
   17.0370   62.5111  136.7743 H   0  0  0  0  0  0  0  0  0  0  0  0
   19.0993   64.4560  137.7799 H   0  0  0  0  0  0  0  0  0  0  0  0
   18.9459   62.6730  135.2981 H   0  0  0  0  0  0  0  0  0  0  0  0
   20.3773   62.5386  137.9286 H   0  0  0  0  0  0  0  0  0  0  0  0
   18.3336   60.9267  136.4579 H   0  0  0  0  0  0  0  0  0  0  0  0
   18.9374   58.9577  137.3501 H   0  0  0  0  0  0  0  0  0  0  0  0
   18.9265   59.6961  138.9876 H   0  0  0  0  0  0  0  0  0  0  0  0
   18.3481   64.4695  132.9509 H   0  0  0  0  0  0  0  0  0  0  0  0
   18.1360   63.1754  134.1784 H   0  0  0  0  0  0  0  0  0  0  0  0
   19.5786   64.2439  134.2400 H   0  0  0  0  0  0  0  0  0  0  0  0
   17.3067   65.6849  136.7838 H   0  0  0  0  0  0  0  0  0  0  0  0
   19.9670   64.6800  134.9586 H   0  0  0  0  0  0  0  0  0  0  0  0
   21.0894   59.7680  137.1331 H   0  0  0  0  0  0  0  0  0  0  0  0
   22.5953   60.4436  135.3610 H   0  0  0  0  0  0  0  0  0  0  0  0
   22.0220   58.6943  136.8174 H   0  0  0  0  0  0  0  0  0  0  0  0
   22.8665   58.4284  134.5223 H   0  0  0  0  0  0  0  0  0  0  0  0
   20.1556   57.6180  133.5292 H   0  0  0  0  0  0  0  0  0  0  0  0
   20.4310   60.1012  132.4658 H   0  0  0  0  0  0  0  0  0  0  0  0
   18.4139   60.8042  133.5704 H   0  0  0  0  0  0  0  0  0  0  0  0
   18.6686   59.6363  134.9112 H   0  0  0  0  0  0  0  0  0  0  0  0
   19.7800   59.0624  137.1069 H   0  0  0  0  0  0  0  0  0  0  0  0
   22.1684   57.3214  132.4099 H   0  0  0  0  0  0  0  0  0  0  0  0
   23.2337   56.7398  133.3651 H   0  0  0  0  0  0  0  0  0  0  0  0
   21.9574   54.6508  133.0487 H   0  0  0  0  0  0  0  0  0  0  0  0
   22.0047   54.0516  135.5535 H   0  0  0  0  0  0  0  0  0  0  0  0
   24.8457   53.2794  134.7219 H   0  0  0  0  0  0  0  0  0  0  0  0
   23.9571   55.3285  136.7784 H   0  0  0  0  0  0  0  0  0  0  0  0
   26.6287   54.7512  135.3885 H   0  0  0  0  0  0  0  0  0  0  0  0
   26.1831   54.2295  137.0486 H   0  0  0  0  0  0  0  0  0  0  0  0
   23.0478   52.0387  133.8367 H   0  0  0  0  0  0  0  0  0  0  0  0
   25.0286   52.7078  136.9275 H   0  0  0  0  0  0  0  0  0  0  0  0
   27.3031   56.2527  137.0131 H   0  0  0  0  0  0  0  0  0  0  0  0
   22.9651   54.5822  131.1872 H   0  0  0  0  0  0  0  0  0  0  0  0
   24.4093   52.4866  131.1601 H   0  0  0  0  0  0  0  0  0  0  0  0
   26.5626   53.2897  131.9013 H   0  0  0  0  0  0  0  0  0  0  0  0
   26.5188   55.1381  129.4624 H   0  0  0  0  0  0  0  0  0  0  0  0
   26.2259   55.7210  132.4461 H   0  0  0  0  0  0  0  0  0  0  0  0
   26.3261   57.5078  129.9601 H   0  0  0  0  0  0  0  0  0  0  0  0
   27.5010   57.4676  131.3183 H   0  0  0  0  0  0  0  0  0  0  0  0
   26.6405   52.8579  129.0883 H   0  0  0  0  0  0  0  0  0  0  0  0
   28.5960   54.4303  130.1728 H   0  0  0  0  0  0  0  0  0  0  0  0
   24.7205   58.0869  131.5276 H   0  0  0  0  0  0  0  0  0  0  0  0
   22.4302   53.0616  129.6609 H   0  0  0  0  0  0  0  0  0  0  0  0
   23.6251   52.8333  127.2590 H   0  0  0  0  0  0  0  0  0  0  0  0
   24.0212   55.2803  127.1075 H   0  0  0  0  0  0  0  0  0  0  0  0
   20.9882   55.5003  126.8606 H   0  0  0  0  0  0  0  0  0  0  0  0
   21.9966   56.9117  129.0957 H   0  0  0  0  0  0  0  0  0  0  0  0
   19.9861   54.6841  128.8173 H   0  0  0  0  0  0  0  0  0  0  0  0
   19.7334   56.4339  129.1353 H   0  0  0  0  0  0  0  0  0  0  0  0
   21.4935   52.8265  126.4250 H   0  0  0  0  0  0  0  0  0  0  0  0
   22.1254   54.2815  125.2378 H   0  0  0  0  0  0  0  0  0  0  0  0
   22.4030   57.0516  125.8864 H   0  0  0  0  0  0  0  0  0  0  0  0
   21.0010   54.5783  130.8961 H   0  0  0  0  0  0  0  0  0  0  0  0
   16.6989   60.1512  132.7862 H   0  0  0  0  0  0  0  0  0  0  0  0
   15.9828   57.8553  133.4844 H   0  0  0  0  0  0  0  0  0  0  0  0
   17.7821   56.7098  132.2266 H   0  0  0  0  0  0  0  0  0  0  0  0
   16.0858   57.4714  129.8118 H   0  0  0  0  0  0  0  0  0  0  0  0
   18.9449   58.1724  130.6423 H   0  0  0  0  0  0  0  0  0  0  0  0
   17.1701   59.1905  128.3677 H   0  0  0  0  0  0  0  0  0  0  0  0
   18.5202   58.0190  128.1908 H   0  0  0  0  0  0  0  0  0  0  0  0
   14.5139   59.1340  132.2773 H   0  0  0  0  0  0  0  0  0  0  0  0
   18.4709   55.9356  129.9999 H   0  0  0  0  0  0  0  0  0  0  0  0
   16.9381   55.8416  133.8136 H   0  0  0  0  0  0  0  0  0  0  0  0
   16.9595   53.4819  132.9413 H   0  0  0  0  0  0  0  0  0  0  0  0
   14.6064   53.7717  132.0383 H   0  0  0  0  0  0  0  0  0  0  0  0
   13.6003   53.0007  134.7644 H   0  0  0  0  0  0  0  0  0  0  0  0
   12.9723   55.6677  134.5472 H   0  0  0  0  0  0  0  0  0  0  0  0
   15.2381   54.6731  136.3010 H   0  0  0  0  0  0  0  0  0  0  0  0
   13.5077   54.2903  136.5937 H   0  0  0  0  0  0  0  0  0  0  0  0
   15.6381   53.9543  135.4177 H   0  0  0  0  0  0  0  0  0  0  0  0
   15.0336   51.5314  133.7249 H   0  0  0  0  0  0  0  0  0  0  0  0
   12.3157   52.9654  132.8359 H   0  0  0  0  0  0  0  0  0  0  0  0
   13.1347   56.5698  136.6202 H   0  0  0  0  0  0  0  0  0  0  0  0
   18.3983   59.7682  126.7891 H   0  0  0  0  0  0  0  0  0  0  0  0
   20.9020   59.1620  127.1566 H   0  0  0  0  0  0  0  0  0  0  0  0
   22.3823   60.7374  127.5126 H   0  0  0  0  0  0  0  0  0  0  0  0
   21.5054   63.1878  127.9002 H   0  0  0  0  0  0  0  0  0  0  0  0
   19.0811   62.3861  129.0950 H   0  0  0  0  0  0  0  0  0  0  0  0
   19.7474   64.2493  126.7580 H   0  0  0  0  0  0  0  0  0  0  0  0
   19.5328   64.6837  128.4877 H   0  0  0  0  0  0  0  0  0  0  0  0
   22.2473   61.2808  125.2719 H   0  0  0  0  0  0  0  0  0  0  0  0
   20.8159   61.0525  129.6407 H   0  0  0  0  0  0  0  0  0  0  0  0
   17.5372   63.5604  126.7836 H   0  0  0  0  0  0  0  0  0  0  0  0
   20.8598   57.8970  125.5900 H   0  0  0  0  0  0  0  0  0  0  0  0
   20.4706   59.0993  122.8883 H   0  0  0  0  0  0  0  0  0  0  0  0
   20.1893   57.2145  121.6694 H   0  0  0  0  0  0  0  0  0  0  0  0
   18.5205   55.8083  123.5523 H   0  0  0  0  0  0  0  0  0  0  0  0
   18.0618   58.8236  123.4410 H   0  0  0  0  0  0  0  0  0  0  0  0
   16.6410   57.2070  125.4531 H   0  0  0  0  0  0  0  0  0  0  0  0
   16.2856   56.6655  123.7776 H   0  0  0  0  0  0  0  0  0  0  0  0
   22.3701   57.2576  123.9246 H   0  0  0  0  0  0  0  0  0  0  0  0
   21.7917   55.9761  122.7752 H   0  0  0  0  0  0  0  0  0  0  0  0
   18.2425   56.0932  121.2728 H   0  0  0  0  0  0  0  0  0  0  0  0
   14.8957   58.3603  124.4877 H   0  0  0  0  0  0  0  0  0  0  0  0
  1 10  1  0  0  0  0
  1118  1  1  0  0  0
  2  1  1  0  0  0  0
  2  9  1  0  0  0  0
  2119  1  1  0  0  0
  3  2  1  0  0  0  0
  3 11  1  0  0  0  0
  3120  1  6  0  0  0
  4  3  1  0  0  0  0
  4  5  1  0  0  0  0
  4121  1  6  0  0  0
  5  6  1  0  0  0  0
  5 13  1  0  0  0  0
  5122  1  1  0  0  0
  6 14  1  0  0  0  0
  6123  1  0  0  0  0
  6124  1  0  0  0  0
  7  8  1  0  0  0  0
  7 15  2  0  0  0  0
  8125  1  0  0  0  0
  8126  1  0  0  0  0
  8127  1  0  0  0  0
  9  7  1  0  0  0  0
  9128  1  0  0  0  0
 10129  1  0  0  0  0
 11130  1  0  0  0  0
 12  4  1  0  0  0  0
 13  1  1  0  0  0  0
 14131  1  0  0  0  0
 16 12  1  0  0  0  0
 16 27  1  0  0  0  0
 16132  1  6  0  0  0
 17 16  1  0  0  0  0
 17 18  1  0  0  0  0
 17133  1  1  0  0  0
 18 19  1  0  0  0  0
 18 25  1  0  0  0  0
 18134  1  6  0  0  0
 19 20  1  0  0  0  0
 19 26  1  0  0  0  0
 19135  1  1  0  0  0
 20 21  1  0  0  0  0
 20136  1  6  0  0  0
 21 28  1  0  0  0  0
 21137  1  0  0  0  0
 21138  1  0  0  0  0
 22 23  1  0  0  0  0
 22 24  1  0  0  0  0
 22 29  2  0  0  0  0
 23139  1  0  0  0  0
 23140  1  0  0  0  0
 23141  1  0  0  0  0
 24 17  1  0  0  0  0
 24142  1  0  0  0  0
 25143  1  0  0  0  0
 26 30  1  0  0  0  0
 27 20  1  0  0  0  0
 28144  1  0  0  0  0
 30 31  1  0  0  0  0
 30 39  1  0  0  0  0
 30145  1  6  0  0  0
 31 32  1  0  0  0  0
 31 36  1  0  0  0  0
 31146  1  1  0  0  0
 32 33  1  0  0  0  0
 32 37  1  0  0  0  0
 32147  1  6  0  0  0
 33 34  1  0  0  0  0
 33 38  1  0  0  0  0
 33148  1  6  0  0  0
 34 35  1  0  0  0  0
 34 39  1  0  0  0  0
 34149  1  6  0  0  0
 35 40  1  0  0  0  0
 35150  1  0  0  0  0
 35151  1  0  0  0  0
 36152  1  0  0  0  0
 37 41  1  0  0  0  0
 38153  1  0  0  0  0
 40 74  1  0  0  0  0
 41 42  1  0  0  0  0
 41 50  1  0  0  0  0
 41154  1  6  0  0  0
 42 43  1  0  0  0  0
 42 47  1  0  0  0  0
 42155  1  6  0  0  0
 43 44  1  0  0  0  0
 43 48  1  0  0  0  0
 43156  1  1  0  0  0
 44 45  1  0  0  0  0
 44 49  1  0  0  0  0
 44157  1  6  0  0  0
 45 46  1  0  0  0  0
 45 50  1  0  0  0  0
 45158  1  1  0  0  0
 46 51  1  0  0  0  0
 46159  1  0  0  0  0
 46160  1  0  0  0  0
 47 52  1  0  0  0  0
 48161  1  0  0  0  0
 49162  1  0  0  0  0
 51163  1  0  0  0  0
 52 53  1  0  0  0  0
 52 61  1  0  0  0  0
 52164  1  6  0  0  0
 53 54  1  0  0  0  0
 53 58  1  0  0  0  0
 53165  1  1  0  0  0
 54 55  1  0  0  0  0
 54 59  1  0  0  0  0
 54166  1  1  0  0  0
 55 56  1  0  0  0  0
 55 60  1  0  0  0  0
 55167  1  6  0  0  0
 56 57  1  0  0  0  0
 56 61  1  0  0  0  0
 56168  1  1  0  0  0
 57 62  1  0  0  0  0
 57169  1  0  0  0  0
 57170  1  0  0  0  0
 58 63  1  0  0  0  0
 59171  1  0  0  0  0
 60172  1  0  0  0  0
 62173  1  0  0  0  0
 63 64  1  0  0  0  0
 63 72  1  0  0  0  0
 63174  1  1  0  0  0
 64 65  1  0  0  0  0
 64 69  1  0  0  0  0
 64175  1  6  0  0  0
 65 66  1  0  0  0  0
 65 70  1  0  0  0  0
 65176  1  1  0  0  0
 66 67  1  0  0  0  0
 66 71  1  0  0  0  0
 66177  1  6  0  0  0
 67 68  1  0  0  0  0
 67 72  1  0  0  0  0
 67178  1  1  0  0  0
 68 73  1  0  0  0  0
 68179  1  0  0  0  0
 68180  1  0  0  0  0
 69181  1  0  0  0  0
 70182  1  0  0  0  0
 71183  1  0  0  0  0
 73184  1  0  0  0  0
 74 75  1  0  0  0  0
 74 83  1  0  0  0  0
 74185  1  1  0  0  0
 75 76  1  0  0  0  0
 75 80  1  0  0  0  0
 75186  1  1  0  0  0
 76 77  1  0  0  0  0
 76 81  1  0  0  0  0
 76187  1  1  0  0  0
 77 78  1  0  0  0  0
 77 82  1  0  0  0  0
 77188  1  6  0  0  0
 78 79  1  0  0  0  0
 78 83  1  0  0  0  0
 78189  1  1  0  0  0
 79 84  1  0  0  0  0
 79190  1  0  0  0  0
 79191  1  0  0  0  0
 80192  1  0  0  0  0
 81 85  1  0  0  0  0
 82193  1  0  0  0  0
 84 96  1  0  0  0  0
 85 86  1  0  0  0  0
 85 94  1  0  0  0  0
 85194  1  1  0  0  0
 86 87  1  0  0  0  0
 86 91  1  0  0  0  0
 86195  1  6  0  0  0
 87 88  1  0  0  0  0
 87 92  1  0  0  0  0
 87196  1  6  0  0  0
 88 89  1  0  0  0  0
 88 93  1  0  0  0  0
 88197  1  1  0  0  0
 89 90  1  0  0  0  0
 89 94  1  0  0  0  0
 89198  1  6  0  0  0
 90 95  1  0  0  0  0
 90199  1  0  0  0  0
 90200  1  0  0  0  0
 91201  1  0  0  0  0
 92202  1  0  0  0  0
 93203  1  0  0  0  0
 95204  1  0  0  0  0
 96 97  1  0  0  0  0
 96105  1  0  0  0  0
 96205  1  6  0  0  0
 97 98  1  0  0  0  0
 97102  1  0  0  0  0
 97206  1  1  0  0  0
 98 99  1  0  0  0  0
 98103  1  0  0  0  0
 98207  1  1  0  0  0
 99100  1  0  0  0  0
 99104  1  0  0  0  0
 99208  1  6  0  0  0
100101  1  0  0  0  0
100105  1  0  0  0  0
100209  1  1  0  0  0
101106  1  0  0  0  0
101210  1  0  0  0  0
101211  1  0  0  0  0
102107  1  0  0  0  0
103212  1  0  0  0  0
104213  1  0  0  0  0
106214  1  0  0  0  0
107108  1  0  0  0  0
107116  1  0  0  0  0
107215  1  1  0  0  0
108109  1  0  0  0  0
108113  1  0  0  0  0
108216  1  6  0  0  0
109110  1  0  0  0  0
109114  1  0  0  0  0
109217  1  6  0  0  0
110111  1  0  0  0  0
110115  1  0  0  0  0
110218  1  1  0  0  0
111112  1  0  0  0  0
111116  1  0  0  0  0
111219  1  6  0  0  0
112117  1  0  0  0  0
112220  1  0  0  0  0
112221  1  0  0  0  0
113222  1  0  0  0  0
114223  1  0  0  0  0
115224  1  0  0  0  0
117225  1  0  0  0  0
M  END
