3gyn_ligand
 OpenBabel08222323343D

 70 73  0  0  1  0  0  0  0  0999 V2000
   95.8800    7.0940   63.7860 O   0  0  0  0  0  0  0  0  0  0  0  0
   96.4120    8.3350   64.3280 S   0  0  0  0  0  0  0  0  0  0  0  0
   95.9970    8.7650   65.6400 O   0  0  0  0  0  0  0  0  0  0  0  0
   98.1850    8.2380   64.4260 C   0  0  0  0  0  0  0  0  0  0  0  0
   96.2480    9.6440   63.2180 N   0  0  0  0  0  0  0  0  0  0  0  0
   96.0730    9.4350   61.8080 C   0  0  0  0  0  0  0  0  0  0  0  0
   95.3600   10.3820   61.0690 C   0  0  0  0  0  0  0  0  0  0  0  0
   96.6090    8.3140   61.1530 C   0  0  0  0  0  0  0  0  0  0  0  0
   96.4260    8.1500   59.7730 C   0  0  0  0  0  0  0  0  0  0  0  0
   97.0830    6.7200   58.9770 S   0  0  0  0  0  0  0  0  0  0  0  0
   98.4090    6.4840   59.4990 O   0  0  0  0  0  0  0  0  0  0  0  0
   96.0370    5.7210   59.1000 O   0  0  0  0  0  0  0  0  0  0  0  0
   97.1570    7.2590   57.3750 N   0  0  0  0  0  0  0  0  0  0  0  0
   96.3400    8.3230   56.9020 C   0  0  0  0  0  0  0  0  0  0  0  0
   95.4890    8.9840   57.6300 N   0  0  0  0  0  0  0  0  0  0  0  0
   95.7040    9.0870   59.0170 C   0  0  0  0  0  0  0  0  0  0  0  0
   95.1820   10.2130   59.6880 C   0  0  0  0  0  0  0  0  0  0  0  0
   96.5490    8.6450   55.4730 C   0  0  0  0  0  0  0  0  0  0  0  0
   97.1590    7.6460   54.5120 C   0  0  0  0  0  0  0  0  0  0  0  0
   97.0210    6.4350   54.7100 O   0  0  0  0  0  0  0  0  0  0  0  0
   97.8450    8.1930   53.4260 N   0  0  0  0  0  0  0  0  0  0  0  0
   98.5510    7.3160   52.4870 C   0  0  0  0  0  0  0  0  0  0  0  0
   99.9500    7.7820   52.0590 C   0  0  0  0  0  0  0  0  0  0  0  0
  100.0940    7.3780   50.5910 C   0  0  0  0  0  0  0  0  0  0  0  0
   97.7500    7.0720   51.2080 C   0  0  0  0  0  0  0  0  0  0  0  0
   98.6740    7.3720   50.0330 C   0  0  0  0  0  0  0  0  0  0  0  0
   97.8630    9.6430   53.1890 C   0  0  0  0  0  0  0  0  0  0  0  0
   96.5530   10.3410   53.6060 C   0  0  2  0  0  0  0  0  0  0  0  0
   96.7950   11.8730   53.5220 C   0  0  0  0  0  0  0  0  0  0  0  0
   96.1980    9.8690   55.0180 C   0  0  0  0  0  0  0  0  0  0  0  0
   95.5090   10.7900   55.7900 O   0  0  0  0  0  0  0  0  0  0  0  0
   95.4340    9.9230   52.6220 C   0  0  0  0  0  0  0  0  0  0  0  0
   94.0570   10.4720   52.9820 C   0  0  0  0  0  0  0  0  0  0  0  0
   92.8980    9.7250   52.3000 C   0  0  0  0  0  0  0  0  0  0  0  0
   91.5600   10.1440   52.9050 C   0  0  0  0  0  0  0  0  0  0  0  0
   92.9020    9.9870   50.7860 C   0  0  0  0  0  0  0  0  0  0  0  0
   98.5886    7.9131   63.4557 H   0  0  0  0  0  0  0  0  0  0  0  0
   98.4702    7.5134   65.2029 H   0  0  0  0  0  0  0  0  0  0  0  0
   98.5929    9.2275   64.6799 H   0  0  0  0  0  0  0  0  0  0  0  0
   96.2757   10.5804   63.5678 H   0  0  0  0  0  0  0  0  0  0  0  0
   94.9426   11.2509   61.5648 H   0  0  0  0  0  0  0  0  0  0  0  0
   97.1657    7.5737   61.7162 H   0  0  0  0  0  0  0  0  0  0  0  0
   97.7932    6.8170   56.7426 H   0  0  0  0  0  0  0  0  0  0  0  0
   94.6337   10.9607   59.1264 H   0  0  0  0  0  0  0  0  0  0  0  0
   98.6722    6.3506   53.0002 H   0  0  0  0  0  0  0  0  0  0  0  0
  100.7211    7.2889   52.6691 H   0  0  0  0  0  0  0  0  0  0  0  0
  100.0396    8.8731   52.1663 H   0  0  0  0  0  0  0  0  0  0  0  0
  100.5441    6.3777   50.5092 H   0  0  0  0  0  0  0  0  0  0  0  0
  100.7171    8.1058   50.0506 H   0  0  0  0  0  0  0  0  0  0  0  0
   96.8748    7.7377   51.1786 H   0  0  0  0  0  0  0  0  0  0  0  0
   97.4157    6.0248   51.1667 H   0  0  0  0  0  0  0  0  0  0  0  0
   98.5720    6.5950   49.2611 H   0  0  0  0  0  0  0  0  0  0  0  0
   98.4316    8.3535   49.5996 H   0  0  0  0  0  0  0  0  0  0  0  0
   98.0277    9.8202   52.1159 H   0  0  0  0  0  0  0  0  0  0  0  0
   98.6916   10.0814   53.7645 H   0  0  0  0  0  0  0  0  0  0  0  0
   95.8778   12.4056   53.8138 H   0  0  0  0  0  0  0  0  0  0  0  0
   97.0651   12.1456   52.4911 H   0  0  0  0  0  0  0  0  0  0  0  0
   97.6134   12.1528   54.2017 H   0  0  0  0  0  0  0  0  0  0  0  0
   95.3314   10.4153   56.6448 H   0  0  0  0  0  0  0  0  0  0  0  0
   95.3764    8.8246   52.6095 H   0  0  0  0  0  0  0  0  0  0  0  0
   95.7008   10.2877   51.6191 H   0  0  0  0  0  0  0  0  0  0  0  0
   94.0145   11.5290   52.6806 H   0  0  0  0  0  0  0  0  0  0  0  0
   93.9263   10.3958   54.0715 H   0  0  0  0  0  0  0  0  0  0  0  0
   93.0338    8.6463   52.4673 H   0  0  0  0  0  0  0  0  0  0  0  0
   90.7451    9.5999   52.4050 H   0  0  0  0  0  0  0  0  0  0  0  0
   91.4176   11.2259   52.7664 H   0  0  0  0  0  0  0  0  0  0  0  0
   91.5533    9.9079   53.9793 H   0  0  0  0  0  0  0  0  0  0  0  0
   93.8705    9.6810   50.3635 H   0  0  0  0  0  0  0  0  0  0  0  0
   92.7427   11.0592   50.5990 H   0  0  0  0  0  0  0  0  0  0  0  0
   92.0958    9.4083   50.3116 H   0  0  0  0  0  0  0  0  0  0  0  0
  1  2  2  0  0  0  0
  2  3  2  0  0  0  0
  2  4  1  0  0  0  0
  2  5  1  0  0  0  0
  4 37  1  0  0  0  0
  4 38  1  0  0  0  0
  4 39  1  0  0  0  0
  5  6  1  0  0  0  0
  5 40  1  0  0  0  0
  6  7  2  0  0  0  0
  6  8  1  0  0  0  0
  7 17  1  0  0  0  0
  7 41  1  0  0  0  0
  8  9  2  0  0  0  0
  8 42  1  0  0  0  0
  9 10  1  0  0  0  0
  9 16  1  0  0  0  0
 10 11  2  0  0  0  0
 10 12  2  0  0  0  0
 10 13  1  0  0  0  0
 13 14  1  0  0  0  0
 13 43  1  0  0  0  0
 14 15  2  0  0  0  0
 14 18  1  0  0  0  0
 15 16  1  0  0  0  0
 16 17  2  0  0  0  0
 17 44  1  0  0  0  0
 18 19  1  0  0  0  0
 18 30  2  0  0  0  0
 19 20  2  0  0  0  0
 19 21  1  0  0  0  0
 21 22  1  0  0  0  0
 21 27  1  0  0  0  0
 22 23  1  0  0  0  0
 22 25  1  0  0  0  0
 22 45  1  0  0  0  0
 23 24  1  0  0  0  0
 23 46  1  0  0  0  0
 23 47  1  0  0  0  0
 24 26  1  0  0  0  0
 24 48  1  0  0  0  0
 24 49  1  0  0  0  0
 25 26  1  0  0  0  0
 25 50  1  0  0  0  0
 25 51  1  0  0  0  0
 26 52  1  0  0  0  0
 26 53  1  0  0  0  0
 27 28  1  0  0  0  0
 27 54  1  0  0  0  0
 27 55  1  0  0  0  0
 28 29  1  6  0  0  0
 28 30  1  0  0  0  0
 28 32  1  0  0  0  0
 29 56  1  0  0  0  0
 29 57  1  0  0  0  0
 29 58  1  0  0  0  0
 30 31  1  0  0  0  0
 31 59  1  0  0  0  0
 32 33  1  0  0  0  0
 32 60  1  0  0  0  0
 32 61  1  0  0  0  0
 33 34  1  0  0  0  0
 33 62  1  0  0  0  0
 33 63  1  0  0  0  0
 34 35  1  0  0  0  0
 34 36  1  0  0  0  0
 34 64  1  0  0  0  0
 35 65  1  0  0  0  0
 35 66  1  0  0  0  0
 35 67  1  0  0  0  0
 36 68  1  0  0  0  0
 36 69  1  0  0  0  0
 36 70  1  0  0  0  0
M  END
