3h1z_ligand
 OpenBabel08222323343D

254261  0  0  1  0  0  0  0  0999 V2000
  -11.3140  -22.2310  -37.6170 N   0  3  0  0  0  0  0  0  0  0  0  0
  -12.6880  -21.6660  -37.7680 C   0  0  2  0  0  0  0  0  0  0  0  0
  -13.2540  -21.2560  -36.4300 C   0  0  0  0  0  0  0  0  0  0  0  0
  -13.0530  -21.9430  -35.4200 O   0  0  0  0  0  0  0  0  0  0  0  0
  -13.6100  -22.6900  -38.4290 C   0  0  0  0  0  0  0  0  0  0  0  0
  -15.0710  -22.3710  -38.3400 C   0  0  0  0  0  0  0  0  0  0  0  0
  -15.8380  -22.8110  -37.2530 C   0  0  0  0  0  0  0  0  0  0  0  0
  -15.7040  -21.6420  -39.3410 C   0  0  0  0  0  0  0  0  0  0  0  0
  -17.2130  -22.5540  -37.1850 C   0  0  0  0  0  0  0  0  0  0  0  0
  -17.0690  -21.3370  -39.2600 C   0  0  0  0  0  0  0  0  0  0  0  0
  -17.8080  -21.8120  -38.1880 C   0  0  0  0  0  0  0  0  0  0  0  0
  -19.1270  -21.5200  -38.1430 O   0  0  0  0  0  0  0  0  0  0  0  0
  -13.9390  -20.1220  -36.4090 N   0  0  0  0  0  0  0  0  0  0  0  0
  -14.7940  -19.7930  -35.2830 C   0  0  2  0  0  0  0  0  0  0  0  0
  -15.9890  -19.0870  -35.8880 C   0  0  0  0  0  0  0  0  0  0  0  0
  -15.8770  -18.4910  -36.9720 O   0  0  0  0  0  0  0  0  0  0  0  0
  -14.0480  -18.9370  -34.2370 C   0  0  0  0  0  0  0  0  0  0  0  0
  -13.6440  -17.5720  -34.7390 C   0  0  0  0  0  0  0  0  0  0  0  0
  -12.3870  -17.3880  -35.3060 C   0  0  0  0  0  0  0  0  0  0  0  0
  -14.5180  -16.4890  -34.6600 C   0  0  0  0  0  0  0  0  0  0  0  0
  -11.9820  -16.1250  -35.7890 C   0  0  0  0  0  0  0  0  0  0  0  0
  -14.1350  -15.1950  -35.1360 C   0  0  0  0  0  0  0  0  0  0  0  0
  -12.8530  -15.0320  -35.7210 C   0  0  0  0  0  0  0  0  0  0  0  0
  -17.1130  -19.1270  -35.2190 N   0  0  0  0  0  0  0  0  0  0  0  0
  -18.3080  -18.4900  -35.7420 C   0  0  2  0  0  0  0  0  0  0  0  0
  -18.2150  -16.9870  -35.7900 C   0  0  0  0  0  0  0  0  0  0  0  0
  -17.8980  -16.4200  -34.8230 O   0  0  0  0  0  0  0  0  0  0  0  0
  -19.4040  -18.9660  -34.7990 C   0  0  0  0  0  0  0  0  0  0  0  0
  -18.7590  -19.6050  -33.7340 C   0  0  0  0  0  0  0  0  0  0  0  0
  -17.4290  -20.0300  -34.1250 C   0  0  0  0  0  0  0  0  0  0  0  0
  -18.4940  -16.3880  -36.9280 N   0  0  0  0  0  0  0  0  0  0  0  0
  -18.3820  -14.9720  -37.1460 C   0  0  2  0  0  0  0  0  0  0  0  0
  -19.8000  -14.4250  -37.2550 C   0  0  0  0  0  0  0  0  0  0  0  0
  -20.6160  -15.0900  -37.7860 O   0  0  0  0  0  0  0  0  0  0  0  0
  -17.5800  -14.6920  -38.4310 C   0  0  2  0  0  0  0  0  0  0  0  0
  -18.1130  -15.4430  -39.4980 O   0  0  0  0  0  0  0  0  0  0  0  0
  -16.1550  -15.0080  -38.2730 C   0  0  0  0  0  0  0  0  0  0  0  0
  -20.0830  -13.2370  -36.7290 N   0  0  0  0  0  0  0  0  0  0  0  0
  -21.3740  -12.5680  -36.9640 C   0  0  2  0  0  0  0  0  0  0  0  0
  -21.1180  -11.4200  -37.9120 C   0  0  0  0  0  0  0  0  0  0  0  0
  -20.0570  -10.7770  -37.8530 O   0  0  0  0  0  0  0  0  0  0  0  0
  -22.0520  -12.0490  -35.6800 C   0  0  0  0  0  0  0  0  0  0  0  0
  -22.5810  -13.1730  -34.7850 C   0  0  0  0  0  0  0  0  0  0  0  0
  -23.4070  -14.0230  -35.2380 O   0  5  0  0  0  0  0  0  0  0  0  0
  -22.1860  -13.1840  -33.5990 O   0  0  0  0  0  0  0  0  0  0  0  0
  -22.1000  -11.1740  -38.7730 N   0  0  0  0  0  0  0  0  0  0  0  0
  -21.9740  -10.2440  -39.8800 C   0  0  2  0  0  0  0  0  0  0  0  0
  -21.6560   -8.8420  -39.3780 C   0  0  0  0  0  0  0  0  0  0  0  0
  -20.8470   -8.1180  -39.9770 O   0  0  0  0  0  0  0  0  0  0  0  0
  -23.2710  -10.2560  -40.7080 C   0  0  0  0  0  0  0  0  0  0  0  0
  -23.3330   -9.2550  -41.8620 C   0  0  0  0  0  0  0  0  0  0  0  0
  -22.1180   -9.3250  -42.7710 C   0  0  0  0  0  0  0  0  0  0  0  0
  -21.7460  -10.4460  -43.1830 O   0  5  0  0  0  0  0  0  0  0  0  0
  -21.5440   -8.2530  -43.0660 O   0  0  0  0  0  0  0  0  0  0  0  0
  -22.2960   -8.4700  -38.2760 N   0  0  0  0  0  0  0  0  0  0  0  0
  -22.1440   -7.1290  -37.7410 C   0  0  2  0  0  0  0  0  0  0  0  0
  -20.7970   -6.9020  -37.0830 C   0  0  0  0  0  0  0  0  0  0  0  0
  -20.4110   -5.7620  -36.8820 O   0  0  0  0  0  0  0  0  0  0  0  0
  -23.2860   -6.7940  -36.7750 C   0  0  0  0  0  0  0  0  0  0  0  0
  -22.9810   -6.9880  -35.2920 C   0  0  0  0  0  0  0  0  0  0  0  0
  -23.3360   -8.3740  -34.8030 C   0  0  0  0  0  0  0  0  0  0  0  0
  -24.1040   -8.3290  -33.5540 N   0  0  0  0  0  0  0  0  0  0  0  0
  -23.7140   -8.8450  -32.3880 C   0  0  0  0  0  3  0  0  0  0  0  0
  -22.5370   -9.4640  -32.2710 N   0  0  0  0  0  0  0  0  0  0  0  0
  -24.5160   -8.7500  -31.3350 N   0  0  0  0  0  0  0  0  0  0  0  0
  -20.0760   -7.9670  -36.7400 N   0  0  0  0  0  0  0  0  0  0  0  0
  -18.7630   -7.7780  -36.1530 C   0  0  2  0  0  0  0  0  0  0  0  0
  -17.6470   -7.5990  -37.1860 C   0  0  0  0  0  0  0  0  0  0  0  0
  -16.5330   -7.2760  -36.8120 O   0  0  0  0  0  0  0  0  0  0  0  0
  -18.4360   -8.9030  -35.1750 C   0  0  0  0  0  0  0  0  0  0  0  0
  -19.4590   -8.9850  -34.1800 O   0  0  0  0  0  0  0  0  0  0  0  0
  -17.9520   -7.8030  -38.4760 N   0  0  0  0  0  0  0  0  0  0  0  0
  -16.9590   -7.5830  -39.5370 C   0  0  2  0  0  0  0  0  0  0  0  0
  -16.6410   -6.1150  -39.6360 C   0  0  0  0  0  0  0  0  0  0  0  0
  -17.5510   -5.2670  -39.5400 O   0  0  0  0  0  0  0  0  0  0  0  0
  -17.4560   -8.0520  -40.9040 C   0  0  0  0  0  0  0  0  0  0  0  0
  -17.4390   -9.5140  -41.0840 C   0  0  0  0  0  0  0  0  0  0  0  0
  -18.5070  -10.3620  -41.0900 C   0  0  0  0  0  0  0  0  0  0  0  0
  -16.2730  -10.3250  -41.2350 C   0  0  0  0  0  0  0  0  0  0  0  0
  -18.0740  -11.6660  -41.2600 N   0  0  0  0  0  0  0  0  0  0  0  0
  -16.7040  -11.6640  -41.3550 C   0  0  0  0  0  0  0  0  0  0  0  0
  -14.8970  -10.0400  -41.2810 C   0  0  0  0  0  0  0  0  0  0  0  0
  -15.8100  -12.7230  -41.5290 C   0  0  0  0  0  0  0  0  0  0  0  0
  -14.0140  -11.0730  -41.4780 C   0  0  0  0  0  0  0  0  0  0  0  0
  -14.4730  -12.4070  -41.5750 C   0  0  0  0  0  0  0  0  0  0  0  0
  -15.3600   -5.8020  -39.8260 N   0  0  0  0  0  0  0  0  0  0  0  0
  -14.9520   -4.4270  -40.0290 C   0  0  2  0  0  0  0  0  0  0  0  0
  -14.5120   -4.3470  -41.4830 C   0  0  0  0  0  0  0  0  0  0  0  0
  -13.4440   -4.8260  -41.8420 O   0  0  0  0  0  0  0  0  0  0  0  0
  -13.8270   -4.0130  -39.0620 C   0  0  0  0  0  0  0  0  0  0  0  0
  -13.4180   -2.5450  -39.2790 C   0  0  0  0  0  0  0  0  0  0  0  0
  -14.2720   -4.2890  -37.6020 C   0  0  0  0  0  0  0  0  0  0  0  0
  -15.3910   -3.7970  -42.3200 N   0  0  0  0  0  0  0  0  0  0  0  0
  -15.1440   -3.7700  -43.7470 C   0  0  2  0  0  0  0  0  0  0  0  0
  -14.2730   -2.5780  -44.1640 C   0  0  0  0  0  0  0  0  0  0  0  0
  -14.4840   -1.4410  -43.7060 O   0  0  0  0  0  0  0  0  0  0  0  0
  -16.4670   -3.6960  -44.5150 C   0  0  0  0  0  0  0  0  0  0  0  0
  -17.2360   -4.9930  -44.5630 C   0  0  0  0  0  0  0  0  0  0  0  0
  -17.0820   -5.8830  -45.6070 C   0  0  0  0  0  0  0  0  0  0  0  0
  -18.1530   -5.2970  -43.5480 C   0  0  0  0  0  0  0  0  0  0  0  0
  -17.7940   -7.0770  -45.6110 C   0  0  0  0  0  0  0  0  0  0  0  0
  -18.8550   -6.4680  -43.5450 C   0  0  0  0  0  0  0  0  0  0  0  0
  -18.6760   -7.3410  -44.5650 C   0  0  0  0  0  0  0  0  0  0  0  0
  -19.4250   -8.4940  -44.5410 O   0  0  0  0  0  0  0  0  0  0  0  0
  -13.3750   -2.8110  -45.1220 N   0  0  0  0  0  0  0  0  0  0  0  0
  -12.5680   -1.7040  -45.6470 C   0  0  2  0  0  0  0  0  0  0  0  0
  -13.4000   -0.9100  -46.6970 C   0  0  0  0  0  0  0  0  0  0  0  0
  -14.1030   -1.5190  -47.5390 O   0  0  0  0  0  0  0  0  0  0  0  0
  -11.2890   -2.2200  -46.3050 C   0  0  0  0  0  0  0  0  0  0  0  0
  -10.4940   -2.9530  -45.3680 O   0  0  0  0  0  0  0  0  0  0  0  0
  -13.2990    0.4270  -46.6620 N   0  0  0  0  0  0  0  0  0  0  0  0
  -13.8970    1.2070  -47.7500 C   0  0  2  0  0  0  0  0  0  0  0  0
  -13.1460    1.0050  -49.0760 C   0  0  0  0  0  0  0  0  0  0  0  0
  -11.9360    0.7290  -49.0570 O   0  0  0  0  0  0  0  0  0  0  0  0
  -13.7710    2.6570  -47.2520 C   0  0  0  0  0  0  0  0  0  0  0  0
  -12.5780    2.6600  -46.3650 C   0  0  0  0  0  0  0  0  0  0  0  0
  -12.6650    1.2920  -45.6470 C   0  0  0  0  0  0  0  0  0  0  0  0
  -13.8450    1.1580  -50.2080 N   0  0  0  0  0  0  0  0  0  0  0  0
  -13.2210    1.0400  -51.5080 C   0  0  2  0  0  0  0  0  0  0  0  0
  -13.1110    2.3960  -52.1550 C   0  0  0  0  0  0  0  0  0  0  0  0
  -14.0970    3.1370  -52.2250 O   0  0  0  0  0  0  0  0  0  0  0  0
  -14.0300    0.1380  -52.4330 C   0  0  0  0  0  0  0  0  0  0  0  0
  -14.2090   -1.3130  -52.0220 C   0  0  0  0  0  0  0  0  0  0  0  0
  -14.9860   -2.0010  -53.1360 C   0  0  0  0  0  0  0  0  0  0  0  0
  -12.8430   -2.0130  -51.7890 C   0  0  0  0  0  0  0  0  0  0  0  0
  -11.9110    2.7190  -52.6160 N   0  0  0  0  0  0  0  0  0  0  0  0
  -11.6820    3.9720  -53.3380 C   0  0  2  0  0  0  0  0  0  0  0  0
  -11.4750    3.5840  -54.7960 C   0  0  0  0  0  0  0  0  0  0  0  0
  -10.7120    2.6370  -55.1370 O   0  5  0  0  0  0  0  0  0  0  0  0
  -10.4730    4.7420  -52.7970 C   0  0  0  0  0  0  0  0  0  0  0  0
  -10.4820    4.9530  -51.3060 C   0  0  0  0  0  0  0  0  0  0  0  0
   -9.3660    5.3820  -50.6140 N   0  0  0  0  0  0  0  0  0  0  0  0
  -11.4530    4.7800  -50.3750 C   0  0  0  0  0  0  0  0  0  0  0  0
   -9.6550    5.4880  -49.3300 C   0  0  0  0  0  0  0  0  0  0  0  0
  -10.9140    5.1210  -49.1570 N   0  0  0  0  0  0  0  0  0  0  0  0
  -12.1200    4.1700  -55.6610 O   0  0  0  0  0  0  0  0  0  0  0  0
  -10.9586  -22.4967  -38.5221 H   0  0  0  0  0  0  0  0  0  0  0  0
  -11.3478  -23.0412  -37.0183 H   0  0  0  0  0  0  0  0  0  0  0  0
  -10.7081  -21.5365  -37.2088 H   0  0  0  0  0  0  0  0  0  0  0  0
  -12.6303  -20.7757  -38.4115 H   0  0  0  0  0  0  0  0  0  0  0  0
  -13.4425  -23.6636  -37.9452 H   0  0  0  0  0  0  0  0  0  0  0  0
  -13.3390  -22.7577  -39.4929 H   0  0  0  0  0  0  0  0  0  0  0  0
  -15.3586  -23.3600  -36.4506 H   0  0  0  0  0  0  0  0  0  0  0  0
  -15.1320  -21.3043  -40.1977 H   0  0  0  0  0  0  0  0  0  0  0  0
  -17.8024  -22.9317  -36.3574 H   0  0  0  0  0  0  0  0  0  0  0  0
  -17.5423  -20.7357  -40.0278 H   0  0  0  0  0  0  0  0  0  0  0  0
  -19.5087  -21.9038  -37.3623 H   0  0  0  0  0  0  0  0  0  0  0  0
  -13.8662  -19.4859  -37.1772 H   0  0  0  0  0  0  0  0  0  0  0  0
  -15.1290  -20.7177  -34.7904 H   0  0  0  0  0  0  0  0  0  0  0  0
  -13.1393  -19.4768  -33.9323 H   0  0  0  0  0  0  0  0  0  0  0  0
  -14.7056  -18.8046  -33.3652 H   0  0  0  0  0  0  0  0  0  0  0  0
  -11.7069  -18.2290  -35.3781 H   0  0  0  0  0  0  0  0  0  0  0  0
  -15.5036  -16.6293  -34.2311 H   0  0  0  0  0  0  0  0  0  0  0  0
  -10.9926  -16.0014  -36.2142 H   0  0  0  0  0  0  0  0  0  0  0  0
  -14.8131  -14.3535  -35.0510 H   0  0  0  0  0  0  0  0  0  0  0  0
  -12.5503  -14.0676  -36.1126 H   0  0  0  0  0  0  0  0  0  0  0  0
  -18.5055  -18.8519  -36.7618 H   0  0  0  0  0  0  0  0  0  0  0  0
  -20.4774  -18.8352  -34.9276 H   0  0  0  0  0  0  0  0  0  0  0  0
  -19.1954  -19.7613  -32.7486 H   0  0  0  0  0  0  0  0  0  0  0  0
  -16.7157  -19.9133  -33.2958 H   0  0  0  0  0  0  0  0  0  0  0  0
  -17.4306  -21.0769  -34.4627 H   0  0  0  0  0  0  0  0  0  0  0  0
  -18.8042  -16.9552  -37.6909 H   0  0  0  0  0  0  0  0  0  0  0  0
  -17.8687  -14.5027  -36.2938 H   0  0  0  0  0  0  0  0  0  0  0  0
  -17.6726  -13.6222  -38.6694 H   0  0  0  0  0  0  0  0  0  0  0  0
  -18.0611  -16.3684  -39.2895 H   0  0  0  0  0  0  0  0  0  0  0  0
  -15.6253  -14.7927  -39.2127 H   0  0  0  0  0  0  0  0  0  0  0  0
  -16.0411  -16.0733  -38.0237 H   0  0  0  0  0  0  0  0  0  0  0  0
  -15.7309  -14.3947  -37.4643 H   0  0  0  0  0  0  0  0  0  0  0  0
  -19.3990  -12.7843  -36.1569 H   0  0  0  0  0  0  0  0  0  0  0  0
  -22.0569  -13.2867  -37.4406 H   0  0  0  0  0  0  0  0  0  0  0  0
  -22.8950  -11.4027  -35.9657 H   0  0  0  0  0  0  0  0  0  0  0  0
  -21.3175  -11.4626  -35.1085 H   0  0  0  0  0  0  0  0  0  0  0  0
  -22.9691  -11.6536  -38.6521 H   0  0  0  0  0  0  0  0  0  0  0  0
  -21.1456  -10.5753  -40.5234 H   0  0  0  0  0  0  0  0  0  0  0  0
  -24.1077  -10.0390  -40.0277 H   0  0  0  0  0  0  0  0  0  0  0  0
  -23.3931  -11.2647  -41.1294 H   0  0  0  0  0  0  0  0  0  0  0  0
  -23.3999   -8.2401  -41.4431 H   0  0  0  0  0  0  0  0  0  0  0  0
  -24.2317   -9.4646  -42.4606 H   0  0  0  0  0  0  0  0  0  0  0  0
  -22.8914   -9.1229  -37.8077 H   0  0  0  0  0  0  0  0  0  0  0  0
  -22.2118   -6.4321  -38.5894 H   0  0  0  0  0  0  0  0  0  0  0  0
  -24.1426   -7.4353  -37.0299 H   0  0  0  0  0  0  0  0  0  0  0  0
  -23.5590   -5.7395  -36.9281 H   0  0  0  0  0  0  0  0  0  0  0  0
  -23.5586   -6.2516  -34.7140 H   0  0  0  0  0  0  0  0  0  0  0  0
  -21.9061   -6.8211  -35.1284 H   0  0  0  0  0  0  0  0  0  0  0  0
  -22.4084   -8.9396  -34.6308 H   0  0  0  0  0  0  0  0  0  0  0  0
  -23.9368   -8.8805  -35.5727 H   0  0  0  0  0  0  0  0  0  0  0  0
  -25.0206   -7.8599  -33.5799 H   0  0  0  0  0  0  0  0  0  0  0  0
  -22.2500   -9.8574  -31.3634 H   0  0  0  0  0  0  0  0  0  0  0  0
  -21.9159   -9.5482  -33.0883 H   0  0  0  0  0  0  0  0  0  0  0  0
  -25.4249   -8.2732  -31.4212 H   0  0  0  0  0  0  0  0  0  0  0  0
  -24.2296   -9.1531  -30.4315 H   0  0  0  0  0  0  0  0  0  0  0  0
  -20.4360   -8.8885  -36.8856 H   0  0  0  0  0  0  0  0  0  0  0  0
  -18.8075   -6.8449  -35.5722 H   0  0  0  0  0  0  0  0  0  0  0  0
  -17.4698   -8.6980  -34.6908 H   0  0  0  0  0  0  0  0  0  0  0  0
  -18.3780   -9.8567  -35.7200 H   0  0  0  0  0  0  0  0  0  0  0  0
  -19.2530   -9.6859  -33.5727 H   0  0  0  0  0  0  0  0  0  0  0  0
  -18.8717   -8.1104  -38.7204 H   0  0  0  0  0  0  0  0  0  0  0  0
  -16.0448   -8.1386  -39.2812 H   0  0  0  0  0  0  0  0  0  0  0  0
  -16.8156   -7.6019  -41.6769 H   0  0  0  0  0  0  0  0  0  0  0  0
  -18.4901   -7.7005  -41.0342 H   0  0  0  0  0  0  0  0  0  0  0  0
  -19.5468  -10.0584  -40.9777 H   0  0  0  0  0  0  0  0  0  0  0  0
  -18.6785  -12.4986  -41.3073 H   0  0  0  0  0  0  0  0  0  0  0  0
  -14.5397   -9.0234  -41.1631 H   0  0  0  0  0  0  0  0  0  0  0  0
  -16.1545  -13.7465  -41.6234 H   0  0  0  0  0  0  0  0  0  0  0  0
  -12.9536  -10.8636  -41.5600 H   0  0  0  0  0  0  0  0  0  0  0  0
  -13.7482  -13.2050  -41.6891 H   0  0  0  0  0  0  0  0  0  0  0  0
  -14.6706   -6.5264  -39.8285 H   0  0  0  0  0  0  0  0  0  0  0  0
  -15.8108   -3.7591  -39.8662 H   0  0  0  0  0  0  0  0  0  0  0  0
  -12.9468   -4.6384  -39.2721 H   0  0  0  0  0  0  0  0  0  0  0  0
  -12.6149   -2.2803  -38.5754 H   0  0  0  0  0  0  0  0  0  0  0  0
  -14.2868   -1.8929  -39.1059 H   0  0  0  0  0  0  0  0  0  0  0  0
  -13.0599   -2.4128  -40.3106 H   0  0  0  0  0  0  0  0  0  0  0  0
  -14.5532   -5.3474  -37.4983 H   0  0  0  0  0  0  0  0  0  0  0  0
  -15.1360   -3.6543  -37.3558 H   0  0  0  0  0  0  0  0  0  0  0  0
  -13.4424   -4.0612  -36.9165 H   0  0  0  0  0  0  0  0  0  0  0  0
  -16.2330   -3.3973  -41.9578 H   0  0  0  0  0  0  0  0  0  0  0  0
  -14.6223   -4.6983  -44.0229 H   0  0  0  0  0  0  0  0  0  0  0  0
  -16.2478   -3.3882  -45.5480 H   0  0  0  0  0  0  0  0  0  0  0  0
  -17.1019   -2.9378  -44.0333 H   0  0  0  0  0  0  0  0  0  0  0  0
  -16.4067   -5.6511  -46.4227 H   0  0  0  0  0  0  0  0  0  0  0  0
  -18.3088   -4.5850  -42.7456 H   0  0  0  0  0  0  0  0  0  0  0  0
  -17.6650   -7.7918  -46.4156 H   0  0  0  0  0  0  0  0  0  0  0  0
  -19.5441   -6.6953  -42.7397 H   0  0  0  0  0  0  0  0  0  0  0  0
  -20.3483   -8.2709  -44.5551 H   0  0  0  0  0  0  0  0  0  0  0  0
  -13.2522   -3.7363  -45.4809 H   0  0  0  0  0  0  0  0  0  0  0  0
  -12.2975   -1.0350  -44.8167 H   0  0  0  0  0  0  0  0  0  0  0  0
  -10.7069   -1.3655  -46.6806 H   0  0  0  0  0  0  0  0  0  0  0  0
  -11.5561   -2.8791  -47.1442 H   0  0  0  0  0  0  0  0  0  0  0  0
  -10.2583   -2.3863  -44.6428 H   0  0  0  0  0  0  0  0  0  0  0  0
  -14.9531    0.9328  -47.8895 H   0  0  0  0  0  0  0  0  0  0  0  0
  -14.6700    2.9521  -46.6909 H   0  0  0  0  0  0  0  0  0  0  0  0
  -13.6247    3.3445  -48.0981 H   0  0  0  0  0  0  0  0  0  0  0  0
  -12.6262    3.4880  -45.6425 H   0  0  0  0  0  0  0  0  0  0  0  0
  -11.6509    2.7388  -46.9517 H   0  0  0  0  0  0  0  0  0  0  0  0
  -11.6646    0.9209  -45.3798 H   0  0  0  0  0  0  0  0  0  0  0  0
  -13.2852    1.3593  -44.7410 H   0  0  0  0  0  0  0  0  0  0  0  0
  -14.8231    1.3589  -50.1534 H   0  0  0  0  0  0  0  0  0  0  0  0
  -12.2149    0.6144  -51.3794 H   0  0  0  0  0  0  0  0  0  0  0  0
  -13.5331    0.1429  -53.4144 H   0  0  0  0  0  0  0  0  0  0  0  0
  -15.0332    0.5791  -52.5277 H   0  0  0  0  0  0  0  0  0  0  0  0
  -14.7893   -1.3577  -51.0886 H   0  0  0  0  0  0  0  0  0  0  0  0
  -15.1383   -3.0593  -52.8773 H   0  0  0  0  0  0  0  0  0  0  0  0
  -14.4188   -1.9313  -54.0759 H   0  0  0  0  0  0  0  0  0  0  0  0
  -15.9624   -1.5097  -53.2596 H   0  0  0  0  0  0  0  0  0  0  0  0
  -12.3009   -1.4994  -50.9814 H   0  0  0  0  0  0  0  0  0  0  0  0
  -12.2480   -1.9728  -52.7133 H   0  0  0  0  0  0  0  0  0  0  0  0
  -13.0122   -3.0627  -51.5072 H   0  0  0  0  0  0  0  0  0  0  0  0
  -11.1453    2.0932  -52.4674 H   0  0  0  0  0  0  0  0  0  0  0  0
  -12.5711    4.6134  -53.2482 H   0  0  0  0  0  0  0  0  0  0  0  0
  -10.4485    5.7284  -53.2832 H   0  0  0  0  0  0  0  0  0  0  0  0
   -9.5636    4.1814  -53.0589 H   0  0  0  0  0  0  0  0  0  0  0  0
  -12.4697    4.4354  -50.5580 H   0  0  0  0  0  0  0  0  0  0  0  0
   -8.9740    5.8204  -48.5479 H   0  0  0  0  0  0  0  0  0  0  0  0
  -11.4106    5.0949  -48.2550 H   0  0  0  0  0  0  0  0  0  0  0  0
  1  2  1  0  0  0  0
  1137  1  0  0  0  0
  1138  1  0  0  0  0
  1139  1  0  0  0  0
  2  3  1  0  0  0  0
  2  5  1  0  0  0  0
  2140  1  6  0  0  0
  3  4  2  0  0  0  0
  3 13  1  0  0  0  0
  5  6  1  0  0  0  0
  5141  1  0  0  0  0
  5142  1  0  0  0  0
  6  7  2  0  0  0  0
  6  8  1  0  0  0  0
  7  9  1  0  0  0  0
  7143  1  0  0  0  0
  8 10  2  0  0  0  0
  8144  1  0  0  0  0
  9 11  2  0  0  0  0
  9145  1  0  0  0  0
 10 11  1  0  0  0  0
 10146  1  0  0  0  0
 11 12  1  0  0  0  0
 12147  1  0  0  0  0
 13 14  1  0  0  0  0
 13148  1  0  0  0  0
 14 15  1  0  0  0  0
 14 17  1  0  0  0  0
 14149  1  1  0  0  0
 15 16  2  0  0  0  0
 15 24  1  0  0  0  0
 17 18  1  0  0  0  0
 17150  1  0  0  0  0
 17151  1  0  0  0  0
 18 19  2  0  0  0  0
 18 20  1  0  0  0  0
 19 21  1  0  0  0  0
 19152  1  0  0  0  0
 20 22  2  0  0  0  0
 20153  1  0  0  0  0
 21 23  2  0  0  0  0
 21154  1  0  0  0  0
 22 23  1  0  0  0  0
 22155  1  0  0  0  0
 23156  1  0  0  0  0
 24 25  1  0  0  0  0
 24 30  1  0  0  0  0
 25 26  1  0  0  0  0
 25 28  1  0  0  0  0
 25157  1  6  0  0  0
 26 27  2  0  0  0  0
 26 31  1  0  0  0  0
 28 29  2  0  0  0  0
 28158  1  0  0  0  0
 29 30  1  0  0  0  0
 29159  1  0  0  0  0
 30160  1  0  0  0  0
 30161  1  0  0  0  0
 31 32  1  0  0  0  0
 31162  1  0  0  0  0
 32 33  1  0  0  0  0
 32 35  1  0  0  0  0
 32163  1  1  0  0  0
 33 34  2  0  0  0  0
 33 38  1  0  0  0  0
 35 36  1  0  0  0  0
 35 37  1  0  0  0  0
 35164  1  6  0  0  0
 36165  1  0  0  0  0
 37166  1  0  0  0  0
 37167  1  0  0  0  0
 37168  1  0  0  0  0
 38 39  1  0  0  0  0
 38169  1  0  0  0  0
 39 40  1  0  0  0  0
 39 42  1  0  0  0  0
 39170  1  6  0  0  0
 40 41  2  0  0  0  0
 40 46  1  0  0  0  0
 42 43  1  0  0  0  0
 42171  1  0  0  0  0
 42172  1  0  0  0  0
 43 44  1  0  0  0  0
 43 45  2  0  0  0  0
 46 47  1  0  0  0  0
 46173  1  0  0  0  0
 47 48  1  0  0  0  0
 47 50  1  0  0  0  0
 47174  1  6  0  0  0
 48 49  2  0  0  0  0
 48 55  1  0  0  0  0
 50 51  1  0  0  0  0
 50175  1  0  0  0  0
 50176  1  0  0  0  0
 51 52  1  0  0  0  0
 51177  1  0  0  0  0
 51178  1  0  0  0  0
 52 53  1  0  0  0  0
 52 54  2  0  0  0  0
 55 56  1  0  0  0  0
 55179  1  0  0  0  0
 56 57  1  0  0  0  0
 56 59  1  0  0  0  0
 56180  1  6  0  0  0
 57 58  2  0  0  0  0
 57 66  1  0  0  0  0
 59 60  1  0  0  0  0
 59181  1  0  0  0  0
 59182  1  0  0  0  0
 60 61  1  0  0  0  0
 60183  1  0  0  0  0
 60184  1  0  0  0  0
 61 62  1  0  0  0  0
 61185  1  0  0  0  0
 61186  1  0  0  0  0
 62 63  1  0  0  0  0
 62187  1  0  0  0  0
 63 64  1  0  0  0  0
 63 65  1  0  0  0  0
 64188  1  0  0  0  0
 64189  1  0  0  0  0
 65190  1  0  0  0  0
 65191  1  0  0  0  0
 66 67  1  0  0  0  0
 66192  1  0  0  0  0
 67 68  1  0  0  0  0
 67 70  1  0  0  0  0
 67193  1  1  0  0  0
 68 69  2  0  0  0  0
 68 72  1  0  0  0  0
 70 71  1  0  0  0  0
 70194  1  0  0  0  0
 70195  1  0  0  0  0
 71196  1  0  0  0  0
 72 73  1  0  0  0  0
 72197  1  0  0  0  0
 73 74  1  0  0  0  0
 73 76  1  0  0  0  0
 73198  1  1  0  0  0
 74 75  2  0  0  0  0
 74 86  1  0  0  0  0
 76 77  1  0  0  0  0
 76199  1  0  0  0  0
 76200  1  0  0  0  0
 77 78  2  0  0  0  0
 77 79  1  0  0  0  0
 78 80  1  0  0  0  0
 78201  1  0  0  0  0
 79 81  2  0  0  0  0
 79 82  1  0  0  0  0
 80 81  1  0  0  0  0
 80202  1  0  0  0  0
 81 83  1  0  0  0  0
 82 84  2  0  0  0  0
 82203  1  0  0  0  0
 83 85  2  0  0  0  0
 83204  1  0  0  0  0
 84 85  1  0  0  0  0
 84205  1  0  0  0  0
 85206  1  0  0  0  0
 86 87  1  0  0  0  0
 86207  1  0  0  0  0
 87 88  1  0  0  0  0
 87 90  1  0  0  0  0
 87208  1  1  0  0  0
 88 89  2  0  0  0  0
 88 93  1  0  0  0  0
 90 91  1  0  0  0  0
 90 92  1  0  0  0  0
 90209  1  0  0  0  0
 91210  1  0  0  0  0
 91211  1  0  0  0  0
 91212  1  0  0  0  0
 92213  1  0  0  0  0
 92214  1  0  0  0  0
 92215  1  0  0  0  0
 93 94  1  0  0  0  0
 93216  1  0  0  0  0
 94 95  1  0  0  0  0
 94 97  1  0  0  0  0
 94217  1  6  0  0  0
 95 96  2  0  0  0  0
 95105  1  0  0  0  0
 97 98  1  0  0  0  0
 97218  1  0  0  0  0
 97219  1  0  0  0  0
 98 99  2  0  0  0  0
 98100  1  0  0  0  0
 99101  1  0  0  0  0
 99220  1  0  0  0  0
100102  2  0  0  0  0
100221  1  0  0  0  0
101103  2  0  0  0  0
101222  1  0  0  0  0
102103  1  0  0  0  0
102223  1  0  0  0  0
103104  1  0  0  0  0
104224  1  0  0  0  0
105106  1  0  0  0  0
105225  1  0  0  0  0
106107  1  0  0  0  0
106109  1  0  0  0  0
106226  1  1  0  0  0
107108  2  0  0  0  0
107111  1  0  0  0  0
109110  1  0  0  0  0
109227  1  0  0  0  0
109228  1  0  0  0  0
110229  1  0  0  0  0
111112  1  0  0  0  0
111117  1  0  0  0  0
112113  1  0  0  0  0
112115  1  0  0  0  0
112230  1  6  0  0  0
113114  2  0  0  0  0
113118  1  0  0  0  0
115116  1  0  0  0  0
115231  1  0  0  0  0
115232  1  0  0  0  0
116117  1  0  0  0  0
116233  1  0  0  0  0
116234  1  0  0  0  0
117235  1  0  0  0  0
117236  1  0  0  0  0
118119  1  0  0  0  0
118237  1  0  0  0  0
119120  1  0  0  0  0
119122  1  0  0  0  0
119238  1  1  0  0  0
120121  2  0  0  0  0
120126  1  0  0  0  0
122123  1  0  0  0  0
122239  1  0  0  0  0
122240  1  0  0  0  0
123124  1  0  0  0  0
123125  1  0  0  0  0
123241  1  0  0  0  0
124242  1  0  0  0  0
124243  1  0  0  0  0
124244  1  0  0  0  0
125245  1  0  0  0  0
125246  1  0  0  0  0
125247  1  0  0  0  0
126127  1  0  0  0  0
126248  1  0  0  0  0
127128  1  0  0  0  0
127130  1  0  0  0  0
127249  1  1  0  0  0
128129  1  0  0  0  0
128136  2  0  0  0  0
130131  1  0  0  0  0
130250  1  0  0  0  0
130251  1  0  0  0  0
131132  1  0  0  0  0
131133  2  0  0  0  0
132134  2  0  0  0  0
133135  1  0  0  0  0
133252  1  0  0  0  0
134135  1  0  0  0  0
134253  1  0  0  0  0
135254  1  0  0  0  0
M  CHG  4   1   1  44  -1  53  -1 129  -1
M  END
