3h21_ligand
 OpenBabel08222323343D

 30 31  0  0  1  0  0  0  0  0999 V2000
  -76.9280   84.3450   92.9620 C   0  0  0  0  0  0  0  0  0  0  0  0
  -77.4740   83.1930   90.9850 C   0  0  1  0  0  3  0  0  0  0  0  0
  -78.8020   85.0770   91.4940 C   0  0  0  0  0  0  0  0  0  0  0  0
  -78.0110   85.3210   92.7190 C   0  0  1  0  0  0  0  0  0  0  0  0
  -79.5400   86.6940   96.8720 O   0  5  0  0  0  0  0  0  0  0  0  0
  -78.8750   87.7490   96.5790 C   0  0  0  0  0  0  0  0  0  0  0  0
  -79.3650   88.9260   96.7820 O   0  0  0  0  0  0  0  0  0  0  0  0
  -77.4420   87.5820   96.0070 C   0  0  2  0  0  0  0  0  0  0  0  0
  -76.8600   88.9210   95.5770 C   0  0  0  0  0  0  0  0  0  0  0  0
  -77.3370   86.5400   94.9020 C   0  0  0  0  0  0  0  0  0  0  0  0
  -78.2370   86.4350   93.6950 C   0  0  0  0  0  0  0  0  0  0  0  0
  -79.1570   87.2540   93.5150 O   0  0  0  0  0  0  0  0  0  0  0  0
  -76.3690   85.5900   95.0040 N   0  0  0  0  0  0  0  0  0  0  0  0
  -76.1330   84.5260   94.0940 N   0  0  0  0  0  0  0  0  0  0  0  0
  -75.0610   83.5710   94.3530 C   0  0  0  0  0  0  0  0  0  0  0  0
  -79.7250   85.8360   91.1930 O   0  0  0  0  0  0  0  0  0  0  0  0
  -76.7130   83.3270   92.0940 N   0  0  0  0  0  0  0  0  0  0  0  0
  -77.2250   82.1530   90.1590 N   0  0  0  0  0  0  0  0  0  0  0  0
  -78.4900   84.0320   90.7060 N   0  0  0  0  0  0  0  0  0  0  0  0
  -77.3312   85.9752   92.1534 H   0  0  0  0  0  0  0  0  0  0  0  0
  -76.8182   87.2160   96.8358 H   0  0  0  0  0  0  0  0  0  0  0  0
  -76.9551   89.6437   96.4009 H   0  0  0  0  0  0  0  0  0  0  0  0
  -77.4066   89.2931   94.6980 H   0  0  0  0  0  0  0  0  0  0  0  0
  -75.7977   88.7940   95.3215 H   0  0  0  0  0  0  0  0  0  0  0  0
  -74.5334   83.8535   95.2759 H   0  0  0  0  0  0  0  0  0  0  0  0
  -74.3540   83.5759   93.5103 H   0  0  0  0  0  0  0  0  0  0  0  0
  -75.4873   82.5635   94.4681 H   0  0  0  0  0  0  0  0  0  0  0  0
  -76.4501   81.5062   90.3644 H   0  0  0  0  0  0  0  0  0  0  0  0
  -77.8101   82.0070   89.3240 H   0  0  0  0  0  0  0  0  0  0  0  0
  -79.0332   83.8722   89.8817 H   0  0  0  0  0  0  0  0  0  0  0  0
  1 14  1  0  0  0  0
  1 17  2  0  0  0  0
  2 18  1  1  0  0  0
  3 16  2  0  0  0  0
  3 19  1  0  0  0  0
  4  1  1  0  0  0  0
  4  3  1  0  0  0  0
  4 20  1  6  0  0  0
  6  5  1  0  0  0  0
  6  7  2  0  0  0  0
  8  6  1  0  0  0  0
  8  9  1  0  0  0  0
  8 21  1  1  0  0  0
  9 22  1  0  0  0  0
  9 23  1  0  0  0  0
  9 24  1  0  0  0  0
 10  8  1  0  0  0  0
 10 11  1  0  0  0  0
 10 13  2  0  0  0  0
 11  4  1  0  0  0  0
 11 12  2  0  0  0  0
 13 14  1  0  0  0  0
 14 15  1  0  0  0  0
 15 25  1  0  0  0  0
 15 26  1  0  0  0  0
 15 27  1  0  0  0  0
 17  2  1  0  0  0  0
 18 28  1  0  0  0  0
 18 29  1  0  0  0  0
 19  2  1  0  0  0  0
 19 30  1  0  0  0  0
M  CHG  1   5  -1
M  END
