3h22_ligand
 OpenBabel08222323343D

 17 17  0  0  1  0  0  0  0  0999 V2000
  -80.0240   87.7900   94.3790 O   0  0  0  0  0  0  0  0  0  0  0  0
  -78.9710   87.2090   94.1400 N   0  0  0  0  0  0  0  0  0  0  0  0
  -78.8800   86.1680   93.2150 C   0  0  1  0  0  0  0  0  0  0  0  0
  -79.8080   86.0040   92.0710 C   0  0  0  0  0  0  0  0  0  0  0  0
  -80.7810   86.7530   91.8750 O   0  0  0  0  0  0  0  0  0  0  0  0
  -77.7830   85.1720   93.3290 C   0  0  0  0  0  0  0  0  0  0  0  0
  -76.8700   85.2890   94.3160 N   0  0  0  0  0  0  0  0  0  0  0  0
  -77.6950   84.1660   92.4140 N   0  0  0  0  0  0  0  0  0  0  0  0
  -78.5970   84.0870   91.3970 C   0  0  1  0  0  3  0  0  0  0  0  0
  -78.5100   83.0950   90.5000 N   0  0  0  0  0  0  0  0  0  0  0  0
  -79.6180   84.9600   91.2470 N   0  0  0  0  0  0  0  0  0  0  0  0
  -79.5367   85.5529   93.8477 H   0  0  0  0  0  0  0  0  0  0  0  0
  -76.1248   84.6149   94.3958 H   0  0  0  0  0  0  0  0  0  0  0  0
  -76.9450   83.4643   92.4918 H   0  0  0  0  0  0  0  0  0  0  0  0
  -79.1922   83.0351   89.7306 H   0  0  0  0  0  0  0  0  0  0  0  0
  -77.7609   82.3926   90.5800 H   0  0  0  0  0  0  0  0  0  0  0  0
  -80.2585   84.8231   90.4913 H   0  0  0  0  0  0  0  0  0  0  0  0
  1  2  2  0  0  0  0
  2  3  1  0  0  0  0
  3  4  1  0  0  0  0
  3  6  1  0  0  0  0
  3 12  1  1  0  0  0
  4  5  2  0  0  0  0
  4 11  1  0  0  0  0
  6  7  2  0  0  0  0
  6  8  1  0  0  0  0
  7 13  1  0  0  0  0
  8  9  1  0  0  0  0
  8 14  1  0  0  0  0
  9 10  1  1  0  0  0
  9 11  1  0  0  0  0
 10 15  1  0  0  0  0
 10 16  1  0  0  0  0
 11 17  1  0  0  0  0
M  END
