3h26_ligand
 OpenBabel08222323343D

 24 25  0  0  1  0  0  0  0  0999 V2000
  -80.1420   85.8730   91.1380 O   0  0  0  0  0  0  0  0  0  0  0  0
  -79.2090   85.1030   91.4650 C   0  0  0  0  0  0  0  0  0  0  0  0
  -78.9780   83.9900   90.7340 N   0  0  0  0  0  0  0  0  0  0  0  0
  -77.9770   83.1340   91.0560 C   0  0  2  0  0  3  0  0  0  0  0  0
  -77.7820   82.0340   90.2930 N   0  0  0  0  0  0  0  0  0  0  0  0
  -77.1830   83.3700   92.1290 N   0  0  0  0  0  0  0  0  0  0  0  0
  -78.4010   85.3630   92.5730 C   0  0  0  0  0  0  0  0  0  0  0  0
  -77.3730   84.4730   92.9010 C   0  0  2  0  0  3  0  0  0  0  0  0
  -76.5890   84.7200   93.9700 N   0  0  0  0  0  0  0  0  0  0  0  0
  -75.5120   83.8050   94.3320 C   0  0  0  0  0  0  0  0  0  0  0  0
  -76.7830   85.8080   94.7270 C   0  0  0  0  0  0  0  0  0  0  0  0
  -78.6000   86.4620   93.3340 N   0  0  0  0  0  0  0  0  0  0  0  0
  -77.8080   86.7000   94.4060 C   0  0  0  0  0  0  0  0  0  0  0  0
  -78.0340   87.9250   95.2440 C   0  0  0  0  0  0  0  0  0  0  0  0
  -78.9570   88.7110   94.9370 O   0  5  0  0  0  0  0  0  0  0  0  0
  -77.2930   88.1400   96.2290 O   0  0  0  0  0  0  0  0  0  0  0  0
  -79.5556   83.7943   89.9415 H   0  0  0  0  0  0  0  0  0  0  0  0
  -77.0258   81.3741   90.5245 H   0  0  0  0  0  0  0  0  0  0  0  0
  -78.3897   81.8564   89.4806 H   0  0  0  0  0  0  0  0  0  0  0  0
  -76.4291   82.7079   92.3616 H   0  0  0  0  0  0  0  0  0  0  0  0
  -74.9951   84.1828   95.2265 H   0  0  0  0  0  0  0  0  0  0  0  0
  -74.7974   83.7319   93.4990 H   0  0  0  0  0  0  0  0  0  0  0  0
  -75.9314   82.8104   94.5436 H   0  0  0  0  0  0  0  0  0  0  0  0
  -76.1472   85.9950   95.5848 H   0  0  0  0  0  0  0  0  0  0  0  0
  1  2  2  0  0  0  0
  2  3  1  0  0  0  0
  2  7  1  0  0  0  0
  3  4  1  0  0  0  0
  3 17  1  0  0  0  0
  4  5  1  1  0  0  0
  4  6  1  0  0  0  0
  5 18  1  0  0  0  0
  5 19  1  0  0  0  0
  6  8  1  0  0  0  0
  6 20  1  0  0  0  0
  7 12  2  0  0  0  0
  8  7  1  6  0  0  0
  8  9  1  0  0  0  0
  9 10  1  0  0  0  0
  9 11  1  0  0  0  0
 10 21  1  0  0  0  0
 10 22  1  0  0  0  0
 10 23  1  0  0  0  0
 11 13  2  0  0  0  0
 11 24  1  0  0  0  0
 12 13  1  0  0  0  0
 13 14  1  0  0  0  0
 14 15  1  0  0  0  0
 14 16  2  0  0  0  0
M  CHG  1  15  -1
M  END
