3h2o_ligand
 OpenBabel08222323343D

 38 40  0  0  1  0  0  0  0  0999 V2000
  -82.9760   95.4260   94.3410 O   0  5  0  0  0  0  0  0  0  0  0  0
  -82.7060   94.8080   95.4130 C   0  0  0  0  0  0  0  0  0  0  0  0
  -83.4110   94.8740   96.4430 O   0  0  0  0  0  0  0  0  0  0  0  0
  -81.5120   93.9070   95.4640 C   0  0  0  0  0  0  0  0  0  0  0  0
  -81.1900   93.2080   96.6260 C   0  0  0  0  0  0  0  0  0  0  0  0
  -80.0860   92.3640   96.6170 C   0  0  0  0  0  0  0  0  0  0  0  0
  -80.7200   93.7750   94.3310 C   0  0  0  0  0  0  0  0  0  0  0  0
  -79.6190   92.9410   94.3180 C   0  0  0  0  0  0  0  0  0  0  0  0
  -79.3110   92.2390   95.4580 C   0  0  0  0  0  0  0  0  0  0  0  0
  -78.2250   91.4520   95.4110 N   0  0  0  0  0  0  0  0  0  0  0  0
  -78.2000   90.1920   96.1360 C   0  0  0  0  0  0  0  0  0  0  0  0
  -79.4190   89.3320   95.8930 C   0  0  0  0  0  0  0  0  0  0  0  0
  -79.0020   88.2220   95.0070 C   0  0  0  0  0  0  0  0  0  0  0  0
  -77.7640   87.4290   95.3280 C   0  0  0  0  0  0  0  0  0  0  0  0
  -77.5000   86.3650   94.3420 N   0  0  0  0  0  0  0  0  0  0  0  0
  -78.2950   86.1330   93.2830 C   0  0  0  0  0  0  0  0  0  0  0  0
  -78.0180   85.1600   92.3790 N   0  0  0  0  0  0  0  0  0  0  0  0
  -78.8700   84.9680   91.3110 C   0  0  1  0  0  3  0  0  0  0  0  0
  -78.5920   83.9840   90.4280 N   0  0  0  0  0  0  0  0  0  0  0  0
  -79.9970   85.7060   91.0700 N   0  0  0  0  0  0  0  0  0  0  0  0
  -80.3680   86.7180   91.8650 C   0  0  0  0  0  0  0  0  0  0  0  0
  -81.4010   87.3690   91.6120 O   0  0  0  0  0  0  0  0  0  0  0  0
  -79.5110   86.9970   93.0550 C   0  0  0  0  0  0  0  0  0  0  0  0
  -79.7920   87.9910   93.9320 N   0  0  0  0  0  0  0  0  0  0  0  0
  -81.7904   93.3208   97.5214 H   0  0  0  0  0  0  0  0  0  0  0  0
  -79.8251   91.8028   97.5070 H   0  0  0  0  0  0  0  0  0  0  0  0
  -80.9708   94.3377   93.4390 H   0  0  0  0  0  0  0  0  0  0  0  0
  -79.0104   92.8424   93.4264 H   0  0  0  0  0  0  0  0  0  0  0  0
  -77.4054   91.7420   94.8587 H   0  0  0  0  0  0  0  0  0  0  0  0
  -78.1373   90.4108   97.2122 H   0  0  0  0  0  0  0  0  0  0  0  0
  -77.3085   89.6283   95.8238 H   0  0  0  0  0  0  0  0  0  0  0  0
  -80.2081   89.9252   95.4079 H   0  0  0  0  0  0  0  0  0  0  0  0
  -79.7944   88.9323   96.8466 H   0  0  0  0  0  0  0  0  0  0  0  0
  -77.1349   87.6193   96.1901 H   0  0  0  0  0  0  0  0  0  0  0  0
  -77.1803   84.5708   92.4889 H   0  0  0  0  0  0  0  0  0  0  0  0
  -79.2145   83.8231   89.6234 H   0  0  0  0  0  0  0  0  0  0  0  0
  -77.7575   83.3947   90.5594 H   0  0  0  0  0  0  0  0  0  0  0  0
  -80.5613   85.4826   90.2752 H   0  0  0  0  0  0  0  0  0  0  0  0
  1  2  1  0  0  0  0
  2  3  2  0  0  0  0
  2  4  1  0  0  0  0
  4  5  2  0  0  0  0
  4  7  1  0  0  0  0
  5  6  1  0  0  0  0
  5 25  1  0  0  0  0
  6  9  2  0  0  0  0
  6 26  1  0  0  0  0
  7  8  2  0  0  0  0
  7 27  1  0  0  0  0
  8  9  1  0  0  0  0
  8 28  1  0  0  0  0
  9 10  1  0  0  0  0
 10 11  1  0  0  0  0
 10 29  1  0  0  0  0
 11 12  1  0  0  0  0
 11 30  1  0  0  0  0
 11 31  1  0  0  0  0
 12 13  1  0  0  0  0
 12 32  1  0  0  0  0
 12 33  1  0  0  0  0
 13 14  2  0  0  0  0
 13 24  1  0  0  0  0
 14 15  1  0  0  0  0
 14 34  1  0  0  0  0
 15 16  2  0  0  0  0
 16 17  1  0  0  0  0
 16 23  1  0  0  0  0
 17 18  1  0  0  0  0
 17 35  1  0  0  0  0
 18 19  1  1  0  0  0
 18 20  1  0  0  0  0
 19 36  1  0  0  0  0
 19 37  1  0  0  0  0
 20 21  1  0  0  0  0
 20 38  1  0  0  0  0
 21 22  2  0  0  0  0
 21 23  1  0  0  0  0
 23 24  2  0  0  0  0
M  CHG  1   1  -1
M  END
