3h59_ligand
 OpenBabel08222323343D

 68 71  0  0  1  0  0  0  0  0999 V2000
   -8.3190   -9.8640    8.1780 C   0  0  0  0  0  0  0  0  0  0  0  0
   -7.9110   -9.9980    6.8590 C   0  0  0  0  0  0  0  0  0  0  0  0
   -6.6300   -9.6440    6.4340 C   0  0  0  0  0  0  0  0  0  0  0  0
   -5.7360   -9.1010    7.3300 C   0  0  0  0  0  0  0  0  0  0  0  0
   -6.1400   -8.9360    8.6540 C   0  0  0  0  0  0  0  0  0  0  0  0
   -7.4160   -9.3230    9.0840 C   0  0  0  0  0  0  0  0  0  0  0  0
  -10.5380   -7.8900   11.3480 C   0  0  0  0  0  0  0  0  0  0  0  0
  -10.8720   -7.0490   10.3190 C   0  0  0  0  0  0  0  0  0  0  0  0
  -10.7330   -7.8270    9.0240 C   0  0  1  0  0  0  0  0  0  0  0  0
  -10.1930   -9.1550    9.4340 N   0  0  0  0  0  0  0  0  0  0  0  0
  -10.1050   -9.1650   10.7940 C   0  0  0  0  0  0  0  0  0  0  0  0
  -10.6110   -7.6850   15.7480 C   0  0  0  0  0  0  0  0  0  0  0  0
   -9.8950   -8.6250   14.9920 C   0  0  0  0  0  0  0  0  0  0  0  0
   -9.3790   -9.7800   15.6230 C   0  0  0  0  0  0  0  0  0  0  0  0
   -9.5540   -9.9700   16.9880 C   0  0  0  0  0  0  0  0  0  0  0  0
  -10.2570   -9.0280   17.7540 C   0  0  0  0  0  0  0  0  0  0  0  0
  -10.7870   -7.9050   17.1100 C   0  0  0  0  0  0  0  0  0  0  0  0
  -10.4970   -7.6040   12.8090 C   0  0  0  0  0  0  0  0  0  0  0  0
   -9.7170   -8.4400   13.6160 N   0  0  0  0  0  0  0  0  0  0  0  0
  -11.2690   -6.1980   14.9840 S   0  0  0  0  0  0  0  0  0  0  0  0
  -11.2260   -6.5720   13.2670 C   0  0  0  0  0  0  0  0  0  0  0  0
  -12.6420   -5.9880   15.3670 O   0  0  0  0  0  0  0  0  0  0  0  0
  -10.3320   -5.1520   15.2840 O   0  0  0  0  0  0  0  0  0  0  0  0
  -10.4570   -9.2430   19.1490 N   0  0  0  0  0  0  0  0  0  0  0  0
  -10.7110   -8.0620   20.2800 S   0  0  0  0  0  0  0  0  0  0  0  0
  -12.5170   -7.9930   20.4300 C   0  0  0  0  0  0  0  0  0  0  0  0
  -10.1940   -8.6460   21.4620 O   0  0  0  0  0  0  0  0  0  0  0  0
  -10.2030   -6.8470   19.7540 O   0  0  0  0  0  0  0  0  0  0  0  0
  -11.2860   -5.7760   10.4480 O   0  0  0  0  0  0  0  0  0  0  0  0
   -9.6500  -10.0640   11.4870 O   0  0  0  0  0  0  0  0  0  0  0  0
   -9.7270  -10.2570    8.5780 C   0  0  0  0  0  0  0  0  0  0  0  0
   -4.4800   -8.7350    6.9150 F   0  0  0  0  0  0  0  0  0  0  0  0
   -6.2530   -9.8380    4.9800 C   0  0  0  0  0  0  0  0  0  0  0  0
  -12.1090   -7.8790    8.2820 C   0  0  0  0  0  0  0  0  0  0  0  0
  -12.4590   -6.4300    7.9340 C   0  0  0  0  0  0  0  0  0  0  0  0
  -13.2820   -6.3150    6.6710 C   0  0  0  0  0  0  0  0  0  0  0  0
  -12.0700   -8.7310    6.9920 C   0  0  0  0  0  0  0  0  0  0  0  0
  -13.2230   -8.4620    9.1690 C   0  0  0  0  0  0  0  0  0  0  0  0
   -8.6125  -10.3918    6.1324 H   0  0  0  0  0  0  0  0  0  0  0  0
   -5.4510   -8.4982    9.3672 H   0  0  0  0  0  0  0  0  0  0  0  0
   -7.6984   -9.2002   10.1234 H   0  0  0  0  0  0  0  0  0  0  0  0
  -10.0068   -7.3323    8.3623 H   0  0  0  0  0  0  0  0  0  0  0  0
   -8.8445  -10.5206   15.0392 H   0  0  0  0  0  0  0  0  0  0  0  0
   -9.1442  -10.8530   17.4650 H   0  0  0  0  0  0  0  0  0  0  0  0
  -11.3520   -7.1844   17.6901 H   0  0  0  0  0  0  0  0  0  0  0  0
   -8.9523   -8.9597   13.1620 H   0  0  0  0  0  0  0  0  0  0  0  0
  -11.7955   -5.9616   12.5677 H   0  0  0  0  0  0  0  0  0  0  0  0
  -10.4426  -10.1893   19.4720 H   0  0  0  0  0  0  0  0  0  0  0  0
  -12.7945   -7.2269   21.1690 H   0  0  0  0  0  0  0  0  0  0  0  0
  -12.8954   -8.9725   20.7576 H   0  0  0  0  0  0  0  0  0  0  0  0
  -12.9565   -7.7377   19.4545 H   0  0  0  0  0  0  0  0  0  0  0  0
  -12.1673   -5.6943   10.1028 H   0  0  0  0  0  0  0  0  0  0  0  0
   -9.7216  -11.2054    9.1352 H   0  0  0  0  0  0  0  0  0  0  0  0
  -10.3689  -10.3568    7.6904 H   0  0  0  0  0  0  0  0  0  0  0  0
   -7.1007  -10.2820    4.4375 H   0  0  0  0  0  0  0  0  0  0  0  0
   -5.3834  -10.5082    4.9129 H   0  0  0  0  0  0  0  0  0  0  0  0
   -6.0012   -8.8648    4.5335 H   0  0  0  0  0  0  0  0  0  0  0  0
  -11.5248   -5.8654    7.7977 H   0  0  0  0  0  0  0  0  0  0  0  0
  -13.0312   -5.9964    8.7674 H   0  0  0  0  0  0  0  0  0  0  0  0
  -13.5022   -5.2558    6.4720 H   0  0  0  0  0  0  0  0  0  0  0  0
  -14.2245   -6.8682    6.7958 H   0  0  0  0  0  0  0  0  0  0  0  0
  -12.7181   -6.7372    5.8262 H   0  0  0  0  0  0  0  0  0  0  0  0
  -11.8182   -9.7710    7.2470 H   0  0  0  0  0  0  0  0  0  0  0  0
  -11.3091   -8.3266    6.3083 H   0  0  0  0  0  0  0  0  0  0  0  0
  -13.0550   -8.7015    6.5032 H   0  0  0  0  0  0  0  0  0  0  0  0
  -13.2879   -7.8846   10.1030 H   0  0  0  0  0  0  0  0  0  0  0  0
  -12.9940   -9.5123    9.4024 H   0  0  0  0  0  0  0  0  0  0  0  0
  -14.1835   -8.4059    8.6358 H   0  0  0  0  0  0  0  0  0  0  0  0
  1  2  2  0  0  0  0
  1  6  1  0  0  0  0
  2  3  1  0  0  0  0
  2 39  1  0  0  0  0
  3  4  2  0  0  0  0
  3 33  1  0  0  0  0
  4 32  1  0  0  0  0
  5  4  1  0  0  0  0
  5 40  1  0  0  0  0
  6  5  2  0  0  0  0
  6 41  1  0  0  0  0
  7  8  2  0  0  0  0
  7 11  1  0  0  0  0
  8  9  1  0  0  0  0
  8 29  1  0  0  0  0
  9 34  1  0  0  0  0
  9 42  1  6  0  0  0
 10  9  1  0  0  0  0
 10 31  1  0  0  0  0
 11 10  1  0  0  0  0
 11 30  2  0  0  0  0
 12 17  1  0  0  0  0
 12 20  1  0  0  0  0
 13 12  2  0  0  0  0
 13 14  1  0  0  0  0
 14 15  2  0  0  0  0
 14 43  1  0  0  0  0
 15 16  1  0  0  0  0
 15 44  1  0  0  0  0
 16 24  1  0  0  0  0
 17 16  2  0  0  0  0
 17 45  1  0  0  0  0
 18  7  1  0  0  0  0
 18 19  1  0  0  0  0
 18 21  2  0  0  0  0
 19 13  1  0  0  0  0
 19 46  1  0  0  0  0
 20 21  1  0  0  0  0
 20 22  2  0  0  0  0
 20 23  2  0  0  0  0
 21 47  1  0  0  0  0
 24 25  1  0  0  0  0
 24 48  1  0  0  0  0
 25 26  1  0  0  0  0
 25 27  2  0  0  0  0
 25 28  2  0  0  0  0
 26 49  1  0  0  0  0
 26 50  1  0  0  0  0
 26 51  1  0  0  0  0
 29 52  1  0  0  0  0
 31  1  1  0  0  0  0
 31 53  1  0  0  0  0
 31 54  1  0  0  0  0
 33 55  1  0  0  0  0
 33 56  1  0  0  0  0
 33 57  1  0  0  0  0
 34 35  1  0  0  0  0
 34 37  1  0  0  0  0
 34 38  1  0  0  0  0
 35 36  1  0  0  0  0
 35 58  1  0  0  0  0
 35 59  1  0  0  0  0
 36 60  1  0  0  0  0
 36 61  1  0  0  0  0
 36 62  1  0  0  0  0
 37 63  1  0  0  0  0
 37 64  1  0  0  0  0
 37 65  1  0  0  0  0
 38 66  1  0  0  0  0
 38 67  1  0  0  0  0
 38 68  1  0  0  0  0
M  END
