3h5u_ligand
 OpenBabel08222323343D

 62 65  0  0  1  0  0  0  0  0999 V2000
   76.0450   44.6650   12.9280 C   0  0  0  0  0  0  0  0  0  0  0  0
   75.8690   45.5640   11.8970 C   0  0  0  0  0  0  0  0  0  0  0  0
   76.0180   44.8160   10.5980 C   0  0  1  0  0  0  0  0  0  0  0  0
   76.4230   43.4580   11.0020 N   0  0  0  0  0  0  0  0  0  0  0  0
   76.3880   43.3650   12.3500 C   0  0  0  0  0  0  0  0  0  0  0  0
   76.7030   42.3510   12.9750 O   0  0  0  0  0  0  0  0  0  0  0  0
   75.5680   46.8820   12.0040 O   0  0  0  0  0  0  0  0  0  0  0  0
   76.8810   42.3880   10.1350 C   0  0  0  0  0  0  0  0  0  0  0  0
   78.3160   42.8100    9.7800 C   0  0  0  0  0  0  0  0  0  0  0  0
   74.5950   44.8110    9.8950 C   0  0  0  0  0  0  0  0  0  0  0  0
   77.4150   43.1000   15.5790 C   0  0  0  0  0  0  0  0  0  0  0  0
   77.7970   42.5290   16.7760 C   0  0  0  0  0  0  0  0  0  0  0  0
   77.3390   43.0400   17.9820 C   0  0  0  0  0  0  0  0  0  0  0  0
   76.4830   44.1280   17.9380 C   0  0  0  0  0  0  0  0  0  0  0  0
   76.5390   44.2100   15.5110 C   0  0  0  0  0  0  0  0  0  0  0  0
   76.1090   44.6910   16.7560 C   0  0  0  0  0  0  0  0  0  0  0  0
   75.0760   46.0740   16.3770 S   0  0  0  0  0  0  0  0  0  0  0  0
   75.1410   45.9670   14.6960 N   0  0  0  0  0  0  0  0  0  0  0  0
   75.9420   44.9880   14.3840 C   0  0  0  0  0  0  0  0  0  0  0  0
   73.7630   45.7570   16.8270 O   0  0  0  0  0  0  0  0  0  0  0  0
   75.6690   47.3240   16.7280 O   0  0  0  0  0  0  0  0  0  0  0  0
   74.2600   46.2120    9.3910 C   0  0  0  0  0  0  0  0  0  0  0  0
   74.5000   43.8490    8.7030 C   0  0  0  0  0  0  0  0  0  0  0  0
   73.4300   44.4170   10.8160 C   0  0  0  0  0  0  0  0  0  0  0  0
   79.2400   43.1660   10.7770 C   0  0  0  0  0  0  0  0  0  0  0  0
   80.5440   43.5490   10.4470 C   0  0  0  0  0  0  0  0  0  0  0  0
   80.9410   43.6010    9.1000 C   0  0  0  0  0  0  0  0  0  0  0  0
   80.0220   43.2660    8.1020 C   0  0  0  0  0  0  0  0  0  0  0  0
   78.7230   42.8800    8.4410 C   0  0  0  0  0  0  0  0  0  0  0  0
   82.2000   43.9960    8.7640 F   0  0  0  0  0  0  0  0  0  0  0  0
   75.9120   44.7790   19.1590 C   0  0  0  0  0  0  0  0  0  0  0  0
   76.0580   43.9600   20.3470 N   0  0  0  0  0  0  0  0  0  0  0  0
   75.8970   44.7650   21.7820 S   0  0  0  0  0  0  0  0  0  0  0  0
   74.1110   44.7660   22.1090 C   0  0  0  0  0  0  0  0  0  0  0  0
   76.5000   43.8750   22.6820 O   0  0  0  0  0  0  0  0  0  0  0  0
   76.2920   46.0880   21.5730 O   0  0  0  0  0  0  0  0  0  0  0  0
   76.7717   45.2757    9.9418 H   0  0  0  0  0  0  0  0  0  0  0  0
   75.5288   47.1232   12.9220 H   0  0  0  0  0  0  0  0  0  0  0  0
   76.2563   42.3176    9.2323 H   0  0  0  0  0  0  0  0  0  0  0  0
   76.8733   41.4228   10.6625 H   0  0  0  0  0  0  0  0  0  0  0  0
   77.8004   42.6826   14.6558 H   0  0  0  0  0  0  0  0  0  0  0  0
   78.4616   41.6726   16.7740 H   0  0  0  0  0  0  0  0  0  0  0  0
   77.6409   42.6025   18.9267 H   0  0  0  0  0  0  0  0  0  0  0  0
   73.2731   46.2007    8.9053 H   0  0  0  0  0  0  0  0  0  0  0  0
   75.0220   46.5326    8.6654 H   0  0  0  0  0  0  0  0  0  0  0  0
   74.2433   46.9125   10.2389 H   0  0  0  0  0  0  0  0  0  0  0  0
   74.7370   42.8278    9.0362 H   0  0  0  0  0  0  0  0  0  0  0  0
   75.2153   44.1563    7.9259 H   0  0  0  0  0  0  0  0  0  0  0  0
   73.4797   43.8733    8.2926 H   0  0  0  0  0  0  0  0  0  0  0  0
   73.4284   45.0668   11.7035 H   0  0  0  0  0  0  0  0  0  0  0  0
   73.5482   43.3691   11.1290 H   0  0  0  0  0  0  0  0  0  0  0  0
   72.4794   44.5330   10.2749 H   0  0  0  0  0  0  0  0  0  0  0  0
   78.9375   43.1434   11.8177 H   0  0  0  0  0  0  0  0  0  0  0  0
   81.2483   43.8057   11.2301 H   0  0  0  0  0  0  0  0  0  0  0  0
   80.3185   43.3059    7.0601 H   0  0  0  0  0  0  0  0  0  0  0  0
   78.0186   42.6306    7.6557 H   0  0  0  0  0  0  0  0  0  0  0  0
   74.8415   44.9672   18.9901 H   0  0  0  0  0  0  0  0  0  0  0  0
   76.4308   45.7348   19.3240 H   0  0  0  0  0  0  0  0  0  0  0  0
   76.2429   42.9783   20.3014 H   0  0  0  0  0  0  0  0  0  0  0  0
   73.9121   45.2879   23.0566 H   0  0  0  0  0  0  0  0  0  0  0  0
   73.7504   43.7291   22.1788 H   0  0  0  0  0  0  0  0  0  0  0  0
   73.5885   45.2816   21.2898 H   0  0  0  0  0  0  0  0  0  0  0  0
  1  2  2  0  0  0  0
  1  5  1  0  0  0  0
  2  3  1  0  0  0  0
  2  7  1  0  0  0  0
  3 10  1  0  0  0  0
  3 37  1  6  0  0  0
  4  3  1  0  0  0  0
  4  8  1  0  0  0  0
  5  4  1  0  0  0  0
  5  6  2  0  0  0  0
  7 38  1  0  0  0  0
  8  9  1  0  0  0  0
  8 39  1  0  0  0  0
  8 40  1  0  0  0  0
  9 25  2  0  0  0  0
  9 29  1  0  0  0  0
 10 22  1  0  0  0  0
 10 23  1  0  0  0  0
 10 24  1  0  0  0  0
 11 12  2  0  0  0  0
 11 41  1  0  0  0  0
 12 13  1  0  0  0  0
 12 42  1  0  0  0  0
 13 43  1  0  0  0  0
 14 13  2  0  0  0  0
 14 31  1  0  0  0  0
 15 11  1  0  0  0  0
 15 16  2  0  0  0  0
 15 19  1  0  0  0  0
 16 14  1  0  0  0  0
 16 17  1  0  0  0  0
 17 18  1  0  0  0  0
 17 20  2  0  0  0  0
 17 21  2  0  0  0  0
 18 19  2  0  0  0  0
 19  1  1  0  0  0  0
 22 44  1  0  0  0  0
 22 45  1  0  0  0  0
 22 46  1  0  0  0  0
 23 47  1  0  0  0  0
 23 48  1  0  0  0  0
 23 49  1  0  0  0  0
 24 50  1  0  0  0  0
 24 51  1  0  0  0  0
 24 52  1  0  0  0  0
 25 26  1  0  0  0  0
 25 53  1  0  0  0  0
 26 27  2  0  0  0  0
 26 54  1  0  0  0  0
 27 28  1  0  0  0  0
 27 30  1  0  0  0  0
 28 29  2  0  0  0  0
 28 55  1  0  0  0  0
 29 56  1  0  0  0  0
 31 32  1  0  0  0  0
 31 57  1  0  0  0  0
 31 58  1  0  0  0  0
 32 33  1  0  0  0  0
 32 59  1  0  0  0  0
 33 34  1  0  0  0  0
 33 35  2  0  0  0  0
 33 36  2  0  0  0  0
 34 60  1  0  0  0  0
 34 61  1  0  0  0  0
 34 62  1  0  0  0  0
M  END
