3h98_ligand
 OpenBabel08222323343D

 57 60  0  0  1  0  0  0  0  0999 V2000
    4.9820   -8.8960   -9.6940 C   0  0  0  0  0  0  0  0  0  0  0  0
    6.4900   -9.1390   -9.6140 C   0  0  0  0  0  0  0  0  0  0  0  0
    6.7380   -9.4220   -8.1300 C   0  0  0  0  0  0  0  0  0  0  0  0
    6.9480  -10.2690  -10.5070 C   0  0  0  0  0  0  0  0  0  0  0  0
    8.4510  -10.4250  -10.5270 C   0  0  0  0  0  0  0  0  0  0  0  0
    8.9780   -8.9450  -12.4630 C   0  0  0  0  0  0  0  0  0  0  0  0
    9.5850   -7.6880  -12.9660 C   0  0  1  0  0  0  0  0  0  0  0  0
    9.1090   -9.2310  -11.0890 N   0  0  0  0  0  0  0  0  0  0  0  0
   10.5130   -7.3420  -10.7180 N   0  0  0  0  0  0  0  0  0  0  0  0
    8.3030   -9.6340  -13.2290 O   0  0  0  0  0  0  0  0  0  0  0  0
   10.4530   -6.9730  -12.0070 C   0  0  2  0  0  0  0  0  0  0  0  0
   11.0670   -5.8580  -12.3880 O   0  0  0  0  0  0  0  0  0  0  0  0
   10.1030   -8.6130   -9.0250 N   0  0  0  0  0  0  0  0  0  0  0  0
   11.1530   -6.8040   -9.6720 C   0  0  0  0  0  0  0  0  0  0  0  0
   10.8990   -7.6130   -8.6050 C   0  0  0  0  0  0  0  0  0  0  0  0
    9.8800   -8.4320  -10.3230 C   0  0  0  0  0  0  0  0  0  0  0  0
    9.6620   -7.4930  -14.3900 C   0  0  0  0  0  0  0  0  0  0  0  0
   10.1940   -7.6570  -17.2470 C   0  0  0  0  0  0  0  0  0  0  0  0
    9.4050   -8.6440  -16.5240 C   0  0  0  0  0  0  0  0  0  0  0  0
    8.7950   -9.6570  -17.2480 C   0  0  0  0  0  0  0  0  0  0  0  0
    9.8280   -8.7350  -23.0420 O   0  0  0  0  0  0  0  0  0  0  0  0
   10.2940   -8.1480  -21.8190 S   0  0  0  0  0  0  0  0  0  0  0  0
    9.7500   -6.9130  -21.4460 O   0  0  0  0  0  0  0  0  0  0  0  0
   11.9790   -8.0910  -21.9570 C   0  0  0  0  0  0  0  0  0  0  0  0
    9.8640   -9.1420  -20.6380 N   0  0  0  0  0  0  0  0  0  0  0  0
    9.7430   -8.8850  -19.3090 C   0  0  0  0  0  0  0  0  0  0  0  0
   10.3610   -7.8050  -18.6370 C   0  0  0  0  0  0  0  0  0  0  0  0
   10.7800   -6.3990  -16.3890 S   0  0  0  0  0  0  0  0  0  0  0  0
    9.9780   -5.2130  -16.7360 O   0  0  0  0  0  0  0  0  0  0  0  0
   12.1460   -6.2550  -16.7680 O   0  0  0  0  0  0  0  0  0  0  0  0
   10.5410   -6.5750  -14.8100 N   0  0  0  0  0  0  0  0  0  0  0  0
    8.9440   -9.7880  -18.6050 C   0  0  0  0  0  0  0  0  0  0  0  0
    9.1870   -8.4840  -15.1920 N   0  0  0  0  0  0  0  0  0  0  0  0
    4.7084   -8.0660   -9.0260 H   0  0  0  0  0  0  0  0  0  0  0  0
    4.4470   -9.8063   -9.3857 H   0  0  0  0  0  0  0  0  0  0  0  0
    4.7060   -8.6408  -10.7278 H   0  0  0  0  0  0  0  0  0  0  0  0
    7.0294   -8.2285   -9.9139 H   0  0  0  0  0  0  0  0  0  0  0  0
    7.8091   -9.6121   -7.9670 H   0  0  0  0  0  0  0  0  0  0  0  0
    6.1581  -10.3049   -7.8232 H   0  0  0  0  0  0  0  0  0  0  0  0
    6.4251   -8.5523   -7.5336 H   0  0  0  0  0  0  0  0  0  0  0  0
    6.6014  -10.0701  -11.5318 H   0  0  0  0  0  0  0  0  0  0  0  0
    6.5018  -11.2068  -10.1445 H   0  0  0  0  0  0  0  0  0  0  0  0
    8.7118  -11.2996  -11.1411 H   0  0  0  0  0  0  0  0  0  0  0  0
    8.8084  -10.5795   -9.4982 H   0  0  0  0  0  0  0  0  0  0  0  0
    8.7026   -7.0475  -12.8207 H   0  0  0  0  0  0  0  0  0  0  0  0
   11.3211   -7.5961  -12.2680 H   0  0  0  0  0  0  0  0  0  0  0  0
   10.9371   -5.7289  -13.3202 H   0  0  0  0  0  0  0  0  0  0  0  0
   11.7575   -5.8982   -9.6736 H   0  0  0  0  0  0  0  0  0  0  0  0
   11.2739   -7.4745   -7.5920 H   0  0  0  0  0  0  0  0  0  0  0  0
    8.1759  -10.3737  -16.7206 H   0  0  0  0  0  0  0  0  0  0  0  0
   12.3565   -9.0815  -22.2508 H   0  0  0  0  0  0  0  0  0  0  0  0
   12.4167   -7.8041  -20.9895 H   0  0  0  0  0  0  0  0  0  0  0  0
   12.2596   -7.3505  -22.7205 H   0  0  0  0  0  0  0  0  0  0  0  0
    9.6563  -10.0796  -20.9170 H   0  0  0  0  0  0  0  0  0  0  0  0
   10.9619   -7.0928  -19.1909 H   0  0  0  0  0  0  0  0  0  0  0  0
    8.4418  -10.5921  -19.1307 H   0  0  0  0  0  0  0  0  0  0  0  0
    8.5947   -9.1939  -14.7380 H   0  0  0  0  0  0  0  0  0  0  0  0
  1 34  1  0  0  0  0
  1 35  1  0  0  0  0
  1 36  1  0  0  0  0
  2  1  1  0  0  0  0
  2  3  1  0  0  0  0
  2 37  1  0  0  0  0
  3 38  1  0  0  0  0
  3 39  1  0  0  0  0
  3 40  1  0  0  0  0
  4  2  1  0  0  0  0
  4 41  1  0  0  0  0
  4 42  1  0  0  0  0
  5  4  1  0  0  0  0
  5 43  1  0  0  0  0
  5 44  1  0  0  0  0
  6  8  1  0  0  0  0
  6 10  2  0  0  0  0
  7  6  1  0  0  0  0
  7 11  1  0  0  0  0
  7 45  1  1  0  0  0
  8  5  1  0  0  0  0
  8 16  1  0  0  0  0
  9 14  1  0  0  0  0
  9 16  1  0  0  0  0
 11  9  1  0  0  0  0
 11 12  1  0  0  0  0
 11 46  1  6  0  0  0
 12 47  1  0  0  0  0
 13 15  1  0  0  0  0
 14 15  2  0  0  0  0
 14 48  1  0  0  0  0
 15 49  1  0  0  0  0
 16 13  2  0  0  0  0
 17  7  1  0  0  0  0
 17 31  2  0  0  0  0
 18 19  2  0  0  0  0
 18 28  1  0  0  0  0
 19 20  1  0  0  0  0
 19 33  1  0  0  0  0
 20 32  2  0  0  0  0
 20 50  1  0  0  0  0
 22 21  2  0  0  0  0
 22 23  2  0  0  0  0
 22 24  1  0  0  0  0
 24 51  1  0  0  0  0
 24 52  1  0  0  0  0
 24 53  1  0  0  0  0
 25 22  1  0  0  0  0
 25 54  1  0  0  0  0
 26 25  1  0  0  0  0
 26 27  2  0  0  0  0
 26 32  1  0  0  0  0
 27 18  1  0  0  0  0
 27 55  1  0  0  0  0
 28 29  2  0  0  0  0
 28 30  2  0  0  0  0
 28 31  1  0  0  0  0
 32 56  1  0  0  0  0
 33 17  1  0  0  0  0
 33 57  1  0  0  0  0
M  END
