3ha6_ligand
 OpenBabel08222323343D

 64 68  0  0  0  0  0  0  0  0999 V2000
  -22.0880   24.0310    5.3940 C   0  0  0  0  0  0  0  0  0  0  0  0
  -34.5320   24.0910    8.6060 C   0  0  0  0  0  0  0  0  0  0  0  0
  -22.5870   21.9740    4.2580 C   0  0  0  0  0  0  0  0  0  0  0  0
  -23.2610   24.5810    4.9220 C   0  0  0  0  0  0  0  0  0  0  0  0
  -33.3850   23.6450    7.9850 C   0  0  0  0  0  0  0  0  0  0  0  0
  -29.6200   24.7270    7.5330 C   0  0  0  0  0  0  0  0  0  0  0  0
  -35.7270   23.9440    7.9400 C   0  0  0  0  0  0  0  0  0  0  0  0
  -28.3460   23.6120    9.2140 C   0  0  0  0  0  0  0  0  0  0  0  0
  -25.4910   20.7390    3.7680 C   0  0  0  0  0  0  0  0  0  0  0  0
  -28.5990   23.8630    7.8820 C   0  0  0  0  0  0  0  0  0  0  0  0
  -23.7650   22.5180    3.7810 C   0  0  0  0  0  0  0  0  0  0  0  0
  -34.7280   22.9660    6.1390 C   0  0  0  0  0  0  0  0  0  0  0  0
  -24.0910   23.8240    4.1190 C   0  0  0  0  0  0  0  0  0  0  0  0
  -27.7670   21.2340    4.0100 C   0  0  0  0  0  0  0  0  0  0  0  0
  -28.2730   22.5170    5.8210 C   0  0  0  0  0  0  0  0  0  0  0  0
  -32.0560   26.1950   10.2440 C   0  0  0  0  0  0  0  0  0  0  0  0
  -27.8300   23.0280   11.6660 C   0  0  0  0  0  0  0  0  0  0  0  0
  -21.7530   22.7280    5.0610 C   0  0  0  0  0  0  0  0  0  0  0  0
  -33.6430   21.9360    4.2540 C   0  0  0  0  0  0  0  0  0  0  0  0
  -34.7770   22.3860    4.8900 C   0  0  0  0  0  0  0  0  0  0  0  0
  -30.3930   25.3290    8.5040 C   0  0  0  0  0  0  0  0  0  0  0  0
  -32.3420   22.6250    6.1020 C   0  0  0  0  0  0  0  0  0  0  0  0
  -24.6600   21.6960    2.9060 C   0  0  0  0  0  0  0  0  0  0  0  0
  -33.4830   23.0750    6.7340 C   0  0  0  0  0  0  0  0  0  0  0  0
  -32.4070   22.0500    4.8510 C   0  0  0  0  0  0  0  0  0  0  0  0
  -30.1370   25.0640    9.8340 C   0  0  0  0  0  0  0  0  0  0  0  0
  -29.1130   24.2120   10.1920 C   0  0  0  0  0  0  0  0  0  0  0  0
  -29.9380   21.7140    4.4990 C   0  0  0  0  0  0  0  0  0  0  0  0
  -35.8530   23.3940    6.7300 N   0  0  0  0  0  0  0  0  0  0  0  0
  -29.0600   21.0990    3.6950 N   0  0  0  0  0  0  0  0  0  0  0  0
  -27.3390   21.9360    5.0650 N   0  0  0  0  0  0  0  0  0  0  0  0
  -29.5840   22.4350    5.5740 N   0  0  0  0  0  0  0  0  0  0  0  0
  -26.8200   20.6040    3.1820 N   0  0  0  0  0  0  0  0  0  0  0  0
  -31.2890   21.5640    4.1500 N   0  0  0  0  0  0  0  0  0  0  0  0
  -27.7930   23.2390    6.9190 N   0  0  0  0  0  0  0  0  0  0  0  0
  -30.8820   25.6480   10.8450 O   0  0  0  0  0  0  0  0  0  0  0  0
  -28.8890   23.9760   11.5420 O   0  0  0  0  0  0  0  0  0  0  0  0
  -25.2310   24.3820    3.6690 F   0  0  0  0  0  0  0  0  0  0  0  0
  -21.4289   24.6168    6.0245 H   0  0  0  0  0  0  0  0  0  0  0  0
  -34.4937   24.5442    9.5900 H   0  0  0  0  0  0  0  0  0  0  0  0
  -22.3176   20.9557    4.0020 H   0  0  0  0  0  0  0  0  0  0  0  0
  -23.5294   25.5993    5.1792 H   0  0  0  0  0  0  0  0  0  0  0  0
  -32.4216   23.7410    8.4726 H   0  0  0  0  0  0  0  0  0  0  0  0
  -29.8150   24.9333    6.4868 H   0  0  0  0  0  0  0  0  0  0  0  0
  -36.6263   24.2985    8.4306 H   0  0  0  0  0  0  0  0  0  0  0  0
  -27.5419   22.9411    9.4940 H   0  0  0  0  0  0  0  0  0  0  0  0
  -25.5770   21.1418    4.7880 H   0  0  0  0  0  0  0  0  0  0  0  0
  -25.0016   19.7545    3.8026 H   0  0  0  0  0  0  0  0  0  0  0  0
  -32.6768   26.6700   11.0180 H   0  0  0  0  0  0  0  0  0  0  0  0
  -32.6278   25.3908    9.7578 H   0  0  0  0  0  0  0  0  0  0  0  0
  -31.7679   26.9456    9.4933 H   0  0  0  0  0  0  0  0  0  0  0  0
  -27.6389   22.8290   12.7308 H   0  0  0  0  0  0  0  0  0  0  0  0
  -26.9195   23.4321   11.1994 H   0  0  0  0  0  0  0  0  0  0  0  0
  -28.1151   22.0919   11.1635 H   0  0  0  0  0  0  0  0  0  0  0  0
  -20.8303   22.2975    5.4331 H   0  0  0  0  0  0  0  0  0  0  0  0
  -33.7233   21.4862    3.2710 H   0  0  0  0  0  0  0  0  0  0  0  0
  -35.7356   22.2814    4.3948 H   0  0  0  0  0  0  0  0  0  0  0  0
  -31.1941   26.0039    8.2250 H   0  0  0  0  0  0  0  0  0  0  0  0
  -31.3821   22.7250    6.5957 H   0  0  0  0  0  0  0  0  0  0  0  0
  -25.3334   22.3608    2.3452 H   0  0  0  0  0  0  0  0  0  0  0  0
  -24.0478   21.1145    2.2009 H   0  0  0  0  0  0  0  0  0  0  0  0
  -27.0326   20.1213    2.2973 H   0  0  0  0  0  0  0  0  0  0  0  0
  -31.4831   21.0400    3.2848 H   0  0  0  0  0  0  0  0  0  0  0  0
  -26.7719   23.3181    7.0281 H   0  0  0  0  0  0  0  0  0  0  0  0
  1 39  1  0  0  0  0
  2  7  1  0  0  0  0
  2 40  1  0  0  0  0
  3 18  2  0  0  0  0
  3 41  1  0  0  0  0
  4  1  2  0  0  0  0
  4 42  1  0  0  0  0
  5  2  2  0  0  0  0
  5 43  1  0  0  0  0
  6 21  1  0  0  0  0
  6 44  1  0  0  0  0
  7 45  1  0  0  0  0
  8 27  2  0  0  0  0
  8 46  1  0  0  0  0
  9 23  1  0  0  0  0
  9 47  1  0  0  0  0
  9 48  1  0  0  0  0
 10  6  2  0  0  0  0
 10  8  1  0  0  0  0
 11  3  1  0  0  0  0
 11 13  2  0  0  0  0
 12 29  1  0  0  0  0
 13  4  1  0  0  0  0
 13 38  1  0  0  0  0
 14 31  1  0  0  0  0
 14 33  1  0  0  0  0
 15 31  2  0  0  0  0
 15 35  1  0  0  0  0
 16 49  1  0  0  0  0
 16 50  1  0  0  0  0
 16 51  1  0  0  0  0
 17 52  1  0  0  0  0
 17 53  1  0  0  0  0
 17 54  1  0  0  0  0
 18  1  1  0  0  0  0
 18 55  1  0  0  0  0
 19 20  1  0  0  0  0
 19 56  1  0  0  0  0
 20 12  2  0  0  0  0
 20 57  1  0  0  0  0
 21 26  2  0  0  0  0
 21 58  1  0  0  0  0
 22 24  2  0  0  0  0
 22 59  1  0  0  0  0
 23 11  1  0  0  0  0
 23 60  1  0  0  0  0
 23 61  1  0  0  0  0
 24  5  1  0  0  0  0
 24 12  1  0  0  0  0
 25 19  2  0  0  0  0
 25 22  1  0  0  0  0
 26 36  1  0  0  0  0
 27 26  1  0  0  0  0
 27 37  1  0  0  0  0
 28 30  1  0  0  0  0
 28 32  2  0  0  0  0
 28 34  1  0  0  0  0
 29  7  2  0  0  0  0
 30 14  2  0  0  0  0
 32 15  1  0  0  0  0
 33  9  1  0  0  0  0
 33 62  1  0  0  0  0
 34 25  1  0  0  0  0
 34 63  1  0  0  0  0
 35 10  1  0  0  0  0
 35 64  1  0  0  0  0
 36 16  1  0  0  0  0
 37 17  1  0  0  0  0
M  END
