3hac_ligand
 OpenBabel08222323343D

 37 40  0  0  1  0  0  0  0  0999 V2000
   35.5330   47.0310   35.3050 F   0  0  0  0  0  0  0  0  0  0  0  0
   35.7440   48.2950   35.7150 C   0  0  0  0  0  0  0  0  0  0  0  0
   34.6640   49.0760   36.0980 C   0  0  0  0  0  0  0  0  0  0  0  0
   33.4300   48.5580   36.0550 F   0  0  0  0  0  0  0  0  0  0  0  0
   37.0430   48.8110   35.7300 C   0  0  0  0  0  0  0  0  0  0  0  0
   37.2560   50.1180   36.1550 C   0  0  0  0  0  0  0  0  0  0  0  0
   36.1590   50.8970   36.5270 C   0  0  0  0  0  0  0  0  0  0  0  0
   36.3530   52.1490   36.9320 F   0  0  0  0  0  0  0  0  0  0  0  0
   34.8610   50.3940   36.5070 C   0  0  0  0  0  0  0  0  0  0  0  0
   38.6360   50.7130   36.1890 C   0  0  2  0  0  0  0  0  0  0  0  0
   39.0680   51.0870   34.7600 C   0  0  1  0  0  0  0  0  0  0  0  0
   38.0330   51.8460   34.0540 N   0  3  0  0  0  0  0  0  0  0  0  0
   40.3780   51.8800   34.7850 C   0  0  0  0  0  0  0  0  0  0  0  0
   41.3700   51.1810   35.6120 N   0  0  0  0  0  0  0  0  0  0  0  0
   42.6930   51.3930   35.5820 C   0  0  0  0  0  0  0  0  0  0  0  0
   43.2710   50.4880   36.5960 C   0  0  0  0  0  0  0  0  0  0  0  0
   42.2170   49.8260   37.1720 N   0  0  0  0  0  0  0  0  0  0  0  0
   41.0790   50.2480   36.5620 C   0  0  0  0  0  0  0  0  0  0  0  0
   39.6670   49.7810   36.8800 C   0  0  0  0  0  0  0  0  0  0  0  0
   44.6580   50.4990   36.7790 C   0  0  0  0  0  0  0  0  0  0  0  0
   45.4220   51.3090   36.0240 N   0  0  0  0  0  0  0  0  0  0  0  0
   44.9190   52.1480   35.0790 C   0  0  0  0  0  0  0  0  0  0  0  0
   43.5380   52.2200   34.8370 C   0  0  0  0  0  0  0  0  0  0  0  0
   37.8781   48.1970   35.4127 H   0  0  0  0  0  0  0  0  0  0  0  0
   34.0221   51.0135   36.8029 H   0  0  0  0  0  0  0  0  0  0  0  0
   38.5868   51.6396   36.7797 H   0  0  0  0  0  0  0  0  0  0  0  0
   39.2415   50.1534   34.2048 H   0  0  0  0  0  0  0  0  0  0  0  0
   38.3551   52.0700   33.1255 H   0  0  0  0  0  0  0  0  0  0  0  0
   37.8390   52.6978   34.5569 H   0  0  0  0  0  0  0  0  0  0  0  0
   37.1927   51.2926   33.9937 H   0  0  0  0  0  0  0  0  0  0  0  0
   40.1915   52.8791   35.2057 H   0  0  0  0  0  0  0  0  0  0  0  0
   40.7635   51.9799   33.7596 H   0  0  0  0  0  0  0  0  0  0  0  0
   39.5317   48.7524   36.5144 H   0  0  0  0  0  0  0  0  0  0  0  0
   39.5105   49.8069   37.9685 H   0  0  0  0  0  0  0  0  0  0  0  0
   45.1145   49.8585   37.5249 H   0  0  0  0  0  0  0  0  0  0  0  0
   45.5948   52.7706   34.5039 H   0  0  0  0  0  0  0  0  0  0  0  0
   43.1380   52.8987   34.0924 H   0  0  0  0  0  0  0  0  0  0  0  0
  1  2  1  0  0  0  0
  2  3  2  0  0  0  0
  2  5  1  0  0  0  0
  3  4  1  0  0  0  0
  3  9  1  0  0  0  0
  5  6  2  0  0  0  0
  5 24  1  0  0  0  0
  6  7  1  0  0  0  0
  6 10  1  0  0  0  0
  7  8  1  0  0  0  0
  7  9  2  0  0  0  0
  9 25  1  0  0  0  0
 10 11  1  0  0  0  0
 10 19  1  0  0  0  0
 10 26  1  1  0  0  0
 11 12  1  0  0  0  0
 11 13  1  0  0  0  0
 11 27  1  6  0  0  0
 12 28  1  0  0  0  0
 12 29  1  0  0  0  0
 12 30  1  0  0  0  0
 13 14  1  0  0  0  0
 13 31  1  0  0  0  0
 13 32  1  0  0  0  0
 14 15  1  0  0  0  0
 14 18  1  0  0  0  0
 15 16  2  0  0  0  0
 15 23  1  0  0  0  0
 16 17  1  0  0  0  0
 16 20  1  0  0  0  0
 17 18  2  0  0  0  0
 18 19  1  0  0  0  0
 19 33  1  0  0  0  0
 19 34  1  0  0  0  0
 20 21  2  0  0  0  0
 20 35  1  0  0  0  0
 21 22  1  0  0  0  0
 22 23  2  0  0  0  0
 22 36  1  0  0  0  0
 23 37  1  0  0  0  0
M  CHG  1  12   1
M  END
