3hd3_ligand
 OpenBabel08222323343D

 68 70  0  0  1  0  0  0  0  0999 V2000
   11.8830    9.8610   -1.1400 O   0  0  0  0  0  0  0  0  0  0  0  0
   11.8640   10.0990   -2.5040 S   0  0  0  0  0  0  0  0  0  0  0  0
   12.6370   11.2050   -3.0040 O   0  0  0  0  0  0  0  0  0  0  0  0
   10.2770   10.4000   -2.9020 C   0  0  0  0  0  0  0  0  0  0  0  0
    9.7730   11.6850   -3.0470 C   0  0  0  0  0  0  0  0  0  0  0  0
    8.4080   11.9150   -3.3560 C   0  0  0  0  0  0  0  0  0  0  0  0
    7.5130   10.8540   -3.5240 C   0  0  0  0  0  0  0  0  0  0  0  0
    8.0060    9.5920   -3.3830 C   0  0  0  0  0  0  0  0  0  0  0  0
    9.3510    9.3850   -3.0340 C   0  0  0  0  0  0  0  0  0  0  0  0
   12.2800    8.6390   -3.2920 C   0  0  0  0  0  0  0  0  0  0  0  0
   13.7760    8.4370   -3.4830 C   0  0  0  0  0  0  0  0  0  0  0  0
   14.2770    8.5070   -4.9360 C   0  0  2  0  0  0  0  0  0  0  0  0
   13.8030    9.7730   -5.7090 C   0  0  0  0  0  0  0  0  0  0  0  0
   14.5880    9.8870   -7.0000 C   0  0  0  0  0  0  0  0  0  0  0  0
   14.2070   11.0790   -7.9180 C   0  0  0  0  0  0  0  0  0  0  0  0
   14.0810   12.3430   -7.1400 C   0  0  0  0  0  0  0  0  0  0  0  0
   13.8070    7.2450   -5.5640 N   0  0  0  0  0  0  0  0  0  0  0  0
   14.5920    6.2590   -6.0350 C   0  0  0  0  0  0  0  0  0  0  0  0
   15.8950    6.3690   -6.0580 O   0  0  0  0  0  0  0  0  0  0  0  0
   13.9520    4.9830   -6.5790 C   0  0  2  0  0  0  0  0  0  0  0  0
   14.0920    3.8990   -5.4990 C   0  0  0  0  0  0  0  0  0  0  0  0
   13.5000    2.5650   -5.9530 C   0  0  0  0  0  0  0  0  0  0  0  0
   13.9850    2.1510   -7.3280 C   0  0  0  0  0  0  0  0  0  0  0  0
   13.8590    3.2590   -8.3500 C   0  0  0  0  0  0  0  0  0  0  0  0
   14.5860    4.5670   -7.8820 C   0  0  1  0  0  0  0  0  0  0  0  0
   14.5000    5.6630   -8.8880 C   0  0  0  0  0  0  0  0  0  0  0  0
   13.4190    6.3100   -9.0420 O   0  0  0  0  0  0  0  0  0  0  0  0
   15.7190    6.0180   -9.6900 C   0  0  0  0  0  0  0  0  0  0  0  0
   16.8360    5.1640   -9.7890 C   0  0  0  0  0  0  0  0  0  0  0  0
   15.7050    7.2060  -10.3630 C   0  0  0  0  0  0  0  0  0  0  0  0
   16.8140    7.5530  -11.1340 C   0  0  0  0  0  0  0  0  0  0  0  0
   17.8720    6.7070  -11.2250 C   0  0  0  0  0  0  0  0  0  0  0  0
   19.2520    7.2880  -12.1850 Cl  0  0  0  0  0  0  0  0  0  0  0  0
   17.9290    5.5080  -10.5660 C   0  0  0  0  0  0  0  0  0  0  0  0
   10.4377   12.5320   -2.9212 H   0  0  0  0  0  0  0  0  0  0  0  0
    8.0517   12.9331   -3.4640 H   0  0  0  0  0  0  0  0  0  0  0  0
    6.4689   11.0287   -3.7571 H   0  0  0  0  0  0  0  0  0  0  0  0
    7.3548    8.7400   -3.5415 H   0  0  0  0  0  0  0  0  0  0  0  0
    9.6812    8.3676   -2.8579 H   0  0  0  0  0  0  0  0  0  0  0  0
   11.8021    8.6335   -4.2827 H   0  0  0  0  0  0  0  0  0  0  0  0
   11.8926    7.8015   -2.6933 H   0  0  0  0  0  0  0  0  0  0  0  0
   14.0375    7.4465   -3.0825 H   0  0  0  0  0  0  0  0  0  0  0  0
   14.2986    9.2150   -2.9072 H   0  0  0  0  0  0  0  0  0  0  0  0
   15.3769    8.5187   -4.9316 H   0  0  0  0  0  0  0  0  0  0  0  0
   13.9757   10.6675   -5.0925 H   0  0  0  0  0  0  0  0  0  0  0  0
   12.7303    9.6859   -5.9364 H   0  0  0  0  0  0  0  0  0  0  0  0
   14.4358    8.9591   -7.5708 H   0  0  0  0  0  0  0  0  0  0  0  0
   15.6522    9.9875   -6.7404 H   0  0  0  0  0  0  0  0  0  0  0  0
   13.2458   10.8619   -8.4067 H   0  0  0  0  0  0  0  0  0  0  0  0
   14.9871   11.2056   -8.6831 H   0  0  0  0  0  0  0  0  0  0  0  0
   13.8109   13.1657   -7.8184 H   0  0  0  0  0  0  0  0  0  0  0  0
   15.0402   12.5703   -6.6518 H   0  0  0  0  0  0  0  0  0  0  0  0
   13.2988   12.2265   -6.3754 H   0  0  0  0  0  0  0  0  0  0  0  0
   12.8184    7.1170   -5.6437 H   0  0  0  0  0  0  0  0  0  0  0  0
   12.8831    5.1675   -6.7617 H   0  0  0  0  0  0  0  0  0  0  0  0
   13.5668    4.2309   -4.5913 H   0  0  0  0  0  0  0  0  0  0  0  0
   15.1592    3.7566   -5.2738 H   0  0  0  0  0  0  0  0  0  0  0  0
   12.4041    2.6561   -5.9785 H   0  0  0  0  0  0  0  0  0  0  0  0
   13.7866    1.7877   -5.2294 H   0  0  0  0  0  0  0  0  0  0  0  0
   13.3894    1.2905   -7.6668 H   0  0  0  0  0  0  0  0  0  0  0  0
   15.0429    1.8587   -7.2547 H   0  0  0  0  0  0  0  0  0  0  0  0
   12.7928    3.4804   -8.5058 H   0  0  0  0  0  0  0  0  0  0  0  0
   14.3059    2.9225   -9.2971 H   0  0  0  0  0  0  0  0  0  0  0  0
   15.6491    4.3416   -7.7119 H   0  0  0  0  0  0  0  0  0  0  0  0
   16.8393    4.2242   -9.2489 H   0  0  0  0  0  0  0  0  0  0  0  0
   14.8481    7.8668  -10.2992 H   0  0  0  0  0  0  0  0  0  0  0  0
   16.8314    8.4998  -11.6616 H   0  0  0  0  0  0  0  0  0  0  0  0
   18.7918    4.8570  -10.6490 H   0  0  0  0  0  0  0  0  0  0  0  0
  1  2  2  0  0  0  0
  2  3  2  0  0  0  0
  2  4  1  0  0  0  0
  2 10  1  0  0  0  0
  4  5  2  0  0  0  0
  4  9  1  0  0  0  0
  5  6  1  0  0  0  0
  5 35  1  0  0  0  0
  6  7  2  0  0  0  0
  6 36  1  0  0  0  0
  7  8  1  0  0  0  0
  7 37  1  0  0  0  0
  8  9  2  0  0  0  0
  8 38  1  0  0  0  0
  9 39  1  0  0  0  0
 10 11  1  0  0  0  0
 10 40  1  0  0  0  0
 10 41  1  0  0  0  0
 11 12  1  0  0  0  0
 11 42  1  0  0  0  0
 11 43  1  0  0  0  0
 12 13  1  0  0  0  0
 12 17  1  0  0  0  0
 12 44  1  1  0  0  0
 13 14  1  0  0  0  0
 13 45  1  0  0  0  0
 13 46  1  0  0  0  0
 14 15  1  0  0  0  0
 14 47  1  0  0  0  0
 14 48  1  0  0  0  0
 15 16  1  0  0  0  0
 15 49  1  0  0  0  0
 15 50  1  0  0  0  0
 16 51  1  0  0  0  0
 16 52  1  0  0  0  0
 16 53  1  0  0  0  0
 17 18  1  0  0  0  0
 17 54  1  0  0  0  0
 18 19  2  0  0  0  0
 18 20  1  0  0  0  0
 20 21  1  0  0  0  0
 20 25  1  0  0  0  0
 20 55  1  6  0  0  0
 21 22  1  0  0  0  0
 21 56  1  0  0  0  0
 21 57  1  0  0  0  0
 22 23  1  0  0  0  0
 22 58  1  0  0  0  0
 22 59  1  0  0  0  0
 23 24  1  0  0  0  0
 23 60  1  0  0  0  0
 23 61  1  0  0  0  0
 24 25  1  0  0  0  0
 24 62  1  0  0  0  0
 24 63  1  0  0  0  0
 25 26  1  0  0  0  0
 25 64  1  1  0  0  0
 26 27  2  0  0  0  0
 26 28  1  0  0  0  0
 28 29  2  0  0  0  0
 28 30  1  0  0  0  0
 29 34  1  0  0  0  0
 29 65  1  0  0  0  0
 30 31  2  0  0  0  0
 30 66  1  0  0  0  0
 31 32  1  0  0  0  0
 31 67  1  0  0  0  0
 32 33  1  0  0  0  0
 32 34  2  0  0  0  0
 34 68  1  0  0  0  0
M  END
