3hdm_ligand
 OpenBabel08222323343D

 37 40  0  0  0  0  0  0  0  0999 V2000
   39.0200   29.8990   66.5850 C   0  0  0  0  0  0  0  0  0  0  0  0
   36.6620   30.0730   66.5510 C   0  0  0  0  0  0  0  0  0  0  0  0
   34.2760   35.7290   70.3390 C   0  0  0  0  0  0  0  0  0  0  0  0
   34.0840   34.0980   68.6180 C   0  0  0  0  0  0  0  0  0  0  0  0
   33.0440   36.2450   70.0060 C   0  0  0  0  0  0  0  0  0  0  0  0
   36.8460   32.2620   68.4080 C   0  0  0  0  0  0  0  0  0  0  0  0
   37.8680   30.4540   67.1030 C   0  0  0  0  0  0  0  0  0  0  0  0
   32.3410   35.6750   68.9710 C   0  0  0  0  0  0  0  0  0  0  0  0
   36.9310   33.1240   69.4870 C   0  0  0  0  0  0  0  0  0  0  0  0
   31.0330   36.2380   68.6240 C   0  0  0  0  0  0  0  0  0  0  0  0
   37.7680   28.6270   65.0120 C   0  0  0  0  0  0  0  0  0  0  0  0
   38.9780   28.9930   65.5500 C   0  0  0  0  0  0  0  0  0  0  0  0
   36.6060   29.1700   65.5130 C   0  0  0  0  0  0  0  0  0  0  0  0
   32.8490   34.6050   68.2700 C   0  0  0  0  0  0  0  0  0  0  0  0
   36.7560   34.6360   71.1520 C   0  0  0  0  0  0  0  0  0  0  0  0
   38.9790   31.4450   69.0670 C   0  0  0  0  0  0  0  0  0  0  0  0
   34.8060   34.6560   69.6540 C   0  0  0  0  0  0  0  0  0  0  0  0
   37.9060   31.4020   68.2000 C   0  0  0  0  0  0  0  0  0  0  0  0
   36.0990   34.1360   70.0480 C   0  0  0  0  0  0  0  0  0  0  0  0
   38.0660   33.0500   70.2730 C   0  0  0  0  0  0  0  0  0  0  0  0
   37.9410   33.9670   71.2710 N   0  0  0  0  0  0  0  0  0  0  0  0
   39.1210   32.2490   70.1290 N   0  0  0  0  0  0  0  0  0  0  0  0
   30.7070   35.8220   67.3760 O   0  5  0  0  0  0  0  0  0  0  0  0
   30.3780   36.9660   69.3570 O   0  0  0  0  0  0  0  0  0  0  0  0
   39.9793   30.1828   67.0024 H   0  0  0  0  0  0  0  0  0  0  0  0
   35.7419   30.4923   66.9417 H   0  0  0  0  0  0  0  0  0  0  0  0
   34.8383   36.1731   71.1524 H   0  0  0  0  0  0  0  0  0  0  0  0
   34.4911   33.2540   68.0731 H   0  0  0  0  0  0  0  0  0  0  0  0
   32.6345   37.0876   70.5513 H   0  0  0  0  0  0  0  0  0  0  0  0
   35.9825   32.2619   67.7527 H   0  0  0  0  0  0  0  0  0  0  0  0
   37.7282   27.9138   64.1966 H   0  0  0  0  0  0  0  0  0  0  0  0
   39.8967   28.5695   65.1605 H   0  0  0  0  0  0  0  0  0  0  0  0
   35.6485   28.8870   65.0908 H   0  0  0  0  0  0  0  0  0  0  0  0
   32.2857   34.1660   67.4545 H   0  0  0  0  0  0  0  0  0  0  0  0
   36.3948   35.4237   71.8115 H   0  0  0  0  0  0  0  0  0  0  0  0
   39.7919   30.7561   68.8677 H   0  0  0  0  0  0  0  0  0  0  0  0
   38.6394   34.1327   72.0097 H   0  0  0  0  0  0  0  0  0  0  0  0
  1 12  1  0  0  0  0
  1 25  1  0  0  0  0
  2 13  2  0  0  0  0
  2 26  1  0  0  0  0
  3  5  2  0  0  0  0
  3 27  1  0  0  0  0
  4 14  1  0  0  0  0
  4 28  1  0  0  0  0
  5  8  1  0  0  0  0
  5 29  1  0  0  0  0
  6 18  1  0  0  0  0
  6 30  1  0  0  0  0
  7  1  2  0  0  0  0
  7  2  1  0  0  0  0
  8 10  1  0  0  0  0
  9  6  2  0  0  0  0
  9 20  1  0  0  0  0
 10 23  1  0  0  0  0
 10 24  2  0  0  0  0
 11 31  1  0  0  0  0
 12 11  2  0  0  0  0
 12 32  1  0  0  0  0
 13 11  1  0  0  0  0
 13 33  1  0  0  0  0
 14  8  2  0  0  0  0
 14 34  1  0  0  0  0
 15 21  1  0  0  0  0
 15 35  1  0  0  0  0
 16 22  1  0  0  0  0
 16 36  1  0  0  0  0
 17  3  1  0  0  0  0
 17  4  2  0  0  0  0
 17 19  1  0  0  0  0
 18  7  1  0  0  0  0
 18 16  2  0  0  0  0
 19  9  1  0  0  0  0
 19 15  2  0  0  0  0
 20 21  1  0  0  0  0
 20 22  2  0  0  0  0
 21 37  1  0  0  0  0
M  CHG  1  23  -1
M  END
