3hdz_ligand
 OpenBabel08222323343D

 43 45  0  0  0  0  0  0  0  0999 V2000
   20.1520   -6.7490   11.9030 N   0  0  0  0  0  0  0  0  0  0  0  0
   18.2550   -5.2510   11.8590 C   0  0  0  0  0  0  0  0  0  0  0  0
   18.2170   -5.1720   14.5640 C   0  0  0  0  0  0  0  0  0  0  0  0
   20.1210   -6.6960   14.6770 C   0  0  0  0  0  0  0  0  0  0  0  0
   21.0540   -7.4740   12.6100 C   0  0  0  0  0  0  0  0  0  0  0  0
   20.2890   -6.8680   10.4530 C   0  0  0  0  0  0  0  0  0  0  0  0
   16.2790   -3.6970   11.7500 C   0  0  0  0  0  0  0  0  0  0  0  0
   15.0450   -3.4270   12.3450 C   0  0  0  0  0  0  0  0  0  0  0  0
   14.0600   -2.7150   11.6600 C   0  0  0  0  0  0  0  0  0  0  0  0
   15.5100   -2.5350    9.7430 C   0  0  0  0  0  0  0  0  0  0  0  0
   14.2860   -2.2640   10.3560 C   0  0  0  0  0  0  0  0  0  0  0  0
   19.2120   -6.0000   12.5470 C   0  0  0  0  0  0  0  0  0  0  0  0
   19.1880   -5.9620   13.9420 C   0  0  0  0  0  0  0  0  0  0  0  0
   17.2990   -4.4750   12.5120 C   0  0  0  0  0  0  0  0  0  0  0  0
   17.3080   -4.4560   13.8670 N   0  0  0  0  0  0  0  0  0  0  0  0
   18.0880   -5.0510   15.8900 N   0  0  0  0  0  0  0  0  0  0  0  0
   21.0650   -7.4580   13.9970 C   0  0  0  0  0  0  0  0  0  0  0  0
   20.1900   -6.7330   15.9980 O   0  0  0  0  0  0  0  0  0  0  0  0
   21.3220   -5.8810    9.8900 C   0  0  0  0  0  0  0  0  0  0  0  0
   21.0790   -4.4000   10.2120 C   0  0  0  0  0  0  0  0  0  0  0  0
   16.4810   -3.2470   10.4430 C   0  0  0  0  0  0  0  0  0  0  0  0
   22.1300   -3.4500    9.6190 C   0  0  0  0  0  0  0  0  0  0  0  0
   18.2557   -5.2740   10.7752 H   0  0  0  0  0  0  0  0  0  0  0  0
   22.0487   -7.1330   12.2872 H   0  0  0  0  0  0  0  0  0  0  0  0
   20.9116   -8.5233   12.3123 H   0  0  0  0  0  0  0  0  0  0  0  0
   19.3136   -6.6659    9.9863 H   0  0  0  0  0  0  0  0  0  0  0  0
   20.6070   -7.8924   10.2092 H   0  0  0  0  0  0  0  0  0  0  0  0
   14.8497   -3.7753   13.3528 H   0  0  0  0  0  0  0  0  0  0  0  0
   13.1114   -2.5097   12.1428 H   0  0  0  0  0  0  0  0  0  0  0  0
   15.7031   -2.1947    8.7321 H   0  0  0  0  0  0  0  0  0  0  0  0
   13.5190   -1.7100    9.8271 H   0  0  0  0  0  0  0  0  0  0  0  0
   17.3489   -4.4507   16.2829 H   0  0  0  0  0  0  0  0  0  0  0  0
   18.7277   -5.5581   16.5181 H   0  0  0  0  0  0  0  0  0  0  0  0
   21.8053   -8.0363   14.5479 H   0  0  0  0  0  0  0  0  0  0  0  0
   21.0398   -6.4142   16.2787 H   0  0  0  0  0  0  0  0  0  0  0  0
   21.3314   -5.9908    8.7955 H   0  0  0  0  0  0  0  0  0  0  0  0
   22.3070   -6.1566   10.2947 H   0  0  0  0  0  0  0  0  0  0  0  0
   21.0815   -4.2790   11.3053 H   0  0  0  0  0  0  0  0  0  0  0  0
   20.0934   -4.1169    9.8139 H   0  0  0  0  0  0  0  0  0  0  0  0
   17.4263   -3.4593    9.9568 H   0  0  0  0  0  0  0  0  0  0  0  0
   21.8844   -2.4137    9.8944 H   0  0  0  0  0  0  0  0  0  0  0  0
   22.1351   -3.5468    8.5233 H   0  0  0  0  0  0  0  0  0  0  0  0
   23.1232   -3.7089   10.0147 H   0  0  0  0  0  0  0  0  0  0  0  0
  1  5  1  0  0  0  0
  1  6  1  0  0  0  0
  2 12  2  0  0  0  0
  2 23  1  0  0  0  0
  3 15  1  0  0  0  0
  3 16  1  0  0  0  0
  4 13  1  0  0  0  0
  4 18  1  0  0  0  0
  5 17  1  0  0  0  0
  5 24  1  0  0  0  0
  5 25  1  0  0  0  0
  6 19  1  0  0  0  0
  6 26  1  0  0  0  0
  6 27  1  0  0  0  0
  7  8  2  0  0  0  0
  7 14  1  0  0  0  0
  7 21  1  0  0  0  0
  8  9  1  0  0  0  0
  8 28  1  0  0  0  0
  9 11  2  0  0  0  0
  9 29  1  0  0  0  0
 10 21  2  0  0  0  0
 10 30  1  0  0  0  0
 11 10  1  0  0  0  0
 11 31  1  0  0  0  0
 12  1  1  0  0  0  0
 12 13  1  0  0  0  0
 13  3  2  0  0  0  0
 14  2  1  0  0  0  0
 14 15  2  0  0  0  0
 16 32  1  0  0  0  0
 16 33  1  0  0  0  0
 17  4  2  0  0  0  0
 17 34  1  0  0  0  0
 18 35  1  0  0  0  0
 19 20  1  0  0  0  0
 19 36  1  0  0  0  0
 19 37  1  0  0  0  0
 20 22  1  0  0  0  0
 20 38  1  0  0  0  0
 20 39  1  0  0  0  0
 21 40  1  0  0  0  0
 22 41  1  0  0  0  0
 22 42  1  0  0  0  0
 22 43  1  0  0  0  0
M  END
