3hhu_ligand
 OpenBabel08222323343D

 55 57  0  0  0  0  0  0  0  0999 V2000
    5.2570  -41.5480    1.5280 C   0  0  0  0  0  0  0  0  0  0  0  0
    4.8970  -42.0290    0.1190 C   0  0  0  0  0  0  0  0  0  0  0  0
    4.2350  -40.9710   -0.6260 O   0  0  0  0  0  0  0  0  0  0  0  0
    5.1000  -39.9460   -0.9420 C   0  0  0  0  0  0  0  0  0  0  0  0
    6.3080  -40.0830   -0.7190 O   0  0  0  0  0  0  0  0  0  0  0  0
    4.6050  -38.8660   -1.5590 N   0  0  0  0  0  0  0  0  0  0  0  0
    3.2030  -38.7750   -1.9970 C   0  0  0  0  0  0  0  0  0  0  0  0
    2.3090  -38.3160   -0.9170 C   0  0  0  0  0  0  0  0  0  0  0  0
    2.7910  -37.6010    0.2000 C   0  0  0  0  0  0  0  0  0  0  0  0
    1.8870  -37.0330    1.1190 C   0  0  0  0  0  0  0  0  0  0  0  0
    0.9230  -38.4590   -1.1060 C   0  0  0  0  0  0  0  0  0  0  0  0
    0.0190  -37.8920   -0.1900 C   0  0  0  0  0  0  0  0  0  0  0  0
    0.4950  -37.1730    0.9270 C   0  0  0  0  0  0  0  0  0  0  0  0
   -0.3780  -36.5770    1.7790 N   0  0  0  0  0  4  0  0  0  0  0  0
   -0.7360  -37.0400    2.9590 C   0  0  0  0  0  0  0  0  0  0  0  0
   -0.1510  -38.4890    3.7070 S   0  0  0  0  0  0  0  0  0  0  0  0
   -1.6130  -36.1970    3.5000 N   0  0  0  0  0  0  0  0  0  0  0  0
   -1.7960  -35.2480    2.7010 N   0  0  0  0  0  0  0  0  0  0  0  0
   -1.0460  -35.4220    1.5930 C   0  0  0  0  0  0  0  0  0  0  0  0
   -0.9780  -34.5460    0.4830 C   0  0  0  0  0  0  0  0  0  0  0  0
    0.2700  -34.0240    0.0880 C   0  0  0  0  0  0  0  0  0  0  0  0
    0.3970  -33.2730   -1.0950 C   0  0  0  0  0  0  0  0  0  0  0  0
    1.7670  -32.6880   -1.5090 C   0  0  0  0  0  0  0  0  0  0  0  0
    2.0020  -31.3650   -0.7710 C   0  0  0  0  0  0  0  0  0  0  0  0
    2.9060  -33.6820   -1.2260 C   0  0  0  0  0  0  0  0  0  0  0  0
   -0.7400  -33.0370   -1.8930 C   0  0  0  0  0  0  0  0  0  0  0  0
   -0.6190  -32.3760   -3.0770 O   0  0  0  0  0  0  0  0  0  0  0  0
   -1.9950  -33.5330   -1.4950 C   0  0  0  0  0  0  0  0  0  0  0  0
   -2.1230  -34.2800   -0.3090 C   0  0  0  0  0  0  0  0  0  0  0  0
   -3.3600  -34.6710    0.0980 O   0  0  0  0  0  0  0  0  0  0  0  0
    5.7563  -42.3604    2.0763 H   0  0  0  0  0  0  0  0  0  0  0  0
    4.3403  -41.2553    2.0609 H   0  0  0  0  0  0  0  0  0  0  0  0
    5.9329  -40.6829    1.4586 H   0  0  0  0  0  0  0  0  0  0  0  0
    4.2235  -42.8955    0.1933 H   0  0  0  0  0  0  0  0  0  0  0  0
    5.8160  -42.3231   -0.4090 H   0  0  0  0  0  0  0  0  0  0  0  0
    5.2123  -38.0899   -1.7291 H   0  0  0  0  0  0  0  0  0  0  0  0
    2.8717  -39.7689   -2.3323 H   0  0  0  0  0  0  0  0  0  0  0  0
    3.1393  -38.0652   -2.8349 H   0  0  0  0  0  0  0  0  0  0  0  0
    3.8585  -37.4887    0.3511 H   0  0  0  0  0  0  0  0  0  0  0  0
    2.2614  -36.4863    1.9769 H   0  0  0  0  0  0  0  0  0  0  0  0
    0.5494  -39.0091   -1.9621 H   0  0  0  0  0  0  0  0  0  0  0  0
   -1.0479  -38.0078   -0.3427 H   0  0  0  0  0  0  0  0  0  0  0  0
   -2.0516  -36.3027    4.3925 H   0  0  0  0  0  0  0  0  0  0  0  0
   -2.4273  -34.4512    2.8666 H   0  0  0  0  0  0  0  0  0  0  0  0
    1.1438  -34.2035    0.7039 H   0  0  0  0  0  0  0  0  0  0  0  0
    1.7475  -32.4868   -2.5903 H   0  0  0  0  0  0  0  0  0  0  0  0
    2.9767  -30.9489   -1.0656 H   0  0  0  0  0  0  0  0  0  0  0  0
    1.9927  -31.5438    0.3143 H   0  0  0  0  0  0  0  0  0  0  0  0
    1.2053  -30.6529   -1.0322 H   0  0  0  0  0  0  0  0  0  0  0  0
    2.7152  -34.6215   -1.7653 H   0  0  0  0  0  0  0  0  0  0  0  0
    2.9571  -33.8832   -0.1458 H   0  0  0  0  0  0  0  0  0  0  0  0
    3.8603  -33.2523   -1.5645 H   0  0  0  0  0  0  0  0  0  0  0  0
   -1.4734  -32.3019   -3.4858 H   0  0  0  0  0  0  0  0  0  0  0  0
   -2.8692  -33.3385   -2.1058 H   0  0  0  0  0  0  0  0  0  0  0  0
   -3.9022  -33.9042    0.2409 H   0  0  0  0  0  0  0  0  0  0  0  0
  1  2  1  0  0  0  0
  1 31  1  0  0  0  0
  1 32  1  0  0  0  0
  1 33  1  0  0  0  0
  2  3  1  0  0  0  0
  2 34  1  0  0  0  0
  2 35  1  0  0  0  0
  3  4  1  0  0  0  0
  4  5  2  0  0  0  0
  4  6  1  0  0  0  0
  6  7  1  0  0  0  0
  6 36  1  0  0  0  0
  7  8  1  0  0  0  0
  7 37  1  0  0  0  0
  7 38  1  0  0  0  0
  8  9  2  0  0  0  0
  8 11  1  0  0  0  0
  9 10  1  0  0  0  0
  9 39  1  0  0  0  0
 10 13  2  0  0  0  0
 10 40  1  0  0  0  0
 11 12  2  0  0  0  0
 11 41  1  0  0  0  0
 12 13  1  0  0  0  0
 12 42  1  0  0  0  0
 13 14  1  0  0  0  0
 14 15  1  0  0  0  0
 14 19  2  0  0  0  0
 15 16  2  0  0  0  0
 15 17  1  0  0  0  0
 17 18  1  0  0  0  0
 17 43  1  0  0  0  0
 18 19  1  0  0  0  0
 18 44  1  0  0  0  0
 19 20  1  0  0  0  0
 20 21  2  0  0  0  0
 20 29  1  0  0  0  0
 21 22  1  0  0  0  0
 21 45  1  0  0  0  0
 22 23  1  0  0  0  0
 22 26  2  0  0  0  0
 23 24  1  0  0  0  0
 23 25  1  0  0  0  0
 23 46  1  0  0  0  0
 24 47  1  0  0  0  0
 24 48  1  0  0  0  0
 24 49  1  0  0  0  0
 25 50  1  0  0  0  0
 25 51  1  0  0  0  0
 25 52  1  0  0  0  0
 26 27  1  0  0  0  0
 26 28  1  0  0  0  0
 27 53  1  0  0  0  0
 28 29  2  0  0  0  0
 28 54  1  0  0  0  0
 29 30  1  0  0  0  0
 30 55  1  0  0  0  0
M  END
