3hio_ligand
 OpenBabel08222323343D

177189  0  0  1  0  0  0  0  0999 V2000
  -30.9430    2.5110    6.4610 O   0  0  0  0  0  0  0  0  0  0  0  0
  -30.4120    3.0700    7.4340 C   0  0  0  0  0  0  0  0  0  0  0  0
  -28.9560    3.0680    7.6150 C   0  0  0  0  0  0  0  0  0  0  0  0
  -27.9160    2.5820    6.9330 N   0  0  0  0  0  0  0  0  0  0  0  0
  -26.8010    2.9090    7.6110 C   0  0  0  0  0  0  0  0  0  0  0  0
  -31.1470    3.6810    8.3410 N   0  0  0  0  0  0  0  0  0  0  0  0
  -30.6280    4.2920    9.4100 C   0  0  1  0  0  3  0  0  0  0  0  0
  -31.5120    4.8680   10.2560 N   0  0  0  0  0  0  0  0  0  0  0  0
  -29.2950    4.3400    9.6630 N   0  0  0  0  0  0  0  0  0  0  0  0
  -28.4270    3.7460    8.8060 C   0  0  0  0  0  0  0  0  0  0  0  0
  -27.1050    3.5960    8.7290 N   0  0  0  0  0  0  0  0  0  0  0  0
  -26.1150    4.1080    9.7000 C   0  0  1  0  0  0  0  0  0  0  0  0
  -25.8780    3.1450   10.8480 C   0  0  2  0  0  0  0  0  0  0  0  0
  -26.8500    3.3200   11.8700 O   0  0  0  0  0  0  0  0  0  0  0  0
  -27.9000    2.3590   11.7680 C   0  0  0  0  0  0  0  0  0  0  0  0
  -24.5410    3.6480   11.3270 C   0  0  2  0  0  0  0  0  0  0  0  0
  -24.8260    4.9280   11.8480 O   0  0  0  0  0  0  0  0  0  0  0  0
  -24.7650    5.3770   13.3770 P   0  0  2  0  0  0  0  0  0  0  0  0
  -23.6130    4.6820   14.0710 O   0  0  0  0  0  1  0  0  0  0  0  0
  -26.1640    5.2570   13.9460 O   0  0  0  0  0  0  0  0  0  0  0  0
  -24.4970    6.9560   13.2020 O   0  0  0  0  0  0  0  0  0  0  0  0
  -23.2750    7.5820   12.8330 C   0  0  0  0  0  0  0  0  0  0  0  0
  -23.0470    7.7680   11.3270 C   0  0  1  0  0  0  0  0  0  0  0  0
  -23.6340    8.9960   10.6300 C   0  0  0  0  0  0  0  0  0  0  0  0
  -22.5060    9.4430    9.7850 N   0  3  2  0  0  0  0  0  0  0  0  0
  -22.4530   10.6020    8.8860 C   0  0  0  0  0  0  0  0  0  0  0  0
  -23.3040   10.2240    7.7060 C   0  0  0  0  0  0  0  0  0  0  0  0
  -22.9520    9.5090    6.5620 C   0  0  0  0  0  0  0  0  0  0  0  0
  -24.0750    9.3550    5.7880 N   0  0  0  0  0  0  0  0  0  0  0  0
  -25.1540    9.9130    6.3720 C   0  0  0  0  0  0  0  0  0  0  0  0
  -26.4940   10.0670    6.0380 C   0  0  0  0  0  0  0  0  0  0  0  0
  -26.9860    9.5610    4.8840 N   0  0  0  0  0  0  0  0  0  0  0  0
  -27.3240   10.7140    6.8860 N   0  0  0  0  0  0  0  0  0  0  0  0
  -26.8720   11.2250    8.0310 C   0  0  0  0  0  0  0  0  0  0  0  0
  -25.5880   11.1020    8.3920 N   0  0  0  0  0  0  0  0  0  0  0  0
  -24.7430   10.4800    7.5440 C   0  0  0  0  0  0  0  0  0  0  0  0
  -21.3160    8.6180    9.8670 C   0  0  0  0  0  0  0  0  0  0  0  0
  -21.5770    8.0590   11.2480 C   0  0  2  0  0  0  0  0  0  0  0  0
  -20.9650    6.8220   11.4790 O   0  0  0  0  0  0  0  0  0  0  0  0
  -19.8070    6.7310   12.5790 P   0  0  1  0  0  0  0  0  0  0  0  0
  -18.5300    6.6590   11.7710 O   0  0  0  0  0  1  0  0  0  0  0  0
  -19.9910    7.7660   13.6490 O   0  0  0  0  0  0  0  0  0  0  0  0
  -20.1340    5.3130   13.2090 O   0  0  0  0  0  0  0  0  0  0  0  0
  -21.2820    4.6050   12.7970 C   0  0  0  0  0  0  0  0  0  0  0  0
  -20.8540    3.1610   12.9150 C   0  0  1  0  0  0  0  0  0  0  0  0
  -20.5630    2.6470   11.6170 O   0  0  0  0  0  0  0  0  0  0  0  0
  -19.4410    1.7580   11.6740 C   0  0  1  0  0  0  0  0  0  0  0  0
  -18.3770    2.2840   10.7760 N   0  0  0  0  0  0  0  0  0  0  0  0
  -18.4650    2.4250    9.4470 C   0  0  0  0  0  0  0  0  0  0  0  0
  -19.4120    2.1750    8.5010 N   0  0  0  0  0  0  0  0  0  0  0  0
  -19.1750    2.4350    7.1850 C   0  0  2  0  0  3  0  0  0  0  0  0
  -20.1380    2.1730    6.2700 N   0  0  0  0  0  0  0  0  0  0  0  0
  -18.0180    2.9450    6.7340 N   0  0  0  0  0  0  0  0  0  0  0  0
  -17.0010    3.2360    7.5510 C   0  0  0  0  0  0  0  0  0  0  0  0
  -15.9370    3.7090    7.0920 O   0  0  0  0  0  0  0  0  0  0  0  0
  -17.1760    2.9830    9.0050 C   0  0  0  0  0  0  0  0  0  0  0  0
  -16.4240    3.1310   10.1120 N   0  0  0  0  0  0  0  0  0  0  0  0
  -17.1640    2.7100   11.1700 C   0  0  0  0  0  0  0  0  0  0  0  0
  -18.9870    1.7350   13.1280 C   0  0  2  0  0  0  0  0  0  0  0  0
  -19.6240    0.6330   13.7820 O   0  0  0  0  0  0  0  0  0  0  0  0
  -18.8970   -0.5930   13.6700 C   0  0  0  0  0  0  0  0  0  0  0  0
  -19.5450    3.0350   13.6840 C   0  0  2  0  0  0  0  0  0  0  0  0
  -19.7640    3.0250   15.0970 O   0  0  0  0  0  0  0  0  0  0  0  0
  -24.8380    4.2350    9.0810 O   0  0  0  0  0  0  0  0  0  0  0  0
  -23.8070    3.9590   10.0360 C   0  0  2  0  0  0  0  0  0  0  0  0
  -23.0300    2.7440    9.5810 C   0  0  0  0  0  0  0  0  0  0  0  0
  -23.9820    1.6870    9.5710 O   0  0  0  0  0  0  0  0  0  0  0  0
  -23.5030    0.1620    9.7270 P   0  0  1  0  0  0  0  0  0  0  0  0
  -24.7410   -0.7020    9.8110 O   0  0  0  0  0  1  0  0  0  0  0  0
  -22.4700   -0.0830    8.6510 O   0  0  0  0  0  0  0  0  0  0  0  0
  -22.7880    0.1430   11.1770 O   0  0  0  0  0  0  0  0  0  0  0  0
  -23.4820   -0.2790   12.3570 C   0  0  0  0  0  0  0  0  0  0  0  0
  -22.7530    0.2320   13.6050 C   0  0  0  0  0  0  0  0  0  0  0  0
  -21.7640   -0.7900   14.1800 C   0  0  0  0  0  0  0  0  0  0  0  0
  -21.3190   -0.4010   15.5940 C   0  0  0  0  0  0  0  0  0  0  0  0
  -19.9270   -0.9380   15.9330 C   0  0  0  0  0  0  0  0  0  0  0  0
  -19.8090   -1.3270   17.4100 C   0  0  0  0  0  0  0  0  0  0  0  0
  -18.5470   -0.9220   17.9660 O   0  0  0  0  0  0  0  0  0  0  0  0
  -18.1200   -1.4380   19.2520 N   0  3  0  0  0  0  0  0  0  0  0  0
  -17.8190   -0.6070   20.3970 O   0  0  0  0  0  0  0  0  0  0  0  0
  -16.3790    0.1040   20.5670 P   0  0  1  0  0  0  0  0  0  0  0  0
  -16.5760    1.5580   20.9280 O   0  0  0  0  0  1  0  0  0  0  0  0
  -15.5030   -0.7610   21.4410 O   0  0  0  0  0  0  0  0  0  0  0  0
  -15.7760    0.0330   19.0720 O   0  0  0  0  0  0  0  0  0  0  0  0
  -16.1110    0.9680   18.0490 C   0  0  2  0  0  0  0  0  0  0  0  0
  -16.3480    0.1880   16.7620 C   0  0  1  0  0  0  0  0  0  0  0  0
  -17.2210    1.0050   15.8120 C   0  0  0  0  0  0  0  0  0  0  0  0
  -18.0920    1.8200   16.5960 O   0  0  0  0  0  0  0  0  0  0  0  0
  -18.5850    3.3120   16.1770 P   0  0  1  0  0  0  0  0  0  0  0  0
  -17.4490    4.0480   15.5200 O   0  0  0  0  0  1  0  0  0  0  0  0
  -19.2550    3.8710   17.4090 O   0  0  0  0  0  0  0  0  0  0  0  0
  -14.8360    1.6940   17.7350 C   0  0  1  0  0  0  0  0  0  0  0  0
  -14.1670    2.2090   18.8810 O   0  0  0  0  0  0  0  0  0  0  0  0
  -13.8010    3.5770   18.6990 C   0  0  0  0  0  0  0  0  0  0  0  0
  -14.1200    0.4810   17.2060 C   0  0  1  0  0  0  0  0  0  0  0  0
  -15.0340   -0.0010   16.2120 O   0  0  0  0  0  0  0  0  0  0  0  0
  -12.7480    0.8230   16.7680 N   0  0  0  0  0  0  0  0  0  0  0  0
  -12.2130    2.0500   16.7800 C   0  0  0  0  0  0  0  0  0  0  0  0
  -10.9120    1.9340   16.3210 C   0  0  0  0  0  0  0  0  0  0  0  0
  -10.6870    0.6280   16.0560 N   0  0  0  0  0  0  0  0  0  0  0  0
  -11.8230   -0.0490   16.3400 C   0  0  0  0  0  0  0  0  0  0  0  0
  -12.6930    3.2740   17.1240 N   0  0  0  0  0  0  0  0  0  0  0  0
  -11.9070    4.3600   17.0160 C   0  0  0  0  0  0  0  0  0  0  0  0
  -10.6440    4.2710   16.5710 N   0  0  0  0  0  0  0  0  0  0  0  0
  -10.1260    3.0730   16.2190 C   0  0  0  0  0  0  0  0  0  0  0  0
   -8.8530    2.9730   15.7720 N   0  0  0  0  0  0  0  0  0  0  0  0
  -25.7898    2.6530    7.2983 H   0  0  0  0  0  0  0  0  0  0  0  0
  -32.1401    3.6878    8.2238 H   0  0  0  0  0  0  0  0  0  0  0  0
  -31.1758    5.3550   11.0990 H   0  0  0  0  0  0  0  0  0  0  0  0
  -32.5215    4.8197   10.0573 H   0  0  0  0  0  0  0  0  0  0  0  0
  -28.9444    4.8249   10.5014 H   0  0  0  0  0  0  0  0  0  0  0  0
  -26.4587    5.0798   10.0840 H   0  0  0  0  0  0  0  0  0  0  0  0
  -25.8470    2.0957   10.5193 H   0  0  0  0  0  0  0  0  0  0  0  0
  -28.6300    2.5267   12.5736 H   0  0  0  0  0  0  0  0  0  0  0  0
  -27.4803    1.3463   11.8585 H   0  0  0  0  0  0  0  0  0  0  0  0
  -28.3992    2.4633   10.7933 H   0  0  0  0  0  0  0  0  0  0  0  0
  -24.0107    2.9737   12.0155 H   0  0  0  0  0  0  0  0  0  0  0  0
  -22.4501    6.9695   13.2259 H   0  0  0  0  0  0  0  0  0  0  0  0
  -23.2498    8.5761   13.3032 H   0  0  0  0  0  0  0  0  0  0  0  0
  -23.3426    6.8541   10.7910 H   0  0  0  0  0  0  0  0  0  0  0  0
  -23.9185    9.7701   11.3579 H   0  0  0  0  0  0  0  0  0  0  0  0
  -24.5086    8.7281   10.0190 H   0  0  0  0  0  0  0  0  0  0  0  0
  -22.1875   10.0328   10.5378 H   0  0  0  0  0  0  0  0  0  0  0  0
  -21.4180   10.7971    8.5685 H   0  0  0  0  0  0  0  0  0  0  0  0
  -22.8585   11.4952    9.3837 H   0  0  0  0  0  0  0  0  0  0  0  0
  -21.9568    9.1366    6.3235 H   0  0  0  0  0  0  0  0  0  0  0  0
  -24.0911    8.8744    4.8772 H   0  0  0  0  0  0  0  0  0  0  0  0
  -27.9818    9.6838    4.6510 H   0  0  0  0  0  0  0  0  0  0  0  0
  -26.3649    9.0530    4.2383 H   0  0  0  0  0  0  0  0  0  0  0  0
  -27.5584   11.7515    8.6842 H   0  0  0  0  0  0  0  0  0  0  0  0
  -20.3896    9.2092    9.8201 H   0  0  0  0  0  0  0  0  0  0  0  0
  -21.2915    7.8360    9.0938 H   0  0  0  0  0  0  0  0  0  0  0  0
  -21.2645    8.7875   12.0106 H   0  0  0  0  0  0  0  0  0  0  0  0
  -21.5486    4.8543   11.7594 H   0  0  0  0  0  0  0  0  0  0  0  0
  -22.1359    4.8190   13.4566 H   0  0  0  0  0  0  0  0  0  0  0  0
  -21.6482    2.5765   13.4024 H   0  0  0  0  0  0  0  0  0  0  0  0
  -19.7294    0.7463   11.3526 H   0  0  0  0  0  0  0  0  0  0  0  0
  -20.3214    1.7833    8.7848 H   0  0  0  0  0  0  0  0  0  0  0  0
  -19.9673    2.3665    5.2729 H   0  0  0  0  0  0  0  0  0  0  0  0
  -21.0413    1.7802    6.5711 H   0  0  0  0  0  0  0  0  0  0  0  0
  -17.9135    3.1128    5.7537 H   0  0  0  0  0  0  0  0  0  0  0  0
  -16.8198    2.7166   12.2032 H   0  0  0  0  0  0  0  0  0  0  0  0
  -17.8928    1.6764   13.2248 H   0  0  0  0  0  0  0  0  0  0  0  0
  -19.4428   -1.3920   14.1932 H   0  0  0  0  0  0  0  0  0  0  0  0
  -17.9017   -0.4718   14.1224 H   0  0  0  0  0  0  0  0  0  0  0  0
  -18.7873   -0.8586   12.6082 H   0  0  0  0  0  0  0  0  0  0  0  0
  -18.8704    3.8705   13.4455 H   0  0  0  0  0  0  0  0  0  0  0  0
  -23.1339    4.8202   10.1593 H   0  0  0  0  0  0  0  0  0  0  0  0
  -22.2120    2.5221   10.2822 H   0  0  0  0  0  0  0  0  0  0  0  0
  -22.6168    2.9029    8.5740 H   0  0  0  0  0  0  0  0  0  0  0  0
  -23.5218   -1.3780   12.3828 H   0  0  0  0  0  0  0  0  0  0  0  0
  -24.5051    0.1247   12.3419 H   0  0  0  0  0  0  0  0  0  0  0  0
  -23.5010    0.4685   14.3761 H   0  0  0  0  0  0  0  0  0  0  0  0
  -22.1994    1.1446   13.3390 H   0  0  0  0  0  0  0  0  0  0  0  0
  -20.8800   -0.8394   13.5273 H   0  0  0  0  0  0  0  0  0  0  0  0
  -22.2489   -1.7767   14.2159 H   0  0  0  0  0  0  0  0  0  0  0  0
  -22.0410   -0.8086   16.3168 H   0  0  0  0  0  0  0  0  0  0  0  0
  -21.3031    0.6962   15.6706 H   0  0  0  0  0  0  0  0  0  0  0  0
  -19.1817   -0.1605   15.7094 H   0  0  0  0  0  0  0  0  0  0  0  0
  -19.7279   -1.8256   15.3145 H   0  0  0  0  0  0  0  0  0  0  0  0
  -19.9043   -2.4191   17.5000 H   0  0  0  0  0  0  0  0  0  0  0  0
  -20.6193   -0.8406   17.9728 H   0  0  0  0  0  0  0  0  0  0  0  0
  -17.2811   -1.9663   19.0697 H   0  0  0  0  0  0  0  0  0  0  0  0
  -18.8518   -2.0626   19.5525 H   0  0  0  0  0  0  0  0  0  0  0  0
  -16.9474    1.6260   18.3273 H   0  0  0  0  0  0  0  0  0  0  0  0
  -16.8285   -0.7795   16.9694 H   0  0  0  0  0  0  0  0  0  0  0  0
  -17.8138    0.3297   15.1775 H   0  0  0  0  0  0  0  0  0  0  0  0
  -16.5865    1.6413   15.1776 H   0  0  0  0  0  0  0  0  0  0  0  0
  -14.9686    2.4903   16.9878 H   0  0  0  0  0  0  0  0  0  0  0  0
  -13.2876    3.9423   19.6007 H   0  0  0  0  0  0  0  0  0  0  0  0
  -14.7052    4.1782   18.5230 H   0  0  0  0  0  0  0  0  0  0  0  0
  -13.1282    3.6645   17.8332 H   0  0  0  0  0  0  0  0  0  0  0  0
  -14.0264   -0.2777   17.9970 H   0  0  0  0  0  0  0  0  0  0  0  0
  -11.9634   -1.1241   16.2380 H   0  0  0  0  0  0  0  0  0  0  0  0
  -12.3029    5.3298   17.2949 H   0  0  0  0  0  0  0  0  0  0  0  0
   -8.2665    3.8162   15.6949 H   0  0  0  0  0  0  0  0  0  0  0  0
   -8.4703    2.0537   15.5088 H   0  0  0  0  0  0  0  0  0  0  0  0
  1  2  2  0  0  0  0
  2  3  1  0  0  0  0
  2  6  1  0  0  0  0
  3  4  1  0  0  0  0
  3 10  2  0  0  0  0
  4  5  2  0  0  0  0
  5 11  1  0  0  0  0
  5107  1  0  0  0  0
  6  7  1  0  0  0  0
  6108  1  0  0  0  0
  7  8  1  1  0  0  0
  7  9  1  0  0  0  0
  8109  1  0  0  0  0
  8110  1  0  0  0  0
  9 10  1  0  0  0  0
  9111  1  0  0  0  0
 10 11  1  0  0  0  0
 11 12  1  0  0  0  0
 12 13  1  0  0  0  0
 12 64  1  0  0  0  0
 12112  1  1  0  0  0
 13 14  1  0  0  0  0
 13 16  1  0  0  0  0
 13113  1  6  0  0  0
 14 15  1  0  0  0  0
 15114  1  0  0  0  0
 15115  1  0  0  0  0
 15116  1  0  0  0  0
 16 17  1  0  0  0  0
 16 65  1  0  0  0  0
 16117  1  1  0  0  0
 17 18  1  0  0  0  0
 18 19  1  1  0  0  0
 18 20  2  0  0  0  0
 18 21  1  0  0  0  0
 21 22  1  0  0  0  0
 22 23  1  0  0  0  0
 22118  1  0  0  0  0
 22119  1  0  0  0  0
 23 24  1  0  0  0  0
 23 38  1  0  0  0  0
 23120  1  6  0  0  0
 24 25  1  0  0  0  0
 24121  1  0  0  0  0
 24122  1  0  0  0  0
 25 26  1  0  0  0  0
 25 37  1  0  0  0  0
 25123  1  1  0  0  0
 26 27  1  0  0  0  0
 26124  1  0  0  0  0
 26125  1  0  0  0  0
 27 28  2  0  0  0  0
 27 36  1  0  0  0  0
 28 29  1  0  0  0  0
 28126  1  0  0  0  0
 29 30  1  0  0  0  0
 29127  1  0  0  0  0
 30 31  2  0  0  0  0
 30 36  1  0  0  0  0
 31 32  1  0  0  0  0
 31 33  1  0  0  0  0
 32128  1  0  0  0  0
 32129  1  0  0  0  0
 33 34  2  0  0  0  0
 34 35  1  0  0  0  0
 34130  1  0  0  0  0
 35 36  2  0  0  0  0
 37 38  1  0  0  0  0
 37131  1  0  0  0  0
 37132  1  0  0  0  0
 38 39  1  0  0  0  0
 38133  1  1  0  0  0
 39 40  1  0  0  0  0
 40 41  1  6  0  0  0
 40 42  2  0  0  0  0
 40 43  1  0  0  0  0
 43 44  1  0  0  0  0
 44 45  1  0  0  0  0
 44134  1  0  0  0  0
 44135  1  0  0  0  0
 45 46  1  0  0  0  0
 45 62  1  0  0  0  0
 45136  1  1  0  0  0
 46 47  1  0  0  0  0
 47 48  1  0  0  0  0
 47 59  1  0  0  0  0
 47137  1  6  0  0  0
 48 49  1  0  0  0  0
 48 58  1  0  0  0  0
 49 50  1  0  0  0  0
 49 56  2  0  0  0  0
 50 51  1  0  0  0  0
 50138  1  0  0  0  0
 51 52  1  6  0  0  0
 51 53  1  0  0  0  0
 52139  1  0  0  0  0
 52140  1  0  0  0  0
 53 54  1  0  0  0  0
 53141  1  0  0  0  0
 54 55  2  0  0  0  0
 54 56  1  0  0  0  0
 56 57  1  0  0  0  0
 57 58  2  0  0  0  0
 58142  1  0  0  0  0
 59 60  1  0  0  0  0
 59 62  1  0  0  0  0
 59143  1  1  0  0  0
 60 61  1  0  0  0  0
 61144  1  0  0  0  0
 61145  1  0  0  0  0
 61146  1  0  0  0  0
 62 63  1  0  0  0  0
 62147  1  6  0  0  0
 63 89  1  0  0  0  0
 64 65  1  0  0  0  0
 65 66  1  0  0  0  0
 65148  1  1  0  0  0
 66 67  1  0  0  0  0
 66149  1  0  0  0  0
 66150  1  0  0  0  0
 67 68  1  0  0  0  0
 68 69  1  6  0  0  0
 68 70  2  0  0  0  0
 68 71  1  0  0  0  0
 71 72  1  0  0  0  0
 72 73  1  0  0  0  0
 72151  1  0  0  0  0
 72152  1  0  0  0  0
 73 74  1  0  0  0  0
 73153  1  0  0  0  0
 73154  1  0  0  0  0
 74 75  1  0  0  0  0
 74155  1  0  0  0  0
 74156  1  0  0  0  0
 75 76  1  0  0  0  0
 75157  1  0  0  0  0
 75158  1  0  0  0  0
 76 77  1  0  0  0  0
 76159  1  0  0  0  0
 76160  1  0  0  0  0
 77 78  1  0  0  0  0
 77161  1  0  0  0  0
 77162  1  0  0  0  0
 78 79  1  0  0  0  0
 79 80  1  0  0  0  0
 79163  1  0  0  0  0
 79164  1  0  0  0  0
 80 81  1  0  0  0  0
 81 82  1  1  0  0  0
 81 83  2  0  0  0  0
 81 84  1  0  0  0  0
 84 85  1  0  0  0  0
 85 86  1  0  0  0  0
 85 92  1  0  0  0  0
 85165  1  1  0  0  0
 86 87  1  0  0  0  0
 86 96  1  0  0  0  0
 86166  1  1  0  0  0
 87 88  1  0  0  0  0
 87167  1  0  0  0  0
 87168  1  0  0  0  0
 88 89  1  0  0  0  0
 89 90  1  6  0  0  0
 89 91  2  0  0  0  0
 92 93  1  0  0  0  0
 92 95  1  0  0  0  0
 92169  1  6  0  0  0
 93 94  1  0  0  0  0
 94170  1  0  0  0  0
 94171  1  0  0  0  0
 94172  1  0  0  0  0
 95 96  1  0  0  0  0
 95 97  1  0  0  0  0
 95173  1  1  0  0  0
 97 98  1  0  0  0  0
 97101  1  0  0  0  0
 98 99  2  0  0  0  0
 98102  1  0  0  0  0
 99100  1  0  0  0  0
 99105  1  0  0  0  0
100101  2  0  0  0  0
101174  1  0  0  0  0
102103  2  0  0  0  0
103104  1  0  0  0  0
103175  1  0  0  0  0
104105  2  0  0  0  0
105106  1  0  0  0  0
106176  1  0  0  0  0
106177  1  0  0  0  0
M  CHG  2  25   1  79   1
M  END
