3hjo_ligand
 OpenBabel08222323343D

 30 30  0  0  0  0  0  0  0  0999 V2000
    8.7300    3.4890   31.5240 C   0  0  0  0  0  0  0  0  0  0  0  0
    8.3210    3.4020   32.8350 O   0  0  0  0  0  0  0  0  0  0  0  0
    9.3440    2.3060   30.8770 C   0  0  0  0  0  0  0  0  0  0  0  0
    9.5760    0.7520   31.7470 Cl  0  0  0  0  0  0  0  0  0  0  0  0
    9.7780    2.4150   29.4690 C   0  0  0  0  0  0  0  0  0  0  0  0
   10.5200    0.9610   28.7560 Cl  0  0  0  0  0  0  0  0  0  0  0  0
    9.5920    3.6940   28.7250 C   0  0  0  0  0  0  0  0  0  0  0  0
    8.9980    4.7460   29.4300 C   0  0  0  0  0  0  0  0  0  0  0  0
    8.5810    4.6550   30.7690 C   0  0  0  0  0  0  0  0  0  0  0  0
    9.9990    3.9080   27.2730 C   0  0  0  0  0  0  0  0  0  0  0  0
    9.5400    4.8630   26.6660 O   0  0  0  0  0  0  0  0  0  0  0  0
   10.9280    3.0550   26.5200 C   0  0  0  0  0  0  0  0  0  0  0  0
   11.0190    3.1740   25.0050 C   0  0  0  0  0  0  0  0  0  0  0  0
   12.1810    2.3660   24.4430 C   0  0  0  0  0  0  0  0  0  0  0  0
   11.7120    2.1930   27.1420 C   0  0  0  0  0  0  0  0  0  0  0  0
    8.3060    4.5530   33.6850 C   0  0  0  0  0  0  0  0  0  0  0  0
    6.8900    4.9940   33.9570 C   0  0  0  0  0  0  0  0  0  0  0  0
    6.0190    4.8080   33.0780 O   0  5  0  0  0  0  0  0  0  0  0  0
    6.6390    5.5310   35.0560 O   0  0  0  0  0  0  0  0  0  0  0  0
    8.8506    5.6872   28.9129 H   0  0  0  0  0  0  0  0  0  0  0  0
    8.1265    5.5225   31.2336 H   0  0  0  0  0  0  0  0  0  0  0  0
   11.1594    4.2320   24.7387 H   0  0  0  0  0  0  0  0  0  0  0  0
   10.0820    2.8056   24.5620 H   0  0  0  0  0  0  0  0  0  0  0  0
   12.2110    2.4789   23.3492 H   0  0  0  0  0  0  0  0  0  0  0  0
   12.0470    1.3045   24.6985 H   0  0  0  0  0  0  0  0  0  0  0  0
   13.1244    2.7310   24.8752 H   0  0  0  0  0  0  0  0  0  0  0  0
   11.6610    2.0940   28.2253 H   0  0  0  0  0  0  0  0  0  0  0  0
   12.4094    1.5813   26.5715 H   0  0  0  0  0  0  0  0  0  0  0  0
    8.8516    5.3722   33.1938 H   0  0  0  0  0  0  0  0  0  0  0  0
    8.7966    4.3051   34.6378 H   0  0  0  0  0  0  0  0  0  0  0  0
  1  2  1  0  0  0  0
  1  3  2  0  0  0  0
  1  9  1  0  0  0  0
  2 16  1  0  0  0  0
  3  4  1  0  0  0  0
  3  5  1  0  0  0  0
  5  6  1  0  0  0  0
  5  7  2  0  0  0  0
  7  8  1  0  0  0  0
  7 10  1  0  0  0  0
  8  9  2  0  0  0  0
  8 20  1  0  0  0  0
  9 21  1  0  0  0  0
 10 11  2  0  0  0  0
 10 12  1  0  0  0  0
 12 13  1  0  0  0  0
 12 15  2  0  0  0  0
 13 14  1  0  0  0  0
 13 22  1  0  0  0  0
 13 23  1  0  0  0  0
 14 24  1  0  0  0  0
 14 25  1  0  0  0  0
 14 26  1  0  0  0  0
 15 27  1  0  0  0  0
 15 28  1  0  0  0  0
 16 17  1  0  0  0  0
 16 29  1  0  0  0  0
 16 30  1  0  0  0  0
 17 18  1  0  0  0  0
 17 19  2  0  0  0  0
M  CHG  1  18  -1
M  END
