3hpt_ligand
 OpenBabel08222323343D

 61 64  0  0  1  0  0  0  0  0999 V2000
    4.0830   13.1300   28.3470 O   0  0  0  0  0  0  0  0  0  0  0  0
    4.6360   12.8850   29.4030 C   0  0  0  0  0  0  0  0  0  0  0  0
    5.6120   13.6490   29.8930 N   0  0  0  0  0  0  0  0  0  0  0  0
    6.2800   13.3690   31.1610 C   0  0  0  0  0  0  0  0  0  0  0  0
    7.3100   14.4820   31.3020 C   0  0  0  0  0  0  0  0  0  0  0  0
    6.0970   14.8420   29.2040 C   0  0  0  0  0  0  0  0  0  0  0  0
    7.3380   15.2480   29.9920 C   0  0  0  0  0  0  0  0  0  0  0  0
    4.2180   11.6790   30.2210 C   0  0  0  0  0  0  0  0  0  0  0  0
    3.1820   10.9110   29.5410 N   0  0  0  0  0  0  0  0  0  0  0  0
    3.5190    9.8300   28.8250 C   0  0  0  0  0  0  0  0  0  0  0  0
    4.6790    9.4630   28.7100 O   0  0  0  0  0  0  0  0  0  0  0  0
    1.8160   11.4330   29.7220 C   0  0  0  0  0  0  0  0  0  0  0  0
    1.0340   10.4120   30.5530 C   0  0  0  0  0  0  0  0  0  0  0  0
    0.4480    9.3300   29.6430 C   0  0  0  0  0  0  0  0  0  0  0  0
    1.5260    8.3640   29.1300 C   0  0  0  0  0  0  0  0  0  0  0  0
    2.4460    9.0470   28.1160 C   0  0  2  0  0  0  0  0  0  0  0  0
    3.0790    8.0360   27.2680 N   0  0  0  0  0  0  0  0  0  0  0  0
    2.5220    7.4820   26.1850 C   0  0  2  0  0  3  0  0  0  0  0  0
    1.2760    7.8430   25.8330 N   0  0  0  0  0  0  0  0  0  0  0  0
    0.6940    7.3810   24.8730 C   0  0  0  0  0  0  0  0  0  0  0  0
    0.1270    6.9000   23.9810 N   0  0  0  0  0  0  0  0  0  0  0  0
    3.2160    6.5740   25.4700 N   0  0  0  0  0  0  0  0  0  0  0  0
    4.5290    6.1910   25.8150 C   0  0  0  0  0  0  0  0  0  0  0  0
    4.8310    5.8870   27.1510 C   0  0  0  0  0  0  0  0  0  0  0  0
    5.5300    6.1240   24.8350 C   0  0  0  0  0  0  0  0  0  0  0  0
    6.8190    5.7480   25.2200 C   0  0  0  0  0  0  0  0  0  0  0  0
    7.0730    5.4610   26.5400 C   0  0  0  0  0  0  0  0  0  0  0  0
    6.1150    5.5160   27.5320 C   0  0  0  0  0  0  0  0  0  0  0  0
    8.4240    5.1050   26.6950 O   0  0  0  0  0  0  0  0  0  0  0  0
    8.9490    5.2030   25.4390 C   0  0  0  0  0  0  0  0  0  0  0  0
   10.3940    4.8980   25.1880 C   0  0  0  0  0  0  0  0  0  0  0  0
    8.0380    5.5900   24.4440 C   0  0  0  0  0  0  0  0  0  0  0  0
    6.7716   12.3854   31.1328 H   0  0  0  0  0  0  0  0  0  0  0  0
    5.5616   13.3962   31.9935 H   0  0  0  0  0  0  0  0  0  0  0  0
    8.3016   14.0521   31.5066 H   0  0  0  0  0  0  0  0  0  0  0  0
    7.0253   15.1549   32.1242 H   0  0  0  0  0  0  0  0  0  0  0  0
    5.3411   15.6408   29.2272 H   0  0  0  0  0  0  0  0  0  0  0  0
    6.3555   14.6120   28.1598 H   0  0  0  0  0  0  0  0  0  0  0  0
    8.2449   14.9913   29.4249 H   0  0  0  0  0  0  0  0  0  0  0  0
    7.3222   16.3303   30.1881 H   0  0  0  0  0  0  0  0  0  0  0  0
    3.8310   12.0213   31.1921 H   0  0  0  0  0  0  0  0  0  0  0  0
    5.0944   11.0341   30.3822 H   0  0  0  0  0  0  0  0  0  0  0  0
    1.3334   11.5674   28.7427 H   0  0  0  0  0  0  0  0  0  0  0  0
    1.8504   12.3977   30.2494 H   0  0  0  0  0  0  0  0  0  0  0  0
    0.2168   10.9235   31.0825 H   0  0  0  0  0  0  0  0  0  0  0  0
    1.7094    9.9450   31.2849 H   0  0  0  0  0  0  0  0  0  0  0  0
   -0.0345    9.8139   28.7810 H   0  0  0  0  0  0  0  0  0  0  0  0
   -0.3015    8.7575   30.2091 H   0  0  0  0  0  0  0  0  0  0  0  0
    1.0372    7.5043   28.6483 H   0  0  0  0  0  0  0  0  0  0  0  0
    2.1281    8.0138   29.9814 H   0  0  0  0  0  0  0  0  0  0  0  0
    1.8510    9.7291   27.4909 H   0  0  0  0  0  0  0  0  0  0  0  0
    4.0273    7.7268   27.5250 H   0  0  0  0  0  0  0  0  0  0  0  0
    0.7905    8.5472   26.4068 H   0  0  0  0  0  0  0  0  0  0  0  0
    2.7729    6.1458   24.6446 H   0  0  0  0  0  0  0  0  0  0  0  0
    4.0488    5.9425   27.8994 H   0  0  0  0  0  0  0  0  0  0  0  0
    5.3080    6.3591   23.8003 H   0  0  0  0  0  0  0  0  0  0  0  0
    6.3535    5.2802   28.5628 H   0  0  0  0  0  0  0  0  0  0  0  0
   10.6175    5.0354   24.1197 H   0  0  0  0  0  0  0  0  0  0  0  0
   10.6045    3.8574   25.4758 H   0  0  0  0  0  0  0  0  0  0  0  0
   11.0211    5.5773   25.7841 H   0  0  0  0  0  0  0  0  0  0  0  0
    8.2007    5.7334   23.3768 H   0  0  0  0  0  0  0  0  0  0  0  0
  1  2  2  0  0  0  0
  2  3  1  0  0  0  0
  2  8  1  0  0  0  0
  3  4  1  0  0  0  0
  3  6  1  0  0  0  0
  4  5  1  0  0  0  0
  4 33  1  0  0  0  0
  4 34  1  0  0  0  0
  5  7  1  0  0  0  0
  5 35  1  0  0  0  0
  5 36  1  0  0  0  0
  6  7  1  0  0  0  0
  6 37  1  0  0  0  0
  6 38  1  0  0  0  0
  7 39  1  0  0  0  0
  7 40  1  0  0  0  0
  8  9  1  0  0  0  0
  8 41  1  0  0  0  0
  8 42  1  0  0  0  0
  9 10  1  0  0  0  0
  9 12  1  0  0  0  0
 10 11  2  0  0  0  0
 10 16  1  0  0  0  0
 12 13  1  0  0  0  0
 12 43  1  0  0  0  0
 12 44  1  0  0  0  0
 13 14  1  0  0  0  0
 13 45  1  0  0  0  0
 13 46  1  0  0  0  0
 14 15  1  0  0  0  0
 14 47  1  0  0  0  0
 14 48  1  0  0  0  0
 15 16  1  0  0  0  0
 15 49  1  0  0  0  0
 15 50  1  0  0  0  0
 16 17  1  0  0  0  0
 16 51  1  6  0  0  0
 17 52  1  0  0  0  0
 18 17  1  1  0  0  0
 18 19  1  0  0  0  0
 18 22  1  0  0  0  0
 19 20  1  0  0  0  0
 19 53  1  0  0  0  0
 20 21  3  0  0  0  0
 22 23  1  0  0  0  0
 22 54  1  0  0  0  0
 23 24  2  0  0  0  0
 23 25  1  0  0  0  0
 24 28  1  0  0  0  0
 24 55  1  0  0  0  0
 25 26  2  0  0  0  0
 25 56  1  0  0  0  0
 26 27  1  0  0  0  0
 26 32  1  0  0  0  0
 27 28  2  0  0  0  0
 27 29  1  0  0  0  0
 28 57  1  0  0  0  0
 29 30  1  0  0  0  0
 30 31  1  0  0  0  0
 30 32  2  0  0  0  0
 31 58  1  0  0  0  0
 31 59  1  0  0  0  0
 31 60  1  0  0  0  0
 32 61  1  0  0  0  0
M  END
