3hq5_ligand
 OpenBabel08222323343D

 47 49  0  0  1  0  0  0  0  0999 V2000
   -1.8590  -11.0890   28.2970 Cl  0  0  0  0  0  0  0  0  0  0  0  0
   -3.4660   -4.1970   21.6290 C   0  0  0  0  0  0  0  0  0  0  0  0
   -3.1340   -4.1110   24.0250 C   0  0  0  0  0  0  0  0  0  0  0  0
   -3.4470   -5.0640   25.1480 C   0  0  0  0  0  0  0  0  0  0  0  0
   -4.0930   -6.2970   24.5670 C   0  0  1  0  0  0  0  0  0  0  0  0
   -4.0830   -6.0750   23.0700 C   0  0  0  0  0  0  0  0  0  0  0  0
   -3.6260  -10.7350   22.3250 C   0  0  0  0  0  0  0  0  0  0  0  0
   -2.7230  -10.8860   21.3260 C   0  0  0  0  0  0  0  0  0  0  0  0
   -3.4280   -9.7670   23.2620 C   0  0  0  0  0  0  0  0  0  0  0  0
   -2.3420   -8.9410   23.2320 C   0  0  0  0  0  0  0  0  0  0  0  0
   -2.1760   -7.8980   24.2740 C   0  0  0  0  0  0  0  0  0  0  0  0
   -3.2040   -4.9400   22.8360 N   0  3  1  0  0  0  0  0  0  0  0  0
   -1.4130   -9.1110   22.2230 C   0  0  0  0  0  0  0  0  0  0  0  0
   -0.1850   -8.2650   22.1000 C   0  0  0  0  0  0  0  0  0  0  0  0
   -3.5570   -8.1090   26.1970 C   0  0  0  0  0  0  0  0  0  0  0  0
   -4.4960   -7.6820   27.0870 C   0  0  0  0  0  0  0  0  0  0  0  0
   -3.3960   -7.5220   24.9300 N   0  0  0  0  0  0  0  0  0  0  0  0
   -4.6450   -8.2630   28.3070 C   0  0  0  0  0  0  0  0  0  0  0  0
   -3.8610   -9.3070   28.7030 C   0  0  0  0  0  0  0  0  0  0  0  0
   -4.0740   -9.8230   29.9950 C   0  0  0  0  0  0  0  0  0  0  0  0
   -4.2480  -10.2450   31.0510 N   0  0  0  0  0  0  0  0  0  0  0  0
   -2.8930   -9.7820   27.8470 C   0  0  0  0  0  0  0  0  0  0  0  0
   -2.7680   -9.1680   26.6150 C   0  0  0  0  0  0  0  0  0  0  0  0
   -1.6290  -10.0860   21.2770 C   0  0  0  0  0  0  0  0  0  0  0  0
    0.4690   -8.0600   23.1780 F   0  0  0  0  0  0  0  0  0  0  0  0
    0.7090   -8.7210   21.2870 F   0  0  0  0  0  0  0  0  0  0  0  0
   -0.3950   -7.0810   21.6910 F   0  0  0  0  0  0  0  0  0  0  0  0
   -2.7504   -3.3655   21.5477 H   0  0  0  0  0  0  0  0  0  0  0  0
   -4.4904   -3.7975   21.6594 H   0  0  0  0  0  0  0  0  0  0  0  0
   -3.3570   -4.8609   20.7588 H   0  0  0  0  0  0  0  0  0  0  0  0
   -2.1283   -3.6818   24.1444 H   0  0  0  0  0  0  0  0  0  0  0  0
   -3.8760   -3.3001   23.9812 H   0  0  0  0  0  0  0  0  0  0  0  0
   -4.1359   -4.5850   25.8593 H   0  0  0  0  0  0  0  0  0  0  0  0
   -2.5183   -5.3422   25.6677 H   0  0  0  0  0  0  0  0  0  0  0  0
   -5.1303   -6.3720   24.9252 H   0  0  0  0  0  0  0  0  0  0  0  0
   -5.0983   -5.8519   22.7104 H   0  0  0  0  0  0  0  0  0  0  0  0
   -3.6992   -6.9676   22.5543 H   0  0  0  0  0  0  0  0  0  0  0  0
   -4.4970  -11.3782   22.3777 H   0  0  0  0  0  0  0  0  0  0  0  0
   -2.8748  -11.6451   20.5672 H   0  0  0  0  0  0  0  0  0  0  0  0
   -4.1558   -9.6488   24.0566 H   0  0  0  0  0  0  0  0  0  0  0  0
   -1.7489   -7.0019   23.8001 H   0  0  0  0  0  0  0  0  0  0  0  0
   -1.4784   -8.2783   25.0347 H   0  0  0  0  0  0  0  0  0  0  0  0
   -2.2822   -5.3282   22.7107 H   0  0  0  0  0  0  0  0  0  0  0  0
   -5.1426   -6.8557   26.8147 H   0  0  0  0  0  0  0  0  0  0  0  0
   -5.4056   -7.8875   28.9819 H   0  0  0  0  0  0  0  0  0  0  0  0
   -2.0078   -9.5369   25.9360 H   0  0  0  0  0  0  0  0  0  0  0  0
   -0.9103  -10.2175   20.4762 H   0  0  0  0  0  0  0  0  0  0  0  0
  2 28  1  0  0  0  0
  2 29  1  0  0  0  0
  2 30  1  0  0  0  0
  3 31  1  0  0  0  0
  3 32  1  0  0  0  0
  4  3  1  0  0  0  0
  4 33  1  0  0  0  0
  4 34  1  0  0  0  0
  5  4  1  0  0  0  0
  5  6  1  0  0  0  0
  5 35  1  1  0  0  0
  6 12  1  0  0  0  0
  6 36  1  0  0  0  0
  6 37  1  0  0  0  0
  7  8  2  0  0  0  0
  7 38  1  0  0  0  0
  8 39  1  0  0  0  0
  9  7  1  0  0  0  0
  9 40  1  0  0  0  0
 10  9  2  0  0  0  0
 10 13  1  0  0  0  0
 11 10  1  0  0  0  0
 11 41  1  0  0  0  0
 11 42  1  0  0  0  0
 12  2  1  0  0  0  0
 12  3  1  0  0  0  0
 12 43  1  6  0  0  0
 13 14  1  0  0  0  0
 13 24  2  0  0  0  0
 14 25  1  0  0  0  0
 14 26  1  0  0  0  0
 14 27  1  0  0  0  0
 15 17  1  0  0  0  0
 15 23  1  0  0  0  0
 16 15  2  0  0  0  0
 16 44  1  0  0  0  0
 17  5  1  0  0  0  0
 17 11  1  0  0  0  0
 18 16  1  0  0  0  0
 18 45  1  0  0  0  0
 19 18  2  0  0  0  0
 19 20  1  0  0  0  0
 19 22  1  0  0  0  0
 20 21  3  0  0  0  0
 22  1  1  0  0  0  0
 22 23  2  0  0  0  0
 23 46  1  0  0  0  0
 24  8  1  0  0  0  0
 24 47  1  0  0  0  0
M  CHG  1  12   1
M  END
