3hqw_ligand
 OpenBabel08222323343D

 44 47  0  0  0  0  0  0  0  0999 V2000
   10.7060   15.8140   40.8570 C   0  0  0  0  0  0  0  0  0  0  0  0
    9.0760   17.8030   37.4190 C   0  0  0  0  0  0  0  0  0  0  0  0
   13.4670   16.2080   40.9450 C   0  0  0  0  0  0  0  0  0  0  0  0
   12.6850   22.1920   40.0820 C   0  0  0  0  0  0  0  0  0  0  0  0
   12.6750   16.9530   40.0640 C   0  0  0  0  0  0  0  0  0  0  0  0
    7.4250   18.2930   35.5620 C   0  0  0  0  0  0  0  0  0  0  0  0
   12.1930   21.2420   40.9690 C   0  0  0  0  0  0  0  0  0  0  0  0
   13.7100   24.4030   39.9140 C   0  0  0  0  0  0  0  0  0  0  0  0
   13.3640   23.2420   40.6610 O   0  0  0  0  0  0  0  0  0  0  0  0
   12.4860   22.0440   38.6940 C   0  0  0  0  0  0  0  0  0  0  0  0
   11.7770   20.9240   38.2080 C   0  0  0  0  0  0  0  0  0  0  0  0
   11.5060   20.1340   40.4950 C   0  0  0  0  0  0  0  0  0  0  0  0
   11.3140   19.9810   39.1270 C   0  0  0  0  0  0  0  0  0  0  0  0
   10.5460   18.8250   38.6480 C   0  0  0  0  0  0  0  0  0  0  0  0
    9.6040   18.9780   37.6330 N   0  0  0  0  0  0  0  0  0  0  0  0
    8.0330   17.5000   36.4620 C   0  0  0  0  0  0  0  0  0  0  0  0
    7.2910   15.9310   36.3700 S   0  0  0  0  0  0  0  0  0  0  0  0
    6.1640   16.3330   35.0890 C   0  0  0  0  0  0  0  0  0  0  0  0
    6.3780   17.6130   34.7830 C   0  0  0  0  0  0  0  0  0  0  0  0
    9.6090   16.8910   38.2660 N   0  0  0  0  0  0  0  0  0  0  0  0
   10.5150   17.5340   39.0480 C   0  0  0  0  0  0  0  0  0  0  0  0
   11.3010   16.7710   40.0360 C   0  0  0  0  0  0  0  0  0  0  0  0
   11.4780   15.0640   41.7490 C   0  0  0  0  0  0  0  0  0  0  0  0
   12.8720   15.2670   41.8040 C   0  0  0  0  0  0  0  0  0  0  0  0
   13.5960   14.5080   42.6830 O   0  0  0  0  0  0  0  0  0  0  0  0
   15.0300   14.6370   42.7920 C   0  0  0  0  0  0  0  0  0  0  0  0
    9.6358   15.6502   40.8032 H   0  0  0  0  0  0  0  0  0  0  0  0
   14.5406   16.3565   40.9653 H   0  0  0  0  0  0  0  0  0  0  0  0
   13.1377   17.6751   39.4010 H   0  0  0  0  0  0  0  0  0  0  0  0
    7.6836   19.3416   35.4226 H   0  0  0  0  0  0  0  0  0  0  0  0
   12.3466   21.3672   42.0347 H   0  0  0  0  0  0  0  0  0  0  0  0
   14.2439   25.1116   40.5642 H   0  0  0  0  0  0  0  0  0  0  0  0
   12.7954   24.8769   39.5283 H   0  0  0  0  0  0  0  0  0  0  0  0
   14.3582   24.1178   39.0723 H   0  0  0  0  0  0  0  0  0  0  0  0
   12.8747   22.7850   38.0048 H   0  0  0  0  0  0  0  0  0  0  0  0
   11.5965   20.7994   37.1464 H   0  0  0  0  0  0  0  0  0  0  0  0
   11.1217   19.3929   41.1865 H   0  0  0  0  0  0  0  0  0  0  0  0
    9.3684   19.8531   37.1436 H   0  0  0  0  0  0  0  0  0  0  0  0
    5.4325   15.6678   34.6326 H   0  0  0  0  0  0  0  0  0  0  0  0
    5.8129   18.1237   34.0047 H   0  0  0  0  0  0  0  0  0  0  0  0
   11.0077   14.3309   42.3944 H   0  0  0  0  0  0  0  0  0  0  0  0
   15.4042   13.9372   43.5537 H   0  0  0  0  0  0  0  0  0  0  0  0
   15.2844   15.6667   43.0835 H   0  0  0  0  0  0  0  0  0  0  0  0
   15.4938   14.4053   41.8219 H   0  0  0  0  0  0  0  0  0  0  0  0
  1 23  1  0  0  0  0
  1 27  1  0  0  0  0
  2 15  1  0  0  0  0
  2 16  1  0  0  0  0
  3 24  1  0  0  0  0
  3 28  1  0  0  0  0
  4  9  1  0  0  0  0
  5  3  2  0  0  0  0
  5 29  1  0  0  0  0
  6 19  1  0  0  0  0
  6 30  1  0  0  0  0
  7  4  2  0  0  0  0
  7 31  1  0  0  0  0
  8 32  1  0  0  0  0
  8 33  1  0  0  0  0
  8 34  1  0  0  0  0
  9  8  1  0  0  0  0
 10  4  1  0  0  0  0
 10 35  1  0  0  0  0
 11 10  2  0  0  0  0
 11 36  1  0  0  0  0
 12  7  1  0  0  0  0
 12 37  1  0  0  0  0
 13 11  1  0  0  0  0
 13 12  2  0  0  0  0
 14 13  1  0  0  0  0
 14 15  1  0  0  0  0
 15 38  1  0  0  0  0
 16  6  2  0  0  0  0
 16 17  1  0  0  0  0
 17 18  1  0  0  0  0
 18 19  2  0  0  0  0
 18 39  1  0  0  0  0
 19 40  1  0  0  0  0
 20  2  2  0  0  0  0
 21 14  2  0  0  0  0
 21 20  1  0  0  0  0
 21 22  1  0  0  0  0
 22  1  2  0  0  0  0
 22  5  1  0  0  0  0
 23 24  2  0  0  0  0
 23 41  1  0  0  0  0
 24 25  1  0  0  0  0
 25 26  1  0  0  0  0
 26 42  1  0  0  0  0
 26 43  1  0  0  0  0
 26 44  1  0  0  0  0
M  END
