3hrf_ligand
 OpenBabel08222323343D

 34 35  0  0  0  0  0  0  0  0999 V2000
   11.8540   -7.6140  -15.4780 O   0  5  0  0  0  0  0  0  0  0  0  0
   11.4760   -7.0630  -14.4060 C   0  0  0  0  0  0  0  0  0  0  0  0
   10.3800   -7.3030  -13.8390 O   0  0  0  0  0  0  0  0  0  0  0  0
   12.3550   -6.0770  -13.7470 C   0  0  0  0  0  0  0  0  0  0  0  0
   13.6440   -6.2800  -13.4440 C   0  0  0  0  0  0  0  0  0  0  0  0
   14.3420   -7.5800  -13.7330 C   0  0  0  0  0  0  0  0  0  0  0  0
   15.4060   -7.6310  -14.6360 C   0  0  0  0  0  0  0  0  0  0  0  0
   16.0470   -8.8390  -14.9020 C   0  0  0  0  0  0  0  0  0  0  0  0
   15.6030  -10.0010  -14.2720 C   0  0  0  0  0  0  0  0  0  0  0  0
   14.5390   -9.9630  -13.3770 C   0  0  0  0  0  0  0  0  0  0  0  0
   13.9060   -8.7550  -13.1060 C   0  0  0  0  0  0  0  0  0  0  0  0
   14.3370   -5.1290  -12.7450 C   0  0  0  0  0  0  0  0  0  0  0  0
   15.5420   -4.5170  -13.4540 C   0  0  0  0  0  0  0  0  0  0  0  0
   16.6200   -4.4000  -12.3960 C   0  0  0  0  0  0  0  0  0  0  0  0
   17.9230   -4.7950  -12.7050 C   0  0  0  0  0  0  0  0  0  0  0  0
   16.3040   -3.9190  -11.1170 C   0  0  0  0  0  0  0  0  0  0  0  0
   17.3020   -3.8290  -10.1470 C   0  0  0  0  0  0  0  0  0  0  0  0
   18.6030   -4.2290  -10.4720 C   0  0  0  0  0  0  0  0  0  0  0  0
   19.8920   -4.1250   -9.2390 Cl  0  0  0  0  0  0  0  0  0  0  0  0
   18.9210   -4.7140  -11.7420 C   0  0  0  0  0  0  0  0  0  0  0  0
   11.9229   -5.1116  -13.4876 H   0  0  0  0  0  0  0  0  0  0  0  0
   15.7351   -6.7255  -15.1328 H   0  0  0  0  0  0  0  0  0  0  0  0
   16.8825   -8.8752  -15.5918 H   0  0  0  0  0  0  0  0  0  0  0  0
   16.0928  -10.9449  -14.4822 H   0  0  0  0  0  0  0  0  0  0  0  0
   14.2041  -10.8728  -12.8920 H   0  0  0  0  0  0  0  0  0  0  0  0
   13.0756   -8.7222  -12.4100 H   0  0  0  0  0  0  0  0  0  0  0  0
   14.6775   -5.4921  -11.7641 H   0  0  0  0  0  0  0  0  0  0  0  0
   13.5940   -4.3304  -12.6027 H   0  0  0  0  0  0  0  0  0  0  0  0
   15.2884   -3.5247  -13.8553 H   0  0  0  0  0  0  0  0  0  0  0  0
   15.8775   -5.1693  -14.2737 H   0  0  0  0  0  0  0  0  0  0  0  0
   18.1560   -5.1651  -13.6969 H   0  0  0  0  0  0  0  0  0  0  0  0
   15.2889   -3.6186  -10.8835 H   0  0  0  0  0  0  0  0  0  0  0  0
   17.0732   -3.4546   -9.1557 H   0  0  0  0  0  0  0  0  0  0  0  0
   19.9337   -5.0234  -11.9737 H   0  0  0  0  0  0  0  0  0  0  0  0
  1  2  1  0  0  0  0
  2  3  2  0  0  0  0
  2  4  1  0  0  0  0
  4  5  2  0  0  0  0
  4 21  1  0  0  0  0
  5  6  1  0  0  0  0
  5 12  1  0  0  0  0
  6  7  2  0  0  0  0
  6 11  1  0  0  0  0
  7  8  1  0  0  0  0
  7 22  1  0  0  0  0
  8  9  2  0  0  0  0
  8 23  1  0  0  0  0
  9 10  1  0  0  0  0
  9 24  1  0  0  0  0
 10 11  2  0  0  0  0
 10 25  1  0  0  0  0
 11 26  1  0  0  0  0
 12 13  1  0  0  0  0
 12 27  1  0  0  0  0
 12 28  1  0  0  0  0
 13 14  1  0  0  0  0
 13 29  1  0  0  0  0
 13 30  1  0  0  0  0
 14 15  2  0  0  0  0
 14 16  1  0  0  0  0
 15 20  1  0  0  0  0
 15 31  1  0  0  0  0
 16 17  2  0  0  0  0
 16 32  1  0  0  0  0
 17 18  1  0  0  0  0
 17 33  1  0  0  0  0
 18 19  1  0  0  0  0
 18 20  2  0  0  0  0
 20 34  1  0  0  0  0
M  CHG  1   1  -1
M  END
