3hvh_ligand
 OpenBabel08222323343D

 64 68  0  0  1  0  0  0  0  0999 V2000
    0.4200    7.1920   17.8970 F   0  0  0  0  0  0  0  0  0  0  0  0
    0.4370    8.3950   17.2250 C   0  0  0  0  0  0  0  0  0  0  0  0
   -0.4320    9.3530   17.6260 C   0  0  0  0  0  0  0  0  0  0  0  0
   -0.4210   10.5620   16.9540 C   0  0  0  0  0  0  0  0  0  0  0  0
    1.3680    8.5560   16.2460 C   0  0  0  0  0  0  0  0  0  0  0  0
    1.3730    9.8150   15.5940 C   0  0  0  0  0  0  0  0  0  0  0  0
    0.5040   10.8360   15.9690 C   0  0  0  0  0  0  0  0  0  0  0  0
    0.5080   12.1470   15.3060 C   0  0  0  0  0  0  0  0  0  0  0  0
   -0.7000   12.8170   15.0070 C   0  0  0  0  0  0  0  0  0  0  0  0
    1.7410   12.6700   14.8020 C   0  0  0  0  0  0  0  0  0  0  0  0
    1.7470   13.9030   14.1440 C   0  0  0  0  0  0  0  0  0  0  0  0
    2.9330   14.4370   13.6730 O   0  0  0  0  0  0  0  0  0  0  0  0
    0.5420   14.5840   13.8960 C   0  0  0  0  0  0  0  0  0  0  0  0
    0.6520   15.7280   13.1470 O   0  0  0  0  0  0  0  0  0  0  0  0
   -0.7000   14.0760   14.3560 C   0  0  0  0  0  0  0  0  0  0  0  0
   -1.9750   14.7040   14.1600 C   0  0  0  0  0  0  0  0  0  0  0  0
   -3.0450   14.1430   14.3680 O   0  0  0  0  0  0  0  0  0  0  0  0
   -1.9440   16.0300   13.8330 N   0  0  0  0  0  0  0  0  0  0  0  0
   -3.1650   16.7910   13.7320 C   0  0  0  0  0  0  0  0  0  0  0  0
   -2.8120   18.2320   13.8430 C   0  0  0  0  0  0  0  0  0  0  0  0
   -3.6030   19.1310   14.3940 C   0  0  0  0  0  0  0  0  0  0  0  0
   -3.2560   20.5670   14.5080 C   0  0  2  0  0  0  0  0  0  0  0  0
   -3.8830   21.1510   15.7700 C   0  0  1  0  0  0  0  0  0  0  0  0
   -3.1280   22.2950   16.2230 O   0  0  0  0  0  0  0  0  0  0  0  0
   -5.2430   21.5670   15.2120 C   0  0  1  0  0  0  0  0  0  0  0  0
   -5.9560   22.5370   15.9990 O   0  0  0  0  0  0  0  0  0  0  0  0
   -3.7730   21.3600   13.4000 O   0  0  0  0  0  0  0  0  0  0  0  0
   -4.9240   22.1330   13.8660 C   0  0  1  0  0  0  0  0  0  0  0  0
   -5.9530   21.9470   12.8430 N   0  0  0  0  0  0  0  0  0  0  0  0
   -6.5730   20.7570   12.4980 C   0  0  0  0  0  0  0  0  0  0  0  0
   -6.3580   22.8760   11.9140 C   0  0  0  0  0  0  0  0  0  0  0  0
   -6.0040   24.1750   11.8440 N   0  0  0  0  0  0  0  0  0  0  0  0
   -6.5530   24.8070   10.8150 C   0  0  0  0  0  0  0  0  0  0  0  0
   -7.4130   24.2760    9.9260 N   0  0  0  0  0  0  0  0  0  0  0  0
   -7.7600   23.0150   10.0500 C   0  0  0  0  0  0  0  0  0  0  0  0
   -7.2250   22.2190   11.0710 C   0  0  0  0  0  0  0  0  0  0  0  0
   -7.3260   20.8860   11.4400 N   0  0  0  0  0  0  0  0  0  0  0  0
   -8.6530   22.5580    9.0920 N   0  0  0  0  0  0  0  0  0  0  0  0
   -9.1370   21.1810    9.0910 C   0  0  0  0  0  0  0  0  0  0  0  0
   -1.1156    9.1777   18.4488 H   0  0  0  0  0  0  0  0  0  0  0  0
   -1.1592   11.3139   17.2085 H   0  0  0  0  0  0  0  0  0  0  0  0
    2.0643    7.7688   15.9804 H   0  0  0  0  0  0  0  0  0  0  0  0
    2.0712    9.9870   14.7829 H   0  0  0  0  0  0  0  0  0  0  0  0
   -1.6439   12.3595   15.2806 H   0  0  0  0  0  0  0  0  0  0  0  0
    2.6629   12.1143   14.9296 H   0  0  0  0  0  0  0  0  0  0  0  0
    2.7591   15.2723   13.2552 H   0  0  0  0  0  0  0  0  0  0  0  0
    1.0191   15.5147   12.2972 H   0  0  0  0  0  0  0  0  0  0  0  0
   -1.0662   16.4774   13.6620 H   0  0  0  0  0  0  0  0  0  0  0  0
   -3.8499   16.5096   14.5455 H   0  0  0  0  0  0  0  0  0  0  0  0
   -3.6477   16.5974   12.7627 H   0  0  0  0  0  0  0  0  0  0  0  0
   -1.8514   18.5607   13.4491 H   0  0  0  0  0  0  0  0  0  0  0  0
   -4.5635   18.8005   14.7867 H   0  0  0  0  0  0  0  0  0  0  0  0
   -2.1611   20.6642   14.5499 H   0  0  0  0  0  0  0  0  0  0  0  0
   -3.9720   20.4101   16.5782 H   0  0  0  0  0  0  0  0  0  0  0  0
   -3.1228   22.9588   15.5435 H   0  0  0  0  0  0  0  0  0  0  0  0
   -5.8802   20.6762   15.1096 H   0  0  0  0  0  0  0  0  0  0  0  0
   -5.4372   23.3297   16.0686 H   0  0  0  0  0  0  0  0  0  0  0  0
   -4.6869   23.2030   13.9604 H   0  0  0  0  0  0  0  0  0  0  0  0
   -6.4468   19.8240   13.0452 H   0  0  0  0  0  0  0  0  0  0  0  0
   -6.2840   25.8480   10.6772 H   0  0  0  0  0  0  0  0  0  0  0  0
   -8.9828   23.2067    8.3630 H   0  0  0  0  0  0  0  0  0  0  0  0
   -9.8309   21.0369    8.2497 H   0  0  0  0  0  0  0  0  0  0  0  0
   -9.6597   20.9753   10.0368 H   0  0  0  0  0  0  0  0  0  0  0  0
   -8.2852   20.4930    8.9856 H   0  0  0  0  0  0  0  0  0  0  0  0
  1  2  1  0  0  0  0
  2  3  2  0  0  0  0
  2  5  1  0  0  0  0
  3  4  1  0  0  0  0
  3 40  1  0  0  0  0
  4  7  2  0  0  0  0
  4 41  1  0  0  0  0
  5  6  2  0  0  0  0
  5 42  1  0  0  0  0
  6  7  1  0  0  0  0
  6 43  1  0  0  0  0
  7  8  1  0  0  0  0
  8  9  2  0  0  0  0
  8 10  1  0  0  0  0
  9 15  1  0  0  0  0
  9 44  1  0  0  0  0
 10 11  2  0  0  0  0
 10 45  1  0  0  0  0
 11 12  1  0  0  0  0
 11 13  1  0  0  0  0
 12 46  1  0  0  0  0
 13 14  1  0  0  0  0
 13 15  2  0  0  0  0
 14 47  1  0  0  0  0
 15 16  1  0  0  0  0
 16 17  2  0  0  0  0
 16 18  1  0  0  0  0
 18 19  1  0  0  0  0
 18 48  1  0  0  0  0
 19 20  1  0  0  0  0
 19 49  1  0  0  0  0
 19 50  1  0  0  0  0
 20 21  2  0  0  0  0
 20 51  1  0  0  0  0
 21 22  1  0  0  0  0
 21 52  1  0  0  0  0
 22 23  1  0  0  0  0
 22 27  1  0  0  0  0
 22 53  1  1  0  0  0
 23 24  1  0  0  0  0
 23 25  1  0  0  0  0
 23 54  1  1  0  0  0
 24 55  1  0  0  0  0
 25 26  1  0  0  0  0
 25 28  1  0  0  0  0
 25 56  1  6  0  0  0
 26 57  1  0  0  0  0
 27 28  1  0  0  0  0
 28 29  1  0  0  0  0
 28 58  1  1  0  0  0
 29 30  1  0  0  0  0
 29 31  1  0  0  0  0
 30 37  2  0  0  0  0
 30 59  1  0  0  0  0
 31 32  2  0  0  0  0
 31 36  1  0  0  0  0
 32 33  1  0  0  0  0
 33 34  2  0  0  0  0
 33 60  1  0  0  0  0
 34 35  1  0  0  0  0
 35 36  2  0  0  0  0
 35 38  1  0  0  0  0
 36 37  1  0  0  0  0
 38 39  1  0  0  0  0
 38 61  1  0  0  0  0
 39 62  1  0  0  0  0
 39 63  1  0  0  0  0
 39 64  1  0  0  0  0
M  END
