3hw1_ligand
 OpenBabel08222323343D

 30 32  0  0  0  0  0  0  0  0999 V2000
  -19.6390  -92.7290   10.6900 N   0  0  0  0  0  0  0  0  0  0  0  0
  -18.5200  -92.6780   11.5250 C   0  0  0  0  0  0  0  0  0  0  0  0
  -17.8170  -91.4930   11.4830 N   0  0  0  0  0  0  0  0  0  0  0  0
  -16.7000  -91.3200   12.2620 C   0  0  0  0  0  0  0  0  0  0  0  0
  -16.0200  -90.1190   12.1940 C   0  0  0  0  0  0  0  0  0  0  0  0
  -14.8900  -89.9270   12.9690 C   0  0  0  0  0  0  0  0  0  0  0  0
  -18.1230  -93.7270   12.3570 C   0  0  0  0  0  0  0  0  0  0  0  0
  -16.9860  -93.5480   13.1450 N   0  0  0  0  0  0  0  0  0  0  0  0
  -16.2740  -92.3510   13.0960 C   0  0  0  0  0  0  0  0  0  0  0  0
  -15.1400  -92.1540   13.8760 C   0  0  0  0  0  0  0  0  0  0  0  0
  -14.4530  -90.9420   13.8070 C   0  0  0  0  0  0  0  0  0  0  0  0
  -18.8410  -94.9560   12.4300 N   0  0  0  0  0  0  0  0  0  0  0  0
  -20.3000  -95.0270   12.6800 C   0  0  0  0  0  0  0  0  0  0  0  0
  -20.5420  -96.0200   13.8000 C   0  0  0  0  0  0  0  0  0  0  0  0
  -19.1930  -96.5850   14.1440 C   0  0  0  0  0  0  0  0  0  0  0  0
  -18.3000  -96.2260   12.9630 C   0  0  0  0  0  0  0  0  0  0  0  0
  -20.2210  -93.5783   10.6601 H   0  0  0  0  0  0  0  0  0  0  0  0
  -19.8820  -91.9173   10.1043 H   0  0  0  0  0  0  0  0  0  0  0  0
  -16.3701  -89.3312   11.5368 H   0  0  0  0  0  0  0  0  0  0  0  0
  -14.3494  -88.9886   12.9215 H   0  0  0  0  0  0  0  0  0  0  0  0
  -14.7908  -92.9400   14.5358 H   0  0  0  0  0  0  0  0  0  0  0  0
  -13.5681  -90.7918   14.4149 H   0  0  0  0  0  0  0  0  0  0  0  0
  -20.8180  -95.3604   11.7687 H   0  0  0  0  0  0  0  0  0  0  0  0
  -20.6760  -94.0359   12.9737 H   0  0  0  0  0  0  0  0  0  0  0  0
  -21.2179  -96.8199   13.4634 H   0  0  0  0  0  0  0  0  0  0  0  0
  -20.9793  -95.5137   14.6732 H   0  0  0  0  0  0  0  0  0  0  0  0
  -19.2512  -97.6766   14.2664 H   0  0  0  0  0  0  0  0  0  0  0  0
  -18.8092  -96.1321   15.0701 H   0  0  0  0  0  0  0  0  0  0  0  0
  -17.2598  -96.0917   13.2945 H   0  0  0  0  0  0  0  0  0  0  0  0
  -18.3417  -97.0135   12.1962 H   0  0  0  0  0  0  0  0  0  0  0  0
  1  2  1  0  0  0  0
  1 17  1  0  0  0  0
  1 18  1  0  0  0  0
  2  3  2  0  0  0  0
  2  7  1  0  0  0  0
  3  4  1  0  0  0  0
  4  5  2  0  0  0  0
  4  9  1  0  0  0  0
  5  6  1  0  0  0  0
  5 19  1  0  0  0  0
  6 11  2  0  0  0  0
  6 20  1  0  0  0  0
  7  8  2  0  0  0  0
  7 12  1  0  0  0  0
  8  9  1  0  0  0  0
  9 10  2  0  0  0  0
 10 11  1  0  0  0  0
 10 21  1  0  0  0  0
 11 22  1  0  0  0  0
 12 13  1  0  0  0  0
 12 16  1  0  0  0  0
 13 14  1  0  0  0  0
 13 23  1  0  0  0  0
 13 24  1  0  0  0  0
 14 15  1  0  0  0  0
 14 25  1  0  0  0  0
 14 26  1  0  0  0  0
 15 16  1  0  0  0  0
 15 27  1  0  0  0  0
 15 28  1  0  0  0  0
 16 29  1  0  0  0  0
 16 30  1  0  0  0  0
M  END
