3hyf_ligand
 OpenBabel08222323343D

 27 28  0  0  0  0  0  0  0  0999 V2000
    3.7860   49.4070   34.6460 C   0  0  0  0  0  0  0  0  0  0  0  0
    3.4260   49.1450   29.9340 N   0  0  0  0  0  0  0  0  0  0  0  0
    3.1800   52.3620   28.0190 O   0  0  0  0  0  0  0  0  0  0  0  0
    7.4790   50.0230   36.3950 Cl  0  0  0  0  0  0  0  0  0  0  0  0
    4.7910   49.7230   35.6210 C   0  0  0  0  0  0  0  0  0  0  0  0
    2.8670   50.9440   31.3950 N   0  0  0  0  0  0  0  0  0  0  0  0
    2.6200   53.0850   30.5990 O   0  0  0  0  0  0  0  0  0  0  0  0
    4.2440   50.1640   37.1910 Cl  0  0  0  0  0  0  0  0  0  0  0  0
    6.2210   49.6590   35.2690 C   0  0  0  0  0  0  0  0  0  0  0  0
    3.9870   48.0770   27.5900 O   0  5  0  0  0  0  0  0  0  0  0  0
    6.6110   49.2780   33.9340 C   0  0  0  0  0  0  0  0  0  0  0  0
    3.8320   49.9300   26.4760 O   0  0  0  0  0  0  0  0  0  0  0  0
    5.6020   48.9620   32.9650 C   0  0  0  0  0  0  0  0  0  0  0  0
    4.1900   49.0230   33.3090 C   0  0  0  0  0  0  0  0  0  0  0  0
    3.1300   48.6850   32.2810 C   0  0  0  0  0  0  0  0  0  0  0  0
    3.1390   49.6520   31.1350 C   0  0  0  0  0  0  0  0  0  0  0  0
    3.4530   49.9980   28.8340 C   0  0  0  0  0  0  0  0  0  0  0  0
    3.1790   51.4200   28.9990 C   0  0  0  0  0  0  0  0  0  0  0  0
    2.8870   51.8220   30.3330 C   0  0  0  0  0  0  0  0  0  0  0  0
    3.7780   49.3100   27.5430 C   0  0  0  0  0  0  0  0  0  0  0  0
    2.7352   49.4553   34.9077 H   0  0  0  0  0  0  0  0  0  0  0  0
    2.9703   53.2088   28.3951 H   0  0  0  0  0  0  0  0  0  0  0  0
    2.6586   51.2548   32.3224 H   0  0  0  0  0  0  0  0  0  0  0  0
    7.6599   49.2307   33.6646 H   0  0  0  0  0  0  0  0  0  0  0  0
    5.8958   48.6737   31.9622 H   0  0  0  0  0  0  0  0  0  0  0  0
    2.1424   48.7148   32.7645 H   0  0  0  0  0  0  0  0  0  0  0  0
    3.3186   47.6726   31.8943 H   0  0  0  0  0  0  0  0  0  0  0  0
  1  5  2  0  0  0  0
  1 21  1  0  0  0  0
  2 16  2  0  0  0  0
  3 22  1  0  0  0  0
  5  8  1  0  0  0  0
  5  9  1  0  0  0  0
  6 19  1  0  0  0  0
  6 23  1  0  0  0  0
  9  4  1  0  0  0  0
 11  9  2  0  0  0  0
 11 24  1  0  0  0  0
 13 11  1  0  0  0  0
 13 25  1  0  0  0  0
 14  1  1  0  0  0  0
 14 13  2  0  0  0  0
 15 14  1  0  0  0  0
 15 26  1  0  0  0  0
 15 27  1  0  0  0  0
 16  6  1  0  0  0  0
 16 15  1  0  0  0  0
 17  2  1  0  0  0  0
 17 18  2  0  0  0  0
 17 20  1  0  0  0  0
 18  3  1  0  0  0  0
 18 19  1  0  0  0  0
 19  7  2  0  0  0  0
 20 10  1  0  0  0  0
 20 12  2  0  0  0  0
M  CHG  1  10  -1
M  END
