3i1y_ligand
 OpenBabel08222323343D

 44 46  0  0  0  0  0  0  0  0999 V2000
   74.7820   -9.0290   67.9830 C   0  0  0  0  0  0  0  0  0  0  0  0
   76.2290  -11.6530   68.5250 C   0  0  0  0  0  0  0  0  0  0  0  0
   73.9780  -12.4210   68.8370 C   0  0  0  0  0  0  0  0  0  0  0  0
   74.9010  -10.1690   71.5910 C   0  0  0  0  0  0  0  0  0  0  0  0
   75.8460   -8.3240   70.3830 C   0  0  0  0  0  0  0  0  0  0  0  0
   76.6310  -12.9470   68.2430 C   0  0  0  0  0  0  0  0  0  0  0  0
   76.4250   -7.8590   71.5520 C   0  0  0  0  0  0  0  0  0  0  0  0
   75.7060  -13.9770   68.2580 C   0  0  0  0  0  0  0  0  0  0  0  0
   75.1510   -8.7410   64.5260 C   0  0  0  0  0  0  0  0  0  0  0  0
   75.8790   -7.8160   62.3210 C   0  0  0  0  0  0  0  0  0  0  0  0
   74.2510   -6.5970   63.6110 C   0  0  0  0  0  0  0  0  0  0  0  0
   75.7870   -6.8220   61.3640 C   0  0  0  0  0  0  0  0  0  0  0  0
   74.9290   -5.7580   61.5770 C   0  0  0  0  0  0  0  0  0  0  0  0
   75.9010   -9.6880   64.4060 O   0  0  0  0  0  0  0  0  0  0  0  0
   75.0940   -7.7010   63.4750 C   0  0  0  0  0  0  0  0  0  0  0  0
   74.1970   -5.6750   62.6720 N   0  0  0  0  0  0  0  0  0  0  0  0
   74.3740   -8.6440   65.6180 N   0  0  0  0  0  0  0  0  0  0  0  0
   74.4340   -9.6820   66.6460 C   0  0  0  0  0  0  0  0  0  0  0  0
   74.4450   -9.9840   69.1310 C   0  0  0  0  0  0  0  0  0  0  0  0
   75.0790   -9.4780   70.4040 C   0  0  0  0  0  0  0  0  0  0  0  0
   76.2470   -8.5480   72.7390 C   0  0  0  0  0  0  0  0  0  0  0  0
   75.4820   -9.7030   72.7580 C   0  0  0  0  0  0  0  0  0  0  0  0
   74.9020  -11.3890   68.8200 C   0  0  0  0  0  0  0  0  0  0  0  0
   74.3800  -13.7140   68.5570 C   0  0  0  0  0  0  0  0  0  0  0  0
   74.2023   -8.1013   68.0980 H   0  0  0  0  0  0  0  0  0  0  0  0
   75.8566   -8.7952   68.0063 H   0  0  0  0  0  0  0  0  0  0  0  0
   76.9529  -10.8462   68.5149 H   0  0  0  0  0  0  0  0  0  0  0  0
   72.9396  -12.2148   69.0699 H   0  0  0  0  0  0  0  0  0  0  0  0
   74.3064  -11.0753   71.6063 H   0  0  0  0  0  0  0  0  0  0  0  0
   75.9925   -7.7862   69.4533 H   0  0  0  0  0  0  0  0  0  0  0  0
   77.6694  -13.1539   68.0106 H   0  0  0  0  0  0  0  0  0  0  0  0
   77.0194   -6.9526   71.5372 H   0  0  0  0  0  0  0  0  0  0  0  0
   76.0202  -14.9903   68.0354 H   0  0  0  0  0  0  0  0  0  0  0  0
   76.5417   -8.6624   62.1815 H   0  0  0  0  0  0  0  0  0  0  0  0
   73.6351   -6.4975   64.4975 H   0  0  0  0  0  0  0  0  0  0  0  0
   76.3799   -6.8759   60.4581 H   0  0  0  0  0  0  0  0  0  0  0  0
   74.8564   -4.9765   60.8293 H   0  0  0  0  0  0  0  0  0  0  0  0
   73.7569   -7.8647   65.7272 H   0  0  0  0  0  0  0  0  0  0  0  0
   73.4582  -10.1840   66.7222 H   0  0  0  0  0  0  0  0  0  0  0  0
   75.2063  -10.4196   66.3823 H   0  0  0  0  0  0  0  0  0  0  0  0
   73.3533   -9.9990   69.2651 H   0  0  0  0  0  0  0  0  0  0  0  0
   76.7051   -8.1848   73.6519 H   0  0  0  0  0  0  0  0  0  0  0  0
   75.3383  -10.2422   73.6873 H   0  0  0  0  0  0  0  0  0  0  0  0
   73.6571  -14.5216   68.5716 H   0  0  0  0  0  0  0  0  0  0  0  0
  1 18  1  0  0  0  0
  1 25  1  0  0  0  0
  1 26  1  0  0  0  0
  2  6  2  0  0  0  0
  2 27  1  0  0  0  0
  3 24  1  0  0  0  0
  3 28  1  0  0  0  0
  4 22  1  0  0  0  0
  4 29  1  0  0  0  0
  5  7  2  0  0  0  0
  5 30  1  0  0  0  0
  6  8  1  0  0  0  0
  6 31  1  0  0  0  0
  7 21  1  0  0  0  0
  7 32  1  0  0  0  0
  8 33  1  0  0  0  0
  9 14  2  0  0  0  0
  9 15  1  0  0  0  0
 10 12  2  0  0  0  0
 10 34  1  0  0  0  0
 11 16  1  0  0  0  0
 11 35  1  0  0  0  0
 12 13  1  0  0  0  0
 12 36  1  0  0  0  0
 13 37  1  0  0  0  0
 15 10  1  0  0  0  0
 15 11  2  0  0  0  0
 16 13  2  0  0  0  0
 17  9  1  0  0  0  0
 17 38  1  0  0  0  0
 18 17  1  0  0  0  0
 18 39  1  0  0  0  0
 18 40  1  0  0  0  0
 19  1  1  0  0  0  0
 19 20  1  0  0  0  0
 19 23  1  0  0  0  0
 19 41  1  0  0  0  0
 20  4  2  0  0  0  0
 20  5  1  0  0  0  0
 21 22  2  0  0  0  0
 21 42  1  0  0  0  0
 22 43  1  0  0  0  0
 23  2  1  0  0  0  0
 23  3  2  0  0  0  0
 24  8  2  0  0  0  0
 24 44  1  0  0  0  0
M  END
