3i5n_ligand
 OpenBabel08222323343D

 46 50  0  0  0  0  0  0  0  0999 V2000
   19.7420   13.7030   56.9300 N   0  0  0  0  0  0  0  0  0  0  0  0
   20.7950   15.6250   56.7240 N   0  0  0  0  0  0  0  0  0  0  0  0
   19.8090   15.0190   57.3880 C   0  0  0  0  0  0  0  0  0  0  0  0
   17.0950   12.2850   58.8010 C   0  0  0  0  0  0  0  0  0  0  0  0
   15.9950   12.6990   59.5600 C   0  0  0  0  0  0  0  0  0  0  0  0
   15.0780   11.7690   60.0430 C   0  0  0  0  0  0  0  0  0  0  0  0
   15.2590   10.4130   59.7710 C   0  0  0  0  0  0  0  0  0  0  0  0
   17.2690   10.9250   58.5310 C   0  0  0  0  0  0  0  0  0  0  0  0
   22.0310   10.7830   56.8120 C   0  0  0  0  0  0  0  0  0  0  0  0
   24.2690   10.9030   57.7070 C   0  0  0  0  0  0  0  0  0  0  0  0
   21.8100    9.6880   57.6450 C   0  0  0  0  0  0  0  0  0  0  0  0
   20.3620    8.0410   58.4140 C   0  0  0  0  0  0  0  0  0  0  0  0
   21.9440    5.9680   61.0100 C   0  0  0  0  0  0  0  0  0  0  0  0
   20.9740    6.4450   60.0500 O   0  0  0  0  0  0  0  0  0  0  0  0
   21.3270    7.5260   59.2800 C   0  0  0  0  0  0  0  0  0  0  0  0
   22.5870    8.1330   59.3180 C   0  0  0  0  0  0  0  0  0  0  0  0
   20.6130    9.0800   57.6350 N   0  0  0  0  0  0  0  0  0  0  0  0
   22.8320    9.2290   58.4850 C   0  0  0  0  0  0  0  0  0  0  0  0
   24.0280    9.8520   58.4900 N   0  0  0  0  0  0  0  0  0  0  0  0
   23.2870   11.3940   56.8420 C   0  0  0  0  0  0  0  0  0  0  0  0
   21.0340   11.1950   56.0110 N   0  0  0  0  0  0  0  0  0  0  0  0
   21.1030   12.3970   55.1610 C   0  0  0  0  0  0  0  0  0  0  0  0
   20.7620   13.6490   55.9760 C   0  0  0  0  0  0  0  0  0  0  0  0
   18.9140   12.8890   57.3670 N   0  0  0  0  0  0  0  0  0  0  0  0
   21.3370   14.8530   55.9210 N   0  0  0  0  0  0  0  0  0  0  0  0
   18.9250   15.4470   58.3700 C   0  0  0  0  0  0  0  0  0  0  0  0
   18.0070   14.5210   58.8470 C   0  0  0  0  0  0  0  0  0  0  0  0
   18.0140   13.2240   58.3220 C   0  0  0  0  0  0  0  0  0  0  0  0
   16.3540    9.9920   59.0150 C   0  0  0  0  0  0  0  0  0  0  0  0
   15.8554   13.7525   59.7739 H   0  0  0  0  0  0  0  0  0  0  0  0
   14.2267   12.0976   60.6282 H   0  0  0  0  0  0  0  0  0  0  0  0
   14.5487    9.6856   60.1471 H   0  0  0  0  0  0  0  0  0  0  0  0
   18.1180   10.5949   57.9435 H   0  0  0  0  0  0  0  0  0  0  0  0
   25.2400   11.3838   57.7414 H   0  0  0  0  0  0  0  0  0  0  0  0
   19.3824    7.5782   58.3787 H   0  0  0  0  0  0  0  0  0  0  0  0
   21.5298    5.1049   61.5518 H   0  0  0  0  0  0  0  0  0  0  0  0
   22.1786    6.7710   61.7242 H   0  0  0  0  0  0  0  0  0  0  0  0
   22.8616    5.6650   60.4845 H   0  0  0  0  0  0  0  0  0  0  0  0
   23.3593    7.7604   59.9812 H   0  0  0  0  0  0  0  0  0  0  0  0
   23.4981   12.2415   56.2000 H   0  0  0  0  0  0  0  0  0  0  0  0
   20.1687   10.6367   55.9897 H   0  0  0  0  0  0  0  0  0  0  0  0
   20.3855   12.2971   54.3333 H   0  0  0  0  0  0  0  0  0  0  0  0
   22.1204   12.4954   54.7545 H   0  0  0  0  0  0  0  0  0  0  0  0
   18.9508   16.4671   58.7503 H   0  0  0  0  0  0  0  0  0  0  0  0
   17.2915   14.8002   59.6190 H   0  0  0  0  0  0  0  0  0  0  0  0
   16.4929    8.9378   58.8040 H   0  0  0  0  0  0  0  0  0  0  0  0
  1  3  1  0  0  0  0
  1 23  1  0  0  0  0
  3  2  2  0  0  0  0
  3 26  1  0  0  0  0
  4  5  2  0  0  0  0
  4  8  1  0  0  0  0
  5  6  1  0  0  0  0
  5 30  1  0  0  0  0
  6  7  2  0  0  0  0
  6 31  1  0  0  0  0
  7 32  1  0  0  0  0
  8 29  2  0  0  0  0
  8 33  1  0  0  0  0
  9 11  2  0  0  0  0
  9 20  1  0  0  0  0
 10 19  1  0  0  0  0
 10 34  1  0  0  0  0
 11 17  1  0  0  0  0
 11 18  1  0  0  0  0
 12 15  1  0  0  0  0
 12 35  1  0  0  0  0
 13 36  1  0  0  0  0
 13 37  1  0  0  0  0
 13 38  1  0  0  0  0
 14 13  1  0  0  0  0
 15 14  1  0  0  0  0
 16 15  2  0  0  0  0
 16 39  1  0  0  0  0
 17 12  2  0  0  0  0
 18 16  1  0  0  0  0
 18 19  2  0  0  0  0
 20 10  2  0  0  0  0
 20 40  1  0  0  0  0
 21  9  1  0  0  0  0
 21 41  1  0  0  0  0
 22 21  1  0  0  0  0
 22 42  1  0  0  0  0
 22 43  1  0  0  0  0
 23 22  1  0  0  0  0
 23 25  2  0  0  0  0
 24  1  1  0  0  0  0
 24 28  2  0  0  0  0
 25  2  1  0  0  0  0
 26 27  2  0  0  0  0
 26 44  1  0  0  0  0
 27 28  1  0  0  0  0
 27 45  1  0  0  0  0
 28  4  1  0  0  0  0
 29  7  1  0  0  0  0
 29 46  1  0  0  0  0
M  END
