3i5r_ligand
 OpenBabel08222323343D

154157  0  0  1  0  0  0  0  0999 V2000
   -7.4700   31.2800   18.0240 N   0  3  0  0  0  0  0  0  0  0  0  0
   -6.6630   30.2320   17.4030 C   0  0  2  0  0  0  0  0  0  0  0  0
   -6.0300   29.3170   18.4530 C   0  0  0  0  0  0  0  0  0  0  0  0
   -5.6010   29.7690   19.5160 O   0  0  0  0  0  0  0  0  0  0  0  0
   -5.5700   30.8450   16.5260 C   0  0  0  0  0  0  0  0  0  0  0  0
   -6.0570   31.9420   15.5940 C   0  0  0  0  0  0  0  0  0  0  0  0
   -4.9970   33.0280   15.4210 C   0  0  0  0  0  0  0  0  0  0  0  0
   -3.7520   32.5110   14.7100 C   0  0  0  0  0  0  0  0  0  0  0  0
   -3.9440   32.4110   13.2400 N   0  3  0  0  0  0  0  0  0  0  0  0
   -5.9870   28.0240   18.1510 N   0  0  0  0  0  0  0  0  0  0  0  0
   -5.2820   27.0640   18.9840 C   0  0  2  0  0  0  0  0  0  0  0  0
   -3.8100   27.4450   19.0810 C   0  0  0  0  0  0  0  0  0  0  0  0
   -3.1680   27.6960   18.0680 O   0  0  0  0  0  0  0  0  0  0  0  0
   -5.4080   25.6730   18.3720 C   0  0  0  0  0  0  0  0  0  0  0  0
   -4.6670   24.5960   19.1250 C   0  0  0  0  0  0  0  0  0  0  0  0
   -4.8180   23.2740   18.4060 C   0  0  0  0  0  0  0  0  0  0  0  0
   -4.0690   22.2140   19.0770 N   0  0  0  0  0  0  0  0  0  0  0  0
   -3.8710   21.0100   18.5570 C   0  0  0  0  0  3  0  0  0  0  0  0
   -4.3640   20.7200   17.3540 N   0  0  0  0  0  0  0  0  0  0  0  0
   -3.1860   20.0940   19.2340 N   0  0  0  0  0  0  0  0  0  0  0  0
   -3.2710   27.5080   20.3090 N   0  0  0  0  0  0  0  0  0  0  0  0
   -1.8660   27.8710   20.4830 C   0  0  2  0  0  0  0  0  0  0  0  0
   -0.9360   26.8650   19.8110 C   0  0  0  0  0  0  0  0  0  0  0  0
   -1.2080   25.6700   19.8200 O   0  0  0  0  0  0  0  0  0  0  0  0
   -1.6790   27.8230   22.0090 C   0  0  0  0  0  0  0  0  0  0  0  0
   -2.8550   27.0350   22.5170 C   0  0  0  0  0  0  0  0  0  0  0  0
   -3.9650   27.4110   21.6020 C   0  0  0  0  0  0  0  0  0  0  0  0
    0.1560   27.3550   19.2420 N   0  0  0  0  0  0  0  0  0  0  0  0
    1.1680   26.4710   18.6660 C   0  0  2  0  0  0  0  0  0  0  0  0
    2.0740   25.9610   19.7610 C   0  0  0  0  0  0  0  0  0  0  0  0
    2.3770   26.6970   20.7070 O   0  0  0  0  0  0  0  0  0  0  0  0
    2.0320   27.2450   17.6990 C   0  0  0  0  0  0  0  0  0  0  0  0
    1.3390   27.5760   16.3830 C   0  0  0  0  0  0  0  0  0  0  0  0
    2.0890   28.6720   15.6640 C   0  0  0  0  0  0  0  0  0  0  0  0
    1.2680   26.3170   15.5430 C   0  0  0  0  0  0  0  0  0  0  0  0
    2.5420   24.7130   19.6320 N   0  0  0  0  0  0  0  0  0  0  0  0
    3.5360   24.2550   20.5990 C   0  0  2  0  0  0  0  0  0  0  0  0
    4.8800   24.8860   20.2450 C   0  0  0  0  0  0  0  0  0  0  0  0
    5.1050   25.2260   19.0900 O   0  0  0  0  0  0  0  0  0  0  0  0
    3.5530   22.7470   20.3590 C   0  0  0  0  0  0  0  0  0  0  0  0
    3.3550   22.6480   18.8860 C   0  0  0  0  0  0  0  0  0  0  0  0
    2.2580   23.6760   18.6210 C   0  0  0  0  0  0  0  0  0  0  0  0
    5.7570   25.0770   21.2380 N   0  0  0  0  0  0  0  0  0  0  0  0
    7.1130   25.5110   20.9230 C   0  0  2  0  0  0  0  0  0  0  0  0
    7.8280   24.4230   20.1210 C   0  0  0  0  0  0  0  0  0  0  0  0
    7.4410   23.2390   20.1790 O   0  0  0  0  0  0  0  0  0  0  0  0
    7.7610   25.6530   22.3070 C   0  0  0  0  0  0  0  0  0  0  0  0
    6.9630   24.7050   23.1650 C   0  0  0  0  0  0  0  0  0  0  0  0
    5.5620   24.9110   22.6870 C   0  0  0  0  0  0  0  0  0  0  0  0
    8.8370   24.8230   19.3530 N   0  0  0  0  0  0  0  0  0  0  0  0
    9.6830   23.8470   18.6810 C   0  0  2  0  0  0  0  0  0  0  0  0
   10.3790   22.9730   19.7130 C   0  0  0  0  0  0  0  0  0  0  0  0
   10.7020   23.4340   20.8130 O   0  0  0  0  0  0  0  0  0  0  0  0
   10.7250   24.5350   17.7990 C   0  0  0  0  0  0  0  0  0  0  0  0
   10.2160   25.3210   16.5980 C   0  0  0  0  0  0  0  0  0  0  0  0
   11.4180   25.9200   15.8670 C   0  0  0  0  0  0  0  0  0  0  0  0
    9.3590   24.4640   15.6780 C   0  0  0  0  0  0  0  0  0  0  0  0
   10.6040   21.6970   19.3710 N   0  0  0  0  0  0  0  0  0  0  0  0
   11.2830   20.7940   20.3060 C   0  0  2  0  0  0  0  0  0  0  0  0
   12.7700   21.1010   20.3310 C   0  0  0  0  0  0  0  0  0  0  0  0
   13.2490   21.8560   19.4760 O   0  0  0  0  0  0  0  0  0  0  0  0
   11.0500   19.4100   19.6870 C   0  0  0  0  0  0  0  0  0  0  0  0
   10.8400   19.6960   18.2300 C   0  0  0  0  0  0  0  0  0  0  0  0
   10.0460   20.9670   18.2230 C   0  0  0  0  0  0  0  0  0  0  0  0
   13.4740   20.4990   21.2850 N   0  0  0  0  0  0  0  0  0  0  0  0
   14.8960   20.7430   21.5130 C   0  0  2  0  0  0  0  0  0  0  0  0
   15.0840   21.9400   22.4380 C   0  0  0  0  0  0  0  0  0  0  0  0
   15.9190   21.9120   23.3360 O   0  5  0  0  0  0  0  0  0  0  0  0
   15.6520   20.9480   20.1950 C   0  0  0  0  0  0  0  0  0  0  0  0
   17.0010   21.3250   20.4220 O   0  0  0  0  0  0  0  0  0  0  0  0
   14.4030   22.9510   22.3000 O   0  0  0  0  0  0  0  0  0  0  0  0
   -7.8718   31.8638   17.3072 H   0  0  0  0  0  0  0  0  0  0  0  0
   -6.8874   31.8403   18.6262 H   0  0  0  0  0  0  0  0  0  0  0  0
   -8.2076   30.8589   18.5669 H   0  0  0  0  0  0  0  0  0  0  0  0
   -7.3219   29.6237   16.7659 H   0  0  0  0  0  0  0  0  0  0  0  0
   -5.1296   30.0439   15.9143 H   0  0  0  0  0  0  0  0  0  0  0  0
   -4.7982   31.2701   17.1844 H   0  0  0  0  0  0  0  0  0  0  0  0
   -6.9677   32.3929   16.0150 H   0  0  0  0  0  0  0  0  0  0  0  0
   -6.2854   31.5034   14.6115 H   0  0  0  0  0  0  0  0  0  0  0  0
   -4.7078   33.4019   16.4143 H   0  0  0  0  0  0  0  0  0  0  0  0
   -5.4261   33.8506   14.8302 H   0  0  0  0  0  0  0  0  0  0  0  0
   -3.5082   31.5133   15.1037 H   0  0  0  0  0  0  0  0  0  0  0  0
   -2.9177   33.1989   14.9119 H   0  0  0  0  0  0  0  0  0  0  0  0
   -3.0983   32.0662   12.8134 H   0  0  0  0  0  0  0  0  0  0  0  0
   -4.1614   33.3218   12.8668 H   0  0  0  0  0  0  0  0  0  0  0  0
   -4.7025   31.7771   13.0425 H   0  0  0  0  0  0  0  0  0  0  0  0
   -6.4531   27.7020   17.3269 H   0  0  0  0  0  0  0  0  0  0  0  0
   -5.7244   27.0616   19.9911 H   0  0  0  0  0  0  0  0  0  0  0  0
   -5.0129   25.7105   17.3461 H   0  0  0  0  0  0  0  0  0  0  0  0
   -6.4741   25.4035   18.3448 H   0  0  0  0  0  0  0  0  0  0  0  0
   -5.0810   24.5091   20.1404 H   0  0  0  0  0  0  0  0  0  0  0  0
   -3.6008   24.8596   19.1850 H   0  0  0  0  0  0  0  0  0  0  0  0
   -4.4432   23.3811   17.3774 H   0  0  0  0  0  0  0  0  0  0  0  0
   -5.8829   22.9994   18.3815 H   0  0  0  0  0  0  0  0  0  0  0  0
   -3.6723   22.4130   20.0065 H   0  0  0  0  0  0  0  0  0  0  0  0
   -4.2124   19.7862   16.9467 H   0  0  0  0  0  0  0  0  0  0  0  0
   -4.8968   21.4296   16.8310 H   0  0  0  0  0  0  0  0  0  0  0  0
   -2.8051   20.3190   20.1642 H   0  0  0  0  0  0  0  0  0  0  0  0
   -3.0361   19.1591   18.8285 H   0  0  0  0  0  0  0  0  0  0  0  0
   -1.6679   28.8781   20.0875 H   0  0  0  0  0  0  0  0  0  0  0  0
   -1.6817   28.8386   22.4316 H   0  0  0  0  0  0  0  0  0  0  0  0
   -0.7353   27.3206   22.2679 H   0  0  0  0  0  0  0  0  0  0  0  0
   -3.0928   27.3130   23.5544 H   0  0  0  0  0  0  0  0  0  0  0  0
   -2.6538   25.9549   22.4638 H   0  0  0  0  0  0  0  0  0  0  0  0
   -4.7456   26.6363   21.5802 H   0  0  0  0  0  0  0  0  0  0  0  0
   -4.4120   28.3740   21.8896 H   0  0  0  0  0  0  0  0  0  0  0  0
    0.2899   28.3453   19.2061 H   0  0  0  0  0  0  0  0  0  0  0  0
    0.6793   25.6304   18.1517 H   0  0  0  0  0  0  0  0  0  0  0  0
    2.9275   26.6456   17.4780 H   0  0  0  0  0  0  0  0  0  0  0  0
    2.3314   28.1880   18.1798 H   0  0  0  0  0  0  0  0  0  0  0  0
    0.3169   27.9257   16.5902 H   0  0  0  0  0  0  0  0  0  0  0  0
    1.5809   28.9031   14.7162 H   0  0  0  0  0  0  0  0  0  0  0  0
    3.1166   28.3385   15.4573 H   0  0  0  0  0  0  0  0  0  0  0  0
    2.1157   29.5728   16.2948 H   0  0  0  0  0  0  0  0  0  0  0  0
    0.7171   25.5398   16.0930 H   0  0  0  0  0  0  0  0  0  0  0  0
    2.2866   25.9617   15.3280 H   0  0  0  0  0  0  0  0  0  0  0  0
    0.7487   26.5353   14.5982 H   0  0  0  0  0  0  0  0  0  0  0  0
    3.2557   24.4996   21.6342 H   0  0  0  0  0  0  0  0  0  0  0  0
    2.7368   22.2494   20.9033 H   0  0  0  0  0  0  0  0  0  0  0  0
    4.5156   22.3082   20.6602 H   0  0  0  0  0  0  0  0  0  0  0  0
    3.0291   21.6379   18.5972 H   0  0  0  0  0  0  0  0  0  0  0  0
    4.2773   22.9046   18.3443 H   0  0  0  0  0  0  0  0  0  0  0  0
    2.3325   24.0832   17.6019 H   0  0  0  0  0  0  0  0  0  0  0  0
    1.2595   23.2390   18.7692 H   0  0  0  0  0  0  0  0  0  0  0  0
    7.1197   26.4621   20.3705 H   0  0  0  0  0  0  0  0  0  0  0  0
    7.6762   26.6853   22.6773 H   0  0  0  0  0  0  0  0  0  0  0  0
    8.8208   25.3599   22.2774 H   0  0  0  0  0  0  0  0  0  0  0  0
    7.0582   24.9616   24.2304 H   0  0  0  0  0  0  0  0  0  0  0  0
    7.2846   23.6648   23.0081 H   0  0  0  0  0  0  0  0  0  0  0  0
    4.9313   24.0374   22.9083 H   0  0  0  0  0  0  0  0  0  0  0  0
    5.1142   25.8098   23.1360 H   0  0  0  0  0  0  0  0  0  0  0  0
    9.0159   25.7999   19.2363 H   0  0  0  0  0  0  0  0  0  0  0  0
    9.0492   23.2114   18.0451 H   0  0  0  0  0  0  0  0  0  0  0  0
   11.4032   23.7561   17.4204 H   0  0  0  0  0  0  0  0  0  0  0  0
   11.2877   25.2332   18.4361 H   0  0  0  0  0  0  0  0  0  0  0  0
    9.5881   26.1461   16.9654 H   0  0  0  0  0  0  0  0  0  0  0  0
   11.0688   26.4924   14.9949 H   0  0  0  0  0  0  0  0  0  0  0  0
   12.0838   25.1111   15.5319 H   0  0  0  0  0  0  0  0  0  0  0  0
   11.9660   26.5876   16.5482 H   0  0  0  0  0  0  0  0  0  0  0  0
    8.5091   24.0552   16.2442 H   0  0  0  0  0  0  0  0  0  0  0  0
    9.9644   23.6375   15.2776 H   0  0  0  0  0  0  0  0  0  0  0  0
    8.9839   25.0798   14.8473 H   0  0  0  0  0  0  0  0  0  0  0  0
   10.8599   20.8636   21.3190 H   0  0  0  0  0  0  0  0  0  0  0  0
   10.1613   18.9308   20.1236 H   0  0  0  0  0  0  0  0  0  0  0  0
   11.9264   18.7622   19.8361 H   0  0  0  0  0  0  0  0  0  0  0  0
   10.2792   18.8816   17.7481 H   0  0  0  0  0  0  0  0  0  0  0  0
   11.8025   19.8330   17.7153 H   0  0  0  0  0  0  0  0  0  0  0  0
   10.1960   21.5242   17.2865 H   0  0  0  0  0  0  0  0  0  0  0  0
    8.9735   20.7665   18.3626 H   0  0  0  0  0  0  0  0  0  0  0  0
   13.0050   19.8444   21.8779 H   0  0  0  0  0  0  0  0  0  0  0  0
   15.3176   19.8567   22.0097 H   0  0  0  0  0  0  0  0  0  0  0  0
   15.1527   21.7387   19.6158 H   0  0  0  0  0  0  0  0  0  0  0  0
   15.6350   20.0084   19.6234 H   0  0  0  0  0  0  0  0  0  0  0  0
   17.4401   21.4438   19.5880 H   0  0  0  0  0  0  0  0  0  0  0  0
  1  2  1  0  0  0  0
  1 72  1  0  0  0  0
  1 73  1  0  0  0  0
  1 74  1  0  0  0  0
  2  3  1  0  0  0  0
  2  5  1  0  0  0  0
  2 75  1  6  0  0  0
  3  4  2  0  0  0  0
  3 10  1  0  0  0  0
  5  6  1  0  0  0  0
  5 76  1  0  0  0  0
  5 77  1  0  0  0  0
  6  7  1  0  0  0  0
  6 78  1  0  0  0  0
  6 79  1  0  0  0  0
  7  8  1  0  0  0  0
  7 80  1  0  0  0  0
  7 81  1  0  0  0  0
  8  9  1  0  0  0  0
  8 82  1  0  0  0  0
  8 83  1  0  0  0  0
  9 84  1  0  0  0  0
  9 85  1  0  0  0  0
  9 86  1  0  0  0  0
 10 11  1  0  0  0  0
 10 87  1  0  0  0  0
 11 12  1  0  0  0  0
 11 14  1  0  0  0  0
 11 88  1  1  0  0  0
 12 13  2  0  0  0  0
 12 21  1  0  0  0  0
 14 15  1  0  0  0  0
 14 89  1  0  0  0  0
 14 90  1  0  0  0  0
 15 16  1  0  0  0  0
 15 91  1  0  0  0  0
 15 92  1  0  0  0  0
 16 17  1  0  0  0  0
 16 93  1  0  0  0  0
 16 94  1  0  0  0  0
 17 18  1  0  0  0  0
 17 95  1  0  0  0  0
 18 19  1  0  0  0  0
 18 20  1  0  0  0  0
 19 96  1  0  0  0  0
 19 97  1  0  0  0  0
 20 98  1  0  0  0  0
 20 99  1  0  0  0  0
 21 22  1  0  0  0  0
 21 27  1  0  0  0  0
 22 23  1  0  0  0  0
 22 25  1  0  0  0  0
 22100  1  6  0  0  0
 23 24  2  0  0  0  0
 23 28  1  0  0  0  0
 25 26  1  0  0  0  0
 25101  1  0  0  0  0
 25102  1  0  0  0  0
 26 27  1  0  0  0  0
 26103  1  0  0  0  0
 26104  1  0  0  0  0
 27105  1  0  0  0  0
 27106  1  0  0  0  0
 28 29  1  0  0  0  0
 28107  1  0  0  0  0
 29 30  1  0  0  0  0
 29 32  1  0  0  0  0
 29108  1  6  0  0  0
 30 31  2  0  0  0  0
 30 36  1  0  0  0  0
 32 33  1  0  0  0  0
 32109  1  0  0  0  0
 32110  1  0  0  0  0
 33 34  1  0  0  0  0
 33 35  1  0  0  0  0
 33111  1  0  0  0  0
 34112  1  0  0  0  0
 34113  1  0  0  0  0
 34114  1  0  0  0  0
 35115  1  0  0  0  0
 35116  1  0  0  0  0
 35117  1  0  0  0  0
 36 37  1  0  0  0  0
 36 42  1  0  0  0  0
 37 38  1  0  0  0  0
 37 40  1  0  0  0  0
 37118  1  1  0  0  0
 38 39  2  0  0  0  0
 38 43  1  0  0  0  0
 40 41  1  0  0  0  0
 40119  1  0  0  0  0
 40120  1  0  0  0  0
 41 42  1  0  0  0  0
 41121  1  0  0  0  0
 41122  1  0  0  0  0
 42123  1  0  0  0  0
 42124  1  0  0  0  0
 43 44  1  0  0  0  0
 43 49  1  0  0  0  0
 44 45  1  0  0  0  0
 44 47  1  0  0  0  0
 44125  1  6  0  0  0
 45 46  2  0  0  0  0
 45 50  1  0  0  0  0
 47 48  1  0  0  0  0
 47126  1  0  0  0  0
 47127  1  0  0  0  0
 48 49  1  0  0  0  0
 48128  1  0  0  0  0
 48129  1  0  0  0  0
 49130  1  0  0  0  0
 49131  1  0  0  0  0
 50 51  1  0  0  0  0
 50132  1  0  0  0  0
 51 52  1  0  0  0  0
 51 54  1  0  0  0  0
 51133  1  6  0  0  0
 52 53  2  0  0  0  0
 52 58  1  0  0  0  0
 54 55  1  0  0  0  0
 54134  1  0  0  0  0
 54135  1  0  0  0  0
 55 56  1  0  0  0  0
 55 57  1  0  0  0  0
 55136  1  0  0  0  0
 56137  1  0  0  0  0
 56138  1  0  0  0  0
 56139  1  0  0  0  0
 57140  1  0  0  0  0
 57141  1  0  0  0  0
 57142  1  0  0  0  0
 58 59  1  0  0  0  0
 58 64  1  0  0  0  0
 59 60  1  0  0  0  0
 59 62  1  0  0  0  0
 59143  1  1  0  0  0
 60 61  2  0  0  0  0
 60 65  1  0  0  0  0
 62 63  1  0  0  0  0
 62144  1  0  0  0  0
 62145  1  0  0  0  0
 63 64  1  0  0  0  0
 63146  1  0  0  0  0
 63147  1  0  0  0  0
 64148  1  0  0  0  0
 64149  1  0  0  0  0
 65 66  1  0  0  0  0
 65150  1  0  0  0  0
 66 67  1  0  0  0  0
 66 69  1  0  0  0  0
 66151  1  1  0  0  0
 67 68  1  0  0  0  0
 67 71  2  0  0  0  0
 69 70  1  0  0  0  0
 69152  1  0  0  0  0
 69153  1  0  0  0  0
 70154  1  0  0  0  0
M  CHG  3   1   1   9   1  68  -1
M  END
