3i7c_ligand
 OpenBabel08222323343D

 43 46  0  0  0  0  0  0  0  0999 V2000
   16.6060   11.6710   62.8010 N   0  0  0  0  0  0  0  0  0  0  0  0
   17.7100   12.2850   62.3630 C   0  0  0  0  0  0  0  0  0  0  0  0
   17.7650   13.6030   62.1870 N   0  0  0  0  0  0  0  0  0  0  0  0
   16.6960   14.3720   62.4450 C   0  0  0  0  0  0  0  0  0  0  0  0
   15.5260   13.7820   62.9080 C   0  0  0  0  0  0  0  0  0  0  0  0
   15.5020   12.3940   63.0800 C   0  0  0  0  0  0  0  0  0  0  0  0
   16.7600   18.0930   61.9030 C   0  0  0  0  0  0  0  0  0  0  0  0
   18.6610   16.7270   62.8320 C   0  0  0  0  0  0  0  0  0  0  0  0
   17.8690   16.3850   60.4740 C   0  0  0  0  0  0  0  0  0  0  0  0
   14.4220   11.7620   63.5050 N   0  0  0  0  0  0  0  0  0  0  0  0
    8.9110   14.4790   65.8550 C   0  0  0  0  0  0  0  0  0  0  0  0
    9.8370   13.7940   66.6360 C   0  0  0  0  0  0  0  0  0  0  0  0
   12.4010   15.5520   62.7740 C   0  0  0  0  0  0  0  0  0  0  0  0
    9.3360   15.0990   64.6860 C   0  0  0  0  0  0  0  0  0  0  0  0
   11.1790   13.7060   66.2680 C   0  0  0  0  0  0  0  0  0  0  0  0
   11.0770   15.6250   63.1640 C   0  0  0  0  0  0  0  0  0  0  0  0
   12.9410   14.2490   64.7210 C   0  0  0  0  0  0  0  0  0  0  0  0
   15.3100   15.9630   62.7210 N   0  0  0  0  0  0  0  0  0  0  0  0
   13.3390   14.8520   63.5260 C   0  0  0  0  0  0  0  0  0  0  0  0
   14.6540   14.8630   63.0770 C   0  0  0  0  0  0  0  0  0  0  0  0
   10.6700   15.0140   64.3240 C   0  0  0  0  0  0  0  0  0  0  0  0
   11.6050   14.3260   65.1100 C   0  0  0  0  0  0  0  0  0  0  0  0
   16.4640   15.6890   62.3740 N   0  0  0  0  0  0  0  0  0  0  0  0
   17.4460   16.7230   61.9080 C   0  0  0  0  0  0  0  0  0  0  0  0
   18.5891   11.6897   62.1441 H   0  0  0  0  0  0  0  0  0  0  0  0
   17.4726   18.8586   61.5624 H   0  0  0  0  0  0  0  0  0  0  0  0
   16.4190   18.3361   62.9202 H   0  0  0  0  0  0  0  0  0  0  0  0
   15.8959   18.0679   61.2228 H   0  0  0  0  0  0  0  0  0  0  0  0
   19.1352   15.7346   62.8184 H   0  0  0  0  0  0  0  0  0  0  0  0
   18.3415   16.9666   63.8569 H   0  0  0  0  0  0  0  0  0  0  0  0
   19.3819   17.4826   62.4866 H   0  0  0  0  0  0  0  0  0  0  0  0
   16.9839   16.3859   59.8208 H   0  0  0  0  0  0  0  0  0  0  0  0
   18.3378   15.3901   60.4548 H   0  0  0  0  0  0  0  0  0  0  0  0
   18.5888   17.1364   60.1172 H   0  0  0  0  0  0  0  0  0  0  0  0
   13.5672   12.2932   63.7243 H   0  0  0  0  0  0  0  0  0  0  0  0
   14.4350   10.7382   63.6170 H   0  0  0  0  0  0  0  0  0  0  0  0
    7.8705   14.5284   66.1549 H   0  0  0  0  0  0  0  0  0  0  0  0
    9.5072   13.3176   67.5521 H   0  0  0  0  0  0  0  0  0  0  0  0
   12.7148   16.0502   61.8639 H   0  0  0  0  0  0  0  0  0  0  0  0
    8.6323   15.6421   64.0656 H   0  0  0  0  0  0  0  0  0  0  0  0
   11.8809   13.1564   66.8847 H   0  0  0  0  0  0  0  0  0  0  0  0
   10.3608   16.1641   62.5546 H   0  0  0  0  0  0  0  0  0  0  0  0
   13.6628   13.7271   65.3388 H   0  0  0  0  0  0  0  0  0  0  0  0
  2  1  2  0  0  0  0
  2 25  1  0  0  0  0
  3  2  1  0  0  0  0
  4  3  2  0  0  0  0
  4  5  1  0  0  0  0
  5  6  2  0  0  0  0
  6  1  1  0  0  0  0
  6 10  1  0  0  0  0
  7 26  1  0  0  0  0
  7 27  1  0  0  0  0
  7 28  1  0  0  0  0
  8 29  1  0  0  0  0
  8 30  1  0  0  0  0
  8 31  1  0  0  0  0
  9 32  1  0  0  0  0
  9 33  1  0  0  0  0
  9 34  1  0  0  0  0
 10 35  1  0  0  0  0
 10 36  1  0  0  0  0
 11 37  1  0  0  0  0
 12 11  2  0  0  0  0
 12 38  1  0  0  0  0
 13 16  2  0  0  0  0
 13 39  1  0  0  0  0
 14 11  1  0  0  0  0
 14 40  1  0  0  0  0
 15 12  1  0  0  0  0
 15 41  1  0  0  0  0
 16 21  1  0  0  0  0
 16 42  1  0  0  0  0
 17 22  1  0  0  0  0
 17 43  1  0  0  0  0
 18 20  2  0  0  0  0
 19 13  1  0  0  0  0
 19 17  2  0  0  0  0
 20  5  1  0  0  0  0
 20 19  1  0  0  0  0
 21 14  2  0  0  0  0
 22 15  2  0  0  0  0
 22 21  1  0  0  0  0
 23  4  1  0  0  0  0
 23 18  1  0  0  0  0
 23 24  1  0  0  0  0
 24  7  1  0  0  0  0
 24  8  1  0  0  0  0
 24  9  1  0  0  0  0
M  END
