3i7g_ligand
 OpenBabel08222323343D

 49 51  0  0  1  0  0  0  0  0999 V2000
   -8.4590   26.5590   51.5890 C   0  0  0  0  0  0  0  0  0  0  0  0
   -7.3710   27.2600   52.0850 C   0  0  0  0  0  0  0  0  0  0  0  0
   -6.7270   28.1890   51.2790 C   0  0  0  0  0  0  0  0  0  0  0  0
   -7.1790   28.4200   49.9900 C   0  0  0  0  0  0  0  0  0  0  0  0
   -8.2650   27.7160   49.5100 C   0  0  0  0  0  0  0  0  0  0  0  0
   -8.9080   26.7910   50.3090 C   0  0  0  0  0  0  0  0  0  0  0  0
   -6.8940   27.0290   53.4540 C   0  0  0  0  0  0  0  0  0  0  0  0
   -8.8490   27.9920   47.9060 Cl  0  0  0  0  0  0  0  0  0  0  0  0
   -6.7010   25.8480   54.1300 C   0  0  0  0  0  0  0  0  0  0  0  0
   -6.1360   26.1780   55.3780 C   0  0  0  0  0  0  0  0  0  0  0  0
   -6.2220   27.5510   55.4750 C   0  0  0  0  0  0  0  0  0  0  0  0
   -6.6190   28.0270   54.2870 O   0  0  0  0  0  0  0  0  0  0  0  0
   -6.0240   28.4680   56.5890 C   0  0  0  0  0  0  0  0  0  0  0  0
   -5.6190   28.1520   57.7110 O   0  0  0  0  0  0  0  0  0  0  0  0
   -6.3620   29.7190   56.2060 N   0  0  0  0  0  0  0  0  0  0  0  0
   -6.3750   30.9430   56.9880 C   0  0  1  0  0  0  0  0  0  0  0  0
   -5.1070   31.7480   56.6810 C   0  0  0  0  0  0  0  0  0  0  0  0
   -7.6530   31.6220   56.5350 C   0  0  0  0  0  0  0  0  0  0  0  0
   -7.8640   31.8920   55.3500 O   0  0  0  0  0  0  0  0  0  0  0  0
   -8.5980   31.8840   57.4610 N   0  0  0  0  0  0  0  0  0  0  0  0
   -9.8590   32.5210   57.0520 C   0  0  0  0  0  0  0  0  0  0  0  0
   -5.4230   33.2420   56.5690 C   0  0  0  0  0  0  0  0  0  0  0  0
   -4.1290   34.0070   56.2850 C   0  0  0  0  0  0  0  0  0  0  0  0
   -3.1640   33.8010   57.4540 C   0  0  0  0  0  0  0  0  0  0  0  0
   -2.8220   32.3130   57.6040 C   0  0  0  0  0  0  0  0  0  0  0  0
   -4.1030   31.5010   57.8200 C   0  0  0  0  0  0  0  0  0  0  0  0
   -8.9581   25.8253   52.2116 H   0  0  0  0  0  0  0  0  0  0  0  0
   -5.8701   28.7338   51.6584 H   0  0  0  0  0  0  0  0  0  0  0  0
   -6.6822   29.1501   49.3613 H   0  0  0  0  0  0  0  0  0  0  0  0
   -9.7656   26.2482   49.9282 H   0  0  0  0  0  0  0  0  0  0  0  0
   -6.9392   24.8482   53.7699 H   0  0  0  0  0  0  0  0  0  0  0  0
   -5.7183   25.4916   56.1130 H   0  0  0  0  0  0  0  0  0  0  0  0
   -6.6423   29.8156   55.2510 H   0  0  0  0  0  0  0  0  0  0  0  0
   -6.4158   30.7293   58.0663 H   0  0  0  0  0  0  0  0  0  0  0  0
   -4.6762   31.4021   55.7298 H   0  0  0  0  0  0  0  0  0  0  0  0
   -8.4422   31.6466   58.4198 H   0  0  0  0  0  0  0  0  0  0  0  0
  -10.5039   32.6563   57.9328 H   0  0  0  0  0  0  0  0  0  0  0  0
  -10.3711   31.8823   56.3173 H   0  0  0  0  0  0  0  0  0  0  0  0
   -9.6452   33.5008   56.6001 H   0  0  0  0  0  0  0  0  0  0  0  0
   -5.8615   33.5976   57.5130 H   0  0  0  0  0  0  0  0  0  0  0  0
   -6.1363   33.4072   55.7481 H   0  0  0  0  0  0  0  0  0  0  0  0
   -4.3506   35.0787   56.1738 H   0  0  0  0  0  0  0  0  0  0  0  0
   -3.6724   33.6289   55.3585 H   0  0  0  0  0  0  0  0  0  0  0  0
   -3.6344   34.1607   58.3810 H   0  0  0  0  0  0  0  0  0  0  0  0
   -2.2406   34.3688   57.2671 H   0  0  0  0  0  0  0  0  0  0  0  0
   -2.1548   32.1777   58.4680 H   0  0  0  0  0  0  0  0  0  0  0  0
   -2.3171   31.9614   56.6922 H   0  0  0  0  0  0  0  0  0  0  0  0
   -3.8502   30.4309   57.8518 H   0  0  0  0  0  0  0  0  0  0  0  0
   -4.5611   31.7981   58.7749 H   0  0  0  0  0  0  0  0  0  0  0  0
  1  2  2  0  0  0  0
  1  6  1  0  0  0  0
  1 27  1  0  0  0  0
  2  3  1  0  0  0  0
  2  7  1  0  0  0  0
  3  4  2  0  0  0  0
  3 28  1  0  0  0  0
  4  5  1  0  0  0  0
  4 29  1  0  0  0  0
  5  6  2  0  0  0  0
  5  8  1  0  0  0  0
  6 30  1  0  0  0  0
  7  9  2  0  0  0  0
  7 12  1  0  0  0  0
  9 10  1  0  0  0  0
  9 31  1  0  0  0  0
 10 11  2  0  0  0  0
 10 32  1  0  0  0  0
 11 12  1  0  0  0  0
 11 13  1  0  0  0  0
 13 14  2  0  0  0  0
 13 15  1  0  0  0  0
 15 16  1  0  0  0  0
 15 33  1  0  0  0  0
 16 17  1  0  0  0  0
 16 18  1  0  0  0  0
 16 34  1  1  0  0  0
 17 22  1  0  0  0  0
 17 26  1  0  0  0  0
 17 35  1  0  0  0  0
 18 19  2  0  0  0  0
 18 20  1  0  0  0  0
 20 21  1  0  0  0  0
 20 36  1  0  0  0  0
 21 37  1  0  0  0  0
 21 38  1  0  0  0  0
 21 39  1  0  0  0  0
 22 23  1  0  0  0  0
 22 40  1  0  0  0  0
 22 41  1  0  0  0  0
 23 24  1  0  0  0  0
 23 42  1  0  0  0  0
 23 43  1  0  0  0  0
 24 25  1  0  0  0  0
 24 44  1  0  0  0  0
 24 45  1  0  0  0  0
 25 26  1  0  0  0  0
 25 46  1  0  0  0  0
 25 47  1  0  0  0  0
 26 48  1  0  0  0  0
 26 49  1  0  0  0  0
M  END
