3i7i_ligand
 OpenBabel08222323343D

 66 70  0  0  1  0  0  0  0  0999 V2000
   -8.5440   26.9610   49.2520 C   0  0  0  0  0  0  0  0  0  0  0  0
   -8.8220   25.8610   50.0530 C   0  0  0  0  0  0  0  0  0  0  0  0
   -8.3350   25.7940   51.3350 C   0  0  0  0  0  0  0  0  0  0  0  0
   -7.5650   26.8310   51.8570 C   0  0  0  0  0  0  0  0  0  0  0  0
   -7.2570   27.9220   51.0470 C   0  0  0  0  0  0  0  0  0  0  0  0
   -7.7530   27.9930   49.7570 C   0  0  0  0  0  0  0  0  0  0  0  0
   -7.0150   26.7130   53.2230 C   0  0  0  0  0  0  0  0  0  0  0  0
   -6.5040   25.5630   53.7700 C   0  0  0  0  0  0  0  0  0  0  0  0
   -6.0730   25.8510   55.0730 C   0  0  0  0  0  0  0  0  0  0  0  0
   -6.3440   27.1790   55.2560 C   0  0  0  0  0  0  0  0  0  0  0  0
   -6.9110   27.6780   54.1380 O   0  0  0  0  0  0  0  0  0  0  0  0
   -6.1160   28.0040   56.4250 C   0  0  0  0  0  0  0  0  0  0  0  0
   -5.6910   27.5660   57.4790 O   0  0  0  0  0  0  0  0  0  0  0  0
   -6.4510   29.2820   56.1930 N   0  0  0  0  0  0  0  0  0  0  0  0
   -6.3990   30.4090   57.1000 C   0  0  2  0  0  0  0  0  0  0  0  0
   -7.7810   30.9860   56.8990 C   0  0  0  0  0  0  0  0  0  0  0  0
   -5.2760   31.2760   56.5140 C   0  0  0  0  0  0  0  0  0  0  0  0
   -8.5140   31.3930   57.9510 N   0  0  0  0  0  0  0  0  0  0  0  0
   -8.2680   31.0550   55.7830 O   0  0  0  0  0  0  0  0  0  0  0  0
   -9.0370   26.9700   47.9430 N   0  0  0  0  0  0  0  0  0  0  0  0
   -9.8600   31.9290   57.7410 C   0  0  0  0  0  0  0  0  0  0  0  0
   -5.7390   32.6500   56.0210 C   0  0  0  0  0  0  0  0  0  0  0  0
   -4.6170   33.1710   55.1200 C   0  0  0  0  0  0  0  0  0  0  0  0
   -3.2900   33.2580   55.8910 C   0  0  0  0  0  0  0  0  0  0  0  0
   -2.9360   31.9560   56.6260 C   0  0  0  0  0  0  0  0  0  0  0  0
   -4.1160   31.4910   57.4890 C   0  0  0  0  0  0  0  0  0  0  0  0
  -10.0850   27.6600   47.4870 C   0  0  0  0  0  0  0  0  0  0  0  0
  -10.4290   27.4960   46.0620 C   0  0  0  0  0  0  0  0  0  0  0  0
  -10.7360   28.3510   48.2430 O   0  0  0  0  0  0  0  0  0  0  0  0
   -9.5890   27.7160   45.0240 O   0  0  0  0  0  0  0  0  0  0  0  0
  -11.6380   27.0830   45.5880 C   0  0  0  0  0  0  0  0  0  0  0  0
  -11.5220   27.0520   44.1260 C   0  0  0  0  0  0  0  0  0  0  0  0
  -10.2020   27.4640   43.8450 C   0  0  0  0  0  0  0  0  0  0  0  0
   -9.8000   27.5350   42.5180 C   0  0  0  0  0  0  0  0  0  0  0  0
  -10.6790   27.2040   41.5010 C   0  0  0  0  0  0  0  0  0  0  0  0
  -11.9770   26.7950   41.7740 C   0  0  0  0  0  0  0  0  0  0  0  0
  -12.3940   26.7180   43.0750 C   0  0  0  0  0  0  0  0  0  0  0  0
   -9.4272   25.0503   49.6636 H   0  0  0  0  0  0  0  0  0  0  0  0
   -8.5518   24.9258   51.9469 H   0  0  0  0  0  0  0  0  0  0  0  0
   -6.6270   28.7175   51.4284 H   0  0  0  0  0  0  0  0  0  0  0  0
   -7.5262   28.8530   49.1373 H   0  0  0  0  0  0  0  0  0  0  0  0
   -6.4436   24.5938   53.2772 H   0  0  0  0  0  0  0  0  0  0  0  0
   -5.6196   25.1643   55.7863 H   0  0  0  0  0  0  0  0  0  0  0  0
   -6.7806   29.4830   55.2705 H   0  0  0  0  0  0  0  0  0  0  0  0
   -6.2053   30.1439   58.1498 H   0  0  0  0  0  0  0  0  0  0  0  0
   -4.8829   30.7296   55.6440 H   0  0  0  0  0  0  0  0  0  0  0  0
   -8.1396   31.3294   58.8761 H   0  0  0  0  0  0  0  0  0  0  0  0
   -8.5536   26.3996   47.2789 H   0  0  0  0  0  0  0  0  0  0  0  0
  -10.2995   32.2065   58.7105 H   0  0  0  0  0  0  0  0  0  0  0  0
  -10.4878   31.1651   57.2590 H   0  0  0  0  0  0  0  0  0  0  0  0
   -9.8041   32.8182   57.0959 H   0  0  0  0  0  0  0  0  0  0  0  0
   -5.8936   33.3299   56.8718 H   0  0  0  0  0  0  0  0  0  0  0  0
   -6.6753   32.5568   55.4513 H   0  0  0  0  0  0  0  0  0  0  0  0
   -4.8860   34.1721   54.7521 H   0  0  0  0  0  0  0  0  0  0  0  0
   -4.4936   32.4878   54.2668 H   0  0  0  0  0  0  0  0  0  0  0  0
   -3.3670   34.0683   56.6309 H   0  0  0  0  0  0  0  0  0  0  0  0
   -2.4847   33.4879   55.1778 H   0  0  0  0  0  0  0  0  0  0  0  0
   -2.0619   32.1299   57.2707 H   0  0  0  0  0  0  0  0  0  0  0  0
   -2.6977   31.1763   55.8876 H   0  0  0  0  0  0  0  0  0  0  0  0
   -3.8682   30.5516   58.0049 H   0  0  0  0  0  0  0  0  0  0  0  0
   -4.3755   32.2598   58.2317 H   0  0  0  0  0  0  0  0  0  0  0  0
  -12.5167   26.8266   46.1780 H   0  0  0  0  0  0  0  0  0  0  0  0
   -8.7917   27.8515   42.2768 H   0  0  0  0  0  0  0  0  0  0  0  0
  -10.3470   27.2655   40.4709 H   0  0  0  0  0  0  0  0  0  0  0  0
  -12.6527   26.5395   40.9658 H   0  0  0  0  0  0  0  0  0  0  0  0
  -13.4052   26.3968   43.2971 H   0  0  0  0  0  0  0  0  0  0  0  0
  1  2  2  0  0  0  0
  1  6  1  0  0  0  0
  1 20  1  0  0  0  0
  2  3  1  0  0  0  0
  2 38  1  0  0  0  0
  3  4  2  0  0  0  0
  3 39  1  0  0  0  0
  4  5  1  0  0  0  0
  4  7  1  0  0  0  0
  5  6  2  0  0  0  0
  5 40  1  0  0  0  0
  6 41  1  0  0  0  0
  7  8  2  0  0  0  0
  7 11  1  0  0  0  0
  8  9  1  0  0  0  0
  8 42  1  0  0  0  0
  9 10  2  0  0  0  0
  9 43  1  0  0  0  0
 10 11  1  0  0  0  0
 10 12  1  0  0  0  0
 12 13  2  0  0  0  0
 12 14  1  0  0  0  0
 14 15  1  0  0  0  0
 14 44  1  0  0  0  0
 15 16  1  0  0  0  0
 15 17  1  0  0  0  0
 15 45  1  1  0  0  0
 16 18  1  0  0  0  0
 16 19  2  0  0  0  0
 17 22  1  0  0  0  0
 17 26  1  0  0  0  0
 17 46  1  0  0  0  0
 18 21  1  0  0  0  0
 18 47  1  0  0  0  0
 20 27  1  0  0  0  0
 20 48  1  0  0  0  0
 21 49  1  0  0  0  0
 21 50  1  0  0  0  0
 21 51  1  0  0  0  0
 22 23  1  0  0  0  0
 22 52  1  0  0  0  0
 22 53  1  0  0  0  0
 23 24  1  0  0  0  0
 23 54  1  0  0  0  0
 23 55  1  0  0  0  0
 24 25  1  0  0  0  0
 24 56  1  0  0  0  0
 24 57  1  0  0  0  0
 25 26  1  0  0  0  0
 25 58  1  0  0  0  0
 25 59  1  0  0  0  0
 26 60  1  0  0  0  0
 26 61  1  0  0  0  0
 27 28  1  0  0  0  0
 27 29  2  0  0  0  0
 28 30  1  0  0  0  0
 28 31  2  0  0  0  0
 30 33  1  0  0  0  0
 31 32  1  0  0  0  0
 31 62  1  0  0  0  0
 32 33  2  0  0  0  0
 32 37  1  0  0  0  0
 33 34  1  0  0  0  0
 34 35  2  0  0  0  0
 34 63  1  0  0  0  0
 35 36  1  0  0  0  0
 35 64  1  0  0  0  0
 36 37  2  0  0  0  0
 36 65  1  0  0  0  0
 37 66  1  0  0  0  0
M  END
