3i81_ligand
 OpenBabel08222323343D

 56 61  0  0  1  0  0  0  0  0999 V2000
  -18.3780    3.4520   13.7700 N   0  0  0  0  0  0  0  0  0  0  0  0
  -17.6390    3.7730   12.6790 C   0  0  0  0  0  0  0  0  0  0  0  0
  -17.2040    2.5050   12.1730 C   0  0  0  0  0  0  0  0  0  0  0  0
  -17.7180    1.4640   13.0040 C   0  0  0  0  0  0  0  0  0  0  0  0
  -18.4220    2.1130   13.9560 N   0  0  0  0  0  0  0  0  0  0  0  0
  -17.4110    5.1500   12.2280 N   0  0  0  0  0  0  0  0  0  0  0  0
  -17.5350   -0.0710   12.8850 C   0  0  1  0  0  0  0  0  0  0  0  0
  -18.6680   -0.1660   11.9120 C   0  0  0  0  0  0  0  0  0  0  0  0
  -17.2610   -0.2710   11.4390 C   0  0  0  0  0  0  0  0  0  0  0  0
  -15.8040    8.8640   10.0900 C   0  0  0  0  0  0  0  0  0  0  0  0
  -16.5430    9.2850   11.2170 C   0  0  0  0  0  0  0  0  0  0  0  0
  -17.0310    8.1530   11.8650 C   0  0  0  0  0  0  0  0  0  0  0  0
  -16.5550    7.0380   11.0830 C   0  0  0  0  0  0  0  0  0  0  0  0
  -15.8110    7.5010   10.0080 N   0  0  0  0  0  0  0  0  0  0  0  0
  -16.6790    5.6400   11.1720 C   0  0  0  0  0  0  0  0  0  0  0  0
  -16.1060    4.7940   10.2630 N   0  0  0  0  0  0  0  0  0  0  0  0
  -15.2490    6.6110    9.1110 N   0  0  0  0  0  0  0  0  0  0  0  0
  -15.3930    5.2770    9.2330 C   0  0  0  0  0  0  0  0  0  0  0  0
  -13.8850    4.9180    7.3560 C   0  0  0  0  0  0  0  0  0  0  0  0
  -13.2930    3.6710    6.7320 C   0  0  0  0  0  0  0  0  0  0  0  0
  -14.3100    2.5760    7.0490 C   0  0  0  0  0  0  0  0  0  0  0  0
  -15.1380    3.0050    8.2610 C   0  0  2  0  0  0  0  0  0  0  0  0
  -14.8300    4.4390    8.3370 N   0  0  0  0  0  0  0  0  0  0  0  0
  -14.6090    2.0970    9.4260 C   0  0  0  0  0  0  0  0  0  0  0  0
  -13.5470    2.6210   10.1150 N   0  0  0  0  0  0  0  0  0  0  0  0
  -15.1490    1.0140    9.6510 O   0  0  0  0  0  0  0  0  0  0  0  0
  -16.6560    2.8120    8.0030 C   0  0  0  0  0  0  0  0  0  0  0  0
  -12.8020    1.9700   11.0410 C   0  0  0  0  0  0  0  0  0  0  0  0
  -11.3870    2.0410   11.0840 C   0  0  0  0  0  0  0  0  0  0  0  0
  -10.6260    1.3750   12.0340 C   0  0  0  0  0  0  0  0  0  0  0  0
  -11.3330    0.6180   12.9630 C   0  0  0  0  0  0  0  0  0  0  0  0
  -12.7050    0.5260   12.9520 N   0  0  0  0  0  0  0  0  0  0  0  0
  -13.4300    1.1870   12.0130 C   0  0  0  0  0  0  0  0  0  0  0  0
  -10.5700   -0.0180   13.8730 F   0  0  0  0  0  0  0  0  0  0  0  0
  -16.5795    2.3584   11.2930 H   0  0  0  0  0  0  0  0  0  0  0  0
  -18.9271    1.6486   14.7242 H   0  0  0  0  0  0  0  0  0  0  0  0
  -17.8772    5.8705   12.7976 H   0  0  0  0  0  0  0  0  0  0  0  0
  -17.2267   -0.6999   13.7332 H   0  0  0  0  0  0  0  0  0  0  0  0
  -19.7368   -0.1616   11.7034 H   0  0  0  0  0  0  0  0  0  0  0  0
  -16.5490   -0.4003   10.6252 H   0  0  0  0  0  0  0  0  0  0  0  0
  -15.3019    9.5290    9.3888 H   0  0  0  0  0  0  0  0  0  0  0  0
  -16.7037   10.3168   11.5262 H   0  0  0  0  0  0  0  0  0  0  0  0
  -17.6402    8.1172   12.7670 H   0  0  0  0  0  0  0  0  0  0  0  0
  -14.3949    5.5257    6.5940 H   0  0  0  0  0  0  0  0  0  0  0  0
  -13.0994    5.5181    7.8383 H   0  0  0  0  0  0  0  0  0  0  0  0
  -12.3155    3.4371    7.1790 H   0  0  0  0  0  0  0  0  0  0  0  0
  -13.1789    3.7949    5.6450 H   0  0  0  0  0  0  0  0  0  0  0  0
  -13.7834    1.6372    7.2752 H   0  0  0  0  0  0  0  0  0  0  0  0
  -14.9724    2.4256    6.1838 H   0  0  0  0  0  0  0  0  0  0  0  0
  -13.2993    3.5693    9.9167 H   0  0  0  0  0  0  0  0  0  0  0  0
  -17.2221    3.1289    8.8913 H   0  0  0  0  0  0  0  0  0  0  0  0
  -16.8609    1.7511    7.7969 H   0  0  0  0  0  0  0  0  0  0  0  0
  -16.9611    3.4192    7.1380 H   0  0  0  0  0  0  0  0  0  0  0  0
  -10.8763    2.6429   10.3410 H   0  0  0  0  0  0  0  0  0  0  0  0
   -9.5441    1.4406   12.0514 H   0  0  0  0  0  0  0  0  0  0  0  0
  -14.5110    1.1060   12.0176 H   0  0  0  0  0  0  0  0  0  0  0  0
  1  5  1  0  0  0  0
  2  1  2  0  0  0  0
  2  3  1  0  0  0  0
  3  4  2  0  0  0  0
  3 35  1  0  0  0  0
  4  5  1  0  0  0  0
  4  7  1  0  0  0  0
  5 36  1  0  0  0  0
  6  2  1  0  0  0  0
  6 37  1  0  0  0  0
  7  8  1  0  0  0  0
  7  9  1  0  0  0  0
  7 38  1  1  0  0  0
  8 39  1  0  0  0  0
  9  8  2  0  0  0  0
  9 40  1  0  0  0  0
 10 11  2  0  0  0  0
 10 41  1  0  0  0  0
 11 42  1  0  0  0  0
 12 11  1  0  0  0  0
 12 43  1  0  0  0  0
 13 12  2  0  0  0  0
 14 10  1  0  0  0  0
 14 13  1  0  0  0  0
 15  6  1  0  0  0  0
 15 13  1  0  0  0  0
 16 15  2  0  0  0  0
 17 14  1  0  0  0  0
 18 16  1  0  0  0  0
 18 17  2  0  0  0  0
 19 20  1  0  0  0  0
 19 23  1  0  0  0  0
 19 44  1  0  0  0  0
 19 45  1  0  0  0  0
 20 21  1  0  0  0  0
 20 46  1  0  0  0  0
 20 47  1  0  0  0  0
 21 22  1  0  0  0  0
 21 48  1  0  0  0  0
 21 49  1  0  0  0  0
 22 23  1  0  0  0  0
 22 24  1  1  0  0  0
 22 27  1  0  0  0  0
 23 18  1  0  0  0  0
 24 25  1  0  0  0  0
 24 26  2  0  0  0  0
 25 28  1  0  0  0  0
 25 50  1  0  0  0  0
 27 51  1  0  0  0  0
 27 52  1  0  0  0  0
 27 53  1  0  0  0  0
 28 29  2  0  0  0  0
 28 33  1  0  0  0  0
 29 30  1  0  0  0  0
 29 54  1  0  0  0  0
 30 31  2  0  0  0  0
 30 55  1  0  0  0  0
 31 32  1  0  0  0  0
 31 34  1  0  0  0  0
 32 33  2  0  0  0  0
 33 56  1  0  0  0  0
M  END
