3ig7_ligand
 OpenBabel08222323343D

 47 49  0  0  1  0  0  0  0  0999 V2000
   -1.4630   31.0240    8.4320 C   0  0  2  0  0  0  0  0  0  0  0  0
   -0.1160   30.9430    7.9000 N   0  0  0  0  0  0  0  0  0  0  0  0
    0.6890   29.8230    8.0140 C   0  0  0  0  0  0  0  0  0  0  0  0
    1.8520   30.1660    7.3230 C   0  0  0  0  0  0  0  0  0  0  0  0
    3.0190   29.4310    7.2010 N   0  0  0  0  0  0  0  0  0  0  0  0
    3.3100   28.1670    7.6870 C   0  0  0  0  0  0  0  0  0  0  0  0
    4.7450   27.7230    7.4290 C   0  0  0  0  0  0  0  0  0  0  0  0
    4.7800   26.6560    6.3800 C   0  0  0  0  0  0  0  0  0  0  0  0
    5.0960   27.0780    5.0820 C   0  0  0  0  0  0  0  0  0  0  0  0
    5.1210   26.1810    4.0270 C   0  0  0  0  0  0  0  0  0  0  0  0
    4.8450   24.8300    4.2640 C   0  0  0  0  0  0  0  0  0  0  0  0
    4.8660   23.9010    3.2590 O   0  0  0  0  0  0  0  0  0  0  0  0
    6.1550   23.6860    2.6690 C   0  0  0  0  0  0  0  0  0  0  0  0
    4.5510   24.4030    5.5570 C   0  0  0  0  0  0  0  0  0  0  0  0
    4.4940   25.3150    6.6330 C   0  0  0  0  0  0  0  0  0  0  0  0
    2.5770   27.3580    8.2740 O   0  0  0  0  0  0  0  0  0  0  0  0
    1.7530   31.4700    6.8750 N   0  0  0  0  0  0  0  0  0  0  0  0
    0.5540   31.9080    7.2260 C   0  0  0  0  0  0  0  0  0  0  0  0
   -1.4680   30.7480    9.9510 C   0  0  0  0  0  0  0  0  0  0  0  0
   -2.8580   30.0560    9.7250 C   0  0  2  0  0  0  0  0  0  0  0  0
   -2.9220   28.7610   10.4620 N   0  0  0  0  0  0  0  0  0  0  0  0
   -3.7890   28.6780   11.5390 C   0  0  0  0  0  0  0  0  0  0  0  0
   -4.0620   27.2620   12.0070 C   0  0  0  0  0  0  0  0  0  0  0  0
   -4.2600   29.6800   12.0900 O   0  0  0  0  0  0  0  0  0  0  0  0
   -2.4350   29.8440    8.2320 C   0  0  0  0  0  0  0  0  0  0  0  0
   -1.9019   31.9888    8.1378 H   0  0  0  0  0  0  0  0  0  0  0  0
    0.4660   28.8880    8.5258 H   0  0  0  0  0  0  0  0  0  0  0  0
    3.7552   29.8751    6.6903 H   0  0  0  0  0  0  0  0  0  0  0  0
    5.1758   27.3290    8.3613 H   0  0  0  0  0  0  0  0  0  0  0  0
    5.3358   28.5860    7.0881 H   0  0  0  0  0  0  0  0  0  0  0  0
    5.3243   28.1221    4.9007 H   0  0  0  0  0  0  0  0  0  0  0  0
    5.3527   26.5232    3.0249 H   0  0  0  0  0  0  0  0  0  0  0  0
    6.0735   22.9278    1.8762 H   0  0  0  0  0  0  0  0  0  0  0  0
    6.8574   23.3363    3.4399 H   0  0  0  0  0  0  0  0  0  0  0  0
    6.5229   24.6288    2.2381 H   0  0  0  0  0  0  0  0  0  0  0  0
    4.3626   23.3513    5.7402 H   0  0  0  0  0  0  0  0  0  0  0  0
    4.2344   24.9811    7.6311 H   0  0  0  0  0  0  0  0  0  0  0  0
    0.1632   32.9001    7.0049 H   0  0  0  0  0  0  0  0  0  0  0  0
   -1.4967   31.6470   10.5842 H   0  0  0  0  0  0  0  0  0  0  0  0
   -0.6695   30.0777   10.3018 H   0  0  0  0  0  0  0  0  0  0  0  0
   -3.7516   30.6736    9.8984 H   0  0  0  0  0  0  0  0  0  0  0  0
   -2.3593   27.9809   10.1885 H   0  0  0  0  0  0  0  0  0  0  0  0
   -4.7557   27.2852   12.8604 H   0  0  0  0  0  0  0  0  0  0  0  0
   -3.1178   26.7891   12.3148 H   0  0  0  0  0  0  0  0  0  0  0  0
   -4.5107   26.6843   11.1854 H   0  0  0  0  0  0  0  0  0  0  0  0
   -1.9519   28.8784    8.0217 H   0  0  0  0  0  0  0  0  0  0  0  0
   -3.2330   30.0227    7.4963 H   0  0  0  0  0  0  0  0  0  0  0  0
  1  2  1  0  0  0  0
  1 19  1  0  0  0  0
  1 25  1  0  0  0  0
  1 26  1  6  0  0  0
  2  3  1  0  0  0  0
  2 18  1  0  0  0  0
  3  4  2  0  0  0  0
  3 27  1  0  0  0  0
  4  5  1  0  0  0  0
  4 17  1  0  0  0  0
  5  6  1  0  0  0  0
  5 28  1  0  0  0  0
  6  7  1  0  0  0  0
  6 16  2  0  0  0  0
  7  8  1  0  0  0  0
  7 29  1  0  0  0  0
  7 30  1  0  0  0  0
  8  9  2  0  0  0  0
  8 15  1  0  0  0  0
  9 10  1  0  0  0  0
  9 31  1  0  0  0  0
 10 11  2  0  0  0  0
 10 32  1  0  0  0  0
 11 12  1  0  0  0  0
 11 14  1  0  0  0  0
 12 13  1  0  0  0  0
 13 33  1  0  0  0  0
 13 34  1  0  0  0  0
 13 35  1  0  0  0  0
 14 15  2  0  0  0  0
 14 36  1  0  0  0  0
 15 37  1  0  0  0  0
 17 18  2  0  0  0  0
 18 38  1  0  0  0  0
 19 20  1  0  0  0  0
 19 39  1  0  0  0  0
 19 40  1  0  0  0  0
 20 21  1  0  0  0  0
 20 25  1  0  0  0  0
 20 41  1  1  0  0  0
 21 22  1  0  0  0  0
 21 42  1  0  0  0  0
 22 23  1  0  0  0  0
 22 24  2  0  0  0  0
 23 43  1  0  0  0  0
 23 44  1  0  0  0  0
 23 45  1  0  0  0  0
 25 46  1  0  0  0  0
 25 47  1  0  0  0  0
M  END
