3igb_ligand
 OpenBabel08222323343D

 41 44  0  0  1  0  0  0  0  0999 V2000
    9.9100   -7.7440   16.0740 C   0  0  0  0  0  0  0  0  0  0  0  0
   14.1760   -6.1000   18.6390 N   0  0  0  0  0  0  0  0  0  0  0  0
   10.6400   -8.6090   16.8850 C   0  0  0  0  0  0  0  0  0  0  0  0
   15.3640   -5.3080   16.7130 N   0  0  0  0  0  0  0  0  0  0  0  0
   12.0270   -8.4660   16.9910 C   0  0  0  0  0  0  0  0  0  0  0  0
   14.8410   -6.8160   15.1370 N   0  0  0  0  0  0  0  0  0  0  0  0
   12.7170   -7.4550   16.2860 C   0  0  0  0  0  0  0  0  0  0  0  0
   16.3620   -5.0820   14.5680 N   0  0  0  0  0  0  0  0  0  0  0  0
   11.9570   -6.5950   15.4750 C   0  0  0  0  0  0  0  0  0  0  0  0
   10.5720   -6.7420   15.3720 C   0  0  0  0  0  0  0  0  0  0  0  0
   14.2430   -7.3390   16.4470 C   0  0  0  0  0  0  0  0  0  0  0  0
   14.6700   -6.2290   17.4510 C   0  0  0  0  0  0  0  0  0  0  0  0
   14.5390   -4.8500   19.3420 C   0  0  0  0  0  0  0  0  0  0  0  0
   15.8130   -4.1930   18.7830 C   0  0  0  0  0  0  0  0  0  0  0  0
   15.6600   -4.0060   17.2780 C   0  0  0  0  0  0  0  0  0  0  0  0
   15.5330   -5.7400   15.4240 C   0  0  2  0  0  3  0  0  0  0  0  0
   14.9280   -8.6750   16.7790 C   0  0  0  0  0  0  0  0  0  0  0  0
   14.8620   -9.7420   15.8680 C   0  0  0  0  0  0  0  0  0  0  0  0
   15.4770  -10.9650   16.1360 C   0  0  0  0  0  0  0  0  0  0  0  0
   16.1650  -11.1410   17.3310 C   0  0  0  0  0  0  0  0  0  0  0  0
   16.2470  -10.0950   18.2440 C   0  0  0  0  0  0  0  0  0  0  0  0
   15.6300   -8.8720   17.9730 C   0  0  0  0  0  0  0  0  0  0  0  0
    8.8345   -7.8506   15.9904 H   0  0  0  0  0  0  0  0  0  0  0  0
   10.1328   -9.3937   17.4345 H   0  0  0  0  0  0  0  0  0  0  0  0
   12.5838   -9.1446   17.6270 H   0  0  0  0  0  0  0  0  0  0  0  0
   14.7214   -7.2329   14.2028 H   0  0  0  0  0  0  0  0  0  0  0  0
   16.8666   -4.2414   14.8838 H   0  0  0  0  0  0  0  0  0  0  0  0
   16.4847   -5.4247   13.6045 H   0  0  0  0  0  0  0  0  0  0  0  0
   12.4530   -5.8060   14.9213 H   0  0  0  0  0  0  0  0  0  0  0  0
   10.0069   -6.0681   14.7383 H   0  0  0  0  0  0  0  0  0  0  0  0
   14.7013   -5.0805   20.4053 H   0  0  0  0  0  0  0  0  0  0  0  0
   13.7060   -4.1383   19.2441 H   0  0  0  0  0  0  0  0  0  0  0  0
   16.6801   -4.8382   18.9875 H   0  0  0  0  0  0  0  0  0  0  0  0
   15.9631   -3.2143   19.2621 H   0  0  0  0  0  0  0  0  0  0  0  0
   14.8371   -3.3073   17.0667 H   0  0  0  0  0  0  0  0  0  0  0  0
   16.5939   -3.6128   16.8501 H   0  0  0  0  0  0  0  0  0  0  0  0
   14.3218   -9.6124   14.9372 H   0  0  0  0  0  0  0  0  0  0  0  0
   15.4187  -11.7736   15.4164 H   0  0  0  0  0  0  0  0  0  0  0  0
   16.6368  -12.0919   17.5509 H   0  0  0  0  0  0  0  0  0  0  0  0
   16.7928  -10.2299   19.1708 H   0  0  0  0  0  0  0  0  0  0  0  0
   15.6957   -8.0666   18.6955 H   0  0  0  0  0  0  0  0  0  0  0  0
  1 10  1  0  0  0  0
  1 23  1  0  0  0  0
  2 13  1  0  0  0  0
  3  1  2  0  0  0  0
  3 24  1  0  0  0  0
  4 12  1  0  0  0  0
  4 15  1  0  0  0  0
  5  3  1  0  0  0  0
  5 25  1  0  0  0  0
  6 16  1  0  0  0  0
  6 26  1  0  0  0  0
  7  5  2  0  0  0  0
  7  9  1  0  0  0  0
  7 11  1  0  0  0  0
  8 27  1  0  0  0  0
  8 28  1  0  0  0  0
  9 10  2  0  0  0  0
  9 29  1  0  0  0  0
 10 30  1  0  0  0  0
 11  6  1  0  0  0  0
 11 12  1  0  0  0  0
 11 17  1  0  0  0  0
 12  2  2  0  0  0  0
 13 14  1  0  0  0  0
 13 31  1  0  0  0  0
 13 32  1  0  0  0  0
 14 15  1  0  0  0  0
 14 33  1  0  0  0  0
 14 34  1  0  0  0  0
 15 35  1  0  0  0  0
 15 36  1  0  0  0  0
 16  4  1  0  0  0  0
 16  8  1  1  0  0  0
 17 18  2  0  0  0  0
 17 22  1  0  0  0  0
 18 19  1  0  0  0  0
 18 37  1  0  0  0  0
 19 20  2  0  0  0  0
 19 38  1  0  0  0  0
 20 21  1  0  0  0  0
 20 39  1  0  0  0  0
 21 22  2  0  0  0  0
 21 40  1  0  0  0  0
 22 41  1  0  0  0  0
M  END
