3igg_ligand
 OpenBabel08222323343D

 41 43  0  0  1  0  0  0  0  0999 V2000
   -1.4530   31.8920    8.6890 C   0  0  1  0  0  0  0  0  0  0  0  0
   -0.1600   31.6100    8.1410 N   0  0  0  0  0  0  0  0  0  0  0  0
   -3.1600   30.3130   11.1490 O   0  0  0  0  0  0  0  0  0  0  0  0
    0.6210   30.5100    8.1670 C   0  0  0  0  0  0  0  0  0  0  0  0
    1.6810   32.1370    7.0490 N   0  0  0  0  0  0  0  0  0  0  0  0
    2.4330   28.2990    8.5350 O   0  0  0  0  0  0  0  0  0  0  0  0
    0.5010   32.5740    7.4750 C   0  0  0  0  0  0  0  0  0  0  0  0
    2.9960   30.0580    7.1750 N   0  0  0  0  0  0  0  0  0  0  0  0
    4.4810   24.6730    3.2720 O   0  0  0  0  0  0  0  0  0  0  0  0
   -2.4830   30.7350    8.7410 C   0  0  0  0  0  0  0  0  0  0  0  0
   -1.4590   31.8270   10.2650 C   0  0  0  0  0  0  0  0  0  0  0  0
    1.7950   30.8520    7.4630 C   0  0  0  0  0  0  0  0  0  0  0  0
   -2.9160   31.2770   10.1230 C   0  0  2  0  0  0  0  0  0  0  0  0
    3.2290   28.8950    7.8150 C   0  0  0  0  0  0  0  0  0  0  0  0
    4.6330   28.3980    7.5700 C   0  0  0  0  0  0  0  0  0  0  0  0
    4.5950   27.4500    6.4140 C   0  0  0  0  0  0  0  0  0  0  0  0
    4.3850   26.1020    6.6270 C   0  0  0  0  0  0  0  0  0  0  0  0
    4.7770   27.9140    5.1070 C   0  0  0  0  0  0  0  0  0  0  0  0
    4.3690   25.1890    5.5890 C   0  0  0  0  0  0  0  0  0  0  0  0
    4.7620   26.9930    4.0720 C   0  0  0  0  0  0  0  0  0  0  0  0
    4.5260   25.6380    4.2890 C   0  0  0  0  0  0  0  0  0  0  0  0
    5.6580   24.7400    2.4610 C   0  0  0  0  0  0  0  0  0  0  0  0
   -1.8413   32.8230    8.2504 H   0  0  0  0  0  0  0  0  0  0  0  0
   -3.4176   30.7597   11.9469 H   0  0  0  0  0  0  0  0  0  0  0  0
    0.3921   29.5539    8.6355 H   0  0  0  0  0  0  0  0  0  0  0  0
    0.1191   33.5800    7.3072 H   0  0  0  0  0  0  0  0  0  0  0  0
    3.6509   30.3851    6.4938 H   0  0  0  0  0  0  0  0  0  0  0  0
   -2.0415   29.7277    8.7606 H   0  0  0  0  0  0  0  0  0  0  0  0
   -3.2623   30.7788    7.9659 H   0  0  0  0  0  0  0  0  0  0  0  0
   -1.3765   32.8002   10.7710 H   0  0  0  0  0  0  0  0  0  0  0  0
   -0.7369   31.1230   10.7042 H   0  0  0  0  0  0  0  0  0  0  0  0
   -3.7237   32.0231   10.0932 H   0  0  0  0  0  0  0  0  0  0  0  0
    5.0066   27.8794    8.4653 H   0  0  0  0  0  0  0  0  0  0  0  0
    5.2931   29.2460    7.3352 H   0  0  0  0  0  0  0  0  0  0  0  0
    4.2278   25.7486    7.6397 H   0  0  0  0  0  0  0  0  0  0  0  0
    4.9262   28.9692    4.9086 H   0  0  0  0  0  0  0  0  0  0  0  0
    4.2349   24.1325    5.7910 H   0  0  0  0  0  0  0  0  0  0  0  0
    4.9398   27.3387    3.0601 H   0  0  0  0  0  0  0  0  0  0  0  0
    5.6029   23.9765    1.6710 H   0  0  0  0  0  0  0  0  0  0  0  0
    6.5447   24.5577    3.0858 H   0  0  0  0  0  0  0  0  0  0  0  0
    5.7312   25.7372    2.0026 H   0  0  0  0  0  0  0  0  0  0  0  0
  1 10  1  0  0  0  0
  1 11  1  0  0  0  0
  1 23  1  6  0  0  0
  2  1  1  0  0  0  0
  3 24  1  0  0  0  0
  4  2  1  0  0  0  0
  4 25  1  0  0  0  0
  5  7  2  0  0  0  0
  7  2  1  0  0  0  0
  7 26  1  0  0  0  0
  8 12  1  0  0  0  0
  8 27  1  0  0  0  0
  9 22  1  0  0  0  0
 10 13  1  0  0  0  0
 10 28  1  0  0  0  0
 10 29  1  0  0  0  0
 11 13  1  0  0  0  0
 11 30  1  0  0  0  0
 11 31  1  0  0  0  0
 12  4  2  0  0  0  0
 12  5  1  0  0  0  0
 13  3  1  0  0  0  0
 13 32  1  6  0  0  0
 14  6  2  0  0  0  0
 14  8  1  0  0  0  0
 15 14  1  0  0  0  0
 15 33  1  0  0  0  0
 15 34  1  0  0  0  0
 16 15  1  0  0  0  0
 16 18  1  0  0  0  0
 17 16  2  0  0  0  0
 17 35  1  0  0  0  0
 18 20  2  0  0  0  0
 18 36  1  0  0  0  0
 19 17  1  0  0  0  0
 19 21  2  0  0  0  0
 19 37  1  0  0  0  0
 20 21  1  0  0  0  0
 20 38  1  0  0  0  0
 21  9  1  0  0  0  0
 22 39  1  0  0  0  0
 22 40  1  0  0  0  0
 22 41  1  0  0  0  0
M  END
