3ihz_ligand
 OpenBabel08222323343D

132135  0  0  1  0  0  0  0  0999 V2000
   -6.8790   -7.9670  -27.3520 C   0  0  0  0  0  0  0  0  0  0  0  0
   -6.2480   -8.1560  -26.0120 C   0  0  2  0  0  0  0  0  0  0  0  0
   -6.7740   -7.0780  -25.0390 C   0  0  0  0  0  0  0  0  0  0  0  0
   -6.1320   -5.6930  -25.2100 C   0  0  0  0  0  0  0  0  0  0  0  0
   -4.6070   -5.8330  -25.2740 C   0  0  0  0  0  0  0  0  0  0  0  0
   -4.1170   -6.8060  -26.3570 C   0  0  0  0  0  0  0  0  0  0  0  0
   -4.0810   -9.2080  -25.8730 C   0  0  0  0  0  0  0  0  0  0  0  0
   -2.6970   -9.3120  -25.8920 C   0  0  2  0  0  0  0  0  0  0  0  0
   -1.9370   -9.5600  -27.1670 C   0  0  1  0  0  0  0  0  0  0  0  0
   -2.6390  -10.5320  -28.0950 C   0  0  1  0  0  0  0  0  0  0  0  0
   -1.9800  -10.4620  -29.4730 C   0  0  0  0  0  0  0  0  0  0  0  0
   -1.9150   -9.0340  -30.0050 C   0  0  1  0  0  0  0  0  0  0  0  0
   -1.1480   -8.1980  -28.9810 C   0  0  1  0  0  0  0  0  0  0  0  0
   -1.0010   -6.7060  -29.3370 C   0  0  2  0  0  0  0  0  0  0  0  0
   -2.2650   -6.0270  -29.8410 C   0  0  0  0  0  0  0  0  0  0  0  0
   -2.2140   -4.4820  -29.8830 C   0  0  2  0  0  0  0  0  0  0  0  0
   -1.6710   -4.0070  -31.2340 C   0  0  0  0  0  0  0  0  0  0  0  0
   -2.7620   -4.1010  -32.2780 C   0  0  0  0  0  0  0  0  0  0  0  0
   -2.7810   -5.2270  -33.2130 C   0  0  0  0  0  0  0  0  0  0  0  0
   -3.8880   -5.4280  -34.1930 C   0  0  2  0  0  0  0  0  0  0  0  0
   -4.9330   -6.2320  -33.5030 C   0  0  2  0  0  0  0  0  0  0  0  0
   -6.1050   -5.5650  -32.8410 C   0  0  0  0  0  0  0  0  0  0  0  0
   -6.8840   -6.4830  -31.9080 C   0  0  1  0  0  0  0  0  0  0  0  0
   -6.2090   -6.7460  -30.5400 C   0  0  2  0  0  0  0  0  0  0  0  0
   -6.9660   -7.7410  -29.6400 C   0  0  1  0  0  0  0  0  0  0  0  0
   -6.9890   -9.1030  -30.2870 C   0  0  0  0  0  0  0  0  0  0  0  0
   -8.3000   -9.6550  -30.6760 C   0  0  0  0  0  0  0  0  0  0  0  0
   -8.4570  -11.0030  -31.3410 C   0  0  1  0  0  0  0  0  0  0  0  0
   -9.7300  -11.6780  -30.7840 C   0  0  0  0  0  0  0  0  0  0  0  0
   -9.9480  -13.0130  -31.4590 C   0  0  2  0  0  0  0  0  0  0  0  0
  -10.0840  -12.8350  -32.9700 C   0  0  1  0  0  0  0  0  0  0  0  0
   -8.8390  -12.1650  -33.5250 C   0  0  0  0  0  0  0  0  0  0  0  0
   -8.6490  -10.8030  -32.8570 C   0  0  0  0  0  0  0  0  0  0  0  0
   -2.6350  -11.9780  -27.5660 C   0  0  0  0  0  0  0  0  0  0  0  0
   -1.3470   -3.8260  -28.7990 C   0  0  0  0  0  0  0  0  0  0  0  0
   -3.8130   -3.0330  -32.3450 C   0  0  0  0  0  0  0  0  0  0  0  0
   -3.3170   -6.1940  -35.3830 C   0  0  0  0  0  0  0  0  0  0  0  0
   -2.3440   -5.2640  -36.1020 C   0  0  0  0  0  0  0  0  0  0  0  0
   -2.3360   -5.1450  -37.5740 C   0  0  0  0  0  0  0  0  0  0  0  0
   -5.9990   -5.4310  -29.7610 C   0  0  0  0  0  0  0  0  0  0  0  0
   -5.7030   -9.8770  -30.5490 C   0  0  0  0  0  0  0  0  0  0  0  0
   -2.0540   -9.5710  -32.2920 C   0  0  0  0  0  0  0  0  0  0  0  0
    1.3100   -6.6070  -29.6480 C   0  0  0  0  0  0  0  0  0  0  0  0
  -11.0740  -13.9990  -29.6430 C   0  0  0  0  0  0  0  0  0  0  0  0
   -4.7880   -8.1030  -26.1140 N   0  0  0  0  0  0  0  0  0  0  0  0
   -6.2240   -7.9100  -28.4260 O   0  0  0  0  0  0  0  0  0  0  0  0
   -8.2430   -7.8050  -27.3760 O   0  0  0  0  0  0  0  0  0  0  0  0
   -4.7390  -10.3430  -25.5210 O   0  0  0  0  0  0  0  0  0  0  0  0
   -2.0230   -9.2590  -24.7040 O   0  0  0  0  0  0  0  0  0  0  0  0
   -1.8540   -8.2940  -27.7530 O   0  0  0  0  0  0  0  0  0  0  0  0
   -0.6400  -10.0880  -26.8390 O   0  0  0  0  0  0  0  0  0  0  0  0
   -1.2640   -8.9890  -31.2660 O   0  0  0  0  0  0  0  0  0  0  0  0
    0.0360   -6.5130  -30.2830 O   0  0  0  0  0  0  0  0  0  0  0  0
   -4.7670   -7.5910  -33.4660 O   0  0  0  0  0  0  0  0  0  0  0  0
   -8.1490   -5.9050  -31.6850 O   0  0  0  0  0  0  0  0  0  0  0  0
  -11.1650  -13.5830  -31.0060 O   0  0  0  0  0  0  0  0  0  0  0  0
  -10.2540  -14.1230  -33.5650 O   0  0  0  0  0  0  0  0  0  0  0  0
   -6.5323   -9.1460  -25.6258 H   0  0  0  0  0  0  0  0  0  0  0  0
   -6.5820   -7.4204  -24.0114 H   0  0  0  0  0  0  0  0  0  0  0  0
   -7.8580   -6.9750  -25.1947 H   0  0  0  0  0  0  0  0  0  0  0  0
   -6.4048   -5.0558  -24.3558 H   0  0  0  0  0  0  0  0  0  0  0  0
   -6.4961   -5.2339  -26.1410 H   0  0  0  0  0  0  0  0  0  0  0  0
   -4.2508   -6.1934  -24.2977 H   0  0  0  0  0  0  0  0  0  0  0  0
   -4.1763   -4.8417  -25.4784 H   0  0  0  0  0  0  0  0  0  0  0  0
   -3.0258   -6.9274  -26.2892 H   0  0  0  0  0  0  0  0  0  0  0  0
   -4.3824   -6.4251  -27.3542 H   0  0  0  0  0  0  0  0  0  0  0  0
   -2.5985   -8.2249  -26.0278 H   0  0  0  0  0  0  0  0  0  0  0  0
   -3.6875  -10.2140  -28.1921 H   0  0  0  0  0  0  0  0  0  0  0  0
   -2.5615  -11.0764  -30.1761 H   0  0  0  0  0  0  0  0  0  0  0  0
   -0.9571  -10.8595  -29.3978 H   0  0  0  0  0  0  0  0  0  0  0  0
   -2.9349   -8.6372  -30.1162 H   0  0  0  0  0  0  0  0  0  0  0  0
   -0.1409   -8.6253  -28.8668 H   0  0  0  0  0  0  0  0  0  0  0  0
   -0.7100   -6.1906  -28.4099 H   0  0  0  0  0  0  0  0  0  0  0  0
   -3.0949   -6.3217  -29.1819 H   0  0  0  0  0  0  0  0  0  0  0  0
   -2.4610   -6.3883  -30.8613 H   0  0  0  0  0  0  0  0  0  0  0  0
   -3.2443   -4.1161  -29.7619 H   0  0  0  0  0  0  0  0  0  0  0  0
   -0.8231   -4.6413  -31.5318 H   0  0  0  0  0  0  0  0  0  0  0  0
   -1.3354   -2.9630  -31.1476 H   0  0  0  0  0  0  0  0  0  0  0  0
   -1.9598   -5.9419  -33.1927 H   0  0  0  0  0  0  0  0  0  0  0  0
   -4.3021   -4.4642  -34.5240 H   0  0  0  0  0  0  0  0  0  0  0  0
   -5.5078   -6.3151  -34.4372 H   0  0  0  0  0  0  0  0  0  0  0  0
   -6.7881   -5.2051  -33.6245 H   0  0  0  0  0  0  0  0  0  0  0  0
   -5.7339   -4.7099  -32.2570 H   0  0  0  0  0  0  0  0  0  0  0  0
   -7.0120   -7.4518  -32.4129 H   0  0  0  0  0  0  0  0  0  0  0  0
   -5.2197   -7.1791  -30.7490 H   0  0  0  0  0  0  0  0  0  0  0  0
   -7.9857   -7.3803  -29.4400 H   0  0  0  0  0  0  0  0  0  0  0  0
   -9.1936   -9.0658  -30.4754 H   0  0  0  0  0  0  0  0  0  0  0  0
   -7.5731  -11.6283  -31.1469 H   0  0  0  0  0  0  0  0  0  0  0  0
  -10.5980  -11.0291  -30.9724 H   0  0  0  0  0  0  0  0  0  0  0  0
   -9.6157  -11.8324  -29.7009 H   0  0  0  0  0  0  0  0  0  0  0  0
   -9.1051  -13.6820  -31.2313 H   0  0  0  0  0  0  0  0  0  0  0  0
  -10.9616  -12.2094  -33.1900 H   0  0  0  0  0  0  0  0  0  0  0  0
   -8.9500  -12.0279  -34.6108 H   0  0  0  0  0  0  0  0  0  0  0  0
   -7.9619  -12.7974  -33.3230 H   0  0  0  0  0  0  0  0  0  0  0  0
   -7.7615  -10.3077  -33.2778 H   0  0  0  0  0  0  0  0  0  0  0  0
   -9.5368  -10.1787  -33.0360 H   0  0  0  0  0  0  0  0  0  0  0  0
   -3.1125  -12.0074  -26.5755 H   0  0  0  0  0  0  0  0  0  0  0  0
   -1.5980  -12.3355  -27.4838 H   0  0  0  0  0  0  0  0  0  0  0  0
   -3.1917  -12.6241  -28.2607 H   0  0  0  0  0  0  0  0  0  0  0  0
   -1.7017   -4.1398  -27.8062 H   0  0  0  0  0  0  0  0  0  0  0  0
   -1.4183   -2.7317  -28.8848 H   0  0  0  0  0  0  0  0  0  0  0  0
   -0.2998   -4.1366  -28.9292 H   0  0  0  0  0  0  0  0  0  0  0  0
   -4.5183   -3.2631  -33.1571 H   0  0  0  0  0  0  0  0  0  0  0  0
   -3.3361   -2.0608  -32.5381 H   0  0  0  0  0  0  0  0  0  0  0  0
   -4.3555   -2.9919  -31.3890 H   0  0  0  0  0  0  0  0  0  0  0  0
   -4.1285   -6.4884  -36.0647 H   0  0  0  0  0  0  0  0  0  0  0  0
   -2.7883   -7.0927  -35.0326 H   0  0  0  0  0  0  0  0  0  0  0  0
   -1.3335   -5.5870  -35.8112 H   0  0  0  0  0  0  0  0  0  0  0  0
   -2.5330   -4.2538  -35.7100 H   0  0  0  0  0  0  0  0  0  0  0  0
   -1.5620   -4.4255  -37.8795 H   0  0  0  0  0  0  0  0  0  0  0  0
   -3.3197   -4.7938  -37.9189 H   0  0  0  0  0  0  0  0  0  0  0  0
   -2.1202   -6.1270  -38.0201 H   0  0  0  0  0  0  0  0  0  0  0  0
   -5.4588   -4.7119  -30.3943 H   0  0  0  0  0  0  0  0  0  0  0  0
   -5.4123   -5.6326  -28.8527 H   0  0  0  0  0  0  0  0  0  0  0  0
   -6.9762   -5.0108  -29.4807 H   0  0  0  0  0  0  0  0  0  0  0  0
   -5.9445  -10.8391  -31.0244 H   0  0  0  0  0  0  0  0  0  0  0  0
   -5.1839  -10.0588  -29.5964 H   0  0  0  0  0  0  0  0  0  0  0  0
   -5.0522   -9.2919  -31.2154 H   0  0  0  0  0  0  0  0  0  0  0  0
   -1.5128   -9.5146  -33.2480 H   0  0  0  0  0  0  0  0  0  0  0  0
   -3.0053   -9.0253  -32.3765 H   0  0  0  0  0  0  0  0  0  0  0  0
   -2.2559  -10.6241  -32.0466 H   0  0  0  0  0  0  0  0  0  0  0  0
    2.1037   -6.4552  -30.3943 H   0  0  0  0  0  0  0  0  0  0  0  0
    1.4203   -7.6023  -29.1928 H   0  0  0  0  0  0  0  0  0  0  0  0
    1.3884   -5.8360  -28.8674 H   0  0  0  0  0  0  0  0  0  0  0  0
  -12.0336  -14.4347  -29.3278 H   0  0  0  0  0  0  0  0  0  0  0  0
  -10.8398  -13.1308  -29.0095 H   0  0  0  0  0  0  0  0  0  0  0  0
  -10.2786  -14.7520  -29.5418 H   0  0  0  0  0  0  0  0  0  0  0  0
   -1.5803  -10.0863  -24.5552 H   0  0  0  0  0  0  0  0  0  0  0  0
   -0.2076   -9.5047  -26.2264 H   0  0  0  0  0  0  0  0  0  0  0  0
   -5.5147   -8.0115  -33.8743 H   0  0  0  0  0  0  0  0  0  0  0  0
   -8.0434   -5.0865  -31.2144 H   0  0  0  0  0  0  0  0  0  0  0  0
   -9.4962  -14.6623  -33.3718 H   0  0  0  0  0  0  0  0  0  0  0  0
  1 46  1  0  0  0  0
  1 47  2  0  0  0  0
  2  1  1  0  0  0  0
  2  3  1  0  0  0  0
  2 58  1  1  0  0  0
  3  4  1  0  0  0  0
  3 59  1  0  0  0  0
  3 60  1  0  0  0  0
  4 61  1  0  0  0  0
  4 62  1  0  0  0  0
  5  4  1  0  0  0  0
  5 63  1  0  0  0  0
  5 64  1  0  0  0  0
  6  5  1  0  0  0  0
  6 65  1  0  0  0  0
  6 66  1  0  0  0  0
  7  8  1  0  0  0  0
  7 45  1  0  0  0  0
  7 48  2  0  0  0  0
  8  9  1  0  0  0  0
  8 49  1  0  0  0  0
  8 67  1  6  0  0  0
  9 10  1  0  0  0  0
  9 50  1  0  0  0  0
  9 51  1  1  0  0  0
 10 11  1  0  0  0  0
 10 34  1  0  0  0  0
 10 68  1  6  0  0  0
 11 12  1  0  0  0  0
 11 69  1  0  0  0  0
 11 70  1  0  0  0  0
 12 13  1  0  0  0  0
 12 52  1  0  0  0  0
 12 71  1  6  0  0  0
 13 14  1  0  0  0  0
 13 50  1  0  0  0  0
 13 72  1  1  0  0  0
 14 15  1  0  0  0  0
 14 53  1  0  0  0  0
 14 73  1  1  0  0  0
 15 16  1  0  0  0  0
 15 74  1  0  0  0  0
 15 75  1  0  0  0  0
 16 17  1  0  0  0  0
 16 35  1  0  0  0  0
 16 76  1  1  0  0  0
 17 18  1  0  0  0  0
 17 77  1  0  0  0  0
 17 78  1  0  0  0  0
 18 19  2  0  0  0  0
 18 36  1  0  0  0  0
 19 20  1  0  0  0  0
 19 79  1  0  0  0  0
 20 21  1  0  0  0  0
 20 37  1  0  0  0  0
 20 80  1  6  0  0  0
 21 22  1  0  0  0  0
 21 54  1  0  0  0  0
 21 81  1  6  0  0  0
 22 23  1  0  0  0  0
 22 82  1  0  0  0  0
 22 83  1  0  0  0  0
 23 24  1  0  0  0  0
 23 55  1  0  0  0  0
 23 84  1  6  0  0  0
 24 25  1  0  0  0  0
 24 40  1  0  0  0  0
 24 85  1  6  0  0  0
 25 26  1  0  0  0  0
 25 46  1  0  0  0  0
 25 86  1  1  0  0  0
 26 27  2  0  0  0  0
 26 41  1  0  0  0  0
 27 28  1  0  0  0  0
 27 87  1  0  0  0  0
 28 29  1  0  0  0  0
 28 33  1  0  0  0  0
 28 88  1  1  0  0  0
 29 30  1  0  0  0  0
 29 89  1  0  0  0  0
 29 90  1  0  0  0  0
 30 31  1  0  0  0  0
 30 56  1  0  0  0  0
 30 91  1  1  0  0  0
 31 32  1  0  0  0  0
 31 57  1  0  0  0  0
 31 92  1  6  0  0  0
 32 33  1  0  0  0  0
 32 93  1  0  0  0  0
 32 94  1  0  0  0  0
 33 95  1  0  0  0  0
 33 96  1  0  0  0  0
 34 97  1  0  0  0  0
 34 98  1  0  0  0  0
 34 99  1  0  0  0  0
 35100  1  0  0  0  0
 35101  1  0  0  0  0
 35102  1  0  0  0  0
 36103  1  0  0  0  0
 36104  1  0  0  0  0
 36105  1  0  0  0  0
 37 38  1  0  0  0  0
 37106  1  0  0  0  0
 37107  1  0  0  0  0
 38 39  1  0  0  0  0
 38108  1  0  0  0  0
 38109  1  0  0  0  0
 39110  1  0  0  0  0
 39111  1  0  0  0  0
 39112  1  0  0  0  0
 40113  1  0  0  0  0
 40114  1  0  0  0  0
 40115  1  0  0  0  0
 41116  1  0  0  0  0
 41117  1  0  0  0  0
 41118  1  0  0  0  0
 42119  1  0  0  0  0
 42120  1  0  0  0  0
 42121  1  0  0  0  0
 43122  1  0  0  0  0
 43123  1  0  0  0  0
 43124  1  0  0  0  0
 44125  1  0  0  0  0
 44126  1  0  0  0  0
 44127  1  0  0  0  0
 45  2  1  0  0  0  0
 45  6  1  0  0  0  0
 49128  1  0  0  0  0
 51129  1  0  0  0  0
 52 42  1  0  0  0  0
 53 43  1  0  0  0  0
 54130  1  0  0  0  0
 55131  1  0  0  0  0
 56 44  1  0  0  0  0
 57132  1  0  0  0  0
M  END
