3ii5_ligand
 OpenBabel08222323343D

 63 67  0  0  0  0  0  0  0  0999 V2000
  -11.9550    8.5420    9.0290 C   0  0  0  0  0  0  0  0  0  0  0  0
   -8.5590   22.0150    1.2540 F   0  0  0  0  0  0  0  0  0  0  0  0
  -12.8220    9.0000   10.1780 N   0  3  0  0  0  0  0  0  0  0  0  0
   -8.6300   20.8260    5.7140 O   0  0  0  0  0  0  0  0  0  0  0  0
  -14.0960    9.6700    9.7310 C   0  0  0  0  0  0  0  0  0  0  0  0
   -6.7380   22.5700    0.1950 F   0  0  0  0  0  0  0  0  0  0  0  0
   -8.6910   16.8420    9.8400 N   0  0  0  0  0  0  0  0  0  0  0  0
  -12.0500    9.7430   11.2660 C   0  0  0  0  0  0  0  0  0  0  0  0
   -7.8680   24.0670    1.2580 F   0  0  0  0  0  0  0  0  0  0  0  0
   -9.8980   17.3980   10.1210 N   0  0  0  0  0  0  0  0  0  0  0  0
  -11.5880   11.1680   11.0270 C   0  0  0  0  0  0  0  0  0  0  0  0
  -12.1400   16.7890   10.7540 N   0  0  0  0  0  0  0  0  0  0  0  0
  -12.2670   12.2670   11.5860 C   0  0  0  0  0  0  0  0  0  0  0  0
   -6.9640   21.3760    7.2520 N   0  0  0  0  0  0  0  0  0  0  0  0
  -11.8360   13.5840   11.3620 C   0  0  0  0  0  0  0  0  0  0  0  0
  -10.7050   13.8370   10.5690 C   0  0  0  0  0  0  0  0  0  0  0  0
  -10.0250   12.7400   10.0190 C   0  0  0  0  0  0  0  0  0  0  0  0
  -10.4550   11.4270   10.2420 C   0  0  0  0  0  0  0  0  0  0  0  0
  -10.2060   15.1920   10.3450 C   0  0  0  0  0  0  0  0  0  0  0  0
   -8.8930   15.5400    9.9800 C   0  0  0  0  0  0  0  0  0  0  0  0
  -10.8590   16.4200   10.4380 C   0  0  0  0  0  0  0  0  0  0  0  0
  -12.4000   18.0630   10.7380 C   0  0  0  0  0  0  0  0  0  0  0  0
  -11.4560   19.1600   10.4160 C   0  0  0  0  0  0  0  0  0  0  0  0
  -10.2040   18.7700   10.1080 C   0  0  0  0  0  0  0  0  0  0  0  0
   -9.1710   19.7890    9.8230 C   0  0  0  0  0  0  0  0  0  0  0  0
   -8.7870   20.5510   10.9340 C   0  0  0  0  0  0  0  0  0  0  0  0
   -7.8270   21.5510   10.8460 C   0  0  0  0  0  0  0  0  0  0  0  0
   -7.2210   21.8130    9.6250 C   0  0  0  0  0  0  0  0  0  0  0  0
   -7.5730   21.0740    8.4930 C   0  0  0  0  0  0  0  0  0  0  0  0
   -8.5550   20.0530    8.5830 C   0  0  0  0  0  0  0  0  0  0  0  0
   -7.5210   21.2500    5.9980 C   0  0  0  0  0  0  0  0  0  0  0  0
   -6.6740   21.7180    4.8850 C   0  0  0  0  0  0  0  0  0  0  0  0
   -5.2890   21.8720    4.9640 C   0  0  0  0  0  0  0  0  0  0  0  0
   -4.5940   22.3280    3.8430 C   0  0  0  0  0  0  0  0  0  0  0  0
   -5.2730   22.6290    2.6590 C   0  0  0  0  0  0  0  0  0  0  0  0
   -6.6610   22.4770    2.5840 C   0  0  0  0  0  0  0  0  0  0  0  0
   -7.3530   22.0220    3.7040 C   0  0  0  0  0  0  0  0  0  0  0  0
   -7.4380   22.7820    1.3400 C   0  0  0  0  0  0  0  0  0  0  0  0
  -12.5757    8.0174    8.2877 H   0  0  0  0  0  0  0  0  0  0  0  0
  -11.1780    7.8601    9.4050 H   0  0  0  0  0  0  0  0  0  0  0  0
  -11.4799    9.4149    8.5575 H   0  0  0  0  0  0  0  0  0  0  0  0
  -13.1278    8.1493   10.6239 H   0  0  0  0  0  0  0  0  0  0  0  0
  -14.6775    9.9773   10.6127 H   0  0  0  0  0  0  0  0  0  0  0  0
  -14.6885    8.9661    9.1282 H   0  0  0  0  0  0  0  0  0  0  0  0
  -13.8518   10.5556    9.1260 H   0  0  0  0  0  0  0  0  0  0  0  0
  -11.1495    9.1484   11.4793 H   0  0  0  0  0  0  0  0  0  0  0  0
  -12.6955    9.7632   12.1565 H   0  0  0  0  0  0  0  0  0  0  0  0
  -13.1413   12.0926   12.2026 H   0  0  0  0  0  0  0  0  0  0  0  0
   -6.0253   21.7189    7.2891 H   0  0  0  0  0  0  0  0  0  0  0  0
  -12.3797   14.4111   11.8040 H   0  0  0  0  0  0  0  0  0  0  0  0
   -9.1468   12.9133    9.4076 H   0  0  0  0  0  0  0  0  0  0  0  0
   -9.9065   10.6013    9.8033 H   0  0  0  0  0  0  0  0  0  0  0  0
   -8.1081   14.8011    9.8254 H   0  0  0  0  0  0  0  0  0  0  0  0
  -13.4190   18.3551   10.9875 H   0  0  0  0  0  0  0  0  0  0  0  0
  -11.7539   20.2074   10.4277 H   0  0  0  0  0  0  0  0  0  0  0  0
   -9.2537   20.3541   11.8924 H   0  0  0  0  0  0  0  0  0  0  0  0
   -7.5529   22.1230   11.7250 H   0  0  0  0  0  0  0  0  0  0  0  0
   -6.4724   22.5934    9.5497 H   0  0  0  0  0  0  0  0  0  0  0  0
   -8.8292   19.4804    7.7044 H   0  0  0  0  0  0  0  0  0  0  0  0
   -4.7612   21.6409    5.8822 H   0  0  0  0  0  0  0  0  0  0  0  0
   -3.5179   22.4498    3.8910 H   0  0  0  0  0  0  0  0  0  0  0  0
   -4.7213   22.9818    1.7952 H   0  0  0  0  0  0  0  0  0  0  0  0
   -8.4294   21.9028    3.6579 H   0  0  0  0  0  0  0  0  0  0  0  0
  1 39  1  0  0  0  0
  1 40  1  0  0  0  0
  1 41  1  0  0  0  0
  3  1  1  0  0  0  0
  3  5  1  0  0  0  0
  3 42  1  0  0  0  0
  5 43  1  0  0  0  0
  5 44  1  0  0  0  0
  5 45  1  0  0  0  0
  7 20  2  0  0  0  0
  8  3  1  0  0  0  0
  8 46  1  0  0  0  0
  8 47  1  0  0  0  0
 10  7  1  0  0  0  0
 10 21  1  0  0  0  0
 11  8  1  0  0  0  0
 13 11  2  0  0  0  0
 13 48  1  0  0  0  0
 14 29  1  0  0  0  0
 14 49  1  0  0  0  0
 15 13  1  0  0  0  0
 15 50  1  0  0  0  0
 16 15  2  0  0  0  0
 16 17  1  0  0  0  0
 17 18  2  0  0  0  0
 17 51  1  0  0  0  0
 18 11  1  0  0  0  0
 18 52  1  0  0  0  0
 19 16  1  0  0  0  0
 19 20  1  0  0  0  0
 20 53  1  0  0  0  0
 21 12  1  0  0  0  0
 21 19  2  0  0  0  0
 22 12  2  0  0  0  0
 22 54  1  0  0  0  0
 23 22  1  0  0  0  0
 23 55  1  0  0  0  0
 24 10  1  0  0  0  0
 24 23  2  0  0  0  0
 25 24  1  0  0  0  0
 25 26  2  0  0  0  0
 26 56  1  0  0  0  0
 27 26  1  0  0  0  0
 27 57  1  0  0  0  0
 28 27  2  0  0  0  0
 28 58  1  0  0  0  0
 29 28  1  0  0  0  0
 29 30  2  0  0  0  0
 30 25  1  0  0  0  0
 30 59  1  0  0  0  0
 31  4  2  0  0  0  0
 31 14  1  0  0  0  0
 32 31  1  0  0  0  0
 32 33  2  0  0  0  0
 33 60  1  0  0  0  0
 34 33  1  0  0  0  0
 34 61  1  0  0  0  0
 35 34  2  0  0  0  0
 35 62  1  0  0  0  0
 36 35  1  0  0  0  0
 36 37  2  0  0  0  0
 36 38  1  0  0  0  0
 37 32  1  0  0  0  0
 37 63  1  0  0  0  0
 38  2  1  0  0  0  0
 38  6  1  0  0  0  0
 38  9  1  0  0  0  0
M  CHG  1   3   1
M  END
