3ik1_ligand
 OpenBabel08222323343D

 32 34  0  0  0  0  0  0  0  0999 V2000
  -30.0980    8.7080   30.2130 C   0  0  0  0  0  0  0  0  0  0  0  0
  -30.0070    9.1290   31.5260 C   0  0  0  0  0  0  0  0  0  0  0  0
  -28.9900   10.0080   31.9110 C   0  0  0  0  0  0  0  0  0  0  0  0
  -27.9930   10.5320   31.0760 C   0  0  0  0  0  0  0  0  0  0  0  0
  -28.0130   10.1590   29.7570 C   0  0  0  0  0  0  0  0  0  0  0  0
  -29.0730    9.2330   29.2670 C   0  0  0  0  0  0  0  0  0  0  0  0
  -27.1760   10.4770   28.5660 C   0  0  0  0  0  0  0  0  0  0  0  0
  -27.6470    9.8240   27.4760 N   0  0  0  0  0  0  0  0  0  0  0  0
  -28.7360    9.1070   27.8220 C   0  0  0  0  0  0  0  0  0  0  0  0
  -27.1740    9.8680   26.2080 C   0  0  0  0  0  0  0  0  0  0  0  0
  -29.4200    8.3750   27.0190 O   0  0  0  0  0  0  0  0  0  0  0  0
  -26.1550   11.2470   28.6070 O   0  0  0  0  0  0  0  0  0  0  0  0
  -31.1910    7.7670   29.7930 C   0  0  0  0  0  0  0  0  0  0  0  0
  -26.6210   11.0280   25.6520 C   0  0  0  0  0  0  0  0  0  0  0  0
  -26.1420   11.1170   24.3440 C   0  0  0  0  0  0  0  0  0  0  0  0
  -26.2030   10.0230   23.4810 C   0  0  0  0  0  0  0  0  0  0  0  0
  -26.7900    8.7700   24.0220 C   0  0  0  0  0  0  0  0  0  0  0  0
  -27.2410    8.7630   25.3380 C   0  0  0  0  0  0  0  0  0  0  0  0
  -26.8910    7.6470   23.2540 O   0  0  0  0  0  0  0  0  0  0  0  0
  -25.6750   10.1170   22.0640 C   0  0  0  0  0  0  0  0  0  0  0  0
  -25.9590   11.1130   21.3480 O   0  5  0  0  0  0  0  0  0  0  0  0
  -24.9390    9.1980   21.6320 O   0  0  0  0  0  0  0  0  0  0  0  0
  -30.7248    8.7774   32.2583 H   0  0  0  0  0  0  0  0  0  0  0  0
  -28.9706   10.3125   32.9512 H   0  0  0  0  0  0  0  0  0  0  0  0
  -27.2354   11.2062   31.4587 H   0  0  0  0  0  0  0  0  0  0  0  0
  -31.8188    7.5228   30.6626 H   0  0  0  0  0  0  0  0  0  0  0  0
  -30.7464    6.8446   29.3912 H   0  0  0  0  0  0  0  0  0  0  0  0
  -31.8082    8.2445   29.0177 H   0  0  0  0  0  0  0  0  0  0  0  0
  -26.5611   11.9121   26.2764 H   0  0  0  0  0  0  0  0  0  0  0  0
  -25.7162   12.0503   23.9937 H   0  0  0  0  0  0  0  0  0  0  0  0
  -27.6731    7.8449   25.7193 H   0  0  0  0  0  0  0  0  0  0  0  0
  -26.5392    7.8233   22.3893 H   0  0  0  0  0  0  0  0  0  0  0  0
  1  2  2  0  0  0  0
  1  6  1  0  0  0  0
  1 13  1  0  0  0  0
  2  3  1  0  0  0  0
  2 23  1  0  0  0  0
  3  4  2  0  0  0  0
  3 24  1  0  0  0  0
  4  5  1  0  0  0  0
  4 25  1  0  0  0  0
  5  6  2  0  0  0  0
  5  7  1  0  0  0  0
  6  9  1  0  0  0  0
  7  8  1  0  0  0  0
  7 12  2  0  0  0  0
  8  9  1  0  0  0  0
  8 10  1  0  0  0  0
  9 11  2  0  0  0  0
 10 14  2  0  0  0  0
 10 18  1  0  0  0  0
 13 26  1  0  0  0  0
 13 27  1  0  0  0  0
 13 28  1  0  0  0  0
 14 15  1  0  0  0  0
 14 29  1  0  0  0  0
 15 16  2  0  0  0  0
 15 30  1  0  0  0  0
 16 17  1  0  0  0  0
 16 20  1  0  0  0  0
 17 18  2  0  0  0  0
 17 19  1  0  0  0  0
 18 31  1  0  0  0  0
 19 32  1  0  0  0  0
 20 21  1  0  0  0  0
 20 22  2  0  0  0  0
M  CHG  1  21  -1
M  END
