3ik3_ligand
 OpenBabel08222323343D

 68 72  0  0  1  0  0  0  0  0999 V2000
    4.0990   -7.3350   13.8870 N   0  0  0  0  0  0  0  0  0  0  0  0
    7.3470    7.8260   19.1290 N   0  3  1  0  0  0  0  0  0  0  0  0
    3.1070   -2.6590   13.9120 C   0  0  0  0  0  0  0  0  0  0  0  0
    3.1220   -1.2140   13.7470 C   0  0  0  0  0  0  0  0  0  0  0  0
    2.5160   -0.5430   12.6120 C   0  0  0  0  0  0  0  0  0  0  0  0
    2.5780    0.8730   12.5170 C   0  0  0  0  0  0  0  0  0  0  0  0
    3.2500    1.6510   13.5530 C   0  0  0  0  0  0  0  0  0  0  0  0
    3.7740   -0.4660   14.7530 C   0  0  0  0  0  0  0  0  0  0  0  0
    5.5010    3.8910   16.4100 C   0  0  0  0  0  0  0  0  0  0  0  0
    6.1520    6.1920   16.9990 C   0  0  0  0  0  0  0  0  0  0  0  0
    7.4800    4.2940   17.8870 C   0  0  0  0  0  0  0  0  0  0  0  0
    8.1170    6.7780   18.4880 C   0  0  0  0  0  0  0  0  0  0  0  0
    6.4910    7.3580   20.2460 C   0  0  0  0  0  0  0  0  0  0  0  0
    5.6030    8.5190   20.7640 C   0  0  0  0  0  0  0  0  0  0  0  0
    8.2400    8.9150   19.6120 C   0  0  0  0  0  0  0  0  0  0  0  0
    2.3430   -8.4240   15.3410 C   0  0  0  0  0  0  0  0  0  0  0  0
    1.2250   -8.1130   16.1130 C   0  0  0  0  0  0  0  0  0  0  0  0
    0.8010   -6.7460   16.2100 C   0  0  0  0  0  0  0  0  0  0  0  0
    1.3940   -5.7030   15.6090 N   0  0  0  0  0  0  0  0  0  0  0  0
    2.4850   -6.0670   14.8640 N   0  0  0  0  0  0  0  0  0  0  0  0
    3.0300   -7.3760   14.6720 C   0  0  0  0  0  0  0  0  0  0  0  0
    4.2680   -5.9990   13.5590 C   0  0  0  0  0  0  0  0  0  0  0  0
    3.2990   -5.2430   14.1420 C   0  0  0  0  0  0  0  0  0  0  0  0
    3.1670   -3.8530   14.0240 C   0  0  0  0  0  0  0  0  0  0  0  0
    3.8520    0.9650   14.6820 C   0  0  0  0  0  0  0  0  0  0  0  0
    1.8100   -1.3310   11.4990 C   0  0  0  0  0  0  0  0  0  0  0  0
    4.5590    1.6720   15.7800 C   0  0  0  0  0  0  0  0  0  0  0  0
    5.0710    1.0120   16.6910 O   0  0  0  0  0  0  0  0  0  0  0  0
    4.5940    3.0340   15.7100 N   0  0  0  0  0  0  0  0  0  0  0  0
    5.2890    5.2840   16.3210 C   0  0  0  0  0  0  0  0  0  0  0  0
    7.2440    5.7280   17.7840 C   0  0  0  0  0  0  0  0  0  0  0  0
    6.5970    3.4030   17.1950 C   0  0  0  0  0  0  0  0  0  0  0  0
    8.6180    3.7040   18.7050 C   0  0  0  0  0  0  0  0  0  0  0  0
    8.4180    3.9600   19.9890 F   0  0  0  0  0  0  0  0  0  0  0  0
    8.6970    2.3840   18.5830 F   0  0  0  0  0  0  0  0  0  0  0  0
    9.7910    4.2330   18.2900 F   0  0  0  0  0  0  0  0  0  0  0  0
    7.3860   10.1020   20.1030 C   0  0  0  0  0  0  0  0  0  0  0  0
    5.5690   10.8130   21.5730 C   0  0  0  0  0  0  0  0  0  0  0  0
    6.4250    9.6910   21.1710 N   0  3  1  0  0  0  0  0  0  0  0  0
    6.7362    8.2137   18.4271 H   0  0  0  0  0  0  0  0  0  0  0  0
    2.1244    1.3777   11.6717 H   0  0  0  0  0  0  0  0  0  0  0  0
    3.2992    2.7314   13.4801 H   0  0  0  0  0  0  0  0  0  0  0  0
    4.2233   -0.9825   15.5935 H   0  0  0  0  0  0  0  0  0  0  0  0
    5.9731    7.2579   16.9152 H   0  0  0  0  0  0  0  0  0  0  0  0
    8.7232    6.2717   19.2537 H   0  0  0  0  0  0  0  0  0  0  0  0
    8.7800    7.2387   17.7409 H   0  0  0  0  0  0  0  0  0  0  0  0
    7.1291    6.9954   21.0654 H   0  0  0  0  0  0  0  0  0  0  0  0
    5.8478    6.5388   19.8921 H   0  0  0  0  0  0  0  0  0  0  0  0
    5.0255    8.1682   21.6320 H   0  0  0  0  0  0  0  0  0  0  0  0
    4.9130    8.8262   19.9643 H   0  0  0  0  0  0  0  0  0  0  0  0
    8.8907    9.2472   18.7897 H   0  0  0  0  0  0  0  0  0  0  0  0
    8.8587    8.5410   20.4411 H   0  0  0  0  0  0  0  0  0  0  0  0
    2.6845   -9.4542   15.2521 H   0  0  0  0  0  0  0  0  0  0  0  0
    0.6803   -8.8977   16.6359 H   0  0  0  0  0  0  0  0  0  0  0  0
   -0.0750   -6.5373   16.8223 H   0  0  0  0  0  0  0  0  0  0  0  0
    5.0633   -5.6099   12.9249 H   0  0  0  0  0  0  0  0  0  0  0  0
    1.8528   -2.4062   11.7272 H   0  0  0  0  0  0  0  0  0  0  0  0
    2.3120   -1.1397   10.5391 H   0  0  0  0  0  0  0  0  0  0  0  0
    0.7594   -1.0117   11.4334 H   0  0  0  0  0  0  0  0  0  0  0  0
    3.9230    3.4746   15.1137 H   0  0  0  0  0  0  0  0  0  0  0  0
    4.4629    5.6656   15.7320 H   0  0  0  0  0  0  0  0  0  0  0  0
    6.7615    2.3340   17.2666 H   0  0  0  0  0  0  0  0  0  0  0  0
    6.8198   10.5091   19.2523 H   0  0  0  0  0  0  0  0  0  0  0  0
    8.0535   10.8786   20.5046 H   0  0  0  0  0  0  0  0  0  0  0  0
    4.8740   10.4809   22.3583 H   0  0  0  0  0  0  0  0  0  0  0  0
    4.9968   11.1678   20.7031 H   0  0  0  0  0  0  0  0  0  0  0  0
    6.1944   11.6314   21.9591 H   0  0  0  0  0  0  0  0  0  0  0  0
    6.9671    9.4162   21.9752 H   0  0  0  0  0  0  0  0  0  0  0  0
  1 21  2  0  0  0  0
  2 13  1  0  0  0  0
  2 15  1  0  0  0  0
  2 40  1  6  0  0  0
  3 24  3  0  0  0  0
  4  3  1  0  0  0  0
  4  5  2  0  0  0  0
  5 26  1  0  0  0  0
  6  5  1  0  0  0  0
  6 41  1  0  0  0  0
  7  6  2  0  0  0  0
  7 42  1  0  0  0  0
  8  4  1  0  0  0  0
  8 43  1  0  0  0  0
  9 30  2  0  0  0  0
  9 32  1  0  0  0  0
 10 31  2  0  0  0  0
 10 44  1  0  0  0  0
 11 31  1  0  0  0  0
 11 33  1  0  0  0  0
 12  2  1  0  0  0  0
 12 45  1  0  0  0  0
 12 46  1  0  0  0  0
 13 14  1  0  0  0  0
 13 47  1  0  0  0  0
 13 48  1  0  0  0  0
 14 39  1  0  0  0  0
 14 49  1  0  0  0  0
 14 50  1  0  0  0  0
 15 37  1  0  0  0  0
 15 51  1  0  0  0  0
 15 52  1  0  0  0  0
 16 17  2  0  0  0  0
 16 53  1  0  0  0  0
 17 54  1  0  0  0  0
 18 17  1  0  0  0  0
 18 55  1  0  0  0  0
 19 18  2  0  0  0  0
 20 19  1  0  0  0  0
 20 21  1  0  0  0  0
 21 16  1  0  0  0  0
 22  1  1  0  0  0  0
 22 56  1  0  0  0  0
 23 20  1  0  0  0  0
 23 22  2  0  0  0  0
 24 23  1  0  0  0  0
 25  7  1  0  0  0  0
 25  8  2  0  0  0  0
 26 57  1  0  0  0  0
 26 58  1  0  0  0  0
 26 59  1  0  0  0  0
 27 25  1  0  0  0  0
 27 28  2  0  0  0  0
 27 29  1  0  0  0  0
 29  9  1  0  0  0  0
 29 60  1  0  0  0  0
 30 10  1  0  0  0  0
 30 61  1  0  0  0  0
 31 12  1  0  0  0  0
 32 11  2  0  0  0  0
 32 62  1  0  0  0  0
 33 34  1  0  0  0  0
 33 35  1  0  0  0  0
 33 36  1  0  0  0  0
 37 39  1  0  0  0  0
 37 63  1  0  0  0  0
 37 64  1  0  0  0  0
 38 65  1  0  0  0  0
 38 66  1  0  0  0  0
 38 67  1  0  0  0  0
 39 38  1  0  0  0  0
 39 68  1  1  0  0  0
M  CHG  2   2   1  39   1
M  END
