3ind_ligand
 OpenBabel08222323343D

 50 54  0  0  1  0  0  0  0  0999 V2000
   16.2590   -4.1920   17.5680 C   0  0  0  0  0  0  0  0  0  0  0  0
   15.6120   -5.3650   16.9990 N   0  0  0  0  0  0  0  0  0  0  0  0
   14.8100   -6.3140   18.9480 O   0  0  0  0  0  0  0  0  0  0  0  0
   14.9550   -6.3110   17.7370 C   0  0  0  0  0  0  0  0  0  0  0  0
   15.0090   -6.8570   15.4540 N   0  0  0  0  0  0  0  0  0  0  0  0
   14.4230   -7.3640   16.7410 C   0  0  1  0  0  0  0  0  0  0  0  0
   16.3190   -5.0360   14.7640 N   0  0  0  0  0  0  0  0  0  0  0  0
   15.5610   -5.7040   15.6830 C   0  0  2  0  0  3  0  0  0  0  0  0
   14.9610   -8.7820   17.0190 C   0  0  0  0  0  0  0  0  0  0  0  0
   15.3160   -9.6540   15.9770 C   0  0  0  0  0  0  0  0  0  0  0  0
   15.8020  -10.9400   16.2310 C   0  0  0  0  0  0  0  0  0  0  0  0
   15.9450  -11.3890   17.5410 C   0  0  0  0  0  0  0  0  0  0  0  0
   15.6010  -10.5490   18.5930 C   0  0  0  0  0  0  0  0  0  0  0  0
   15.1140   -9.2630   18.3350 C   0  0  0  0  0  0  0  0  0  0  0  0
   12.8390   -7.2930   16.6110 C   0  0  1  0  0  0  0  0  0  0  0  0
   12.1320   -7.9440   17.8470 C   0  0  0  0  0  0  0  0  0  0  0  0
   10.5990   -7.8510   17.7390 C   0  0  1  0  0  0  0  0  0  0  0  0
   10.1800   -6.3760   17.6670 C   0  0  0  0  0  0  0  0  0  0  0  0
   10.8200   -5.7120   16.4390 C   0  0  1  0  0  0  0  0  0  0  0  0
   12.3510   -5.8080   16.5460 C   0  0  0  0  0  0  0  0  0  0  0  0
   10.3670   -6.4330   15.1620 C   0  0  0  0  0  0  0  0  0  0  0  0
   10.7720   -7.9110   15.2290 C   0  0  2  0  0  0  0  0  0  0  0  0
   10.1360   -8.5670   16.4630 C   0  0  0  0  0  0  0  0  0  0  0  0
   12.3050   -8.0130   15.3360 C   0  0  0  0  0  0  0  0  0  0  0  0
   16.1283   -4.1948   18.6602 H   0  0  0  0  0  0  0  0  0  0  0  0
   15.8056   -3.2826   17.1468 H   0  0  0  0  0  0  0  0  0  0  0  0
   17.3321   -4.2121   17.3271 H   0  0  0  0  0  0  0  0  0  0  0  0
   14.9782   -7.3411   14.5454 H   0  0  0  0  0  0  0  0  0  0  0  0
   16.7320   -4.1232   15.0028 H   0  0  0  0  0  0  0  0  0  0  0  0
   16.4776   -5.4451   13.8321 H   0  0  0  0  0  0  0  0  0  0  0  0
   15.2106   -9.3218   14.9505 H   0  0  0  0  0  0  0  0  0  0  0  0
   16.0684  -11.5897   15.4052 H   0  0  0  0  0  0  0  0  0  0  0  0
   16.3217  -12.3860   17.7387 H   0  0  0  0  0  0  0  0  0  0  0  0
   15.7102  -10.8908   19.6159 H   0  0  0  0  0  0  0  0  0  0  0  0
   14.8480   -8.6212   19.1671 H   0  0  0  0  0  0  0  0  0  0  0  0
   12.4575   -7.4230   18.7595 H   0  0  0  0  0  0  0  0  0  0  0  0
   12.4217   -9.0035   17.9065 H   0  0  0  0  0  0  0  0  0  0  0  0
   10.1373   -8.3245   18.6180 H   0  0  0  0  0  0  0  0  0  0  0  0
   10.5132   -5.8570   18.5778 H   0  0  0  0  0  0  0  0  0  0  0  0
    9.0848   -6.3110   17.5878 H   0  0  0  0  0  0  0  0  0  0  0  0
   10.5172   -4.6555   16.3935 H   0  0  0  0  0  0  0  0  0  0  0  0
   12.8000   -5.3242   15.6660 H   0  0  0  0  0  0  0  0  0  0  0  0
   12.6772   -5.2862   17.4577 H   0  0  0  0  0  0  0  0  0  0  0  0
   10.8430   -5.9631   14.2888 H   0  0  0  0  0  0  0  0  0  0  0  0
    9.2736   -6.3578   15.0683 H   0  0  0  0  0  0  0  0  0  0  0  0
   10.4298   -8.4276   14.3201 H   0  0  0  0  0  0  0  0  0  0  0  0
    9.0407   -8.5012   16.3860 H   0  0  0  0  0  0  0  0  0  0  0  0
   10.4375   -9.6238   16.5091 H   0  0  0  0  0  0  0  0  0  0  0  0
   12.5902   -9.0745   15.3793 H   0  0  0  0  0  0  0  0  0  0  0  0
   12.7568   -7.5479   14.4474 H   0  0  0  0  0  0  0  0  0  0  0  0
  1  2  1  0  0  0  0
  1 25  1  0  0  0  0
  1 26  1  0  0  0  0
  1 27  1  0  0  0  0
  2  4  1  0  0  0  0
  2  8  1  0  0  0  0
  4  3  2  0  0  0  0
  4  6  1  0  0  0  0
  5  8  1  0  0  0  0
  5 28  1  0  0  0  0
  6  5  1  0  0  0  0
  6  9  1  1  0  0  0
  6 15  1  0  0  0  0
  7 29  1  0  0  0  0
  7 30  1  0  0  0  0
  8  7  1  1  0  0  0
  9 10  2  0  0  0  0
  9 14  1  0  0  0  0
 10 11  1  0  0  0  0
 10 31  1  0  0  0  0
 11 12  2  0  0  0  0
 11 32  1  0  0  0  0
 12 13  1  0  0  0  0
 12 33  1  0  0  0  0
 13 14  2  0  0  0  0
 13 34  1  0  0  0  0
 14 35  1  0  0  0  0
 15 16  1  1  0  0  0
 15 20  1  0  0  0  0
 15 24  1  0  0  0  0
 16 17  1  0  0  0  0
 16 36  1  0  0  0  0
 16 37  1  0  0  0  0
 17 18  1  0  0  0  0
 17 23  1  0  0  0  0
 17 38  1  1  0  0  0
 18 19  1  0  0  0  0
 18 39  1  0  0  0  0
 18 40  1  0  0  0  0
 19 20  1  0  0  0  0
 19 21  1  0  0  0  0
 19 41  1  6  0  0  0
 20 42  1  0  0  0  0
 20 43  1  0  0  0  0
 21 22  1  0  0  0  0
 21 44  1  0  0  0  0
 21 45  1  0  0  0  0
 22 23  1  0  0  0  0
 22 24  1  0  0  0  0
 22 46  1  6  0  0  0
 23 47  1  0  0  0  0
 23 48  1  0  0  0  0
 24 49  1  0  0  0  0
 24 50  1  0  0  0  0
M  END
