3ipa_ligand
 OpenBabel08222323343D

 13 12  0  0  1  0  0  0  0  0999 V2000
   23.2250   18.7540   16.8420 N   0  3  0  0  0  0  0  0  0  0  0  0
   23.4190   18.6240   18.2810 C   0  0  2  0  0  0  0  0  0  0  0  0
   23.0750   17.2090   18.7360 C   0  0  0  0  0  0  0  0  0  0  0  0
   23.2120   16.8440   19.9100 O   0  5  0  0  0  0  0  0  0  0  0  0
   22.5680   19.6480   19.0170 C   0  0  0  0  0  0  0  0  0  0  0  0
   22.6530   16.3910   17.9150 O   0  0  0  0  0  0  0  0  0  0  0  0
   23.4556   19.6925   16.5553 H   0  0  0  0  0  0  0  0  0  0  0  0
   22.2626   18.5599   16.6138 H   0  0  0  0  0  0  0  0  0  0  0  0
   23.8227   18.0996   16.3619 H   0  0  0  0  0  0  0  0  0  0  0  0
   24.4769   18.8174   18.5119 H   0  0  0  0  0  0  0  0  0  0  0  0
   22.7217   19.5414   20.1010 H   0  0  0  0  0  0  0  0  0  0  0  0
   21.5070   19.4820   18.7791 H   0  0  0  0  0  0  0  0  0  0  0  0
   22.8600   20.6610   18.7032 H   0  0  0  0  0  0  0  0  0  0  0  0
  1  2  1  0  0  0  0
  1  7  1  0  0  0  0
  1  8  1  0  0  0  0
  1  9  1  0  0  0  0
  2  3  1  0  0  0  0
  2  5  1  0  0  0  0
  2 10  1  1  0  0  0
  3  4  1  0  0  0  0
  3  6  2  0  0  0  0
  5 11  1  0  0  0  0
  5 12  1  0  0  0  0
  5 13  1  0  0  0  0
M  CHG  2   1   1   4  -1
M  END
