3ipb_ligand
 OpenBabel08222323343D

 85 88  0  0  0  0  0  0  0  0999 V2000
   19.0260   45.3840   64.0310 O   0  5  0  0  0  0  0  0  0  0  0  0
   23.2920   43.2810   33.3820 O   0  5  0  0  0  0  0  0  0  0  0  0
   18.8520   43.6890   65.4620 O   0  0  0  0  0  0  0  0  0  0  0  0
   23.3450   43.8680   35.5360 O   0  0  0  0  0  0  0  0  0  0  0  0
   19.8540   43.8850   58.8970 Cl  0  0  0  0  0  0  0  0  0  0  0  0
   23.8960   40.3090   60.2760 Cl  0  0  0  0  0  0  0  0  0  0  0  0
   21.9550   45.0740   41.6060 Cl  0  0  0  0  0  0  0  0  0  0  0  0
   20.8970   39.6190   41.4380 Cl  0  0  0  0  0  0  0  0  0  0  0  0
   23.7510   44.0030   64.9520 C   0  0  0  0  0  0  0  0  0  0  0  0
   19.3920   40.8250   35.3070 C   0  0  0  0  0  0  0  0  0  0  0  0
   23.0860   45.0690   65.5160 C   0  0  0  0  0  0  0  0  0  0  0  0
   19.7240   41.1920   34.0060 C   0  0  0  0  0  0  0  0  0  0  0  0
   23.0070   43.0570   64.2800 C   0  0  0  0  0  0  0  0  0  0  0  0
   20.1730   41.2340   36.3910 C   0  0  0  0  0  0  0  0  0  0  0  0
   21.7150   45.2410   65.4590 C   0  0  0  0  0  0  0  0  0  0  0  0
   20.8510   41.9790   33.8000 C   0  0  0  0  0  0  0  0  0  0  0  0
   20.4780   43.0140   61.3490 C   0  0  0  0  0  0  0  0  0  0  0  0
   22.2240   41.4740   61.8420 C   0  0  0  0  0  0  0  0  0  0  0  0
   21.9680   43.5180   39.3860 C   0  0  0  0  0  0  0  0  0  0  0  0
   21.5400   41.1680   39.2720 C   0  0  0  0  0  0  0  0  0  0  0  0
   21.2180   42.5120   50.5820 C   0  0  0  0  0  0  0  0  0  0  0  0
   21.4320   41.6590   51.8970 C   0  0  0  0  0  0  0  0  0  0  0  0
   22.0430   42.0770   49.3230 C   0  0  0  0  0  0  0  0  0  0  0  0
   21.4250   42.5100   53.2030 C   0  0  0  0  0  0  0  0  0  0  0  0
   21.4050   42.3710   47.9480 C   0  0  0  0  0  0  0  0  0  0  0  0
   21.1500   41.6960   54.4980 C   0  0  0  0  0  0  0  0  0  0  0  0
   22.2680   42.0370   46.6430 C   0  0  0  0  0  0  0  0  0  0  0  0
   21.5420   42.5100   55.7710 C   0  0  0  0  0  0  0  0  0  0  0  0
   21.3950   42.2600   45.3370 C   0  0  0  0  0  0  0  0  0  0  0  0
   21.0870   41.9320   57.1530 C   0  0  0  0  0  0  0  0  0  0  0  0
   22.1170   42.4730   43.9650 C   0  0  0  0  0  0  0  0  0  0  0  0
   20.9320   42.3170   63.5560 N   0  0  0  0  0  0  0  0  0  0  0  0
   22.0900   42.4450   37.2470 N   0  0  0  0  0  0  0  0  0  0  0  0
   22.1490   42.0710   58.1820 O   0  0  0  0  0  0  0  0  0  0  0  0
   21.1990   42.2350   42.7940 O   0  0  0  0  0  0  0  0  0  0  0  0
   19.5010   44.4650   64.7320 C   0  0  0  0  0  0  0  0  0  0  0  0
   22.8500   43.2480   34.5670 C   0  0  0  0  0  0  0  0  0  0  0  0
   21.1910   42.2670   62.2690 C   0  0  0  0  0  0  0  0  0  0  0  0
   21.8450   42.3610   38.5980 C   0  0  0  0  0  0  0  0  0  0  0  0
   20.7930   42.9380   59.9900 C   0  0  0  0  0  0  0  0  0  0  0  0
   22.5620   41.3860   60.5050 C   0  0  0  0  0  0  0  0  0  0  0  0
   21.7650   43.5400   40.7700 C   0  0  0  0  0  0  0  0  0  0  0  0
   21.3180   41.1370   40.6590 C   0  0  0  0  0  0  0  0  0  0  0  0
   21.6310   43.2120   64.2150 C   0  0  0  0  0  0  0  0  0  0  0  0
   21.3040   42.0260   36.2030 C   0  0  0  0  0  0  0  0  0  0  0  0
   20.9930   44.2990   64.7830 C   0  0  0  0  0  0  0  0  0  0  0  0
   21.6280   42.3910   34.8780 C   0  0  0  0  0  0  0  0  0  0  0  0
   21.8390   42.1190   59.5270 C   0  0  0  0  0  0  0  0  0  0  0  0
   21.4510   42.3210   41.4280 C   0  0  0  0  0  0  0  0  0  0  0  0
   24.8279   43.9106   65.0341 H   0  0  0  0  0  0  0  0  0  0  0  0
   18.5146   40.2129   35.4818 H   0  0  0  0  0  0  0  0  0  0  0  0
   23.6723   45.8181   66.0357 H   0  0  0  0  0  0  0  0  0  0  0  0
   19.1150   40.8700   33.1691 H   0  0  0  0  0  0  0  0  0  0  0  0
   23.4893   42.2071   63.8108 H   0  0  0  0  0  0  0  0  0  0  0  0
   19.8948   40.9305   37.3938 H   0  0  0  0  0  0  0  0  0  0  0  0
   21.2329   46.0891   65.9317 H   0  0  0  0  0  0  0  0  0  0  0  0
   21.1261   42.2734   32.7937 H   0  0  0  0  0  0  0  0  0  0  0  0
   19.6736   43.6594   61.6828 H   0  0  0  0  0  0  0  0  0  0  0  0
   22.7889   40.9027   62.5698 H   0  0  0  0  0  0  0  0  0  0  0  0
   22.2353   44.4460   38.8936 H   0  0  0  0  0  0  0  0  0  0  0  0
   21.4739   40.2453   38.7068 H   0  0  0  0  0  0  0  0  0  0  0  0
   21.4851   43.5539   50.8126 H   0  0  0  0  0  0  0  0  0  0  0  0
   20.1516   42.4567   50.3179 H   0  0  0  0  0  0  0  0  0  0  0  0
   22.4012   41.1440   51.8232 H   0  0  0  0  0  0  0  0  0  0  0  0
   20.6251   40.9144   51.9633 H   0  0  0  0  0  0  0  0  0  0  0  0
   22.2081   40.9915   49.3899 H   0  0  0  0  0  0  0  0  0  0  0  0
   23.0110   42.5982   49.3609 H   0  0  0  0  0  0  0  0  0  0  0  0
   20.6447   43.2795   53.1081 H   0  0  0  0  0  0  0  0  0  0  0  0
   22.4075   42.9944   53.3033 H   0  0  0  0  0  0  0  0  0  0  0  0
   21.1668   43.4445   47.9188 H   0  0  0  0  0  0  0  0  0  0  0  0
   20.4749   41.7871   47.8854 H   0  0  0  0  0  0  0  0  0  0  0  0
   21.7395   40.7677   54.4702 H   0  0  0  0  0  0  0  0  0  0  0  0
   20.0792   41.4490   54.5459 H   0  0  0  0  0  0  0  0  0  0  0  0
   22.5986   40.9887   46.6844 H   0  0  0  0  0  0  0  0  0  0  0  0
   23.1469   42.6976   46.6097 H   0  0  0  0  0  0  0  0  0  0  0  0
   21.1037   43.5139   55.6708 H   0  0  0  0  0  0  0  0  0  0  0  0
   22.6390   42.5890   55.7895 H   0  0  0  0  0  0  0  0  0  0  0  0
   20.7723   43.1493   45.5142 H   0  0  0  0  0  0  0  0  0  0  0  0
   20.7493   41.3763   45.2269 H   0  0  0  0  0  0  0  0  0  0  0  0
   20.8454   40.8658   57.0316 H   0  0  0  0  0  0  0  0  0  0  0  0
   20.1914   42.4749   57.4893 H   0  0  0  0  0  0  0  0  0  0  0  0
   22.9640   41.7743   43.8985 H   0  0  0  0  0  0  0  0  0  0  0  0
   22.4899   43.5068   43.9180 H   0  0  0  0  0  0  0  0  0  0  0  0
   20.2387   41.7054   64.0100 H   0  0  0  0  0  0  0  0  0  0  0  0
   22.9848   42.8816   36.9832 H   0  0  0  0  0  0  0  0  0  0  0  0
  9 11  2  0  0  0  0
  9 50  1  0  0  0  0
 10 12  2  0  0  0  0
 10 51  1  0  0  0  0
 11 15  1  0  0  0  0
 11 52  1  0  0  0  0
 12 16  1  0  0  0  0
 12 53  1  0  0  0  0
 13  9  1  0  0  0  0
 13 54  1  0  0  0  0
 14 10  1  0  0  0  0
 14 55  1  0  0  0  0
 15 46  2  0  0  0  0
 15 56  1  0  0  0  0
 16 47  2  0  0  0  0
 16 57  1  0  0  0  0
 17 38  2  0  0  0  0
 17 58  1  0  0  0  0
 18 38  1  0  0  0  0
 18 59  1  0  0  0  0
 19 39  2  0  0  0  0
 19 60  1  0  0  0  0
 20 43  2  0  0  0  0
 20 61  1  0  0  0  0
 21 22  1  0  0  0  0
 21 62  1  0  0  0  0
 21 63  1  0  0  0  0
 22 24  1  0  0  0  0
 22 64  1  0  0  0  0
 22 65  1  0  0  0  0
 23 21  1  0  0  0  0
 23 66  1  0  0  0  0
 23 67  1  0  0  0  0
 24 26  1  0  0  0  0
 24 68  1  0  0  0  0
 24 69  1  0  0  0  0
 25 23  1  0  0  0  0
 25 70  1  0  0  0  0
 25 71  1  0  0  0  0
 26 28  1  0  0  0  0
 26 72  1  0  0  0  0
 26 73  1  0  0  0  0
 27 25  1  0  0  0  0
 27 74  1  0  0  0  0
 27 75  1  0  0  0  0
 28 30  1  0  0  0  0
 28 76  1  0  0  0  0
 28 77  1  0  0  0  0
 29 27  1  0  0  0  0
 29 78  1  0  0  0  0
 29 79  1  0  0  0  0
 30 34  1  0  0  0  0
 30 80  1  0  0  0  0
 30 81  1  0  0  0  0
 31 29  1  0  0  0  0
 31 82  1  0  0  0  0
 31 83  1  0  0  0  0
 32 44  1  0  0  0  0
 32 84  1  0  0  0  0
 33 45  1  0  0  0  0
 33 85  1  0  0  0  0
 34 48  1  0  0  0  0
 35 31  1  0  0  0  0
 36  1  1  0  0  0  0
 36  3  2  0  0  0  0
 37  2  1  0  0  0  0
 37  4  2  0  0  0  0
 38 32  1  0  0  0  0
 39 20  1  0  0  0  0
 39 33  1  0  0  0  0
 40  5  1  0  0  0  0
 40 17  1  0  0  0  0
 41  6  1  0  0  0  0
 41 18  2  0  0  0  0
 42  7  1  0  0  0  0
 42 19  1  0  0  0  0
 42 49  2  0  0  0  0
 43  8  1  0  0  0  0
 43 49  1  0  0  0  0
 44 13  2  0  0  0  0
 44 46  1  0  0  0  0
 45 14  2  0  0  0  0
 45 47  1  0  0  0  0
 46 36  1  0  0  0  0
 47 37  1  0  0  0  0
 48 40  2  0  0  0  0
 48 41  1  0  0  0  0
 49 35  1  0  0  0  0
M  CHG  2   1  -1   2  -1
M  END
