3iqg_ligand
 OpenBabel08222323343D

 74 75  0  0  1  0  0  0  0  0999 V2000
   20.1290    3.6680   44.6890 N   0  3  0  0  0  0  0  0  0  0  0  0
   20.2480    4.4650   43.4260 C   0  0  2  0  0  0  0  0  0  0  0  0
   20.6970    3.5960   42.2510 C   0  0  0  0  0  0  0  0  0  0  0  0
   20.5100    3.9700   41.0880 O   0  0  0  0  0  0  0  0  0  0  0  0
   21.1770    5.6770   43.6070 C   0  0  0  0  0  0  0  0  0  0  0  0
   22.4540    5.3390   44.3740 C   0  0  0  0  0  0  0  0  0  0  0  0
   22.4830    4.4120   45.1930 O   0  0  0  0  0  0  0  0  0  0  0  0
   23.5150    6.1050   44.1250 N   0  0  0  0  0  0  0  0  0  0  0  0
   21.2790    2.4390   42.5680 N   0  0  0  0  0  0  0  0  0  0  0  0
   21.6280    1.4290   41.5620 C   0  0  2  0  0  0  0  0  0  0  0  0
   20.4930    0.4130   41.3700 C   0  0  0  0  0  0  0  0  0  0  0  0
   20.5750   -0.4630   40.5000 O   0  0  0  0  0  0  0  0  0  0  0  0
   22.9220    0.6900   41.9400 C   0  0  0  0  0  0  0  0  0  0  0  0
   24.1360    1.5680   42.1060 C   0  0  0  0  0  0  0  0  0  0  0  0
   24.2570    2.8920   41.7640 C   0  0  0  0  0  0  0  0  0  0  0  0
   25.4190    1.1680   42.6240 C   0  0  0  0  0  0  0  0  0  0  0  0
   25.5250    3.3400   42.0540 N   0  0  0  0  0  0  0  0  0  0  0  0
   26.2630    2.3060   42.5740 C   0  0  0  0  0  0  0  0  0  0  0  0
   25.9340   -0.0390   43.1290 C   0  0  0  0  0  0  0  0  0  0  0  0
   27.6010    2.2730   43.0090 C   0  0  0  0  0  0  0  0  0  0  0  0
   27.2640   -0.0720   43.5630 C   0  0  0  0  0  0  0  0  0  0  0  0
   28.0800    1.0840   43.5000 C   0  0  0  0  0  0  0  0  0  0  0  0
   19.4490    0.5150   42.1930 N   0  0  0  0  0  0  0  0  0  0  0  0
   18.2720   -0.3360   42.0150 C   0  0  2  0  0  0  0  0  0  0  0  0
   17.3950    0.2290   40.8910 C   0  0  0  0  0  0  0  0  0  0  0  0
   16.4160    0.9510   41.1180 O   0  0  0  0  0  0  0  0  0  0  0  0
   17.5010   -0.5310   43.3180 C   0  0  0  0  0  0  0  0  0  0  0  0
   16.6470   -1.7940   43.3100 C   0  0  0  0  0  0  0  0  0  0  0  0
   16.9960   -2.8090   42.6800 O   0  0  0  0  0  0  0  0  0  0  0  0
   15.5160   -1.7370   44.0060 N   0  0  0  0  0  0  0  0  0  0  0  0
   17.7980   -0.0880   39.6650 N   0  0  0  0  0  0  0  0  0  0  0  0
   17.1540    0.4080   38.4580 C   0  0  2  0  0  0  0  0  0  0  0  0
   16.4540   -0.7850   37.7910 C   0  0  0  0  0  0  0  0  0  0  0  0
   16.8610   -1.9300   37.9780 O   0  5  0  0  0  0  0  0  0  0  0  0
   18.2000    1.1310   37.5540 C   0  0  2  0  0  0  0  0  0  0  0  0
   18.3330    2.6010   38.0010 C   0  0  0  0  0  0  0  0  0  0  0  0
   17.8410    1.0360   36.0890 C   0  0  0  0  0  0  0  0  0  0  0  0
   19.5350    3.3640   37.4130 C   0  0  0  0  0  0  0  0  0  0  0  0
   15.4410   -0.6400   37.1060 O   0  0  0  0  0  0  0  0  0  0  0  0
   19.8320    4.2711   45.4401 H   0  0  0  0  0  0  0  0  0  0  0  0
   21.0238    3.2636   44.9167 H   0  0  0  0  0  0  0  0  0  0  0  0
   19.4511    2.9332   44.5601 H   0  0  0  0  0  0  0  0  0  0  0  0
   19.2462    4.8508   43.1863 H   0  0  0  0  0  0  0  0  0  0  0  0
   20.6324    6.4572   44.1590 H   0  0  0  0  0  0  0  0  0  0  0  0
   21.4551    6.0574   42.6131 H   0  0  0  0  0  0  0  0  0  0  0  0
   24.3791    5.9313   44.5974 H   0  0  0  0  0  0  0  0  0  0  0  0
   23.4474    6.8538   43.4656 H   0  0  0  0  0  0  0  0  0  0  0  0
   21.4857    2.2522   43.5284 H   0  0  0  0  0  0  0  0  0  0  0  0
   21.7928    1.9466   40.6055 H   0  0  0  0  0  0  0  0  0  0  0  0
   23.1382   -0.0441   41.1498 H   0  0  0  0  0  0  0  0  0  0  0  0
   22.7489    0.1649   42.8910 H   0  0  0  0  0  0  0  0  0  0  0  0
   23.4652    3.4988   41.3271 H   0  0  0  0  0  0  0  0  0  0  0  0
   25.8667    4.3001   41.9045 H   0  0  0  0  0  0  0  0  0  0  0  0
   25.3133   -0.9261   43.1811 H   0  0  0  0  0  0  0  0  0  0  0  0
   28.2303    3.1542   42.9582 H   0  0  0  0  0  0  0  0  0  0  0  0
   27.6757   -0.9958   43.9531 H   0  0  0  0  0  0  0  0  0  0  0  0
   29.1054    1.0285   43.8472 H   0  0  0  0  0  0  0  0  0  0  0  0
   19.4706    1.1799   42.9396 H   0  0  0  0  0  0  0  0  0  0  0  0
   18.6228   -1.3285   41.6957 H   0  0  0  0  0  0  0  0  0  0  0  0
   16.8439    0.3376   43.4721 H   0  0  0  0  0  0  0  0  0  0  0  0
   18.2210   -0.5978   44.1469 H   0  0  0  0  0  0  0  0  0  0  0  0
   14.9102   -2.5318   44.0416 H   0  0  0  0  0  0  0  0  0  0  0  0
   15.2709   -0.8993   44.4940 H   0  0  0  0  0  0  0  0  0  0  0  0
   18.5839   -0.6985   39.5669 H   0  0  0  0  0  0  0  0  0  0  0  0
   16.3865    1.1452   38.7362 H   0  0  0  0  0  0  0  0  0  0  0  0
   19.1732    0.6379   37.6942 H   0  0  0  0  0  0  0  0  0  0  0  0
   18.4251    2.6155   39.0970 H   0  0  0  0  0  0  0  0  0  0  0  0
   17.4161    3.1307   37.7030 H   0  0  0  0  0  0  0  0  0  0  0  0
   17.7535   -0.0220   35.8008 H   0  0  0  0  0  0  0  0  0  0  0  0
   18.6266    1.5161   35.4871 H   0  0  0  0  0  0  0  0  0  0  0  0
   16.8817    1.5446   35.9128 H   0  0  0  0  0  0  0  0  0  0  0  0
   19.5360    4.3960   37.7937 H   0  0  0  0  0  0  0  0  0  0  0  0
   19.4592    3.3781   36.3157 H   0  0  0  0  0  0  0  0  0  0  0  0
   20.4682    2.8629   37.7097 H   0  0  0  0  0  0  0  0  0  0  0  0
  1  2  1  0  0  0  0
  1 40  1  0  0  0  0
  1 41  1  0  0  0  0
  1 42  1  0  0  0  0
  2  3  1  0  0  0  0
  2  5  1  0  0  0  0
  2 43  1  6  0  0  0
  3  4  2  0  0  0  0
  3  9  1  0  0  0  0
  5  6  1  0  0  0  0
  5 44  1  0  0  0  0
  5 45  1  0  0  0  0
  6  7  2  0  0  0  0
  6  8  1  0  0  0  0
  8 46  1  0  0  0  0
  8 47  1  0  0  0  0
  9 10  1  0  0  0  0
  9 48  1  0  0  0  0
 10 11  1  0  0  0  0
 10 13  1  0  0  0  0
 10 49  1  6  0  0  0
 11 12  2  0  0  0  0
 11 23  1  0  0  0  0
 13 14  1  0  0  0  0
 13 50  1  0  0  0  0
 13 51  1  0  0  0  0
 14 15  2  0  0  0  0
 14 16  1  0  0  0  0
 15 17  1  0  0  0  0
 15 52  1  0  0  0  0
 16 18  2  0  0  0  0
 16 19  1  0  0  0  0
 17 18  1  0  0  0  0
 17 53  1  0  0  0  0
 18 20  1  0  0  0  0
 19 21  2  0  0  0  0
 19 54  1  0  0  0  0
 20 22  2  0  0  0  0
 20 55  1  0  0  0  0
 21 22  1  0  0  0  0
 21 56  1  0  0  0  0
 22 57  1  0  0  0  0
 23 24  1  0  0  0  0
 23 58  1  0  0  0  0
 24 25  1  0  0  0  0
 24 27  1  0  0  0  0
 24 59  1  6  0  0  0
 25 26  2  0  0  0  0
 25 31  1  0  0  0  0
 27 28  1  0  0  0  0
 27 60  1  0  0  0  0
 27 61  1  0  0  0  0
 28 29  2  0  0  0  0
 28 30  1  0  0  0  0
 30 62  1  0  0  0  0
 30 63  1  0  0  0  0
 31 32  1  0  0  0  0
 31 64  1  0  0  0  0
 32 33  1  0  0  0  0
 32 35  1  0  0  0  0
 32 65  1  1  0  0  0
 33 34  1  0  0  0  0
 33 39  2  0  0  0  0
 35 36  1  0  0  0  0
 35 37  1  0  0  0  0
 35 66  1  1  0  0  0
 36 38  1  0  0  0  0
 36 67  1  0  0  0  0
 36 68  1  0  0  0  0
 37 69  1  0  0  0  0
 37 70  1  0  0  0  0
 37 71  1  0  0  0  0
 38 72  1  0  0  0  0
 38 73  1  0  0  0  0
 38 74  1  0  0  0  0
M  CHG  2   1   1  34  -1
M  END
