3itc_ligand
 OpenBabel08222323343D

 18 17  0  0  0  0  0  0  0  0999 V2000
  -27.9770  -31.5900  -20.4630 C   0  0  0  0  0  0  0  0  0  0  0  0
  -27.5540  -30.7200  -19.7370 O   0  5  0  0  0  0  0  0  0  0  0  0
  -27.9350  -32.8590  -20.0260 O   0  0  0  0  0  0  0  0  0  0  0  0
  -28.6110  -31.3000  -21.7880 C   0  0  0  0  0  0  0  0  0  0  0  0
  -28.1080  -29.9680  -22.3480 C   0  0  0  0  0  0  0  0  0  0  0  0
  -26.6880  -29.8960  -22.4170 O   0  0  0  0  0  0  0  0  0  0  0  0
  -28.6510  -29.7840  -23.7770 C   0  0  0  0  0  0  0  0  0  0  0  0
  -28.1970  -31.0040  -24.5490 C   0  0  0  0  0  0  0  0  0  0  0  0
  -27.0200  -31.2720  -24.6350 O   0  5  0  0  0  0  0  0  0  0  0  0
  -29.1260  -31.7150  -25.2040 O   0  0  0  0  0  0  0  0  0  0  0  0
  -28.7050  -28.8240  -21.5530 C   0  0  0  0  0  0  0  0  0  0  0  0
  -28.0020  -27.9170  -21.1660 O   0  5  0  0  0  0  0  0  0  0  0  0
  -30.0160  -28.9040  -21.2880 O   0  0  0  0  0  0  0  0  0  0  0  0
  -29.7027  -31.2498  -21.6628 H   0  0  0  0  0  0  0  0  0  0  0  0
  -28.3594  -32.1061  -22.4929 H   0  0  0  0  0  0  0  0  0  0  0  0
  -26.3640  -30.5883  -22.9812 H   0  0  0  0  0  0  0  0  0  0  0  0
  -28.2393  -28.8694  -24.2288 H   0  0  0  0  0  0  0  0  0  0  0  0
  -29.7493  -29.7248  -23.7651 H   0  0  0  0  0  0  0  0  0  0  0  0
  1  2  1  0  0  0  0
  1  3  2  0  0  0  0
  1  4  1  0  0  0  0
  4  5  1  0  0  0  0
  4 14  1  0  0  0  0
  4 15  1  0  0  0  0
  5  6  1  0  0  0  0
  5  7  1  0  0  0  0
  5 11  1  0  0  0  0
  6 16  1  0  0  0  0
  7  8  1  0  0  0  0
  7 17  1  0  0  0  0
  7 18  1  0  0  0  0
  8  9  1  0  0  0  0
  8 10  2  0  0  0  0
 11 12  1  0  0  0  0
 11 13  2  0  0  0  0
M  CHG  3   2  -1   9  -1  12  -1
M  END
