3itu_ligand
 OpenBabel08222323343D

 30 31  0  0  0  0  0  0  0  0999 V2000
   10.0430   -6.4090   -6.2220 N   0  0  0  0  0  0  0  0  0  0  0  0
   10.5860   -6.8080   -7.4800 C   0  0  0  0  0  0  0  0  0  0  0  0
    9.8290   -6.3660   -8.5440 N   0  0  0  0  0  0  0  0  0  0  0  0
    8.7620   -5.7220   -7.9230 C   0  0  0  0  0  0  0  0  0  0  0  0
    8.9470   -5.7620   -6.5670 C   0  0  0  0  0  0  0  0  0  0  0  0
    8.0780   -5.2310   -5.6650 N   0  0  0  0  0  0  0  0  0  0  0  0
    6.9930   -4.6100   -6.0990 C   0  0  0  0  0  0  0  0  0  0  0  0
    6.7490   -4.4950   -7.4050 N   0  0  0  0  0  0  0  0  0  0  0  0
    7.6290   -5.0500   -8.3500 C   0  0  0  0  0  0  0  0  0  0  0  0
    7.3730   -4.9740   -9.5670 O   0  0  0  0  0  0  0  0  0  0  0  0
    6.2310   -4.1510   -5.2150 O   0  0  0  0  0  0  0  0  0  0  0  0
    5.5100   -3.7990   -7.8080 C   0  0  0  0  0  0  0  0  0  0  0  0
    8.3260   -5.3180   -4.2240 C   0  0  0  0  0  0  0  0  0  0  0  0
    9.3130   -4.2460   -3.7330 C   0  0  0  0  0  0  0  0  0  0  0  0
    8.9320   -2.7680   -3.9360 C   0  0  0  0  0  0  0  0  0  0  0  0
    9.5970   -4.5510   -2.2470 C   0  0  0  0  0  0  0  0  0  0  0  0
   10.4153   -6.5834   -5.2776 H   0  0  0  0  0  0  0  0  0  0  0  0
   11.4964   -7.3958   -7.5874 H   0  0  0  0  0  0  0  0  0  0  0  0
    4.9785   -3.4477   -6.9112 H   0  0  0  0  0  0  0  0  0  0  0  0
    4.8655   -4.4924   -8.3681 H   0  0  0  0  0  0  0  0  0  0  0  0
    5.7633   -2.9385   -8.4447 H   0  0  0  0  0  0  0  0  0  0  0  0
    8.7410   -6.3109   -3.9963 H   0  0  0  0  0  0  0  0  0  0  0  0
    7.3714   -5.1889   -3.6929 H   0  0  0  0  0  0  0  0  0  0  0  0
   10.2464   -4.3951   -4.2956 H   0  0  0  0  0  0  0  0  0  0  0  0
    9.7307   -2.1254   -3.5371 H   0  0  0  0  0  0  0  0  0  0  0  0
    7.9916   -2.5556   -3.4063 H   0  0  0  0  0  0  0  0  0  0  0  0
    8.8016   -2.5671   -5.0096 H   0  0  0  0  0  0  0  0  0  0  0  0
    9.8656   -5.6118   -2.1353 H   0  0  0  0  0  0  0  0  0  0  0  0
    8.6985   -4.3355   -1.6502 H   0  0  0  0  0  0  0  0  0  0  0  0
   10.4294   -3.9231   -1.8964 H   0  0  0  0  0  0  0  0  0  0  0  0
  1  2  1  0  0  0  0
  1  5  1  0  0  0  0
  1 17  1  0  0  0  0
  2  3  2  0  0  0  0
  2 18  1  0  0  0  0
  3  4  1  0  0  0  0
  4  5  2  0  0  0  0
  4  9  1  0  0  0  0
  5  6  1  0  0  0  0
  6  7  1  0  0  0  0
  6 13  1  0  0  0  0
  7  8  1  0  0  0  0
  7 11  2  0  0  0  0
  8  9  1  0  0  0  0
  8 12  1  0  0  0  0
  9 10  2  0  0  0  0
 12 19  1  0  0  0  0
 12 20  1  0  0  0  0
 12 21  1  0  0  0  0
 13 14  1  0  0  0  0
 13 22  1  0  0  0  0
 13 23  1  0  0  0  0
 14 15  1  0  0  0  0
 14 16  1  0  0  0  0
 14 24  1  0  0  0  0
 15 25  1  0  0  0  0
 15 26  1  0  0  0  0
 15 27  1  0  0  0  0
 16 28  1  0  0  0  0
 16 29  1  0  0  0  0
 16 30  1  0  0  0  0
M  END
