3iu8_ligand
 OpenBabel08222323343D

 22 23  0  0  0  0  0  0  0  0999 V2000
    6.7540   46.4650    8.4770 F   0  0  0  0  0  0  0  0  0  0  0  0
   10.4220   43.0520    4.4420 S   0  0  0  0  0  0  0  0  0  0  0  0
    9.6980   45.2510    5.7960 C   0  0  0  0  0  0  0  0  0  0  0  0
    7.8540   43.0640    3.5700 N   0  0  0  0  0  0  0  0  0  0  0  0
   10.0570   45.4040    7.1650 C   0  0  0  0  0  0  0  0  0  0  0  0
    8.0370   43.2670    1.4100 N   0  0  0  0  0  0  0  0  0  0  0  0
    9.0470   45.7890    8.0870 C   0  0  0  0  0  0  0  0  0  0  0  0
    9.3680   43.2330    1.9050 N   0  0  0  0  0  0  0  0  0  0  0  0
    7.7320   46.0720    7.6200 C   0  0  0  0  0  0  0  0  0  0  0  0
    7.3720   45.9370    6.2690 C   0  0  0  0  0  0  0  0  0  0  0  0
    8.3720   45.5350    5.3760 C   0  0  0  0  0  0  0  0  0  0  0  0
   10.7110   44.7790    4.7380 C   0  0  0  0  0  0  0  0  0  0  0  0
    7.1260   43.1350    2.4240 C   0  0  0  0  0  0  0  0  0  0  0  0
    9.1430   43.1040    3.2370 C   0  0  0  0  0  0  0  0  0  0  0  0
   11.0748   45.2312    7.4955 H   0  0  0  0  0  0  0  0  0  0  0  0
    9.2769   45.8671    9.1435 H   0  0  0  0  0  0  0  0  0  0  0  0
   10.2599   43.2905    1.3930 H   0  0  0  0  0  0  0  0  0  0  0  0
    6.3612   46.1360    5.9318 H   0  0  0  0  0  0  0  0  0  0  0  0
    8.1249   45.4369    4.3251 H   0  0  0  0  0  0  0  0  0  0  0  0
   10.5710   45.3469    3.8064 H   0  0  0  0  0  0  0  0  0  0  0  0
   11.7359   44.9288    5.1083 H   0  0  0  0  0  0  0  0  0  0  0  0
    6.0417   43.0951    2.3314 H   0  0  0  0  0  0  0  0  0  0  0  0
  2 14  1  0  0  0  0
  3 11  1  0  0  0  0
  3 12  1  0  0  0  0
  4 13  1  0  0  0  0
  5  3  2  0  0  0  0
  5 15  1  0  0  0  0
  6  8  1  0  0  0  0
  7  5  1  0  0  0  0
  7  9  2  0  0  0  0
  7 16  1  0  0  0  0
  8 14  1  0  0  0  0
  8 17  1  0  0  0  0
  9  1  1  0  0  0  0
  9 10  1  0  0  0  0
 10 11  2  0  0  0  0
 10 18  1  0  0  0  0
 11 19  1  0  0  0  0
 12  2  1  0  0  0  0
 12 20  1  0  0  0  0
 12 21  1  0  0  0  0
 13  6  2  0  0  0  0
 13 22  1  0  0  0  0
 14  4  2  0  0  0  0
M  END
