3ivh_ligand
 OpenBabel08222323343D

 73 75  0  0  1  0  0  0  0  0999 V2000
   13.2080   -4.5360   18.2520 C   0  0  0  0  0  0  0  0  0  0  0  0
   15.6830   -5.5280   16.0490 C   0  0  2  0  0  0  0  0  0  0  0  0
   13.4220   -6.5450   15.4070 C   0  0  0  0  0  0  0  0  0  0  0  0
   10.9310   -6.0910   15.2820 C   0  0  0  0  0  0  0  0  0  0  0  0
   10.4510   -7.6790   17.5070 C   0  0  0  0  0  0  0  0  0  0  0  0
   16.4400   -4.7730   17.1580 C   0  0  0  0  0  0  0  0  0  0  0  0
   18.8230   -4.4490   18.0190 C   0  0  0  0  0  0  0  0  0  0  0  0
   18.3630   -3.1590   18.7120 C   0  0  0  0  0  0  0  0  0  0  0  0
   19.3990   -2.5060   19.6350 C   0  0  0  0  0  0  0  0  0  0  0  0
   18.8690   -5.6940   18.8930 C   0  0  0  0  0  0  0  0  0  0  0  0
   18.9560   -8.0430   20.4340 C   0  0  0  0  0  0  0  0  0  0  0  0
   19.3470   -6.8890   18.3550 C   0  0  0  0  0  0  0  0  0  0  0  0
   10.2280   -8.4380   18.5820 F   0  0  0  0  0  0  0  0  0  0  0  0
   11.7510   -7.5270   17.0260 C   0  0  0  0  0  0  0  0  0  0  0  0
    9.3910   -7.0440   16.8750 C   0  0  0  0  0  0  0  0  0  0  0  0
    9.6320   -6.2580   15.7550 C   0  0  0  0  0  0  0  0  0  0  0  0
    8.6070   -5.6230   15.1510 F   0  0  0  0  0  0  0  0  0  0  0  0
   11.9990   -6.7290   15.9100 C   0  0  0  0  0  0  0  0  0  0  0  0
   14.2690   -5.9030   16.5060 C   0  0  2  0  0  0  0  0  0  0  0  0
   13.5850   -4.7050   16.9810 N   0  0  0  0  0  0  0  0  0  0  0  0
   13.4770   -5.3380   19.1160 O   0  0  0  0  0  0  0  0  0  0  0  0
   12.4310   -3.2930   18.5710 C   0  0  0  0  0  0  0  0  0  0  0  0
   16.4000   -6.6910   15.6900 O   0  0  0  0  0  0  0  0  0  0  0  0
   17.8760   -4.7100   16.9280 N   0  3  0  0  0  0  0  0  0  0  0  0
   20.7780   -2.3900   18.9880 C   0  0  0  0  0  0  0  0  0  0  0  0
   21.2150   -3.7330   18.4190 C   0  0  0  0  0  0  0  0  0  0  0  0
   20.1930   -4.2100   17.3920 C   0  0  0  0  0  0  0  0  0  0  0  0
   18.4330   -5.7000   20.2190 C   0  0  0  0  0  0  0  0  0  0  0  0
   19.4110   -8.0750   19.1090 C   0  0  0  0  0  0  0  0  0  0  0  0
   18.4810   -6.8700   20.9810 C   0  0  0  0  0  0  0  0  0  0  0  0
   19.9210   -9.3560   18.4800 C   0  0  0  0  0  0  0  0  0  0  0  0
   21.0730   -9.0790   17.5150 C   0  0  0  0  0  0  0  0  0  0  0  0
   20.4570  -10.3410   19.5220 C   0  0  0  0  0  0  0  0  0  0  0  0
   18.7590   -9.9850   17.7150 C   0  0  0  0  0  0  0  0  0  0  0  0
   15.6045   -4.8733   15.1685 H   0  0  0  0  0  0  0  0  0  0  0  0
   13.4167   -5.8942   14.5202 H   0  0  0  0  0  0  0  0  0  0  0  0
   13.8468   -7.5241   15.1408 H   0  0  0  0  0  0  0  0  0  0  0  0
   11.1127   -5.4603   14.4193 H   0  0  0  0  0  0  0  0  0  0  0  0
   16.2609   -5.2848   18.1150 H   0  0  0  0  0  0  0  0  0  0  0  0
   16.0488   -3.7464   17.2124 H   0  0  0  0  0  0  0  0  0  0  0  0
   17.4729   -3.3951   19.3136 H   0  0  0  0  0  0  0  0  0  0  0  0
   18.0959   -2.4308   17.9320 H   0  0  0  0  0  0  0  0  0  0  0  0
   19.4890   -3.1133   20.5477 H   0  0  0  0  0  0  0  0  0  0  0  0
   19.0485   -1.4972   19.8988 H   0  0  0  0  0  0  0  0  0  0  0  0
   18.9776   -8.9464   21.0328 H   0  0  0  0  0  0  0  0  0  0  0  0
   19.6796   -6.9043   17.3234 H   0  0  0  0  0  0  0  0  0  0  0  0
   12.5723   -8.0315   17.5219 H   0  0  0  0  0  0  0  0  0  0  0  0
    8.3817   -7.1605   17.2528 H   0  0  0  0  0  0  0  0  0  0  0  0
   14.3568   -6.6200   17.3356 H   0  0  0  0  0  0  0  0  0  0  0  0
   13.3891   -3.9762   16.3248 H   0  0  0  0  0  0  0  0  0  0  0  0
   12.1860   -3.2789   19.6433 H   0  0  0  0  0  0  0  0  0  0  0  0
   11.5018   -3.2802   17.9824 H   0  0  0  0  0  0  0  0  0  0  0  0
   13.0355   -2.4085   18.3214 H   0  0  0  0  0  0  0  0  0  0  0  0
   15.9490   -7.1333   14.9806 H   0  0  0  0  0  0  0  0  0  0  0  0
   18.0219   -3.9820   16.2463 H   0  0  0  0  0  0  0  0  0  0  0  0
   18.1386   -5.5989   16.5318 H   0  0  0  0  0  0  0  0  0  0  0  0
   21.5065   -2.0632   19.7446 H   0  0  0  0  0  0  0  0  0  0  0  0
   20.7356   -1.6494   18.1758 H   0  0  0  0  0  0  0  0  0  0  0  0
   21.2873   -4.4695   19.2329 H   0  0  0  0  0  0  0  0  0  0  0  0
   22.1967   -3.6237   17.9351 H   0  0  0  0  0  0  0  0  0  0  0  0
   20.0959   -3.4463   16.6063 H   0  0  0  0  0  0  0  0  0  0  0  0
   20.5491   -5.1508   16.9469 H   0  0  0  0  0  0  0  0  0  0  0  0
   18.0530   -4.7868   20.6624 H   0  0  0  0  0  0  0  0  0  0  0  0
   18.1421   -6.8554   22.0105 H   0  0  0  0  0  0  0  0  0  0  0  0
   21.4197  -10.0263   17.0764 H   0  0  0  0  0  0  0  0  0  0  0  0
   21.9012   -8.6024   18.0599 H   0  0  0  0  0  0  0  0  0  0  0  0
   20.7274   -8.4090   16.7140 H   0  0  0  0  0  0  0  0  0  0  0  0
   19.6634  -10.5763   20.2464 H   0  0  0  0  0  0  0  0  0  0  0  0
   21.3113   -9.8897   20.0478 H   0  0  0  0  0  0  0  0  0  0  0  0
   20.7814  -11.2648   19.0206 H   0  0  0  0  0  0  0  0  0  0  0  0
   18.3812   -9.2700   16.9693 H   0  0  0  0  0  0  0  0  0  0  0  0
   17.9530  -10.2415   18.4183 H   0  0  0  0  0  0  0  0  0  0  0  0
   19.1056  -10.8966   17.2062 H   0  0  0  0  0  0  0  0  0  0  0  0
  1 21  2  0  0  0  0
  1 22  1  0  0  0  0
  2  6  1  0  0  0  0
  2 23  1  0  0  0  0
  2 35  1  6  0  0  0
  3 18  1  0  0  0  0
  3 36  1  0  0  0  0
  3 37  1  0  0  0  0
  4 16  2  0  0  0  0
  4 38  1  0  0  0  0
  5 13  1  0  0  0  0
  5 15  2  0  0  0  0
  6 24  1  0  0  0  0
  6 39  1  0  0  0  0
  6 40  1  0  0  0  0
  7  8  1  0  0  0  0
  7 10  1  0  0  0  0
  7 27  1  0  0  0  0
  8  9  1  0  0  0  0
  8 41  1  0  0  0  0
  8 42  1  0  0  0  0
  9 25  1  0  0  0  0
  9 43  1  0  0  0  0
  9 44  1  0  0  0  0
 10 12  2  0  0  0  0
 10 28  1  0  0  0  0
 11 30  1  0  0  0  0
 11 45  1  0  0  0  0
 12 29  1  0  0  0  0
 12 46  1  0  0  0  0
 14  5  1  0  0  0  0
 14 47  1  0  0  0  0
 15 48  1  0  0  0  0
 16 15  1  0  0  0  0
 16 17  1  0  0  0  0
 18  4  1  0  0  0  0
 18 14  2  0  0  0  0
 19  2  1  0  0  0  0
 19  3  1  0  0  0  0
 19 20  1  0  0  0  0
 19 49  1  1  0  0  0
 20  1  1  0  0  0  0
 20 50  1  0  0  0  0
 22 51  1  0  0  0  0
 22 52  1  0  0  0  0
 22 53  1  0  0  0  0
 23 54  1  0  0  0  0
 24  7  1  0  0  0  0
 24 55  1  0  0  0  0
 24 56  1  0  0  0  0
 25 26  1  0  0  0  0
 25 57  1  0  0  0  0
 25 58  1  0  0  0  0
 26 27  1  0  0  0  0
 26 59  1  0  0  0  0
 26 60  1  0  0  0  0
 27 61  1  0  0  0  0
 27 62  1  0  0  0  0
 28 30  2  0  0  0  0
 28 63  1  0  0  0  0
 29 11  2  0  0  0  0
 29 31  1  0  0  0  0
 30 64  1  0  0  0  0
 31 32  1  0  0  0  0
 31 33  1  0  0  0  0
 31 34  1  0  0  0  0
 32 65  1  0  0  0  0
 32 66  1  0  0  0  0
 32 67  1  0  0  0  0
 33 68  1  0  0  0  0
 33 69  1  0  0  0  0
 33 70  1  0  0  0  0
 34 71  1  0  0  0  0
 34 72  1  0  0  0  0
 34 73  1  0  0  0  0
M  CHG  1  24   1
M  END
