3ivq_ligand
 OpenBabel08222323343D

102102  0  0  1  0  0  0  0  0999 V2000
   16.7890   20.1870    4.2960 N   0  3  0  0  0  0  0  0  0  0  0  0
   15.5840   20.9790    4.6200 C   0  0  2  0  0  0  0  0  0  0  0  0
   14.7410   21.3510    3.3980 C   0  0  0  0  0  0  0  0  0  0  0  0
   14.6190   20.5810    2.4440 O   0  0  0  0  0  0  0  0  0  0  0  0
   16.0630   22.2300    5.3450 C   0  0  0  0  0  0  0  0  0  0  0  0
   17.3510   21.7300    5.9840 C   0  0  0  0  0  0  0  0  0  0  0  0
   17.9740   20.8040    4.9190 C   0  0  0  0  0  0  0  0  0  0  0  0
   14.1710   22.5510    3.4500 N   0  0  0  0  0  0  0  0  0  0  0  0
   13.3130   23.0960    2.4050 C   0  0  2  0  0  0  0  0  0  0  0  0
   12.2630   22.1780    1.7990 C   0  0  0  0  0  0  0  0  0  0  0  0
   12.2380   21.8770    0.5980 O   0  0  0  0  0  0  0  0  0  0  0  0
   14.1440   23.7780    1.3240 C   0  0  0  0  0  0  0  0  0  0  0  0
   14.5280   25.1890    1.7230 C   0  0  0  0  0  0  0  0  0  0  0  0
   13.6090   25.9560    2.0920 O   0  5  0  0  0  0  0  0  0  0  0  0
   15.7300   25.5320    1.6820 O   0  0  0  0  0  0  0  0  0  0  0  0
   11.3920   21.7430    2.6950 N   0  0  0  0  0  0  0  0  0  0  0  0
   10.2450   20.9300    2.3770 C   0  0  2  0  0  0  0  0  0  0  0  0
    9.1640   21.9370    2.7220 C   0  0  0  0  0  0  0  0  0  0  0  0
    9.2400   22.5960    3.7550 O   0  0  0  0  0  0  0  0  0  0  0  0
   10.1100   19.7300    3.3190 C   0  0  0  0  0  0  0  0  0  0  0  0
    8.7570   19.0760    3.1160 C   0  0  0  0  0  0  0  0  0  0  0  0
   11.2340   18.7410    3.0680 C   0  0  0  0  0  0  0  0  0  0  0  0
    8.1720   22.0840    1.8640 N   0  0  0  0  0  0  0  0  0  0  0  0
    7.1190   23.0410    2.1420 C   0  0  2  0  0  0  0  0  0  0  0  0
    5.7630   22.4790    1.7390 C   0  0  0  0  0  0  0  0  0  0  0  0
    5.6820   21.4030    1.1420 O   0  0  0  0  0  0  0  0  0  0  0  0
    7.4040   24.3490    1.3980 C   0  0  0  0  0  0  0  0  0  0  0  0
    7.5810   24.1130    0.0110 O   0  0  0  0  0  0  0  0  0  0  0  0
    4.7070   23.2120    2.0750 N   0  0  0  0  0  0  0  0  0  0  0  0
    3.3440   22.8050    1.7610 C   0  0  2  0  0  0  0  0  0  0  0  0
    2.7380   23.7460    0.7180 C   0  0  0  0  0  0  0  0  0  0  0  0
    3.0600   24.9320    0.6880 O   0  0  0  0  0  0  0  0  0  0  0  0
    2.4940   22.8230    3.0400 C   0  0  0  0  0  0  0  0  0  0  0  0
    1.1480   22.4570    2.7830 O   0  0  0  0  0  0  0  0  0  0  0  0
    1.8760   23.2200   -0.1460 N   0  0  0  0  0  0  0  0  0  0  0  0
    1.2360   24.0550   -1.1510 C   0  0  2  0  0  0  0  0  0  0  0  0
   -0.2490   24.1950   -0.8190 C   0  0  0  0  0  0  0  0  0  0  0  0
   -0.9920   24.8960   -1.5100 O   0  0  0  0  0  0  0  0  0  0  0  0
    1.4020   23.4580   -2.5520 C   0  0  0  0  0  0  0  0  0  0  0  0
    0.3660   22.5370   -2.8410 O   0  0  0  0  0  0  0  0  0  0  0  0
   -0.6730   23.5080    0.2390 N   0  0  0  0  0  0  0  0  0  0  0  0
   -2.0610   23.5490    0.6930 C   0  0  2  0  0  0  0  0  0  0  0  0
   -2.1490   24.5480    1.8330 C   0  0  0  0  0  0  0  0  0  0  0  0
   -3.0160   25.4190    1.8470 O   0  0  0  0  0  0  0  0  0  0  0  0
   -2.5390   22.1690    1.2200 C   0  0  2  0  0  0  0  0  0  0  0  0
   -1.5370   21.6120    2.0800 O   0  0  0  0  0  0  0  0  0  0  0  0
   -2.8250   21.2180    0.0650 C   0  0  0  0  0  0  0  0  0  0  0  0
   -1.2370   24.4010    2.7890 N   0  0  0  0  0  0  0  0  0  0  0  0
   -1.1700   25.2760    3.9510 C   0  0  2  0  0  0  0  0  0  0  0  0
   -0.0700   26.3090    3.7350 C   0  0  0  0  0  0  0  0  0  0  0  0
    1.1219   25.9036    3.6826 O   0  5  0  0  0  0  0  0  0  0  0  0
   -0.8800   24.4540    5.2090 C   0  0  0  0  0  0  0  0  0  0  0  0
   -0.3447   27.5326    3.6125 O   0  0  0  0  0  0  0  0  0  0  0  0
   16.9127   20.1596    3.2960 H   0  0  0  0  0  0  0  0  0  0  0  0
   16.6770   19.2486    4.6465 H   0  0  0  0  0  0  0  0  0  0  0  0
   14.9499   20.3891    5.2981 H   0  0  0  0  0  0  0  0  0  0  0  0
   15.3378   22.5579    6.1043 H   0  0  0  0  0  0  0  0  0  0  0  0
   16.2557   23.0538    4.6421 H   0  0  0  0  0  0  0  0  0  0  0  0
   17.1363   21.1719    6.9073 H   0  0  0  0  0  0  0  0  0  0  0  0
   18.0242   22.5697    6.2113 H   0  0  0  0  0  0  0  0  0  0  0  0
   18.5550   21.3796    4.1834 H   0  0  0  0  0  0  0  0  0  0  0  0
   18.6199   20.0439    5.3827 H   0  0  0  0  0  0  0  0  0  0  0  0
   14.3417   23.1157    4.2574 H   0  0  0  0  0  0  0  0  0  0  0  0
   12.7380   23.8934    2.8983 H   0  0  0  0  0  0  0  0  0  0  0  0
   13.5575   23.8170    0.3942 H   0  0  0  0  0  0  0  0  0  0  0  0
   15.0601   23.1929    1.1555 H   0  0  0  0  0  0  0  0  0  0  0  0
   11.5385   21.9938    3.6519 H   0  0  0  0  0  0  0  0  0  0  0  0
   10.2281   20.6067    1.3257 H   0  0  0  0  0  0  0  0  0  0  0  0
   10.1790   20.0834    4.3584 H   0  0  0  0  0  0  0  0  0  0  0  0
    8.6610   18.2143    3.7930 H   0  0  0  0  0  0  0  0  0  0  0  0
    8.6670   18.7354    2.0740 H   0  0  0  0  0  0  0  0  0  0  0  0
    7.9615   19.8038    3.3339 H   0  0  0  0  0  0  0  0  0  0  0  0
   12.2023   19.2397    3.2217 H   0  0  0  0  0  0  0  0  0  0  0  0
   11.1724   18.3705    2.0341 H   0  0  0  0  0  0  0  0  0  0  0  0
   11.1418   17.8961    3.7664 H   0  0  0  0  0  0  0  0  0  0  0  0
    8.1468   21.5381    1.0265 H   0  0  0  0  0  0  0  0  0  0  0  0
    7.1047   23.2458    3.2227 H   0  0  0  0  0  0  0  0  0  0  0  0
    8.3190   24.8035    1.8057 H   0  0  0  0  0  0  0  0  0  0  0  0
    6.5576   25.0368    1.5413 H   0  0  0  0  0  0  0  0  0  0  0  0
    7.7562   24.9364   -0.4294 H   0  0  0  0  0  0  0  0  0  0  0  0
    4.8531   24.0738    2.5608 H   0  0  0  0  0  0  0  0  0  0  0  0
    3.3596   21.7832    1.3540 H   0  0  0  0  0  0  0  0  0  0  0  0
    2.5121   23.8372    3.4654 H   0  0  0  0  0  0  0  0  0  0  0  0
    2.9238   22.1143    3.7632 H   0  0  0  0  0  0  0  0  0  0  0  0
    1.1234   21.5793    2.4202 H   0  0  0  0  0  0  0  0  0  0  0  0
    1.6657   22.2432   -0.1051 H   0  0  0  0  0  0  0  0  0  0  0  0
    1.7032   25.0507   -1.1346 H   0  0  0  0  0  0  0  0  0  0  0  0
    2.3701   22.9387   -2.6086 H   0  0  0  0  0  0  0  0  0  0  0  0
    1.3776   24.2701   -3.2935 H   0  0  0  0  0  0  0  0  0  0  0  0
    0.3850   21.8311   -2.2056 H   0  0  0  0  0  0  0  0  0  0  0  0
   -0.0180   22.9434    0.7413 H   0  0  0  0  0  0  0  0  0  0  0  0
   -2.7080   23.8651   -0.1385 H   0  0  0  0  0  0  0  0  0  0  0  0
   -3.4650   22.3113    1.7964 H   0  0  0  0  0  0  0  0  0  0  0  0
   -0.7286   21.5027    1.5932 H   0  0  0  0  0  0  0  0  0  0  0  0
   -3.1614   20.2491    0.4626 H   0  0  0  0  0  0  0  0  0  0  0  0
   -1.9089   21.0735   -0.5265 H   0  0  0  0  0  0  0  0  0  0  0  0
   -3.6113   21.6446   -0.5751 H   0  0  0  0  0  0  0  0  0  0  0  0
   -0.5705   23.6601    2.7069 H   0  0  0  0  0  0  0  0  0  0  0  0
   -2.1336   25.7922    4.0730 H   0  0  0  0  0  0  0  0  0  0  0  0
   -0.8312   25.1229    6.0809 H   0  0  0  0  0  0  0  0  0  0  0  0
    0.0815   23.9326    5.0927 H   0  0  0  0  0  0  0  0  0  0  0  0
   -1.6819   23.7158    5.3576 H   0  0  0  0  0  0  0  0  0  0  0  0
  1  2  1  0  0  0  0
  1  7  1  0  0  0  0
  1 54  1  0  0  0  0
  1 55  1  0  0  0  0
  2  3  1  0  0  0  0
  2  5  1  0  0  0  0
  2 56  1  1  0  0  0
  3  4  2  0  0  0  0
  3  8  1  0  0  0  0
  5  6  1  0  0  0  0
  5 57  1  0  0  0  0
  5 58  1  0  0  0  0
  6  7  1  0  0  0  0
  6 59  1  0  0  0  0
  6 60  1  0  0  0  0
  7 61  1  0  0  0  0
  7 62  1  0  0  0  0
  8  9  1  0  0  0  0
  8 63  1  0  0  0  0
  9 10  1  0  0  0  0
  9 12  1  0  0  0  0
  9 64  1  1  0  0  0
 10 11  2  0  0  0  0
 10 16  1  0  0  0  0
 12 13  1  0  0  0  0
 12 65  1  0  0  0  0
 12 66  1  0  0  0  0
 13 14  1  0  0  0  0
 13 15  2  0  0  0  0
 16 17  1  0  0  0  0
 16 67  1  0  0  0  0
 17 18  1  0  0  0  0
 17 20  1  0  0  0  0
 17 68  1  6  0  0  0
 18 19  2  0  0  0  0
 18 23  1  0  0  0  0
 20 21  1  0  0  0  0
 20 22  1  0  0  0  0
 20 69  1  0  0  0  0
 21 70  1  0  0  0  0
 21 71  1  0  0  0  0
 21 72  1  0  0  0  0
 22 73  1  0  0  0  0
 22 74  1  0  0  0  0
 22 75  1  0  0  0  0
 23 24  1  0  0  0  0
 23 76  1  0  0  0  0
 24 25  1  0  0  0  0
 24 27  1  0  0  0  0
 24 77  1  1  0  0  0
 25 26  2  0  0  0  0
 25 29  1  0  0  0  0
 27 28  1  0  0  0  0
 27 78  1  0  0  0  0
 27 79  1  0  0  0  0
 28 80  1  0  0  0  0
 29 30  1  0  0  0  0
 29 81  1  0  0  0  0
 30 31  1  0  0  0  0
 30 33  1  0  0  0  0
 30 82  1  6  0  0  0
 31 32  2  0  0  0  0
 31 35  1  0  0  0  0
 33 34  1  0  0  0  0
 33 83  1  0  0  0  0
 33 84  1  0  0  0  0
 34 85  1  0  0  0  0
 35 36  1  0  0  0  0
 35 86  1  0  0  0  0
 36 37  1  0  0  0  0
 36 39  1  0  0  0  0
 36 87  1  1  0  0  0
 37 38  2  0  0  0  0
 37 41  1  0  0  0  0
 39 40  1  0  0  0  0
 39 88  1  0  0  0  0
 39 89  1  0  0  0  0
 40 90  1  0  0  0  0
 41 42  1  0  0  0  0
 41 91  1  0  0  0  0
 42 43  1  0  0  0  0
 42 45  1  0  0  0  0
 42 92  1  6  0  0  0
 43 44  2  0  0  0  0
 43 48  1  0  0  0  0
 45 46  1  0  0  0  0
 45 47  1  0  0  0  0
 45 93  1  1  0  0  0
 46 94  1  0  0  0  0
 47 95  1  0  0  0  0
 47 96  1  0  0  0  0
 47 97  1  0  0  0  0
 48 49  1  0  0  0  0
 48 98  1  0  0  0  0
 49 50  1  0  0  0  0
 49 52  1  0  0  0  0
 49 99  1  1  0  0  0
 50 51  1  0  0  0  0
 50 53  2  0  0  0  0
 52100  1  0  0  0  0
 52101  1  0  0  0  0
 52102  1  0  0  0  0
M  CHG  3   1   1  14  -1  51  -1
M  END
