3iw7_ligand
 OpenBabel08222323343D

 46 48  0  0  0  0  0  0  0  0999 V2000
   19.8470    1.2650  -26.2270 O   0  0  0  0  0  0  0  0  0  0  0  0
   23.3840   -4.6850  -20.9720 C   0  0  0  0  0  0  0  0  0  0  0  0
   22.1240   -4.3700  -20.4590 C   0  0  0  0  0  0  0  0  0  0  0  0
   24.2050   -3.6660  -21.4750 C   0  0  0  0  0  0  0  0  0  0  0  0
   21.6830   -3.0510  -20.4620 C   0  0  0  0  0  0  0  0  0  0  0  0
   23.7710   -2.3460  -21.4700 C   0  0  0  0  0  0  0  0  0  0  0  0
   17.8320    4.9830  -24.2070 C   0  0  0  0  0  0  0  0  0  0  0  0
   20.0070    5.5530  -25.1100 C   0  0  0  0  0  0  0  0  0  0  0  0
   18.1050    3.6350  -24.3930 C   0  0  0  0  0  0  0  0  0  0  0  0
   20.2770    4.1990  -25.2910 C   0  0  0  0  0  0  0  0  0  0  0  0
   20.0890    0.7430  -21.6040 C   0  0  0  0  0  0  0  0  0  0  0  0
   20.8150   -1.1210  -23.1750 C   0  0  0  0  0  0  0  0  0  0  0  0
   19.3160    1.4610  -22.6970 C   0  0  0  0  0  0  0  0  0  0  0  0
   19.8710   -0.5590  -24.2570 C   0  0  0  0  0  0  0  0  0  0  0  0
   18.4240    7.4490  -24.3450 C   0  0  0  0  0  0  0  0  0  0  0  0
   22.0490   -0.5890  -20.9540 C   0  0  0  0  0  0  0  0  0  0  0  0
   19.6980    8.3340  -23.3400 S   0  0  0  0  0  0  0  0  0  0  0  0
   19.6120    1.7240  -25.1160 C   0  0  0  0  0  0  0  0  0  0  0  0
   18.7740    5.9520  -24.5610 C   0  0  0  0  0  0  0  0  0  0  0  0
   22.5090   -2.0460  -20.9820 C   0  0  0  0  0  0  0  0  0  0  0  0
   19.3290    3.2360  -24.9290 C   0  0  0  0  0  0  0  0  0  0  0  0
   21.2760   -0.0550  -22.1640 C   0  0  0  0  0  0  0  0  0  0  0  0
   19.5980    0.8970  -24.0650 N   0  0  0  0  0  0  0  0  0  0  0  0
   23.7260   -5.7136  -20.9813 H   0  0  0  0  0  0  0  0  0  0  0  0
   21.4901   -5.1530  -20.0587 H   0  0  0  0  0  0  0  0  0  0  0  0
   25.1846   -3.9094  -21.8703 H   0  0  0  0  0  0  0  0  0  0  0  0
   20.7058   -2.8020  -20.0643 H   0  0  0  0  0  0  0  0  0  0  0  0
   24.4139   -1.5577  -21.8445 H   0  0  0  0  0  0  0  0  0  0  0  0
   16.8811    5.2861  -23.7840 H   0  0  0  0  0  0  0  0  0  0  0  0
   20.7437    6.2969  -25.3909 H   0  0  0  0  0  0  0  0  0  0  0  0
   17.3652    2.8908  -24.1211 H   0  0  0  0  0  0  0  0  0  0  0  0
   21.2259    3.8898  -25.7142 H   0  0  0  0  0  0  0  0  0  0  0  0
   19.4095    0.0507  -21.0853 H   0  0  0  0  0  0  0  0  0  0  0  0
   20.4684    1.4885  -20.8897 H   0  0  0  0  0  0  0  0  0  0  0  0
   21.7029   -1.5421  -23.6692 H   0  0  0  0  0  0  0  0  0  0  0  0
   20.2873   -1.9167  -22.6288 H   0  0  0  0  0  0  0  0  0  0  0  0
   19.5974    2.5244  -22.6885 H   0  0  0  0  0  0  0  0  0  0  0  0
   18.2399    1.3647  -22.4902 H   0  0  0  0  0  0  0  0  0  0  0  0
   18.9180   -1.1068  -24.2153 H   0  0  0  0  0  0  0  0  0  0  0  0
   20.3353   -0.7055  -25.2434 H   0  0  0  0  0  0  0  0  0  0  0  0
   18.3463    7.9386  -25.3270 H   0  0  0  0  0  0  0  0  0  0  0  0
   17.4567    7.5139  -23.8253 H   0  0  0  0  0  0  0  0  0  0  0  0
   22.9472    0.0354  -20.8383 H   0  0  0  0  0  0  0  0  0  0  0  0
   21.4018   -0.4673  -20.0729 H   0  0  0  0  0  0  0  0  0  0  0  0
   19.4260    9.2982  -23.2285 H   0  0  0  0  0  0  0  0  0  0  0  0
   21.9374    0.6353  -22.7081 H   0  0  0  0  0  0  0  0  0  0  0  0
  2 24  1  0  0  0  0
  3  2  2  0  0  0  0
  3 25  1  0  0  0  0
  4  2  1  0  0  0  0
  4 26  1  0  0  0  0
  5  3  1  0  0  0  0
  5 27  1  0  0  0  0
  6  4  2  0  0  0  0
  6 28  1  0  0  0  0
  7 19  1  0  0  0  0
  7 29  1  0  0  0  0
  8 19  2  0  0  0  0
  8 30  1  0  0  0  0
  9  7  2  0  0  0  0
  9 31  1  0  0  0  0
 10  8  1  0  0  0  0
 10 32  1  0  0  0  0
 11 22  1  0  0  0  0
 11 33  1  0  0  0  0
 11 34  1  0  0  0  0
 12 22  1  0  0  0  0
 12 35  1  0  0  0  0
 12 36  1  0  0  0  0
 13 11  1  0  0  0  0
 13 37  1  0  0  0  0
 13 38  1  0  0  0  0
 14 12  1  0  0  0  0
 14 39  1  0  0  0  0
 14 40  1  0  0  0  0
 15 17  1  0  0  0  0
 15 41  1  0  0  0  0
 15 42  1  0  0  0  0
 16 20  1  0  0  0  0
 16 43  1  0  0  0  0
 16 44  1  0  0  0  0
 17 45  1  0  0  0  0
 18  1  2  0  0  0  0
 18 21  1  0  0  0  0
 18 23  1  0  0  0  0
 19 15  1  0  0  0  0
 20  5  2  0  0  0  0
 20  6  1  0  0  0  0
 21  9  1  0  0  0  0
 21 10  2  0  0  0  0
 22 16  1  0  0  0  0
 22 46  1  0  0  0  0
 23 13  1  0  0  0  0
 23 14  1  0  0  0  0
M  END
