3jpx_ligand
 OpenBabel08222323343D

134134  0  0  1  0  0  0  0  0999 V2000
   21.2090   36.3110   26.7750 N   0  3  0  0  0  0  0  0  0  0  0  0
   19.8630   35.7950   27.2080 C   0  0  2  0  0  0  0  0  0  0  0  0
   19.8220   34.2760   27.3510 C   0  0  0  0  0  0  0  0  0  0  0  0
   20.2830   33.5570   26.4630 O   0  0  0  0  0  0  0  0  0  0  0  0
   18.7040   36.2140   26.2680 C   0  0  0  0  0  0  0  0  0  0  0  0
   18.0720   37.5400   26.6020 C   0  0  0  0  0  0  0  0  0  0  0  0
   16.7550   37.6640   27.0060 N   0  0  0  0  0  0  0  0  0  0  0  0
   18.5650   38.8030   26.5420 C   0  0  0  0  0  0  0  0  0  0  0  0
   16.4700   38.9410   27.1890 C   0  0  0  0  0  0  0  0  0  0  0  0
   17.5530   39.6520   26.9240 N   0  0  0  0  0  0  0  0  0  0  0  0
   19.2170   33.7800   28.4330 N   0  0  0  0  0  0  0  0  0  0  0  0
   19.2470   32.3470   28.6120 C   0  0  2  0  0  0  0  0  0  0  0  0
   18.0040   31.5920   28.0990 C   0  0  0  0  0  0  0  0  0  0  0  0
   16.9510   32.1840   27.8320 O   0  0  0  0  0  0  0  0  0  0  0  0
   19.5990   31.9310   30.0280 C   0  0  0  0  0  0  0  0  0  0  0  0
   19.1620   32.8690   31.0930 C   0  0  0  0  0  0  0  0  0  0  0  0
   19.9630   32.6430   32.3790 C   0  0  0  0  0  0  0  0  0  0  0  0
   19.0860   32.6600   33.5610 N   0  0  0  0  0  0  0  0  0  0  0  0
   18.1950   33.6310   33.8960 C   0  0  0  0  0  3  0  0  0  0  0  0
   17.9940   34.7210   33.1240 N   0  0  0  0  0  0  0  0  0  0  0  0
   17.4520   33.4960   35.0140 N   0  0  0  0  0  0  0  0  0  0  0  0
   18.1810   30.2820   27.9910 N   0  0  0  0  0  0  0  0  0  0  0  0
   17.1340   29.3840   27.5570 C   0  0  1  0  0  0  0  0  0  0  0  0
   17.7260   28.2070   26.7630 C   0  0  0  0  0  0  0  0  0  0  0  0
   16.6370   27.3700   26.1180 C   0  0  0  0  0  0  0  0  0  0  0  0
   17.2410   26.0880   25.5590 C   0  0  0  0  0  0  0  0  0  0  0  0
   16.1120   25.3560   24.7600 C   0  0  0  0  0  0  0  0  0  0  0  0
   16.5230   24.1180   24.0330 N   0  3  0  0  0  0  0  0  0  0  0  0
   16.2350   28.9690   28.6710 C   0  0  0  0  0  0  0  0  0  0  0  0
   15.0090   28.8200   28.4640 O   0  0  0  0  0  0  0  0  0  0  0  0
   17.2940   24.3760   22.8020 C   0  0  0  0  0  0  0  0  0  0  0  0
   15.3350   23.3620   23.5240 C   0  0  0  0  0  0  0  0  0  0  0  0
   17.3920   23.2950   24.9280 C   0  0  0  0  0  0  0  0  0  0  0  0
   16.8330   28.8000   29.8550 N   0  0  0  0  0  0  0  0  0  0  0  0
   16.1760   28.2860   31.0850 C   0  0  2  0  0  0  0  0  0  0  0  0
   16.4860   29.2350   32.2630 C   0  0  0  0  0  0  0  0  0  0  0  0
   17.5850   29.7910   32.3290 O   0  0  0  0  0  0  0  0  0  0  0  0
   16.6760   26.8450   31.4080 C   0  0  0  0  0  0  0  0  0  0  0  0
   16.0780   26.3120   32.7780 C   0  0  0  0  0  0  0  0  0  0  0  0
   16.3000   25.8880   30.2810 C   0  0  0  0  0  0  0  0  0  0  0  0
   15.5100   29.4670   33.1430 N   0  0  0  0  0  0  0  0  0  0  0  0
   15.6990   30.2960   34.3430 C   0  0  2  0  0  0  0  0  0  0  0  0
   16.7100   29.6340   35.2870 C   0  0  0  0  0  0  0  0  0  0  0  0
   16.6930   28.4040   35.4730 O   0  0  0  0  0  0  0  0  0  0  0  0
   14.3590   30.4830   35.0700 C   0  0  0  0  0  0  0  0  0  0  0  0
   13.2530   31.3060   34.3980 C   0  0  0  0  0  0  0  0  0  0  0  0
   11.9500   31.1040   35.1120 C   0  0  0  0  0  0  0  0  0  0  0  0
   13.6130   32.8120   34.3540 C   0  0  0  0  0  0  0  0  0  0  0  0
   17.5710   30.4350   35.8940 N   0  0  0  0  0  0  0  0  0  0  0  0
   18.6890   29.8790   36.6850 C   0  0  2  0  0  0  0  0  0  0  0  0
   18.4030   29.5120   38.1700 C   0  0  0  0  0  0  0  0  0  0  0  0
   17.2430   29.3950   38.6120 O   0  5  0  0  0  0  0  0  0  0  0  0
   19.8930   30.8240   36.5920 C   0  0  0  0  0  0  0  0  0  0  0  0
   19.5940   32.2540   37.0900 C   0  0  0  0  0  0  0  0  0  0  0  0
   20.8910   33.0610   37.1860 C   0  0  0  0  0  0  0  0  0  0  0  0
   21.2250   33.6410   35.8750 N   0  0  0  0  0  0  0  0  0  0  0  0
   22.4570   33.9210   35.4340 C   0  0  0  0  0  3  0  0  0  0  0  0
   23.5250   33.6550   36.1810 N   0  0  0  0  0  0  0  0  0  0  0  0
   22.6170   34.4610   34.2220 N   0  0  0  0  0  0  0  0  0  0  0  0
   19.3190   29.3160   38.9930 O   0  0  0  0  0  0  0  0  0  0  0  0
   21.1749   37.3155   26.6981 H   0  0  0  0  0  0  0  0  0  0  0  0
   21.4493   35.9135   25.8804 H   0  0  0  0  0  0  0  0  0  0  0  0
   21.9042   36.0496   27.4565 H   0  0  0  0  0  0  0  0  0  0  0  0
   19.6630   36.2306   28.1981 H   0  0  0  0  0  0  0  0  0  0  0  0
   17.9241   35.4400   26.3192 H   0  0  0  0  0  0  0  0  0  0  0  0
   19.0977   36.2706   25.2424 H   0  0  0  0  0  0  0  0  0  0  0  0
   19.5731   39.0902   26.2467 H   0  0  0  0  0  0  0  0  0  0  0  0
   15.5071   39.3401   27.5044 H   0  0  0  0  0  0  0  0  0  0  0  0
   17.6267   40.6771   26.9927 H   0  0  0  0  0  0  0  0  0  0  0  0
   18.7612   34.3769   29.0933 H   0  0  0  0  0  0  0  0  0  0  0  0
   20.0792   31.9990   27.9825 H   0  0  0  0  0  0  0  0  0  0  0  0
   20.6927   31.8315   30.0909 H   0  0  0  0  0  0  0  0  0  0  0  0
   19.1302   30.9549   30.2218 H   0  0  0  0  0  0  0  0  0  0  0  0
   18.0939   32.7070   31.3003 H   0  0  0  0  0  0  0  0  0  0  0  0
   19.3162   33.9024   30.7490 H   0  0  0  0  0  0  0  0  0  0  0  0
   20.7148   33.4398   32.4784 H   0  0  0  0  0  0  0  0  0  0  0  0
   20.4680   31.6675   32.3207 H   0  0  0  0  0  0  0  0  0  0  0  0
   19.1542   31.8545   34.1993 H   0  0  0  0  0  0  0  0  0  0  0  0
   17.3102   35.4360   33.4105 H   0  0  0  0  0  0  0  0  0  0  0  0
   18.5245   34.8372   32.2488 H   0  0  0  0  0  0  0  0  0  0  0  0
   17.5823   32.6756   35.6230 H   0  0  0  0  0  0  0  0  0  0  0  0
   16.7545   34.2133   35.2585 H   0  0  0  0  0  0  0  0  0  0  0  0
   19.0762   29.8992   28.2193 H   0  0  0  0  0  0  0  0  0  0  0  0
   16.5049   29.9490   26.8534 H   0  0  0  0  0  0  0  0  0  0  0  0
   18.3083   27.5714   27.4463 H   0  0  0  0  0  0  0  0  0  0  0  0
   18.3865   28.6018   25.9770 H   0  0  0  0  0  0  0  0  0  0  0  0
   16.1713   27.9415   25.3016 H   0  0  0  0  0  0  0  0  0  0  0  0
   15.8751   27.1179   26.8703 H   0  0  0  0  0  0  0  0  0  0  0  0
   17.5963   25.4490   26.3808 H   0  0  0  0  0  0  0  0  0  0  0  0
   18.0814   26.3272   24.8908 H   0  0  0  0  0  0  0  0  0  0  0  0
   15.7104   26.0635   24.0197 H   0  0  0  0  0  0  0  0  0  0  0  0
   15.3197   25.0811   25.4718 H   0  0  0  0  0  0  0  0  0  0  0  0
   17.5577   23.4194   22.3273 H   0  0  0  0  0  0  0  0  0  0  0  0
   18.2128   24.9261   23.0533 H   0  0  0  0  0  0  0  0  0  0  0  0
   16.6864   24.9748   22.1075 H   0  0  0  0  0  0  0  0  0  0  0  0
   14.6735   23.1087   24.3656 H   0  0  0  0  0  0  0  0  0  0  0  0
   15.6719   22.4379   23.0315 H   0  0  0  0  0  0  0  0  0  0  0  0
   14.7868   23.9840   22.8011 H   0  0  0  0  0  0  0  0  0  0  0  0
   18.2445   23.9006   25.2693 H   0  0  0  0  0  0  0  0  0  0  0  0
   17.7624   22.4191   24.3752 H   0  0  0  0  0  0  0  0  0  0  0  0
   16.8088   22.9596   25.7982 H   0  0  0  0  0  0  0  0  0  0  0  0
   17.8019   29.0391   29.9180 H   0  0  0  0  0  0  0  0  0  0  0  0
   15.0882   28.2564   30.9244 H   0  0  0  0  0  0  0  0  0  0  0  0
   17.7722   26.8725   31.4950 H   0  0  0  0  0  0  0  0  0  0  0  0
   16.4525   25.2958   32.9708 H   0  0  0  0  0  0  0  0  0  0  0  0
   14.9799   26.2924   32.7159 H   0  0  0  0  0  0  0  0  0  0  0  0
   16.3871   26.9782   33.5969 H   0  0  0  0  0  0  0  0  0  0  0  0
   16.7149   26.2582   29.3319 H   0  0  0  0  0  0  0  0  0  0  0  0
   15.2046   25.8259   30.2028 H   0  0  0  0  0  0  0  0  0  0  0  0
   16.7095   24.8899   30.4956 H   0  0  0  0  0  0  0  0  0  0  0  0
   14.6115   29.0597   32.9795 H   0  0  0  0  0  0  0  0  0  0  0  0
   16.0832   31.2811   34.0398 H   0  0  0  0  0  0  0  0  0  0  0  0
   14.5802   30.9670   36.0327 H   0  0  0  0  0  0  0  0  0  0  0  0
   13.9480   29.4787   35.2504 H   0  0  0  0  0  0  0  0  0  0  0  0
   13.1411   30.9499   33.3633 H   0  0  0  0  0  0  0  0  0  0  0  0
   11.1664   31.6992   34.6203 H   0  0  0  0  0  0  0  0  0  0  0  0
   12.0519   31.4255   36.1590 H   0  0  0  0  0  0  0  0  0  0  0  0
   11.6757   30.0392   35.0804 H   0  0  0  0  0  0  0  0  0  0  0  0
   14.5699   32.9450   33.8280 H   0  0  0  0  0  0  0  0  0  0  0  0
   13.7020   33.1979   35.3802 H   0  0  0  0  0  0  0  0  0  0  0  0
   12.8229   33.3625   33.8224 H   0  0  0  0  0  0  0  0  0  0  0  0
   17.4642   31.4263   35.8168 H   0  0  0  0  0  0  0  0  0  0  0  0
   18.9706   28.9368   36.1921 H   0  0  0  0  0  0  0  0  0  0  0  0
   20.2103   30.8810   35.5403 H   0  0  0  0  0  0  0  0  0  0  0  0
   20.7100   30.4076   37.1995 H   0  0  0  0  0  0  0  0  0  0  0  0
   19.1237   32.2023   38.0830 H   0  0  0  0  0  0  0  0  0  0  0  0
   18.9094   32.7487   36.3853 H   0  0  0  0  0  0  0  0  0  0  0  0
   21.7079   32.3993   37.5097 H   0  0  0  0  0  0  0  0  0  0  0  0
   20.7622   33.8705   37.9196 H   0  0  0  0  0  0  0  0  0  0  0  0
   20.4408   33.8499   35.2407 H   0  0  0  0  0  0  0  0  0  0  0  0
   24.4675   33.8757   35.8291 H   0  0  0  0  0  0  0  0  0  0  0  0
   23.4095   33.2283   37.1113 H   0  0  0  0  0  0  0  0  0  0  0  0
   21.7943   34.6695   33.6384 H   0  0  0  0  0  0  0  0  0  0  0  0
   23.5630   34.6687   33.8715 H   0  0  0  0  0  0  0  0  0  0  0  0
  1  2  1  0  0  0  0
  1 61  1  0  0  0  0
  1 62  1  0  0  0  0
  1 63  1  0  0  0  0
  2  3  1  0  0  0  0
  2  5  1  0  0  0  0
  2 64  1  1  0  0  0
  3  4  2  0  0  0  0
  3 11  1  0  0  0  0
  5  6  1  0  0  0  0
  5 65  1  0  0  0  0
  5 66  1  0  0  0  0
  6  7  1  0  0  0  0
  6  8  2  0  0  0  0
  7  9  2  0  0  0  0
  8 10  1  0  0  0  0
  8 67  1  0  0  0  0
  9 10  1  0  0  0  0
  9 68  1  0  0  0  0
 10 69  1  0  0  0  0
 11 12  1  0  0  0  0
 11 70  1  0  0  0  0
 12 13  1  0  0  0  0
 12 15  1  0  0  0  0
 12 71  1  6  0  0  0
 13 14  2  0  0  0  0
 13 22  1  0  0  0  0
 15 16  1  0  0  0  0
 15 72  1  0  0  0  0
 15 73  1  0  0  0  0
 16 17  1  0  0  0  0
 16 74  1  0  0  0  0
 16 75  1  0  0  0  0
 17 18  1  0  0  0  0
 17 76  1  0  0  0  0
 17 77  1  0  0  0  0
 18 19  1  0  0  0  0
 18 78  1  0  0  0  0
 19 20  1  0  0  0  0
 19 21  1  0  0  0  0
 20 79  1  0  0  0  0
 20 80  1  0  0  0  0
 21 81  1  0  0  0  0
 21 82  1  0  0  0  0
 22 23  1  0  0  0  0
 22 83  1  0  0  0  0
 23 24  1  0  0  0  0
 23 29  1  0  0  0  0
 23 84  1  6  0  0  0
 24 25  1  0  0  0  0
 24 85  1  0  0  0  0
 24 86  1  0  0  0  0
 25 26  1  0  0  0  0
 25 87  1  0  0  0  0
 25 88  1  0  0  0  0
 26 27  1  0  0  0  0
 26 89  1  0  0  0  0
 26 90  1  0  0  0  0
 27 28  1  0  0  0  0
 27 91  1  0  0  0  0
 27 92  1  0  0  0  0
 28 31  1  0  0  0  0
 28 32  1  0  0  0  0
 28 33  1  0  0  0  0
 29 30  2  0  0  0  0
 29 34  1  0  0  0  0
 31 93  1  0  0  0  0
 31 94  1  0  0  0  0
 31 95  1  0  0  0  0
 32 96  1  0  0  0  0
 32 97  1  0  0  0  0
 32 98  1  0  0  0  0
 33 99  1  0  0  0  0
 33100  1  0  0  0  0
 33101  1  0  0  0  0
 34 35  1  0  0  0  0
 34102  1  0  0  0  0
 35 36  1  0  0  0  0
 35 38  1  0  0  0  0
 35103  1  6  0  0  0
 36 37  2  0  0  0  0
 36 41  1  0  0  0  0
 38 39  1  0  0  0  0
 38 40  1  0  0  0  0
 38104  1  0  0  0  0
 39105  1  0  0  0  0
 39106  1  0  0  0  0
 39107  1  0  0  0  0
 40108  1  0  0  0  0
 40109  1  0  0  0  0
 40110  1  0  0  0  0
 41 42  1  0  0  0  0
 41111  1  0  0  0  0
 42 43  1  0  0  0  0
 42 45  1  0  0  0  0
 42112  1  6  0  0  0
 43 44  2  0  0  0  0
 43 49  1  0  0  0  0
 45 46  1  0  0  0  0
 45113  1  0  0  0  0
 45114  1  0  0  0  0
 46 47  1  0  0  0  0
 46 48  1  0  0  0  0
 46115  1  0  0  0  0
 47116  1  0  0  0  0
 47117  1  0  0  0  0
 47118  1  0  0  0  0
 48119  1  0  0  0  0
 48120  1  0  0  0  0
 48121  1  0  0  0  0
 49 50  1  0  0  0  0
 49122  1  0  0  0  0
 50 51  1  0  0  0  0
 50 53  1  0  0  0  0
 50123  1  6  0  0  0
 51 52  1  0  0  0  0
 51 60  2  0  0  0  0
 53 54  1  0  0  0  0
 53124  1  0  0  0  0
 53125  1  0  0  0  0
 54 55  1  0  0  0  0
 54126  1  0  0  0  0
 54127  1  0  0  0  0
 55 56  1  0  0  0  0
 55128  1  0  0  0  0
 55129  1  0  0  0  0
 56 57  1  0  0  0  0
 56130  1  0  0  0  0
 57 58  1  0  0  0  0
 57 59  1  0  0  0  0
 58131  1  0  0  0  0
 58132  1  0  0  0  0
 59133  1  0  0  0  0
 59134  1  0  0  0  0
M  CHG  3   1   1  28   1  52  -1
M  END
