3jq8_ligand
 OpenBabel08222323343D

 29 30  0  0  0  0  0  0  0  0999 V2000
    3.6170  -11.3040   43.0230 C   0  0  0  0  0  0  0  0  0  0  0  0
    2.7760  -10.8990   44.0560 C   0  0  0  0  0  0  0  0  0  0  0  0
    2.7470   -9.5490   44.3960 C   0  0  0  0  0  0  0  0  0  0  0  0
    3.5270   -8.6800   43.7310 N   0  0  0  0  0  0  0  0  0  0  0  0
    4.3730  -10.3960   42.3900 N   0  0  0  0  0  0  0  0  0  0  0  0
    3.6910  -12.6470   42.6470 N   0  0  0  0  0  0  0  0  0  0  0  0
    2.7470  -13.6530   43.1900 C   0  0  0  0  0  0  0  0  0  0  0  0
    3.5470  -14.8860   43.6300 C   0  0  0  0  0  0  0  0  0  0  0  0
    1.8010  -13.9980   42.0440 C   0  0  0  0  0  0  0  0  0  0  0  0
    1.9390  -13.0860   44.3830 C   0  0  0  0  0  0  0  0  0  0  0  0
    1.0250  -13.9870   45.2280 C   0  0  0  0  0  0  0  0  0  0  0  0
    2.0100  -11.7860   44.7150 N   0  0  0  0  0  0  0  0  0  0  0  0
    4.3270   -9.1000   42.7340 C   0  0  0  0  0  0  0  0  0  0  0  0
    5.0910   -8.2320   42.0820 N   0  0  0  0  0  0  0  0  0  0  0  0
    1.9570   -9.1200   45.3760 N   0  0  0  0  0  0  0  0  0  0  0  0
    4.4162  -12.9446   41.9788 H   0  0  0  0  0  0  0  0  0  0  0  0
    2.8600  -15.6431   44.0360 H   0  0  0  0  0  0  0  0  0  0  0  0
    4.2718  -14.5956   44.4048 H   0  0  0  0  0  0  0  0  0  0  0  0
    4.0828  -15.3034   42.7647 H   0  0  0  0  0  0  0  0  0  0  0  0
    1.0698  -14.7459   42.3847 H   0  0  0  0  0  0  0  0  0  0  0  0
    2.3788  -14.4071   41.2021 H   0  0  0  0  0  0  0  0  0  0  0  0
    1.2722  -13.0899   41.7189 H   0  0  0  0  0  0  0  0  0  0  0  0
    0.5485  -13.3880   46.0181 H   0  0  0  0  0  0  0  0  0  0  0  0
    1.6225  -14.7890   45.6860 H   0  0  0  0  0  0  0  0  0  0  0  0
    0.2496  -14.4289   44.5850 H   0  0  0  0  0  0  0  0  0  0  0  0
    5.0670   -7.2337   42.3343 H   0  0  0  0  0  0  0  0  0  0  0  0
    5.7078   -8.5568   41.3238 H   0  0  0  0  0  0  0  0  0  0  0  0
    1.9396   -8.1203   45.6232 H   0  0  0  0  0  0  0  0  0  0  0  0
    1.3625   -9.7875   45.8878 H   0  0  0  0  0  0  0  0  0  0  0  0
  1  2  2  0  0  0  0
  1  5  1  0  0  0  0
  1  6  1  0  0  0  0
  2  3  1  0  0  0  0
  2 12  1  0  0  0  0
  3  4  2  0  0  0  0
  3 15  1  0  0  0  0
  4 13  1  0  0  0  0
  5 13  2  0  0  0  0
  6  7  1  0  0  0  0
  6 16  1  0  0  0  0
  7  8  1  0  0  0  0
  7  9  1  0  0  0  0
  7 10  1  0  0  0  0
  8 17  1  0  0  0  0
  8 18  1  0  0  0  0
  8 19  1  0  0  0  0
  9 20  1  0  0  0  0
  9 21  1  0  0  0  0
  9 22  1  0  0  0  0
 10 11  1  0  0  0  0
 10 12  2  0  0  0  0
 11 23  1  0  0  0  0
 11 24  1  0  0  0  0
 11 25  1  0  0  0  0
 13 14  1  0  0  0  0
 14 26  1  0  0  0  0
 14 27  1  0  0  0  0
 15 28  1  0  0  0  0
 15 29  1  0  0  0  0
M  END
