3jqb_ligand
 OpenBabel08222323343D

 34 36  0  0  1  0  0  0  0  0999 V2000
   14.7990  -16.7840   20.7260 C   0  0  0  0  0  0  0  0  0  0  0  0
   15.0790  -17.8100   19.8260 C   0  0  0  0  0  0  0  0  0  0  0  0
   15.2120  -19.1170   20.2880 C   0  0  0  0  0  0  0  0  0  0  0  0
   15.0710  -19.3930   21.6480 C   0  0  0  0  0  0  0  0  0  0  0  0
   14.7900  -18.3680   22.5460 C   0  0  0  0  0  0  0  0  0  0  0  0
   14.6550  -17.0620   22.0850 C   0  0  0  0  0  0  0  0  0  0  0  0
   14.3410  -15.9370   23.0700 C   0  0  0  0  0  0  0  0  0  0  0  0
   12.8240  -15.7230   23.1480 C   0  0  0  0  0  0  0  0  0  0  0  0
   12.4060  -14.3220   22.6750 C   0  0  0  0  0  0  0  0  0  0  0  0
   13.1920  -13.4080   22.1000 C   0  0  0  0  0  0  0  0  0  0  0  0
   12.4840  -12.3110   21.8310 N   0  0  0  0  0  0  0  0  0  0  0  0
   11.2240  -12.4880   22.2230 C   0  0  0  0  0  0  0  0  0  0  0  0
   10.1410  -11.6900   22.1620 N   0  0  0  0  0  0  0  0  0  0  0  0
   11.1350  -13.7650   22.7680 C   0  0  0  0  0  0  0  0  0  0  0  0
    9.9120  -14.2200   23.2600 C   0  0  0  0  0  0  0  0  0  0  0  0
    9.7970  -15.3420   23.7500 O   0  0  0  0  0  0  0  0  0  0  0  0
    8.8020  -13.3710   23.1890 N   0  0  0  0  0  0  0  0  0  0  0  0
    8.9480  -12.0940   22.6320 C   0  0  2  0  0  3  0  0  0  0  0  0
    7.8980  -11.2850   22.5580 N   0  0  0  0  0  0  0  0  0  0  0  0
   14.6927  -15.7661   20.3687 H   0  0  0  0  0  0  0  0  0  0  0  0
   15.1929  -17.5918   18.7703 H   0  0  0  0  0  0  0  0  0  0  0  0
   15.4250  -19.9195   19.5911 H   0  0  0  0  0  0  0  0  0  0  0  0
   15.1808  -20.4100   22.0067 H   0  0  0  0  0  0  0  0  0  0  0  0
   14.6766  -18.5862   23.6017 H   0  0  0  0  0  0  0  0  0  0  0  0
   14.8237  -15.0088   22.7302 H   0  0  0  0  0  0  0  0  0  0  0  0
   14.7235  -16.2060   24.0657 H   0  0  0  0  0  0  0  0  0  0  0  0
   12.5017  -15.8545   24.1915 H   0  0  0  0  0  0  0  0  0  0  0  0
   12.3282  -16.4726   22.5138 H   0  0  0  0  0  0  0  0  0  0  0  0
   14.2512  -13.5391   21.8836 H   0  0  0  0  0  0  0  0  0  0  0  0
   12.8546  -11.4580   21.3882 H   0  0  0  0  0  0  0  0  0  0  0  0
   10.2284  -10.7514   21.7470 H   0  0  0  0  0  0  0  0  0  0  0  0
    7.9128  -13.6730   23.5327 H   0  0  0  0  0  0  0  0  0  0  0  0
    7.9999  -10.3450   22.1494 H   0  0  0  0  0  0  0  0  0  0  0  0
    6.9815  -11.5973   22.9092 H   0  0  0  0  0  0  0  0  0  0  0  0
  1  2  2  0  0  0  0
  1  6  1  0  0  0  0
  1 20  1  0  0  0  0
  2  3  1  0  0  0  0
  2 21  1  0  0  0  0
  3  4  2  0  0  0  0
  3 22  1  0  0  0  0
  4  5  1  0  0  0  0
  4 23  1  0  0  0  0
  5  6  2  0  0  0  0
  5 24  1  0  0  0  0
  6  7  1  0  0  0  0
  7  8  1  0  0  0  0
  7 25  1  0  0  0  0
  7 26  1  0  0  0  0
  8  9  1  0  0  0  0
  8 27  1  0  0  0  0
  8 28  1  0  0  0  0
  9 10  2  0  0  0  0
  9 14  1  0  0  0  0
 10 11  1  0  0  0  0
 10 29  1  0  0  0  0
 11 12  1  0  0  0  0
 11 30  1  0  0  0  0
 12 13  1  0  0  0  0
 12 14  2  0  0  0  0
 13 18  1  0  0  0  0
 13 31  1  0  0  0  0
 14 15  1  0  0  0  0
 15 16  2  0  0  0  0
 15 17  1  0  0  0  0
 17 18  1  0  0  0  0
 17 32  1  0  0  0  0
 18 19  1  6  0  0  0
 19 33  1  0  0  0  0
 19 34  1  0  0  0  0
M  END
