3jqf_ligand
 OpenBabel08222323343D

 15 15  0  0  0  0  0  0  0  0999 V2000
    9.7320  -11.3260   13.8620 C   0  0  0  0  0  0  0  0  0  0  0  0
    8.2720   -9.6520   14.7120 C   0  0  0  0  0  0  0  0  0  0  0  0
   10.5790   -9.1860   14.5300 C   0  0  0  0  0  0  0  0  0  0  0  0
    9.8900  -12.5880   13.3710 N   0  0  0  0  0  0  0  0  0  0  0  0
   11.6110   -8.3260   14.6930 N   0  0  0  0  0  0  0  0  0  0  0  0
    9.3140   -8.7940   14.8700 N   0  0  0  0  0  0  0  0  0  0  0  0
    7.0250   -9.2710   15.0670 N   0  0  0  0  0  0  0  0  0  0  0  0
    8.4640  -10.9100   14.1970 N   0  0  0  0  0  0  0  0  0  0  0  0
   10.7970  -10.4910   14.0610 N   0  0  0  0  0  0  0  0  0  0  0  0
    9.0682  -13.1932   13.2321 H   0  0  0  0  0  0  0  0  0  0  0  0
   10.8312  -12.9362   13.1389 H   0  0  0  0  0  0  0  0  0  0  0  0
   11.4363   -7.3714   15.0380 H   0  0  0  0  0  0  0  0  0  0  0  0
   12.5712   -8.6261   14.4721 H   0  0  0  0  0  0  0  0  0  0  0  0
    6.8647   -8.3304   15.4549 H   0  0  0  0  0  0  0  0  0  0  0  0
    6.2348   -9.9212   14.9497 H   0  0  0  0  0  0  0  0  0  0  0  0
  1  4  1  0  0  0  0
  1  9  1  0  0  0  0
  2  7  1  0  0  0  0
  2  8  1  0  0  0  0
  3  5  1  0  0  0  0
  3  6  1  0  0  0  0
  3  9  2  0  0  0  0
  4 10  1  0  0  0  0
  4 11  1  0  0  0  0
  5 12  1  0  0  0  0
  5 13  1  0  0  0  0
  6  2  2  0  0  0  0
  7 14  1  0  0  0  0
  7 15  1  0  0  0  0
  8  1  2  0  0  0  0
M  END
