3jqg_ligand
 OpenBabel08222323343D

 32 33  0  0  0  0  0  0  0  0999 V2000
    9.8370  -11.2870   14.4320 C   0  0  0  0  0  0  0  0  0  0  0  0
    8.5150  -10.8630   14.7560 C   0  0  0  0  0  0  0  0  0  0  0  0
    8.3040   -9.5260   15.1660 C   0  0  0  0  0  0  0  0  0  0  0  0
    9.3660   -8.6970   15.2120 N   0  0  0  0  0  0  0  0  0  0  0  0
   10.8370  -10.4000   14.5120 N   0  0  0  0  0  0  0  0  0  0  0  0
    3.6200  -14.3990   16.7080 C   0  0  0  0  0  0  0  0  0  0  0  0
    4.6220  -15.4440   16.5670 O   0  0  0  0  0  0  0  0  0  0  0  0
    5.6410  -15.0030   15.7860 C   0  0  0  0  0  0  0  0  0  0  0  0
    5.3490  -14.5400   14.5030 C   0  0  0  0  0  0  0  0  0  0  0  0
    6.3590  -14.0630   13.6740 C   0  0  0  0  0  0  0  0  0  0  0  0
    6.9540  -15.0040   16.2550 C   0  0  0  0  0  0  0  0  0  0  0  0
    7.9670  -14.5180   15.4200 C   0  0  0  0  0  0  0  0  0  0  0  0
    7.6740  -14.0460   14.1260 C   0  0  0  0  0  0  0  0  0  0  0  0
    8.7380  -13.5180   13.1440 C   0  0  0  0  0  0  0  0  0  0  0  0
   10.3140  -12.9620   13.9050 S   0  0  0  0  0  0  0  0  0  0  0  0
   10.6100   -9.1220   14.9000 C   0  0  0  0  0  0  0  0  0  0  0  0
   11.6300   -8.2720   14.9750 N   0  0  0  0  0  0  0  0  0  0  0  0
    7.0810   -9.0380   15.5110 N   0  0  0  0  0  0  0  0  0  0  0  0
    7.6836  -11.5553   14.6891 H   0  0  0  0  0  0  0  0  0  0  0  0
    2.7976  -14.7627   17.3416 H   0  0  0  0  0  0  0  0  0  0  0  0
    3.2276  -14.1310   15.7160 H   0  0  0  0  0  0  0  0  0  0  0  0
    4.0770  -13.5131   17.1731 H   0  0  0  0  0  0  0  0  0  0  0  0
    4.3247  -14.5520   14.1484 H   0  0  0  0  0  0  0  0  0  0  0  0
    6.1217  -13.7056   12.6785 H   0  0  0  0  0  0  0  0  0  0  0  0
    7.1859  -15.3740   17.2472 H   0  0  0  0  0  0  0  0  0  0  0  0
    8.9913  -14.5048   15.7745 H   0  0  0  0  0  0  0  0  0  0  0  0
    8.3045  -12.6646   12.6020 H   0  0  0  0  0  0  0  0  0  0  0  0
    8.9716  -14.3239   12.4327 H   0  0  0  0  0  0  0  0  0  0  0  0
   11.4683   -7.2982   15.2689 H   0  0  0  0  0  0  0  0  0  0  0  0
   12.5817   -8.5875   14.7392 H   0  0  0  0  0  0  0  0  0  0  0  0
    6.9823   -8.0551   15.8028 H   0  0  0  0  0  0  0  0  0  0  0  0
    6.2543   -9.6516   15.4803 H   0  0  0  0  0  0  0  0  0  0  0  0
  1  2  2  0  0  0  0
  1  5  1  0  0  0  0
  2  3  1  0  0  0  0
  2 19  1  0  0  0  0
  3  4  2  0  0  0  0
  3 18  1  0  0  0  0
  5 16  2  0  0  0  0
  6 20  1  0  0  0  0
  6 21  1  0  0  0  0
  6 22  1  0  0  0  0
  7  6  1  0  0  0  0
  8  7  1  0  0  0  0
  9  8  2  0  0  0  0
  9 23  1  0  0  0  0
 10  9  1  0  0  0  0
 10 24  1  0  0  0  0
 11  8  1  0  0  0  0
 11 25  1  0  0  0  0
 12 11  2  0  0  0  0
 12 26  1  0  0  0  0
 13 10  2  0  0  0  0
 13 12  1  0  0  0  0
 14 13  1  0  0  0  0
 14 15  1  0  0  0  0
 14 27  1  0  0  0  0
 14 28  1  0  0  0  0
 15  1  1  0  0  0  0
 16  4  1  0  0  0  0
 16 17  1  0  0  0  0
 17 29  1  0  0  0  0
 17 30  1  0  0  0  0
 18 31  1  0  0  0  0
 18 32  1  0  0  0  0
M  END
