3jxw_ligand
 OpenBabel08222323343D

 43 46  0  0  0  0  0  0  0  0999 V2000
  -23.8040  -30.7810   -2.2150 C   0  0  0  0  0  0  0  0  0  0  0  0
  -22.3860  -30.7450   -2.6910 N   0  3  0  0  0  0  0  0  0  0  0  0
  -22.1930  -31.5690    2.5440 O   0  0  0  0  0  0  0  0  0  0  0  0
  -23.1440  -34.5910    2.5860 S   0  0  0  0  0  0  0  0  0  0  0  0
  -21.8330  -29.4130   -3.0940 C   0  0  0  0  0  0  0  0  0  0  0  0
  -22.1860  -33.5700   -1.0310 N   0  0  0  0  0  0  0  0  0  0  0  0
  -21.3750  -31.6060   -2.0380 C   0  0  0  0  0  0  0  0  0  0  0  0
  -21.7900  -31.6270    0.2900 N   0  0  0  0  0  0  0  0  0  0  0  0
  -21.8280  -32.3440   -0.8610 C   0  0  0  0  0  0  0  0  0  0  0  0
  -22.5990  -34.2130    0.1530 C   0  0  0  0  0  0  0  0  0  0  0  0
  -23.0350  -35.5720    0.2340 C   0  0  0  0  0  0  0  0  0  0  0  0
  -23.1460  -36.5070   -0.7790 C   0  0  0  0  0  0  0  0  0  0  0  0
  -23.6160  -37.7740   -0.4540 C   0  0  0  0  0  0  0  0  0  0  0  0
  -23.7640  -38.8040   -1.5420 C   0  0  0  0  0  0  0  0  0  0  0  0
  -24.1970  -38.3980   -2.7600 C   0  0  0  0  0  0  0  0  0  0  0  0
  -24.4620  -39.0820   -4.0390 C   0  0  0  0  0  0  0  0  0  0  0  0
  -25.2410  -38.3800   -5.1440 C   0  0  0  0  0  0  0  0  0  0  0  0
  -23.7730  -38.6160   -5.2980 C   0  0  0  0  0  0  0  0  0  0  0  0
  -23.9480  -38.0730    0.8640 C   0  0  0  0  0  0  0  0  0  0  0  0
  -23.8420  -37.1700    1.9080 C   0  0  0  0  0  0  0  0  0  0  0  0
  -23.3810  -35.9290    1.5360 C   0  0  0  0  0  0  0  0  0  0  0  0
  -22.5960  -33.5390    1.3380 C   0  0  0  0  0  0  0  0  0  0  0  0
  -22.1910  -32.1800    1.4910 C   0  0  0  0  0  0  0  0  0  0  0  0
  -24.4088  -30.0821   -2.8114 H   0  0  0  0  0  0  0  0  0  0  0  0
  -23.8427  -30.4875   -1.1556 H   0  0  0  0  0  0  0  0  0  0  0  0
  -24.2030  -31.7998   -2.3281 H   0  0  0  0  0  0  0  0  0  0  0  0
  -22.4843  -31.2025   -3.5838 H   0  0  0  0  0  0  0  0  0  0  0  0
  -20.7893  -29.5328   -3.4202 H   0  0  0  0  0  0  0  0  0  0  0  0
  -21.8725  -28.7250   -2.2367 H   0  0  0  0  0  0  0  0  0  0  0  0
  -22.4309  -29.0028   -3.9212 H   0  0  0  0  0  0  0  0  0  0  0  0
  -20.5348  -30.9657   -1.7312 H   0  0  0  0  0  0  0  0  0  0  0  0
  -21.0258  -32.3383   -2.7808 H   0  0  0  0  0  0  0  0  0  0  0  0
  -21.4659  -30.6812    0.2688 H   0  0  0  0  0  0  0  0  0  0  0  0
  -22.8739  -36.2585   -1.7985 H   0  0  0  0  0  0  0  0  0  0  0  0
  -23.5286  -39.8506   -1.3545 H   0  0  0  0  0  0  0  0  0  0  0  0
  -24.3930  -37.3277   -2.8041 H   0  0  0  0  0  0  0  0  0  0  0  0
  -24.6132  -40.1560   -3.8555 H   0  0  0  0  0  0  0  0  0  0  0  0
  -25.6205  -37.3596   -4.9865 H   0  0  0  0  0  0  0  0  0  0  0  0
  -25.9565  -38.9467   -5.7579 H   0  0  0  0  0  0  0  0  0  0  0  0
  -23.4110  -39.3539   -6.0291 H   0  0  0  0  0  0  0  0  0  0  0  0
  -23.0750  -37.7668   -5.2577 H   0  0  0  0  0  0  0  0  0  0  0  0
  -24.3104  -39.0702    1.0859 H   0  0  0  0  0  0  0  0  0  0  0  0
  -24.1002  -37.4197    2.9308 H   0  0  0  0  0  0  0  0  0  0  0  0
  1 24  1  0  0  0  0
  1 25  1  0  0  0  0
  1 26  1  0  0  0  0
  2  1  1  0  0  0  0
  2  5  1  0  0  0  0
  2 27  1  0  0  0  0
  4 21  1  0  0  0  0
  5 28  1  0  0  0  0
  5 29  1  0  0  0  0
  5 30  1  0  0  0  0
  6  9  2  0  0  0  0
  7  2  1  0  0  0  0
  7 31  1  0  0  0  0
  7 32  1  0  0  0  0
  8 23  1  0  0  0  0
  8 33  1  0  0  0  0
  9  7  1  0  0  0  0
  9  8  1  0  0  0  0
 10  6  1  0  0  0  0
 10 11  1  0  0  0  0
 10 22  2  0  0  0  0
 11 12  2  0  0  0  0
 11 21  1  0  0  0  0
 12 13  1  0  0  0  0
 12 34  1  0  0  0  0
 13 14  1  0  0  0  0
 13 19  2  0  0  0  0
 14 15  2  0  0  0  0
 14 35  1  0  0  0  0
 15 16  1  0  0  0  0
 15 36  1  0  0  0  0
 16 17  1  0  0  0  0
 16 18  1  0  0  0  0
 16 37  1  0  0  0  0
 17 18  1  0  0  0  0
 17 38  1  0  0  0  0
 17 39  1  0  0  0  0
 18 40  1  0  0  0  0
 18 41  1  0  0  0  0
 19 20  1  0  0  0  0
 19 42  1  0  0  0  0
 20 21  2  0  0  0  0
 20 43  1  0  0  0  0
 22  4  1  0  0  0  0
 22 23  1  0  0  0  0
 23  3  2  0  0  0  0
M  CHG  1   2   1
M  END
