3jy9_ligand
 OpenBabel08222323343D

 41 45  0  0  1  0  0  0  0  0999 V2000
    9.0030   18.0650    0.2540 O   0  0  0  0  0  0  0  0  0  0  0  0
    9.7370   17.0140    0.7780 C   0  0  0  0  0  0  0  0  0  0  0  0
   10.0370   16.9850    2.1380 C   0  0  0  0  0  0  0  0  0  0  0  0
   10.8190   15.9780    2.6330 C   0  0  0  0  0  0  0  0  0  0  0  0
   11.2880   14.9490    1.7950 C   0  0  0  0  0  0  0  0  0  0  0  0
   11.0130   14.9690    0.4170 C   0  0  0  0  0  0  0  0  0  0  0  0
   10.2250   16.0030   -0.0790 C   0  0  0  0  0  0  0  0  0  0  0  0
   12.2220   13.8130    2.1380 C   0  0  2  0  0  0  0  0  0  0  0  0
   13.6830   14.2370    1.9240 C   0  0  0  0  0  0  0  0  0  0  0  0
   13.9770   14.6030    0.7850 O   0  0  0  0  0  0  0  0  0  0  0  0
   14.7700   14.1490    2.7060 N   0  0  0  0  0  0  0  0  0  0  0  0
   14.8250   13.7160    4.0300 C   0  0  0  0  0  0  0  0  0  0  0  0
   15.2470   14.6570    4.9760 C   0  0  0  0  0  0  0  0  0  0  0  0
   15.3810   14.3160    6.3280 C   0  0  0  0  0  0  0  0  0  0  0  0
   15.0760   13.0050    6.7510 C   0  0  0  0  0  0  0  0  0  0  0  0
   14.6380   12.0910    5.7840 C   0  0  0  0  0  0  0  0  0  0  0  0
   14.5230   12.3990    4.3860 C   0  0  0  0  0  0  0  0  0  0  0  0
   13.9840   11.2760    3.5240 C   0  0  0  0  0  0  0  0  0  0  0  0
   14.4950    9.9600    3.7360 C   0  0  0  0  0  0  0  0  0  0  0  0
   13.9750    8.8690    3.0950 C   0  0  0  0  0  0  0  0  0  0  0  0
   12.9430    8.9400    2.2500 N   0  0  0  0  0  0  0  0  0  0  0  0
   12.4010   10.1140    1.9710 C   0  0  0  0  0  0  0  0  0  0  0  0
   11.3490   10.4070    1.0970 N   0  0  0  0  0  0  0  0  0  0  0  0
   11.1840   11.7680    1.1420 C   0  0  0  0  0  0  0  0  0  0  0  0
   12.0420   12.3350    2.0560 C   0  0  0  0  0  0  0  0  0  0  0  0
   12.9100   11.2990    2.6110 C   0  0  0  0  0  0  0  0  0  0  0  0
    9.4668   18.8801    0.4053 H   0  0  0  0  0  0  0  0  0  0  0  0
    9.6538   17.7543    2.7986 H   0  0  0  0  0  0  0  0  0  0  0  0
   11.0811   15.9723    3.6848 H   0  0  0  0  0  0  0  0  0  0  0  0
   11.4036   14.2009   -0.2407 H   0  0  0  0  0  0  0  0  0  0  0  0
    9.9829   16.0329   -1.1352 H   0  0  0  0  0  0  0  0  0  0  0  0
   12.1399   13.8937    3.2319 H   0  0  0  0  0  0  0  0  0  0  0  0
   15.6378   14.4249    2.2927 H   0  0  0  0  0  0  0  0  0  0  0  0
   15.4742   15.6677    4.6568 H   0  0  0  0  0  0  0  0  0  0  0  0
   15.7173   15.0556    7.0456 H   0  0  0  0  0  0  0  0  0  0  0  0
   15.1773   12.7145    7.7904 H   0  0  0  0  0  0  0  0  0  0  0  0
   14.3701   11.0925    6.1101 H   0  0  0  0  0  0  0  0  0  0  0  0
   15.3198    9.8210    4.4256 H   0  0  0  0  0  0  0  0  0  0  0  0
   14.4224    7.8995    3.2820 H   0  0  0  0  0  0  0  0  0  0  0  0
   10.8075    9.7362    0.5334 H   0  0  0  0  0  0  0  0  0  0  0  0
   10.4704   12.3245    0.5362 H   0  0  0  0  0  0  0  0  0  0  0  0
  1  2  1  0  0  0  0
  1 27  1  0  0  0  0
  2  3  2  0  0  0  0
  2  7  1  0  0  0  0
  3  4  1  0  0  0  0
  3 28  1  0  0  0  0
  4  5  2  0  0  0  0
  4 29  1  0  0  0  0
  5  6  1  0  0  0  0
  5  8  1  0  0  0  0
  6  7  2  0  0  0  0
  6 30  1  0  0  0  0
  7 31  1  0  0  0  0
  8  9  1  0  0  0  0
  8 25  1  0  0  0  0
  8 32  1  1  0  0  0
  9 10  2  0  0  0  0
  9 11  1  0  0  0  0
 11 12  1  0  0  0  0
 11 33  1  0  0  0  0
 12 13  2  0  0  0  0
 12 17  1  0  0  0  0
 13 14  1  0  0  0  0
 13 34  1  0  0  0  0
 14 15  2  0  0  0  0
 14 35  1  0  0  0  0
 15 16  1  0  0  0  0
 15 36  1  0  0  0  0
 16 17  2  0  0  0  0
 16 37  1  0  0  0  0
 17 18  1  0  0  0  0
 18 19  2  0  0  0  0
 18 26  1  0  0  0  0
 19 20  1  0  0  0  0
 19 38  1  0  0  0  0
 20 21  2  0  0  0  0
 20 39  1  0  0  0  0
 21 22  1  0  0  0  0
 22 23  1  0  0  0  0
 22 26  2  0  0  0  0
 23 24  1  0  0  0  0
 23 40  1  0  0  0  0
 24 25  2  0  0  0  0
 24 41  1  0  0  0  0
 25 26  1  0  0  0  0
M  END
