3jzk_ligand
 OpenBabel08222323343D

 47 52  0  0  1  0  0  0  0  0999 V2000
   10.0160  -15.8340   25.9040 C   0  0  0  0  0  0  0  0  0  0  0  0
   11.3370  -16.6150   24.0060 N   0  0  0  0  0  0  0  0  0  0  0  0
    6.7510  -15.3200   22.7390 O   0  0  0  0  0  0  0  0  0  0  0  0
   10.3610  -13.8190   30.0390 Br  0  0  0  0  0  0  0  0  0  0  0  0
    9.4980  -16.6000   27.0400 C   0  0  0  0  0  0  0  0  0  0  0  0
   13.0110  -16.4650   22.7090 N   0  0  0  0  0  0  0  0  0  0  0  0
    6.0780  -10.4650   27.3190 Br  0  0  0  0  0  0  0  0  0  0  0  0
    9.5530  -16.0100   28.3530 C   0  0  0  0  0  0  0  0  0  0  0  0
   10.8510  -15.3140   21.9490 N   0  0  0  0  0  0  0  0  0  0  0  0
   10.1260  -14.7080   28.3830 C   0  0  0  0  0  0  0  0  0  0  0  0
   12.2740  -17.2910   24.6340 N   0  0  0  0  0  0  0  0  0  0  0  0
   10.6280  -13.9280   27.3240 C   0  0  0  0  0  0  0  0  0  0  0  0
   10.5760  -14.5140   26.0360 C   0  0  0  0  0  0  0  0  0  0  0  0
    7.5570  -15.2740   23.9390 C   0  0  1  0  0  0  0  0  0  0  0  0
   13.3460  -17.1960   23.8070 C   0  0  0  0  0  0  0  0  0  0  0  0
    9.0140  -15.5700   23.5600 C   0  0  0  0  0  0  0  0  0  0  0  0
    9.9510  -16.4060   24.5430 C   0  0  2  0  0  0  0  0  0  0  0  0
   11.7460  -16.0910   22.8150 C   0  0  0  0  0  0  0  0  0  0  0  0
    9.4760  -15.1150   22.3550 C   0  0  0  0  0  0  0  0  0  0  0  0
    9.1340  -13.6140   20.3190 C   0  0  0  0  0  0  0  0  0  0  0  0
    8.1400  -12.9550   19.4880 C   0  0  0  0  0  0  0  0  0  0  0  0
    6.7380  -13.1050   19.7220 C   0  0  0  0  0  0  0  0  0  0  0  0
    6.2480  -13.9250   20.8090 C   0  0  0  0  0  0  0  0  0  0  0  0
    7.2080  -14.5800   21.6480 C   0  0  0  0  0  0  0  0  0  0  0  0
    8.6210  -14.4320   21.4110 C   0  0  0  0  0  0  0  0  0  0  0  0
    6.2730  -14.1710   25.6790 C   0  0  0  0  0  0  0  0  0  0  0  0
    7.3350  -13.9900   24.7200 C   0  0  0  0  0  0  0  0  0  0  0  0
    8.0400  -12.7240   24.5300 C   0  0  0  0  0  0  0  0  0  0  0  0
    7.6610  -11.5880   25.3260 C   0  0  0  0  0  0  0  0  0  0  0  0
    6.5900  -11.7940   26.2730 C   0  0  0  0  0  0  0  0  0  0  0  0
    5.8780  -13.0410   26.4820 C   0  0  0  0  0  0  0  0  0  0  0  0
    9.0818  -17.5905   26.8956 H   0  0  0  0  0  0  0  0  0  0  0  0
    9.1894  -16.5142   29.2411 H   0  0  0  0  0  0  0  0  0  0  0  0
   11.1968  -14.9157   21.0643 H   0  0  0  0  0  0  0  0  0  0  0  0
   11.0315  -12.9349   27.4855 H   0  0  0  0  0  0  0  0  0  0  0  0
   10.9493  -13.9810   25.1690 H   0  0  0  0  0  0  0  0  0  0  0  0
    7.2250  -16.0932   24.5937 H   0  0  0  0  0  0  0  0  0  0  0  0
   14.3241  -17.6370   23.9934 H   0  0  0  0  0  0  0  0  0  0  0  0
    9.4912  -17.4010   24.6355 H   0  0  0  0  0  0  0  0  0  0  0  0
   10.1969  -13.5034   20.1369 H   0  0  0  0  0  0  0  0  0  0  0  0
    8.4720  -12.3310   18.6661 H   0  0  0  0  0  0  0  0  0  0  0  0
    6.0314  -12.5970   19.0757 H   0  0  0  0  0  0  0  0  0  0  0  0
    5.1845  -14.0407   20.9839 H   0  0  0  0  0  0  0  0  0  0  0  0
    5.7845  -15.1320   25.7929 H   0  0  0  0  0  0  0  0  0  0  0  0
    8.8369  -12.6425   23.7997 H   0  0  0  0  0  0  0  0  0  0  0  0
    8.1530  -10.6278   25.2209 H   0  0  0  0  0  0  0  0  0  0  0  0
    5.0811  -13.1196   27.2126 H   0  0  0  0  0  0  0  0  0  0  0  0
  1  5  2  0  0  0  0
  1 13  1  0  0  0  0
  2 11  1  0  0  0  0
  2 18  1  0  0  0  0
  3 24  1  0  0  0  0
  5  8  1  0  0  0  0
  5 32  1  0  0  0  0
  6 15  1  0  0  0  0
  8 10  2  0  0  0  0
  8 33  1  0  0  0  0
  9 18  1  0  0  0  0
  9 34  1  0  0  0  0
 10  4  1  0  0  0  0
 11 15  2  0  0  0  0
 12 10  1  0  0  0  0
 12 35  1  0  0  0  0
 13 12  2  0  0  0  0
 13 36  1  0  0  0  0
 14  3  1  0  0  0  0
 14 16  1  0  0  0  0
 14 37  1  1  0  0  0
 15 38  1  0  0  0  0
 16 17  1  0  0  0  0
 16 19  2  0  0  0  0
 17  1  1  0  0  0  0
 17  2  1  0  0  0  0
 17 39  1  1  0  0  0
 18  6  2  0  0  0  0
 19  9  1  0  0  0  0
 19 25  1  0  0  0  0
 20 21  2  0  0  0  0
 20 40  1  0  0  0  0
 21 41  1  0  0  0  0
 22 21  1  0  0  0  0
 22 42  1  0  0  0  0
 23 22  2  0  0  0  0
 23 43  1  0  0  0  0
 24 23  1  0  0  0  0
 24 25  2  0  0  0  0
 25 20  1  0  0  0  0
 26 31  1  0  0  0  0
 26 44  1  0  0  0  0
 27 14  1  0  0  0  0
 27 26  2  0  0  0  0
 28 27  1  0  0  0  0
 28 45  1  0  0  0  0
 29 28  2  0  0  0  0
 29 30  1  0  0  0  0
 29 46  1  0  0  0  0
 30  7  1  0  0  0  0
 30 31  2  0  0  0  0
 31 47  1  0  0  0  0
M  END
