3jzo_ligand
 OpenBabel08222323343D

204208  0  0  1  0  0  0  0  0999 V2000
   23.8630    9.1910    5.9250 N   0  3  0  0  0  0  0  0  0  0  0  0
   24.8040    9.1600    7.0850 C   0  0  2  0  0  0  0  0  0  0  0  0
   23.9900    9.2290    8.3640 C   0  0  0  0  0  0  0  0  0  0  0  0
   24.5060    9.0050    9.4490 O   0  0  0  0  0  0  0  0  0  0  0  0
   25.7650   10.3570    7.0260 C   0  0  0  0  0  0  0  0  0  0  0  0
   26.7880   10.3380    5.8870 C   0  0  0  0  0  0  0  0  0  0  0  0
   27.5840   11.6460    5.8530 C   0  0  0  0  0  0  0  0  0  0  0  0
   27.7160    9.1530    6.0860 C   0  0  0  0  0  0  0  0  0  0  0  0
   22.7140    9.5590    8.2260 N   0  0  0  0  0  0  0  0  0  0  0  0
   21.8120    9.6340    9.3750 C   0  0  2  0  0  0  0  0  0  0  0  0
   20.7770    8.5130    9.2240 C   0  0  0  0  0  0  0  0  0  0  0  0
   20.5090    8.0570    8.1140 O   0  0  0  0  0  0  0  0  0  0  0  0
   21.0630   11.0040    9.4320 C   0  0  2  0  0  0  0  0  0  0  0  0
   20.1860   11.1370    8.3020 O   0  0  0  0  0  0  0  0  0  0  0  0
   22.0720   12.1750    9.4100 C   0  0  0  0  0  0  0  0  0  0  0  0
   20.2130    8.0560   10.3370 N   0  0  0  0  0  0  0  0  0  0  0  0
   19.1830    7.0210   10.2600 C   0  0  2  0  0  0  0  0  0  0  0  0
   18.0380    7.5410    9.3820 C   0  0  0  0  0  0  0  0  0  0  0  0
   17.5750    6.8400    8.4980 O   0  0  0  0  0  0  0  0  0  0  0  0
   18.6580    6.6810   11.6570 C   0  0  0  0  0  0  0  0  0  0  0  0
   17.4300    5.8060   11.6400 C   0  0  0  0  0  0  0  0  0  0  0  0
   17.5290    4.4670   11.3170 C   0  0  0  0  0  0  0  0  0  0  0  0
   16.1670    6.3610   11.8500 C   0  0  0  0  0  0  0  0  0  0  0  0
   16.3860    3.6740   11.1860 C   0  0  0  0  0  0  0  0  0  0  0  0
   15.0190    5.5870   11.7260 C   0  0  0  0  0  0  0  0  0  0  0  0
   15.1330    4.2280   11.3850 C   0  0  0  0  0  0  0  0  0  0  0  0
   17.5880    8.7740    9.6250 N   0  0  0  0  0  0  0  0  0  0  0  0
   16.4740    9.3470    8.8520 C   0  0  2  0  0  0  0  0  0  0  0  0
   16.7150    9.3190    7.3360 C   0  0  0  0  0  0  0  0  0  0  0  0
   15.7980    9.0310    6.5610 O   0  0  0  0  0  0  0  0  0  0  0  0
   16.1880   10.7950    9.2810 C   0  0  0  0  0  0  0  0  0  0  0  0
   16.1470   11.0090   10.7850 C   0  0  0  0  0  0  0  0  0  0  0  0
   17.5160   11.3860   11.3640 C   0  0  0  0  0  0  0  0  0  0  0  0
   17.8570   12.5950   11.3340 O   0  5  0  0  0  0  0  0  0  0  0  0
   18.2450   10.4780   11.8280 O   0  0  0  0  0  0  0  0  0  0  0  0
   17.9380    9.6410    6.9230 N   0  0  0  0  0  0  0  0  0  0  0  0
   18.3080    9.6410    5.5040 C   0  0  2  0  0  0  0  0  0  0  0  0
   18.0910    8.2590    4.8840 C   0  0  0  0  0  0  0  0  0  0  0  0
   17.4780    8.1370    3.8290 O   0  0  0  0  0  0  0  0  0  0  0  0
   19.7780   10.0430    5.3490 C   0  0  0  0  0  0  0  0  0  0  0  0
   20.3140    9.8360    3.9680 C   0  0  0  0  0  0  0  0  0  0  0  0
   20.0150   10.6780    2.9190 N   0  0  0  0  0  0  0  0  0  0  0  0
   21.0700    8.8360    3.4480 C   0  0  0  0  0  0  0  0  0  0  0  0
   20.5630   10.2050    1.8110 C   0  0  0  0  0  0  0  0  0  0  0  0
   21.2060    9.0870    2.1040 N   0  0  0  0  0  0  0  0  0  0  0  0
   18.6150    7.2260    5.5330 N   0  0  0  0  0  0  0  0  0  0  0  0
   18.4600    5.8430    5.0570 C   0  0  2  0  0  0  0  0  0  0  0  0
   17.0070    5.3810    5.1270 C   0  0  0  0  0  0  0  0  0  0  0  0
   16.4910    4.7950    4.1740 O   0  0  0  0  0  0  0  0  0  0  0  0
   19.3110    4.9090    5.9030 C   0  0  0  0  0  0  0  0  0  0  0  0
   20.7940    5.1670    5.7230 C   0  0  0  0  0  0  0  0  0  0  0  0
   21.5960    5.5360    6.7960 C   0  0  0  0  0  0  0  0  0  0  0  0
   21.3750    5.0690    4.4570 C   0  0  0  0  0  0  0  0  0  0  0  0
   22.9580    5.8080    6.6130 C   0  0  0  0  0  0  0  0  0  0  0  0
   22.7230    5.3370    4.2570 C   0  0  0  0  0  0  0  0  0  0  0  0
   23.5040    5.7040    5.3310 C   0  0  0  0  0  0  0  0  0  0  0  0
   24.8290    5.9620    5.1090 O   0  0  0  0  0  0  0  0  0  0  0  0
   16.3420    5.6740    6.2480 N   0  0  0  0  0  0  0  0  0  0  0  0
   14.9620    5.2420    6.4320 C   0  0  2  0  0  0  0  0  0  0  0  0
   13.9940    5.8160    5.3900 C   0  0  0  0  0  0  0  0  0  0  0  0
   13.1140    5.1190    4.8840 O   0  0  0  0  0  0  0  0  0  0  0  0
   14.4890    5.5690    7.8530 C   0  0  0  0  0  0  0  0  0  0  0  0
   13.1300    4.9830    8.1770 C   0  0  0  0  0  0  0  0  0  0  0  0
   11.9200    5.6100    8.1190 C   0  0  0  0  0  0  0  0  0  0  0  0
   12.8640    3.6270    8.5650 C   0  0  0  0  0  0  0  0  0  0  0  0
   10.9110    4.7270    8.4530 N   0  0  0  0  0  0  0  0  0  0  0  0
   11.4620    3.5020    8.7300 C   0  0  0  0  0  0  0  0  0  0  0  0
   13.6770    2.5060    8.7850 C   0  0  0  0  0  0  0  0  0  0  0  0
   10.8500    2.2970    9.1120 C   0  0  0  0  0  0  0  0  0  0  0  0
   13.0660    1.2950    9.1690 C   0  0  0  0  0  0  0  0  0  0  0  0
   11.6660    1.2060    9.3270 C   0  0  0  0  0  0  0  0  0  0  0  0
   14.1610    7.0870    5.0740 N   0  0  0  0  0  0  0  0  0  0  0  0
   13.2990    7.7520    4.1140 C   0  0  2  0  0  0  0  0  0  0  0  0
   13.3430    7.0640    2.7490 C   0  0  0  0  0  0  0  0  0  0  0  0
   12.3730    7.1330    1.9920 O   0  0  0  0  0  0  0  0  0  0  0  0
   13.7220    9.2210    3.9830 C   0  0  0  0  0  0  0  0  0  0  0  0
   14.4540    6.4010    2.4500 N   0  0  0  0  0  0  0  0  0  0  0  0
   14.6260    5.7120    1.1710 C   0  0  2  0  0  0  0  0  0  0  0  0
   13.6850    4.5420    0.9840 C   0  0  0  0  0  0  0  0  0  0  0  0
   13.4220    4.1380   -0.1480 O   0  0  0  0  0  0  0  0  0  0  0  0
   16.0560    5.1900    1.0210 C   0  0  0  0  0  0  0  0  0  0  0  0
   17.1260    6.2360    1.2390 C   0  0  0  0  0  0  0  0  0  0  0  0
   17.0360    7.3650    0.2320 C   0  0  0  0  0  0  0  0  0  0  0  0
   16.0040    8.0350    0.1280 O   0  0  0  0  0  0  0  0  0  0  0  0
   18.1200    7.5850   -0.5170 N   0  0  0  0  0  0  0  0  0  0  0  0
   13.1710    3.9930    2.0810 N   0  0  0  0  0  0  0  0  0  0  0  0
   12.2880    2.8510    1.9770 C   0  0  2  0  0  0  0  0  0  0  0  0
   10.9110    3.1430    1.3860 C   0  0  0  0  0  0  0  0  0  0  0  0
   10.2060    2.2200    1.0010 O   0  0  0  0  0  0  0  0  0  0  0  0
   12.1440    2.1750    3.3340 C   0  0  0  0  0  0  0  0  0  0  0  0
   13.4780    1.7350    3.9610 C   0  0  0  0  0  0  0  0  0  0  0  0
   13.1570    1.0390    5.2880 C   0  0  0  0  0  0  0  0  0  0  0  0
   14.2550    0.7970    3.0350 C   0  0  0  0  0  0  0  0  0  0  0  0
   10.5360    4.4080    1.3210 N   0  0  0  0  0  0  0  0  0  0  0  0
    9.2450    4.7780    0.7390 C   0  0  2  0  0  0  0  0  0  0  0  0
    9.4550    5.8430   -0.3240 C   0  0  0  0  0  0  0  0  0  0  0  0
   10.3920    6.6370   -0.2380 O   0  0  0  0  0  0  0  0  0  0  0  0
    8.2880    5.3400    1.7990 C   0  0  2  0  0  0  0  0  0  0  0  0
    8.9470    6.3940    2.5190 O   0  0  0  0  0  0  0  0  0  0  0  0
    7.8800    4.2430    2.7660 C   0  0  0  0  0  0  0  0  0  0  0  0
    8.5810    5.8460   -1.3280 N   0  0  0  0  0  0  0  0  0  0  0  0
    8.6530    6.8210   -2.4050 C   0  0  2  0  0  0  0  0  0  0  0  0
    8.0240    8.1290   -1.9450 C   0  0  0  0  0  0  0  0  0  0  0  0
    7.2550    8.1070   -0.9490 O   0  5  0  0  0  0  0  0  0  0  0  0
    7.9020    6.3060   -3.6320 C   0  0  0  0  0  0  0  0  0  0  0  0
    6.5100    6.2580   -3.3630 O   0  0  0  0  0  0  0  0  0  0  0  0
    8.2770    9.1630   -2.6040 O   0  0  0  0  0  0  0  0  0  0  0  0
   24.3877    9.1459    5.0655 H   0  0  0  0  0  0  0  0  0  0  0  0
   23.3290   10.0456    5.9482 H   0  0  0  0  0  0  0  0  0  0  0  0
   23.2375    8.4024    5.9786 H   0  0  0  0  0  0  0  0  0  0  0  0
   25.3841    8.2256    7.0637 H   0  0  0  0  0  0  0  0  0  0  0  0
   26.3188   10.3917    7.9758 H   0  0  0  0  0  0  0  0  0  0  0  0
   25.1603   11.2698    6.9206 H   0  0  0  0  0  0  0  0  0  0  0  0
   26.2581   10.2229    4.9300 H   0  0  0  0  0  0  0  0  0  0  0  0
   28.3117   11.6110    5.0289 H   0  0  0  0  0  0  0  0  0  0  0  0
   28.1162   11.7763    6.8068 H   0  0  0  0  0  0  0  0  0  0  0  0
   26.8958   12.4902    5.6988 H   0  0  0  0  0  0  0  0  0  0  0  0
   27.1260    8.2249    6.1076 H   0  0  0  0  0  0  0  0  0  0  0  0
   28.2564    9.2661    7.0374 H   0  0  0  0  0  0  0  0  0  0  0  0
   28.4379    9.1094    5.2572 H   0  0  0  0  0  0  0  0  0  0  0  0
   22.3589    9.7618    7.3134 H   0  0  0  0  0  0  0  0  0  0  0  0
   22.3866    9.4956   10.3027 H   0  0  0  0  0  0  0  0  0  0  0  0
   20.4728   11.0503   10.3591 H   0  0  0  0  0  0  0  0  0  0  0  0
   19.7369   11.9728    8.3478 H   0  0  0  0  0  0  0  0  0  0  0  0
   21.5268   13.1295    9.4507 H   0  0  0  0  0  0  0  0  0  0  0  0
   22.6651   12.1307    8.4846 H   0  0  0  0  0  0  0  0  0  0  0  0
   22.7420   12.0981   10.2790 H   0  0  0  0  0  0  0  0  0  0  0  0
   20.4925    8.4193   11.2258 H   0  0  0  0  0  0  0  0  0  0  0  0
   19.6102    6.1144    9.8066 H   0  0  0  0  0  0  0  0  0  0  0  0
   18.4098    7.6197   12.1740 H   0  0  0  0  0  0  0  0  0  0  0  0
   19.4517    6.1568   12.2095 H   0  0  0  0  0  0  0  0  0  0  0  0
   18.5068    4.0251   11.1630 H   0  0  0  0  0  0  0  0  0  0  0  0
   16.0800    7.4090   12.1132 H   0  0  0  0  0  0  0  0  0  0  0  0
   16.4804    2.6252   10.9286 H   0  0  0  0  0  0  0  0  0  0  0  0
   14.0427    6.0283   11.8911 H   0  0  0  0  0  0  0  0  0  0  0  0
   14.2441    3.6168   11.2784 H   0  0  0  0  0  0  0  0  0  0  0  0
   18.0159    9.3189   10.3461 H   0  0  0  0  0  0  0  0  0  0  0  0
   15.5803    8.7415    9.0634 H   0  0  0  0  0  0  0  0  0  0  0  0
   15.2136   11.0908    8.8650 H   0  0  0  0  0  0  0  0  0  0  0  0
   16.9758   11.4393    8.8635 H   0  0  0  0  0  0  0  0  0  0  0  0
   15.8057   10.0795   11.2641 H   0  0  0  0  0  0  0  0  0  0  0  0
   15.4357   11.8183   11.0066 H   0  0  0  0  0  0  0  0  0  0  0  0
   18.6276    9.8913    7.6026 H   0  0  0  0  0  0  0  0  0  0  0  0
   17.6784   10.3711    4.9743 H   0  0  0  0  0  0  0  0  0  0  0  0
   20.3782    9.4425    6.0484 H   0  0  0  0  0  0  0  0  0  0  0  0
   19.8756   11.1087    5.6035 H   0  0  0  0  0  0  0  0  0  0  0  0
   21.4902    7.9925    3.9938 H   0  0  0  0  0  0  0  0  0  0  0  0
   20.4958   10.6600    0.8239 H   0  0  0  0  0  0  0  0  0  0  0  0
   21.7240    8.5004    1.4342 H   0  0  0  0  0  0  0  0  0  0  0  0
   19.1317    7.3937    6.3726 H   0  0  0  0  0  0  0  0  0  0  0  0
   18.7980    5.7921    4.0115 H   0  0  0  0  0  0  0  0  0  0  0  0
   19.0940    3.8706    5.6121 H   0  0  0  0  0  0  0  0  0  0  0  0
   19.0518    5.0549    6.9620 H   0  0  0  0  0  0  0  0  0  0  0  0
   21.1626    5.6143    7.7865 H   0  0  0  0  0  0  0  0  0  0  0  0
   20.7610    4.7776    3.6125 H   0  0  0  0  0  0  0  0  0  0  0  0
   23.5793    6.0950    7.4537 H   0  0  0  0  0  0  0  0  0  0  0  0
   23.1560    5.2583    3.2664 H   0  0  0  0  0  0  0  0  0  0  0  0
   25.2454    6.2017    5.9285 H   0  0  0  0  0  0  0  0  0  0  0  0
   16.7965    6.1961    6.9697 H   0  0  0  0  0  0  0  0  0  0  0  0
   14.9467    4.1481    6.3178 H   0  0  0  0  0  0  0  0  0  0  0  0
   14.4333    6.6623    7.9605 H   0  0  0  0  0  0  0  0  0  0  0  0
   15.2227    5.1672    8.5673 H   0  0  0  0  0  0  0  0  0  0  0  0
   11.7709    6.6544    7.8488 H   0  0  0  0  0  0  0  0  0  0  0  0
    9.9066    4.9525    8.4883 H   0  0  0  0  0  0  0  0  0  0  0  0
   14.7522    2.5692    8.6624 H   0  0  0  0  0  0  0  0  0  0  0  0
    9.7751    2.2269    9.2335 H   0  0  0  0  0  0  0  0  0  0  0  0
   13.6801    0.4194    9.3455 H   0  0  0  0  0  0  0  0  0  0  0  0
   11.2236    0.2617    9.6231 H   0  0  0  0  0  0  0  0  0  0  0  0
   14.8995    7.6042    5.5067 H   0  0  0  0  0  0  0  0  0  0  0  0
   12.2651    7.7135    4.4876 H   0  0  0  0  0  0  0  0  0  0  0  0
   13.0699    9.7269    3.2558 H   0  0  0  0  0  0  0  0  0  0  0  0
   14.7652    9.2728    3.6381 H   0  0  0  0  0  0  0  0  0  0  0  0
   13.6341    9.7165    4.9611 H   0  0  0  0  0  0  0  0  0  0  0  0
   15.1960    6.3718    3.1198 H   0  0  0  0  0  0  0  0  0  0  0  0
   14.4305    6.4415    0.3712 H   0  0  0  0  0  0  0  0  0  0  0  0
   16.1707    4.7866    0.0041 H   0  0  0  0  0  0  0  0  0  0  0  0
   16.2074    4.3843    1.7544 H   0  0  0  0  0  0  0  0  0  0  0  0
   18.1125    5.7580    1.1481 H   0  0  0  0  0  0  0  0  0  0  0  0
   17.0126    6.6535    2.2503 H   0  0  0  0  0  0  0  0  0  0  0  0
   18.1170    8.3173   -1.1980 H   0  0  0  0  0  0  0  0  0  0  0  0
   18.9345    7.0174   -0.3967 H   0  0  0  0  0  0  0  0  0  0  0  0
   13.3951    4.3701    2.9796 H   0  0  0  0  0  0  0  0  0  0  0  0
   12.7765    2.1361    1.2985 H   0  0  0  0  0  0  0  0  0  0  0  0
   11.5099    1.2847    3.2109 H   0  0  0  0  0  0  0  0  0  0  0  0
   11.6554    2.8810    4.0216 H   0  0  0  0  0  0  0  0  0  0  0  0
   14.0955    2.6242    4.1559 H   0  0  0  0  0  0  0  0  0  0  0  0
   14.0920    0.7102    5.7651 H   0  0  0  0  0  0  0  0  0  0  0  0
   12.5154    0.1659    5.0983 H   0  0  0  0  0  0  0  0  0  0  0  0
   12.6333    1.7413    5.9531 H   0  0  0  0  0  0  0  0  0  0  0  0
   14.4752    1.3146    2.0897 H   0  0  0  0  0  0  0  0  0  0  0  0
   13.6511   -0.0993    2.8302 H   0  0  0  0  0  0  0  0  0  0  0  0
   15.1974    0.5014    3.5193 H   0  0  0  0  0  0  0  0  0  0  0  0
   11.1415    5.1214    1.6737 H   0  0  0  0  0  0  0  0  0  0  0  0
    8.7922    3.8859    0.2817 H   0  0  0  0  0  0  0  0  0  0  0  0
    7.3907    5.7400    1.3042 H   0  0  0  0  0  0  0  0  0  0  0  0
    9.1936    7.0834    1.9137 H   0  0  0  0  0  0  0  0  0  0  0  0
    7.1948    4.6559    3.5209 H   0  0  0  0  0  0  0  0  0  0  0  0
    8.7750    3.8414    3.2638 H   0  0  0  0  0  0  0  0  0  0  0  0
    7.3746    3.4369    2.2140 H   0  0  0  0  0  0  0  0  0  0  0  0
    7.8547    5.1588   -1.3422 H   0  0  0  0  0  0  0  0  0  0  0  0
    9.7067    6.9936   -2.6692 H   0  0  0  0  0  0  0  0  0  0  0  0
    8.2600    5.2962   -3.8811 H   0  0  0  0  0  0  0  0  0  0  0  0
    8.0859    6.9802   -4.4814 H   0  0  0  0  0  0  0  0  0  0  0  0
    6.0512    5.9370   -4.1304 H   0  0  0  0  0  0  0  0  0  0  0  0
  1  2  1  0  0  0  0
  1108  1  0  0  0  0
  1109  1  0  0  0  0
  1110  1  0  0  0  0
  2  3  1  0  0  0  0
  2  5  1  0  0  0  0
  2111  1  6  0  0  0
  3  4  2  0  0  0  0
  3  9  1  0  0  0  0
  5  6  1  0  0  0  0
  5112  1  0  0  0  0
  5113  1  0  0  0  0
  6  7  1  0  0  0  0
  6  8  1  0  0  0  0
  6114  1  0  0  0  0
  7115  1  0  0  0  0
  7116  1  0  0  0  0
  7117  1  0  0  0  0
  8118  1  0  0  0  0
  8119  1  0  0  0  0
  8120  1  0  0  0  0
  9 10  1  0  0  0  0
  9121  1  0  0  0  0
 10 11  1  0  0  0  0
 10 13  1  0  0  0  0
 10122  1  1  0  0  0
 11 12  2  0  0  0  0
 11 16  1  0  0  0  0
 13 14  1  0  0  0  0
 13 15  1  0  0  0  0
 13123  1  1  0  0  0
 14124  1  0  0  0  0
 15125  1  0  0  0  0
 15126  1  0  0  0  0
 15127  1  0  0  0  0
 16 17  1  0  0  0  0
 16128  1  0  0  0  0
 17 18  1  0  0  0  0
 17 20  1  0  0  0  0
 17129  1  6  0  0  0
 18 19  2  0  0  0  0
 18 27  1  0  0  0  0
 20 21  1  0  0  0  0
 20130  1  0  0  0  0
 20131  1  0  0  0  0
 21 22  2  0  0  0  0
 21 23  1  0  0  0  0
 22 24  1  0  0  0  0
 22132  1  0  0  0  0
 23 25  2  0  0  0  0
 23133  1  0  0  0  0
 24 26  2  0  0  0  0
 24134  1  0  0  0  0
 25 26  1  0  0  0  0
 25135  1  0  0  0  0
 26136  1  0  0  0  0
 27 28  1  0  0  0  0
 27137  1  0  0  0  0
 28 29  1  0  0  0  0
 28 31  1  0  0  0  0
 28138  1  1  0  0  0
 29 30  2  0  0  0  0
 29 36  1  0  0  0  0
 31 32  1  0  0  0  0
 31139  1  0  0  0  0
 31140  1  0  0  0  0
 32 33  1  0  0  0  0
 32141  1  0  0  0  0
 32142  1  0  0  0  0
 33 34  1  0  0  0  0
 33 35  2  0  0  0  0
 36 37  1  0  0  0  0
 36143  1  0  0  0  0
 37 38  1  0  0  0  0
 37 40  1  0  0  0  0
 37144  1  6  0  0  0
 38 39  2  0  0  0  0
 38 46  1  0  0  0  0
 40 41  1  0  0  0  0
 40145  1  0  0  0  0
 40146  1  0  0  0  0
 41 42  1  0  0  0  0
 41 43  2  0  0  0  0
 42 44  2  0  0  0  0
 43 45  1  0  0  0  0
 43147  1  0  0  0  0
 44 45  1  0  0  0  0
 44148  1  0  0  0  0
 45149  1  0  0  0  0
 46 47  1  0  0  0  0
 46150  1  0  0  0  0
 47 48  1  0  0  0  0
 47 50  1  0  0  0  0
 47151  1  6  0  0  0
 48 49  2  0  0  0  0
 48 58  1  0  0  0  0
 50 51  1  0  0  0  0
 50152  1  0  0  0  0
 50153  1  0  0  0  0
 51 52  2  0  0  0  0
 51 53  1  0  0  0  0
 52 54  1  0  0  0  0
 52154  1  0  0  0  0
 53 55  2  0  0  0  0
 53155  1  0  0  0  0
 54 56  2  0  0  0  0
 54156  1  0  0  0  0
 55 56  1  0  0  0  0
 55157  1  0  0  0  0
 56 57  1  0  0  0  0
 57158  1  0  0  0  0
 58 59  1  0  0  0  0
 58159  1  0  0  0  0
 59 60  1  0  0  0  0
 59 62  1  0  0  0  0
 59160  1  6  0  0  0
 60 61  2  0  0  0  0
 60 72  1  0  0  0  0
 62 63  1  0  0  0  0
 62161  1  0  0  0  0
 62162  1  0  0  0  0
 63 64  2  0  0  0  0
 63 65  1  0  0  0  0
 64 66  1  0  0  0  0
 64163  1  0  0  0  0
 65 67  2  0  0  0  0
 65 68  1  0  0  0  0
 66 67  1  0  0  0  0
 66164  1  0  0  0  0
 67 69  1  0  0  0  0
 68 70  2  0  0  0  0
 68165  1  0  0  0  0
 69 71  2  0  0  0  0
 69166  1  0  0  0  0
 70 71  1  0  0  0  0
 70167  1  0  0  0  0
 71168  1  0  0  0  0
 72 73  1  0  0  0  0
 72169  1  0  0  0  0
 73 74  1  0  0  0  0
 73 76  1  0  0  0  0
 73170  1  1  0  0  0
 74 75  2  0  0  0  0
 74 77  1  0  0  0  0
 76171  1  0  0  0  0
 76172  1  0  0  0  0
 76173  1  0  0  0  0
 77 78  1  0  0  0  0
 77174  1  0  0  0  0
 78 79  1  0  0  0  0
 78 81  1  0  0  0  0
 78175  1  6  0  0  0
 79 80  2  0  0  0  0
 79 86  1  0  0  0  0
 81 82  1  0  0  0  0
 81176  1  0  0  0  0
 81177  1  0  0  0  0
 82 83  1  0  0  0  0
 82178  1  0  0  0  0
 82179  1  0  0  0  0
 83 84  2  0  0  0  0
 83 85  1  0  0  0  0
 85180  1  0  0  0  0
 85181  1  0  0  0  0
 86 87  1  0  0  0  0
 86182  1  0  0  0  0
 87 88  1  0  0  0  0
 87 90  1  0  0  0  0
 87183  1  6  0  0  0
 88 89  2  0  0  0  0
 88 94  1  0  0  0  0
 90 91  1  0  0  0  0
 90184  1  0  0  0  0
 90185  1  0  0  0  0
 91 92  1  0  0  0  0
 91 93  1  0  0  0  0
 91186  1  0  0  0  0
 92187  1  0  0  0  0
 92188  1  0  0  0  0
 92189  1  0  0  0  0
 93190  1  0  0  0  0
 93191  1  0  0  0  0
 93192  1  0  0  0  0
 94 95  1  0  0  0  0
 94193  1  0  0  0  0
 95 96  1  0  0  0  0
 95 98  1  0  0  0  0
 95194  1  6  0  0  0
 96 97  2  0  0  0  0
 96101  1  0  0  0  0
 98 99  1  0  0  0  0
 98100  1  0  0  0  0
 98195  1  6  0  0  0
 99196  1  0  0  0  0
100197  1  0  0  0  0
100198  1  0  0  0  0
100199  1  0  0  0  0
101102  1  0  0  0  0
101200  1  0  0  0  0
102103  1  0  0  0  0
102105  1  0  0  0  0
102201  1  6  0  0  0
103104  1  0  0  0  0
103107  2  0  0  0  0
105106  1  0  0  0  0
105202  1  0  0  0  0
105203  1  0  0  0  0
106204  1  0  0  0  0
M  CHG  3   1   1  34  -1 104  -1
M  END
