3jzq_ligand
 OpenBabel08222323343D

209214  0  0  1  0  0  0  0  0999 V2000
   28.7760   34.2360   -9.2220 N   0  3  0  0  0  0  0  0  0  0  0  0
   29.9890   34.3380   -8.3360 C   0  0  2  0  0  0  0  0  0  0  0  0
   29.7990   33.5220   -7.0590 C   0  0  0  0  0  0  0  0  0  0  0  0
   28.6810   33.1380   -6.7190 O   0  0  0  0  0  0  0  0  0  0  0  0
   30.2130   35.7950   -7.9380 C   0  0  0  0  0  0  0  0  0  0  0  0
   30.4580   36.7410   -9.1000 C   0  0  0  0  0  0  0  0  0  0  0  0
   31.7500   36.4240   -9.8670 C   0  0  0  0  0  0  0  0  0  0  0  0
   32.6730   35.8090   -9.2970 O   0  5  0  0  0  0  0  0  0  0  0  0
   31.8400   36.8150  -11.0460 O   0  0  0  0  0  0  0  0  0  0  0  0
   30.8800   33.2920   -6.3340 N   0  0  0  0  0  0  0  0  0  0  0  0
   30.7960   32.5440   -5.0990 C   0  0  2  0  0  0  0  0  0  0  0  0
   30.4140   33.4630   -3.9300 C   0  0  0  0  0  0  0  0  0  0  0  0
   30.4470   34.6980   -4.0410 O   0  0  0  0  0  0  0  0  0  0  0  0
   32.1150   31.9710   -4.7320 C   0  0  2  0  0  0  0  0  0  0  0  0
   32.9970   33.0490   -4.4100 O   0  0  0  0  0  0  0  0  0  0  0  0
   32.6960   31.1650   -5.8990 C   0  0  0  0  0  0  0  0  0  0  0  0
   30.0600   32.8420   -2.8080 N   0  0  0  0  0  0  0  0  0  0  0  0
   29.7270   33.6070   -1.6160 C   0  0  2  0  0  0  0  0  0  0  0  0
   30.9280   34.4770   -1.1970 C   0  0  0  0  0  0  0  0  0  0  0  0
   30.7870   35.6690   -0.8440 O   0  0  0  0  0  0  0  0  0  0  0  0
   29.3720   32.6810   -0.4440 C   0  0  0  0  0  0  0  0  0  0  0  0
   29.2040   33.4270    0.8580 C   0  0  0  0  0  0  0  0  0  0  0  0
   28.0450   34.1870    1.1010 C   0  0  0  0  0  0  0  0  0  0  0  0
   30.2320   33.4520    1.7930 C   0  0  0  0  0  0  0  0  0  0  0  0
   27.9350   34.9680    2.2760 C   0  0  0  0  0  0  0  0  0  0  0  0
   30.1260   34.2230    2.9590 C   0  0  0  0  0  0  0  0  0  0  0  0
   28.9760   34.9790    3.1940 C   0  0  0  0  0  0  0  0  0  0  0  0
   32.1120   33.8900   -1.2000 N   0  0  0  0  0  0  0  0  0  0  0  0
   33.2850   34.6450   -0.8070 C   0  0  2  0  0  0  0  0  0  0  0  0
   33.5100   35.9010   -1.6960 C   0  0  0  0  0  0  0  0  0  0  0  0
   33.8300   36.9870   -1.2050 O   0  0  0  0  0  0  0  0  0  0  0  0
   34.5070   33.7190   -0.8460 C   0  0  0  0  0  0  0  0  0  0  0  0
   35.8200   34.3890   -0.5110 C   0  0  0  0  0  0  0  0  0  0  0  0
   36.4150   35.1670   -1.6910 C   0  0  0  0  0  0  0  0  0  0  0  0
   36.3120   34.6980   -2.8540 O   0  5  0  0  0  0  0  0  0  0  0  0
   37.0030   36.2470   -1.4520 O   0  0  0  0  0  0  0  0  0  0  0  0
   33.3070   35.7530   -2.9940 N   0  0  0  0  0  0  0  0  0  0  0  0
   33.4990   36.8580   -3.9280 C   0  0  2  0  0  0  0  0  0  0  0  0
   32.5800   38.0300   -3.5680 C   0  0  0  0  0  0  0  0  0  0  0  0
   33.0250   39.1760   -3.4760 O   0  0  0  0  0  0  0  0  0  0  0  0
   33.2120   36.3740   -5.3550 C   0  0  0  0  0  0  0  0  0  0  0  0
   33.3270   37.4430   -6.4010 C   0  0  0  0  0  0  0  0  0  0  0  0
   34.4330   37.5800   -7.2100 N   0  0  0  0  0  0  0  0  0  0  0  0
   32.4740   38.4270   -6.7680 C   0  0  0  0  0  0  0  0  0  0  0  0
   34.2580   38.6040   -8.0280 C   0  0  0  0  0  0  0  0  0  0  0  0
   33.0790   39.1370   -7.7780 N   0  0  0  0  0  0  0  0  0  0  0  0
   31.2950   37.7330   -3.3950 N   0  0  0  0  0  0  0  0  0  0  0  0
   30.3150   38.7510   -3.0250 C   0  0  2  0  0  0  0  0  0  0  0  0
   30.6050   39.3670   -1.6620 C   0  0  0  0  0  0  0  0  0  0  0  0
   30.6100   40.6060   -1.5020 O   0  0  0  0  0  0  0  0  0  0  0  0
   28.9060   38.1560   -2.9520 C   0  0  0  0  0  0  0  0  0  0  0  0
   28.3460   37.7620   -4.2530 C   0  0  0  0  0  0  0  0  0  0  0  0
   28.2390   36.4910   -4.7620 C   0  0  0  0  0  0  0  0  0  0  0  0
   27.7340   38.6310   -5.2030 C   0  0  0  0  0  0  0  0  0  0  0  0
   27.5830   36.5230   -5.9770 N   0  0  0  0  0  0  0  0  0  0  0  0
   27.2680   37.8230   -6.2740 C   0  0  0  0  0  0  0  0  0  0  0  0
   27.5300   40.0210   -5.2570 C   0  0  0  0  0  0  0  0  0  0  0  0
   26.6000   38.3590   -7.3790 C   0  0  0  0  0  0  0  0  0  0  0  0
   26.8690   40.5540   -6.3550 C   0  0  0  0  0  0  0  0  0  0  0  0
   26.4150   39.7240   -7.4060 C   0  0  0  0  0  0  0  0  0  0  0  0
   30.8460   38.5180   -0.6700 N   0  0  0  0  0  0  0  0  0  0  0  0
   31.0790   39.0190    0.6850 C   0  0  2  0  0  0  0  0  0  0  0  0
   32.3330   39.8490    0.8670 C   0  0  0  0  0  0  0  0  0  0  0  0
   32.3090   40.9020    1.5550 O   0  0  0  0  0  0  0  0  0  0  0  0
   31.1430   37.8710    1.7090 C   0  0  0  0  0  0  0  0  0  0  0  0
   31.1040   38.3590    3.1440 C   0  0  0  0  0  0  0  0  0  0  0  0
   32.1670   38.6140    3.9750 C   0  0  0  0  0  0  0  0  0  0  0  0
   29.9220   38.6770    3.8970 C   0  0  0  0  0  0  0  0  0  0  0  0
   31.7150   39.0710    5.1980 N   0  0  0  0  0  0  0  0  0  0  0  0
   30.3430   39.1190    5.1730 C   0  0  0  0  0  0  0  0  0  0  0  0
   28.5460   38.6350    3.6110 C   0  0  0  0  0  0  0  0  0  0  0  0
   29.4330   39.5120    6.1700 C   0  0  0  0  0  0  0  0  0  0  0  0
   27.6460   39.0210    4.5980 C   0  0  0  0  0  0  0  0  0  0  0  0
   28.0980   39.4560    5.8660 C   0  0  0  0  0  0  0  0  0  0  0  0
   33.4300   39.3820    0.2700 N   0  0  0  0  0  0  0  0  0  0  0  0
   34.6970   40.0790    0.4400 C   0  0  2  0  0  0  0  0  0  0  0  0
   34.6510   41.4910   -0.1340 C   0  0  0  0  0  0  0  0  0  0  0  0
   35.4820   42.3120    0.2050 O   0  0  0  0  0  0  0  0  0  0  0  0
   35.8470   39.3100   -0.2300 C   0  0  0  0  0  0  0  0  0  0  0  0
   35.6490   39.2800   -1.6220 O   0  0  0  0  0  0  0  0  0  0  0  0
   33.6890   41.7730   -0.9950 N   0  0  0  0  0  0  0  0  0  0  0  0
   33.6570   43.1010   -1.5710 C   0  0  2  0  0  0  0  0  0  0  0  0
   32.5970   44.0360   -1.0050 C   0  0  0  0  0  0  0  0  0  0  0  0
   32.3540   45.1210   -1.5400 O   0  0  0  0  0  0  0  0  0  0  0  0
   33.5560   42.9630   -3.0730 C   0  0  0  0  0  0  0  0  0  0  0  0
   34.6900   42.0570   -3.5680 C   0  0  0  0  0  0  0  0  0  0  0  0
   34.9530   42.2520   -4.9980 C   0  0  0  0  0  0  0  0  0  0  0  0
   35.5660   43.2510   -5.3900 O   0  0  0  0  0  0  0  0  0  0  0  0
   34.4710   41.3160   -5.8230 N   0  0  0  0  0  0  0  0  0  0  0  0
   31.9600   43.6270    0.0850 N   0  0  0  0  0  0  0  0  0  0  0  0
   30.9740   44.5190    0.7200 C   0  0  2  0  0  0  0  0  0  0  0  0
   31.7770   45.7380    1.1880 C   0  0  0  0  0  0  0  0  0  0  0  0
   32.8650   45.5750    1.6870 O   0  0  0  0  0  0  0  0  0  0  0  0
   30.3880   43.8580    1.9630 C   0  0  0  0  0  0  0  0  0  0  0  0
   29.3840   42.7740    1.6320 C   0  0  0  0  0  0  0  0  0  0  0  0
   28.9070   42.1930    2.9090 C   0  0  0  0  0  0  0  0  0  0  0  0
   28.2460   43.3290    0.7640 C   0  0  0  0  0  0  0  0  0  0  0  0
   31.2300   46.9370    1.0660 N   0  0  0  0  0  0  0  0  0  0  0  0
   31.9480   48.1610    1.4980 C   0  0  2  0  0  0  0  0  0  0  0  0
   33.1270   48.5580    0.6090 C   0  0  0  0  0  0  0  0  0  0  0  0
   34.0690   49.2430    1.0570 O   0  0  0  0  0  0  0  0  0  0  0  0
   32.4220   48.0460    2.9540 C   0  0  0  0  0  0  0  0  0  0  0  0
   31.2630   47.8680    3.9640 C   0  0  0  0  0  0  0  0  0  0  0  0
   31.8590   47.7030    5.3700 C   0  0  0  0  0  0  0  0  0  0  0  0
   30.2960   49.0650    3.9220 C   0  0  0  0  0  0  0  0  0  0  0  0
   33.0530   48.1240   -0.6490 N   0  0  0  0  0  0  0  0  0  0  0  0
   34.0420   48.4290   -1.6820 C   0  0  2  0  0  0  0  0  0  0  0  0
   33.3340   49.0880   -2.8580 C   0  0  0  0  0  0  0  0  0  0  0  0
   32.1130   49.3250   -2.7380 O   0  5  0  0  0  0  0  0  0  0  0  0
   34.7590   47.1720   -2.1660 C   0  0  0  0  0  0  0  0  0  0  0  0
   35.7310   46.7590   -1.2050 O   0  0  0  0  0  0  0  0  0  0  0  0
   34.0010   49.3710   -3.8830 O   0  0  0  0  0  0  0  0  0  0  0  0
   28.9231   34.7810  -10.0571 H   0  0  0  0  0  0  0  0  0  0  0  0
   27.9696   34.5870   -8.7295 H   0  0  0  0  0  0  0  0  0  0  0  0
   28.6231   33.2717   -9.4727 H   0  0  0  0  0  0  0  0  0  0  0  0
   30.8673   33.9639   -8.8825 H   0  0  0  0  0  0  0  0  0  0  0  0
   31.0873   35.8374   -7.2718 H   0  0  0  0  0  0  0  0  0  0  0  0
   29.3215   36.1427   -7.3956 H   0  0  0  0  0  0  0  0  0  0  0  0
   30.5248   37.7670   -8.7091 H   0  0  0  0  0  0  0  0  0  0  0  0
   29.6097   36.6684   -9.7965 H   0  0  0  0  0  0  0  0  0  0  0  0
   31.7656   33.6390   -6.6428 H   0  0  0  0  0  0  0  0  0  0  0  0
   30.0515   31.7423   -5.2128 H   0  0  0  0  0  0  0  0  0  0  0  0
   31.9993   31.3125   -3.8585 H   0  0  0  0  0  0  0  0  0  0  0  0
   33.8480   32.7001   -4.1721 H   0  0  0  0  0  0  0  0  0  0  0  0
   33.6719   30.7493   -5.6076 H   0  0  0  0  0  0  0  0  0  0  0  0
   32.8234   31.8227   -6.7714 H   0  0  0  0  0  0  0  0  0  0  0  0
   32.0098   30.3444   -6.1555 H   0  0  0  0  0  0  0  0  0  0  0  0
   30.0225   31.8430   -2.7837 H   0  0  0  0  0  0  0  0  0  0  0  0
   28.8661   34.2546   -1.8384 H   0  0  0  0  0  0  0  0  0  0  0  0
   30.1768   31.9408   -0.3241 H   0  0  0  0  0  0  0  0  0  0  0  0
   28.4297   32.1636   -0.6772 H   0  0  0  0  0  0  0  0  0  0  0  0
   27.2319   34.1742    0.3842 H   0  0  0  0  0  0  0  0  0  0  0  0
   31.1280   32.8674    1.6183 H   0  0  0  0  0  0  0  0  0  0  0  0
   27.0420   35.5549    2.4582 H   0  0  0  0  0  0  0  0  0  0  0  0
   30.9370   34.2322    3.6782 H   0  0  0  0  0  0  0  0  0  0  0  0
   28.8960   35.5759    4.0953 H   0  0  0  0  0  0  0  0  0  0  0  0
   32.1980   32.9314   -1.4716 H   0  0  0  0  0  0  0  0  0  0  0  0
   33.1409   34.9882    0.2281 H   0  0  0  0  0  0  0  0  0  0  0  0
   34.5859   33.2988   -1.8595 H   0  0  0  0  0  0  0  0  0  0  0  0
   34.3435   32.9058   -0.1235 H   0  0  0  0  0  0  0  0  0  0  0  0
   36.5392   33.6159   -0.2028 H   0  0  0  0  0  0  0  0  0  0  0  0
   35.6541   35.0883    0.3217 H   0  0  0  0  0  0  0  0  0  0  0  0
   33.0150   34.8630   -3.3441 H   0  0  0  0  0  0  0  0  0  0  0  0
   34.5437   37.1973   -3.8693 H   0  0  0  0  0  0  0  0  0  0  0  0
   32.1886   35.9718   -5.3837 H   0  0  0  0  0  0  0  0  0  0  0  0
   33.9271   35.5745   -5.5986 H   0  0  0  0  0  0  0  0  0  0  0  0
   31.4905   38.6207   -6.3423 H   0  0  0  0  0  0  0  0  0  0  0  0
   34.9669   38.9481   -8.7797 H   0  0  0  0  0  0  0  0  0  0  0  0
   32.6762   39.9529   -8.2608 H   0  0  0  0  0  0  0  0  0  0  0  0
   30.9921   36.7884   -3.5215 H   0  0  0  0  0  0  0  0  0  0  0  0
   30.3365   39.5426   -3.7884 H   0  0  0  0  0  0  0  0  0  0  0  0
   28.2384   38.9061   -2.5029 H   0  0  0  0  0  0  0  0  0  0  0  0
   28.9417   37.2646   -2.3085 H   0  0  0  0  0  0  0  0  0  0  0  0
   28.6158   35.5907   -4.2789 H   0  0  0  0  0  0  0  0  0  0  0  0
   27.3663   35.7044   -6.5633 H   0  0  0  0  0  0  0  0  0  0  0  0
   27.8817   40.6632   -4.4576 H   0  0  0  0  0  0  0  0  0  0  0  0
   26.2418   37.7258   -8.1826 H   0  0  0  0  0  0  0  0  0  0  0  0
   26.6981   41.6232   -6.4076 H   0  0  0  0  0  0  0  0  0  0  0  0
   25.9092   40.1725   -8.2534 H   0  0  0  0  0  0  0  0  0  0  0  0
   30.8683   37.5344   -0.8492 H   0  0  0  0  0  0  0  0  0  0  0  0
   30.2200   39.6584    0.9365 H   0  0  0  0  0  0  0  0  0  0  0  0
   32.0781   37.3131    1.5531 H   0  0  0  0  0  0  0  0  0  0  0  0
   30.2852   37.2030    1.5418 H   0  0  0  0  0  0  0  0  0  0  0  0
   33.2139   38.4761    3.7088 H   0  0  0  0  0  0  0  0  0  0  0  0
   32.3096   39.3327    5.9973 H   0  0  0  0  0  0  0  0  0  0  0  0
   28.1935   38.3079    2.6395 H   0  0  0  0  0  0  0  0  0  0  0  0
   29.7746   39.8468    7.1428 H   0  0  0  0  0  0  0  0  0  0  0  0
   26.5821   38.9881    4.3928 H   0  0  0  0  0  0  0  0  0  0  0  0
   27.3716   39.7518    6.6143 H   0  0  0  0  0  0  0  0  0  0  0  0
   33.3827   38.5564   -0.2922 H   0  0  0  0  0  0  0  0  0  0  0  0
   34.9036   40.1487    1.5182 H   0  0  0  0  0  0  0  0  0  0  0  0
   35.8737   38.2810    0.1578 H   0  0  0  0  0  0  0  0  0  0  0  0
   36.8007   39.8108   -0.0070 H   0  0  0  0  0  0  0  0  0  0  0  0
   34.8256   38.8470   -1.8143 H   0  0  0  0  0  0  0  0  0  0  0  0
   33.0027   41.0888   -1.2417 H   0  0  0  0  0  0  0  0  0  0  0  0
   34.6268   43.5690   -1.3466 H   0  0  0  0  0  0  0  0  0  0  0  0
   33.6448   43.9543   -3.5413 H   0  0  0  0  0  0  0  0  0  0  0  0
   32.5857   42.5177   -3.3381 H   0  0  0  0  0  0  0  0  0  0  0  0
   34.4087   41.0074   -3.3969 H   0  0  0  0  0  0  0  0  0  0  0  0
   35.6045   42.2885   -3.0022 H   0  0  0  0  0  0  0  0  0  0  0  0
   34.6185   41.3945   -6.8089 H   0  0  0  0  0  0  0  0  0  0  0  0
   33.9631   40.5377   -5.4539 H   0  0  0  0  0  0  0  0  0  0  0  0
   32.1471   42.7237    0.4710 H   0  0  0  0  0  0  0  0  0  0  0  0
   30.1781   44.7995    0.0144 H   0  0  0  0  0  0  0  0  0  0  0  0
   29.8872   44.6282    2.5679 H   0  0  0  0  0  0  0  0  0  0  0  0
   31.2086   43.4117    2.5439 H   0  0  0  0  0  0  0  0  0  0  0  0
   29.8903   41.9838    1.0582 H   0  0  0  0  0  0  0  0  0  0  0  0
   28.1739   41.4000    2.6998 H   0  0  0  0  0  0  0  0  0  0  0  0
   28.4336   42.9792    3.5154 H   0  0  0  0  0  0  0  0  0  0  0  0
   29.7593   41.7684    3.4597 H   0  0  0  0  0  0  0  0  0  0  0  0
   28.6628   43.7442   -0.1654 H   0  0  0  0  0  0  0  0  0  0  0  0
   27.7175   44.1211    1.3148 H   0  0  0  0  0  0  0  0  0  0  0  0
   27.5422   42.5194    0.5206 H   0  0  0  0  0  0  0  0  0  0  0  0
   30.3136   47.0195    0.6744 H   0  0  0  0  0  0  0  0  0  0  0  0
   31.2200   48.9842    1.4499 H   0  0  0  0  0  0  0  0  0  0  0  0
   32.9743   48.9609    3.2145 H   0  0  0  0  0  0  0  0  0  0  0  0
   33.0921   47.1775    3.0353 H   0  0  0  0  0  0  0  0  0  0  0  0
   30.7020   46.9582    3.7043 H   0  0  0  0  0  0  0  0  0  0  0  0
   31.0462   47.5753    6.1001 H   0  0  0  0  0  0  0  0  0  0  0  0
   32.4454   48.5974    5.6270 H   0  0  0  0  0  0  0  0  0  0  0  0
   32.5121   46.8181    5.3899 H   0  0  0  0  0  0  0  0  0  0  0  0
   29.8809   49.1656    2.9083 H   0  0  0  0  0  0  0  0  0  0  0  0
   30.8383   49.9840    4.1890 H   0  0  0  0  0  0  0  0  0  0  0  0
   29.4778   48.9007    4.6386 H   0  0  0  0  0  0  0  0  0  0  0  0
   32.2717   47.5537   -0.9025 H   0  0  0  0  0  0  0  0  0  0  0  0
   34.7868   49.1245   -1.2679 H   0  0  0  0  0  0  0  0  0  0  0  0
   35.2603   47.3846   -3.1218 H   0  0  0  0  0  0  0  0  0  0  0  0
   34.0239   46.3663   -2.3088 H   0  0  0  0  0  0  0  0  0  0  0  0
   35.2993   46.5734   -0.3793 H   0  0  0  0  0  0  0  0  0  0  0  0
  1  2  1  0  0  0  0
  1113  1  0  0  0  0
  1114  1  0  0  0  0
  1115  1  0  0  0  0
  2  3  1  0  0  0  0
  2  5  1  0  0  0  0
  2116  1  6  0  0  0
  3  4  2  0  0  0  0
  3 10  1  0  0  0  0
  5  6  1  0  0  0  0
  5117  1  0  0  0  0
  5118  1  0  0  0  0
  6  7  1  0  0  0  0
  6119  1  0  0  0  0
  6120  1  0  0  0  0
  7  8  1  0  0  0  0
  7  9  2  0  0  0  0
 10 11  1  0  0  0  0
 10121  1  0  0  0  0
 11 12  1  0  0  0  0
 11 14  1  0  0  0  0
 11122  1  6  0  0  0
 12 13  2  0  0  0  0
 12 17  1  0  0  0  0
 14 15  1  0  0  0  0
 14 16  1  0  0  0  0
 14123  1  1  0  0  0
 15124  1  0  0  0  0
 16125  1  0  0  0  0
 16126  1  0  0  0  0
 16127  1  0  0  0  0
 17 18  1  0  0  0  0
 17128  1  0  0  0  0
 18 19  1  0  0  0  0
 18 21  1  0  0  0  0
 18129  1  6  0  0  0
 19 20  2  0  0  0  0
 19 28  1  0  0  0  0
 21 22  1  0  0  0  0
 21130  1  0  0  0  0
 21131  1  0  0  0  0
 22 23  2  0  0  0  0
 22 24  1  0  0  0  0
 23 25  1  0  0  0  0
 23132  1  0  0  0  0
 24 26  2  0  0  0  0
 24133  1  0  0  0  0
 25 27  2  0  0  0  0
 25134  1  0  0  0  0
 26 27  1  0  0  0  0
 26135  1  0  0  0  0
 27136  1  0  0  0  0
 28 29  1  0  0  0  0
 28137  1  0  0  0  0
 29 30  1  0  0  0  0
 29 32  1  0  0  0  0
 29138  1  1  0  0  0
 30 31  2  0  0  0  0
 30 37  1  0  0  0  0
 32 33  1  0  0  0  0
 32139  1  0  0  0  0
 32140  1  0  0  0  0
 33 34  1  0  0  0  0
 33141  1  0  0  0  0
 33142  1  0  0  0  0
 34 35  1  0  0  0  0
 34 36  2  0  0  0  0
 37 38  1  0  0  0  0
 37143  1  0  0  0  0
 38 39  1  0  0  0  0
 38 41  1  0  0  0  0
 38144  1  1  0  0  0
 39 40  2  0  0  0  0
 39 47  1  0  0  0  0
 41 42  1  0  0  0  0
 41145  1  0  0  0  0
 41146  1  0  0  0  0
 42 43  1  0  0  0  0
 42 44  2  0  0  0  0
 43 45  2  0  0  0  0
 44 46  1  0  0  0  0
 44147  1  0  0  0  0
 45 46  1  0  0  0  0
 45148  1  0  0  0  0
 46149  1  0  0  0  0
 47 48  1  0  0  0  0
 47150  1  0  0  0  0
 48 49  1  0  0  0  0
 48 51  1  0  0  0  0
 48151  1  6  0  0  0
 49 50  2  0  0  0  0
 49 61  1  0  0  0  0
 51 52  1  0  0  0  0
 51152  1  0  0  0  0
 51153  1  0  0  0  0
 52 53  2  0  0  0  0
 52 54  1  0  0  0  0
 53 55  1  0  0  0  0
 53154  1  0  0  0  0
 54 56  2  0  0  0  0
 54 57  1  0  0  0  0
 55 56  1  0  0  0  0
 55155  1  0  0  0  0
 56 58  1  0  0  0  0
 57 59  2  0  0  0  0
 57156  1  0  0  0  0
 58 60  2  0  0  0  0
 58157  1  0  0  0  0
 59 60  1  0  0  0  0
 59158  1  0  0  0  0
 60159  1  0  0  0  0
 61 62  1  0  0  0  0
 61160  1  0  0  0  0
 62 63  1  0  0  0  0
 62 65  1  0  0  0  0
 62161  1  1  0  0  0
 63 64  2  0  0  0  0
 63 75  1  0  0  0  0
 65 66  1  0  0  0  0
 65162  1  0  0  0  0
 65163  1  0  0  0  0
 66 67  2  0  0  0  0
 66 68  1  0  0  0  0
 67 69  1  0  0  0  0
 67164  1  0  0  0  0
 68 70  2  0  0  0  0
 68 71  1  0  0  0  0
 69 70  1  0  0  0  0
 69165  1  0  0  0  0
 70 72  1  0  0  0  0
 71 73  2  0  0  0  0
 71166  1  0  0  0  0
 72 74  2  0  0  0  0
 72167  1  0  0  0  0
 73 74  1  0  0  0  0
 73168  1  0  0  0  0
 74169  1  0  0  0  0
 75 76  1  0  0  0  0
 75170  1  0  0  0  0
 76 77  1  0  0  0  0
 76 79  1  0  0  0  0
 76171  1  1  0  0  0
 77 78  2  0  0  0  0
 77 81  1  0  0  0  0
 79 80  1  0  0  0  0
 79172  1  0  0  0  0
 79173  1  0  0  0  0
 80174  1  0  0  0  0
 81 82  1  0  0  0  0
 81175  1  0  0  0  0
 82 83  1  0  0  0  0
 82 85  1  0  0  0  0
 82176  1  1  0  0  0
 83 84  2  0  0  0  0
 83 90  1  0  0  0  0
 85 86  1  0  0  0  0
 85177  1  0  0  0  0
 85178  1  0  0  0  0
 86 87  1  0  0  0  0
 86179  1  0  0  0  0
 86180  1  0  0  0  0
 87 88  2  0  0  0  0
 87 89  1  0  0  0  0
 89181  1  0  0  0  0
 89182  1  0  0  0  0
 90 91  1  0  0  0  0
 90183  1  0  0  0  0
 91 92  1  0  0  0  0
 91 94  1  0  0  0  0
 91184  1  6  0  0  0
 92 93  2  0  0  0  0
 92 98  1  0  0  0  0
 94 95  1  0  0  0  0
 94185  1  0  0  0  0
 94186  1  0  0  0  0
 95 96  1  0  0  0  0
 95 97  1  0  0  0  0
 95187  1  0  0  0  0
 96188  1  0  0  0  0
 96189  1  0  0  0  0
 96190  1  0  0  0  0
 97191  1  0  0  0  0
 97192  1  0  0  0  0
 97193  1  0  0  0  0
 98 99  1  0  0  0  0
 98194  1  0  0  0  0
 99100  1  0  0  0  0
 99102  1  0  0  0  0
 99195  1  6  0  0  0
100101  2  0  0  0  0
100106  1  0  0  0  0
102103  1  0  0  0  0
102196  1  0  0  0  0
102197  1  0  0  0  0
103104  1  0  0  0  0
103105  1  0  0  0  0
103198  1  0  0  0  0
104199  1  0  0  0  0
104200  1  0  0  0  0
104201  1  0  0  0  0
105202  1  0  0  0  0
105203  1  0  0  0  0
105204  1  0  0  0  0
106107  1  0  0  0  0
106205  1  0  0  0  0
107108  1  0  0  0  0
107110  1  0  0  0  0
107206  1  1  0  0  0
108109  1  0  0  0  0
108112  2  0  0  0  0
110111  1  0  0  0  0
110207  1  0  0  0  0
110208  1  0  0  0  0
111209  1  0  0  0  0
M  CHG  4   1   1   8  -1  35  -1 109  -1
M  END
