3jzs_ligand
 OpenBabel08222323343D

209214  0  0  1  0  0  0  0  0999 V2000
  -11.3360    0.6570    8.7380 N   0  3  0  0  0  0  0  0  0  0  0  0
  -12.1200    0.0100    7.6320 C   0  0  2  0  0  0  0  0  0  0  0  0
  -11.4030    0.0400    6.2870 C   0  0  0  0  0  0  0  0  0  0  0  0
  -10.5310    0.8730    6.0560 O   0  0  0  0  0  0  0  0  0  0  0  0
  -13.4790    0.6870    7.5300 C   0  0  0  0  0  0  0  0  0  0  0  0
  -14.2630    0.5920    8.8160 C   0  0  0  0  0  0  0  0  0  0  0  0
  -14.2570   -0.8200    9.3500 C   0  0  0  0  0  0  0  0  0  0  0  0
  -13.2170   -1.2230    9.9390 O   0  5  0  0  0  0  0  0  0  0  0  0
  -15.2730   -1.5420    9.1570 O   0  0  0  0  0  0  0  0  0  0  0  0
  -11.7930   -0.8570    5.4010 N   0  0  0  0  0  0  0  0  0  0  0  0
  -11.1740   -0.9760    4.0790 C   0  0  2  0  0  0  0  0  0  0  0  0
  -11.6380    0.0810    3.1170 C   0  0  0  0  0  0  0  0  0  0  0  0
  -12.6240    0.7210    3.3750 O   0  0  0  0  0  0  0  0  0  0  0  0
  -11.4810   -2.3270    3.4620 C   0  0  2  0  0  0  0  0  0  0  0  0
  -12.8880   -2.4150    3.1670 O   0  0  0  0  0  0  0  0  0  0  0  0
  -11.1170   -3.4050    4.4440 C   0  0  0  0  0  0  0  0  0  0  0  0
  -10.9200    0.2440    2.0030 N   0  0  0  0  0  0  0  0  0  0  0  0
  -11.3110    1.2670    1.0300 C   0  0  2  0  0  0  0  0  0  0  0  0
  -12.7350    0.9670    0.5360 C   0  0  0  0  0  0  0  0  0  0  0  0
  -13.5780    1.8620    0.4610 O   0  0  0  0  0  0  0  0  0  0  0  0
  -10.3550    1.2890   -0.1620 C   0  0  0  0  0  0  0  0  0  0  0  0
  -10.8580    2.1110   -1.2650 C   0  0  0  0  0  0  0  0  0  0  0  0
  -10.8510    3.5040   -1.1680 C   0  0  0  0  0  0  0  0  0  0  0  0
  -11.4930    1.5060   -2.3340 C   0  0  0  0  0  0  0  0  0  0  0  0
  -11.4820    4.2850   -2.1120 C   0  0  0  0  0  0  0  0  0  0  0  0
  -12.1360    2.2780   -3.3020 C   0  0  0  0  0  0  0  0  0  0  0  0
  -12.1310    3.6910   -3.1730 C   0  0  0  0  0  0  0  0  0  0  0  0
  -12.9780   -0.2950    0.1680 N   0  0  0  0  0  0  0  0  0  0  0  0
  -14.2920   -0.7150   -0.3050 C   0  0  2  0  0  0  0  0  0  0  0  0
  -15.3920   -0.3740    0.7070 C   0  0  0  0  0  0  0  0  0  0  0  0
  -16.4850    0.0310    0.3200 O   0  0  0  0  0  0  0  0  0  0  0  0
  -14.2930   -2.2240   -0.6150 C   0  0  0  0  0  0  0  0  0  0  0  0
  -13.6470   -2.5930   -1.9730 C   0  0  0  0  0  0  0  0  0  0  0  0
  -13.1050   -4.0700   -2.0270 C   0  0  0  0  0  0  0  0  0  0  0  0
  -11.8790   -4.2450   -2.1570 O   0  5  0  0  0  0  0  0  0  0  0  0
  -13.8860   -5.0460   -1.9260 O   0  0  0  0  0  0  0  0  0  0  0  0
  -15.1320   -0.5620    1.9970 N   0  0  0  0  0  0  0  0  0  0  0  0
  -16.1220   -0.2230    3.0380 C   0  0  2  0  0  0  0  0  0  0  0  0
  -16.4670    1.2690    2.9780 C   0  0  0  0  0  0  0  0  0  0  0  0
  -17.6520    1.6450    2.9000 O   0  0  0  0  0  0  0  0  0  0  0  0
  -15.5990   -0.5540    4.4490 C   0  0  0  0  0  0  0  0  0  0  0  0
  -16.3830    0.0890    5.5640 C   0  0  0  0  0  0  0  0  0  0  0  0
  -17.5370   -0.4600    6.0820 N   0  0  0  0  0  0  0  0  0  0  0  0
  -16.1930    1.2520    6.2360 C   0  0  0  0  0  0  0  0  0  0  0  0
  -18.0240    0.3350    7.0200 C   0  0  0  0  0  0  0  0  0  0  0  0
  -17.2280    1.3820    7.1340 N   0  0  0  0  0  0  0  0  0  0  0  0
  -15.4490    2.1370    3.0350 N   0  0  0  0  0  0  0  0  0  0  0  0
  -15.7420    3.5600    2.9430 C   0  0  2  0  0  0  0  0  0  0  0  0
  -16.4510    3.9380    1.6090 C   0  0  0  0  0  0  0  0  0  0  0  0
  -17.3850    4.7190    1.5830 O   0  0  0  0  0  0  0  0  0  0  0  0
  -14.4460    4.3640    3.0420 C   0  0  0  0  0  0  0  0  0  0  0  0
  -13.7620    4.1530    4.3550 C   0  0  0  0  0  0  0  0  0  0  0  0
  -12.5330    3.6100    4.5610 C   0  0  0  0  0  0  0  0  0  0  0  0
  -14.3040    4.4370    5.6360 C   0  0  0  0  0  0  0  0  0  0  0  0
  -12.2760    3.5360    5.9030 N   0  0  0  0  0  0  0  0  0  0  0  0
  -13.3440    4.0370    6.5860 C   0  0  0  0  0  0  0  0  0  0  0  0
  -15.5080    4.9900    6.0740 C   0  0  0  0  0  0  0  0  0  0  0  0
  -13.5520    4.1640    7.9560 C   0  0  0  0  0  0  0  0  0  0  0  0
  -15.7230    5.1190    7.4500 C   0  0  0  0  0  0  0  0  0  0  0  0
  -14.7400    4.7060    8.3730 C   0  0  0  0  0  0  0  0  0  0  0  0
  -15.9880    3.3620    0.5170 N   0  0  0  0  0  0  0  0  0  0  0  0
  -16.5420    3.7440   -0.7470 C   0  0  2  0  0  0  0  0  0  0  0  0
  -17.9770    3.2940   -0.8920 C   0  0  0  0  0  0  0  0  0  0  0  0
  -18.8240    4.0570   -1.3960 O   0  0  0  0  0  0  0  0  0  0  0  0
  -15.6650    3.2330   -1.8940 C   0  0  0  0  0  0  0  0  0  0  0  0
  -16.0190    4.0060   -3.1470 C   0  0  0  0  0  0  0  0  0  0  0  0
  -16.9490    3.6760   -4.0950 C   0  0  0  0  0  0  0  0  0  0  0  0
  -15.5350    5.3050   -3.4900 C   0  0  0  0  0  0  0  0  0  0  0  0
  -17.0780    4.7090   -5.0290 N   0  0  0  0  0  0  0  0  0  0  0  0
  -16.2330    5.7230   -4.6660 C   0  0  0  0  0  0  0  0  0  0  0  0
  -14.5730    6.1660   -2.9190 C   0  0  0  0  0  0  0  0  0  0  0  0
  -16.0060    6.9730   -5.2700 C   0  0  0  0  0  0  0  0  0  0  0  0
  -14.3410    7.4090   -3.5240 C   0  0  0  0  0  0  0  0  0  0  0  0
  -15.0600    7.7960   -4.6830 C   0  0  0  0  0  0  0  0  0  0  0  0
  -18.2760    2.0870   -0.4090 N   0  0  0  0  0  0  0  0  0  0  0  0
  -19.6370    1.5390   -0.5350 C   0  0  2  0  0  0  0  0  0  0  0  0
  -20.6510    2.4820    0.1370 C   0  0  0  0  0  0  0  0  0  0  0  0
  -21.8350    2.5360   -0.2460 O   0  0  0  0  0  0  0  0  0  0  0  0
  -19.6870    0.1200    0.0800 C   0  0  0  0  0  0  0  0  0  0  0  0
  -19.5570    0.2240    1.4960 O   0  0  0  0  0  0  0  0  0  0  0  0
  -20.2110    3.2530    1.1300 N   0  0  0  0  0  0  0  0  0  0  0  0
  -21.1320    4.1960    1.7550 C   0  0  2  0  0  0  0  0  0  0  0  0
  -21.6100    5.2460    0.7750 C   0  0  0  0  0  0  0  0  0  0  0  0
  -22.7350    5.7490    0.8930 O   0  0  0  0  0  0  0  0  0  0  0  0
  -20.5000    4.8700    2.9610 C   0  0  0  0  0  0  0  0  0  0  0  0
  -20.1060    3.8880    4.0300 C   0  0  0  0  0  0  0  0  0  0  0  0
  -19.7470    4.5570    5.3480 C   0  0  0  0  0  0  0  0  0  0  0  0
  -19.4420    3.8740    6.3330 O   0  0  0  0  0  0  0  0  0  0  0  0
  -19.7800    5.8940    5.3790 N   0  0  0  0  0  0  0  0  0  0  0  0
  -20.7730    5.6120   -0.2080 N   0  0  0  0  0  0  0  0  0  0  0  0
  -21.2080    6.6010   -1.2020 C   0  0  2  0  0  0  0  0  0  0  0  0
  -22.2780    6.0310   -2.1220 C   0  0  0  0  0  0  0  0  0  0  0  0
  -22.9090    6.7830   -2.8620 O   0  0  0  0  0  0  0  0  0  0  0  0
  -20.0260    7.0310   -2.0760 C   0  0  0  0  0  0  0  0  0  0  0  0
  -19.0950    8.0750   -1.4510 C   0  0  0  0  0  0  0  0  0  0  0  0
  -17.7250    8.0760   -2.1490 C   0  0  0  0  0  0  0  0  0  0  0  0
  -19.7420    9.4500   -1.6170 C   0  0  0  0  0  0  0  0  0  0  0  0
  -22.4780    4.7080   -2.0940 N   0  0  0  0  0  0  0  0  0  0  0  0
  -23.4580    4.0750   -2.9820 C   0  0  2  0  0  0  0  0  0  0  0  0
  -24.7380    3.7110   -2.2240 C   0  0  0  0  0  0  0  0  0  0  0  0
  -25.6690    3.0930   -2.7640 O   0  0  0  0  0  0  0  0  0  0  0  0
  -22.8380    2.8160   -3.6460 C   0  0  0  0  0  0  0  0  0  0  0  0
  -21.4910    2.9870   -4.3420 C   0  0  0  0  0  0  0  0  0  0  0  0
  -20.9790    1.6450   -4.8910 C   0  0  0  0  0  0  0  0  0  0  0  0
  -21.6310    3.9480   -5.4850 C   0  0  0  0  0  0  0  0  0  0  0  0
  -24.7310    4.0800   -0.9480 N   0  0  0  0  0  0  0  0  0  0  0  0
  -25.8040    3.8680   -0.0030 C   0  0  2  0  0  0  0  0  0  0  0  0
  -26.8090    5.0220   -0.0860 C   0  0  0  0  0  0  0  0  0  0  0  0
  -26.6040    5.9950   -0.8590 O   0  5  0  0  0  0  0  0  0  0  0  0
  -25.2240    3.8340    1.4160 C   0  0  0  0  0  0  0  0  0  0  0  0
  -26.2540    3.8040    2.3600 O   0  0  0  0  0  0  0  0  0  0  0  0
  -27.7950    4.9400    0.6680 O   0  0  0  0  0  0  0  0  0  0  0  0
  -11.8610    0.6050    9.5969 H   0  0  0  0  0  0  0  0  0  0  0  0
  -11.1640    1.6231    8.5073 H   0  0  0  0  0  0  0  0  0  0  0  0
  -10.4569    0.1771    8.8520 H   0  0  0  0  0  0  0  0  0  0  0  0
  -12.2765   -1.0450    7.9011 H   0  0  0  0  0  0  0  0  0  0  0  0
  -14.0557    0.2040    6.7274 H   0  0  0  0  0  0  0  0  0  0  0  0
  -13.3281    1.7487    7.2852 H   0  0  0  0  0  0  0  0  0  0  0  0
  -15.3018    0.9010    8.6277 H   0  0  0  0  0  0  0  0  0  0  0  0
  -13.8111    1.2610    9.5631 H   0  0  0  0  0  0  0  0  0  0  0  0
  -12.5388   -1.4784    5.6412 H   0  0  0  0  0  0  0  0  0  0  0  0
  -10.0855   -0.8798    4.2052 H   0  0  0  0  0  0  0  0  0  0  0  0
  -10.8997   -2.4533    2.5368 H   0  0  0  0  0  0  0  0  0  0  0  0
  -13.0771   -3.2621    2.7808 H   0  0  0  0  0  0  0  0  0  0  0  0
  -11.3362   -4.3897    4.0054 H   0  0  0  0  0  0  0  0  0  0  0  0
  -11.7038   -3.2752    5.3653 H   0  0  0  0  0  0  0  0  0  0  0  0
  -10.0446   -3.3392    4.6800 H   0  0  0  0  0  0  0  0  0  0  0  0
  -10.1187   -0.3298    1.8336 H   0  0  0  0  0  0  0  0  0  0  0  0
  -11.2942    2.2521    1.5192 H   0  0  0  0  0  0  0  0  0  0  0  0
  -10.2167    0.2593   -0.5232 H   0  0  0  0  0  0  0  0  0  0  0  0
   -9.3874    1.6947    0.1684 H   0  0  0  0  0  0  0  0  0  0  0  0
  -10.3413    3.9784   -0.3372 H   0  0  0  0  0  0  0  0  0  0  0  0
  -11.4912    0.4254   -2.4204 H   0  0  0  0  0  0  0  0  0  0  0  0
  -11.4679    5.3650   -2.0202 H   0  0  0  0  0  0  0  0  0  0  0  0
  -12.6327    1.8047   -4.1413 H   0  0  0  0  0  0  0  0  0  0  0  0
  -12.6380    4.3038   -3.9095 H   0  0  0  0  0  0  0  0  0  0  0  0
  -12.2401   -0.9680    0.2183 H   0  0  0  0  0  0  0  0  0  0  0  0
  -14.5077   -0.1720   -1.2370 H   0  0  0  0  0  0  0  0  0  0  0  0
  -15.3358   -2.5740   -0.6226 H   0  0  0  0  0  0  0  0  0  0  0  0
  -13.7386   -2.7405    0.1824 H   0  0  0  0  0  0  0  0  0  0  0  0
  -12.8075   -1.9067   -2.1577 H   0  0  0  0  0  0  0  0  0  0  0  0
  -14.4021   -2.4697   -2.7633 H   0  0  0  0  0  0  0  0  0  0  0  0
  -14.2471   -0.9410    2.2678 H   0  0  0  0  0  0  0  0  0  0  0  0
  -17.0345   -0.8089    2.8535 H   0  0  0  0  0  0  0  0  0  0  0  0
  -14.5557   -0.2126    4.5193 H   0  0  0  0  0  0  0  0  0  0  0  0
  -15.6378   -1.6449    4.5844 H   0  0  0  0  0  0  0  0  0  0  0  0
  -15.3727    1.9535    6.0916 H   0  0  0  0  0  0  0  0  0  0  0  0
  -18.9282    0.1563    7.6000 H   0  0  0  0  0  0  0  0  0  0  0  0
  -17.3598    2.1671    7.7875 H   0  0  0  0  0  0  0  0  0  0  0  0
  -14.5080    1.8148    3.1385 H   0  0  0  0  0  0  0  0  0  0  0  0
  -16.4009    3.8324    3.7806 H   0  0  0  0  0  0  0  0  0  0  0  0
  -14.6804    5.4329    2.9301 H   0  0  0  0  0  0  0  0  0  0  0  0
  -13.7694    4.0503    2.2334 H   0  0  0  0  0  0  0  0  0  0  0  0
  -11.8540    3.2826    3.7750 H   0  0  0  0  0  0  0  0  0  0  0  0
  -11.4154    3.1624    6.3280 H   0  0  0  0  0  0  0  0  0  0  0  0
  -16.2603    5.3126    5.3633 H   0  0  0  0  0  0  0  0  0  0  0  0
  -12.8003    3.8452    8.6690 H   0  0  0  0  0  0  0  0  0  0  0  0
  -16.6543    5.5406    7.8105 H   0  0  0  0  0  0  0  0  0  0  0  0
  -14.9278    4.8195    9.4346 H   0  0  0  0  0  0  0  0  0  0  0  0
  -15.2652    2.6730    0.5704 H   0  0  0  0  0  0  0  0  0  0  0  0
  -16.5385    4.8431   -0.7917 H   0  0  0  0  0  0  0  0  0  0  0  0
  -15.8505    2.1607   -2.0542 H   0  0  0  0  0  0  0  0  0  0  0  0
  -14.6042    3.3890   -1.6485 H   0  0  0  0  0  0  0  0  0  0  0  0
  -17.5088    2.7422   -4.1188 H   0  0  0  0  0  0  0  0  0  0  0  0
  -17.7015    4.7071   -5.8489 H   0  0  0  0  0  0  0  0  0  0  0  0
  -14.0251    5.8720   -2.0311 H   0  0  0  0  0  0  0  0  0  0  0  0
  -16.5486    7.2788   -6.1572 H   0  0  0  0  0  0  0  0  0  0  0  0
  -13.6037    8.0818   -3.1010 H   0  0  0  0  0  0  0  0  0  0  0  0
  -14.8629    8.7667   -5.1234 H   0  0  0  0  0  0  0  0  0  0  0  0
  -17.5667    1.5473    0.0445 H   0  0  0  0  0  0  0  0  0  0  0  0
  -19.8895    1.4638   -1.6030 H   0  0  0  0  0  0  0  0  0  0  0  0
  -18.8620   -0.4860   -0.3227 H   0  0  0  0  0  0  0  0  0  0  0  0
  -20.6470   -0.3562   -0.1684 H   0  0  0  0  0  0  0  0  0  0  0  0
  -18.7278    0.6366    1.7073 H   0  0  0  0  0  0  0  0  0  0  0  0
  -19.2634    3.1864    1.4424 H   0  0  0  0  0  0  0  0  0  0  0  0
  -22.0086    3.6286    2.1008 H   0  0  0  0  0  0  0  0  0  0  0  0
  -21.2225    5.5824    3.3857 H   0  0  0  0  0  0  0  0  0  0  0  0
  -19.6012    5.4118    2.6314 H   0  0  0  0  0  0  0  0  0  0  0  0
  -19.2342    3.3173    3.6777 H   0  0  0  0  0  0  0  0  0  0  0  0
  -20.9480    3.2017    4.2032 H   0  0  0  0  0  0  0  0  0  0  0  0
  -19.5521    6.3804    6.2225 H   0  0  0  0  0  0  0  0  0  0  0  0
  -20.0326    6.4071    4.5587 H   0  0  0  0  0  0  0  0  0  0  0  0
  -19.8577    5.2131   -0.2632 H   0  0  0  0  0  0  0  0  0  0  0  0
  -21.6124    7.4776   -0.6746 H   0  0  0  0  0  0  0  0  0  0  0  0
  -20.4287    7.4505   -3.0097 H   0  0  0  0  0  0  0  0  0  0  0  0
  -19.4285    6.1360   -2.3038 H   0  0  0  0  0  0  0  0  0  0  0  0
  -18.9587    7.8527   -0.3824 H   0  0  0  0  0  0  0  0  0  0  0  0
  -17.0766    8.8324   -1.6828 H   0  0  0  0  0  0  0  0  0  0  0  0
  -17.8568    8.3128   -3.2151 H   0  0  0  0  0  0  0  0  0  0  0  0
  -17.2615    7.0835   -2.0484 H   0  0  0  0  0  0  0  0  0  0  0  0
  -20.7231    9.4560   -1.1196 H   0  0  0  0  0  0  0  0  0  0  0  0
  -19.8723    9.6671   -2.6874 H   0  0  0  0  0  0  0  0  0  0  0  0
  -19.0962   10.2163   -1.1634 H   0  0  0  0  0  0  0  0  0  0  0  0
  -21.9516    4.1432   -1.4584 H   0  0  0  0  0  0  0  0  0  0  0  0
  -23.7203    4.7919   -3.7740 H   0  0  0  0  0  0  0  0  0  0  0  0
  -23.5544    2.4509   -4.3967 H   0  0  0  0  0  0  0  0  0  0  0  0
  -22.7107    2.0563   -2.8607 H   0  0  0  0  0  0  0  0  0  0  0  0
  -20.7630    3.3825   -3.6185 H   0  0  0  0  0  0  0  0  0  0  0  0
  -20.0088    1.7977   -5.3863 H   0  0  0  0  0  0  0  0  0  0  0  0
  -21.7025    1.2458   -5.6170 H   0  0  0  0  0  0  0  0  0  0  0  0
  -20.8593    0.9315   -4.0624 H   0  0  0  0  0  0  0  0  0  0  0  0
  -21.9970    4.9146   -5.1086 H   0  0  0  0  0  0  0  0  0  0  0  0
  -22.3462    3.5452   -6.2173 H   0  0  0  0  0  0  0  0  0  0  0  0
  -20.6526    4.0891   -5.9674 H   0  0  0  0  0  0  0  0  0  0  0  0
  -23.9120    4.5450   -0.6118 H   0  0  0  0  0  0  0  0  0  0  0  0
  -26.3098    2.9167   -0.2249 H   0  0  0  0  0  0  0  0  0  0  0  0
  -24.6090    4.7314    1.5783 H   0  0  0  0  0  0  0  0  0  0  0  0
  -24.5996    2.9358    1.5315 H   0  0  0  0  0  0  0  0  0  0  0  0
  -25.8810    3.7832    3.2335 H   0  0  0  0  0  0  0  0  0  0  0  0
  1  2  1  0  0  0  0
  1113  1  0  0  0  0
  1114  1  0  0  0  0
  1115  1  0  0  0  0
  2  3  1  0  0  0  0
  2  5  1  0  0  0  0
  2116  1  1  0  0  0
  3  4  2  0  0  0  0
  3 10  1  0  0  0  0
  5  6  1  0  0  0  0
  5117  1  0  0  0  0
  5118  1  0  0  0  0
  6  7  1  0  0  0  0
  6119  1  0  0  0  0
  6120  1  0  0  0  0
  7  8  1  0  0  0  0
  7  9  2  0  0  0  0
 10 11  1  0  0  0  0
 10121  1  0  0  0  0
 11 12  1  0  0  0  0
 11 14  1  0  0  0  0
 11122  1  1  0  0  0
 12 13  2  0  0  0  0
 12 17  1  0  0  0  0
 14 15  1  0  0  0  0
 14 16  1  0  0  0  0
 14123  1  6  0  0  0
 15124  1  0  0  0  0
 16125  1  0  0  0  0
 16126  1  0  0  0  0
 16127  1  0  0  0  0
 17 18  1  0  0  0  0
 17128  1  0  0  0  0
 18 19  1  0  0  0  0
 18 21  1  0  0  0  0
 18129  1  1  0  0  0
 19 20  2  0  0  0  0
 19 28  1  0  0  0  0
 21 22  1  0  0  0  0
 21130  1  0  0  0  0
 21131  1  0  0  0  0
 22 23  2  0  0  0  0
 22 24  1  0  0  0  0
 23 25  1  0  0  0  0
 23132  1  0  0  0  0
 24 26  2  0  0  0  0
 24133  1  0  0  0  0
 25 27  2  0  0  0  0
 25134  1  0  0  0  0
 26 27  1  0  0  0  0
 26135  1  0  0  0  0
 27136  1  0  0  0  0
 28 29  1  0  0  0  0
 28137  1  0  0  0  0
 29 30  1  0  0  0  0
 29 32  1  0  0  0  0
 29138  1  6  0  0  0
 30 31  2  0  0  0  0
 30 37  1  0  0  0  0
 32 33  1  0  0  0  0
 32139  1  0  0  0  0
 32140  1  0  0  0  0
 33 34  1  0  0  0  0
 33141  1  0  0  0  0
 33142  1  0  0  0  0
 34 35  1  0  0  0  0
 34 36  2  0  0  0  0
 37 38  1  0  0  0  0
 37143  1  0  0  0  0
 38 39  1  0  0  0  0
 38 41  1  0  0  0  0
 38144  1  6  0  0  0
 39 40  2  0  0  0  0
 39 47  1  0  0  0  0
 41 42  1  0  0  0  0
 41145  1  0  0  0  0
 41146  1  0  0  0  0
 42 43  1  0  0  0  0
 42 44  2  0  0  0  0
 43 45  2  0  0  0  0
 44 46  1  0  0  0  0
 44147  1  0  0  0  0
 45 46  1  0  0  0  0
 45148  1  0  0  0  0
 46149  1  0  0  0  0
 47 48  1  0  0  0  0
 47150  1  0  0  0  0
 48 49  1  0  0  0  0
 48 51  1  0  0  0  0
 48151  1  1  0  0  0
 49 50  2  0  0  0  0
 49 61  1  0  0  0  0
 51 52  1  0  0  0  0
 51152  1  0  0  0  0
 51153  1  0  0  0  0
 52 53  2  0  0  0  0
 52 54  1  0  0  0  0
 53 55  1  0  0  0  0
 53154  1  0  0  0  0
 54 56  2  0  0  0  0
 54 57  1  0  0  0  0
 55 56  1  0  0  0  0
 55155  1  0  0  0  0
 56 58  1  0  0  0  0
 57 59  2  0  0  0  0
 57156  1  0  0  0  0
 58 60  2  0  0  0  0
 58157  1  0  0  0  0
 59 60  1  0  0  0  0
 59158  1  0  0  0  0
 60159  1  0  0  0  0
 61 62  1  0  0  0  0
 61160  1  0  0  0  0
 62 63  1  0  0  0  0
 62 65  1  0  0  0  0
 62161  1  6  0  0  0
 63 64  2  0  0  0  0
 63 75  1  0  0  0  0
 65 66  1  0  0  0  0
 65162  1  0  0  0  0
 65163  1  0  0  0  0
 66 67  2  0  0  0  0
 66 68  1  0  0  0  0
 67 69  1  0  0  0  0
 67164  1  0  0  0  0
 68 70  2  0  0  0  0
 68 71  1  0  0  0  0
 69 70  1  0  0  0  0
 69165  1  0  0  0  0
 70 72  1  0  0  0  0
 71 73  2  0  0  0  0
 71166  1  0  0  0  0
 72 74  2  0  0  0  0
 72167  1  0  0  0  0
 73 74  1  0  0  0  0
 73168  1  0  0  0  0
 74169  1  0  0  0  0
 75 76  1  0  0  0  0
 75170  1  0  0  0  0
 76 77  1  0  0  0  0
 76 79  1  0  0  0  0
 76171  1  6  0  0  0
 77 78  2  0  0  0  0
 77 81  1  0  0  0  0
 79 80  1  0  0  0  0
 79172  1  0  0  0  0
 79173  1  0  0  0  0
 80174  1  0  0  0  0
 81 82  1  0  0  0  0
 81175  1  0  0  0  0
 82 83  1  0  0  0  0
 82 85  1  0  0  0  0
 82176  1  1  0  0  0
 83 84  2  0  0  0  0
 83 90  1  0  0  0  0
 85 86  1  0  0  0  0
 85177  1  0  0  0  0
 85178  1  0  0  0  0
 86 87  1  0  0  0  0
 86179  1  0  0  0  0
 86180  1  0  0  0  0
 87 88  2  0  0  0  0
 87 89  1  0  0  0  0
 89181  1  0  0  0  0
 89182  1  0  0  0  0
 90 91  1  0  0  0  0
 90183  1  0  0  0  0
 91 92  1  0  0  0  0
 91 94  1  0  0  0  0
 91184  1  1  0  0  0
 92 93  2  0  0  0  0
 92 98  1  0  0  0  0
 94 95  1  0  0  0  0
 94185  1  0  0  0  0
 94186  1  0  0  0  0
 95 96  1  0  0  0  0
 95 97  1  0  0  0  0
 95187  1  0  0  0  0
 96188  1  0  0  0  0
 96189  1  0  0  0  0
 96190  1  0  0  0  0
 97191  1  0  0  0  0
 97192  1  0  0  0  0
 97193  1  0  0  0  0
 98 99  1  0  0  0  0
 98194  1  0  0  0  0
 99100  1  0  0  0  0
 99102  1  0  0  0  0
 99195  1  6  0  0  0
100101  2  0  0  0  0
100106  1  0  0  0  0
102103  1  0  0  0  0
102196  1  0  0  0  0
102197  1  0  0  0  0
103104  1  0  0  0  0
103105  1  0  0  0  0
103198  1  0  0  0  0
104199  1  0  0  0  0
104200  1  0  0  0  0
104201  1  0  0  0  0
105202  1  0  0  0  0
105203  1  0  0  0  0
105204  1  0  0  0  0
106107  1  0  0  0  0
106205  1  0  0  0  0
107108  1  0  0  0  0
107110  1  0  0  0  0
107206  1  6  0  0  0
108109  1  0  0  0  0
108112  2  0  0  0  0
110111  1  0  0  0  0
110207  1  0  0  0  0
110208  1  0  0  0  0
111209  1  0  0  0  0
M  CHG  4   1   1   8  -1  35  -1 109  -1
M  END
