3k3b_ligand
 OpenBabel08222323343D

 46 49  0  0  1  0  0  0  0  0999 V2000
   15.6620  -20.2400   21.6450 C   0  0  0  0  0  0  0  0  0  0  0  0
   16.2340  -19.9490   22.9320 C   0  0  0  0  0  0  0  0  0  0  0  0
   15.4180  -19.2660   23.9390 C   0  0  0  0  0  0  0  0  0  0  0  0
   14.0850  -18.9000   23.6460 C   0  0  0  0  0  0  0  0  0  0  0  0
   13.4990  -19.2110   22.3020 C   0  0  0  0  0  0  0  0  0  0  0  0
   14.2720  -19.8580   21.3410 C   0  0  0  0  0  0  0  0  0  0  0  0
   16.4870  -20.9540   20.5640 C   0  0  0  0  0  0  0  0  0  0  0  0
   15.7130  -18.8210   25.4090 C   0  0  1  0  0  0  0  0  0  0  0  0
   14.4790  -18.0520   25.8450 C   0  0  2  0  0  0  0  0  0  0  0  0
   13.4810  -18.2080   24.8330 N   0  0  0  0  0  0  0  0  0  0  0  0
   16.7320  -19.2350   26.4970 C   0  0  0  0  0  0  0  0  0  0  0  0
   16.6210  -18.5070   27.8860 C   0  0  0  0  0  0  0  0  0  0  0  0
   15.7630  -17.2910   27.8870 N   0  0  0  0  0  0  0  0  0  0  0  0
   14.5280  -17.2220   27.1340 C   0  0  2  0  0  0  0  0  0  0  0  0
   13.3440  -17.6160   28.0340 C   0  0  0  0  0  0  0  0  0  0  0  0
   12.6490  -16.6260   28.7330 C   0  0  0  0  0  0  0  0  0  0  0  0
   11.5350  -16.9770   29.5670 C   0  0  0  0  0  0  0  0  0  0  0  0
   11.1150  -18.3840   29.6900 C   0  0  0  0  0  0  0  0  0  0  0  0
   11.8260  -19.4030   28.9710 C   0  0  0  0  0  0  0  0  0  0  0  0
   12.9090  -19.0600   28.1620 C   0  0  0  0  0  0  0  0  0  0  0  0
   10.8420  -15.9790   30.2720 O   0  0  0  0  0  0  0  0  0  0  0  0
   16.3130  -16.0220   28.4060 C   0  0  0  0  0  0  0  0  0  0  0  0
   15.6900  -15.0190   28.2880 O   0  0  0  0  0  0  0  0  0  0  0  0
   17.6870  -15.9420   29.0300 C   0  0  0  0  0  0  0  0  0  0  0  0
   17.2566  -20.2316   23.1543 H   0  0  0  0  0  0  0  0  0  0  0  0
   12.4754  -18.9329   22.0784 H   0  0  0  0  0  0  0  0  0  0  0  0
   13.8502  -20.0809   20.3676 H   0  0  0  0  0  0  0  0  0  0  0  0
   17.4943  -21.1661   20.9519 H   0  0  0  0  0  0  0  0  0  0  0  0
   16.5643  -20.3093   19.6761 H   0  0  0  0  0  0  0  0  0  0  0  0
   15.9934  -21.8980   20.2898 H   0  0  0  0  0  0  0  0  0  0  0  0
   16.3277  -17.9591   25.1102 H   0  0  0  0  0  0  0  0  0  0  0  0
   14.0623  -18.8916   26.4206 H   0  0  0  0  0  0  0  0  0  0  0  0
   12.5025  -17.8950   24.9069 H   0  0  0  0  0  0  0  0  0  0  0  0
   17.7395  -19.0423   26.0999 H   0  0  0  0  0  0  0  0  0  0  0  0
   16.6084  -20.3133   26.6757 H   0  0  0  0  0  0  0  0  0  0  0  0
   17.6332  -18.2117   28.1993 H   0  0  0  0  0  0  0  0  0  0  0  0
   16.2052  -19.2196   28.6135 H   0  0  0  0  0  0  0  0  0  0  0  0
   14.3964  -16.1703   26.8399 H   0  0  0  0  0  0  0  0  0  0  0  0
   12.9522  -15.5890   28.6451 H   0  0  0  0  0  0  0  0  0  0  0  0
   10.2735  -18.6483   30.3202 H   0  0  0  0  0  0  0  0  0  0  0  0
   11.5209  -20.4396   29.0569 H   0  0  0  0  0  0  0  0  0  0  0  0
   13.4429  -19.8330   27.6211 H   0  0  0  0  0  0  0  0  0  0  0  0
   11.2329  -15.1330   30.0874 H   0  0  0  0  0  0  0  0  0  0  0  0
   17.8875  -14.9069   29.3438 H   0  0  0  0  0  0  0  0  0  0  0  0
   18.4426  -16.2550   28.2944 H   0  0  0  0  0  0  0  0  0  0  0  0
   17.7311  -16.6057   29.9061 H   0  0  0  0  0  0  0  0  0  0  0  0
  1  2  2  0  0  0  0
  1  6  1  0  0  0  0
  1  7  1  0  0  0  0
  2  3  1  0  0  0  0
  2 25  1  0  0  0  0
  3  4  2  0  0  0  0
  3  8  1  0  0  0  0
  4  5  1  0  0  0  0
  4 10  1  0  0  0  0
  5  6  2  0  0  0  0
  5 26  1  0  0  0  0
  6 27  1  0  0  0  0
  7 28  1  0  0  0  0
  7 29  1  0  0  0  0
  7 30  1  0  0  0  0
  8  9  1  0  0  0  0
  8 11  1  0  0  0  0
  8 31  1  6  0  0  0
  9 10  1  0  0  0  0
  9 14  1  0  0  0  0
  9 32  1  1  0  0  0
 10 33  1  0  0  0  0
 11 12  1  0  0  0  0
 11 34  1  0  0  0  0
 11 35  1  0  0  0  0
 12 13  1  0  0  0  0
 12 36  1  0  0  0  0
 12 37  1  0  0  0  0
 13 14  1  0  0  0  0
 13 22  1  0  0  0  0
 14 15  1  0  0  0  0
 14 38  1  6  0  0  0
 15 16  2  0  0  0  0
 15 20  1  0  0  0  0
 16 17  1  0  0  0  0
 16 39  1  0  0  0  0
 17 18  2  0  0  0  0
 17 21  1  0  0  0  0
 18 19  1  0  0  0  0
 18 40  1  0  0  0  0
 19 20  2  0  0  0  0
 19 41  1  0  0  0  0
 20 42  1  0  0  0  0
 21 43  1  0  0  0  0
 22 23  2  0  0  0  0
 22 24  1  0  0  0  0
 24 44  1  0  0  0  0
 24 45  1  0  0  0  0
 24 46  1  0  0  0  0
M  END
