3k3j_ligand
 OpenBabel08222323343D

 50 53  0  0  0  0  0  0  0  0999 V2000
   -0.7770    4.1060  -14.2440 N   0  0  0  0  0  0  0  0  0  0  0  0
    1.9400    3.0900  -17.2680 N   0  0  0  0  0  0  0  0  0  0  0  0
    0.3910    6.1300  -13.7940 C   0  0  0  0  0  0  0  0  0  0  0  0
    4.5690    1.4420  -20.2240 C   0  0  0  0  0  0  0  0  0  0  0  0
    2.1850    4.1870  -16.5420 C   0  0  0  0  0  0  0  0  0  0  0  0
    4.8980    1.3730  -18.7630 C   0  0  0  0  0  0  0  0  0  0  0  0
   -1.9210    3.4310  -13.7740 C   0  0  0  0  0  0  0  0  0  0  0  0
    0.3950    7.4000  -13.0160 C   0  0  0  0  0  0  0  0  0  0  0  0
   -3.0950    4.1850  -13.7310 C   0  0  0  0  0  0  0  0  0  0  0  0
   -4.2530    3.6250  -13.2320 C   0  0  0  0  0  0  0  0  0  0  0  0
    6.0750    0.7170  -18.3830 C   0  0  0  0  0  0  0  0  0  0  0  0
    1.0670    8.5170  -13.5130 C   0  0  0  0  0  0  0  0  0  0  0  0
   -0.3410    7.5190  -11.8430 C   0  0  0  0  0  0  0  0  0  0  0  0
    4.3440    1.8840  -16.4720 C   0  0  0  0  0  0  0  0  0  0  0  0
    5.5220    1.2440  -16.0800 C   0  0  0  0  0  0  0  0  0  0  0  0
   -5.3690    1.7900  -12.3000 F   0  0  0  0  0  0  0  0  0  0  0  0
   -4.2340    2.3130  -12.7720 C   0  0  0  0  0  0  0  0  0  0  0  0
   -3.0640    1.5540  -12.7950 C   0  0  0  0  0  0  0  0  0  0  0  0
   -1.8850    2.1270  -13.2790 C   0  0  0  0  0  0  0  0  0  0  0  0
    0.1030    3.7140  -15.1960 C   0  0  0  0  0  0  0  0  0  0  0  0
   -0.0330    2.6240  -15.8140 O   0  0  0  0  0  0  0  0  0  0  0  0
   -0.6120    5.3100  -13.5620 N   0  0  0  0  0  0  0  0  0  0  0  0
    1.0390    9.7120  -12.8030 C   0  0  0  0  0  0  0  0  0  0  0  0
   -0.3430    8.7430  -11.1720 C   0  0  0  0  0  0  0  0  0  0  0  0
    0.3630    9.7940  -11.6590 N   0  0  0  0  0  0  0  0  0  0  0  0
    1.3240    5.7730  -14.7930 C   0  0  0  0  0  0  0  0  0  0  0  0
    1.1880    4.5510  -15.4740 C   0  0  0  0  0  0  0  0  0  0  0  0
    3.1710    4.9100  -16.7450 O   0  0  0  0  0  0  0  0  0  0  0  0
    2.7700    2.6180  -18.3320 C   0  0  0  0  0  0  0  0  0  0  0  0
    4.0340    1.9480  -17.8330 C   0  0  0  0  0  0  0  0  0  0  0  0
    6.3770    0.6500  -17.0350 C   0  0  0  0  0  0  0  0  0  0  0  0
    5.6640    1.1370  -20.9070 F   0  0  0  0  0  0  0  0  0  0  0  0
    3.5760    0.6090  -20.5090 F   0  0  0  0  0  0  0  0  0  0  0  0
    4.1890    2.6790  -20.5140 F   0  0  0  0  0  0  0  0  0  0  0  0
    1.1182    2.5631  -17.0510 H   0  0  0  0  0  0  0  0  0  0  0  0
   -3.0968    5.2082  -14.0889 H   0  0  0  0  0  0  0  0  0  0  0  0
   -5.1696    4.2028  -13.1989 H   0  0  0  0  0  0  0  0  0  0  0  0
    6.7308    0.2743  -19.1240 H   0  0  0  0  0  0  0  0  0  0  0  0
    1.6091    8.4534  -14.4495 H   0  0  0  0  0  0  0  0  0  0  0  0
   -0.9032    6.6767  -11.4563 H   0  0  0  0  0  0  0  0  0  0  0  0
    3.6824    2.3230  -15.7340 H   0  0  0  0  0  0  0  0  0  0  0  0
    5.7837    1.2025  -15.0289 H   0  0  0  0  0  0  0  0  0  0  0  0
   -3.0693    0.5295  -12.4408 H   0  0  0  0  0  0  0  0  0  0  0  0
   -0.9568    1.5671  -13.2700 H   0  0  0  0  0  0  0  0  0  0  0  0
    1.5686   10.5787  -13.1816 H   0  0  0  0  0  0  0  0  0  0  0  0
   -0.9122    8.8544  -10.2562 H   0  0  0  0  0  0  0  0  0  0  0  0
    2.1472    6.4435  -15.0350 H   0  0  0  0  0  0  0  0  0  0  0  0
    3.0509    3.4726  -18.9651 H   0  0  0  0  0  0  0  0  0  0  0  0
    2.1986    1.8917  -18.9287 H   0  0  0  0  0  0  0  0  0  0  0  0
    7.2755    0.1385  -16.7092 H   0  0  0  0  0  0  0  0  0  0  0  0
  1  7  1  0  0  0  0
  1 22  1  0  0  0  0
  2  5  1  0  0  0  0
  2 35  1  0  0  0  0
  3  8  1  0  0  0  0
  3 22  2  0  0  0  0
  4 32  1  0  0  0  0
  4 33  1  0  0  0  0
  4 34  1  0  0  0  0
  5 27  1  0  0  0  0
  5 28  2  0  0  0  0
  6  4  1  0  0  0  0
  6 11  2  0  0  0  0
  7  9  2  0  0  0  0
  7 19  1  0  0  0  0
  8 12  2  0  0  0  0
  8 13  1  0  0  0  0
  9 10  1  0  0  0  0
  9 36  1  0  0  0  0
 10 17  2  0  0  0  0
 10 37  1  0  0  0  0
 11 31  1  0  0  0  0
 11 38  1  0  0  0  0
 12 23  1  0  0  0  0
 12 39  1  0  0  0  0
 13 24  2  0  0  0  0
 13 40  1  0  0  0  0
 14 15  1  0  0  0  0
 14 41  1  0  0  0  0
 15 31  2  0  0  0  0
 15 42  1  0  0  0  0
 17 16  1  0  0  0  0
 18 17  1  0  0  0  0
 18 43  1  0  0  0  0
 19 18  2  0  0  0  0
 19 44  1  0  0  0  0
 20  1  1  0  0  0  0
 20 21  2  0  0  0  0
 23 25  2  0  0  0  0
 23 45  1  0  0  0  0
 24 25  1  0  0  0  0
 24 46  1  0  0  0  0
 26  3  1  0  0  0  0
 26 47  1  0  0  0  0
 27 20  1  0  0  0  0
 27 26  2  0  0  0  0
 29  2  1  0  0  0  0
 29 30  1  0  0  0  0
 29 48  1  0  0  0  0
 29 49  1  0  0  0  0
 30  6  1  0  0  0  0
 30 14  2  0  0  0  0
 31 50  1  0  0  0  0
M  END
