3k41_ligand
 OpenBabel08222323343D

 27 27  0  0  1  0  0  0  0  0999 V2000
   21.4440    7.9660   25.9290 C   0  0  2  0  0  0  0  0  0  0  0  0
   20.6860    8.0600   24.5740 C   0  0  2  0  0  0  0  0  0  0  0  0
   19.1630    8.2860   24.8610 C   0  0  2  0  0  0  0  0  0  0  0  0
   18.6150    7.1490   25.7510 C   0  0  1  0  0  0  0  0  0  0  0  0
   19.4180    7.1250   27.0790 C   0  0  1  0  0  0  0  0  0  0  0  0
   18.9620    5.9860   27.9870 C   0  0  0  0  0  0  0  0  0  0  0  0
   22.7930    7.6100   25.7210 O   0  0  0  0  0  0  0  0  0  0  0  0
   20.8640    6.8490   23.8240 O   0  0  0  0  0  0  0  0  0  0  0  0
   18.4190    8.3380   23.6450 O   0  0  0  0  0  0  0  0  0  0  0  0
   17.2250    7.3750   25.9970 O   0  0  0  0  0  0  0  0  0  0  0  0
   20.8430    6.9300   26.7740 O   0  0  0  0  0  0  0  0  0  0  0  0
   19.6440    5.9130   29.2400 O   0  0  0  0  0  0  0  0  0  0  0  0
   19.8910    4.5570   30.0360 P   0  0  0  0  0  0  0  0  0  0  0  0
   18.5850    3.8740   30.3430 O   0  0  0  0  0  1  0  0  0  0  0  0
   20.6040    4.8230   31.3430 O   0  0  0  0  0  1  0  0  0  0  0  0
   20.7570    3.6200   29.2110 O   0  0  0  0  0  0  0  0  0  0  0  0
   21.3920    8.9390   26.4394 H   0  0  0  0  0  0  0  0  0  0  0  0
   21.0795    8.9071   23.9929 H   0  0  0  0  0  0  0  0  0  0  0  0
   19.0432    9.2427   25.3905 H   0  0  0  0  0  0  0  0  0  0  0  0
   18.7381    6.1850   25.2357 H   0  0  0  0  0  0  0  0  0  0  0  0
   19.2780    8.0829   27.6013 H   0  0  0  0  0  0  0  0  0  0  0  0
   19.1223    5.0373   27.4538 H   0  0  0  0  0  0  0  0  0  0  0  0
   17.8885    6.1168   28.1882 H   0  0  0  0  0  0  0  0  0  0  0  0
   22.8334    6.7640   25.2907 H   0  0  0  0  0  0  0  0  0  0  0  0
   20.3949    6.9159   23.0007 H   0  0  0  0  0  0  0  0  0  0  0  0
   17.5041    8.5017   23.8416 H   0  0  0  0  0  0  0  0  0  0  0  0
   16.7560    7.3854   25.1710 H   0  0  0  0  0  0  0  0  0  0  0  0
  1  2  1  0  0  0  0
  1  7  1  0  0  0  0
  1 11  1  0  0  0  0
  1 17  1  1  0  0  0
  2  3  1  0  0  0  0
  2  8  1  0  0  0  0
  2 18  1  6  0  0  0
  3  4  1  0  0  0  0
  3  9  1  0  0  0  0
  3 19  1  1  0  0  0
  4  5  1  0  0  0  0
  4 10  1  0  0  0  0
  4 20  1  6  0  0  0
  5  6  1  0  0  0  0
  5 11  1  0  0  0  0
  5 21  1  1  0  0  0
  6 12  1  0  0  0  0
  6 22  1  0  0  0  0
  6 23  1  0  0  0  0
  7 24  1  0  0  0  0
  8 25  1  0  0  0  0
  9 26  1  0  0  0  0
 10 27  1  0  0  0  0
 12 13  1  0  0  0  0
 13 14  1  0  0  0  0
 13 15  1  0  0  0  0
 13 16  2  0  0  0  0
M  END
