3k5u_ligand
 OpenBabel08222323343D

 42 45  0  0  0  0  0  0  0  0999 V2000
   -4.4370  -30.5870    9.6760 C   0  0  0  0  0  0  0  0  0  0  0  0
   -3.4870  -32.0960    5.5850 C   0  0  0  0  0  0  0  0  0  0  0  0
   -2.8700  -32.8540    4.6080 C   0  0  0  0  0  0  0  0  0  0  0  0
   -2.7970  -32.5120    3.2670 C   0  0  0  0  0  0  0  0  0  0  0  0
   -2.0850  -33.3120    2.3840 C   0  0  0  0  0  0  0  0  0  0  0  0
   -1.5640  -34.5360    2.8100 C   0  0  0  0  0  0  0  0  0  0  0  0
   -1.4940  -34.8140    4.1790 C   0  0  0  0  0  0  0  0  0  0  0  0
   -2.2470  -34.0300    5.0540 C   0  0  0  0  0  0  0  0  0  0  0  0
   -4.7640  -28.9360    4.4230 C   0  0  0  0  0  0  0  0  0  0  0  0
   -5.4030  -28.2510    3.4060 C   0  0  0  0  0  0  0  0  0  0  0  0
   -6.1070  -28.9490    2.4200 C   0  0  0  0  0  0  0  0  0  0  0  0
   -6.0620  -30.3430    2.4350 C   0  0  0  0  0  0  0  0  0  0  0  0
   -3.8240  -31.5750    9.0540 N   0  0  0  0  0  0  0  0  0  0  0  0
   -3.8210  -31.6010    7.7190 C   0  0  0  0  0  0  0  0  0  0  0  0
   -3.1970  -32.4680    6.8720 O   0  0  0  0  0  0  0  0  0  0  0  0
   -4.5200  -30.6580    6.9630 C   0  0  0  0  0  0  0  0  0  0  0  0
   -5.9870  -28.7640    7.0820 N   0  0  0  0  0  0  0  0  0  0  0  0
   -5.2200  -29.6860    7.6640 C   0  0  0  0  0  0  0  0  0  0  0  0
   -5.1140  -29.6700    9.0090 N   0  0  0  0  0  0  0  0  0  0  0  0
   -5.6490  -30.9990    3.6130 C   0  0  0  0  0  0  0  0  0  0  0  0
   -4.3130  -30.9980    5.6250 C   0  0  0  0  0  0  0  0  0  0  0  0
   -4.8980  -30.3180    4.5670 C   0  0  0  0  0  0  0  0  0  0  0  0
   -8.0290  -28.3500    8.4710 C   0  0  0  0  0  0  0  0  0  0  0  0
   -6.7290  -27.7610    7.8700 C   0  0  0  0  0  0  0  0  0  0  0  0
   -8.7000  -27.3760    9.2920 O   0  0  0  0  0  0  0  0  0  0  0  0
   -4.3842  -30.5262   10.7570 H   0  0  0  0  0  0  0  0  0  0  0  0
   -3.2961  -31.6194    2.9075 H   0  0  0  0  0  0  0  0  0  0  0  0
   -1.9329  -32.9861    1.3614 H   0  0  0  0  0  0  0  0  0  0  0  0
   -1.2169  -35.2642    2.0859 H   0  0  0  0  0  0  0  0  0  0  0  0
   -0.8702  -35.6186    4.5511 H   0  0  0  0  0  0  0  0  0  0  0  0
   -2.3519  -34.3326    6.0896 H   0  0  0  0  0  0  0  0  0  0  0  0
   -4.1452  -28.3877    5.1241 H   0  0  0  0  0  0  0  0  0  0  0  0
   -5.3580  -27.1684    3.3730 H   0  0  0  0  0  0  0  0  0  0  0  0
   -6.6738  -28.4198    1.6626 H   0  0  0  0  0  0  0  0  0  0  0  0
   -6.3399  -30.9127    1.5556 H   0  0  0  0  0  0  0  0  0  0  0  0
   -6.0637  -28.7514    6.0549 H   0  0  0  0  0  0  0  0  0  0  0  0
   -5.9171  -32.0366    3.7761 H   0  0  0  0  0  0  0  0  0  0  0  0
   -7.7772  -29.2272    9.0851 H   0  0  0  0  0  0  0  0  0  0  0  0
   -8.6985  -28.6549    7.6532 H   0  0  0  0  0  0  0  0  0  0  0  0
   -6.9900  -26.9161    7.2158 H   0  0  0  0  0  0  0  0  0  0  0  0
   -6.0869  -27.4057    8.6894 H   0  0  0  0  0  0  0  0  0  0  0  0
   -8.9221  -26.6178    8.7644 H   0  0  0  0  0  0  0  0  0  0  0  0
  1 26  1  0  0  0  0
  2  3  1  0  0  0  0
  2 15  1  0  0  0  0
  3  4  2  0  0  0  0
  3  8  1  0  0  0  0
  4  5  1  0  0  0  0
  4 27  1  0  0  0  0
  5  6  2  0  0  0  0
  5 28  1  0  0  0  0
  6 29  1  0  0  0  0
  7  6  1  0  0  0  0
  7 30  1  0  0  0  0
  8  7  2  0  0  0  0
  8 31  1  0  0  0  0
  9 10  2  0  0  0  0
  9 32  1  0  0  0  0
 10 11  1  0  0  0  0
 10 33  1  0  0  0  0
 11 34  1  0  0  0  0
 12 11  2  0  0  0  0
 12 35  1  0  0  0  0
 13  1  2  0  0  0  0
 14 13  1  0  0  0  0
 14 15  1  0  0  0  0
 16 14  2  0  0  0  0
 16 18  1  0  0  0  0
 17 24  1  0  0  0  0
 17 36  1  0  0  0  0
 18 17  1  0  0  0  0
 18 19  2  0  0  0  0
 19  1  1  0  0  0  0
 20 12  1  0  0  0  0
 20 37  1  0  0  0  0
 21  2  2  0  0  0  0
 21 16  1  0  0  0  0
 21 22  1  0  0  0  0
 22  9  1  0  0  0  0
 22 20  2  0  0  0  0
 23 25  1  0  0  0  0
 23 38  1  0  0  0  0
 23 39  1  0  0  0  0
 24 23  1  0  0  0  0
 24 40  1  0  0  0  0
 24 41  1  0  0  0  0
 25 42  1  0  0  0  0
M  END
