3kaf_ligand
 OpenBabel08222323343D

 40 43  0  0  1  0  0  0  0  0999 V2000
   39.4250  -18.6440   13.8430 C   0  0  0  0  0  0  0  0  0  0  0  0
   39.5920  -20.0110   13.6630 C   0  0  0  0  0  0  0  0  0  0  0  0
   39.3950  -20.5720   12.3980 C   0  0  0  0  0  0  0  0  0  0  0  0
   39.0440  -19.8190   11.2720 C   0  0  0  0  0  0  0  0  0  0  0  0
   38.8480  -16.5370   12.6120 N   0  0  0  0  0  0  0  0  0  0  0  0
   39.0750  -17.8420   12.7620 C   0  0  0  0  0  0  0  0  0  0  0  0
   38.8810  -18.4580   11.4310 C   0  0  0  0  0  0  0  0  0  0  0  0
   38.5540  -17.4610   10.6150 N   0  0  0  0  0  0  0  0  0  0  0  0
   38.5370  -16.3020   11.3270 C   0  0  0  0  0  0  0  0  0  0  0  0
   38.2230  -14.9440   10.7320 C   0  0  0  0  0  0  0  0  0  0  0  0
   39.4590  -14.0650   10.4470 C   0  0  2  0  0  0  0  0  0  0  0  0
   38.9880  -12.7680    9.8200 C   0  0  0  0  0  0  0  0  0  0  0  0
   40.5630  -14.6250    9.6610 N   0  0  0  0  0  0  0  0  0  0  0  0
   38.7250  -12.7230    8.5820 O   0  5  0  0  0  0  0  0  0  0  0  0
   38.8700  -11.7700   10.5820 O   0  0  0  0  0  0  0  0  0  0  0  0
   40.8110  -15.8950    9.2800 C   0  0  0  0  0  0  0  0  0  0  0  0
   40.5640  -16.2580    7.8460 C   0  0  0  0  0  0  0  0  0  0  0  0
   41.2420  -16.7450   10.0490 O   0  0  0  0  0  0  0  0  0  0  0  0
   40.0610  -15.4570    6.7990 C   0  0  0  0  0  0  0  0  0  0  0  0
   40.9320  -17.9190    7.3540 S   0  0  0  0  0  0  0  0  0  0  0  0
   40.4510  -17.6430    5.7510 C   0  0  0  0  0  0  0  0  0  0  0  0
   39.9910  -16.2320    5.5810 C   0  0  0  0  0  0  0  0  0  0  0  0
   39.5440  -15.7990    4.3260 C   0  0  0  0  0  0  0  0  0  0  0  0
   39.5440  -16.7200    3.2730 C   0  0  0  0  0  0  0  0  0  0  0  0
   39.9870  -18.0550    3.4450 C   0  0  0  0  0  0  0  0  0  0  0  0
   40.4550  -18.5410    4.6780 C   0  0  0  0  0  0  0  0  0  0  0  0
   39.5670  -18.2034   14.8232 H   0  0  0  0  0  0  0  0  0  0  0  0
   39.8738  -20.6400   14.4997 H   0  0  0  0  0  0  0  0  0  0  0  0
   39.5202  -21.6427   12.2837 H   0  0  0  0  0  0  0  0  0  0  0  0
   38.9046  -20.2898   10.3056 H   0  0  0  0  0  0  0  0  0  0  0  0
   38.9021  -15.8278   13.3570 H   0  0  0  0  0  0  0  0  0  0  0  0
   37.5727  -14.4034   11.4355 H   0  0  0  0  0  0  0  0  0  0  0  0
   37.6876  -15.1005    9.7839 H   0  0  0  0  0  0  0  0  0  0  0  0
   39.8893  -13.8240   11.4302 H   0  0  0  0  0  0  0  0  0  0  0  0
   41.2425  -13.9567    9.3582 H   0  0  0  0  0  0  0  0  0  0  0  0
   39.7694  -14.4121    6.8943 H   0  0  0  0  0  0  0  0  0  0  0  0
   39.2078  -14.7796    4.1751 H   0  0  0  0  0  0  0  0  0  0  0  0
   39.1949  -16.4031    2.2969 H   0  0  0  0  0  0  0  0  0  0  0  0
   39.9641  -18.7263    2.5941 H   0  0  0  0  0  0  0  0  0  0  0  0
   40.8021  -19.5616    4.7921 H   0  0  0  0  0  0  0  0  0  0  0  0
  1  2  2  0  0  0  0
  1  6  1  0  0  0  0
  1 27  1  0  0  0  0
  2  3  1  0  0  0  0
  2 28  1  0  0  0  0
  3  4  2  0  0  0  0
  3 29  1  0  0  0  0
  4  7  1  0  0  0  0
  4 30  1  0  0  0  0
  5  9  1  0  0  0  0
  5 31  1  0  0  0  0
  6  5  1  0  0  0  0
  6  7  2  0  0  0  0
  7  8  1  0  0  0  0
  8  9  2  0  0  0  0
  9 10  1  0  0  0  0
 10 11  1  0  0  0  0
 10 32  1  0  0  0  0
 10 33  1  0  0  0  0
 11 12  1  0  0  0  0
 11 13  1  0  0  0  0
 11 34  1  1  0  0  0
 12 14  1  0  0  0  0
 12 15  2  0  0  0  0
 13 16  1  0  0  0  0
 13 35  1  0  0  0  0
 16 17  1  0  0  0  0
 16 18  2  0  0  0  0
 17 19  2  0  0  0  0
 17 20  1  0  0  0  0
 19 22  1  0  0  0  0
 19 36  1  0  0  0  0
 20 21  1  0  0  0  0
 21 22  2  0  0  0  0
 21 26  1  0  0  0  0
 22 23  1  0  0  0  0
 23 24  2  0  0  0  0
 23 37  1  0  0  0  0
 24 25  1  0  0  0  0
 24 38  1  0  0  0  0
 25 26  2  0  0  0  0
 25 39  1  0  0  0  0
 26 40  1  0  0  0  0
M  CHG  1  14  -1
M  END
