3kag_ligand
 OpenBabel08222323343D

 37 39  0  0  1  0  0  0  0  0999 V2000
  -31.6940   24.2470   26.6670 C   0  0  0  0  0  0  0  0  0  0  0  0
  -31.6130   23.7120   25.3860 C   0  0  0  0  0  0  0  0  0  0  0  0
  -32.6650   23.8830   24.4930 C   0  0  0  0  0  0  0  0  0  0  0  0
  -32.8260   24.9520   27.0570 C   0  0  0  0  0  0  0  0  0  0  0  0
  -35.0510   25.7340   26.2590 N   0  0  0  0  0  0  0  0  0  0  0  0
  -33.8760   25.1210   26.1630 C   0  0  0  0  0  0  0  0  0  0  0  0
  -33.7960   24.5890   24.8860 C   0  0  0  0  0  0  0  0  0  0  0  0
  -34.9260   24.9010   24.2590 N   0  0  0  0  0  0  0  0  0  0  0  0
  -35.6910   25.5990   25.0970 C   0  0  0  0  0  0  0  0  0  0  0  0
  -37.0800   26.1570   24.7780 C   0  0  0  0  0  0  0  0  0  0  0  0
  -36.9790   27.5190   24.0880 C   0  0  2  0  0  0  0  0  0  0  0  0
  -38.3560   28.1850   24.0690 C   0  0  0  0  0  0  0  0  0  0  0  0
  -38.7620   28.8030   25.0510 O   0  5  0  0  0  0  0  0  0  0  0  0
  -39.0700   28.1090   23.0700 O   0  0  0  0  0  0  0  0  0  0  0  0
  -36.5020   27.3360   22.7100 N   0  0  0  0  0  0  0  0  0  0  0  0
  -35.2570   27.6330   22.3490 C   0  0  0  0  0  0  0  0  0  0  0  0
  -34.9330   27.3810   20.8750 C   0  0  0  0  0  0  0  0  0  0  0  0
  -34.4060   28.0780   23.1180 O   0  0  0  0  0  0  0  0  0  0  0  0
  -35.2560   28.2180   19.8250 C   0  0  0  0  0  0  0  0  0  0  0  0
  -34.7990   27.6450   18.6810 O   0  0  0  0  0  0  0  0  0  0  0  0
  -34.2010   26.4610   19.0650 C   0  0  0  0  0  0  0  0  0  0  0  0
  -34.2920   26.3200   20.3930 C   0  0  0  0  0  0  0  0  0  0  0  0
  -35.9980   29.5520   19.9320 C   0  0  0  0  0  0  0  0  0  0  0  0
  -30.8730   24.1139   27.3622 H   0  0  0  0  0  0  0  0  0  0  0  0
  -30.7295   23.1615   25.0835 H   0  0  0  0  0  0  0  0  0  0  0  0
  -32.6033   23.4672   23.4938 H   0  0  0  0  0  0  0  0  0  0  0  0
  -32.8897   25.3688   28.0556 H   0  0  0  0  0  0  0  0  0  0  0  0
  -35.1685   24.6466   23.2908 H   0  0  0  0  0  0  0  0  0  0  0  0
  -37.6462   26.2694   25.7143 H   0  0  0  0  0  0  0  0  0  0  0  0
  -37.6056   25.4554   24.1136 H   0  0  0  0  0  0  0  0  0  0  0  0
  -36.2717   28.1568   24.6384 H   0  0  0  0  0  0  0  0  0  0  0  0
  -37.1332   26.9770   22.0225 H   0  0  0  0  0  0  0  0  0  0  0  0
  -33.7273   25.7499   18.3899 H   0  0  0  0  0  0  0  0  0  0  0  0
  -33.9087   25.4839   20.9760 H   0  0  0  0  0  0  0  0  0  0  0  0
  -36.1097   29.9909   18.9295 H   0  0  0  0  0  0  0  0  0  0  0  0
  -35.4254   30.2398   20.5716 H   0  0  0  0  0  0  0  0  0  0  0  0
  -36.9923   29.3843   20.3717 H   0  0  0  0  0  0  0  0  0  0  0  0
  1  2  2  0  0  0  0
  1  4  1  0  0  0  0
  1 24  1  0  0  0  0
  2  3  1  0  0  0  0
  2 25  1  0  0  0  0
  3  7  2  0  0  0  0
  3 26  1  0  0  0  0
  4  6  2  0  0  0  0
  4 27  1  0  0  0  0
  5  9  2  0  0  0  0
  6  5  1  0  0  0  0
  6  7  1  0  0  0  0
  7  8  1  0  0  0  0
  8  9  1  0  0  0  0
  8 28  1  0  0  0  0
  9 10  1  0  0  0  0
 10 11  1  0  0  0  0
 10 29  1  0  0  0  0
 10 30  1  0  0  0  0
 11 12  1  0  0  0  0
 11 15  1  0  0  0  0
 11 31  1  1  0  0  0
 12 13  1  0  0  0  0
 12 14  2  0  0  0  0
 15 16  1  0  0  0  0
 15 32  1  0  0  0  0
 16 17  1  0  0  0  0
 16 18  2  0  0  0  0
 17 19  2  0  0  0  0
 17 22  1  0  0  0  0
 19 20  1  0  0  0  0
 19 23  1  0  0  0  0
 20 21  1  0  0  0  0
 21 22  2  0  0  0  0
 21 33  1  0  0  0  0
 22 34  1  0  0  0  0
 23 35  1  0  0  0  0
 23 36  1  0  0  0  0
 23 37  1  0  0  0  0
M  CHG  1  13  -1
M  END
