3kah_ligand
 OpenBabel08222323343D

 47 50  0  0  1  0  0  0  0  0999 V2000
   32.0150  -24.0450  -15.6130 C   0  0  0  0  0  0  0  0  0  0  0  0
   32.1730  -24.7840  -14.4460 C   0  0  0  0  0  0  0  0  0  0  0  0
   33.3600  -25.4680  -14.2110 C   0  0  0  0  0  0  0  0  0  0  0  0
   33.0430  -23.9890  -16.5460 C   0  0  0  0  0  0  0  0  0  0  0  0
   35.3530  -24.7970  -17.0060 N   0  0  0  0  0  0  0  0  0  0  0  0
   34.2290  -24.6740  -16.3090 C   0  0  0  0  0  0  0  0  0  0  0  0
   34.3870  -25.4110  -15.1460 C   0  0  0  0  0  0  0  0  0  0  0  0
   35.6000  -25.9510  -15.1850 N   0  0  0  0  0  0  0  0  0  0  0  0
   36.1900  -25.5760  -16.3200 C   0  0  0  0  0  0  0  0  0  0  0  0
   37.5980  -25.9760  -16.7640 C   0  0  0  0  0  0  0  0  0  0  0  0
   37.5500  -27.1330  -17.7640 C   0  0  2  0  0  0  0  0  0  0  0  0
   38.9740  -27.5070  -18.1810 C   0  0  0  0  0  0  0  0  0  0  0  0
   39.3330  -27.3840  -19.3510 O   0  5  0  0  0  0  0  0  0  0  0  0
   39.7750  -27.9340  -17.3500 O   0  0  0  0  0  0  0  0  0  0  0  0
   36.7820  -26.7260  -18.9490 N   0  0  0  0  0  0  0  0  0  0  0  0
   35.5200  -27.1020  -19.1330 C   0  0  0  0  0  0  0  0  0  0  0  0
   34.8740  -26.5870  -20.4210 C   0  0  0  0  0  0  0  0  0  0  0  0
   34.8900  -27.8080  -18.3480 O   0  0  0  0  0  0  0  0  0  0  0  0
   33.5760  -26.4220  -20.6240 N   0  0  0  0  0  0  0  0  0  0  0  0
   33.3790  -25.9940  -21.7610 N   0  0  0  0  0  0  0  0  0  0  0  0
   34.5610  -25.8550  -22.3710 C   0  0  0  0  0  0  0  0  0  0  0  0
   35.5170  -26.2310  -21.5220 C   0  0  0  0  0  0  0  0  0  0  0  0
   32.5180  -26.7100  -19.6290 C   0  0  0  0  0  0  0  0  0  0  0  0
   34.7590  -25.3960  -23.6680 C   0  0  0  0  0  0  0  0  0  0  0  0
   35.9150  -25.7400  -24.3580 C   0  0  0  0  0  0  0  0  0  0  0  0
   36.1120  -25.2820  -25.6560 C   0  0  0  0  0  0  0  0  0  0  0  0
   35.1530  -24.4780  -26.2620 C   0  0  0  0  0  0  0  0  0  0  0  0
   33.9970  -24.1340  -25.5720 C   0  0  0  0  0  0  0  0  0  0  0  0
   33.8000  -24.5930  -24.2740 C   0  0  0  0  0  0  0  0  0  0  0  0
   31.0888  -23.5120  -15.7951 H   0  0  0  0  0  0  0  0  0  0  0  0
   31.3701  -24.8268  -13.7190 H   0  0  0  0  0  0  0  0  0  0  0  0
   33.4844  -26.0442  -13.3013 H   0  0  0  0  0  0  0  0  0  0  0  0
   32.9205  -23.4128  -17.4560 H   0  0  0  0  0  0  0  0  0  0  0  0
   36.0140  -26.5562  -14.4617 H   0  0  0  0  0  0  0  0  0  0  0  0
   38.1785  -26.2863  -15.8827 H   0  0  0  0  0  0  0  0  0  0  0  0
   38.0850  -25.1110  -17.2380 H   0  0  0  0  0  0  0  0  0  0  0  0
   37.0658  -28.0023  -17.2951 H   0  0  0  0  0  0  0  0  0  0  0  0
   37.2216  -26.1491  -19.6374 H   0  0  0  0  0  0  0  0  0  0  0  0
   36.5920  -26.2428  -21.6959 H   0  0  0  0  0  0  0  0  0  0  0  0
   31.5337  -26.4825  -20.0642 H   0  0  0  0  0  0  0  0  0  0  0  0
   32.6762  -26.0886  -18.7352 H   0  0  0  0  0  0  0  0  0  0  0  0
   32.5580  -27.7729  -19.3484 H   0  0  0  0  0  0  0  0  0  0  0  0
   36.6632  -26.3653  -23.8844 H   0  0  0  0  0  0  0  0  0  0  0  0
   37.0129  -25.5516  -26.1953 H   0  0  0  0  0  0  0  0  0  0  0  0
   35.3073  -24.1194  -27.2733 H   0  0  0  0  0  0  0  0  0  0  0  0
   33.2490  -23.5081  -26.0452 H   0  0  0  0  0  0  0  0  0  0  0  0
   32.8986  -24.3245  -23.7350 H   0  0  0  0  0  0  0  0  0  0  0  0
  1  2  2  0  0  0  0
  1  4  1  0  0  0  0
  1 30  1  0  0  0  0
  2  3  1  0  0  0  0
  2 31  1  0  0  0  0
  3  7  2  0  0  0  0
  3 32  1  0  0  0  0
  4  6  2  0  0  0  0
  4 33  1  0  0  0  0
  5  9  2  0  0  0  0
  6  5  1  0  0  0  0
  6  7  1  0  0  0  0
  7  8  1  0  0  0  0
  8  9  1  0  0  0  0
  8 34  1  0  0  0  0
  9 10  1  0  0  0  0
 10 11  1  0  0  0  0
 10 35  1  0  0  0  0
 10 36  1  0  0  0  0
 11 12  1  0  0  0  0
 11 15  1  0  0  0  0
 11 37  1  1  0  0  0
 12 13  1  0  0  0  0
 12 14  2  0  0  0  0
 15 16  1  0  0  0  0
 15 38  1  0  0  0  0
 16 17  1  0  0  0  0
 16 18  2  0  0  0  0
 17 19  1  0  0  0  0
 17 22  2  0  0  0  0
 19 20  1  0  0  0  0
 19 23  1  0  0  0  0
 20 21  2  0  0  0  0
 21 22  1  0  0  0  0
 21 24  1  0  0  0  0
 22 39  1  0  0  0  0
 23 40  1  0  0  0  0
 23 41  1  0  0  0  0
 23 42  1  0  0  0  0
 24 25  2  0  0  0  0
 24 29  1  0  0  0  0
 25 26  1  0  0  0  0
 25 43  1  0  0  0  0
 26 27  2  0  0  0  0
 26 44  1  0  0  0  0
 27 28  1  0  0  0  0
 27 45  1  0  0  0  0
 28 29  2  0  0  0  0
 28 46  1  0  0  0  0
 29 47  1  0  0  0  0
M  CHG  1  13  -1
M  END
