3kdu_ligand
 OpenBabel08222323343D

 61 64  0  0  0  0  0  0  0  0999 V2000
   27.6340   48.4050   16.6830 C   0  0  0  0  0  0  0  0  0  0  0  0
   28.3160   47.2920   17.4400 C   0  0  0  0  0  0  0  0  0  0  0  0
   28.0440   45.9620   17.1270 C   0  0  0  0  0  0  0  0  0  0  0  0
   28.6780   44.9410   17.8390 C   0  0  0  0  0  0  0  0  0  0  0  0
   29.5960   45.2270   18.8560 C   0  0  0  0  0  0  0  0  0  0  0  0
   29.8470   46.5680   19.1520 C   0  0  0  0  0  0  0  0  0  0  0  0
   29.2170   47.6020   18.4550 C   0  0  0  0  0  0  0  0  0  0  0  0
   30.2080   44.2640   19.5560 O   0  0  0  0  0  0  0  0  0  0  0  0
   30.9210   43.2700   19.0120 C   0  0  0  0  0  0  0  0  0  0  0  0
   30.6620   42.8660   17.8900 O   0  0  0  0  0  0  0  0  0  0  0  0
   31.9280   42.6760   19.6680 N   0  0  0  0  0  0  0  0  0  0  0  0
   32.2230   43.0200   21.0660 C   0  0  0  0  0  0  0  0  0  0  0  0
   33.5290   43.7690   21.1140 C   0  0  0  0  0  0  0  0  0  0  0  0
   34.6960   43.1210   21.5160 C   0  0  0  0  0  0  0  0  0  0  0  0
   35.9020   43.8180   21.5310 C   0  0  0  0  0  0  0  0  0  0  0  0
   35.9270   45.1550   21.1510 C   0  0  0  0  0  0  0  0  0  0  0  0
   34.7570   45.8000   20.7450 C   0  0  0  0  0  0  0  0  0  0  0  0
   33.5550   45.1060   20.7240 C   0  0  0  0  0  0  0  0  0  0  0  0
   34.7660   47.0780   20.3700 O   0  0  0  0  0  0  0  0  0  0  0  0
   35.8380   47.5700   19.5370 C   0  0  0  0  0  0  0  0  0  0  0  0
   35.3840   48.6360   18.5690 C   0  0  0  0  0  0  0  0  0  0  0  0
   34.2630   49.4830   18.5980 C   0  0  0  0  0  0  0  0  0  0  0  0
   34.3290   50.2150   17.5370 O   0  0  0  0  0  0  0  0  0  0  0  0
   35.3790   49.9150   16.8360 C   0  0  0  0  0  0  0  0  0  0  0  0
   36.0670   48.9370   17.4440 N   0  0  0  0  0  0  0  0  0  0  0  0
   35.7530   50.5990   15.5770 C   0  0  0  0  0  0  0  0  0  0  0  0
   36.9770   50.3440   14.9600 C   0  0  0  0  0  0  0  0  0  0  0  0
   37.2970   51.0300   13.7880 C   0  0  0  0  0  0  0  0  0  0  0  0
   36.3870   51.9490   13.2610 C   0  0  0  0  0  0  0  0  0  0  0  0
   35.1700   52.2010   13.8870 C   0  0  0  0  0  0  0  0  0  0  0  0
   34.8520   51.5240   15.0560 C   0  0  0  0  0  0  0  0  0  0  0  0
   36.7660   52.8120   11.8070 Cl  0  0  0  0  0  0  0  0  0  0  0  0
   33.1360   49.5830   19.6090 C   0  0  0  0  0  0  0  0  0  0  0  0
   32.7320   41.6720   18.9520 C   0  0  0  0  0  0  0  0  0  0  0  0
   32.3940   40.2470   19.3450 C   0  0  0  0  0  0  0  0  0  0  0  0
   33.2020   39.3410   19.1780 O   0  5  0  0  0  0  0  0  0  0  0  0
   31.2110   39.9470   19.8710 O   0  0  0  0  0  0  0  0  0  0  0  0
   26.9626   47.9752   15.9250 H   0  0  0  0  0  0  0  0  0  0  0  0
   28.3920   49.0306   16.1889 H   0  0  0  0  0  0  0  0  0  0  0  0
   27.0501   49.0206   17.3831 H   0  0  0  0  0  0  0  0  0  0  0  0
   27.3441   45.7207   16.3352 H   0  0  0  0  0  0  0  0  0  0  0  0
   28.4548   43.9077   17.5993 H   0  0  0  0  0  0  0  0  0  0  0  0
   30.5478   46.8130   19.9419 H   0  0  0  0  0  0  0  0  0  0  0  0
   29.4278   48.6362   18.7023 H   0  0  0  0  0  0  0  0  0  0  0  0
   32.3015   42.1006   21.6648 H   0  0  0  0  0  0  0  0  0  0  0  0
   31.4185   43.6527   21.4692 H   0  0  0  0  0  0  0  0  0  0  0  0
   34.6651   42.0797   21.8155 H   0  0  0  0  0  0  0  0  0  0  0  0
   36.8154   43.3209   21.8371 H   0  0  0  0  0  0  0  0  0  0  0  0
   36.8629   45.7016   21.1700 H   0  0  0  0  0  0  0  0  0  0  0  0
   32.6440   45.6005   20.4067 H   0  0  0  0  0  0  0  0  0  0  0  0
   36.2524   46.7278   18.9634 H   0  0  0  0  0  0  0  0  0  0  0  0
   36.6203   47.9931   20.1842 H   0  0  0  0  0  0  0  0  0  0  0  0
   37.6685   49.6248   15.3838 H   0  0  0  0  0  0  0  0  0  0  0  0
   38.2436   50.8513   13.2909 H   0  0  0  0  0  0  0  0  0  0  0  0
   34.4766   52.9196   13.4653 H   0  0  0  0  0  0  0  0  0  0  0  0
   33.9107   51.7136   15.5590 H   0  0  0  0  0  0  0  0  0  0  0  0
   32.4318   50.3682   19.2966 H   0  0  0  0  0  0  0  0  0  0  0  0
   33.5505   49.8340   20.5965 H   0  0  0  0  0  0  0  0  0  0  0  0
   32.6087   48.6194   19.6668 H   0  0  0  0  0  0  0  0  0  0  0  0
   33.7945   41.8529   19.1721 H   0  0  0  0  0  0  0  0  0  0  0  0
   32.5562   41.7882   17.8724 H   0  0  0  0  0  0  0  0  0  0  0  0
  1  2  1  0  0  0  0
  1 38  1  0  0  0  0
  1 39  1  0  0  0  0
  1 40  1  0  0  0  0
  2  3  2  0  0  0  0
  2  7  1  0  0  0  0
  3  4  1  0  0  0  0
  3 41  1  0  0  0  0
  4  5  2  0  0  0  0
  4 42  1  0  0  0  0
  5  6  1  0  0  0  0
  5  8  1  0  0  0  0
  6  7  2  0  0  0  0
  6 43  1  0  0  0  0
  7 44  1  0  0  0  0
  8  9  1  0  0  0  0
  9 10  2  0  0  0  0
  9 11  1  0  0  0  0
 11 12  1  0  0  0  0
 11 34  1  0  0  0  0
 12 13  1  0  0  0  0
 12 45  1  0  0  0  0
 12 46  1  0  0  0  0
 13 14  2  0  0  0  0
 13 18  1  0  0  0  0
 14 15  1  0  0  0  0
 14 47  1  0  0  0  0
 15 16  2  0  0  0  0
 15 48  1  0  0  0  0
 16 17  1  0  0  0  0
 16 49  1  0  0  0  0
 17 18  2  0  0  0  0
 17 19  1  0  0  0  0
 18 50  1  0  0  0  0
 19 20  1  0  0  0  0
 20 21  1  0  0  0  0
 20 51  1  0  0  0  0
 20 52  1  0  0  0  0
 21 22  2  0  0  0  0
 21 25  1  0  0  0  0
 22 23  1  0  0  0  0
 22 33  1  0  0  0  0
 23 24  1  0  0  0  0
 24 25  2  0  0  0  0
 24 26  1  0  0  0  0
 26 27  2  0  0  0  0
 26 31  1  0  0  0  0
 27 28  1  0  0  0  0
 27 53  1  0  0  0  0
 28 29  2  0  0  0  0
 28 54  1  0  0  0  0
 29 30  1  0  0  0  0
 29 32  1  0  0  0  0
 30 31  2  0  0  0  0
 30 55  1  0  0  0  0
 31 56  1  0  0  0  0
 33 57  1  0  0  0  0
 33 58  1  0  0  0  0
 33 59  1  0  0  0  0
 34 35  1  0  0  0  0
 34 60  1  0  0  0  0
 34 61  1  0  0  0  0
 35 36  1  0  0  0  0
 35 37  2  0  0  0  0
M  CHG  1  36  -1
M  END
