3kfn_ligand
 OpenBabel08222323343D

124127  0  0  1  0  0  0  0  0999 V2000
   15.4390   21.4320   17.2840 N   0  0  0  0  0  0  0  0  0  0  0  0
   14.5350   20.7770   16.3060 C   0  0  2  0  0  0  0  0  0  0  0  0
   16.9730   24.2050   17.7580 N   0  0  0  0  0  0  0  0  0  0  0  0
   14.2880   19.5050   17.0590 C   0  0  0  0  0  0  0  0  0  0  0  0
   15.3400   20.2110   15.1250 C   0  0  0  0  0  0  0  0  0  0  0  0
   15.9660   21.3950   14.4540 C   0  0  0  0  0  0  0  0  0  0  0  0
   15.0880   22.2730   13.8240 C   0  0  0  0  0  0  0  0  0  0  0  0
   14.5860   18.5560   16.3840 O   0  0  0  0  0  0  0  0  0  0  0  0
   15.6120   23.4040   13.2100 C   0  0  0  0  0  0  0  0  0  0  0  0
   16.9800   23.5990   13.2590 C   0  0  0  0  0  0  0  0  0  0  0  0
   13.9570   23.0910   17.3340 O   0  0  0  0  0  0  0  0  0  0  0  0
   17.8570   22.7210   13.9060 C   0  0  0  0  0  0  0  0  0  0  0  0
   17.3490   21.5860   14.5280 C   0  0  0  0  0  0  0  0  0  0  0  0
   16.1170   23.3510   18.6010 C   0  0  2  0  0  0  0  0  0  0  0  0
   15.1390   22.6130   17.6980 C   0  0  0  0  0  0  0  0  0  0  0  0
   15.5090   24.1020   19.8030 C   0  0  0  0  0  0  0  0  0  0  0  0
   18.4480   27.4890   10.5540 C   0  0  0  0  0  0  0  0  0  0  0  0
   17.3260   27.5620    9.7360 C   0  0  0  0  0  0  0  0  0  0  0  0
   18.8900   25.2110   15.6500 N   0  0  0  0  0  0  0  0  0  0  0  0
   16.0350   27.5980   10.2740 C   0  0  0  0  0  0  0  0  0  0  0  0
   15.8950   27.5590   11.6580 C   0  0  0  0  0  0  0  0  0  0  0  0
   17.0290   27.4970   12.4680 C   0  0  0  0  0  0  0  0  0  0  0  0
   19.0470   23.7360   18.6950 O   0  0  0  0  0  0  0  0  0  0  0  0
   18.9100   25.3110   16.9250 C   0  0  0  0  0  0  0  0  0  0  0  0
   18.2350   24.3190   17.8270 C   0  0  0  0  0  0  0  0  0  0  0  0
   19.6020   26.4200   17.6700 C   0  0  0  0  0  0  0  0  0  0  0  0
    4.7810   17.5900   19.8240 O   0  0  0  0  0  0  0  0  0  0  0  0
    5.2680   18.2120   18.9020 C   0  0  0  0  0  0  0  0  0  0  0  0
    4.8270   19.4680   18.6870 O   0  0  0  0  0  0  0  0  0  0  0  0
    4.0070   20.1010   19.7100 C   0  0  0  0  0  0  0  0  0  0  0  0
    3.7130   21.5740   19.6040 C   0  0  0  0  0  0  0  0  0  0  0  0
    2.8230   22.1580   20.4880 C   0  0  0  0  0  0  0  0  0  0  0  0
    2.5910   23.5130   20.3850 C   0  0  0  0  0  0  0  0  0  0  0  0
    3.1910   24.2980   19.4000 C   0  0  0  0  0  0  0  0  0  0  0  0
    4.0590   23.7060   18.5120 C   0  0  0  0  0  0  0  0  0  0  0  0
    4.3150   22.3570   18.6370 C   0  0  0  0  0  0  0  0  0  0  0  0
    6.2350   17.6730   18.1600 N   0  0  0  0  0  0  0  0  0  0  0  0
    6.5100   16.8020   17.2810 C   0  0  0  0  0  0  0  0  0  0  0  0
    5.4670   15.9280   16.6210 C   0  0  0  0  0  0  0  0  0  0  0  0
    7.9640   16.7810   17.0270 C   0  0  0  0  0  0  0  0  0  0  0  0
    8.5970   15.6450   17.3300 O   0  0  0  0  0  0  0  0  0  0  0  0
    8.5860   17.8390   16.5990 N   0  0  0  0  0  0  0  0  0  0  0  0
   10.0080   17.6790   16.3650 C   0  0  1  0  0  0  0  0  0  0  0  0
   10.2860   17.6270   14.8810 C   0  0  0  0  0  0  0  0  0  0  0  0
   11.7870   17.5690   14.6320 C   0  0  0  0  0  0  0  0  0  0  0  0
    9.5120   16.5410   14.1170 C   0  0  0  0  0  0  0  0  0  0  0  0
   10.7270   18.8230   17.0960 C   0  0  0  0  0  0  0  0  0  0  0  0
   10.3260   20.0410   16.7740 O   0  0  0  0  0  0  0  0  0  0  0  0
   11.6450   18.6110   17.9530 N   0  0  0  0  0  0  0  0  0  0  0  0
   12.3620   19.6940   18.6190 C   0  0  1  0  0  0  0  0  0  0  0  0
   12.0450   19.9120   20.0780 C   0  0  0  0  0  0  0  0  0  0  0  0
   10.5960   20.0040   20.4210 C   0  0  0  0  0  0  0  0  0  0  0  0
    9.9560   18.8600   20.8930 C   0  0  0  0  0  0  0  0  0  0  0  0
    8.6070   19.0370   21.1810 C   0  0  0  0  0  0  0  0  0  0  0  0
    7.9400   20.2490   21.0330 C   0  0  0  0  0  0  0  0  0  0  0  0
    8.5950   21.3830   20.5540 C   0  0  0  0  0  0  0  0  0  0  0  0
    9.9320   21.2150   20.2630 C   0  0  0  0  0  0  0  0  0  0  0  0
   13.8100   19.3370   18.4650 C   0  0  1  0  0  0  0  0  0  0  0  0
   14.3440   18.0580   18.8660 O   0  0  0  0  0  0  0  0  0  0  0  0
   16.5300   24.7330   20.7590 C   0  0  0  0  0  0  0  0  0  0  0  0
   14.4310   23.3470   20.5770 C   0  0  0  0  0  0  0  0  0  0  0  0
   19.6140   25.8460   14.6870 C   0  0  0  0  0  0  0  0  0  0  0  0
   20.6410   25.4050   14.1760 O   0  0  0  0  0  0  0  0  0  0  0  0
   19.2560   27.0520   14.2080 O   0  0  0  0  0  0  0  0  0  0  0  0
   19.5440   27.3830   12.8170 C   0  0  0  0  0  0  0  0  0  0  0  0
   18.3140   27.4590   11.9390 C   0  0  0  0  0  0  0  0  0  0  0  0
   16.2609   20.9671   17.6131 H   0  0  0  0  0  0  0  0  0  0  0  0
   13.6559   21.3724   16.0186 H   0  0  0  0  0  0  0  0  0  0  0  0
   16.5113   24.7513   17.0591 H   0  0  0  0  0  0  0  0  0  0  0  0
   14.6750   19.6820   14.4265 H   0  0  0  0  0  0  0  0  0  0  0  0
   16.1164   19.5206   15.4863 H   0  0  0  0  0  0  0  0  0  0  0  0
   14.0216   22.0789   13.8128 H   0  0  0  0  0  0  0  0  0  0  0  0
   14.9660   24.1140   12.7064 H   0  0  0  0  0  0  0  0  0  0  0  0
   17.3935   24.4750   12.7724 H   0  0  0  0  0  0  0  0  0  0  0  0
   18.9217   22.9238   13.9220 H   0  0  0  0  0  0  0  0  0  0  0  0
   17.9933   20.8840   15.0447 H   0  0  0  0  0  0  0  0  0  0  0  0
   16.7688   22.5814   19.0402 H   0  0  0  0  0  0  0  0  0  0  0  0
   14.9834   24.9539   19.3470 H   0  0  0  0  0  0  0  0  0  0  0  0
   19.4359   27.4552   10.1090 H   0  0  0  0  0  0  0  0  0  0  0  0
   17.4541   27.5916    8.6600 H   0  0  0  0  0  0  0  0  0  0  0  0
   15.1656   27.6548    9.6290 H   0  0  0  0  0  0  0  0  0  0  0  0
   14.9077   27.5767   12.1053 H   0  0  0  0  0  0  0  0  0  0  0  0
   16.9042   27.4778   13.5446 H   0  0  0  0  0  0  0  0  0  0  0  0
   19.4691   26.2734   18.7521 H   0  0  0  0  0  0  0  0  0  0  0  0
   19.1678   27.3866   17.3749 H   0  0  0  0  0  0  0  0  0  0  0  0
   20.6750   26.4107   17.4278 H   0  0  0  0  0  0  0  0  0  0  0  0
    4.5143   19.9424   20.6731 H   0  0  0  0  0  0  0  0  0  0  0  0
    3.0388   19.5790   19.7152 H   0  0  0  0  0  0  0  0  0  0  0  0
    2.3204   21.5645   21.2431 H   0  0  0  0  0  0  0  0  0  0  0  0
    1.9196   23.9846   21.0934 H   0  0  0  0  0  0  0  0  0  0  0  0
    2.9764   25.3586   19.3354 H   0  0  0  0  0  0  0  0  0  0  0  0
    4.5322   24.2884   17.7297 H   0  0  0  0  0  0  0  0  0  0  0  0
    5.0146   21.8930   17.9512 H   0  0  0  0  0  0  0  0  0  0  0  0
    5.9547   15.2576   15.8980 H   0  0  0  0  0  0  0  0  0  0  0  0
    4.7354   16.5614   16.0980 H   0  0  0  0  0  0  0  0  0  0  0  0
    4.9524   15.3292   17.3869 H   0  0  0  0  0  0  0  0  0  0  0  0
    8.1146   18.7067   16.4414 H   0  0  0  0  0  0  0  0  0  0  0  0
   10.3402   16.7263   16.8031 H   0  0  0  0  0  0  0  0  0  0  0  0
    9.9364   18.5854   14.4697 H   0  0  0  0  0  0  0  0  0  0  0  0
   11.9779   17.5315   13.5493 H   0  0  0  0  0  0  0  0  0  0  0  0
   12.2034   16.6695   15.1091 H   0  0  0  0  0  0  0  0  0  0  0  0
   12.2642   18.4641   15.0576 H   0  0  0  0  0  0  0  0  0  0  0  0
    8.4380   16.6335   14.3360 H   0  0  0  0  0  0  0  0  0  0  0  0
    9.8661   15.5483   14.4317 H   0  0  0  0  0  0  0  0  0  0  0  0
    9.6778   16.6640   13.0366 H   0  0  0  0  0  0  0  0  0  0  0  0
   11.8837   17.6664   18.1782 H   0  0  0  0  0  0  0  0  0  0  0  0
   12.1484   20.6336   18.0885 H   0  0  0  0  0  0  0  0  0  0  0  0
   12.5262   20.8502   20.3914 H   0  0  0  0  0  0  0  0  0  0  0  0
   12.4735   19.0728   20.6455 H   0  0  0  0  0  0  0  0  0  0  0  0
   10.4661   17.9126   21.0246 H   0  0  0  0  0  0  0  0  0  0  0  0
    8.0440   18.1834   21.5407 H   0  0  0  0  0  0  0  0  0  0  0  0
    6.8902   20.3130   21.2953 H   0  0  0  0  0  0  0  0  0  0  0  0
    8.0877   22.3315   20.4197 H   0  0  0  0  0  0  0  0  0  0  0  0
   10.4915   22.0669   19.8938 H   0  0  0  0  0  0  0  0  0  0  0  0
   14.3332   20.0799   19.0849 H   0  0  0  0  0  0  0  0  0  0  0  0
   14.1980   17.9328   19.7963 H   0  0  0  0  0  0  0  0  0  0  0  0
   16.0000   25.2419   21.5776 H   0  0  0  0  0  0  0  0  0  0  0  0
   17.1440   25.4624   20.2104 H   0  0  0  0  0  0  0  0  0  0  0  0
   17.1779   23.9471   21.1744 H   0  0  0  0  0  0  0  0  0  0  0  0
   13.7134   22.9053   19.8699 H   0  0  0  0  0  0  0  0  0  0  0  0
   13.9047   24.0432   21.2465 H   0  0  0  0  0  0  0  0  0  0  0  0
   14.8982   22.5485   21.1721 H   0  0  0  0  0  0  0  0  0  0  0  0
   20.2141   26.6121   12.4088 H   0  0  0  0  0  0  0  0  0  0  0  0
   20.0495   28.3596   12.7906 H   0  0  0  0  0  0  0  0  0  0  0  0
  1  2  1  0  0  0  0
  1 67  1  0  0  0  0
  2  4  1  0  0  0  0
  2  5  1  0  0  0  0
  2 68  1  6  0  0  0
  3 14  1  0  0  0  0
  3 69  1  0  0  0  0
  4  8  2  0  0  0  0
  4 58  1  0  0  0  0
  5  6  1  0  0  0  0
  5 70  1  0  0  0  0
  5 71  1  0  0  0  0
  6  7  2  0  0  0  0
  6 13  1  0  0  0  0
  7  9  1  0  0  0  0
  7 72  1  0  0  0  0
  9 10  2  0  0  0  0
  9 73  1  0  0  0  0
 10 74  1  0  0  0  0
 12 10  1  0  0  0  0
 12 75  1  0  0  0  0
 13 12  2  0  0  0  0
 13 76  1  0  0  0  0
 14 15  1  0  0  0  0
 14 16  1  0  0  0  0
 14 77  1  1  0  0  0
 15  1  1  0  0  0  0
 15 11  2  0  0  0  0
 16 60  1  0  0  0  0
 16 61  1  0  0  0  0
 16 78  1  0  0  0  0
 17 18  2  0  0  0  0
 17 79  1  0  0  0  0
 18 20  1  0  0  0  0
 18 80  1  0  0  0  0
 19 24  2  0  0  0  0
 20 81  1  0  0  0  0
 21 20  2  0  0  0  0
 21 82  1  0  0  0  0
 22 21  1  0  0  0  0
 22 83  1  0  0  0  0
 24 25  1  0  0  0  0
 24 26  1  0  0  0  0
 25  3  1  0  0  0  0
 25 23  2  0  0  0  0
 26 84  1  0  0  0  0
 26 85  1  0  0  0  0
 26 86  1  0  0  0  0
 28 27  2  0  0  0  0
 28 29  1  0  0  0  0
 29 30  1  0  0  0  0
 30 31  1  0  0  0  0
 30 87  1  0  0  0  0
 30 88  1  0  0  0  0
 31 32  2  0  0  0  0
 31 36  1  0  0  0  0
 32 33  1  0  0  0  0
 32 89  1  0  0  0  0
 33 34  2  0  0  0  0
 33 90  1  0  0  0  0
 34 91  1  0  0  0  0
 35 34  1  0  0  0  0
 35 92  1  0  0  0  0
 36 35  2  0  0  0  0
 36 93  1  0  0  0  0
 37 28  1  0  0  0  0
 38 37  2  0  0  0  0
 38 39  1  0  0  0  0
 39 94  1  0  0  0  0
 39 95  1  0  0  0  0
 39 96  1  0  0  0  0
 40 38  1  0  0  0  0
 40 41  2  0  0  0  0
 42 40  1  0  0  0  0
 42 97  1  0  0  0  0
 43 42  1  0  0  0  0
 43 44  1  0  0  0  0
 43 98  1  1  0  0  0
 44 45  1  0  0  0  0
 44 46  1  0  0  0  0
 44 99  1  0  0  0  0
 45100  1  0  0  0  0
 45101  1  0  0  0  0
 45102  1  0  0  0  0
 46103  1  0  0  0  0
 46104  1  0  0  0  0
 46105  1  0  0  0  0
 47 43  1  0  0  0  0
 47 48  2  0  0  0  0
 49 47  1  0  0  0  0
 49106  1  0  0  0  0
 50 49  1  0  0  0  0
 50 51  1  0  0  0  0
 50107  1  6  0  0  0
 51 52  1  0  0  0  0
 51108  1  0  0  0  0
 51109  1  0  0  0  0
 52 53  2  0  0  0  0
 52 57  1  0  0  0  0
 53 54  1  0  0  0  0
 53110  1  0  0  0  0
 54 55  2  0  0  0  0
 54111  1  0  0  0  0
 55112  1  0  0  0  0
 56 55  1  0  0  0  0
 56113  1  0  0  0  0
 57 56  2  0  0  0  0
 57114  1  0  0  0  0
 58 50  1  0  0  0  0
 58 59  1  0  0  0  0
 58115  1  1  0  0  0
 59116  1  0  0  0  0
 60117  1  0  0  0  0
 60118  1  0  0  0  0
 60119  1  0  0  0  0
 61120  1  0  0  0  0
 61121  1  0  0  0  0
 61122  1  0  0  0  0
 62 19  1  0  0  0  0
 62 63  2  0  0  0  0
 64 62  1  0  0  0  0
 65 64  1  0  0  0  0
 65 66  1  0  0  0  0
 65123  1  0  0  0  0
 65124  1  0  0  0  0
 66 17  1  0  0  0  0
 66 22  2  0  0  0  0
M  END
