3khv_ligand
 OpenBabel08222323343D

 22 22  0  0  0  0  0  0  0  0999 V2000
  -31.8330   89.8330  -10.8480 C   0  0  0  0  0  0  0  0  0  0  0  0
  -27.0910   85.9170  -12.6690 N   0  3  0  0  0  0  0  0  0  0  0  0
  -31.8060   90.4570  -11.9290 O   0  0  0  0  0  0  0  0  0  0  0  0
  -30.7840   88.9910  -11.1730 C   0  0  0  0  0  0  0  0  0  0  0  0
  -30.0510   88.5180  -10.1830 C   0  0  0  0  0  0  0  0  0  0  0  0
  -29.0160   87.7450  -10.2350 C   0  0  0  0  0  0  0  0  0  0  0  0
  -28.6230   87.4110  -11.4140 C   0  0  0  0  0  0  0  0  0  0  0  0
  -29.3270   87.8610  -12.4710 C   0  0  0  0  0  0  0  0  0  0  0  0
  -30.3950   88.6880  -12.4000 C   0  0  0  0  0  0  0  0  0  0  0  0
  -27.4590   86.4960  -11.4890 C   0  0  0  0  0  0  0  0  0  0  0  0
  -32.7795   89.2969  -10.6848 H   0  0  0  0  0  0  0  0  0  0  0  0
  -31.6182   90.4710   -9.9781 H   0  0  0  0  0  0  0  0  0  0  0  0
  -26.2834   85.3328  -12.5191 H   0  0  0  0  0  0  0  0  0  0  0  0
  -26.8664   86.6349  -13.3399 H   0  0  0  0  0  0  0  0  0  0  0  0
  -27.8514   85.3557  -13.0194 H   0  0  0  0  0  0  0  0  0  0  0  0
  -32.4825   91.1240  -11.9253 H   0  0  0  0  0  0  0  0  0  0  0  0
  -30.3593   88.8193   -9.1884 H   0  0  0  0  0  0  0  0  0  0  0  0
  -28.5104   87.3995   -9.3406 H   0  0  0  0  0  0  0  0  0  0  0  0
  -29.0128   87.5346  -13.4558 H   0  0  0  0  0  0  0  0  0  0  0  0
  -30.8941   89.0731  -13.2819 H   0  0  0  0  0  0  0  0  0  0  0  0
  -26.5884   87.0693  -11.1378 H   0  0  0  0  0  0  0  0  0  0  0  0
  -27.6633   85.6733  -10.7880 H   0  0  0  0  0  0  0  0  0  0  0  0
  1  3  1  0  0  0  0
  1 11  1  0  0  0  0
  1 12  1  0  0  0  0
  2 13  1  0  0  0  0
  2 14  1  0  0  0  0
  2 15  1  0  0  0  0
  3 16  1  0  0  0  0
  4  1  1  0  0  0  0
  4  9  1  0  0  0  0
  5  4  2  0  0  0  0
  5 17  1  0  0  0  0
  6  5  1  0  0  0  0
  6 18  1  0  0  0  0
  7  6  2  0  0  0  0
  7  8  1  0  0  0  0
  7 10  1  0  0  0  0
  8  9  2  0  0  0  0
  8 19  1  0  0  0  0
  9 20  1  0  0  0  0
 10  2  1  0  0  0  0
 10 21  1  0  0  0  0
 10 22  1  0  0  0  0
M  CHG  1   2   1
M  END
