3kig_ligand
 OpenBabel08222323343D

 19 19  0  0  0  0  0  0  0  0999 V2000
   15.8080    1.4990   16.2230 N   0  0  0  0  0  0  0  0  0  0  0  0
   15.2820    2.9280   16.8670 S   0  0  0  0  0  0  0  0  0  0  0  0
   15.8590    3.0520   18.1970 O   0  0  0  0  0  0  0  0  0  0  0  0
   13.8550    3.0030   16.7950 O   0  0  0  0  0  0  0  0  0  0  0  0
   15.9590    4.2240   15.8500 C   0  0  0  0  0  0  0  0  0  0  0  0
   15.1460    5.1790   15.2430 C   0  0  0  0  0  0  0  0  0  0  0  0
   15.7450    6.1760   14.4620 C   0  0  0  0  0  0  0  0  0  0  0  0
   17.1350    6.1760   14.3050 C   0  0  0  0  0  0  0  0  0  0  0  0
   17.9370    5.2070   14.9250 C   0  0  0  0  0  0  0  0  0  0  0  0
   17.3450    4.2040   15.6990 C   0  0  0  0  0  0  0  0  0  0  0  0
   14.9940    7.2200   13.7900 C   0  0  0  0  0  0  0  0  0  0  0  0
   14.7920    8.1910   13.0770 C   0  0  0  0  0  0  0  0  0  0  0  0
   16.7860    1.2918   16.1978 H   0  0  0  0  0  0  0  0  0  0  0  0
   15.1482    0.8418   15.8587 H   0  0  0  0  0  0  0  0  0  0  0  0
   14.0701    5.1511   15.3726 H   0  0  0  0  0  0  0  0  0  0  0  0
   17.6010    6.9394   13.6925 H   0  0  0  0  0  0  0  0  0  0  0  0
   19.0139    5.2354   14.8045 H   0  0  0  0  0  0  0  0  0  0  0  0
   17.9461    3.4334   16.1679 H   0  0  0  0  0  0  0  0  0  0  0  0
   14.6174    9.0305   12.4606 H   0  0  0  0  0  0  0  0  0  0  0  0
  1  2  1  0  0  0  0
  1 13  1  0  0  0  0
  1 14  1  0  0  0  0
  2  3  2  0  0  0  0
  2  4  2  0  0  0  0
  2  5  1  0  0  0  0
  5  6  2  0  0  0  0
  5 10  1  0  0  0  0
  6  7  1  0  0  0  0
  6 15  1  0  0  0  0
  7  8  2  0  0  0  0
  7 11  1  0  0  0  0
  8  9  1  0  0  0  0
  8 16  1  0  0  0  0
  9 10  2  0  0  0  0
  9 17  1  0  0  0  0
 10 18  1  0  0  0  0
 11 12  3  0  0  0  0
 12 19  1  0  0  0  0
M  END
