3kl6_ligand
 OpenBabel08222323343D

 58 61  0  0  1  0  0  0  0  0999 V2000
    1.8430   -9.1500  -16.5290 C   0  0  0  0  0  0  0  0  0  0  0  0
    4.4350   -8.0650  -16.3690 C   0  0  0  0  0  0  0  0  0  0  0  0
    6.1080   -7.5760  -14.7230 C   0  0  0  0  0  0  0  0  0  0  0  0
    6.3900   -3.9080  -14.3980 C   0  0  0  0  0  0  0  0  0  0  0  0
    5.4380   -3.4900  -15.3520 C   0  0  0  0  0  0  0  0  0  0  0  0
    4.9240   -5.7800  -15.8780 C   0  0  0  0  0  0  0  0  0  0  0  0
   -1.4730  -10.5620  -13.1870 C   0  0  0  0  0  0  0  0  0  0  0  0
   -0.6470  -10.9160  -10.8590 C   0  0  1  0  0  0  0  0  0  0  0  0
    0.9450  -11.1940  -12.7730 C   0  0  0  0  0  0  0  0  0  0  0  0
    0.0020   -9.4580   -8.8660 C   0  0  0  0  0  0  0  0  0  0  0  0
    2.4780   -9.0860  -14.1740 O   0  0  0  0  0  0  0  0  0  0  0  0
    1.7620   -9.8460  -15.1700 C   0  0  1  0  0  0  0  0  0  0  0  0
    3.4910   -9.2420  -17.2640 S   0  0  0  0  0  0  0  0  0  0  0  0
    4.0900  -10.5140  -16.9920 O   0  0  0  0  0  0  0  0  0  0  0  0
    3.3890   -8.7440  -18.5940 O   0  0  0  0  0  0  0  0  0  0  0  0
    5.3910   -8.4820  -15.4340 C   0  0  0  0  0  0  0  0  0  0  0  0
    5.8930   -6.2020  -14.9260 C   0  0  0  0  0  0  0  0  0  0  0  0
    6.6140   -5.2410  -14.2010 C   0  0  0  0  0  0  0  0  0  0  0  0
    7.2870   -2.7420  -13.4710 Cl  0  0  0  0  0  0  0  0  0  0  0  0
    4.7170   -4.3970  -16.0770 C   0  0  0  0  0  0  0  0  0  0  0  0
    4.2010   -6.7420  -16.6030 C   0  0  0  0  0  0  0  0  0  0  0  0
    0.3040   -9.9030  -14.7670 C   0  0  0  0  0  0  0  0  0  0  0  0
   -0.5350   -9.3670  -15.4730 O   0  0  0  0  0  0  0  0  0  0  0  0
   -0.0590  -10.5200  -13.6180 N   0  0  0  0  0  0  0  0  0  0  0  0
   -1.5500  -10.0320  -11.7370 C   0  0  0  0  0  0  0  0  0  0  0  0
    0.8120  -10.7620  -11.3100 C   0  0  0  0  0  0  0  0  0  0  0  0
   -0.7190  -10.6220   -9.4150 N   0  0  0  0  0  0  0  0  0  0  0  0
   -0.6430   -8.9470   -7.5730 C   0  0  0  0  0  0  0  0  0  0  0  0
   -0.8380  -10.1060   -6.5880 C   0  0  0  0  0  0  0  0  0  0  0  0
   -1.4890  -11.2330   -7.2580 N   0  0  0  0  0  0  0  0  0  0  0  0
   -1.4060  -11.4380   -8.5860 C   0  0  0  0  0  0  0  0  0  0  0  0
   -1.9810  -12.4010   -9.0530 O   0  0  0  0  0  0  0  0  0  0  0  0
    1.5748   -8.0912  -16.3984 H   0  0  0  0  0  0  0  0  0  0  0  0
    1.1260   -9.6283  -17.2124 H   0  0  0  0  0  0  0  0  0  0  0  0
    6.8440   -7.9106  -14.0010 H   0  0  0  0  0  0  0  0  0  0  0  0
    5.2756   -2.4304  -15.5128 H   0  0  0  0  0  0  0  0  0  0  0  0
   -1.8438  -11.5969  -13.2257 H   0  0  0  0  0  0  0  0  0  0  0  0
   -2.0831   -9.9289  -13.8480 H   0  0  0  0  0  0  0  0  0  0  0  0
   -0.9574  -11.9609  -11.0067 H   0  0  0  0  0  0  0  0  0  0  0  0
    1.9512  -10.9349  -13.1342 H   0  0  0  0  0  0  0  0  0  0  0  0
    0.7999  -12.2823  -12.8410 H   0  0  0  0  0  0  0  0  0  0  0  0
   -0.0067   -8.6495   -9.6118 H   0  0  0  0  0  0  0  0  0  0  0  0
    1.0411   -9.7503   -8.6541 H   0  0  0  0  0  0  0  0  0  0  0  0
    2.0948   -8.2196  -14.1025 H   0  0  0  0  0  0  0  0  0  0  0  0
    2.1812  -10.8605  -15.2405 H   0  0  0  0  0  0  0  0  0  0  0  0
    5.5599   -9.5411  -15.2767 H   0  0  0  0  0  0  0  0  0  0  0  0
    7.3559   -5.5595  -13.4776 H   0  0  0  0  0  0  0  0  0  0  0  0
    3.9880   -4.0558  -16.8031 H   0  0  0  0  0  0  0  0  0  0  0  0
    3.4663   -6.4365  -17.3392 H   0  0  0  0  0  0  0  0  0  0  0  0
   -2.5876  -10.0831  -11.3754 H   0  0  0  0  0  0  0  0  0  0  0  0
   -1.2002   -8.9897  -11.7014 H   0  0  0  0  0  0  0  0  0  0  0  0
    1.4581  -11.3928  -10.6818 H   0  0  0  0  0  0  0  0  0  0  0  0
    1.1172   -9.7100  -11.2097 H   0  0  0  0  0  0  0  0  0  0  0  0
   -1.6203   -8.4993   -7.8061 H   0  0  0  0  0  0  0  0  0  0  0  0
    0.0088   -8.1875   -7.1167 H   0  0  0  0  0  0  0  0  0  0  0  0
   -1.4660   -9.7693   -5.7500 H   0  0  0  0  0  0  0  0  0  0  0  0
    0.1422  -10.4272   -6.2058 H   0  0  0  0  0  0  0  0  0  0  0  0
   -2.0177  -11.8778   -6.7060 H   0  0  0  0  0  0  0  0  0  0  0  0
  1 13  1  0  0  0  0
  1 33  1  0  0  0  0
  1 34  1  0  0  0  0
  2 16  2  0  0  0  0
  2 21  1  0  0  0  0
  3 17  2  0  0  0  0
  3 35  1  0  0  0  0
  4 19  1  0  0  0  0
  5  4  1  0  0  0  0
  5 36  1  0  0  0  0
  6 17  1  0  0  0  0
  6 20  1  0  0  0  0
  7 25  1  0  0  0  0
  7 37  1  0  0  0  0
  7 38  1  0  0  0  0
  8 27  1  0  0  0  0
  8 39  1  6  0  0  0
  9 26  1  0  0  0  0
  9 40  1  0  0  0  0
  9 41  1  0  0  0  0
 10 28  1  0  0  0  0
 10 42  1  0  0  0  0
 10 43  1  0  0  0  0
 11 44  1  0  0  0  0
 12  1  1  0  0  0  0
 12 11  1  0  0  0  0
 12 45  1  6  0  0  0
 13  2  1  0  0  0  0
 13 14  2  0  0  0  0
 13 15  2  0  0  0  0
 16  3  1  0  0  0  0
 16 46  1  0  0  0  0
 17 18  1  0  0  0  0
 18  4  2  0  0  0  0
 18 47  1  0  0  0  0
 20  5  2  0  0  0  0
 20 48  1  0  0  0  0
 21  6  2  0  0  0  0
 21 49  1  0  0  0  0
 22 12  1  0  0  0  0
 22 23  2  0  0  0  0
 22 24  1  0  0  0  0
 24  7  1  0  0  0  0
 24  9  1  0  0  0  0
 25  8  1  0  0  0  0
 25 50  1  0  0  0  0
 25 51  1  0  0  0  0
 26  8  1  0  0  0  0
 26 52  1  0  0  0  0
 26 53  1  0  0  0  0
 27 10  1  0  0  0  0
 27 31  1  0  0  0  0
 28 29  1  0  0  0  0
 28 54  1  0  0  0  0
 28 55  1  0  0  0  0
 29 30  1  0  0  0  0
 29 56  1  0  0  0  0
 29 57  1  0  0  0  0
 30 31  1  0  0  0  0
 30 58  1  0  0  0  0
 31 32  2  0  0  0  0
M  END
