3kqt_ligand
 OpenBabel08222323343D

 20 21  0  0  0  0  0  0  0  0999 V2000
   28.2460   45.4760   17.3130 C   0  0  0  0  0  0  0  0  0  0  0  0
   27.7380   43.4010   18.7370 C   0  0  0  0  0  0  0  0  0  0  0  0
   27.8390   44.1530   17.4690 N   0  0  0  0  0  0  0  0  0  0  0  0
   27.5190   43.6600   16.2080 C   0  0  0  0  0  0  0  0  0  0  0  0
   27.0480   42.3590   15.7660 C   0  0  0  0  0  0  0  0  0  0  0  0
   26.7960   42.1140   14.3610 C   0  0  0  0  0  0  0  0  0  0  0  0
   27.0180   43.1660   13.4020 C   0  0  0  0  0  0  0  0  0  0  0  0
   27.4930   44.4620   13.8350 C   0  0  0  0  0  0  0  0  0  0  0  0
   27.7390   44.7080   15.2520 C   0  0  0  0  0  0  0  0  0  0  0  0
   28.1730   45.8100   15.9180 N   0  0  0  0  0  0  0  0  0  0  0  0
   28.6550   46.3650   18.3690 N   0  0  0  0  0  0  0  0  0  0  0  0
   26.7050   43.0896   18.8919 H   0  0  0  0  0  0  0  0  0  0  0  0
   28.3805   42.5218   18.6887 H   0  0  0  0  0  0  0  0  0  0  0  0
   28.0542   44.0388   19.5624 H   0  0  0  0  0  0  0  0  0  0  0  0
   26.8837   41.5646   16.4940 H   0  0  0  0  0  0  0  0  0  0  0  0
   26.4400   41.1382   14.0306 H   0  0  0  0  0  0  0  0  0  0  0  0
   26.8270   42.9844   12.3443 H   0  0  0  0  0  0  0  0  0  0  0  0
   27.6666   45.2524   13.1048 H   0  0  0  0  0  0  0  0  0  0  0  0
   28.9248   47.3245   18.1521 H   0  0  0  0  0  0  0  0  0  0  0  0
   28.6750   46.0354   19.3341 H   0  0  0  0  0  0  0  0  0  0  0  0
  1  3  1  0  0  0  0
  1 10  2  0  0  0  0
  1 11  1  0  0  0  0
  2 12  1  0  0  0  0
  2 13  1  0  0  0  0
  2 14  1  0  0  0  0
  3  2  1  0  0  0  0
  3  4  1  0  0  0  0
  4  5  2  0  0  0  0
  4  9  1  0  0  0  0
  5  6  1  0  0  0  0
  5 15  1  0  0  0  0
  6  7  2  0  0  0  0
  6 16  1  0  0  0  0
  7  8  1  0  0  0  0
  7 17  1  0  0  0  0
  8  9  2  0  0  0  0
  8 18  1  0  0  0  0
  9 10  1  0  0  0  0
 11 19  1  0  0  0  0
 11 20  1  0  0  0  0
M  END
