3krj_ligand
 OpenBabel08222323343D

 54 57  0  0  0  0  0  0  0  0999 V2000
    7.7680   24.7790    4.4760 N   0  0  0  0  0  0  0  0  0  0  0  0
    8.1750   25.1810    5.4830 C   0  0  0  0  0  0  0  0  0  0  0  0
    8.6640   25.6850    6.7230 C   0  0  0  0  0  0  0  0  0  0  0  0
    9.6850   25.1970    7.5110 C   0  0  0  0  0  0  0  0  0  0  0  0
    9.7520   26.0480    8.6010 N   0  0  0  0  0  0  0  0  0  0  0  0
    8.8160   26.9840    8.4530 C   0  0  0  0  0  0  0  0  0  0  0  0
    8.1150   26.8190    7.3340 N   0  0  0  0  0  0  0  0  0  0  0  0
    8.6330   28.0060    9.5170 C   0  0  0  0  0  0  0  0  0  0  0  0
    9.2090   27.8790   10.6010 O   0  0  0  0  0  0  0  0  0  0  0  0
    7.8330   29.0140    9.1550 N   0  0  0  0  0  0  0  0  0  0  0  0
    7.3740   30.0960    9.9440 C   0  0  0  0  0  0  0  0  0  0  0  0
    7.5780   30.0390   11.3340 C   0  0  0  0  0  0  0  0  0  0  0  0
    7.1030   31.0480   12.1630 C   0  0  0  0  0  0  0  0  0  0  0  0
    6.4090   32.1570   11.6490 C   0  0  0  0  0  0  0  0  0  0  0  0
    6.1930   32.2330   10.2430 C   0  0  0  0  0  0  0  0  0  0  0  0
    6.6610   31.1950    9.3810 C   0  0  0  0  0  0  0  0  0  0  0  0
    6.4460   31.2990    7.9140 C   0  0  0  0  0  0  0  0  0  0  0  0
    5.7060   30.3750    7.2560 C   0  0  0  0  0  0  0  0  0  0  0  0
    5.5000   30.3350    5.7470 C   0  0  0  0  0  0  0  0  0  0  0  0
    6.6530   31.0070    4.9870 C   0  0  0  0  0  0  0  0  0  0  0  0
    6.9740   32.3660    5.6180 C   0  0  0  0  0  0  0  0  0  0  0  0
    7.3450   32.2360    7.1110 C   0  0  0  0  0  0  0  0  0  0  0  0
    5.9640   33.1700   12.7240 C   0  0  0  0  0  0  0  0  0  0  0  0
    4.4620   33.0150   13.1030 C   0  0  0  0  0  0  0  0  0  0  0  0
    3.7380   34.3240   13.4510 C   0  0  0  0  0  0  0  0  0  0  0  0
    4.6730   35.1550   14.1950 N   0  3  0  0  0  0  0  0  0  0  0  0
    5.5460   35.7390   13.1880 C   0  0  0  0  0  0  0  0  0  0  0  0
    6.4540   34.6400   12.5900 C   0  0  0  0  0  0  0  0  0  0  0  0
   10.3079   24.3251    7.3167 H   0  0  0  0  0  0  0  0  0  0  0  0
   10.4108   25.9708    9.3890 H   0  0  0  0  0  0  0  0  0  0  0  0
    7.5187   29.0022    8.2057 H   0  0  0  0  0  0  0  0  0  0  0  0
    8.1116   29.1989   11.7636 H   0  0  0  0  0  0  0  0  0  0  0  0
    7.2717   30.9782   13.2315 H   0  0  0  0  0  0  0  0  0  0  0  0
    5.6696   33.0849    9.8243 H   0  0  0  0  0  0  0  0  0  0  0  0
    5.2215   29.6020    7.8507 H   0  0  0  0  0  0  0  0  0  0  0  0
    4.5630   30.8571    5.5032 H   0  0  0  0  0  0  0  0  0  0  0  0
    5.4288   29.2851    5.4267 H   0  0  0  0  0  0  0  0  0  0  0  0
    6.3610   31.1529    3.9366 H   0  0  0  0  0  0  0  0  0  0  0  0
    7.5442   30.3639    5.0339 H   0  0  0  0  0  0  0  0  0  0  0  0
    6.0924   33.0175    5.5264 H   0  0  0  0  0  0  0  0  0  0  0  0
    7.8206   32.8168    5.0795 H   0  0  0  0  0  0  0  0  0  0  0  0
    8.3766   31.8597    7.1759 H   0  0  0  0  0  0  0  0  0  0  0  0
    7.2902   33.2361    7.5657 H   0  0  0  0  0  0  0  0  0  0  0  0
    6.4942   32.8235   13.6233 H   0  0  0  0  0  0  0  0  0  0  0  0
    4.3980   32.3482   13.9755 H   0  0  0  0  0  0  0  0  0  0  0  0
    3.9415   32.5543   12.2505 H   0  0  0  0  0  0  0  0  0  0  0  0
    2.8520   34.1111   14.0671 H   0  0  0  0  0  0  0  0  0  0  0  0
    3.4287   34.8389   12.5295 H   0  0  0  0  0  0  0  0  0  0  0  0
    5.2051   34.5957   14.8431 H   0  0  0  0  0  0  0  0  0  0  0  0
    4.1816   35.8767   14.6987 H   0  0  0  0  0  0  0  0  0  0  0  0
    6.1699   36.5176   13.6511 H   0  0  0  0  0  0  0  0  0  0  0  0
    4.9361   36.1851   12.3887 H   0  0  0  0  0  0  0  0  0  0  0  0
    6.5720   34.8542   11.5175 H   0  0  0  0  0  0  0  0  0  0  0  0
    7.4323   34.7105   13.0878 H   0  0  0  0  0  0  0  0  0  0  0  0
  1  2  3  0  0  0  0
  2  3  1  0  0  0  0
  3  4  2  0  0  0  0
  3  7  1  0  0  0  0
  4  5  1  0  0  0  0
  4 29  1  0  0  0  0
  5  6  1  0  0  0  0
  5 30  1  0  0  0  0
  6  7  2  0  0  0  0
  6  8  1  0  0  0  0
  8  9  2  0  0  0  0
  8 10  1  0  0  0  0
 10 11  1  0  0  0  0
 10 31  1  0  0  0  0
 11 12  2  0  0  0  0
 11 16  1  0  0  0  0
 12 13  1  0  0  0  0
 12 32  1  0  0  0  0
 13 14  2  0  0  0  0
 13 33  1  0  0  0  0
 14 15  1  0  0  0  0
 14 23  1  0  0  0  0
 15 16  2  0  0  0  0
 15 34  1  0  0  0  0
 16 17  1  0  0  0  0
 17 18  2  0  0  0  0
 17 22  1  0  0  0  0
 18 19  1  0  0  0  0
 18 35  1  0  0  0  0
 19 20  1  0  0  0  0
 19 36  1  0  0  0  0
 19 37  1  0  0  0  0
 20 21  1  0  0  0  0
 20 38  1  0  0  0  0
 20 39  1  0  0  0  0
 21 22  1  0  0  0  0
 21 40  1  0  0  0  0
 21 41  1  0  0  0  0
 22 42  1  0  0  0  0
 22 43  1  0  0  0  0
 23 24  1  0  0  0  0
 23 28  1  0  0  0  0
 23 44  1  0  0  0  0
 24 25  1  0  0  0  0
 24 45  1  0  0  0  0
 24 46  1  0  0  0  0
 25 26  1  0  0  0  0
 25 47  1  0  0  0  0
 25 48  1  0  0  0  0
 26 27  1  0  0  0  0
 26 49  1  0  0  0  0
 26 50  1  0  0  0  0
 27 28  1  0  0  0  0
 27 51  1  0  0  0  0
 27 52  1  0  0  0  0
 28 53  1  0  0  0  0
 28 54  1  0  0  0  0
M  CHG  1  26   1
M  END
