3krl_ligand
 OpenBabel08222323343D

 57 60  0  0  0  0  0  0  0  0999 V2000
    8.1660  -10.1870  -15.2590 C   0  0  0  0  0  0  0  0  0  0  0  0
    8.9680  -10.6690  -14.0880 N   0  3  0  0  0  0  0  0  0  0  0  0
    8.2890  -11.2250  -12.9100 C   0  0  0  0  0  0  0  0  0  0  0  0
    9.0150  -12.3240  -12.0420 C   0  0  0  0  0  0  0  0  0  0  0  0
   10.4400  -12.6830  -12.2400 N   0  0  0  0  0  0  0  0  0  0  0  0
   11.1180  -12.0050  -13.3810 C   0  0  0  0  0  0  0  0  0  0  0  0
   10.3990  -10.9200  -14.2730 C   0  0  0  0  0  0  0  0  0  0  0  0
   11.0890  -13.7670  -11.4060 C   0  0  0  0  0  0  0  0  0  0  0  0
   11.6190  -14.9620  -11.9140 C   0  0  0  0  0  0  0  0  0  0  0  0
   12.2890  -15.9300  -11.1360 C   0  0  0  0  0  0  0  0  0  0  0  0
   12.5060  -15.8050   -9.7490 C   0  0  0  0  0  0  0  0  0  0  0  0
   13.2370  -16.7340   -8.9050 N   0  0  0  0  0  0  0  0  0  0  0  0
   13.7550  -18.0270   -9.1080 C   0  0  0  0  0  0  0  0  0  0  0  0
   13.5830  -18.6950  -10.1250 O   0  0  0  0  0  0  0  0  0  0  0  0
   14.5520  -18.7330   -8.0300 C   0  0  0  0  0  0  0  0  0  0  0  0
   14.8940  -20.0650   -7.8730 C   0  0  0  0  0  0  0  0  0  0  0  0
   15.6480  -20.1510   -6.6460 C   0  0  0  0  0  0  0  0  0  0  0  0
   15.6960  -18.8620   -6.1510 C   0  0  0  0  0  0  0  0  0  0  0  0
   16.2480  -18.2080   -5.0220 C   0  0  0  0  0  0  0  0  0  0  0  0
   16.6850  -17.6520   -4.1040 N   0  0  0  0  0  0  0  0  0  0  0  0
   15.0290  -17.9910   -6.9830 O   0  0  0  0  0  0  0  0  0  0  0  0
   11.9930  -14.5890   -9.1890 C   0  0  0  0  0  0  0  0  0  0  0  0
   11.3160  -13.6340  -10.0040 C   0  0  0  0  0  0  0  0  0  0  0  0
   12.1830  -14.4650   -7.7290 N   0  0  0  0  0  0  0  0  0  0  0  0
   13.2100  -13.4530   -7.3840 C   0  0  0  0  0  0  0  0  0  0  0  0
   13.5060  -13.2160   -5.8910 C   0  0  0  0  0  0  0  0  0  0  0  0
   12.6010  -13.9840   -4.9440 C   0  0  0  0  0  0  0  0  0  0  0  0
   12.5450  -15.4330   -5.3820 C   0  0  0  0  0  0  0  0  0  0  0  0
   11.7700  -15.4780   -6.7140 C   0  0  0  0  0  0  0  0  0  0  0  0
    7.1183  -10.0487  -14.9538 H   0  0  0  0  0  0  0  0  0  0  0  0
    8.2170  -10.9296  -16.0689 H   0  0  0  0  0  0  0  0  0  0  0  0
    8.5741   -9.2290  -15.6136 H   0  0  0  0  0  0  0  0  0  0  0  0
    9.0913   -9.7524  -13.6871 H   0  0  0  0  0  0  0  0  0  0  0  0
    7.3461  -11.6678  -13.2634 H   0  0  0  0  0  0  0  0  0  0  0  0
    8.0692  -10.3812  -12.2394 H   0  0  0  0  0  0  0  0  0  0  0  0
    8.4434  -13.2529  -12.1849 H   0  0  0  0  0  0  0  0  0  0  0  0
    8.9254  -11.9955  -10.9960 H   0  0  0  0  0  0  0  0  0  0  0  0
   11.4328  -12.8046  -14.0677 H   0  0  0  0  0  0  0  0  0  0  0  0
   12.0067  -11.5129  -12.9591 H   0  0  0  0  0  0  0  0  0  0  0  0
   10.9169   -9.9658  -14.0962 H   0  0  0  0  0  0  0  0  0  0  0  0
   10.5379  -11.2239  -15.3210 H   0  0  0  0  0  0  0  0  0  0  0  0
   11.5065  -15.1548  -12.9748 H   0  0  0  0  0  0  0  0  0  0  0  0
   12.6576  -16.8200  -11.6332 H   0  0  0  0  0  0  0  0  0  0  0  0
   13.4085  -16.3803   -7.9855 H   0  0  0  0  0  0  0  0  0  0  0  0
   14.6434  -20.8859   -8.5433 H   0  0  0  0  0  0  0  0  0  0  0  0
   16.0869  -21.0439   -6.2032 H   0  0  0  0  0  0  0  0  0  0  0  0
   10.9452  -12.7375   -9.5204 H   0  0  0  0  0  0  0  0  0  0  0  0
   12.8826  -12.4935   -7.8107 H   0  0  0  0  0  0  0  0  0  0  0  0
   14.1514  -13.7640   -7.8605 H   0  0  0  0  0  0  0  0  0  0  0  0
   13.3898  -12.1421   -5.6832 H   0  0  0  0  0  0  0  0  0  0  0  0
   14.5454  -13.5172   -5.6940 H   0  0  0  0  0  0  0  0  0  0  0  0
   11.5897  -13.5520   -4.9687 H   0  0  0  0  0  0  0  0  0  0  0  0
   13.0009  -13.9232   -3.9211 H   0  0  0  0  0  0  0  0  0  0  0  0
   12.0250  -16.0361   -4.6231 H   0  0  0  0  0  0  0  0  0  0  0  0
   13.5635  -15.8228   -5.5255 H   0  0  0  0  0  0  0  0  0  0  0  0
   11.9097  -16.4763   -7.1544 H   0  0  0  0  0  0  0  0  0  0  0  0
   10.7041  -15.3210   -6.4920 H   0  0  0  0  0  0  0  0  0  0  0  0
  1  2  1  0  0  0  0
  1 30  1  0  0  0  0
  1 31  1  0  0  0  0
  1 32  1  0  0  0  0
  2  3  1  0  0  0  0
  2  7  1  0  0  0  0
  2 33  1  0  0  0  0
  3  4  1  0  0  0  0
  3 34  1  0  0  0  0
  3 35  1  0  0  0  0
  4  5  1  0  0  0  0
  4 36  1  0  0  0  0
  4 37  1  0  0  0  0
  5  6  1  0  0  0  0
  5  8  1  0  0  0  0
  6  7  1  0  0  0  0
  6 38  1  0  0  0  0
  6 39  1  0  0  0  0
  7 40  1  0  0  0  0
  7 41  1  0  0  0  0
  8  9  2  0  0  0  0
  8 23  1  0  0  0  0
  9 10  1  0  0  0  0
  9 42  1  0  0  0  0
 10 11  2  0  0  0  0
 10 43  1  0  0  0  0
 11 12  1  0  0  0  0
 11 22  1  0  0  0  0
 12 13  1  0  0  0  0
 12 44  1  0  0  0  0
 13 14  2  0  0  0  0
 13 15  1  0  0  0  0
 15 16  2  0  0  0  0
 15 21  1  0  0  0  0
 16 17  1  0  0  0  0
 16 45  1  0  0  0  0
 17 18  2  0  0  0  0
 17 46  1  0  0  0  0
 18 19  1  0  0  0  0
 18 21  1  0  0  0  0
 19 20  3  0  0  0  0
 22 23  2  0  0  0  0
 22 24  1  0  0  0  0
 23 47  1  0  0  0  0
 24 25  1  0  0  0  0
 24 29  1  0  0  0  0
 25 26  1  0  0  0  0
 25 48  1  0  0  0  0
 25 49  1  0  0  0  0
 26 27  1  0  0  0  0
 26 50  1  0  0  0  0
 26 51  1  0  0  0  0
 27 28  1  0  0  0  0
 27 52  1  0  0  0  0
 27 53  1  0  0  0  0
 28 29  1  0  0  0  0
 28 54  1  0  0  0  0
 28 55  1  0  0  0  0
 29 56  1  0  0  0  0
 29 57  1  0  0  0  0
M  CHG  1   2   1
M  END
