3kry_ligand
 OpenBabel08222323343D

 59 61  0  0  1  0  0  0  0  0999 V2000
  -10.5830   -0.1720    4.3190 S   0  0  0  0  0  0  0  0  0  0  0  0
  -10.0070   -0.9410    2.9040 C   0  0  0  0  0  0  0  0  0  0  0  0
  -10.9100   -1.4420    1.9630 C   0  0  0  0  0  0  0  0  0  0  0  0
  -10.4330   -2.0520    0.7960 C   0  0  0  0  0  0  0  0  0  0  0  0
   -9.0550   -2.1590    0.5620 C   0  0  0  0  0  0  0  0  0  0  0  0
   -8.1640   -1.6490    1.5010 C   0  0  0  0  0  0  0  0  0  0  0  0
   -8.6330   -1.0380    2.6680 C   0  0  0  0  0  0  0  0  0  0  0  0
  -10.6740    1.5490    4.0860 C   0  0  1  0  0  0  0  0  0  0  0  0
   -9.5980    2.0950    3.1350 C   0  0  0  0  0  0  0  0  0  0  0  0
   -8.3480    2.3700    3.5390 N   0  0  0  0  0  0  0  0  0  0  0  0
   -7.4900    2.6460    2.7150 O   0  0  0  0  0  0  0  0  0  0  0  0
   -9.5490   -0.5730    5.5940 O   0  0  0  0  0  0  0  0  0  0  0  0
  -12.0770   -0.8780    4.6500 O   0  0  0  0  0  0  0  0  0  0  0  0
   -9.8680    2.3430    1.9620 O   0  0  0  0  0  0  0  0  0  0  0  0
  -12.0720    1.7570    3.4630 C   0  0  0  0  0  0  0  0  0  0  0  0
  -12.5240    3.2250    3.4240 C   0  0  0  0  0  0  0  0  0  0  0  0
  -12.4630    3.7420    4.8150 N   0  3  2  0  0  0  0  0  0  0  0  0
  -11.0690    3.7960    5.3590 C   0  0  0  0  0  0  0  0  0  0  0  0
  -10.5330    2.3450    5.4030 C   0  0  0  0  0  0  0  0  0  0  0  0
  -13.7160    3.8470    5.6280 C   0  0  0  0  0  0  0  0  0  0  0  0
  -14.0760    2.5870    6.4300 C   0  0  0  0  0  0  0  0  0  0  0  0
  -15.3890    2.6810    7.0150 O   0  0  0  0  0  0  0  0  0  0  0  0
  -15.3550    2.6960    8.4490 C   0  0  0  0  0  0  0  0  0  0  0  0
   -8.5610   -2.7290   -0.5360 O   0  0  0  0  0  0  0  0  0  0  0  0
   -9.2290   -3.2680   -1.5660 C   0  0  0  0  0  0  0  0  0  0  0  0
   -9.9550   -2.4320   -2.4160 C   0  0  0  0  0  0  0  0  0  0  0  0
  -10.6650   -2.9550   -3.4900 C   0  0  0  0  0  0  0  0  0  0  0  0
  -10.6390   -4.3360   -3.6920 C   0  0  0  0  0  0  0  0  0  0  0  0
   -9.9280   -5.1890   -2.8450 C   0  0  0  0  0  0  0  0  0  0  0  0
   -9.2130   -4.6460   -1.7670 C   0  0  0  0  0  0  0  0  0  0  0  0
  -11.3350   -4.8270   -4.7070 O   0  0  0  0  0  0  0  0  0  0  0  0
  -10.8530   -5.2110   -6.0150 C   0  0  0  0  0  0  0  0  0  0  0  0
   -9.7850   -6.0110   -5.8860 F   0  0  0  0  0  0  0  0  0  0  0  0
  -10.4900   -4.1230   -6.7060 F   0  0  0  0  0  0  0  0  0  0  0  0
  -11.7890   -5.8770   -6.7200 F   0  0  0  0  0  0  0  0  0  0  0  0
  -11.9769   -1.3588    2.1357 H   0  0  0  0  0  0  0  0  0  0  0  0
  -11.1344   -2.4442    0.0685 H   0  0  0  0  0  0  0  0  0  0  0  0
   -7.0969   -1.7260    1.3264 H   0  0  0  0  0  0  0  0  0  0  0  0
   -7.9301   -0.6391    3.3904 H   0  0  0  0  0  0  0  0  0  0  0  0
  -12.8029    1.1852    4.0535 H   0  0  0  0  0  0  0  0  0  0  0  0
  -12.0525    1.3732    2.4323 H   0  0  0  0  0  0  0  0  0  0  0  0
  -13.5534    3.2921    3.0421 H   0  0  0  0  0  0  0  0  0  0  0  0
  -11.8536    3.8084    2.7757 H   0  0  0  0  0  0  0  0  0  0  0  0
  -12.4834    4.7163    4.5573 H   0  0  0  0  0  0  0  0  0  0  0  0
  -11.0770    4.2247    6.3720 H   0  0  0  0  0  0  0  0  0  0  0  0
  -10.4338    4.4117    4.7052 H   0  0  0  0  0  0  0  0  0  0  0  0
   -9.4650    2.3850    5.6633 H   0  0  0  0  0  0  0  0  0  0  0  0
  -11.0817    1.8037    6.1878 H   0  0  0  0  0  0  0  0  0  0  0  0
  -14.5493    4.0661    4.9442 H   0  0  0  0  0  0  0  0  0  0  0  0
  -13.5945    4.6795    6.3366 H   0  0  0  0  0  0  0  0  0  0  0  0
  -13.3371    2.4536    7.2338 H   0  0  0  0  0  0  0  0  0  0  0  0
  -14.0475    1.7169    5.7576 H   0  0  0  0  0  0  0  0  0  0  0  0
  -16.3809    2.7686    8.8393 H   0  0  0  0  0  0  0  0  0  0  0  0
  -14.7697    3.5616    8.7929 H   0  0  0  0  0  0  0  0  0  0  0  0
  -14.8884    1.7693    8.8145 H   0  0  0  0  0  0  0  0  0  0  0  0
   -9.9651   -1.3630   -2.2363 H   0  0  0  0  0  0  0  0  0  0  0  0
  -11.2250   -2.3068   -4.1543 H   0  0  0  0  0  0  0  0  0  0  0  0
   -9.9286   -6.2590   -3.0187 H   0  0  0  0  0  0  0  0  0  0  0  0
   -8.6547   -5.2913   -1.0985 H   0  0  0  0  0  0  0  0  0  0  0  0
  1  2  1  0  0  0  0
  1  8  1  0  0  0  0
  1 12  2  0  0  0  0
  1 13  2  0  0  0  0
  2  3  2  0  0  0  0
  2  7  1  0  0  0  0
  3  4  1  0  0  0  0
  3 36  1  0  0  0  0
  4  5  2  0  0  0  0
  4 37  1  0  0  0  0
  5  6  1  0  0  0  0
  5 24  1  0  0  0  0
  6  7  2  0  0  0  0
  6 38  1  0  0  0  0
  7 39  1  0  0  0  0
  8  9  1  6  0  0  0
  8 15  1  0  0  0  0
  8 19  1  0  0  0  0
  9 10  1  0  0  0  0
  9 14  2  0  0  0  0
 10 11  2  0  0  0  0
 15 16  1  0  0  0  0
 15 40  1  0  0  0  0
 15 41  1  0  0  0  0
 16 17  1  0  0  0  0
 16 42  1  0  0  0  0
 16 43  1  0  0  0  0
 17 18  1  0  0  0  0
 17 20  1  0  0  0  0
 17 44  1  6  0  0  0
 18 19  1  0  0  0  0
 18 45  1  0  0  0  0
 18 46  1  0  0  0  0
 19 47  1  0  0  0  0
 19 48  1  0  0  0  0
 20 21  1  0  0  0  0
 20 49  1  0  0  0  0
 20 50  1  0  0  0  0
 21 22  1  0  0  0  0
 21 51  1  0  0  0  0
 21 52  1  0  0  0  0
 22 23  1  0  0  0  0
 23 53  1  0  0  0  0
 23 54  1  0  0  0  0
 23 55  1  0  0  0  0
 24 25  1  0  0  0  0
 25 26  2  0  0  0  0
 25 30  1  0  0  0  0
 26 27  1  0  0  0  0
 26 56  1  0  0  0  0
 27 28  2  0  0  0  0
 27 57  1  0  0  0  0
 28 29  1  0  0  0  0
 28 31  1  0  0  0  0
 29 30  2  0  0  0  0
 29 58  1  0  0  0  0
 30 59  1  0  0  0  0
 31 32  1  0  0  0  0
 32 33  1  0  0  0  0
 32 34  1  0  0  0  0
 32 35  1  0  0  0  0
M  CHG  1  17   1
M  END
