3l0k_ligand
 OpenBabel08222323343D

 39 40  0  0  1  0  0  0  0  0999 V2000
   27.2930  -10.7730   13.7680 O   0  0  0  0  0  1  0  0  0  0  0  0
   26.2690  -11.0760   14.8420 P   0  0  0  0  0  0  0  0  0  0  0  0
   25.0380  -11.7150   14.3130 O   0  0  0  0  0  1  0  0  0  0  0  0
   26.9060  -11.8150   15.9800 O   0  0  0  0  0  0  0  0  0  0  0  0
   25.8970   -9.6760   15.5360 O   0  0  0  0  0  0  0  0  0  0  0  0
   25.0770   -8.7090   14.8900 C   0  0  0  0  0  0  0  0  0  0  0  0
   25.0710   -7.4640   15.7860 C   0  0  2  0  0  0  0  0  0  0  0  0
   24.2560   -7.6510   17.0510 C   0  0  2  0  0  0  0  0  0  0  0  0
   22.9130   -7.0770   16.6780 C   0  0  1  0  0  0  0  0  0  0  0  0
   22.2360   -6.5950   17.8250 O   0  0  0  0  0  0  0  0  0  0  0  0
   23.2730   -5.9870   15.6600 C   0  0  1  0  0  0  0  0  0  0  0  0
   24.5220   -6.3380   15.0870 O   0  0  0  0  0  0  0  0  0  0  0  0
   22.2770   -5.7520   14.5990 N   0  0  0  0  0  0  0  0  0  0  0  0
   21.6650   -4.4770   14.4270 C   0  0  1  0  0  0  0  0  0  0  0  0
   22.4430   -3.2290   14.5500 C   0  0  0  0  0  0  0  0  0  0  0  0
   23.9050   -3.2730   14.4800 C   0  0  0  0  0  0  0  0  0  0  0  0
   21.8140   -2.0880   14.6520 O   0  0  0  0  0  0  0  0  0  0  0  0
   20.5310   -4.3480   13.5510 C   0  0  0  0  0  0  0  0  0  0  0  0
   20.1930   -5.4480   12.8050 C   0  0  0  0  0  0  0  0  0  0  0  0
   19.2890   -5.3790   11.9520 O   0  0  0  0  0  0  0  0  0  0  0  0
   20.8760   -6.5830   12.9140 N   0  0  0  0  0  0  0  0  0  0  0  0
   21.8760   -6.7850   13.7850 C   0  0  0  0  0  0  0  0  0  0  0  0
   22.4060   -7.9040   13.8430 O   0  0  0  0  0  0  0  0  0  0  0  0
   24.8430   -6.9370   18.1610 O   0  0  0  0  0  0  0  0  0  0  0  0
   24.0542   -9.0967   14.7736 H   0  0  0  0  0  0  0  0  0  0  0  0
   25.4903   -8.4618   13.9010 H   0  0  0  0  0  0  0  0  0  0  0  0
   26.1111   -7.2417   16.0666 H   0  0  0  0  0  0  0  0  0  0  0  0
   24.1696   -8.7168   17.3091 H   0  0  0  0  0  0  0  0  0  0  0  0
   22.2844   -7.8427   16.2000 H   0  0  0  0  0  0  0  0  0  0  0  0
   21.3938   -6.2384   17.5678 H   0  0  0  0  0  0  0  0  0  0  0  0
   23.3892   -5.0417   16.2104 H   0  0  0  0  0  0  0  0  0  0  0  0
   21.1407   -4.4403   15.3933 H   0  0  0  0  0  0  0  0  0  0  0  0
   24.3081   -2.2555   14.5905 H   0  0  0  0  0  0  0  0  0  0  0  0
   24.2133   -3.6860   13.5082 H   0  0  0  0  0  0  0  0  0  0  0  0
   24.2918   -3.9104   15.2887 H   0  0  0  0  0  0  0  0  0  0  0  0
   20.7432   -3.5255   12.8522 H   0  0  0  0  0  0  0  0  0  0  0  0
   19.6606   -4.0872   14.1709 H   0  0  0  0  0  0  0  0  0  0  0  0
   20.6277   -7.3370   12.3059 H   0  0  0  0  0  0  0  0  0  0  0  0
   25.6861   -7.3205   18.3725 H   0  0  0  0  0  0  0  0  0  0  0  0
  1  2  1  0  0  0  0
  2  3  1  0  0  0  0
  2  4  2  0  0  0  0
  2  5  1  0  0  0  0
  5  6  1  0  0  0  0
  6  7  1  0  0  0  0
  6 25  1  0  0  0  0
  6 26  1  0  0  0  0
  7  8  1  0  0  0  0
  7 12  1  0  0  0  0
  7 27  1  1  0  0  0
  8  9  1  0  0  0  0
  8 24  1  0  0  0  0
  8 28  1  1  0  0  0
  9 10  1  0  0  0  0
  9 11  1  0  0  0  0
  9 29  1  6  0  0  0
 10 30  1  0  0  0  0
 11 12  1  0  0  0  0
 11 13  1  0  0  0  0
 11 31  1  1  0  0  0
 13 14  1  0  0  0  0
 13 22  1  0  0  0  0
 14 15  1  0  0  0  0
 14 18  1  0  0  0  0
 14 32  1  1  0  0  0
 15 16  1  0  0  0  0
 15 17  2  0  0  0  0
 16 33  1  0  0  0  0
 16 34  1  0  0  0  0
 16 35  1  0  0  0  0
 18 19  1  0  0  0  0
 18 36  1  0  0  0  0
 18 37  1  0  0  0  0
 19 20  2  0  0  0  0
 19 21  1  0  0  0  0
 21 22  1  0  0  0  0
 21 38  1  0  0  0  0
 22 23  2  0  0  0  0
 24 39  1  0  0  0  0
M  END
