3l3a_ligand
 OpenBabel08222323343D

 55 58  0  0  0  0  0  0  0  0999 V2000
    9.8340   -1.6630   13.3870 C   0  0  0  0  0  0  0  0  0  0  0  0
   10.4770   -1.5020   12.4290 N   0  0  0  0  0  0  0  0  0  0  0  0
    9.3100   -5.4120   15.1150 O   0  0  0  0  0  0  0  0  0  0  0  0
   15.1490  -12.3300   15.4850 Cl  0  0  0  0  0  0  0  0  0  0  0  0
   17.9380  -11.5770   18.9630 C   0  0  0  0  0  0  0  0  0  0  0  0
   15.4710   -6.9100   15.4190 N   0  0  0  0  0  0  0  0  0  0  0  0
   18.3370  -12.3510   17.8720 C   0  0  0  0  0  0  0  0  0  0  0  0
   13.9250   -9.6470   17.1980 N   0  0  0  0  0  0  0  0  0  0  0  0
   15.5930   -6.0930   18.0760 C   0  0  0  0  0  0  0  0  0  0  0  0
   16.2720   -4.8310   14.7030 N   0  0  0  0  0  0  0  0  0  0  0  0
   16.6620  -11.0170   19.0040 C   0  0  0  0  0  0  0  0  0  0  0  0
   12.2630   -7.0830   16.4450 C   0  0  0  0  0  0  0  0  0  0  0  0
   10.3880   -8.5330   16.8530 C   0  0  0  0  0  0  0  0  0  0  0  0
   11.4210   -6.1480   15.8380 C   0  0  0  0  0  0  0  0  0  0  0  0
    9.5410   -7.5960   16.2450 C   0  0  0  0  0  0  0  0  0  0  0  0
   17.4610  -12.5670   16.8100 C   0  0  0  0  0  0  0  0  0  0  0  0
   12.3710  -10.0190   18.7440 C   0  0  0  0  0  0  0  0  0  0  0  0
   13.4860  -10.8390   19.0300 C   0  0  0  0  0  0  0  0  0  0  0  0
   15.1540   -7.3710   17.7610 C   0  0  0  0  0  0  0  0  0  0  0  0
   15.9720   -5.2250   17.0560 C   0  0  0  0  0  0  0  0  0  0  0  0
   11.7650   -8.2860   16.9620 C   0  0  0  0  0  0  0  0  0  0  0  0
   15.7650  -11.2220   17.9430 C   0  0  0  0  0  0  0  0  0  0  0  0
   10.0480   -6.3980   15.7300 C   0  0  0  0  0  0  0  0  0  0  0  0
   16.1770  -12.0070   16.8430 C   0  0  0  0  0  0  0  0  0  0  0  0
   12.6440   -9.2720   17.6090 C   0  0  0  0  0  0  0  0  0  0  0  0
   14.4410  -10.6030   18.0600 C   0  0  0  0  0  0  0  0  0  0  0  0
   15.1120   -7.7410   16.4220 C   0  0  0  0  0  0  0  0  0  0  0  0
   15.8930   -5.6690   15.7380 C   0  0  0  0  0  0  0  0  0  0  0  0
    9.0210   -1.8220   14.6080 C   0  0  0  0  0  0  0  0  0  0  0  0
   14.6410   -9.1140   16.0470 C   0  0  0  0  0  0  0  0  0  0  0  0
    8.4410   -3.2250   14.7660 C   0  0  0  0  0  0  0  0  0  0  0  0
    9.2860   -4.1000   15.6890 C   0  0  0  0  0  0  0  0  0  0  0  0
   18.6254  -11.4102   19.7844 H   0  0  0  0  0  0  0  0  0  0  0  0
   19.3302  -12.7849   17.8509 H   0  0  0  0  0  0  0  0  0  0  0  0
   15.6405   -5.7724   19.1104 H   0  0  0  0  0  0  0  0  0  0  0  0
   16.5998   -3.8761   14.9072 H   0  0  0  0  0  0  0  0  0  0  0  0
   16.2261   -5.1625   13.7289 H   0  0  0  0  0  0  0  0  0  0  0  0
   16.3610  -10.4211   19.8580 H   0  0  0  0  0  0  0  0  0  0  0  0
   13.3240   -6.8732   16.5175 H   0  0  0  0  0  0  0  0  0  0  0  0
    9.9755   -9.4567   17.2425 H   0  0  0  0  0  0  0  0  0  0  0  0
   11.8331   -5.2241   15.4486 H   0  0  0  0  0  0  0  0  0  0  0  0
    8.4793   -7.8023   16.1729 H   0  0  0  0  0  0  0  0  0  0  0  0
   17.7717  -13.1660   15.9616 H   0  0  0  0  0  0  0  0  0  0  0  0
   11.4483   -9.9804   19.3211 H   0  0  0  0  0  0  0  0  0  0  0  0
   13.5762  -11.5323   19.8650 H   0  0  0  0  0  0  0  0  0  0  0  0
   14.8517   -8.0627   18.5389 H   0  0  0  0  0  0  0  0  0  0  0  0
   16.3214   -4.2242   17.2826 H   0  0  0  0  0  0  0  0  0  0  0  0
    8.1899   -1.1024   14.5708 H   0  0  0  0  0  0  0  0  0  0  0  0
    9.6547   -1.6055   15.4806 H   0  0  0  0  0  0  0  0  0  0  0  0
   13.9701   -9.0588   15.1770 H   0  0  0  0  0  0  0  0  0  0  0  0
   15.5012   -9.7560   15.8066 H   0  0  0  0  0  0  0  0  0  0  0  0
    8.3908   -3.7008   13.7755 H   0  0  0  0  0  0  0  0  0  0  0  0
    7.4274   -3.1438   15.1856 H   0  0  0  0  0  0  0  0  0  0  0  0
   10.3080   -3.6991   15.7584 H   0  0  0  0  0  0  0  0  0  0  0  0
    8.8367   -4.1347   16.6925 H   0  0  0  0  0  0  0  0  0  0  0  0
  1  2  3  0  0  0  0
  3 23  1  0  0  0  0
  5  7  2  0  0  0  0
  5 33  1  0  0  0  0
  6 28  1  0  0  0  0
  7 34  1  0  0  0  0
  8 26  1  0  0  0  0
  8 30  1  0  0  0  0
  9 20  1  0  0  0  0
  9 35  1  0  0  0  0
 10 36  1  0  0  0  0
 10 37  1  0  0  0  0
 11  5  1  0  0  0  0
 11 38  1  0  0  0  0
 12 21  1  0  0  0  0
 12 39  1  0  0  0  0
 13 21  2  0  0  0  0
 13 40  1  0  0  0  0
 14 12  2  0  0  0  0
 14 41  1  0  0  0  0
 15 13  1  0  0  0  0
 15 42  1  0  0  0  0
 16  7  1  0  0  0  0
 16 43  1  0  0  0  0
 17 18  1  0  0  0  0
 17 44  1  0  0  0  0
 18 26  2  0  0  0  0
 18 45  1  0  0  0  0
 19  9  2  0  0  0  0
 19 46  1  0  0  0  0
 20 47  1  0  0  0  0
 21 25  1  0  0  0  0
 22 11  2  0  0  0  0
 22 24  1  0  0  0  0
 23 14  1  0  0  0  0
 23 15  2  0  0  0  0
 24  4  1  0  0  0  0
 24 16  2  0  0  0  0
 25  8  1  0  0  0  0
 25 17  2  0  0  0  0
 26 22  1  0  0  0  0
 27  6  2  0  0  0  0
 27 19  1  0  0  0  0
 28 10  1  0  0  0  0
 28 20  2  0  0  0  0
 29  1  1  0  0  0  0
 29 48  1  0  0  0  0
 29 49  1  0  0  0  0
 30 27  1  0  0  0  0
 30 50  1  0  0  0  0
 30 51  1  0  0  0  0
 31 29  1  0  0  0  0
 31 32  1  0  0  0  0
 31 52  1  0  0  0  0
 31 53  1  0  0  0  0
 32  3  1  0  0  0  0
 32 54  1  0  0  0  0
 32 55  1  0  0  0  0
M  END
