3l58_ligand
 OpenBabel08222323343D

 84 86  0  0  1  0  0  0  0  0999 V2000
   27.0810   15.4430   24.4790 C   0  0  0  0  0  0  0  0  0  0  0  0
   25.7930   15.7870   24.9770 C   0  0  0  0  0  0  0  0  0  0  0  0
   24.6770   14.9440   24.7060 C   0  0  0  0  0  0  0  0  0  0  0  0
   24.8450   13.7550   23.9370 C   0  0  0  0  0  0  0  0  0  0  0  0
   26.1390   13.4060   23.4470 C   0  0  0  0  0  0  0  0  0  0  0  0
   27.2620   14.2480   23.7230 C   0  0  0  0  0  0  0  0  0  0  0  0
   28.6220   13.8620   23.3120 C   0  0  0  0  0  0  0  0  0  0  0  0
   28.8520   13.6800   21.9720 N   0  0  0  0  0  0  0  0  0  0  0  0
   29.5250   13.7050   24.1330 O   0  0  0  0  0  0  0  0  0  0  0  0
   27.9230   14.1110   20.9160 C   0  0  0  0  0  0  0  0  0  0  0  0
   28.5830   15.0980   19.9700 C   0  0  0  0  0  0  0  0  0  0  0  0
   29.0380   16.3550   20.6820 C   0  0  0  0  0  0  0  0  0  0  0  0
   30.1240   13.0590   21.6070 C   0  0  0  0  0  0  0  0  0  0  0  0
   29.9390   11.6090   21.1600 C   0  0  0  0  0  0  0  0  0  0  0  0
   29.2920   10.7560   22.2160 C   0  0  0  0  0  0  0  0  0  0  0  0
   23.6820   12.9030   23.6520 C   0  0  0  0  0  0  0  0  0  0  0  0
   23.9790   11.5950   23.5110 N   0  0  0  0  0  0  0  0  0  0  0  0
   22.5280   13.3310   23.5510 O   0  0  0  0  0  0  0  0  0  0  0  0
   22.9110   10.6790   23.1130 C   0  0  2  0  0  0  0  0  0  0  0  0
   22.4280    9.8910   24.3390 C   0  0  1  0  0  0  0  0  0  0  0  0
   23.3940    9.7320   22.0030 C   0  0  0  0  0  0  0  0  0  0  0  0
   23.5640    9.3860   25.0430 O   0  0  0  0  0  0  0  0  0  0  0  0
   21.6150   10.7940   25.2750 C   0  0  0  0  0  0  0  0  0  0  0  0
   20.9930    9.9750   26.3310 N   0  3  0  0  0  0  0  0  0  0  0  0
   20.0640   10.7720   27.1630 C   0  0  0  0  0  0  0  0  0  0  0  0
   18.8600   11.2940   26.3940 C   0  0  0  0  0  0  0  0  0  0  0  0
   23.9800   10.5300   20.8560 C   0  0  0  0  0  0  0  0  0  0  0  0
   25.3320   10.3210   20.4570 C   0  0  0  0  0  0  0  0  0  0  0  0
   25.8830   11.0830   19.3870 C   0  0  0  0  0  0  0  0  0  0  0  0
   25.0840   12.0530   18.7170 C   0  0  0  0  0  0  0  0  0  0  0  0
   23.7350   12.2620   19.1190 C   0  0  0  0  0  0  0  0  0  0  0  0
   23.1830   11.4990   20.1820 C   0  0  0  0  0  0  0  0  0  0  0  0
   18.5290   12.6820   26.4550 C   0  0  0  0  0  0  0  0  0  0  0  0
   17.4110   13.1800   25.7210 C   0  0  0  0  0  0  0  0  0  0  0  0
   16.6210   12.2910   24.9240 C   0  0  0  0  0  0  0  0  0  0  0  0
   16.9490   10.9030   24.8610 C   0  0  0  0  0  0  0  0  0  0  0  0
   18.0690   10.4060   25.6060 C   0  0  0  0  0  0  0  0  0  0  0  0
   16.1970   10.0640   24.0490 O   0  0  0  0  0  0  0  0  0  0  0  0
   15.7950    8.8620   24.7170 C   0  0  0  0  0  0  0  0  0  0  0  0
   25.6190   17.0080   25.7800 C   0  0  0  0  0  0  0  0  0  0  0  0
   27.1510   10.8930   19.0130 F   0  0  0  0  0  0  0  0  0  0  0  0
   22.9910   13.1920   18.5130 F   0  0  0  0  0  0  0  0  0  0  0  0
   27.9271   16.0917   24.6751 H   0  0  0  0  0  0  0  0  0  0  0  0
   23.6965   15.2074   25.0858 H   0  0  0  0  0  0  0  0  0  0  0  0
   26.2712   12.5013   22.8647 H   0  0  0  0  0  0  0  0  0  0  0  0
   27.0490   14.5903   21.3813 H   0  0  0  0  0  0  0  0  0  0  0  0
   27.5969   13.2298   20.3441 H   0  0  0  0  0  0  0  0  0  0  0  0
   27.8615   15.3755   19.1874 H   0  0  0  0  0  0  0  0  0  0  0  0
   29.4574   14.6160   19.5084 H   0  0  0  0  0  0  0  0  0  0  0  0
   29.5081   17.0367   19.9579 H   0  0  0  0  0  0  0  0  0  0  0  0
   29.7661   16.0909   21.4630 H   0  0  0  0  0  0  0  0  0  0  0  0
   28.1703   16.8504   21.1420 H   0  0  0  0  0  0  0  0  0  0  0  0
   30.7940   13.0802   22.4791 H   0  0  0  0  0  0  0  0  0  0  0  0
   30.5762   13.6308   20.7832 H   0  0  0  0  0  0  0  0  0  0  0  0
   30.9256   11.1855   20.9209 H   0  0  0  0  0  0  0  0  0  0  0  0
   29.3064   11.5958   20.2602 H   0  0  0  0  0  0  0  0  0  0  0  0
   29.1843    9.7274   21.8413 H   0  0  0  0  0  0  0  0  0  0  0  0
   28.2996   11.1634   22.4592 H   0  0  0  0  0  0  0  0  0  0  0  0
   29.9188   10.7531   23.1199 H   0  0  0  0  0  0  0  0  0  0  0  0
   24.9068   11.2598   23.6746 H   0  0  0  0  0  0  0  0  0  0  0  0
   22.0691   11.2692   22.7221 H   0  0  0  0  0  0  0  0  0  0  0  0
   21.7980    9.0527   24.0069 H   0  0  0  0  0  0  0  0  0  0  0  0
   22.5439    9.1381   21.6360 H   0  0  0  0  0  0  0  0  0  0  0  0
   24.1637    9.0589   22.4085 H   0  0  0  0  0  0  0  0  0  0  0  0
   23.2722    8.8969   25.8034 H   0  0  0  0  0  0  0  0  0  0  0  0
   20.8306   11.3071   24.6993 H   0  0  0  0  0  0  0  0  0  0  0  0
   22.2804   11.5400   25.7339 H   0  0  0  0  0  0  0  0  0  0  0  0
   21.7175    9.5966   26.9208 H   0  0  0  0  0  0  0  0  0  0  0  0
   20.4814    9.2204   25.9010 H   0  0  0  0  0  0  0  0  0  0  0  0
   20.6141   11.6312   27.5743 H   0  0  0  0  0  0  0  0  0  0  0  0
   19.7035   10.1388   27.9871 H   0  0  0  0  0  0  0  0  0  0  0  0
   25.9404    9.5830   20.9671 H   0  0  0  0  0  0  0  0  0  0  0  0
   25.5030   12.6315   17.9016 H   0  0  0  0  0  0  0  0  0  0  0  0
   22.1527   11.6545   20.4811 H   0  0  0  0  0  0  0  0  0  0  0  0
   19.1262   13.3563   27.0580 H   0  0  0  0  0  0  0  0  0  0  0  0
   17.1595   14.2334   25.7670 H   0  0  0  0  0  0  0  0  0  0  0  0
   15.7725   12.6724   24.3675 H   0  0  0  0  0  0  0  0  0  0  0  0
   18.3156    9.3510   25.5702 H   0  0  0  0  0  0  0  0  0  0  0  0
   15.2052    8.2394   24.0281 H   0  0  0  0  0  0  0  0  0  0  0  0
   15.1837    9.1174   25.5951 H   0  0  0  0  0  0  0  0  0  0  0  0
   16.6874    8.3063   25.0405 H   0  0  0  0  0  0  0  0  0  0  0  0
   26.5863   17.5222   25.8796 H   0  0  0  0  0  0  0  0  0  0  0  0
   25.2418   16.7399   26.7779 H   0  0  0  0  0  0  0  0  0  0  0  0
   24.8990   17.6745   25.2826 H   0  0  0  0  0  0  0  0  0  0  0  0
  1  2  2  0  0  0  0
  1  6  1  0  0  0  0
  1 43  1  0  0  0  0
  2  3  1  0  0  0  0
  2 40  1  0  0  0  0
  3  4  2  0  0  0  0
  3 44  1  0  0  0  0
  4  5  1  0  0  0  0
  4 16  1  0  0  0  0
  5  6  2  0  0  0  0
  5 45  1  0  0  0  0
  6  7  1  0  0  0  0
  7  8  1  0  0  0  0
  7  9  2  0  0  0  0
  8 10  1  0  0  0  0
  8 13  1  0  0  0  0
 10 11  1  0  0  0  0
 10 46  1  0  0  0  0
 10 47  1  0  0  0  0
 11 12  1  0  0  0  0
 11 48  1  0  0  0  0
 11 49  1  0  0  0  0
 12 50  1  0  0  0  0
 12 51  1  0  0  0  0
 12 52  1  0  0  0  0
 13 14  1  0  0  0  0
 13 53  1  0  0  0  0
 13 54  1  0  0  0  0
 14 15  1  0  0  0  0
 14 55  1  0  0  0  0
 14 56  1  0  0  0  0
 15 57  1  0  0  0  0
 15 58  1  0  0  0  0
 15 59  1  0  0  0  0
 16 17  1  0  0  0  0
 16 18  2  0  0  0  0
 17 19  1  0  0  0  0
 17 60  1  0  0  0  0
 19 20  1  0  0  0  0
 19 21  1  0  0  0  0
 19 61  1  6  0  0  0
 20 22  1  0  0  0  0
 20 23  1  0  0  0  0
 20 62  1  6  0  0  0
 21 27  1  0  0  0  0
 21 63  1  0  0  0  0
 21 64  1  0  0  0  0
 22 65  1  0  0  0  0
 23 24  1  0  0  0  0
 23 66  1  0  0  0  0
 23 67  1  0  0  0  0
 24 25  1  0  0  0  0
 24 68  1  0  0  0  0
 24 69  1  0  0  0  0
 25 26  1  0  0  0  0
 25 70  1  0  0  0  0
 25 71  1  0  0  0  0
 26 33  2  0  0  0  0
 26 37  1  0  0  0  0
 27 28  2  0  0  0  0
 27 32  1  0  0  0  0
 28 29  1  0  0  0  0
 28 72  1  0  0  0  0
 29 30  2  0  0  0  0
 29 41  1  0  0  0  0
 30 31  1  0  0  0  0
 30 73  1  0  0  0  0
 31 32  2  0  0  0  0
 31 42  1  0  0  0  0
 32 74  1  0  0  0  0
 33 34  1  0  0  0  0
 33 75  1  0  0  0  0
 34 35  2  0  0  0  0
 34 76  1  0  0  0  0
 35 36  1  0  0  0  0
 35 77  1  0  0  0  0
 36 37  2  0  0  0  0
 36 38  1  0  0  0  0
 37 78  1  0  0  0  0
 38 39  1  0  0  0  0
 39 79  1  0  0  0  0
 39 80  1  0  0  0  0
 39 81  1  0  0  0  0
 40 82  1  0  0  0  0
 40 83  1  0  0  0  0
 40 84  1  0  0  0  0
M  CHG  1  24   1
M  END
