3l5e_ligand
 OpenBabel08222323343D

 89 93  0  0  1  0  0  0  0  0999 V2000
   20.3470   10.8870   22.0080 C   0  0  1  0  0  0  0  0  0  0  0  0
   21.0260    9.7710   22.6680 N   0  0  0  0  0  0  0  0  0  0  0  0
   20.2880   13.2200   22.7770 O   0  0  0  0  0  0  0  0  0  0  0  0
   21.6220   10.2740   23.7840 C   0  0  2  0  0  3  0  0  0  0  0  0
   21.4180   11.5980   23.9550 N   0  0  0  0  0  0  0  0  0  0  0  0
   28.4740   14.4550   24.7430 O   0  0  0  0  0  0  0  0  0  0  0  0
   20.6650   12.0640   22.9430 C   0  0  0  0  0  0  0  0  0  0  0  0
   22.3460    9.5500   24.6460 N   0  0  0  0  0  0  0  0  0  0  0  0
   20.9180   11.1270   20.5880 C   0  0  0  0  0  0  0  0  0  0  0  0
   27.5370   15.0610   22.7630 N   0  0  0  0  0  0  0  0  0  0  0  0
   18.8330   10.6660   21.9340 C   0  0  0  0  0  0  0  0  0  0  0  0
   29.3520   13.8200   22.7360 N   0  0  0  0  0  0  0  0  0  0  0  0
   22.3870   11.5800   20.5360 C   0  0  0  0  0  0  0  0  0  0  0  0
   21.9370   12.4150   25.0590 C   0  0  0  0  0  0  0  0  0  0  0  0
   23.0820   13.2950   24.6000 C   0  0  0  0  0  0  0  0  0  0  0  0
   22.9760   14.7140   24.6730 C   0  0  0  0  0  0  0  0  0  0  0  0
   24.0590   15.5380   24.2370 C   0  0  0  0  0  0  0  0  0  0  0  0
   25.2520   14.9460   23.7260 C   0  0  0  0  0  0  0  0  0  0  0  0
   25.3490   13.5210   23.6560 C   0  0  0  0  0  0  0  0  0  0  0  0
   24.2720   12.7010   24.0900 C   0  0  0  0  0  0  0  0  0  0  0  0
   23.3360   10.4030   20.7660 C   0  0  0  0  0  0  0  0  0  0  0  0
   24.7960   10.7240   20.4620 C   0  0  0  0  0  0  0  0  0  0  0  0
   24.9600   11.2420   19.0450 C   0  0  0  0  0  0  0  0  0  0  0  0
   24.1390   12.5040   18.8620 C   0  0  0  0  0  0  0  0  0  0  0  0
   22.6670   12.2530   19.1830 C   0  0  0  0  0  0  0  0  0  0  0  0
   18.1750   10.6840   23.3010 C   0  0  0  0  0  0  0  0  0  0  0  0
   26.4000   15.8400   23.2670 C   0  0  0  0  0  0  0  0  0  0  0  0
   27.7150   14.9140   21.3320 C   0  0  0  0  0  0  0  0  0  0  0  0
   28.9830   14.0280   21.3240 C   0  0  2  0  0  0  0  0  0  0  0  0
   28.4600   14.4450   23.5110 C   0  0  0  0  0  0  0  0  0  0  0  0
   28.6160   12.6810   20.6720 C   0  0  0  0  0  0  0  0  0  0  0  0
   29.1970   11.4300   21.2870 C   0  0  0  0  0  0  0  0  0  0  0  0
   28.5700   10.1590   20.6830 C   0  0  0  0  0  0  0  0  0  0  0  0
   16.7170   10.2260   23.2770 C   0  0  0  0  0  0  0  0  0  0  0  0
   16.1830   10.1010   24.6990 C   0  0  0  0  0  0  0  0  0  0  0  0
   14.7050    9.7250   24.7480 C   0  0  0  0  0  0  0  0  0  0  0  0
   13.8560   10.7110   23.9440 C   0  0  0  0  0  0  0  0  0  0  0  0
   14.3560   10.8830   22.5120 C   0  0  0  0  0  0  0  0  0  0  0  0
   15.8540   11.1840   22.4490 C   0  0  0  0  0  0  0  0  0  0  0  0
   21.0486    8.7919   22.3490 H   0  0  0  0  0  0  0  0  0  0  0  0
   22.4816    8.5417   24.4849 H   0  0  0  0  0  0  0  0  0  0  0  0
   22.7676   10.0011   25.4704 H   0  0  0  0  0  0  0  0  0  0  0  0
   20.3065   11.9019   20.1027 H   0  0  0  0  0  0  0  0  0  0  0  0
   20.8328   10.1862   20.0244 H   0  0  0  0  0  0  0  0  0  0  0  0
   18.6416    9.6904   21.4634 H   0  0  0  0  0  0  0  0  0  0  0  0
   18.3899   11.4631   21.3189 H   0  0  0  0  0  0  0  0  0  0  0  0
   30.1402   13.2972   23.0607 H   0  0  0  0  0  0  0  0  0  0  0  0
   22.5536   12.3174   21.3350 H   0  0  0  0  0  0  0  0  0  0  0  0
   22.2941   11.7506   25.8597 H   0  0  0  0  0  0  0  0  0  0  0  0
   21.1276   13.0521   25.4449 H   0  0  0  0  0  0  0  0  0  0  0  0
   22.0718   15.1695   25.0602 H   0  0  0  0  0  0  0  0  0  0  0  0
   23.9736   16.6171   24.2948 H   0  0  0  0  0  0  0  0  0  0  0  0
   26.2515   13.0622   23.2687 H   0  0  0  0  0  0  0  0  0  0  0  0
   24.3564   11.6218   24.0327 H   0  0  0  0  0  0  0  0  0  0  0  0
   23.0212    9.5714   20.1185 H   0  0  0  0  0  0  0  0  0  0  0  0
   23.2600   10.0964   21.8197 H   0  0  0  0  0  0  0  0  0  0  0  0
   25.3968    9.8104   20.5819 H   0  0  0  0  0  0  0  0  0  0  0  0
   25.1494   11.4905   21.1674 H   0  0  0  0  0  0  0  0  0  0  0  0
   24.6163   10.4763   18.3340 H   0  0  0  0  0  0  0  0  0  0  0  0
   26.0206   11.4660   18.8583 H   0  0  0  0  0  0  0  0  0  0  0  0
   24.2268   12.8417   17.8188 H   0  0  0  0  0  0  0  0  0  0  0  0
   24.5252   13.2846   19.5339 H   0  0  0  0  0  0  0  0  0  0  0  0
   22.1487   13.2232   19.1740 H   0  0  0  0  0  0  0  0  0  0  0  0
   22.2536   11.6090   18.3928 H   0  0  0  0  0  0  0  0  0  0  0  0
   18.2117   11.7113   23.6925 H   0  0  0  0  0  0  0  0  0  0  0  0
   18.7394   10.0167   23.9689 H   0  0  0  0  0  0  0  0  0  0  0  0
   26.0375   16.4990   22.4643 H   0  0  0  0  0  0  0  0  0  0  0  0
   26.7370   16.4499   24.1181 H   0  0  0  0  0  0  0  0  0  0  0  0
   27.8871   15.8817   20.8380 H   0  0  0  0  0  0  0  0  0  0  0  0
   26.8584   14.4093   20.8613 H   0  0  0  0  0  0  0  0  0  0  0  0
   29.8031   14.5115   20.7730 H   0  0  0  0  0  0  0  0  0  0  0  0
   28.9500   12.7195   19.6247 H   0  0  0  0  0  0  0  0  0  0  0  0
   27.5206   12.5864   20.7043 H   0  0  0  0  0  0  0  0  0  0  0  0
   29.0059   11.4425   22.3702 H   0  0  0  0  0  0  0  0  0  0  0  0
   30.2819   11.4137   21.1062 H   0  0  0  0  0  0  0  0  0  0  0  0
   29.0163    9.2707   21.1538 H   0  0  0  0  0  0  0  0  0  0  0  0
   28.7610   10.1350   19.6000 H   0  0  0  0  0  0  0  0  0  0  0  0
   27.4850   10.1638   20.8640 H   0  0  0  0  0  0  0  0  0  0  0  0
   16.6751    9.2335   22.8045 H   0  0  0  0  0  0  0  0  0  0  0  0
   16.3167   11.0658   25.2101 H   0  0  0  0  0  0  0  0  0  0  0  0
   16.7599    9.3251   25.2235 H   0  0  0  0  0  0  0  0  0  0  0  0
   14.3676    9.7318   25.7949 H   0  0  0  0  0  0  0  0  0  0  0  0
   14.5773    8.7163   24.3281 H   0  0  0  0  0  0  0  0  0  0  0  0
   13.8816   11.6893   24.4461 H   0  0  0  0  0  0  0  0  0  0  0  0
   12.8204   10.3414   23.9137 H   0  0  0  0  0  0  0  0  0  0  0  0
   13.8088   11.7148   22.0444 H   0  0  0  0  0  0  0  0  0  0  0  0
   14.1586    9.9551   21.9552 H   0  0  0  0  0  0  0  0  0  0  0  0
   16.1759   11.1200   21.3991 H   0  0  0  0  0  0  0  0  0  0  0  0
   16.0174   12.2062   22.8210 H   0  0  0  0  0  0  0  0  0  0  0  0
  1  2  1  0  0  0  0
  1  9  1  6  0  0  0
  1 11  1  0  0  0  0
  2 40  1  0  0  0  0
  4  2  1  0  0  0  0
  4  8  1  6  0  0  0
  5  4  1  0  0  0  0
  5  7  1  0  0  0  0
  7  1  1  0  0  0  0
  7  3  2  0  0  0  0
  8 41  1  0  0  0  0
  8 42  1  0  0  0  0
  9 13  1  0  0  0  0
  9 43  1  0  0  0  0
  9 44  1  0  0  0  0
 10 28  1  0  0  0  0
 10 30  1  0  0  0  0
 11 26  1  0  0  0  0
 11 45  1  0  0  0  0
 11 46  1  0  0  0  0
 12 29  1  0  0  0  0
 12 47  1  0  0  0  0
 13 21  1  0  0  0  0
 13 25  1  0  0  0  0
 13 48  1  0  0  0  0
 14  5  1  0  0  0  0
 14 49  1  0  0  0  0
 14 50  1  0  0  0  0
 15 14  1  0  0  0  0
 15 20  1  0  0  0  0
 16 15  2  0  0  0  0
 16 51  1  0  0  0  0
 17 16  1  0  0  0  0
 17 52  1  0  0  0  0
 18 17  2  0  0  0  0
 18 19  1  0  0  0  0
 18 27  1  0  0  0  0
 19 20  2  0  0  0  0
 19 53  1  0  0  0  0
 20 54  1  0  0  0  0
 21 22  1  0  0  0  0
 21 55  1  0  0  0  0
 21 56  1  0  0  0  0
 22 23  1  0  0  0  0
 22 57  1  0  0  0  0
 22 58  1  0  0  0  0
 23 24  1  0  0  0  0
 23 59  1  0  0  0  0
 23 60  1  0  0  0  0
 24 25  1  0  0  0  0
 24 61  1  0  0  0  0
 24 62  1  0  0  0  0
 25 63  1  0  0  0  0
 25 64  1  0  0  0  0
 26 34  1  0  0  0  0
 26 65  1  0  0  0  0
 26 66  1  0  0  0  0
 27 10  1  0  0  0  0
 27 67  1  0  0  0  0
 27 68  1  0  0  0  0
 28 29  1  0  0  0  0
 28 69  1  0  0  0  0
 28 70  1  0  0  0  0
 29 31  1  0  0  0  0
 29 71  1  6  0  0  0
 30  6  2  0  0  0  0
 30 12  1  0  0  0  0
 31 32  1  0  0  0  0
 31 72  1  0  0  0  0
 31 73  1  0  0  0  0
 32 33  1  0  0  0  0
 32 74  1  0  0  0  0
 32 75  1  0  0  0  0
 33 76  1  0  0  0  0
 33 77  1  0  0  0  0
 33 78  1  0  0  0  0
 34 35  1  0  0  0  0
 34 39  1  0  0  0  0
 34 79  1  0  0  0  0
 35 36  1  0  0  0  0
 35 80  1  0  0  0  0
 35 81  1  0  0  0  0
 36 37  1  0  0  0  0
 36 82  1  0  0  0  0
 36 83  1  0  0  0  0
 37 38  1  0  0  0  0
 37 84  1  0  0  0  0
 37 85  1  0  0  0  0
 38 39  1  0  0  0  0
 38 86  1  0  0  0  0
 38 87  1  0  0  0  0
 39 88  1  0  0  0  0
 39 89  1  0  0  0  0
M  END
