3l5f_ligand
 OpenBabel08222323343D

 57 59  0  0  1  0  0  0  0  0999 V2000
   21.8760   10.0680   23.9510 C   0  0  1  0  0  3  0  0  0  0  0  0
   21.8230   11.4090   24.1020 N   0  0  0  0  0  0  0  0  0  0  0  0
   20.8220   13.1100   22.9070 O   0  0  0  0  0  0  0  0  0  0  0  0
   21.0900   11.9250   23.0950 C   0  0  0  0  0  0  0  0  0  0  0  0
   21.2030    9.6030   22.8680 N   0  0  0  0  0  0  0  0  0  0  0  0
   20.6170   10.7640   22.2050 C   0  0  1  0  0  0  0  0  0  0  0  0
   22.5410    9.2920   24.8060 N   0  0  0  0  0  0  0  0  0  0  0  0
   19.0830   10.7130   22.2210 C   0  0  0  0  0  0  0  0  0  0  0  0
   22.5190   11.3120   20.4990 C   0  0  0  0  0  0  0  0  0  0  0  0
   23.5300   10.2400   20.8960 C   0  0  0  0  0  0  0  0  0  0  0  0
   24.9510   10.5350   20.4320 C   0  0  0  0  0  0  0  0  0  0  0  0
   24.9910   10.7910   18.9350 C   0  0  0  0  0  0  0  0  0  0  0  0
   24.1130   11.9600   18.5710 C   0  0  0  0  0  0  0  0  0  0  0  0
   22.6810   11.7280   19.0270 C   0  0  0  0  0  0  0  0  0  0  0  0
   21.0760   10.8830   20.7450 C   0  0  0  0  0  0  0  0  0  0  0  0
   18.4870   10.6260   23.6120 C   0  0  0  0  0  0  0  0  0  0  0  0
   17.0040   10.2220   23.6080 C   0  0  0  0  0  0  0  0  0  0  0  0
   16.4470   10.0440   25.0170 C   0  0  0  0  0  0  0  0  0  0  0  0
   14.9700    9.6640   25.0330 C   0  0  0  0  0  0  0  0  0  0  0  0
   14.1380   10.6630   24.2380 C   0  0  0  0  0  0  0  0  0  0  0  0
   14.6570   10.8360   22.8070 C   0  0  0  0  0  0  0  0  0  0  0  0
   16.1470   11.1820   22.7800 C   0  0  0  0  0  0  0  0  0  0  0  0
   22.4480   12.1690   25.1650 C   0  0  0  0  0  0  0  0  0  0  0  0
   21.1214    8.6201   22.5711 H   0  0  0  0  0  0  0  0  0  0  0  0
   23.0310    9.7121   25.6087 H   0  0  0  0  0  0  0  0  0  0  0  0
   22.5650    8.2721   24.6642 H   0  0  0  0  0  0  0  0  0  0  0  0
   18.7596    9.8304   21.6496 H   0  0  0  0  0  0  0  0  0  0  0  0
   18.7009   11.6237   21.7366 H   0  0  0  0  0  0  0  0  0  0  0  0
   22.7170   12.1949   21.1245 H   0  0  0  0  0  0  0  0  0  0  0  0
   23.2126    9.2834   20.4554 H   0  0  0  0  0  0  0  0  0  0  0  0
   23.5336   10.1554   21.9927 H   0  0  0  0  0  0  0  0  0  0  0  0
   25.5928    9.6731   20.6671 H   0  0  0  0  0  0  0  0  0  0  0  0
   25.3245   11.4250   20.9595 H   0  0  0  0  0  0  0  0  0  0  0  0
   24.6362    9.8944   18.4057 H   0  0  0  0  0  0  0  0  0  0  0  0
   26.0261   11.0092   18.6335 H   0  0  0  0  0  0  0  0  0  0  0  0
   24.1258   12.0934   17.4792 H   0  0  0  0  0  0  0  0  0  0  0  0
   24.5025   12.8673   19.0559 H   0  0  0  0  0  0  0  0  0  0  0  0
   22.1202   12.6619   18.8741 H   0  0  0  0  0  0  0  0  0  0  0  0
   22.2492   10.9341   18.4000 H   0  0  0  0  0  0  0  0  0  0  0  0
   20.4238   11.6191   20.2523 H   0  0  0  0  0  0  0  0  0  0  0  0
   20.9390    9.8984   20.2741 H   0  0  0  0  0  0  0  0  0  0  0  0
   18.5806   11.6097   24.0952 H   0  0  0  0  0  0  0  0  0  0  0  0
   19.0518    9.8789   24.1889 H   0  0  0  0  0  0  0  0  0  0  0  0
   16.9458    9.2393   23.1171 H   0  0  0  0  0  0  0  0  0  0  0  0
   16.5710   10.9899   25.5646 H   0  0  0  0  0  0  0  0  0  0  0  0
   17.0180    9.2507   25.5215 H   0  0  0  0  0  0  0  0  0  0  0  0
   14.6143    9.6481   26.0738 H   0  0  0  0  0  0  0  0  0  0  0  0
   14.8514    8.6644   24.5896 H   0  0  0  0  0  0  0  0  0  0  0  0
   14.1714   11.6373   24.7475 H   0  0  0  0  0  0  0  0  0  0  0  0
   13.0984   10.3059   24.1974 H   0  0  0  0  0  0  0  0  0  0  0  0
   14.0947   11.6463   22.3200 H   0  0  0  0  0  0  0  0  0  0  0  0
   14.4996    9.8974   22.2554 H   0  0  0  0  0  0  0  0  0  0  0  0
   16.4945   11.1497   21.7368 H   0  0  0  0  0  0  0  0  0  0  0  0
   16.2769   12.1990   23.1785 H   0  0  0  0  0  0  0  0  0  0  0  0
   22.9793   11.4839   25.8420 H   0  0  0  0  0  0  0  0  0  0  0  0
   21.6767   12.7154   25.7276 H   0  0  0  0  0  0  0  0  0  0  0  0
   23.1627   12.8848   24.7327 H   0  0  0  0  0  0  0  0  0  0  0  0
  1  2  1  0  0  0  0
  1  7  1  6  0  0  0
  2 23  1  0  0  0  0
  4  2  1  0  0  0  0
  4  3  2  0  0  0  0
  5  1  1  0  0  0  0
  5 24  1  0  0  0  0
  6  4  1  0  0  0  0
  6  5  1  0  0  0  0
  6  8  1  1  0  0  0
  7 25  1  0  0  0  0
  7 26  1  0  0  0  0
  8 16  1  0  0  0  0
  8 27  1  0  0  0  0
  8 28  1  0  0  0  0
  9 10  1  0  0  0  0
  9 14  1  0  0  0  0
  9 15  1  0  0  0  0
  9 29  1  0  0  0  0
 10 11  1  0  0  0  0
 10 30  1  0  0  0  0
 10 31  1  0  0  0  0
 11 12  1  0  0  0  0
 11 32  1  0  0  0  0
 11 33  1  0  0  0  0
 12 13  1  0  0  0  0
 12 34  1  0  0  0  0
 12 35  1  0  0  0  0
 13 14  1  0  0  0  0
 13 36  1  0  0  0  0
 13 37  1  0  0  0  0
 14 38  1  0  0  0  0
 14 39  1  0  0  0  0
 15  6  1  0  0  0  0
 15 40  1  0  0  0  0
 15 41  1  0  0  0  0
 16 17  1  0  0  0  0
 16 42  1  0  0  0  0
 16 43  1  0  0  0  0
 17 18  1  0  0  0  0
 17 22  1  0  0  0  0
 17 44  1  0  0  0  0
 18 19  1  0  0  0  0
 18 45  1  0  0  0  0
 18 46  1  0  0  0  0
 19 20  1  0  0  0  0
 19 47  1  0  0  0  0
 19 48  1  0  0  0  0
 20 21  1  0  0  0  0
 20 49  1  0  0  0  0
 20 50  1  0  0  0  0
 21 22  1  0  0  0  0
 21 51  1  0  0  0  0
 21 52  1  0  0  0  0
 22 53  1  0  0  0  0
 22 54  1  0  0  0  0
 23 55  1  0  0  0  0
 23 56  1  0  0  0  0
 23 57  1  0  0  0  0
M  END
