3l5r_ligand
 OpenBabel08222323343D

 30 32  0  0  0  0  0  0  0  0999 V2000
   14.8700  -33.3140  -20.6430 C   0  0  0  0  0  0  0  0  0  0  0  0
   14.9420  -34.2350  -19.6020 C   0  0  0  0  0  0  0  0  0  0  0  0
   15.1470  -35.5840  -19.8770 C   0  0  0  0  0  0  0  0  0  0  0  0
   14.9990  -33.7410  -21.9620 C   0  0  0  0  0  0  0  0  0  0  0  0
   15.2010  -35.0910  -22.2380 C   0  0  0  0  0  0  0  0  0  0  0  0
   15.2770  -36.0100  -21.1950 C   0  0  0  0  0  0  0  0  0  0  0  0
   15.4870  -37.3290  -21.4600 O   0  0  0  0  0  0  0  0  0  0  0  0
   15.7960  -37.7410  -22.7210 C   0  0  0  0  0  0  0  0  0  0  0  0
   15.7020  -36.8580  -23.7920 C   0  0  0  0  0  0  0  0  0  0  0  0
   15.3220  -35.5400  -23.5500 C   0  0  0  0  0  0  0  0  0  0  0  0
   15.9960  -37.2990  -25.0780 C   0  0  0  0  0  0  0  0  0  0  0  0
   17.1970  -36.9350  -25.6820 C   0  0  0  0  0  0  0  0  0  0  0  0
   17.5020  -37.3890  -26.9620 C   0  0  0  0  0  0  0  0  0  0  0  0
   16.6050  -38.2100  -27.6400 C   0  0  0  0  0  0  0  0  0  0  0  0
   15.4040  -38.5750  -27.0390 C   0  0  0  0  0  0  0  0  0  0  0  0
   15.1000  -38.1200  -25.7590 C   0  0  0  0  0  0  0  0  0  0  0  0
   16.9040  -38.6570  -28.8900 O   0  0  0  0  0  0  0  0  0  0  0  0
   18.6760  -37.0300  -27.5480 O   0  0  0  0  0  0  0  0  0  0  0  0
   14.7890  -33.8260  -18.3150 O   0  0  0  0  0  0  0  0  0  0  0  0
   15.2080  -34.7500  -24.4860 O   0  0  0  0  0  0  0  0  0  0  0  0
   14.7134  -32.2634  -20.4267 H   0  0  0  0  0  0  0  0  0  0  0  0
   15.2052  -36.3010  -19.0661 H   0  0  0  0  0  0  0  0  0  0  0  0
   14.9423  -33.0237  -22.7728 H   0  0  0  0  0  0  0  0  0  0  0  0
   16.1184  -38.7671  -22.8918 H   0  0  0  0  0  0  0  0  0  0  0  0
   17.8960  -36.2965  -25.1540 H   0  0  0  0  0  0  0  0  0  0  0  0
   14.7054  -39.2135  -27.5675 H   0  0  0  0  0  0  0  0  0  0  0  0
   14.1645  -38.4050  -25.2914 H   0  0  0  0  0  0  0  0  0  0  0  0
   17.7526  -38.3193  -29.1513 H   0  0  0  0  0  0  0  0  0  0  0  0
   19.1671  -36.4730  -26.9554 H   0  0  0  0  0  0  0  0  0  0  0  0
   15.5674  -34.0493  -17.8183 H   0  0  0  0  0  0  0  0  0  0  0  0
  1  2  2  0  0  0  0
  1  4  1  0  0  0  0
  1 21  1  0  0  0  0
  2  3  1  0  0  0  0
  2 19  1  0  0  0  0
  3  6  2  0  0  0  0
  3 22  1  0  0  0  0
  4  5  2  0  0  0  0
  4 23  1  0  0  0  0
  5  6  1  0  0  0  0
  5 10  1  0  0  0  0
  6  7  1  0  0  0  0
  7  8  1  0  0  0  0
  8  9  2  0  0  0  0
  8 24  1  0  0  0  0
  9 10  1  0  0  0  0
  9 11  1  0  0  0  0
 10 20  2  0  0  0  0
 11 12  2  0  0  0  0
 11 16  1  0  0  0  0
 12 13  1  0  0  0  0
 12 25  1  0  0  0  0
 13 14  2  0  0  0  0
 13 18  1  0  0  0  0
 14 15  1  0  0  0  0
 14 17  1  0  0  0  0
 15 16  2  0  0  0  0
 15 26  1  0  0  0  0
 16 27  1  0  0  0  0
 17 28  1  0  0  0  0
 18 29  1  0  0  0  0
 19 30  1  0  0  0  0
M  END
