3l6f_ligand
 OpenBabel08222323343D

223227  0  0  1  0  0  0  0  0999 V2000
  -17.6270   30.8900   18.3040 N   0  3  0  0  0  0  0  0  0  0  0  0
  -18.7540   29.9280   18.1210 C   0  0  2  0  0  0  0  0  0  0  0  0
  -19.6730   30.3290   16.9760 C   0  0  0  0  0  0  0  0  0  0  0  0
  -20.8690   30.0090   16.9900 O   0  0  0  0  0  0  0  0  0  0  0  0
  -19.5610   29.8080   19.4140 C   0  0  0  0  0  0  0  0  0  0  0  0
  -19.1460   31.0530   15.9710 N   0  0  0  0  0  0  0  0  0  0  0  0
  -20.1060   31.3820   14.9140 C   0  0  2  0  0  0  0  0  0  0  0  0
  -20.5570   30.0460   14.3350 C   0  0  0  0  0  0  0  0  0  0  0  0
  -19.7750   29.0940   14.3070 O   0  0  0  0  0  0  0  0  0  0  0  0
  -19.2770   32.2100   13.9350 C   0  0  0  0  0  0  0  0  0  0  0  0
  -17.9110   31.6070   14.0760 C   0  0  0  0  0  0  0  0  0  0  0  0
  -17.7770   31.4320   15.5800 C   0  0  0  0  0  0  0  0  0  0  0  0
  -21.8250   29.9500   13.9020 N   0  0  0  0  0  0  0  0  0  0  0  0
  -22.3520   28.7100   13.3300 C   0  0  2  0  0  0  0  0  0  0  0  0
  -21.2560   27.9940   12.5370 C   0  0  0  0  0  0  0  0  0  0  0  0
  -20.5130   28.6140   11.7740 O   0  0  0  0  0  0  0  0  0  0  0  0
  -23.4900   29.2030   12.4550 C   0  0  0  0  0  0  0  0  0  0  0  0
  -24.0380   30.3320   13.2880 C   0  0  0  0  0  0  0  0  0  0  0  0
  -22.7830   31.0560   13.7340 C   0  0  0  0  0  0  0  0  0  0  0  0
  -21.1500   26.6890   12.7370 N   0  0  0  0  0  0  0  0  0  0  0  0
  -20.1160   25.9280   12.0630 C   0  0  2  0  0  0  0  0  0  0  0  0
  -20.6230   25.0080   10.9670 C   0  0  0  0  0  0  0  0  0  0  0  0
  -21.6480   24.3270   11.1130 O   0  0  0  0  0  0  0  0  0  0  0  0
  -19.3150   25.1260   13.0970 C   0  0  0  0  0  0  0  0  0  0  0  0
  -19.9120   25.0220    9.8420 N   0  0  0  0  0  0  0  0  0  0  0  0
  -20.2560   24.1310    8.7480 C   0  0  2  0  0  0  0  0  0  0  0  0
  -19.8740   22.7570    9.2920 C   0  0  0  0  0  0  0  0  0  0  0  0
  -18.8310   22.6140    9.9430 O   0  0  0  0  0  0  0  0  0  0  0  0
  -19.4350   24.4780    7.5050 C   0  0  0  0  0  0  0  0  0  0  0  0
  -20.1190   25.5090    6.6320 C   0  0  0  0  0  0  0  0  0  0  0  0
  -21.2110   25.1490    5.8490 C   0  0  0  0  0  0  0  0  0  0  0  0
  -19.7300   26.8540    6.6510 C   0  0  0  0  0  0  0  0  0  0  0  0
  -21.9130   26.0960    5.1030 C   0  0  0  0  0  0  0  0  0  0  0  0
  -20.4350   27.8220    5.9100 C   0  0  0  0  0  0  0  0  0  0  0  0
  -21.5240   27.4320    5.1420 C   0  0  0  0  0  0  0  0  0  0  0  0
  -22.2520   28.3570    4.4210 O   0  0  0  0  0  0  0  0  0  0  0  0
  -20.7230   21.7610    9.0670 N   0  0  0  0  0  0  0  0  0  0  0  0
  -20.4390   20.4160    9.5590 C   0  0  2  0  0  0  0  0  0  0  0  0
  -20.1050   19.4710    8.4070 C   0  0  0  0  0  0  0  0  0  0  0  0
  -20.7880   19.4510    7.3810 O   0  0  0  0  0  0  0  0  0  0  0  0
  -21.6370   19.8840   10.3690 C   0  0  0  0  0  0  0  0  0  0  0  0
  -21.8090   20.6000   11.7030 C   0  0  0  0  0  0  0  0  0  0  0  0
  -20.5950   20.4100   12.6080 C   0  0  0  0  0  0  0  0  0  0  0  0
  -20.3260   21.2850   13.4650 O   0  5  0  0  0  0  0  0  0  0  0  0
  -19.9100   19.3680   12.4620 O   0  0  0  0  0  0  0  0  0  0  0  0
  -19.0460   18.6930    8.5760 N   0  0  0  0  0  0  0  0  0  0  0  0
  -18.6330   17.7650    7.5320 C   0  0  2  0  0  0  0  0  0  0  0  0
  -19.2700   16.3990    7.6890 C   0  0  0  0  0  0  0  0  0  0  0  0
  -19.7890   16.0520    8.7510 O   0  0  0  0  0  0  0  0  0  0  0  0
  -17.1150   17.5640    7.5660 C   0  0  0  0  0  0  0  0  0  0  0  0
  -16.6530   16.6300    8.7030 C   0  0  0  0  0  0  0  0  0  0  0  0
  -15.2080   16.2230    8.5130 C   0  0  0  0  0  0  0  0  0  0  0  0
  -14.7540   15.2020    9.5590 C   0  0  0  0  0  0  0  0  0  0  0  0
  -14.5850   15.7850   10.9260 N   0  3  0  0  0  0  0  0  0  0  0  0
  -19.2300   15.6300    6.6100 N   0  0  0  0  0  0  0  0  0  0  0  0
  -19.6840   14.2590    6.6550 C   0  0  2  0  0  0  0  0  0  0  0  0
  -18.3020   13.5540    6.5490 C   0  0  0  0  0  0  0  0  0  0  0  0
  -17.4740   13.8950    5.6850 O   0  0  0  0  0  0  0  0  0  0  0  0
  -20.6190   13.9690    5.4800 C   0  0  0  0  0  0  0  0  0  0  0  0
  -21.9610   13.2850    5.7860 C   0  0  0  0  0  0  0  0  0  0  0  0
  -22.5290   13.7380    7.1310 C   0  0  0  0  0  0  0  0  0  0  0  0
  -22.9470   13.5720    4.6550 C   0  0  0  0  0  0  0  0  0  0  0  0
  -18.0450   12.6160    7.4610 N   0  0  0  0  0  0  0  0  0  0  0  0
  -16.7410   11.8830    7.5580 C   0  0  1  0  0  0  0  0  0  0  0  0
  -16.6640   11.2320    8.9520 C   0  0  0  0  0  0  0  0  0  0  0  0
  -16.7820   12.3190    9.8780 O   0  0  0  0  0  0  0  0  0  0  0  0
  -16.6070   10.8380    6.4820 C   0  0  0  0  0  0  0  0  0  0  0  0
  -17.5370   10.1430    6.1700 O   0  0  0  0  0  0  0  0  0  0  0  0
  -16.7590   11.8020   11.4140 P   0  0  0  0  0  0  0  0  0  0  0  0
  -15.5050   11.0720   11.7180 O   0  0  0  0  0  1  0  0  0  0  0  0
  -16.8920   13.0730   12.3600 O   0  0  0  0  0  1  0  0  0  0  0  0
  -18.0200   10.8200   11.6470 O   0  0  0  0  0  0  0  0  0  0  0  0
  -15.4000   10.7580    5.9200 N   0  0  0  0  0  0  0  0  0  0  0  0
  -15.0780    9.8040    4.8550 C   0  0  2  0  0  0  0  0  0  0  0  0
  -15.0430    8.4220    5.4730 C   0  0  0  0  0  0  0  0  0  0  0  0
  -14.5050    8.2460    6.5600 O   0  0  0  0  0  0  0  0  0  0  0  0
  -13.7210   10.1250    4.2480 C   0  0  0  0  0  0  0  0  0  0  0  0
  -15.6210    7.4470    4.7940 N   0  0  0  0  0  0  0  0  0  0  0  0
  -15.6150    6.1020    5.3240 C   0  0  2  0  0  0  0  0  0  0  0  0
  -14.4500    5.2910    4.7460 C   0  0  0  0  0  0  0  0  0  0  0  0
  -14.1240    5.4050    3.5610 O   0  0  0  0  0  0  0  0  0  0  0  0
  -16.9640    5.4460    5.0420 C   0  0  0  0  0  0  0  0  0  0  0  0
  -18.1080    6.0920    5.8510 C   0  0  0  0  0  0  0  0  0  0  0  0
  -17.8420    6.0860    7.3700 C   0  0  0  0  0  0  0  0  0  0  0  0
  -17.5950    4.9940    7.9340 O   0  5  0  0  0  0  0  0  0  0  0  0
  -17.8840    7.1690    8.0010 O   0  0  0  0  0  0  0  0  0  0  0  0
  -13.8090    4.4840    5.5900 N   0  0  0  0  0  0  0  0  0  0  0  0
  -12.6720    3.6790    5.1490 C   0  0  2  0  0  0  0  0  0  0  0  0
  -13.1390    2.4990    4.3290 C   0  0  0  0  0  0  0  0  0  0  0  0
  -14.0790    1.8120    4.7100 O   0  0  0  0  0  0  0  0  0  0  0  0
  -11.8740    3.1860    6.3450 C   0  0  0  0  0  0  0  0  0  0  0  0
  -11.3900    4.3010    7.2260 C   0  0  0  0  0  0  0  0  0  0  0  0
  -10.6610    3.7840    8.4350 C   0  0  0  0  0  0  0  0  0  0  0  0
   -9.4420    3.5840    8.4010 O   0  0  0  0  0  0  0  0  0  0  0  0
  -11.4060    3.5360    9.5160 N   0  0  0  0  0  0  0  0  0  0  0  0
  -12.4840    2.2760    3.1940 N   0  0  0  0  0  0  0  0  0  0  0  0
  -12.8470    1.1740    2.3180 C   0  0  2  0  0  0  0  0  0  0  0  0
  -12.1590   -0.1110    2.7450 C   0  0  0  0  0  0  0  0  0  0  0  0
  -11.1840   -0.0840    3.5050 O   0  0  0  0  0  0  0  0  0  0  0  0
  -12.4320    1.4680    0.8670 C   0  0  0  0  0  0  0  0  0  0  0  0
  -13.2450    2.4570    0.2710 O   0  0  0  0  0  0  0  0  0  0  0  0
  -12.6860   -1.2550    2.2800 N   0  0  0  0  0  0  0  0  0  0  0  0
  -12.1480   -2.5840    2.5630 C   0  0  2  0  0  0  0  0  0  0  0  0
  -11.2050   -2.8190    1.3820 C   0  0  0  0  0  0  0  0  0  0  0  0
  -11.2670   -2.0910    0.3870 O   0  0  0  0  0  0  0  0  0  0  0  0
  -13.3820   -3.4730    2.4680 C   0  0  0  0  0  0  0  0  0  0  0  0
  -14.1070   -2.8550    1.3040 C   0  0  0  0  0  0  0  0  0  0  0  0
  -14.0000   -1.3630    1.6120 C   0  0  0  0  0  0  0  0  0  0  0  0
  -10.3290   -3.8280    1.4580 N   0  0  0  0  0  0  0  0  0  0  0  0
   -9.4450   -4.0210    0.3010 C   0  0  2  0  0  0  0  0  0  0  0  0
  -10.2040   -4.0390   -1.0410 C   0  0  0  0  0  0  0  0  0  0  0  0
  -11.4370   -4.2520   -1.0260 O   0  5  0  0  0  0  0  0  0  0  0  0
   -8.7520   -5.3530    0.6160 C   0  0  0  0  0  0  0  0  0  0  0  0
   -9.7250   -6.0440    1.5850 C   0  0  0  0  0  0  0  0  0  0  0  0
  -10.1510   -4.9020    2.4510 C   0  0  0  0  0  0  0  0  0  0  0  0
   -9.5630   -3.8360   -2.0970 O   0  0  0  0  0  0  0  0  0  0  0  0
  -17.0466   30.5858   19.0699 H   0  0  0  0  0  0  0  0  0  0  0  0
  -17.9964   31.8059   18.5056 H   0  0  0  0  0  0  0  0  0  0  0  0
  -17.0770   30.9277   17.4601 H   0  0  0  0  0  0  0  0  0  0  0  0
  -18.3249   28.9430   17.8853 H   0  0  0  0  0  0  0  0  0  0  0  0
  -20.3873   29.0971   19.2659 H   0  0  0  0  0  0  0  0  0  0  0  0
  -19.9689   30.7931   19.6844 H   0  0  0  0  0  0  0  0  0  0  0  0
  -18.9075   29.4474   20.2220 H   0  0  0  0  0  0  0  0  0  0  0  0
  -20.9682   31.9543   15.2868 H   0  0  0  0  0  0  0  0  0  0  0  0
  -19.2733   33.2732   14.2172 H   0  0  0  0  0  0  0  0  0  0  0  0
  -19.6538   32.1048   12.9069 H   0  0  0  0  0  0  0  0  0  0  0  0
  -17.1366   32.2831   13.6848 H   0  0  0  0  0  0  0  0  0  0  0  0
  -17.8491   30.6391   13.5570 H   0  0  0  0  0  0  0  0  0  0  0  0
  -17.0571   30.6377   15.8267 H   0  0  0  0  0  0  0  0  0  0  0  0
  -17.4687   32.3699   16.0649 H   0  0  0  0  0  0  0  0  0  0  0  0
  -22.7296   28.0376   14.1144 H   0  0  0  0  0  0  0  0  0  0  0  0
  -24.2439   28.4181   12.2954 H   0  0  0  0  0  0  0  0  0  0  0  0
  -23.1230   29.5622   11.4822 H   0  0  0  0  0  0  0  0  0  0  0  0
  -24.6036   29.9503   14.1508 H   0  0  0  0  0  0  0  0  0  0  0  0
  -24.6838   30.9903   12.6884 H   0  0  0  0  0  0  0  0  0  0  0  0
  -22.4400   31.7671   12.9681 H   0  0  0  0  0  0  0  0  0  0  0  0
  -22.9464   31.5889   14.6823 H   0  0  0  0  0  0  0  0  0  0  0  0
  -21.7856   26.2267   13.3553 H   0  0  0  0  0  0  0  0  0  0  0  0
  -19.4356   26.6510   11.5894 H   0  0  0  0  0  0  0  0  0  0  0  0
  -18.5306   24.5487   12.5856 H   0  0  0  0  0  0  0  0  0  0  0  0
  -19.9884   24.4381   13.6292 H   0  0  0  0  0  0  0  0  0  0  0  0
  -18.8516   25.8161   13.8174 H   0  0  0  0  0  0  0  0  0  0  0  0
  -19.1380   25.6484    9.7497 H   0  0  0  0  0  0  0  0  0  0  0  0
  -21.3291   24.1814    8.5115 H   0  0  0  0  0  0  0  0  0  0  0  0
  -19.2814   23.5619    6.9158 H   0  0  0  0  0  0  0  0  0  0  0  0
  -18.4607   24.8761    7.8247 H   0  0  0  0  0  0  0  0  0  0  0  0
  -21.5229   24.1113    5.8179 H   0  0  0  0  0  0  0  0  0  0  0  0
  -18.8741   27.1544    7.2445 H   0  0  0  0  0  0  0  0  0  0  0  0
  -22.7580   25.7927    4.4954 H   0  0  0  0  0  0  0  0  0  0  0  0
  -20.1303   28.8619    5.9389 H   0  0  0  0  0  0  0  0  0  0  0  0
  -22.9545   27.9149    3.9590 H   0  0  0  0  0  0  0  0  0  0  0  0
  -21.5649   21.9338    8.5557 H   0  0  0  0  0  0  0  0  0  0  0  0
  -19.5653   20.4685   10.2253 H   0  0  0  0  0  0  0  0  0  0  0  0
  -21.4831   18.8121   10.5622 H   0  0  0  0  0  0  0  0  0  0  0  0
  -22.5525   20.0218    9.7750 H   0  0  0  0  0  0  0  0  0  0  0  0
  -22.6982   20.1982   12.2109 H   0  0  0  0  0  0  0  0  0  0  0  0
  -21.9484   21.6748   11.5150 H   0  0  0  0  0  0  0  0  0  0  0  0
  -18.5253   18.7434    9.4283 H   0  0  0  0  0  0  0  0  0  0  0  0
  -18.9241   18.1862    6.5585 H   0  0  0  0  0  0  0  0  0  0  0  0
  -16.6351   18.5444    7.7018 H   0  0  0  0  0  0  0  0  0  0  0  0
  -16.7978   17.1302    6.6062 H   0  0  0  0  0  0  0  0  0  0  0  0
  -17.2835   15.7287    8.7075 H   0  0  0  0  0  0  0  0  0  0  0  0
  -16.7561   17.1544    9.6644 H   0  0  0  0  0  0  0  0  0  0  0  0
  -14.5740   17.1183    8.5931 H   0  0  0  0  0  0  0  0  0  0  0  0
  -15.0929   15.7805    7.5125 H   0  0  0  0  0  0  0  0  0  0  0  0
  -13.7900   14.7801    9.2386 H   0  0  0  0  0  0  0  0  0  0  0  0
  -15.5054   14.4005    9.6126 H   0  0  0  0  0  0  0  0  0  0  0  0
  -14.2863   15.0641   11.5641 H   0  0  0  0  0  0  0  0  0  0  0  0
  -15.4633   16.1679   11.2390 H   0  0  0  0  0  0  0  0  0  0  0  0
  -13.8914   16.5158   10.8962 H   0  0  0  0  0  0  0  0  0  0  0  0
  -18.8801   16.0046    5.7514 H   0  0  0  0  0  0  0  0  0  0  0  0
  -20.1945   14.0152    7.5984 H   0  0  0  0  0  0  0  0  0  0  0  0
  -20.0731   13.3217    4.7779 H   0  0  0  0  0  0  0  0  0  0  0  0
  -20.8435   14.9299    4.9940 H   0  0  0  0  0  0  0  0  0  0  0  0
  -21.7929   12.1990    5.8350 H   0  0  0  0  0  0  0  0  0  0  0  0
  -23.4866   13.2288    7.3148 H   0  0  0  0  0  0  0  0  0  0  0  0
  -22.6898   14.8260    7.1134 H   0  0  0  0  0  0  0  0  0  0  0  0
  -21.8195   13.4850    7.9326 H   0  0  0  0  0  0  0  0  0  0  0  0
  -22.5164   13.2378    3.6996 H   0  0  0  0  0  0  0  0  0  0  0  0
  -23.1476   14.6526    4.6087 H   0  0  0  0  0  0  0  0  0  0  0  0
  -23.8870   13.0322    4.8422 H   0  0  0  0  0  0  0  0  0  0  0  0
  -18.7635   12.3883    8.1182 H   0  0  0  0  0  0  0  0  0  0  0  0
  -15.9170   12.6035    7.4487 H   0  0  0  0  0  0  0  0  0  0  0  0
  -15.7023   10.7147    9.0842 H   0  0  0  0  0  0  0  0  0  0  0  0
  -17.4875   10.5160    9.0900 H   0  0  0  0  0  0  0  0  0  0  0  0
  -14.6825   11.3768    6.2397 H   0  0  0  0  0  0  0  0  0  0  0  0
  -15.8486    9.8460    4.0712 H   0  0  0  0  0  0  0  0  0  0  0  0
  -13.4950    9.4007    3.4516 H   0  0  0  0  0  0  0  0  0  0  0  0
  -12.9473   10.0659    5.0277 H   0  0  0  0  0  0  0  0  0  0  0  0
  -13.7392   11.1405    3.8256 H   0  0  0  0  0  0  0  0  0  0  0  0
  -16.0610    7.6387    3.9167 H   0  0  0  0  0  0  0  0  0  0  0  0
  -15.4803    6.1577    6.4143 H   0  0  0  0  0  0  0  0  0  0  0  0
  -16.9015    4.3801    5.3064 H   0  0  0  0  0  0  0  0  0  0  0  0
  -17.1887    5.5453    3.9698 H   0  0  0  0  0  0  0  0  0  0  0  0
  -19.0359    5.5349    5.6544 H   0  0  0  0  0  0  0  0  0  0  0  0
  -18.2285    7.1338    5.5193 H   0  0  0  0  0  0  0  0  0  0  0  0
  -14.1111    4.4281    6.5417 H   0  0  0  0  0  0  0  0  0  0  0  0
  -12.0203    4.3071    4.5239 H   0  0  0  0  0  0  0  0  0  0  0  0
  -11.0017    2.6255    5.9777 H   0  0  0  0  0  0  0  0  0  0  0  0
  -12.5132    2.5193    6.9424 H   0  0  0  0  0  0  0  0  0  0  0  0
  -12.2556    4.8927    7.5587 H   0  0  0  0  0  0  0  0  0  0  0  0
  -10.7087    4.9416    6.6469 H   0  0  0  0  0  0  0  0  0  0  0  0
  -10.9768    3.1905   10.3505 H   0  0  0  0  0  0  0  0  0  0  0  0
  -12.3928    3.6959    9.4906 H   0  0  0  0  0  0  0  0  0  0  0  0
  -11.7273    2.8776    2.9379 H   0  0  0  0  0  0  0  0  0  0  0  0
  -13.9371    1.0339    2.3627 H   0  0  0  0  0  0  0  0  0  0  0  0
  -12.5136    0.5412    0.2802 H   0  0  0  0  0  0  0  0  0  0  0  0
  -11.3884    1.8157    0.8602 H   0  0  0  0  0  0  0  0  0  0  0  0
  -14.1483    2.1626    0.2668 H   0  0  0  0  0  0  0  0  0  0  0  0
  -11.6390   -2.6708    3.5343 H   0  0  0  0  0  0  0  0  0  0  0  0
  -13.9837   -3.4251    3.3876 H   0  0  0  0  0  0  0  0  0  0  0  0
  -13.1093   -4.5186    2.2623 H   0  0  0  0  0  0  0  0  0  0  0  0
  -15.1571   -3.1807    1.2698 H   0  0  0  0  0  0  0  0  0  0  0  0
  -13.6153   -3.1017    0.3515 H   0  0  0  0  0  0  0  0  0  0  0  0
  -14.0243   -0.7659    0.6885 H   0  0  0  0  0  0  0  0  0  0  0  0
  -14.8111   -1.0381    2.2802 H   0  0  0  0  0  0  0  0  0  0  0  0
   -8.7007   -3.2121    0.2589 H   0  0  0  0  0  0  0  0  0  0  0  0
   -7.7753   -5.1848    1.0932 H   0  0  0  0  0  0  0  0  0  0  0  0
   -8.6159   -5.9509   -0.2972 H   0  0  0  0  0  0  0  0  0  0  0  0
   -9.2197   -6.8254    2.1715 H   0  0  0  0  0  0  0  0  0  0  0  0
  -10.5803   -6.4824    1.0500 H   0  0  0  0  0  0  0  0  0  0  0  0
  -11.0924   -5.1247    2.9746 H   0  0  0  0  0  0  0  0  0  0  0  0
   -9.3745   -4.6443    3.1862 H   0  0  0  0  0  0  0  0  0  0  0  0
  1  2  1  0  0  0  0
  1117  1  0  0  0  0
  1118  1  0  0  0  0
  1119  1  0  0  0  0
  2  3  1  0  0  0  0
  2  5  1  0  0  0  0
  2120  1  6  0  0  0
  3  4  2  0  0  0  0
  3  6  1  0  0  0  0
  5121  1  0  0  0  0
  5122  1  0  0  0  0
  5123  1  0  0  0  0
  6  7  1  0  0  0  0
  6 12  1  0  0  0  0
  7  8  1  0  0  0  0
  7 10  1  0  0  0  0
  7124  1  1  0  0  0
  8  9  2  0  0  0  0
  8 13  1  0  0  0  0
 10 11  1  0  0  0  0
 10125  1  0  0  0  0
 10126  1  0  0  0  0
 11 12  1  0  0  0  0
 11127  1  0  0  0  0
 11128  1  0  0  0  0
 12129  1  0  0  0  0
 12130  1  0  0  0  0
 13 14  1  0  0  0  0
 13 19  1  0  0  0  0
 14 15  1  0  0  0  0
 14 17  1  0  0  0  0
 14131  1  1  0  0  0
 15 16  2  0  0  0  0
 15 20  1  0  0  0  0
 17 18  1  0  0  0  0
 17132  1  0  0  0  0
 17133  1  0  0  0  0
 18 19  1  0  0  0  0
 18134  1  0  0  0  0
 18135  1  0  0  0  0
 19136  1  0  0  0  0
 19137  1  0  0  0  0
 20 21  1  0  0  0  0
 20138  1  0  0  0  0
 21 22  1  0  0  0  0
 21 24  1  0  0  0  0
 21139  1  6  0  0  0
 22 23  2  0  0  0  0
 22 25  1  0  0  0  0
 24140  1  0  0  0  0
 24141  1  0  0  0  0
 24142  1  0  0  0  0
 25 26  1  0  0  0  0
 25143  1  0  0  0  0
 26 27  1  0  0  0  0
 26 29  1  0  0  0  0
 26144  1  6  0  0  0
 27 28  2  0  0  0  0
 27 37  1  0  0  0  0
 29 30  1  0  0  0  0
 29145  1  0  0  0  0
 29146  1  0  0  0  0
 30 31  2  0  0  0  0
 30 32  1  0  0  0  0
 31 33  1  0  0  0  0
 31147  1  0  0  0  0
 32 34  2  0  0  0  0
 32148  1  0  0  0  0
 33 35  2  0  0  0  0
 33149  1  0  0  0  0
 34 35  1  0  0  0  0
 34150  1  0  0  0  0
 35 36  1  0  0  0  0
 36151  1  0  0  0  0
 37 38  1  0  0  0  0
 37152  1  0  0  0  0
 38 39  1  0  0  0  0
 38 41  1  0  0  0  0
 38153  1  1  0  0  0
 39 40  2  0  0  0  0
 39 46  1  0  0  0  0
 41 42  1  0  0  0  0
 41154  1  0  0  0  0
 41155  1  0  0  0  0
 42 43  1  0  0  0  0
 42156  1  0  0  0  0
 42157  1  0  0  0  0
 43 44  1  0  0  0  0
 43 45  2  0  0  0  0
 46 47  1  0  0  0  0
 46158  1  0  0  0  0
 47 48  1  0  0  0  0
 47 50  1  0  0  0  0
 47159  1  6  0  0  0
 48 49  2  0  0  0  0
 48 55  1  0  0  0  0
 50 51  1  0  0  0  0
 50160  1  0  0  0  0
 50161  1  0  0  0  0
 51 52  1  0  0  0  0
 51162  1  0  0  0  0
 51163  1  0  0  0  0
 52 53  1  0  0  0  0
 52164  1  0  0  0  0
 52165  1  0  0  0  0
 53 54  1  0  0  0  0
 53166  1  0  0  0  0
 53167  1  0  0  0  0
 54168  1  0  0  0  0
 54169  1  0  0  0  0
 54170  1  0  0  0  0
 55 56  1  0  0  0  0
 55171  1  0  0  0  0
 56 57  1  0  0  0  0
 56 59  1  0  0  0  0
 56172  1  1  0  0  0
 57 58  2  0  0  0  0
 57 63  1  0  0  0  0
 59 60  1  0  0  0  0
 59173  1  0  0  0  0
 59174  1  0  0  0  0
 60 61  1  0  0  0  0
 60 62  1  0  0  0  0
 60175  1  0  0  0  0
 61176  1  0  0  0  0
 61177  1  0  0  0  0
 61178  1  0  0  0  0
 62179  1  0  0  0  0
 62180  1  0  0  0  0
 62181  1  0  0  0  0
 63 64  1  0  0  0  0
 63182  1  0  0  0  0
 64 65  1  0  0  0  0
 64 67  1  0  0  0  0
 64183  1  6  0  0  0
 65 66  1  0  0  0  0
 65184  1  0  0  0  0
 65185  1  0  0  0  0
 66 69  1  0  0  0  0
 67 68  2  0  0  0  0
 67 73  1  0  0  0  0
 69 70  1  0  0  0  0
 69 71  1  0  0  0  0
 69 72  2  0  0  0  0
 73 74  1  0  0  0  0
 73186  1  0  0  0  0
 74 75  1  0  0  0  0
 74 77  1  0  0  0  0
 74187  1  6  0  0  0
 75 76  2  0  0  0  0
 75 78  1  0  0  0  0
 77188  1  0  0  0  0
 77189  1  0  0  0  0
 77190  1  0  0  0  0
 78 79  1  0  0  0  0
 78191  1  0  0  0  0
 79 80  1  0  0  0  0
 79 82  1  0  0  0  0
 79192  1  1  0  0  0
 80 81  2  0  0  0  0
 80 87  1  0  0  0  0
 82 83  1  0  0  0  0
 82193  1  0  0  0  0
 82194  1  0  0  0  0
 83 84  1  0  0  0  0
 83195  1  0  0  0  0
 83196  1  0  0  0  0
 84 85  1  0  0  0  0
 84 86  2  0  0  0  0
 87 88  1  0  0  0  0
 87197  1  0  0  0  0
 88 89  1  0  0  0  0
 88 91  1  0  0  0  0
 88198  1  6  0  0  0
 89 90  2  0  0  0  0
 89 96  1  0  0  0  0
 91 92  1  0  0  0  0
 91199  1  0  0  0  0
 91200  1  0  0  0  0
 92 93  1  0  0  0  0
 92201  1  0  0  0  0
 92202  1  0  0  0  0
 93 94  2  0  0  0  0
 93 95  1  0  0  0  0
 95203  1  0  0  0  0
 95204  1  0  0  0  0
 96 97  1  0  0  0  0
 96205  1  0  0  0  0
 97 98  1  0  0  0  0
 97100  1  0  0  0  0
 97206  1  1  0  0  0
 98 99  2  0  0  0  0
 98102  1  0  0  0  0
100101  1  0  0  0  0
100207  1  0  0  0  0
100208  1  0  0  0  0
101209  1  0  0  0  0
102103  1  0  0  0  0
102108  1  0  0  0  0
103104  1  0  0  0  0
103106  1  0  0  0  0
103210  1  1  0  0  0
104105  2  0  0  0  0
104109  1  0  0  0  0
106107  1  0  0  0  0
106211  1  0  0  0  0
106212  1  0  0  0  0
107108  1  0  0  0  0
107213  1  0  0  0  0
107214  1  0  0  0  0
108215  1  0  0  0  0
108216  1  0  0  0  0
109110  1  0  0  0  0
109115  1  0  0  0  0
110111  1  0  0  0  0
110113  1  0  0  0  0
110217  1  6  0  0  0
111112  1  0  0  0  0
111116  2  0  0  0  0
113114  1  0  0  0  0
113218  1  0  0  0  0
113219  1  0  0  0  0
114115  1  0  0  0  0
114220  1  0  0  0  0
114221  1  0  0  0  0
115222  1  0  0  0  0
115223  1  0  0  0  0
M  CHG  5   1   1  44  -1  54   1  85  -1 112  -1
M  END
