3l8x_ligand
 OpenBabel08222323343D

 45 48  0  0  0  0  0  0  0  0999 V2000
   -5.2150   -3.0400  -22.0500 C   0  0  0  0  0  0  0  0  0  0  0  0
   -2.1980   -1.2630  -24.5530 C   0  0  0  0  0  0  0  0  0  0  0  0
   -3.0880   -4.3910  -19.7370 C   0  0  0  0  0  0  0  0  0  0  0  0
   -2.4540   -5.4030  -17.6440 C   0  0  0  0  0  0  0  0  0  0  0  0
   -3.8690   -3.4770  -21.9610 C   0  0  0  0  0  0  0  0  0  0  0  0
   -6.2990   -3.6360  -21.1910 C   0  0  0  0  0  0  0  0  0  0  0  0
   -1.5870    0.5520  -26.0480 C   0  0  0  0  0  0  0  0  0  0  0  0
   -2.8940   -5.5480  -18.9540 C   0  0  0  0  0  0  0  0  0  0  0  0
   -3.2490   -1.8770  -23.6990 C   0  0  0  0  0  0  0  0  0  0  0  0
   -1.2680   -7.9590  -13.1920 C   0  0  0  0  0  0  0  0  0  0  0  0
   -0.8310   -6.7290  -13.6690 C   0  0  0  0  0  0  0  0  0  0  0  0
   -2.0510   -8.7560  -14.0170 C   0  0  0  0  0  0  0  0  0  0  0  0
   -4.5790   -1.4530  -23.7790 C   0  0  0  0  0  0  0  0  0  0  0  0
   -5.5520   -2.0290  -22.9600 C   0  0  0  0  0  0  0  0  0  0  0  0
   -1.1730   -6.2930  -14.9610 C   0  0  0  0  0  0  0  0  0  0  0  0
   -2.3960   -8.3290  -15.3060 C   0  0  0  0  0  0  0  0  0  0  0  0
   -2.8910   -2.8890  -22.7860 C   0  0  0  0  0  0  0  0  0  0  0  0
   -3.0170   -6.9370  -19.1270 C   0  0  0  0  0  0  0  0  0  0  0  0
   -2.4100   -3.1870  -17.8710 C   0  0  0  0  0  0  0  0  0  0  0  0
   -1.9560   -7.0910  -15.7960 C   0  0  0  0  0  0  0  0  0  0  0  0
   -2.6970   -7.6210  -18.0320 N   0  0  0  0  0  0  0  0  0  0  0  0
   -2.2020   -4.2220  -17.0400 N   0  0  0  0  0  0  0  0  0  0  0  0
   -2.8220   -3.1990  -19.1580 N   0  0  0  0  0  0  0  0  0  0  0  0
   -2.3390   -6.6840  -17.1120 N   0  0  0  0  0  0  0  0  0  0  0  0
   -3.5200   -4.4930  -21.0590 N   0  0  0  0  0  0  0  0  0  0  0  0
   -2.5870   -0.3070  -25.4620 N   0  0  0  0  0  0  0  0  0  0  0  0
   -1.0380   -1.6150  -24.4150 O   0  0  0  0  0  0  0  0  0  0  0  0
   -7.2590   -3.1519  -21.4237 H   0  0  0  0  0  0  0  0  0  0  0  0
   -6.0556   -3.4764  -20.1302 H   0  0  0  0  0  0  0  0  0  0  0  0
   -6.3743   -4.7149  -21.3917 H   0  0  0  0  0  0  0  0  0  0  0  0
   -2.0686    1.2517  -26.7469 H   0  0  0  0  0  0  0  0  0  0  0  0
   -0.8507   -0.0593  -26.5903 H   0  0  0  0  0  0  0  0  0  0  0  0
   -1.0793    1.1187  -25.2536 H   0  0  0  0  0  0  0  0  0  0  0  0
   -1.0026   -8.2902  -12.1945 H   0  0  0  0  0  0  0  0  0  0  0  0
   -0.2181   -6.0972  -13.0363 H   0  0  0  0  0  0  0  0  0  0  0  0
   -2.3989   -9.7185  -13.6598 H   0  0  0  0  0  0  0  0  0  0  0  0
   -4.8558   -0.6738  -24.4799 H   0  0  0  0  0  0  0  0  0  0  0  0
   -6.5795   -1.6904  -23.0288 H   0  0  0  0  0  0  0  0  0  0  0  0
   -0.8253   -5.3281  -15.3118 H   0  0  0  0  0  0  0  0  0  0  0  0
   -3.0113   -8.9641  -15.9329 H   0  0  0  0  0  0  0  0  0  0  0  0
   -1.8596   -3.2158  -22.7186 H   0  0  0  0  0  0  0  0  0  0  0  0
   -3.3394   -7.4031  -20.0569 H   0  0  0  0  0  0  0  0  0  0  0  0
   -2.2211   -2.2058  -17.4507 H   0  0  0  0  0  0  0  0  0  0  0  0
   -3.5934   -5.4526  -21.4260 H   0  0  0  0  0  0  0  0  0  0  0  0
   -3.5499   -0.2087  -25.7133 H   0  0  0  0  0  0  0  0  0  0  0  0
  1  6  1  0  0  0  0
  1 14  1  0  0  0  0
  2 26  1  0  0  0  0
  2 27  2  0  0  0  0
  3 23  1  0  0  0  0
  3 25  1  0  0  0  0
  4  8  1  0  0  0  0
  4 22  2  0  0  0  0
  5  1  2  0  0  0  0
  5 17  1  0  0  0  0
  6 28  1  0  0  0  0
  6 29  1  0  0  0  0
  6 30  1  0  0  0  0
  7 31  1  0  0  0  0
  7 32  1  0  0  0  0
  7 33  1  0  0  0  0
  8  3  2  0  0  0  0
  8 18  1  0  0  0  0
  9  2  1  0  0  0  0
  9 13  1  0  0  0  0
 10 34  1  0  0  0  0
 11 10  2  0  0  0  0
 11 35  1  0  0  0  0
 12 10  1  0  0  0  0
 12 36  1  0  0  0  0
 13 37  1  0  0  0  0
 14 13  2  0  0  0  0
 14 38  1  0  0  0  0
 15 11  1  0  0  0  0
 15 39  1  0  0  0  0
 16 12  2  0  0  0  0
 16 40  1  0  0  0  0
 17  9  2  0  0  0  0
 17 41  1  0  0  0  0
 18 21  2  0  0  0  0
 18 42  1  0  0  0  0
 19 23  2  0  0  0  0
 19 43  1  0  0  0  0
 20 15  2  0  0  0  0
 20 16  1  0  0  0  0
 20 24  1  0  0  0  0
 21 24  1  0  0  0  0
 22 19  1  0  0  0  0
 24  4  1  0  0  0  0
 25  5  1  0  0  0  0
 25 44  1  0  0  0  0
 26  7  1  0  0  0  0
 26 45  1  0  0  0  0
M  END
