3l9l_ligand
 OpenBabel08222323343D

 50 53  0  0  1  0  0  0  0  0999 V2000
   28.9430    7.0250    6.4340 C   0  0  0  0  0  0  0  0  0  0  0  0
   28.6550    3.7990   11.8450 F   0  0  0  0  0  0  0  0  0  0  0  0
   32.0410    1.4530    6.1440 N   0  0  0  0  0  0  0  0  0  0  0  0
   25.3400    8.4900   10.7180 O   0  0  0  0  0  0  0  0  0  0  0  0
   30.4850    3.3240    7.4590 S   0  0  0  0  0  0  0  0  0  0  0  0
   28.0410    8.0320    6.8960 C   0  0  0  0  0  0  0  0  0  0  0  0
   27.3350    2.2900   12.8090 F   0  0  0  0  0  0  0  0  0  0  0  0
   31.9030    3.7860    5.3270 N   0  0  0  0  0  0  0  0  0  0  0  0
   27.5230    7.8480    8.2330 C   0  0  0  0  0  0  0  0  0  0  0  0
   26.4330    3.6470   11.1910 F   0  0  0  0  0  0  0  0  0  0  0  0
   30.5480   -1.0390    5.3660 N   0  3  0  0  0  0  0  0  0  0  0  0
   27.8710    6.7480    9.0430 C   0  0  0  0  0  0  0  0  0  0  0  0
   26.5810    8.5670    8.8350 N   0  0  0  0  0  0  0  0  0  0  0  0
   28.7780    5.7380    8.5770 C   0  0  0  0  0  0  0  0  0  0  0  0
   29.3600    5.8680    7.2270 C   0  0  0  0  0  0  0  0  0  0  0  0
   30.2010   -0.1500    6.5220 C   0  0  2  0  0  0  0  0  0  0  0  0
   26.2330    8.0430   10.0240 C   0  0  0  0  0  0  0  0  0  0  0  0
   30.3570    4.8600    6.7270 C   0  0  0  0  0  0  0  0  0  0  0  0
   31.2020    4.9580    5.5640 C   0  0  0  0  0  0  0  0  0  0  0  0
   31.6230    2.8360    6.2550 C   0  0  0  0  0  0  0  0  0  0  0  0
   31.4900    0.4680    7.0710 C   0  0  0  0  0  0  0  0  0  0  0  0
   27.8380    0.8960    8.2950 C   0  0  0  0  0  0  0  0  0  0  0  0
   27.4180    1.8890    9.2580 C   0  0  0  0  0  0  0  0  0  0  0  0
   28.0290    1.9740   10.5960 C   0  0  0  0  0  0  0  0  0  0  0  0
   29.1460    1.0400   10.8900 C   0  0  0  0  0  0  0  0  0  0  0  0
   29.5610    0.0230    9.9600 C   0  0  0  0  0  0  0  0  0  0  0  0
   28.9070    0.0330    8.6730 C   0  0  0  0  0  0  0  0  0  0  0  0
   27.5650    3.0040   11.6880 C   0  0  0  0  0  0  0  0  0  0  0  0
   29.4060   -0.9170    7.5860 C   0  0  0  0  0  0  0  0  0  0  0  0
   27.1220    6.8330   10.3540 C   0  0  0  0  0  0  0  0  0  0  0  0
   29.3442    7.1244    5.4319 H   0  0  0  0  0  0  0  0  0  0  0  0
   32.7174    1.1685    5.4212 H   0  0  0  0  0  0  0  0  0  0  0  0
   27.7624    8.8810    6.2823 H   0  0  0  0  0  0  0  0  0  0  0  0
   31.0690   -0.5128    4.6821 H   0  0  0  0  0  0  0  0  0  0  0  0
   29.7015   -1.3901    4.9462 H   0  0  0  0  0  0  0  0  0  0  0  0
   31.1069   -1.8118    5.6923 H   0  0  0  0  0  0  0  0  0  0  0  0
   26.1792    9.3979    8.4501 H   0  0  0  0  0  0  0  0  0  0  0  0
   29.0316    4.8929    9.2068 H   0  0  0  0  0  0  0  0  0  0  0  0
   29.5620    0.6660    6.1535 H   0  0  0  0  0  0  0  0  0  0  0  0
   31.2807    5.8493    4.9433 H   0  0  0  0  0  0  0  0  0  0  0  0
   31.2713    0.9608    8.0298 H   0  0  0  0  0  0  0  0  0  0  0  0
   32.2310   -0.3295    7.2292 H   0  0  0  0  0  0  0  0  0  0  0  0
   27.3597    0.8115    7.3259 H   0  0  0  0  0  0  0  0  0  0  0  0
   26.6344    2.5881    8.9891 H   0  0  0  0  0  0  0  0  0  0  0  0
   29.6662    1.1273   11.8370 H   0  0  0  0  0  0  0  0  0  0  0  0
   30.3207   -0.7082   10.2114 H   0  0  0  0  0  0  0  0  0  0  0  0
   30.0546   -1.6794    8.0421 H   0  0  0  0  0  0  0  0  0  0  0  0
   28.5436   -1.4064    7.1099 H   0  0  0  0  0  0  0  0  0  0  0  0
   27.7926    7.0297   11.2035 H   0  0  0  0  0  0  0  0  0  0  0  0
   26.5320    5.9266   10.5548 H   0  0  0  0  0  0  0  0  0  0  0  0
  1  6  2  0  0  0  0
  1 31  1  0  0  0  0
  3 20  1  0  0  0  0
  3 32  1  0  0  0  0
  5 18  1  0  0  0  0
  6  9  1  0  0  0  0
  6 33  1  0  0  0  0
  8 19  1  0  0  0  0
  9 13  1  0  0  0  0
 11 34  1  0  0  0  0
 11 35  1  0  0  0  0
 11 36  1  0  0  0  0
 12  9  2  0  0  0  0
 12 30  1  0  0  0  0
 13 37  1  0  0  0  0
 14 12  1  0  0  0  0
 14 38  1  0  0  0  0
 15  1  1  0  0  0  0
 15 14  2  0  0  0  0
 16 11  1  0  0  0  0
 16 21  1  0  0  0  0
 16 39  1  6  0  0  0
 17  4  2  0  0  0  0
 17 13  1  0  0  0  0
 18 15  1  0  0  0  0
 19 18  2  0  0  0  0
 19 40  1  0  0  0  0
 20  5  1  0  0  0  0
 20  8  2  0  0  0  0
 21  3  1  0  0  0  0
 21 41  1  0  0  0  0
 21 42  1  0  0  0  0
 22 23  2  0  0  0  0
 22 43  1  0  0  0  0
 23 24  1  0  0  0  0
 23 44  1  0  0  0  0
 24 28  1  0  0  0  0
 25 24  2  0  0  0  0
 25 45  1  0  0  0  0
 26 25  1  0  0  0  0
 26 46  1  0  0  0  0
 27 22  1  0  0  0  0
 27 26  2  0  0  0  0
 27 29  1  0  0  0  0
 28  2  1  0  0  0  0
 28  7  1  0  0  0  0
 28 10  1  0  0  0  0
 29 16  1  0  0  0  0
 29 47  1  0  0  0  0
 29 48  1  0  0  0  0
 30 17  1  0  0  0  0
 30 49  1  0  0  0  0
 30 50  1  0  0  0  0
M  CHG  1  11   1
M  END
