3lau_ligand
 OpenBabel08222323343D

 39 41  0  0  0  0  0  0  0  0999 V2000
   -5.5510   -8.0930   18.7460 C   0  0  0  0  0  0  0  0  0  0  0  0
   -5.2880   -8.4740   17.3670 C   0  0  0  0  0  0  0  0  0  0  0  0
   -5.2240   -9.2830   19.5620 C   0  0  0  0  0  0  0  0  0  0  0  0
   -6.0070   -6.7830   18.9720 C   0  0  0  0  0  0  0  0  0  0  0  0
   -5.4820   -7.5790   16.3160 C   0  0  0  0  0  0  0  0  0  0  0  0
   -4.8640   -9.7810   17.4600 N   0  0  0  0  0  0  0  0  0  0  0  0
   -4.8320  -10.2290   18.7220 N   0  0  0  0  0  0  0  0  0  0  0  0
   -5.3270   -9.3550   21.0430 N   0  0  0  0  0  0  0  0  0  0  0  0
   -6.2010   -5.8750   17.8880 C   0  0  0  0  0  0  0  0  0  0  0  0
   -5.9380   -6.2550   16.5520 C   0  0  0  0  0  0  0  0  0  0  0  0
   -6.2740   -8.8930   21.8910 C   0  0  0  0  0  0  0  0  0  0  0  0
   -6.1250   -5.2810   15.4280 C   0  0  0  0  0  0  0  0  0  0  0  0
   -5.9200   -9.2000   23.3530 C   0  0  0  0  0  0  0  0  0  0  0  0
   -7.3020   -8.2840   21.5910 O   0  0  0  0  0  0  0  0  0  0  0  0
   -7.3470   -5.1670   14.7320 C   0  0  0  0  0  0  0  0  0  0  0  0
   -5.0560   -4.4360   15.0370 C   0  0  0  0  0  0  0  0  0  0  0  0
   -7.0780   -9.8540   24.1110 C   0  0  0  0  0  0  0  0  0  0  0  0
   -7.5000   -4.2320   13.6750 C   0  0  0  0  0  0  0  0  0  0  0  0
   -5.1990   -3.5000   13.9830 C   0  0  0  0  0  0  0  0  0  0  0  0
   -6.7090  -10.1510   25.5710 C   0  0  0  0  0  0  0  0  0  0  0  0
   -6.4270   -3.3950   13.2980 C   0  0  0  0  0  0  0  0  0  0  0  0
   -6.6030   -2.4940   12.2730 O   0  0  0  0  0  0  0  0  0  0  0  0
   -6.2145   -6.4573   19.9849 H   0  0  0  0  0  0  0  0  0  0  0  0
   -5.2811   -7.8995   15.3001 H   0  0  0  0  0  0  0  0  0  0  0  0
   -4.5427  -11.1775   19.0005 H   0  0  0  0  0  0  0  0  0  0  0  0
   -4.5656   -9.8257   21.4889 H   0  0  0  0  0  0  0  0  0  0  0  0
   -6.5577   -4.8722   18.0936 H   0  0  0  0  0  0  0  0  0  0  0  0
   -5.6552   -8.2589   23.8571 H   0  0  0  0  0  0  0  0  0  0  0  0
   -5.0567   -9.8814   23.3715 H   0  0  0  0  0  0  0  0  0  0  0  0
   -8.1807   -5.8023   15.0083 H   0  0  0  0  0  0  0  0  0  0  0  0
   -4.1072   -4.5076   15.5564 H   0  0  0  0  0  0  0  0  0  0  0  0
   -7.3423  -10.7978   23.6117 H   0  0  0  0  0  0  0  0  0  0  0  0
   -7.9433   -9.1751   24.0937 H   0  0  0  0  0  0  0  0  0  0  0  0
   -8.4475   -4.1600   13.1534 H   0  0  0  0  0  0  0  0  0  0  0  0
   -4.3656   -2.8656   13.7036 H   0  0  0  0  0  0  0  0  0  0  0  0
   -7.5659  -10.6189   26.0778 H   0  0  0  0  0  0  0  0  0  0  0  0
   -6.4489   -9.2121   26.0818 H   0  0  0  0  0  0  0  0  0  0  0  0
   -5.8479  -10.8349   25.5998 H   0  0  0  0  0  0  0  0  0  0  0  0
   -6.4599   -1.6133   12.5990 H   0  0  0  0  0  0  0  0  0  0  0  0
  1  2  1  0  0  0  0
  1  3  2  0  0  0  0
  1  4  1  0  0  0  0
  2  5  1  0  0  0  0
  2  6  2  0  0  0  0
  3  7  1  0  0  0  0
  3  8  1  0  0  0  0
  4  9  2  0  0  0  0
  4 23  1  0  0  0  0
  5 10  2  0  0  0  0
  5 24  1  0  0  0  0
  6  7  1  0  0  0  0
  7 25  1  0  0  0  0
  8 11  1  0  0  0  0
  8 26  1  0  0  0  0
  9 10  1  0  0  0  0
  9 27  1  0  0  0  0
 10 12  1  0  0  0  0
 11 13  1  0  0  0  0
 11 14  2  0  0  0  0
 12 15  2  0  0  0  0
 12 16  1  0  0  0  0
 13 17  1  0  0  0  0
 13 28  1  0  0  0  0
 13 29  1  0  0  0  0
 15 18  1  0  0  0  0
 15 30  1  0  0  0  0
 16 19  2  0  0  0  0
 16 31  1  0  0  0  0
 17 20  1  0  0  0  0
 17 32  1  0  0  0  0
 17 33  1  0  0  0  0
 18 21  2  0  0  0  0
 18 34  1  0  0  0  0
 19 21  1  0  0  0  0
 19 35  1  0  0  0  0
 20 36  1  0  0  0  0
 20 37  1  0  0  0  0
 20 38  1  0  0  0  0
 21 22  1  0  0  0  0
 22 39  1  0  0  0  0
M  END
