3lce_ligand
 OpenBabel08222323343D

 24 25  0  0  1  0  0  0  0  0999 V2000
   13.4730    0.7340   37.4450 C   0  0  0  0  0  0  0  0  0  0  0  0
   16.5880    3.2070   38.5160 O   0  5  0  0  0  0  0  0  0  0  0  0
   14.5700    3.3970   37.7440 O   0  0  0  0  0  0  0  0  0  0  0  0
   18.3460    4.0900   35.3120 O   0  0  0  0  0  0  0  0  0  0  0  0
   17.2190    4.4960   32.1470 Cl  0  0  0  0  0  0  0  0  0  0  0  0
   17.8020    1.9810   33.5270 Cl  0  0  0  0  0  0  0  0  0  0  0  0
   13.9770    1.8130   36.6430 O   0  0  0  0  0  0  0  0  0  0  0  0
   15.3490    1.3280   34.2900 S   0  0  0  0  0  0  0  0  0  0  0  0
   15.7420    3.1210   37.6450 C   0  0  0  0  0  0  0  0  0  0  0  0
   15.2640    1.4280   36.0880 C   0  0  1  0  0  0  0  0  0  0  0  0
   15.4620    3.1380   33.9300 C   0  0  1  0  0  0  0  0  0  0  0  0
   16.1540    2.6370   36.3040 C   0  0  1  0  0  0  0  0  0  0  0  0
   15.7670    3.7450   35.3240 C   0  0  1  0  0  0  0  0  0  0  0  0
   16.8920    3.5400   33.5640 C   0  0  0  0  0  0  0  0  0  0  0  0
   17.0470    4.4430   34.7680 C   0  0  2  0  0  0  0  0  0  0  0  0
   13.3557   -0.1543   36.8243 H   0  0  0  0  0  0  0  0  0  0  0  0
   14.1747    0.5246   38.2524 H   0  0  0  0  0  0  0  0  0  0  0  0
   12.5073    1.0154   37.8650 H   0  0  0  0  0  0  0  0  0  0  0  0
   18.5064    3.1539   35.1725 H   0  0  0  0  0  0  0  0  0  0  0  0
   15.5044    0.4658   36.5402 H   0  0  0  0  0  0  0  0  0  0  0  0
   14.6331    3.3895   33.2683 H   0  0  0  0  0  0  0  0  0  0  0  0
   17.2111    2.3970   36.1902 H   0  0  0  0  0  0  0  0  0  0  0  0
   15.0099    4.3225   35.8545 H   0  0  0  0  0  0  0  0  0  0  0  0
   17.0707    5.5314   34.8228 H   0  0  0  0  0  0  0  0  0  0  0  0
  1 16  1  0  0  0  0
  1 17  1  0  0  0  0
  1 18  1  0  0  0  0
  4 19  1  0  0  0  0
  7  1  1  0  0  0  0
  9  2  1  0  0  0  0
  9  3  2  0  0  0  0
 10  7  1  0  0  0  0
 10  8  1  0  0  0  0
 10 20  1  1  0  0  0
 11  8  1  0  0  0  0
 11 14  1  0  0  0  0
 11 21  1  6  0  0  0
 12  9  1  0  0  0  0
 12 10  1  0  0  0  0
 12 22  1  6  0  0  0
 13 11  1  0  0  0  0
 13 12  1  0  0  0  0
 13 15  1  0  0  0  0
 13 23  1  1  0  0  0
 14  5  1  0  0  0  0
 14  6  1  0  0  0  0
 14 15  1  0  0  0  0
 15  4  1  0  0  0  0
 15 24  1  6  0  0  0
M  CHG  1   2  -1
M  END
