3lcv_ligand
 OpenBabel08222323343D

 50 52  0  0  1  0  0  0  0  0999 V2000
    8.8800   -1.7400   22.9860 N   0  3  0  0  0  0  0  0  0  0  0  0
    7.4430   -1.4750   23.1020 C   0  0  2  0  0  0  0  0  0  0  0  0
    6.6850   -2.7520   23.4550 C   0  0  0  0  0  0  0  0  0  0  0  0
    7.0640   -3.8230   23.0130 O   0  5  0  0  0  0  0  0  0  0  0  0
    5.5110   -2.8550   24.2750 O   0  0  0  0  0  0  0  0  0  0  0  0
    6.8680   -0.9090   21.6660 C   0  0  0  0  0  0  0  0  0  0  0  0
    6.8360   -1.7890   20.4270 C   0  0  0  0  0  0  0  0  0  0  0  0
    6.1850   -0.9500   18.9480 S   0  0  2  0  0  3  0  0  0  0  0  0
    5.7510   -2.2890   17.8130 C   0  0  0  0  0  0  0  0  0  0  0  0
    6.9580   -0.1310   18.3140 C   0  0  0  0  0  0  0  0  0  0  0  0
    7.5660    1.1460   18.8760 C   0  0  1  0  0  0  0  0  0  0  0  0
    8.8050    1.4340   18.1900 O   0  0  0  0  0  0  0  0  0  0  0  0
    6.6900    2.3680   18.6720 C   0  0  1  0  0  0  0  0  0  0  0  0
    6.3920    2.6690   20.0790 O   0  0  0  0  0  0  0  0  0  0  0  0
    7.5610    3.4890   18.1150 C   0  0  1  0  0  0  0  0  0  0  0  0
    7.4540    4.8020   18.6330 O   0  0  0  0  0  0  0  0  0  0  0  0
    8.9700    2.8340   18.1100 C   0  0  2  0  0  0  0  0  0  0  0  0
    9.7170    3.4880   17.1450 N   0  0  0  0  0  0  0  0  0  0  0  0
    9.4990    3.4780   15.7830 C   0  0  0  0  0  0  0  0  0  0  0  0
   10.5600    3.9520   15.1560 N   0  0  0  0  0  0  0  0  0  0  0  0
   11.4800    4.2880   16.0480 C   0  0  0  0  0  0  0  0  0  0  0  0
   12.7790    4.8310   15.9010 C   0  0  0  0  0  0  0  0  0  0  0  0
   13.2910    5.0970   14.7300 N   0  0  0  0  0  0  0  0  0  0  0  0
   13.5220    5.0850   17.0170 N   0  0  0  0  0  0  0  0  0  0  0  0
   12.9870    4.8040   18.2370 C   0  0  0  0  0  0  0  0  0  0  0  0
   11.7460    4.2810   18.3600 N   0  0  0  0  0  0  0  0  0  0  0  0
   10.9910    4.0230   17.2730 C   0  0  0  0  0  0  0  0  0  0  0  0
    9.3614   -0.8856   22.7529 H   0  0  0  0  0  0  0  0  0  0  0  0
    9.0383   -2.4232   22.2619 H   0  0  0  0  0  0  0  0  0  0  0  0
    9.2284   -2.0933   23.8634 H   0  0  0  0  0  0  0  0  0  0  0  0
    7.2772   -0.7233   23.8878 H   0  0  0  0  0  0  0  0  0  0  0  0
    7.4802   -0.0319   21.4093 H   0  0  0  0  0  0  0  0  0  0  0  0
    5.8309   -0.5914   21.8492 H   0  0  0  0  0  0  0  0  0  0  0  0
    6.2015   -2.6624   20.6380 H   0  0  0  0  0  0  0  0  0  0  0  0
    7.8616   -2.1240   20.2127 H   0  0  0  0  0  0  0  0  0  0  0  0
    5.3451   -1.8643   16.8830 H   0  0  0  0  0  0  0  0  0  0  0  0
    4.9947   -2.9360   18.2813 H   0  0  0  0  0  0  0  0  0  0  0  0
    6.6492   -2.8813   17.5841 H   0  0  0  0  0  0  0  0  0  0  0  0
    6.3794    0.1886   17.4348 H   0  0  0  0  0  0  0  0  0  0  0  0
    7.8151   -0.7384   17.9879 H   0  0  0  0  0  0  0  0  0  0  0  0
    7.7513    1.0044   19.9510 H   0  0  0  0  0  0  0  0  0  0  0  0
    5.7994    2.1856   18.0527 H   0  0  0  0  0  0  0  0  0  0  0  0
    5.8327    3.4355   20.1261 H   0  0  0  0  0  0  0  0  0  0  0  0
    7.2655    3.6095   17.0623 H   0  0  0  0  0  0  0  0  0  0  0  0
    7.6603    4.7932   19.5603 H   0  0  0  0  0  0  0  0  0  0  0  0
    9.4625    3.0983   19.0574 H   0  0  0  0  0  0  0  0  0  0  0  0
    8.5881    3.1311   15.2974 H   0  0  0  0  0  0  0  0  0  0  0  0
   14.2398    5.4918   14.6604 H   0  0  0  0  0  0  0  0  0  0  0  0
   12.7462    4.9120   13.8757 H   0  0  0  0  0  0  0  0  0  0  0  0
   13.5687    5.0039   19.1296 H   0  0  0  0  0  0  0  0  0  0  0  0
  1  2  1  0  0  0  0
  1 28  1  0  0  0  0
  1 29  1  0  0  0  0
  1 30  1  0  0  0  0
  2  3  1  0  0  0  0
  2  6  1  0  0  0  0
  2 31  1  1  0  0  0
  3  4  1  0  0  0  0
  3  5  2  0  0  0  0
  6  7  1  0  0  0  0
  6 32  1  0  0  0  0
  6 33  1  0  0  0  0
  7 34  1  0  0  0  0
  7 35  1  0  0  0  0
  8  7  1  1  0  0  0
  8  9  1  0  0  0  0
  8 10  1  0  0  0  0
  9 36  1  0  0  0  0
  9 37  1  0  0  0  0
  9 38  1  0  0  0  0
 10 11  1  0  0  0  0
 10 39  1  0  0  0  0
 10 40  1  0  0  0  0
 11 12  1  0  0  0  0
 11 13  1  0  0  0  0
 11 41  1  1  0  0  0
 12 17  1  0  0  0  0
 13 14  1  0  0  0  0
 13 15  1  0  0  0  0
 13 42  1  6  0  0  0
 14 43  1  0  0  0  0
 15 16  1  0  0  0  0
 15 17  1  0  0  0  0
 15 44  1  6  0  0  0
 16 45  1  0  0  0  0
 17 18  1  0  0  0  0
 17 46  1  1  0  0  0
 18 19  1  0  0  0  0
 18 27  1  0  0  0  0
 19 20  2  0  0  0  0
 19 47  1  0  0  0  0
 20 21  1  0  0  0  0
 21 22  2  0  0  0  0
 21 27  1  0  0  0  0
 22 23  1  0  0  0  0
 22 24  1  0  0  0  0
 23 48  1  0  0  0  0
 23 49  1  0  0  0  0
 24 25  2  0  0  0  0
 25 26  1  0  0  0  0
 25 50  1  0  0  0  0
 26 27  2  0  0  0  0
M  CHG  2   1   1   4  -1
M  END
