3le6_ligand
 OpenBabel08222323343D

 35 38  0  0  0  0  0  0  0  0999 V2000
    2.5380   29.0900    6.2220 N   0  0  0  0  0  0  0  0  0  0  0  0
    2.9130   27.8110    6.6900 C   0  0  0  0  0  0  0  0  0  0  0  0
    2.1670   26.9850    7.6090 C   0  0  0  0  0  0  0  0  0  0  0  0
    0.8050   27.3850    8.2440 C   0  0  0  0  0  0  0  0  0  0  0  0
    0.0770   26.3800    9.1380 C   0  0  0  0  0  0  0  0  0  0  0  0
    4.7070   26.0440    6.5340 C   0  0  0  0  0  0  0  0  0  0  0  0
   -0.2710   30.7930    7.5360 C   0  0  0  0  0  0  0  0  0  0  0  0
   -0.5180   25.2110    8.5370 C   0  0  0  0  0  0  0  0  0  0  0  0
   -1.1910   24.2650    9.3580 C   0  0  0  0  0  0  0  0  0  0  0  0
   -1.2800   24.4690   10.7620 C   0  0  0  0  0  0  0  0  0  0  0  0
   -0.0210   26.5810   10.5560 C   0  0  0  0  0  0  0  0  0  0  0  0
    0.4800   29.6430    7.4580 C   0  0  0  0  0  0  0  0  0  0  0  0
    1.5470   29.9330    6.5870 C   0  0  0  0  0  0  0  0  0  0  0  0
    0.1130   28.4980    8.1720 N   0  0  0  0  0  0  0  0  0  0  0  0
    4.1770   27.3150    6.1740 C   0  0  0  0  0  0  0  0  0  0  0  0
    3.9750   25.2270    7.4340 C   0  0  0  0  0  0  0  0  0  0  0  0
    2.7360   25.6930    7.9570 C   0  0  0  0  0  0  0  0  0  0  0  0
   -1.5030   31.1300    8.2810 C   0  0  0  0  0  0  0  0  0  0  0  0
    0.3730   31.6850    6.7280 N   0  0  0  0  0  0  0  0  0  0  0  0
    1.4750   31.1930    6.1400 N   0  0  0  0  0  0  0  0  0  0  0  0
    4.4790   23.8830    7.8310 N   0  0  0  0  0  0  0  0  0  0  0  0
    3.7970   23.2160    8.6280 O   0  0  0  0  0  0  0  0  0  0  0  0
    5.5460   23.4790    7.3310 O   0  0  0  0  0  0  0  0  0  0  0  0
   -0.7000   25.6210   11.3610 C   0  0  0  0  0  0  0  0  0  0  0  0
    0.6580   27.9630   11.3420 Cl  0  0  0  0  0  0  0  0  0  0  0  0
    5.6534   25.7061    6.1277 H   0  0  0  0  0  0  0  0  0  0  0  0
   -0.4524   25.0549    7.4663 H   0  0  0  0  0  0  0  0  0  0  0  0
   -1.6382   23.3844    8.9113 H   0  0  0  0  0  0  0  0  0  0  0  0
   -1.7935   23.7415   11.3802 H   0  0  0  0  0  0  0  0  0  0  0  0
    4.7391   27.9377    5.4874 H   0  0  0  0  0  0  0  0  0  0  0  0
    2.1923   25.0563    8.6455 H   0  0  0  0  0  0  0  0  0  0  0  0
   -1.7866   32.1714    8.0687 H   0  0  0  0  0  0  0  0  0  0  0  0
   -1.3232   31.0116    9.3597 H   0  0  0  0  0  0  0  0  0  0  0  0
   -2.3158   30.4578    7.9688 H   0  0  0  0  0  0  0  0  0  0  0  0
   -0.7746   25.7692   12.4322 H   0  0  0  0  0  0  0  0  0  0  0  0
  1  2  2  0  0  0  0
  2  3  1  0  0  0  0
  2 15  1  0  0  0  0
  3  4  2  0  0  0  0
  3 17  1  0  0  0  0
  4  5  1  0  0  0  0
  4 14  1  0  0  0  0
  5  8  2  0  0  0  0
  5 11  1  0  0  0  0
  6 16  1  0  0  0  0
  6 26  1  0  0  0  0
  7 18  1  0  0  0  0
  7 19  2  0  0  0  0
  8  9  1  0  0  0  0
  8 27  1  0  0  0  0
  9 10  2  0  0  0  0
  9 28  1  0  0  0  0
 10 29  1  0  0  0  0
 11 24  2  0  0  0  0
 11 25  1  0  0  0  0
 12  7  1  0  0  0  0
 12 13  1  0  0  0  0
 12 14  2  0  0  0  0
 13  1  1  0  0  0  0
 13 20  2  0  0  0  0
 15  6  2  0  0  0  0
 15 30  1  0  0  0  0
 16 17  2  0  0  0  0
 16 21  1  0  0  0  0
 17 31  1  0  0  0  0
 18 32  1  0  0  0  0
 18 33  1  0  0  0  0
 18 34  1  0  0  0  0
 19 20  1  0  0  0  0
 21 22  2  0  0  0  0
 21 23  2  0  0  0  0
 24 10  1  0  0  0  0
 24 35  1  0  0  0  0
M  END
