3li2_ligand
 OpenBabel08222323343D

 52 51  0  0  1  0  0  0  0  0999 V2000
   -5.7660   -6.1230    6.2080 C   0  0  0  0  0  0  0  0  0  0  0  0
   -6.2550   -4.6840    6.0100 C   0  0  0  0  0  0  0  0  0  0  0  0
   -5.2690   -3.7530    5.2810 C   0  0  1  0  0  0  0  0  0  0  0  0
   -5.7430   -2.2850    5.3810 C   0  0  0  0  0  0  0  0  0  0  0  0
   -4.6520   -1.2290    5.3970 C   0  0  0  0  0  0  0  0  0  0  0  0
   -4.1530   -0.8280    6.5800 N   0  0  0  0  0  0  0  0  0  0  0  0
   -2.9730    0.0370    6.6520 C   0  0  2  0  0  0  0  0  0  0  0  0
   -1.8110   -0.6300    7.3890 C   0  0  0  0  0  0  0  0  0  0  0  0
   -1.2030   -1.7190    6.4930 C   0  0  0  0  0  0  0  0  0  0  0  0
    0.1630   -2.1400    6.9750 C   0  0  0  0  0  0  0  0  0  0  0  0
    0.3450   -3.5760    6.8520 N   0  0  0  0  0  0  0  0  0  0  0  0
    1.4440   -4.1660    6.4050 C   0  0  0  0  0  0  0  0  0  0  0  0
    1.2690   -5.6250    5.9920 C   0  0  0  0  0  0  0  0  0  0  0  0
   -0.0460   -5.9040    5.2400 C   0  0  2  0  0  0  0  0  0  0  0  0
   -0.0290   -7.4020    4.8650 C   0  0  0  0  0  0  0  0  0  0  0  0
   -1.2700   -7.9720    4.1950 C   0  0  0  0  0  0  0  0  0  0  0  0
   -6.5890   -6.9590    6.6130 O   0  5  0  0  0  0  0  0  0  0  0  0
   -4.5920   -6.4660    5.9730 O   0  0  0  0  0  0  0  0  0  0  0  0
   -3.9900   -3.8940    5.8680 O   0  0  0  0  0  0  0  0  0  0  0  0
   -5.0760   -4.1890    3.8530 C   0  0  0  0  0  0  0  0  0  0  0  0
   -5.9990   -3.9990    3.0150 O   0  5  0  0  0  0  0  0  0  0  0  0
   -3.9710   -4.7190    3.5630 O   0  0  0  0  0  0  0  0  0  0  0  0
   -4.2720   -0.7690    4.3250 O   0  0  0  0  0  0  0  0  0  0  0  0
   -3.2880    1.4180    7.2220 C   0  0  0  0  0  0  0  0  0  0  0  0
   -2.5810    1.8940    8.1580 O   0  5  0  0  0  0  0  0  0  0  0  0
   -4.2540    2.0550    6.7100 O   0  0  0  0  0  0  0  0  0  0  0  0
    2.5550   -3.6270    6.3710 O   0  0  0  0  0  0  0  0  0  0  0  0
   -0.2380   -4.9700    4.0540 C   0  0  0  0  0  0  0  0  0  0  0  0
   -1.2000   -5.6310    6.0410 O   0  0  0  0  0  0  0  0  0  0  0  0
   -1.3780   -4.5120    3.8530 O   0  5  0  0  0  0  0  0  0  0  0  0
    0.6900   -4.6500    3.2900 O   0  0  0  0  0  0  0  0  0  0  0  0
   -2.2860   -7.2570    3.9790 O   0  5  0  0  0  0  0  0  0  0  0  0
   -1.2310   -9.1850    3.8560 O   0  0  0  0  0  0  0  0  0  0  0  0
   -6.4595   -4.2542    7.0017 H   0  0  0  0  0  0  0  0  0  0  0  0
   -7.1865   -4.7181    5.4259 H   0  0  0  0  0  0  0  0  0  0  0  0
   -6.3236   -2.1821    6.3096 H   0  0  0  0  0  0  0  0  0  0  0  0
   -6.3936   -2.0826    4.5174 H   0  0  0  0  0  0  0  0  0  0  0  0
   -4.5957   -1.1258    7.4258 H   0  0  0  0  0  0  0  0  0  0  0  0
   -2.6392    0.1950    5.6159 H   0  0  0  0  0  0  0  0  0  0  0  0
   -2.1785   -1.0836    8.3213 H   0  0  0  0  0  0  0  0  0  0  0  0
   -1.0443    0.1227    7.6248 H   0  0  0  0  0  0  0  0  0  0  0  0
   -1.1148   -1.3292    5.4682 H   0  0  0  0  0  0  0  0  0  0  0  0
   -1.8678   -2.5954    6.4961 H   0  0  0  0  0  0  0  0  0  0  0  0
    0.2747   -1.8536    8.0312 H   0  0  0  0  0  0  0  0  0  0  0  0
    0.9289   -1.6287    6.3734 H   0  0  0  0  0  0  0  0  0  0  0  0
   -0.4166   -4.1636    7.1253 H   0  0  0  0  0  0  0  0  0  0  0  0
    1.2887   -6.2471    6.8990 H   0  0  0  0  0  0  0  0  0  0  0  0
    2.1084   -5.9036    5.3380 H   0  0  0  0  0  0  0  0  0  0  0  0
    0.1365   -7.9718    5.7913 H   0  0  0  0  0  0  0  0  0  0  0  0
    0.8174   -7.5608    4.1806 H   0  0  0  0  0  0  0  0  0  0  0  0
   -3.7098   -4.7993    5.8005 H   0  0  0  0  0  0  0  0  0  0  0  0
   -1.9837   -5.8454    5.5487 H   0  0  0  0  0  0  0  0  0  0  0  0
  1  2  1  0  0  0  0
  1 17  1  0  0  0  0
  1 18  2  0  0  0  0
  2  3  1  0  0  0  0
  2 34  1  0  0  0  0
  2 35  1  0  0  0  0
  3  4  1  0  0  0  0
  3 19  1  1  0  0  0
  3 20  1  0  0  0  0
  4  5  1  0  0  0  0
  4 36  1  0  0  0  0
  4 37  1  0  0  0  0
  5  6  1  0  0  0  0
  5 23  2  0  0  0  0
  6  7  1  0  0  0  0
  6 38  1  0  0  0  0
  7  8  1  0  0  0  0
  7 24  1  0  0  0  0
  7 39  1  6  0  0  0
  8  9  1  0  0  0  0
  8 40  1  0  0  0  0
  8 41  1  0  0  0  0
  9 10  1  0  0  0  0
  9 42  1  0  0  0  0
  9 43  1  0  0  0  0
 10 11  1  0  0  0  0
 10 44  1  0  0  0  0
 10 45  1  0  0  0  0
 11 12  1  0  0  0  0
 11 46  1  0  0  0  0
 12 13  1  0  0  0  0
 12 27  2  0  0  0  0
 13 14  1  0  0  0  0
 13 47  1  0  0  0  0
 13 48  1  0  0  0  0
 14 15  1  0  0  0  0
 14 28  1  6  0  0  0
 14 29  1  0  0  0  0
 15 16  1  0  0  0  0
 15 49  1  0  0  0  0
 15 50  1  0  0  0  0
 16 32  1  0  0  0  0
 16 33  2  0  0  0  0
 19 51  1  0  0  0  0
 20 21  1  0  0  0  0
 20 22  2  0  0  0  0
 24 25  1  0  0  0  0
 24 26  2  0  0  0  0
 28 30  1  0  0  0  0
 28 31  2  0  0  0  0
 29 52  1  0  0  0  0
M  CHG  5  17  -1  21  -1  25  -1  30  -1  32  -1
M  END
