3lik_ligand
 OpenBabel08222323343D

 69 71  0  0  1  0  0  0  0  0999 V2000
    6.7370   31.0620    8.1530 C   0  0  0  0  0  0  0  0  0  0  0  0
    8.4630   29.5250    7.3940 N   0  0  0  0  0  0  0  0  0  0  0  0
    6.6200   28.5580    6.4770 O   0  0  0  0  0  0  0  0  0  0  0  0
    7.6500   29.8940    8.5330 C   0  0  1  0  0  0  0  0  0  0  0  0
    7.8900   27.2780    4.4360 N   0  0  0  0  0  0  0  0  0  0  0  0
    9.8280   26.0040    4.5010 O   0  0  0  0  0  0  0  0  0  0  0  0
    8.5270   30.1650    9.7660 C   0  0  0  0  0  0  0  0  0  0  0  0
    8.8270   31.6160   10.1530 C   0  0  0  0  0  0  0  0  0  0  0  0
    8.7330   31.4260    1.5830 O   0  5  0  0  0  0  0  0  0  0  0  0
   10.2150   31.9420   10.7150 C   0  0  0  0  0  0  0  0  0  0  0  0
    7.7930   28.7170    6.3940 C   0  0  0  0  0  0  0  0  0  0  0  0
    8.4970   28.4490    5.0590 C   0  0  2  0  0  0  0  0  0  0  0  0
    2.7520   22.3740    8.6150 S   0  0  0  0  0  0  0  0  0  0  0  0
    8.3390   29.6620    4.1290 C   0  0  0  0  0  0  0  0  0  0  0  0
   11.0590   32.7830    9.9790 O   0  5  0  0  0  0  0  0  0  0  0  0
    9.5940   30.4250    3.7290 C   0  0  0  0  0  0  0  0  0  0  0  0
    7.0570   31.8590    6.9870 N   0  0  0  0  0  0  0  0  0  0  0  0
    5.6780   31.1890    8.6720 O   0  0  0  0  0  0  0  0  0  0  0  0
    9.3820   31.6180    2.8020 C   0  0  0  0  0  0  0  0  0  0  0  0
    8.7340   26.1580    4.0480 C   0  0  0  0  0  0  0  0  0  0  0  0
    8.0240   25.0240    3.3070 C   0  0  0  0  0  0  0  0  0  0  0  0
    7.8240   23.7690    4.1440 C   0  0  0  0  0  0  0  0  0  0  0  0
    5.2080   24.1310    4.3600 C   0  0  0  0  0  0  0  0  0  0  0  0
    5.3230   22.5490    6.7990 C   0  0  0  0  0  0  0  0  0  0  0  0
    4.0790   23.0640    6.2870 C   0  0  0  0  0  0  0  0  0  0  0  0
    4.0030   23.8460    5.0940 C   0  0  0  0  0  0  0  0  0  0  0  0
    2.8130   22.7430    7.0870 C   0  0  0  0  0  0  0  0  0  0  0  0
    1.4110   22.7470    6.4930 C   0  0  0  0  0  0  0  0  0  0  0  0
    0.3600   22.3420    7.7320 C   0  0  0  0  0  0  0  0  0  0  0  0
   -1.1480   22.2940    7.5200 C   0  0  0  0  0  0  0  0  0  0  0  0
   -1.9130   21.3110    8.0770 C   0  0  0  0  0  0  0  0  0  0  0  0
   -3.3230   21.3120    7.8240 C   0  0  0  0  0  0  0  0  0  0  0  0
   -3.8990   22.3170    6.9700 C   0  0  0  0  0  0  0  0  0  0  0  0
   -3.0940   23.3160    6.3790 C   0  0  0  0  0  0  0  0  0  0  0  0
   -1.7270   23.3270    6.6230 C   0  0  0  0  0  0  0  0  0  0  0  0
    6.5000   23.6030    4.9020 C   0  0  0  0  0  0  0  0  0  0  0  0
    6.5490   22.8540    6.0560 C   0  0  0  0  0  0  0  0  0  0  0  0
    1.1030   22.1290    8.9660 C   0  0  0  0  0  0  0  0  0  0  0  0
    9.5890   32.7130    3.1980 O   0  0  0  0  0  0  0  0  0  0  0  0
   10.6920   31.2430   11.5470 O   0  0  0  0  0  0  0  0  0  0  0  0
    9.4181   29.8070    7.3033 H   0  0  0  0  0  0  0  0  0  0  0  0
    7.0030   29.0390    8.7786 H   0  0  0  0  0  0  0  0  0  0  0  0
    6.9032   27.2453    4.2771 H   0  0  0  0  0  0  0  0  0  0  0  0
    9.4938   29.6708    9.5901 H   0  0  0  0  0  0  0  0  0  0  0  0
    8.0275   29.6974   10.6272 H   0  0  0  0  0  0  0  0  0  0  0  0
    8.0894   31.9100   10.9142 H   0  0  0  0  0  0  0  0  0  0  0  0
    8.6877   32.2299    9.2510 H   0  0  0  0  0  0  0  0  0  0  0  0
    9.5661   28.2615    5.2374 H   0  0  0  0  0  0  0  0  0  0  0  0
    7.6695   30.3750    4.6324 H   0  0  0  0  0  0  0  0  0  0  0  0
    7.8647   29.3046    3.2031 H   0  0  0  0  0  0  0  0  0  0  0  0
   10.2696   29.7203    3.2220 H   0  0  0  0  0  0  0  0  0  0  0  0
   10.0717   30.7937    4.6487 H   0  0  0  0  0  0  0  0  0  0  0  0
    6.4685   32.6249    6.7280 H   0  0  0  0  0  0  0  0  0  0  0  0
    7.8665   31.6435    6.4408 H   0  0  0  0  0  0  0  0  0  0  0  0
    8.6236   24.7589    2.4237 H   0  0  0  0  0  0  0  0  0  0  0  0
    7.0366   25.3860    2.9847 H   0  0  0  0  0  0  0  0  0  0  0  0
    8.6318   23.7431    4.8902 H   0  0  0  0  0  0  0  0  0  0  0  0
    7.9220   22.9073    3.4674 H   0  0  0  0  0  0  0  0  0  0  0  0
    5.1809   24.7096    3.4438 H   0  0  0  0  0  0  0  0  0  0  0  0
    5.3515   21.9547    7.7051 H   0  0  0  0  0  0  0  0  0  0  0  0
    3.0477   24.2210    4.7450 H   0  0  0  0  0  0  0  0  0  0  0  0
    1.1434   22.9702    5.4613 H   0  0  0  0  0  0  0  0  0  0  0  0
   -1.4630   20.5450    8.6982 H   0  0  0  0  0  0  0  0  0  0  0  0
   -3.9556   20.5563    8.2755 H   0  0  0  0  0  0  0  0  0  0  0  0
   -4.9657   22.3072    6.7776 H   0  0  0  0  0  0  0  0  0  0  0  0
   -3.5403   24.0689    5.7394 H   0  0  0  0  0  0  0  0  0  0  0  0
   -1.0923   24.0776    6.1661 H   0  0  0  0  0  0  0  0  0  0  0  0
    7.5024   22.4867    6.4182 H   0  0  0  0  0  0  0  0  0  0  0  0
    0.6823   21.8623    9.9344 H   0  0  0  0  0  0  0  0  0  0  0  0
  1 17  1  0  0  0  0
  1 18  2  0  0  0  0
  2  4  1  0  0  0  0
  2 41  1  0  0  0  0
  4  1  1  0  0  0  0
  4  7  1  0  0  0  0
  4 42  1  1  0  0  0
  5 12  1  0  0  0  0
  5 43  1  0  0  0  0
  7  8  1  0  0  0  0
  7 44  1  0  0  0  0
  7 45  1  0  0  0  0
  8 10  1  0  0  0  0
  8 46  1  0  0  0  0
  8 47  1  0  0  0  0
 10 15  1  0  0  0  0
 10 40  2  0  0  0  0
 11  2  1  0  0  0  0
 11  3  2  0  0  0  0
 12 11  1  0  0  0  0
 12 14  1  0  0  0  0
 12 48  1  1  0  0  0
 13 38  1  0  0  0  0
 14 16  1  0  0  0  0
 14 49  1  0  0  0  0
 14 50  1  0  0  0  0
 16 19  1  0  0  0  0
 16 51  1  0  0  0  0
 16 52  1  0  0  0  0
 17 53  1  0  0  0  0
 17 54  1  0  0  0  0
 19  9  1  0  0  0  0
 19 39  2  0  0  0  0
 20  5  1  0  0  0  0
 20  6  2  0  0  0  0
 21 20  1  0  0  0  0
 21 55  1  0  0  0  0
 21 56  1  0  0  0  0
 22 21  1  0  0  0  0
 22 57  1  0  0  0  0
 22 58  1  0  0  0  0
 23 36  1  0  0  0  0
 23 59  1  0  0  0  0
 24 37  1  0  0  0  0
 24 60  1  0  0  0  0
 25 24  2  0  0  0  0
 25 26  1  0  0  0  0
 25 27  1  0  0  0  0
 26 23  2  0  0  0  0
 26 61  1  0  0  0  0
 27 13  1  0  0  0  0
 27 28  2  0  0  0  0
 28 29  1  0  0  0  0
 28 62  1  0  0  0  0
 29 30  1  0  0  0  0
 29 38  2  0  0  0  0
 30 31  2  0  0  0  0
 30 35  1  0  0  0  0
 31 32  1  0  0  0  0
 31 63  1  0  0  0  0
 32 33  2  0  0  0  0
 32 64  1  0  0  0  0
 33 34  1  0  0  0  0
 33 65  1  0  0  0  0
 34 35  2  0  0  0  0
 34 66  1  0  0  0  0
 35 67  1  0  0  0  0
 36 22  1  0  0  0  0
 36 37  2  0  0  0  0
 37 68  1  0  0  0  0
 38 69  1  0  0  0  0
M  CHG  2   9  -1  15  -1
M  END
