3lnz_ligand
 OpenBabel08222323343D

177180  0  0  1  0  0  0  0  0999 V2000
   43.0210   -8.9780   30.4340 N   0  3  0  0  0  0  0  0  0  0  0  0
   41.9050   -9.9900   30.3790 C   0  0  2  0  0  0  0  0  0  0  0  0
   42.4870  -11.4130   30.3230 C   0  0  0  0  0  0  0  0  0  0  0  0
   43.4340  -11.6520   29.5680 O   0  0  0  0  0  0  0  0  0  0  0  0
   41.1330   -9.7770   29.0850 C   0  0  2  0  0  0  0  0  0  0  0  0
   40.7960   -8.3920   28.9840 O   0  0  0  0  0  0  0  0  0  0  0  0
   39.8210  -10.6530   29.0470 C   0  0  0  0  0  0  0  0  0  0  0  0
   41.9270  -12.3300   31.1060 N   0  0  0  0  0  0  0  0  0  0  0  0
   42.3790  -13.6980   31.1600 C   0  0  2  0  0  0  0  0  0  0  0  0
   41.8220  -14.4060   29.9280 C   0  0  0  0  0  0  0  0  0  0  0  0
   40.8070  -13.9860   29.4070 O   0  0  0  0  0  0  0  0  0  0  0  0
   41.8320  -14.3860   32.4350 C   0  0  0  0  0  0  0  0  0  0  0  0
   40.4080  -14.3390   32.4410 O   0  0  0  0  0  0  0  0  0  0  0  0
   42.4740  -15.4900   29.4850 N   0  0  0  0  0  0  0  0  0  0  0  0
   41.8650  -16.4370   28.5840 C   0  0  2  0  0  0  0  0  0  0  0  0
   40.4680  -16.8250   29.1360 C   0  0  0  0  0  0  0  0  0  0  0  0
   39.5360  -16.8810   28.3960 O   0  0  0  0  0  0  0  0  0  0  0  0
   42.7220  -17.7120   28.3070 C   0  0  0  0  0  0  0  0  0  0  0  0
   41.9330  -18.8160   27.5850 C   0  0  0  0  0  0  0  0  0  0  0  0
   41.8380  -18.8180   26.1850 C   0  0  0  0  0  0  0  0  0  0  0  0
   41.3110  -19.8410   28.3110 C   0  0  0  0  0  0  0  0  0  0  0  0
   41.1000  -19.7800   25.4980 C   0  0  0  0  0  0  0  0  0  0  0  0
   40.5870  -20.8430   27.6490 C   0  0  0  0  0  0  0  0  0  0  0  0
   40.4650  -20.8120   26.2220 C   0  0  0  0  0  0  0  0  0  0  0  0
   40.3370  -17.0650   30.4430 N   0  0  0  0  0  0  0  0  0  0  0  0
   39.0300  -17.5420   30.9820 C   0  0  2  0  0  0  0  0  0  0  0  0
   37.8680  -16.6100   30.6870 C   0  0  0  0  0  0  0  0  0  0  0  0
   36.7490  -17.0280   30.3140 O   0  0  0  0  0  0  0  0  0  0  0  0
   39.1500  -17.8950   32.5200 C   0  0  0  0  0  0  0  0  0  0  0  0
   38.1180  -15.3200   30.8500 N   0  0  0  0  0  0  0  0  0  0  0  0
   37.1260  -14.3100   30.5280 C   0  0  2  0  0  0  0  0  0  0  0  0
   36.8260  -14.2790   29.0480 C   0  0  0  0  0  0  0  0  0  0  0  0
   35.6650  -14.2980   28.6430 O   0  0  0  0  0  0  0  0  0  0  0  0
   37.5490  -12.9390   31.1010 C   0  0  0  0  0  0  0  0  0  0  0  0
   36.6590  -11.8040   30.6360 C   0  0  0  0  0  0  0  0  0  0  0  0
   36.8640  -10.5540   31.3850 C   0  0  0  0  0  0  0  0  0  0  0  0
   35.9080   -9.7200   31.3870 O   0  5  0  0  0  0  0  0  0  0  0  0
   37.9620  -10.4080   31.9670 O   0  0  0  0  0  0  0  0  0  0  0  0
   37.8540  -14.2980   28.2100 N   0  0  0  0  0  0  0  0  0  0  0  0
   37.6410  -14.1780   26.7760 C   0  0  2  0  0  0  0  0  0  0  0  0
   36.8010  -15.3410   26.3270 C   0  0  0  0  0  0  0  0  0  0  0  0
   35.8720  -15.1950   25.5480 O   0  0  0  0  0  0  0  0  0  0  0  0
   38.9730  -14.2300   26.0040 C   0  0  0  0  0  0  0  0  0  0  0  0
   39.7930  -12.9670   25.9050 C   0  0  0  0  0  0  0  0  0  0  0  0
   39.3140  -11.8560   25.2150 C   0  0  0  0  0  0  0  0  0  0  0  0
   41.0970  -12.9270   26.4210 C   0  0  0  0  0  0  0  0  0  0  0  0
   40.0810  -10.7280   25.0660 C   0  0  0  0  0  0  0  0  0  0  0  0
   41.8780  -11.7790   26.2970 C   0  0  0  0  0  0  0  0  0  0  0  0
   41.3440  -10.6810   25.6060 C   0  0  0  0  0  0  0  0  0  0  0  0
   42.0770   -9.5530   25.4410 O   0  0  0  0  0  0  0  0  0  0  0  0
   37.1690  -16.5200   26.8020 N   0  0  0  0  0  0  0  0  0  0  0  0
   36.3960  -17.7340   26.5700 C   0  0  2  0  0  0  0  0  0  0  0  0
   34.9280  -17.6010   26.9980 C   0  0  0  0  0  0  0  0  0  0  0  0
   34.0110  -17.9340   26.2150 O   0  0  0  0  0  0  0  0  0  0  0  0
   37.0630  -18.9540   27.2080 C   0  0  0  0  0  0  0  0  0  0  0  0
   36.5000  -20.2220   26.6190 C   0  0  0  0  0  0  0  0  0  0  0  0
   35.5970  -21.0340   27.1700 C   0  0  0  0  0  0  0  0  0  0  0  0
   36.7900  -20.7450   25.3140 C   0  0  0  0  0  0  0  0  0  0  0  0
   35.2980  -22.0830   26.3000 N   0  0  0  0  0  0  0  0  0  0  0  0
   35.9890  -21.8850   25.1360 C   0  0  0  0  0  0  0  0  0  0  0  0
   37.6330  -20.3170   24.2510 C   0  0  0  0  0  0  0  0  0  0  0  0
   36.0330  -22.6660   23.9710 C   0  0  0  0  0  0  0  0  0  0  0  0
   37.6520  -21.0710   23.0790 C   0  0  0  0  0  0  0  0  0  0  0  0
   36.8550  -22.2310   22.9500 C   0  0  0  0  0  0  0  0  0  0  0  0
   34.6900  -17.0730   28.2040 N   0  0  0  0  0  0  0  0  0  0  0  0
   33.3340  -17.0050   28.7270 C   0  0  2  0  0  0  0  0  0  0  0  0
   32.5110  -16.0810   27.8490 C   0  0  0  0  0  0  0  0  0  0  0  0
   31.2870  -16.2730   27.7010 O   0  0  0  0  0  0  0  0  0  0  0  0
   33.3190  -16.5180   30.1620 C   0  0  0  0  0  0  0  0  0  0  0  0
   33.1720  -15.0890   27.2390 N   0  0  0  0  0  0  0  0  0  0  0  0
   32.4880  -14.1880   26.3540 C   0  0  2  0  0  0  0  0  0  0  0  0
   31.9740  -14.7540   25.0860 C   0  0  0  0  0  0  0  0  0  0  0  0
   31.2390  -14.0550   24.4300 O   0  0  0  0  0  0  0  0  0  0  0  0
   33.3100  -12.9670   25.9930 C   0  0  0  0  0  0  0  0  0  0  0  0
   33.4930  -12.0580   27.2100 C   0  0  0  0  0  0  0  0  0  0  0  0
   34.5410  -11.0370   26.9170 C   0  0  0  0  0  0  0  0  0  0  0  0
   32.1390  -11.4540   27.7660 C   0  0  0  0  0  0  0  0  0  0  0  0
   32.3980  -15.9530   24.7070 N   0  0  0  0  0  0  0  0  0  0  0  0
   31.7670  -16.6830   23.5580 C   0  0  2  0  0  0  0  0  0  0  0  0
   30.3040  -16.9500   23.8630 C   0  0  0  0  0  0  0  0  0  0  0  0
   29.4720  -17.1050   22.9440 O   0  0  0  0  0  0  0  0  0  0  0  0
   32.5070  -17.9810   23.2750 C   0  0  0  0  0  0  0  0  0  0  0  0
   33.9880  -17.8370   22.8500 C   0  0  0  0  0  0  0  0  0  0  0  0
   34.5910  -19.2470   22.7620 C   0  0  0  0  0  0  0  0  0  0  0  0
   34.1190  -17.1060   21.4920 C   0  0  0  0  0  0  0  0  0  0  0  0
   29.9880  -16.9770   25.1640 N   0  0  0  0  0  0  0  0  0  0  0  0
   28.6220  -16.9230   25.6220 C   0  0  2  0  0  0  0  0  0  0  0  0
   28.4950  -16.0800   26.9170 C   0  0  0  0  0  0  0  0  0  0  0  0
   27.8960  -14.9900   26.9140 O   0  5  0  0  0  0  0  0  0  0  0  0
   28.1110  -18.3290   25.8360 C   0  0  0  0  0  0  0  0  0  0  0  0
   29.0740  -19.0290   26.5440 O   0  0  0  0  0  0  0  0  0  0  0  0
   28.9890  -16.4750   27.9880 O   0  0  0  0  0  0  0  0  0  0  0  0
   43.5457   -9.1025   31.2856 H   0  0  0  0  0  0  0  0  0  0  0  0
   42.6327   -8.0481   30.4115 H   0  0  0  0  0  0  0  0  0  0  0  0
   43.6308   -9.1068   29.6418 H   0  0  0  0  0  0  0  0  0  0  0  0
   41.2454   -9.8773   31.2521 H   0  0  0  0  0  0  0  0  0  0  0  0
   41.7716  -10.0597   28.2352 H   0  0  0  0  0  0  0  0  0  0  0  0
   40.3128   -8.2426   28.1798 H   0  0  0  0  0  0  0  0  0  0  0  0
   39.2887  -10.4752   28.1009 H   0  0  0  0  0  0  0  0  0  0  0  0
   39.1713  -10.3771   29.8906 H   0  0  0  0  0  0  0  0  0  0  0  0
   40.0884  -11.7173   29.1229 H   0  0  0  0  0  0  0  0  0  0  0  0
   41.1573  -12.0585   31.6838 H   0  0  0  0  0  0  0  0  0  0  0  0
   43.4783  -13.7355   31.1588 H   0  0  0  0  0  0  0  0  0  0  0  0
   42.2174  -13.8652   33.3239 H   0  0  0  0  0  0  0  0  0  0  0  0
   42.1619  -15.4352   32.4529 H   0  0  0  0  0  0  0  0  0  0  0  0
   40.1221  -13.4331   32.4268 H   0  0  0  0  0  0  0  0  0  0  0  0
   43.4135  -15.6472   29.7892 H   0  0  0  0  0  0  0  0  0  0  0  0
   41.7233  -15.9284   27.6190 H   0  0  0  0  0  0  0  0  0  0  0  0
   43.0822  -18.1087   29.2677 H   0  0  0  0  0  0  0  0  0  0  0  0
   43.5816  -17.4285   27.6819 H   0  0  0  0  0  0  0  0  0  0  0  0
   42.3537  -18.0489   25.6215 H   0  0  0  0  0  0  0  0  0  0  0  0
   41.3902  -19.8593   29.3920 H   0  0  0  0  0  0  0  0  0  0  0  0
   41.0144  -19.7362   24.4183 H   0  0  0  0  0  0  0  0  0  0  0  0
   40.1202  -21.6400   28.2164 H   0  0  0  0  0  0  0  0  0  0  0  0
   39.8916  -21.5723   25.7041 H   0  0  0  0  0  0  0  0  0  0  0  0
   41.1125  -16.9255   31.0587 H   0  0  0  0  0  0  0  0  0  0  0  0
   38.8044  -18.4835   30.4599 H   0  0  0  0  0  0  0  0  0  0  0  0
   38.1757  -18.2435   32.8933 H   0  0  0  0  0  0  0  0  0  0  0  0
   39.4576  -16.9990   33.0790 H   0  0  0  0  0  0  0  0  0  0  0  0
   39.9000  -18.6880   32.6568 H   0  0  0  0  0  0  0  0  0  0  0  0
   39.0094  -15.0352   31.2025 H   0  0  0  0  0  0  0  0  0  0  0  0
   36.1919  -14.5946   31.0343 H   0  0  0  0  0  0  0  0  0  0  0  0
   38.5806  -12.7288   30.7823 H   0  0  0  0  0  0  0  0  0  0  0  0
   37.5076  -12.9899   32.1990 H   0  0  0  0  0  0  0  0  0  0  0  0
   35.6099  -12.1129   30.7544 H   0  0  0  0  0  0  0  0  0  0  0  0
   36.8668  -11.6113   29.5732 H   0  0  0  0  0  0  0  0  0  0  0  0
   38.7830  -14.3956   28.5669 H   0  0  0  0  0  0  0  0  0  0  0  0
   37.1259  -13.2306   26.5589 H   0  0  0  0  0  0  0  0  0  0  0  0
   38.7419  -14.5493   24.9771 H   0  0  0  0  0  0  0  0  0  0  0  0
   39.6023  -14.9893   26.4913 H   0  0  0  0  0  0  0  0  0  0  0  0
   38.3179  -11.8829   24.7882 H   0  0  0  0  0  0  0  0  0  0  0  0
   41.5019  -13.7989   26.9219 H   0  0  0  0  0  0  0  0  0  0  0  0
   39.6911   -9.8747   24.5229 H   0  0  0  0  0  0  0  0  0  0  0  0
   42.8734  -11.7357   26.7240 H   0  0  0  0  0  0  0  0  0  0  0  0
   41.5684   -8.9144   24.9549 H   0  0  0  0  0  0  0  0  0  0  0  0
   38.0094  -16.5805   27.3406 H   0  0  0  0  0  0  0  0  0  0  0  0
   36.3928  -17.9030   25.4831 H   0  0  0  0  0  0  0  0  0  0  0  0
   36.8782  -18.9437   28.2923 H   0  0  0  0  0  0  0  0  0  0  0  0
   38.1462  -18.9158   27.0202 H   0  0  0  0  0  0  0  0  0  0  0  0
   35.1565  -20.8980   28.1566 H   0  0  0  0  0  0  0  0  0  0  0  0
   34.6656  -22.8711   26.4998 H   0  0  0  0  0  0  0  0  0  0  0  0
   38.2447  -19.4276   24.3500 H   0  0  0  0  0  0  0  0  0  0  0  0
   35.4464  -23.5727   23.8764 H   0  0  0  0  0  0  0  0  0  0  0  0
   38.2864  -20.7637   22.2555 H   0  0  0  0  0  0  0  0  0  0  0  0
   36.8898  -22.7945   22.0246 H   0  0  0  0  0  0  0  0  0  0  0  0
   35.4504  -16.7222   28.7505 H   0  0  0  0  0  0  0  0  0  0  0  0
   32.8932  -18.0123   28.6966 H   0  0  0  0  0  0  0  0  0  0  0  0
   32.2814  -16.4786   30.5250 H   0  0  0  0  0  0  0  0  0  0  0  0
   33.7636  -15.5131   30.2129 H   0  0  0  0  0  0  0  0  0  0  0  0
   33.9011  -17.2087   30.7898 H   0  0  0  0  0  0  0  0  0  0  0  0
   34.1521  -14.9743   27.4013 H   0  0  0  0  0  0  0  0  0  0  0  0
   31.6112  -13.8364   26.9175 H   0  0  0  0  0  0  0  0  0  0  0  0
   32.7949  -12.4071   25.1986 H   0  0  0  0  0  0  0  0  0  0  0  0
   34.2976  -13.2905   25.6324 H   0  0  0  0  0  0  0  0  0  0  0  0
   33.8900  -12.6908   28.0174 H   0  0  0  0  0  0  0  0  0  0  0  0
   34.6717  -10.3841   27.7926 H   0  0  0  0  0  0  0  0  0  0  0  0
   34.2321  -10.4323   26.0516 H   0  0  0  0  0  0  0  0  0  0  0  0
   35.4918  -11.5419   26.6909 H   0  0  0  0  0  0  0  0  0  0  0  0
   31.4244  -12.2687   27.9549 H   0  0  0  0  0  0  0  0  0  0  0  0
   31.7158  -10.7595   27.0254 H   0  0  0  0  0  0  0  0  0  0  0  0
   32.3361  -10.9144   28.7040 H   0  0  0  0  0  0  0  0  0  0  0  0
   33.1564  -16.3803   25.1991 H   0  0  0  0  0  0  0  0  0  0  0  0
   31.8277  -16.0471   22.6625 H   0  0  0  0  0  0  0  0  0  0  0  0
   31.9740  -18.5033   22.4669 H   0  0  0  0  0  0  0  0  0  0  0  0
   32.4768  -18.5921   24.1891 H   0  0  0  0  0  0  0  0  0  0  0  0
   34.5274  -17.2575   23.6137 H   0  0  0  0  0  0  0  0  0  0  0  0
   35.6466  -19.1762   22.4609 H   0  0  0  0  0  0  0  0  0  0  0  0
   34.0363  -19.8373   22.0178 H   0  0  0  0  0  0  0  0  0  0  0  0
   34.5220  -19.7373   23.7443 H   0  0  0  0  0  0  0  0  0  0  0  0
   33.6826  -16.0996   21.5738 H   0  0  0  0  0  0  0  0  0  0  0  0
   33.5856  -17.6750   20.7163 H   0  0  0  0  0  0  0  0  0  0  0  0
   35.1819  -17.0238   21.2208 H   0  0  0  0  0  0  0  0  0  0  0  0
   30.7230  -17.0365   25.8395 H   0  0  0  0  0  0  0  0  0  0  0  0
   28.0117  -16.4449   24.8417 H   0  0  0  0  0  0  0  0  0  0  0  0
   27.9347  -18.8144   24.8648 H   0  0  0  0  0  0  0  0  0  0  0  0
   27.1721  -18.3023   26.4084 H   0  0  0  0  0  0  0  0  0  0  0  0
   29.2238  -18.6023   27.3795 H   0  0  0  0  0  0  0  0  0  0  0  0
  1  2  1  0  0  0  0
  1 93  1  0  0  0  0
  1 94  1  0  0  0  0
  1 95  1  0  0  0  0
  2  3  1  0  0  0  0
  2  5  1  0  0  0  0
  2 96  1  1  0  0  0
  3  4  2  0  0  0  0
  3  8  1  0  0  0  0
  5  6  1  0  0  0  0
  5  7  1  0  0  0  0
  5 97  1  6  0  0  0
  6 98  1  0  0  0  0
  7 99  1  0  0  0  0
  7100  1  0  0  0  0
  7101  1  0  0  0  0
  8  9  1  0  0  0  0
  8102  1  0  0  0  0
  9 10  1  0  0  0  0
  9 12  1  0  0  0  0
  9103  1  6  0  0  0
 10 11  2  0  0  0  0
 10 14  1  0  0  0  0
 12 13  1  0  0  0  0
 12104  1  0  0  0  0
 12105  1  0  0  0  0
 13106  1  0  0  0  0
 14 15  1  0  0  0  0
 14107  1  0  0  0  0
 15 16  1  0  0  0  0
 15 18  1  0  0  0  0
 15108  1  6  0  0  0
 16 17  2  0  0  0  0
 16 25  1  0  0  0  0
 18 19  1  0  0  0  0
 18109  1  0  0  0  0
 18110  1  0  0  0  0
 19 20  2  0  0  0  0
 19 21  1  0  0  0  0
 20 22  1  0  0  0  0
 20111  1  0  0  0  0
 21 23  2  0  0  0  0
 21112  1  0  0  0  0
 22 24  2  0  0  0  0
 22113  1  0  0  0  0
 23 24  1  0  0  0  0
 23114  1  0  0  0  0
 24115  1  0  0  0  0
 25 26  1  0  0  0  0
 25116  1  0  0  0  0
 26 27  1  0  0  0  0
 26 29  1  0  0  0  0
 26117  1  6  0  0  0
 27 28  2  0  0  0  0
 27 30  1  0  0  0  0
 29118  1  0  0  0  0
 29119  1  0  0  0  0
 29120  1  0  0  0  0
 30 31  1  0  0  0  0
 30121  1  0  0  0  0
 31 32  1  0  0  0  0
 31 34  1  0  0  0  0
 31122  1  1  0  0  0
 32 33  2  0  0  0  0
 32 39  1  0  0  0  0
 34 35  1  0  0  0  0
 34123  1  0  0  0  0
 34124  1  0  0  0  0
 35 36  1  0  0  0  0
 35125  1  0  0  0  0
 35126  1  0  0  0  0
 36 37  1  0  0  0  0
 36 38  2  0  0  0  0
 39 40  1  0  0  0  0
 39127  1  0  0  0  0
 40 41  1  0  0  0  0
 40 43  1  0  0  0  0
 40128  1  6  0  0  0
 41 42  2  0  0  0  0
 41 51  1  0  0  0  0
 43 44  1  0  0  0  0
 43129  1  0  0  0  0
 43130  1  0  0  0  0
 44 45  2  0  0  0  0
 44 46  1  0  0  0  0
 45 47  1  0  0  0  0
 45131  1  0  0  0  0
 46 48  2  0  0  0  0
 46132  1  0  0  0  0
 47 49  2  0  0  0  0
 47133  1  0  0  0  0
 48 49  1  0  0  0  0
 48134  1  0  0  0  0
 49 50  1  0  0  0  0
 50135  1  0  0  0  0
 51 52  1  0  0  0  0
 51136  1  0  0  0  0
 52 53  1  0  0  0  0
 52 55  1  0  0  0  0
 52137  1  6  0  0  0
 53 54  2  0  0  0  0
 53 65  1  0  0  0  0
 55 56  1  0  0  0  0
 55138  1  0  0  0  0
 55139  1  0  0  0  0
 56 57  2  0  0  0  0
 56 58  1  0  0  0  0
 57 59  1  0  0  0  0
 57140  1  0  0  0  0
 58 60  2  0  0  0  0
 58 61  1  0  0  0  0
 59 60  1  0  0  0  0
 59141  1  0  0  0  0
 60 62  1  0  0  0  0
 61 63  2  0  0  0  0
 61142  1  0  0  0  0
 62 64  2  0  0  0  0
 62143  1  0  0  0  0
 63 64  1  0  0  0  0
 63144  1  0  0  0  0
 64145  1  0  0  0  0
 65 66  1  0  0  0  0
 65146  1  0  0  0  0
 66 67  1  0  0  0  0
 66 69  1  0  0  0  0
 66147  1  6  0  0  0
 67 68  2  0  0  0  0
 67 70  1  0  0  0  0
 69148  1  0  0  0  0
 69149  1  0  0  0  0
 69150  1  0  0  0  0
 70 71  1  0  0  0  0
 70151  1  0  0  0  0
 71 72  1  0  0  0  0
 71 74  1  0  0  0  0
 71152  1  1  0  0  0
 72 73  2  0  0  0  0
 72 78  1  0  0  0  0
 74 75  1  0  0  0  0
 74153  1  0  0  0  0
 74154  1  0  0  0  0
 75 76  1  0  0  0  0
 75 77  1  0  0  0  0
 75155  1  0  0  0  0
 76156  1  0  0  0  0
 76157  1  0  0  0  0
 76158  1  0  0  0  0
 77159  1  0  0  0  0
 77160  1  0  0  0  0
 77161  1  0  0  0  0
 78 79  1  0  0  0  0
 78162  1  0  0  0  0
 79 80  1  0  0  0  0
 79 82  1  0  0  0  0
 79163  1  6  0  0  0
 80 81  2  0  0  0  0
 80 86  1  0  0  0  0
 82 83  1  0  0  0  0
 82164  1  0  0  0  0
 82165  1  0  0  0  0
 83 84  1  0  0  0  0
 83 85  1  0  0  0  0
 83166  1  0  0  0  0
 84167  1  0  0  0  0
 84168  1  0  0  0  0
 84169  1  0  0  0  0
 85170  1  0  0  0  0
 85171  1  0  0  0  0
 85172  1  0  0  0  0
 86 87  1  0  0  0  0
 86173  1  0  0  0  0
 87 88  1  0  0  0  0
 87 90  1  0  0  0  0
 87174  1  6  0  0  0
 88 89  1  0  0  0  0
 88 92  2  0  0  0  0
 90 91  1  0  0  0  0
 90175  1  0  0  0  0
 90176  1  0  0  0  0
 91177  1  0  0  0  0
M  CHG  3   1   1  37  -1  89  -1
M  END
