3lp2_ligand
 OpenBabel08222323343D

 53 55  0  0  0  0  0  0  0  0999 V2000
    9.1360    8.3570   25.2210 C   0  0  0  0  0  0  0  0  0  0  0  0
   10.6280    9.5030   27.1800 N   0  0  0  0  0  0  0  0  0  0  0  0
    7.1270    6.5730   26.0080 O   0  0  0  0  0  0  0  0  0  0  0  0
   10.1390    9.2610   24.8700 C   0  0  0  0  0  0  0  0  0  0  0  0
   10.8970    9.8290   25.8940 C   0  0  0  0  0  0  0  0  0  0  0  0
    9.6550    8.6320   27.5390 C   0  0  0  0  0  0  0  0  0  0  0  0
    8.8680    8.0290   26.5540 C   0  0  0  0  0  0  0  0  0  0  0  0
    9.4170    8.3290   28.8380 N   0  0  0  0  0  0  0  0  0  0  0  0
    8.4670    7.4770   29.2980 C   0  0  0  0  0  0  0  0  0  0  0  0
    7.6650    6.8560   28.3270 C   0  0  0  0  0  0  0  0  0  0  0  0
    7.8680    7.1390   26.9630 C   0  0  0  0  0  0  0  0  0  0  0  0
    6.5810    5.8980   28.7420 C   0  0  0  0  0  0  0  0  0  0  0  0
    5.7460    6.1670   29.5950 O   0  0  0  0  0  0  0  0  0  0  0  0
    8.3010    7.2370   30.5980 O   0  0  0  0  0  0  0  0  0  0  0  0
   10.2340    8.9650   29.7690 O   0  0  0  0  0  0  0  0  0  0  0  0
   10.4050    9.5750   23.5960 O   0  0  0  0  0  0  0  0  0  0  0  0
   10.8350   10.7820   23.2190 C   0  0  0  0  0  0  0  0  0  0  0  0
    9.8740   11.7570   22.9740 C   0  0  0  0  0  0  0  0  0  0  0  0
   10.2700   13.0310   22.5710 C   0  0  0  0  0  0  0  0  0  0  0  0
   11.6010   13.4030   22.3740 C   0  0  0  0  0  0  0  0  0  0  0  0
   12.5380   12.3930   22.6260 C   0  0  0  0  0  0  0  0  0  0  0  0
   12.1810   11.1050   23.0310 C   0  0  0  0  0  0  0  0  0  0  0  0
   11.9240   14.6600   21.9940 N   0  0  0  0  0  0  0  0  0  0  0  0
   11.0620   15.4580   21.1120 C   0  0  0  0  0  0  0  0  0  0  0  0
   11.3480   15.2760   19.6210 C   0  0  0  0  0  0  0  0  0  0  0  0
   13.1160   15.3540   22.5070 C   0  0  0  0  0  0  0  0  0  0  0  0
   14.4000   15.1080   21.7120 C   0  0  0  0  0  0  0  0  0  0  0  0
    6.6790    4.7470   28.0640 O   0  0  0  0  0  0  0  0  0  0  0  0
    5.0820    4.0420   26.3600 C   0  0  0  0  0  0  0  0  0  0  0  0
    5.4510    3.9960   27.8480 C   0  0  0  0  0  0  0  0  0  0  0  0
    8.5468    7.8950   24.4372 H   0  0  0  0  0  0  0  0  0  0  0  0
    6.4878    5.9939   26.4062 H   0  0  0  0  0  0  0  0  0  0  0  0
   11.6946   10.5255   25.6620 H   0  0  0  0  0  0  0  0  0  0  0  0
    7.5910    6.6171   30.7163 H   0  0  0  0  0  0  0  0  0  0  0  0
    8.8217   11.5271   23.0959 H   0  0  0  0  0  0  0  0  0  0  0  0
    9.5007   13.7755   22.4008 H   0  0  0  0  0  0  0  0  0  0  0  0
   13.5901   12.6219   22.5008 H   0  0  0  0  0  0  0  0  0  0  0  0
   12.9473   10.3570   23.1992 H   0  0  0  0  0  0  0  0  0  0  0  0
   11.2015   16.5200   21.3625 H   0  0  0  0  0  0  0  0  0  0  0  0
   10.0168   15.1711   21.2999 H   0  0  0  0  0  0  0  0  0  0  0  0
   10.6615   15.9061   19.0364 H   0  0  0  0  0  0  0  0  0  0  0  0
   11.2018   14.2211   19.3457 H   0  0  0  0  0  0  0  0  0  0  0  0
   12.3864   15.5700   19.4082 H   0  0  0  0  0  0  0  0  0  0  0  0
   13.2861   15.0208   23.5414 H   0  0  0  0  0  0  0  0  0  0  0  0
   12.9115   16.4348   22.4989 H   0  0  0  0  0  0  0  0  0  0  0  0
   15.2286   15.6665   22.1718 H   0  0  0  0  0  0  0  0  0  0  0  0
   14.2600   15.4474   20.6751 H   0  0  0  0  0  0  0  0  0  0  0  0
   14.6346   14.0333   21.7176 H   0  0  0  0  0  0  0  0  0  0  0  0
    4.1541    3.4749   26.1947 H   0  0  0  0  0  0  0  0  0  0  0  0
    5.8944    3.5968   25.7668 H   0  0  0  0  0  0  0  0  0  0  0  0
    4.9328    5.0872   26.0513 H   0  0  0  0  0  0  0  0  0  0  0  0
    4.6390    4.4413   28.4415 H   0  0  0  0  0  0  0  0  0  0  0  0
    5.6005    2.9510   28.1570 H   0  0  0  0  0  0  0  0  0  0  0  0
  1  4  2  0  0  0  0
  1 31  1  0  0  0  0
  2  5  2  0  0  0  0
  3 32  1  0  0  0  0
  4  5  1  0  0  0  0
  4 16  1  0  0  0  0
  5 33  1  0  0  0  0
  6  2  1  0  0  0  0
  6  8  1  0  0  0  0
  7  1  1  0  0  0  0
  7  6  2  0  0  0  0
  7 11  1  0  0  0  0
  8  9  2  0  0  0  0
  8 15  2  0  0  0  0
  9 10  1  0  0  0  0
  9 14  1  0  0  0  0
 10 11  2  0  0  0  0
 10 12  1  0  0  0  0
 11  3  1  0  0  0  0
 12 13  2  0  0  0  0
 12 28  1  0  0  0  0
 14 34  1  0  0  0  0
 16 17  1  0  0  0  0
 17 18  2  0  0  0  0
 17 22  1  0  0  0  0
 18 19  1  0  0  0  0
 18 35  1  0  0  0  0
 19 20  2  0  0  0  0
 19 36  1  0  0  0  0
 20 21  1  0  0  0  0
 20 23  1  0  0  0  0
 21 22  2  0  0  0  0
 21 37  1  0  0  0  0
 22 38  1  0  0  0  0
 23 24  1  0  0  0  0
 23 26  1  0  0  0  0
 24 25  1  0  0  0  0
 24 39  1  0  0  0  0
 24 40  1  0  0  0  0
 25 41  1  0  0  0  0
 25 42  1  0  0  0  0
 25 43  1  0  0  0  0
 26 27  1  0  0  0  0
 26 44  1  0  0  0  0
 26 45  1  0  0  0  0
 27 46  1  0  0  0  0
 27 47  1  0  0  0  0
 27 48  1  0  0  0  0
 28 30  1  0  0  0  0
 29 49  1  0  0  0  0
 29 50  1  0  0  0  0
 29 51  1  0  0  0  0
 30 29  1  0  0  0  0
 30 52  1  0  0  0  0
 30 53  1  0  0  0  0
M  END
