3lpg_ligand
 OpenBabel08222323343D

 47 49  0  0  0  0  0  0  0  0999 V2000
  -27.1830    7.2200   -8.2180 N   0  0  0  0  0  0  0  0  0  0  0  0
  -25.0700    7.6430   -4.0820 N   0  0  0  0  0  0  0  0  0  0  0  0
  -24.4810    5.2110   -3.6420 N   0  0  0  0  0  0  0  0  0  0  0  0
  -27.3300   12.5670  -10.4810 C   0  0  0  0  0  0  0  0  0  0  0  0
  -24.5490    6.8080   -2.0240 O   0  0  0  0  0  0  0  0  0  0  0  0
  -26.3020    5.6070   -6.5880 O   0  0  0  0  0  0  0  0  0  0  0  0
  -25.6240   11.1180   -3.3920 O   0  0  0  0  0  0  0  0  0  0  0  0
  -24.8160    3.5450   -6.0280 F   0  0  0  0  0  0  0  0  0  0  0  0
  -24.8520    0.9190   -3.4660 C   0  0  0  0  0  0  0  0  0  0  0  0
  -24.6840    1.7280   -2.2460 C   0  0  0  0  0  0  0  0  0  0  0  0
  -24.8910    1.5550   -4.7260 C   0  0  0  0  0  0  0  0  0  0  0  0
  -24.5540    3.1390   -2.3390 C   0  0  0  0  0  0  0  0  0  0  0  0
  -28.1270   10.1360  -10.3930 C   0  0  0  0  0  0  0  0  0  0  0  0
  -28.0830    8.7690   -9.8170 C   0  0  0  0  0  0  0  0  0  0  0  0
  -26.3960   10.8950   -8.7820 C   0  0  0  0  0  0  0  0  0  0  0  0
  -25.4910    9.2070   -7.1210 C   0  0  0  0  0  0  0  0  0  0  0  0
  -25.8060   10.0160   -3.7970 C   0  0  0  0  0  0  0  0  0  0  0  0
  -24.7300    8.9550   -3.5930 C   0  0  0  0  0  0  0  0  0  0  0  0
  -24.5430    7.4940   -5.4300 C   0  0  0  0  0  0  0  0  0  0  0  0
  -24.5270    6.6050   -3.1950 C   0  0  0  0  0  0  0  0  0  0  0  0
  -27.2660   11.1720   -9.8610 C   0  0  0  0  0  0  0  0  0  0  0  0
  -24.7660    2.9190   -4.8160 C   0  0  0  0  0  0  0  0  0  0  0  0
  -25.4720    7.8990   -6.5970 C   0  0  0  0  0  0  0  0  0  0  0  0
  -24.5730    3.7560   -3.5560 C   0  0  0  0  0  0  0  0  0  0  0  0
  -26.3180    6.9090   -7.1250 C   0  0  0  0  0  0  0  0  0  0  0  0
  -26.3550    9.5120   -8.1930 C   0  0  0  0  0  0  0  0  0  0  0  0
  -27.2050    8.4840   -8.7380 C   0  0  0  0  0  0  0  0  0  0  0  0
  -24.2268    5.3309   -4.6225 H   0  0  0  0  0  0  0  0  0  0  0  0
  -27.0705   12.5057  -11.5379 H   0  0  0  0  0  0  0  0  0  0  0  0
  -28.3397   12.9639  -10.3759 H   0  0  0  0  0  0  0  0  0  0  0  0
  -26.6253   13.2230   -9.9699 H   0  0  0  0  0  0  0  0  0  0  0  0
  -27.7739    6.5115   -8.6038 H   0  0  0  0  0  0  0  0  0  0  0  0
  -24.9457   -0.1647   -3.3962 H   0  0  0  0  0  0  0  0  0  0  0  0
  -24.6595    1.2425   -1.2704 H   0  0  0  0  0  0  0  0  0  0  0  0
  -25.0208    0.9607   -5.6305 H   0  0  0  0  0  0  0  0  0  0  0  0
  -24.4383    3.7331   -1.4325 H   0  0  0  0  0  0  0  0  0  0  0  0
  -28.8064   10.3601  -11.2154 H   0  0  0  0  0  0  0  0  0  0  0  0
  -28.7235    7.9852  -10.2214 H   0  0  0  0  0  0  0  0  0  0  0  0
  -25.7573   11.6807   -8.3785 H   0  0  0  0  0  0  0  0  0  0  0  0
  -24.8433    9.9766   -6.7012 H   0  0  0  0  0  0  0  0  0  0  0  0
  -26.3793   11.6574   -3.5946 H   0  0  0  0  0  0  0  0  0  0  0  0
  -23.8540    9.2828   -4.1528 H   0  0  0  0  0  0  0  0  0  0  0  0
  -24.5796    8.8613   -2.5175 H   0  0  0  0  0  0  0  0  0  0  0  0
  -24.3522    6.4285   -5.5582 H   0  0  0  0  0  0  0  0  0  0  0  0
  -23.6839    8.1622   -5.4886 H   0  0  0  0  0  0  0  0  0  0  0  0
  -25.9743   10.0970   -4.8810 H   0  0  0  0  0  0  0  0  0  0  0  0
  -26.7196    9.6430   -3.3109 H   0  0  0  0  0  0  0  0  0  0  0  0
  1 25  1  0  0  0  0
  1 32  1  0  0  0  0
  2 18  1  0  0  0  0
  2 20  1  0  0  0  0
  3 24  1  0  0  0  0
  3 28  1  0  0  0  0
  4 29  1  0  0  0  0
  4 30  1  0  0  0  0
  4 31  1  0  0  0  0
  7 41  1  0  0  0  0
  9 11  1  0  0  0  0
  9 33  1  0  0  0  0
 10  9  2  0  0  0  0
 10 34  1  0  0  0  0
 11 22  2  0  0  0  0
 11 35  1  0  0  0  0
 12 10  1  0  0  0  0
 12 36  1  0  0  0  0
 13 14  2  0  0  0  0
 13 37  1  0  0  0  0
 14 27  1  0  0  0  0
 14 38  1  0  0  0  0
 15 21  2  0  0  0  0
 15 39  1  0  0  0  0
 16 26  1  0  0  0  0
 16 40  1  0  0  0  0
 17  7  1  0  0  0  0
 17 46  1  0  0  0  0
 17 47  1  0  0  0  0
 18 17  1  0  0  0  0
 18 42  1  0  0  0  0
 18 43  1  0  0  0  0
 19  2  1  0  0  0  0
 19 23  1  0  0  0  0
 19 44  1  0  0  0  0
 19 45  1  0  0  0  0
 20  3  1  0  0  0  0
 20  5  2  0  0  0  0
 21  4  1  0  0  0  0
 21 13  1  0  0  0  0
 22  8  1  0  0  0  0
 22 24  1  0  0  0  0
 23 16  2  0  0  0  0
 23 25  1  0  0  0  0
 24 12  2  0  0  0  0
 25  6  2  0  0  0  0
 26 15  1  0  0  0  0
 26 27  2  0  0  0  0
 27  1  1  0  0  0  0
M  END
