3lqj_ligand
 OpenBabel08222323343D

113112  0  0  1  0  0  0  0  0999 V2000
   58.1090   34.7850   25.2510 N   0  3  0  0  0  0  0  0  0  0  0  0
   59.0110   33.8290   24.5420 C   0  0  2  0  0  0  0  0  0  0  0  0
   58.3640   33.3950   23.2350 C   0  0  0  0  0  0  0  0  0  0  0  0
   57.2990   32.7850   23.2400 O   0  0  0  0  0  0  0  0  0  0  0  0
   59.2700   32.6140   25.4240 C   0  0  0  0  0  0  0  0  0  0  0  0
   59.0060   33.7040   22.1140 N   0  0  0  0  0  0  0  0  0  0  0  0
   58.4560   33.3380   20.8090 C   0  0  2  0  0  0  0  0  0  0  0  0
   58.8820   31.9340   20.3850 C   0  0  0  0  0  0  0  0  0  0  0  0
   60.0480   31.5830   20.4870 O   0  0  0  0  0  0  0  0  0  0  0  0
   58.9060   34.3430   19.7460 C   0  0  0  0  0  0  0  0  0  0  0  0
   58.4540   35.7760   19.9860 C   0  0  0  0  0  0  0  0  0  0  0  0
   58.7880   36.6370   18.7760 C   0  0  0  0  0  0  0  0  0  0  0  0
   59.8980   37.5570   19.0120 N   0  0  0  0  0  0  0  0  0  0  0  0
   59.7720   38.7510   19.5840 C   0  0  0  0  0  3  0  0  0  0  0  0
   58.5790   39.1750   19.9800 N   0  0  0  0  0  0  0  0  0  0  0  0
   60.8350   39.5280   19.7520 N   0  0  0  0  0  0  0  0  0  0  0  0
   57.9330   31.1320   19.9070 N   0  0  0  0  0  0  0  0  0  0  0  0
   58.2410   29.7730   19.4640 C   0  0  2  0  0  0  0  0  0  0  0  0
   57.5610   29.5540   18.1260 C   0  0  0  0  0  0  0  0  0  0  0  0
   56.7630   30.3820   17.6970 O   0  0  0  0  0  0  0  0  0  0  0  0
   57.6970   28.7130   20.4350 C   0  0  2  0  0  0  0  0  0  0  0  0
   56.2670   28.7820   20.4530 O   0  0  0  0  0  0  0  0  0  0  0  0
   58.2180   28.9490   21.8400 C   0  0  0  0  0  0  0  0  0  0  0  0
   57.8690   28.4420   17.4670 N   0  0  0  0  0  0  0  0  0  0  0  0
   57.2390   28.1500   16.1850 C   0  0  1  0  0  0  0  0  0  0  0  0
   57.7470   26.8190   15.6270 C   0  0  0  0  0  0  0  0  0  0  0  0
   59.1500   26.8920   15.0490 C   0  0  0  0  0  0  0  0  0  0  0  0
   59.1800   27.7560   13.7930 C   0  0  0  0  0  0  0  0  0  0  0  0
   60.5940   27.8880   13.2520 C   0  0  0  0  0  0  0  0  0  0  0  0
   60.6460   28.4880   11.9170 N   0  3  0  0  0  0  0  0  0  0  0  0
   55.7370   28.0720   16.4010 C   0  0  0  0  0  0  0  0  0  0  0  0
   54.9430   28.4230   15.5290 O   0  0  0  0  0  0  0  0  0  0  0  0
   62.0810   28.6130   11.5970 C   0  0  0  0  0  0  0  0  0  0  0  0
   60.0020   29.8170   11.8200 C   0  0  0  0  0  0  0  0  0  0  0  0
   60.0050   27.6080   10.9300 C   0  0  0  0  0  0  0  0  0  0  0  0
   55.3550   27.6160   17.5850 N   0  0  0  0  0  0  0  0  0  0  0  0
   53.9520   27.4790   17.9270 C   0  0  2  0  0  0  0  0  0  0  0  0
   53.2450   28.8220   18.0840 C   0  0  0  0  0  0  0  0  0  0  0  0
   52.1290   28.9830   17.6010 O   0  0  0  0  0  0  0  0  0  0  0  0
   53.8100   26.6670   19.2120 C   0  0  0  0  0  0  0  0  0  0  0  0
   52.4110   26.1470   19.4560 C   0  0  0  0  0  0  0  0  0  0  0  0
   52.3350   25.2780   20.6870 C   0  0  0  0  0  0  0  0  0  0  0  0
   53.1130   24.3350   20.8420 O   0  0  0  0  0  0  0  0  0  0  0  0
   51.3930   25.5850   21.5720 N   0  0  0  0  0  0  0  0  0  0  0  0
   53.8780   29.7840   18.7530 N   0  0  0  0  0  0  0  0  0  0  0  0
   53.2470   31.0840   18.9380 C   0  0  2  0  0  0  0  0  0  0  0  0
   53.1970   31.8510   17.6230 C   0  0  0  0  0  0  0  0  0  0  0  0
   52.1033   31.8530   16.9974 O   0  5  0  0  0  0  0  0  0  0  0  0
   53.9870   31.9450   19.9870 C   0  0  2  0  0  0  0  0  0  0  0  0
   55.3080   32.2430   19.5270 O   0  0  0  0  0  0  0  0  0  0  0  0
   54.0690   31.2110   21.3190 C   0  0  0  0  0  0  0  0  0  0  0  0
   54.2077   32.4584   17.1791 O   0  0  0  0  0  0  0  0  0  0  0  0
   58.5378   35.0723   26.1168 H   0  0  0  0  0  0  0  0  0  0  0  0
   57.2284   34.3348   25.4455 H   0  0  0  0  0  0  0  0  0  0  0  0
   57.9520   35.5932   24.6694 H   0  0  0  0  0  0  0  0  0  0  0  0
   59.9674   34.3268   24.3242 H   0  0  0  0  0  0  0  0  0  0  0  0
   59.9346   31.9135   24.8971 H   0  0  0  0  0  0  0  0  0  0  0  0
   58.3162   32.1149   25.6499 H   0  0  0  0  0  0  0  0  0  0  0  0
   59.7463   32.9364   26.3617 H   0  0  0  0  0  0  0  0  0  0  0  0
   59.8768   34.1933   22.1629 H   0  0  0  0  0  0  0  0  0  0  0  0
   57.3585   33.3629   20.8782 H   0  0  0  0  0  0  0  0  0  0  0  0
   58.5046   34.0163   18.7754 H   0  0  0  0  0  0  0  0  0  0  0  0
   60.0054   34.3331   19.7102 H   0  0  0  0  0  0  0  0  0  0  0  0
   58.9689   36.1769   20.8715 H   0  0  0  0  0  0  0  0  0  0  0  0
   57.3672   35.7916   20.1553 H   0  0  0  0  0  0  0  0  0  0  0  0
   57.8975   37.2250   18.5090 H   0  0  0  0  0  0  0  0  0  0  0  0
   59.0548   35.9750   17.9390 H   0  0  0  0  0  0  0  0  0  0  0  0
   60.8394   37.2617   18.7162 H   0  0  0  0  0  0  0  0  0  0  0  0
   58.4821   40.0998   20.4229 H   0  0  0  0  0  0  0  0  0  0  0  0
   57.7497   38.5794   19.8445 H   0  0  0  0  0  0  0  0  0  0  0  0
   61.7635   39.2036   19.4463 H   0  0  0  0  0  0  0  0  0  0  0  0
   60.7313   40.4554   20.1881 H   0  0  0  0  0  0  0  0  0  0  0  0
   56.9919   31.4652   19.8498 H   0  0  0  0  0  0  0  0  0  0  0  0
   59.3304   29.6574   19.3645 H   0  0  0  0  0  0  0  0  0  0  0  0
   58.0131   27.7159   20.0947 H   0  0  0  0  0  0  0  0  0  0  0  0
   55.9270   28.1280   21.0523 H   0  0  0  0  0  0  0  0  0  0  0  0
   57.8153   28.1790   22.5145 H   0  0  0  0  0  0  0  0  0  0  0  0
   57.8998   29.9432   22.1869 H   0  0  0  0  0  0  0  0  0  0  0  0
   59.3167   28.8958   21.8374 H   0  0  0  0  0  0  0  0  0  0  0  0
   58.5353   27.8032   17.8517 H   0  0  0  0  0  0  0  0  0  0  0  0
   57.4697   28.9541   15.4707 H   0  0  0  0  0  0  0  0  0  0  0  0
   57.0610   26.4918   14.8318 H   0  0  0  0  0  0  0  0  0  0  0  0
   57.7452   26.0786   16.4405 H   0  0  0  0  0  0  0  0  0  0  0  0
   59.4876   25.8764   14.7949 H   0  0  0  0  0  0  0  0  0  0  0  0
   59.8263   27.3260   15.8002 H   0  0  0  0  0  0  0  0  0  0  0  0
   58.7938   28.7568   14.0363 H   0  0  0  0  0  0  0  0  0  0  0  0
   58.5431   27.2942   13.0242 H   0  0  0  0  0  0  0  0  0  0  0  0
   61.0448   26.8858   13.2029 H   0  0  0  0  0  0  0  0  0  0  0  0
   61.1750   28.5180   13.9415 H   0  0  0  0  0  0  0  0  0  0  0  0
   62.1964   29.0606   10.5988 H   0  0  0  0  0  0  0  0  0  0  0  0
   62.5473   27.6168   11.6082 H   0  0  0  0  0  0  0  0  0  0  0  0
   62.5690   29.2548   12.3453 H   0  0  0  0  0  0  0  0  0  0  0  0
   58.9322   29.7243   12.0585 H   0  0  0  0  0  0  0  0  0  0  0  0
   60.1173   30.2066   10.7978 H   0  0  0  0  0  0  0  0  0  0  0  0
   60.4777   30.5078   12.5316 H   0  0  0  0  0  0  0  0  0  0  0  0
   60.4631   26.6090   10.9773 H   0  0  0  0  0  0  0  0  0  0  0  0
   60.1417   28.0266    9.9220 H   0  0  0  0  0  0  0  0  0  0  0  0
   58.9305   27.5295   11.1519 H   0  0  0  0  0  0  0  0  0  0  0  0
   56.0494   27.3606   18.2578 H   0  0  0  0  0  0  0  0  0  0  0  0
   53.4578   26.9307   17.1115 H   0  0  0  0  0  0  0  0  0  0  0  0
   54.0943   27.3076   20.0599 H   0  0  0  0  0  0  0  0  0  0  0  0
   54.4942   25.8075   19.1562 H   0  0  0  0  0  0  0  0  0  0  0  0
   52.0955   25.5552   18.5841 H   0  0  0  0  0  0  0  0  0  0  0  0
   51.7318   27.0028   19.5836 H   0  0  0  0  0  0  0  0  0  0  0  0
   51.2959   25.0434   22.4070 H   0  0  0  0  0  0  0  0  0  0  0  0
   50.7811   26.3577   21.4032 H   0  0  0  0  0  0  0  0  0  0  0  0
   54.7887   29.6136   19.1293 H   0  0  0  0  0  0  0  0  0  0  0  0
   52.2178   30.9167   19.2885 H   0  0  0  0  0  0  0  0  0  0  0  0
   53.4345   32.8853   20.1299 H   0  0  0  0  0  0  0  0  0  0  0  0
   55.2565   32.7214   18.7079 H   0  0  0  0  0  0  0  0  0  0  0  0
   54.5980   31.8385   22.0514 H   0  0  0  0  0  0  0  0  0  0  0  0
   54.6150   30.2657   21.1838 H   0  0  0  0  0  0  0  0  0  0  0  0
   53.0532   30.9988   21.6839 H   0  0  0  0  0  0  0  0  0  0  0  0
  1  2  1  0  0  0  0
  1 53  1  0  0  0  0
  1 54  1  0  0  0  0
  1 55  1  0  0  0  0
  2  3  1  0  0  0  0
  2  5  1  0  0  0  0
  2 56  1  6  0  0  0
  3  4  2  0  0  0  0
  3  6  1  0  0  0  0
  5 57  1  0  0  0  0
  5 58  1  0  0  0  0
  5 59  1  0  0  0  0
  6  7  1  0  0  0  0
  6 60  1  0  0  0  0
  7  8  1  0  0  0  0
  7 10  1  0  0  0  0
  7 61  1  1  0  0  0
  8  9  2  0  0  0  0
  8 17  1  0  0  0  0
 10 11  1  0  0  0  0
 10 62  1  0  0  0  0
 10 63  1  0  0  0  0
 11 12  1  0  0  0  0
 11 64  1  0  0  0  0
 11 65  1  0  0  0  0
 12 13  1  0  0  0  0
 12 66  1  0  0  0  0
 12 67  1  0  0  0  0
 13 14  1  0  0  0  0
 13 68  1  0  0  0  0
 14 15  1  0  0  0  0
 14 16  1  0  0  0  0
 15 69  1  0  0  0  0
 15 70  1  0  0  0  0
 16 71  1  0  0  0  0
 16 72  1  0  0  0  0
 17 18  1  0  0  0  0
 17 73  1  0  0  0  0
 18 19  1  0  0  0  0
 18 21  1  0  0  0  0
 18 74  1  6  0  0  0
 19 20  2  0  0  0  0
 19 24  1  0  0  0  0
 21 22  1  0  0  0  0
 21 23  1  0  0  0  0
 21 75  1  6  0  0  0
 22 76  1  0  0  0  0
 23 77  1  0  0  0  0
 23 78  1  0  0  0  0
 23 79  1  0  0  0  0
 24 25  1  0  0  0  0
 24 80  1  0  0  0  0
 25 26  1  0  0  0  0
 25 31  1  0  0  0  0
 25 81  1  6  0  0  0
 26 27  1  0  0  0  0
 26 82  1  0  0  0  0
 26 83  1  0  0  0  0
 27 28  1  0  0  0  0
 27 84  1  0  0  0  0
 27 85  1  0  0  0  0
 28 29  1  0  0  0  0
 28 86  1  0  0  0  0
 28 87  1  0  0  0  0
 29 30  1  0  0  0  0
 29 88  1  0  0  0  0
 29 89  1  0  0  0  0
 30 33  1  0  0  0  0
 30 34  1  0  0  0  0
 30 35  1  0  0  0  0
 31 32  2  0  0  0  0
 31 36  1  0  0  0  0
 33 90  1  0  0  0  0
 33 91  1  0  0  0  0
 33 92  1  0  0  0  0
 34 93  1  0  0  0  0
 34 94  1  0  0  0  0
 34 95  1  0  0  0  0
 35 96  1  0  0  0  0
 35 97  1  0  0  0  0
 35 98  1  0  0  0  0
 36 37  1  0  0  0  0
 36 99  1  0  0  0  0
 37 38  1  0  0  0  0
 37 40  1  0  0  0  0
 37100  1  6  0  0  0
 38 39  2  0  0  0  0
 38 45  1  0  0  0  0
 40 41  1  0  0  0  0
 40101  1  0  0  0  0
 40102  1  0  0  0  0
 41 42  1  0  0  0  0
 41103  1  0  0  0  0
 41104  1  0  0  0  0
 42 43  2  0  0  0  0
 42 44  1  0  0  0  0
 44105  1  0  0  0  0
 44106  1  0  0  0  0
 45 46  1  0  0  0  0
 45107  1  0  0  0  0
 46 47  1  0  0  0  0
 46 49  1  0  0  0  0
 46108  1  1  0  0  0
 47 48  1  0  0  0  0
 47 52  2  0  0  0  0
 49 50  1  0  0  0  0
 49 51  1  0  0  0  0
 49109  1  1  0  0  0
 50110  1  0  0  0  0
 51111  1  0  0  0  0
 51112  1  0  0  0  0
 51113  1  0  0  0  0
M  CHG  3   1   1  30   1  48  -1
M  END
