3lxg_ligand
 OpenBabel08222323343D

 39 41  0  0  1  0  0  0  0  0999 V2000
   14.4540   15.2040  -11.0020 C   0  0  2  0  0  3  0  0  0  0  0  0
   14.3880   15.6980   -9.6930 C   0  0  0  0  0  0  0  0  0  0  0  0
   13.6970   15.8320  -12.0020 N   0  0  0  0  0  0  0  0  0  0  0  0
   13.6040   16.7480   -9.4040 N   0  0  0  0  0  0  0  0  0  0  0  0
   12.8950   16.9260  -11.6630 C   0  0  0  0  0  0  0  0  0  0  0  0
   12.8650   17.3780  -10.3370 C   0  0  0  0  0  0  0  0  0  0  0  0
   11.3270   19.1390  -10.9570 C   0  0  0  0  0  0  0  0  0  0  0  0
   12.0860   18.4710  -10.0020 N   0  0  0  0  0  0  0  0  0  0  0  0
   11.3520   18.6900  -12.2750 C   0  0  0  0  0  0  0  0  0  0  0  0
   12.1360   17.5940  -12.6190 C   0  0  0  0  0  0  0  0  0  0  0  0
   13.7320   17.0210   -8.0890 C   0  0  0  0  0  0  0  0  0  0  0  0
   14.5840   16.1380   -7.5120 N   0  0  0  0  0  0  0  0  0  0  0  0
   15.0050   15.3150   -8.4930 C   0  0  0  0  0  0  0  0  0  0  0  0
   15.3100   14.0200  -11.3770 C   0  0  0  0  0  0  0  0  0  0  0  0
   15.9790   14.1920   -8.2360 C   0  0  0  0  0  0  0  0  0  0  0  0
   13.0310   18.0920   -7.3100 C   0  0  0  0  0  0  0  0  0  0  0  0
   11.6980   17.4430   -6.8970 C   0  0  0  0  0  0  0  0  0  0  0  0
   10.7420   18.3330   -6.0940 C   0  0  0  0  0  0  0  0  0  0  0  0
   10.5670   20.2170  -10.5740 O   0  0  0  0  0  0  0  0  0  0  0  0
   10.3430   20.4910   -9.1860 C   0  0  0  0  0  0  0  0  0  0  0  0
   10.7614   19.1939  -13.0315 H   0  0  0  0  0  0  0  0  0  0  0  0
   12.1561   17.2547  -13.6483 H   0  0  0  0  0  0  0  0  0  0  0  0
   14.8560   16.1030   -6.5192 H   0  0  0  0  0  0  0  0  0  0  0  0
   15.2023   13.8157  -12.4525 H   0  0  0  0  0  0  0  0  0  0  0  0
   14.9888   13.1387  -10.8025 H   0  0  0  0  0  0  0  0  0  0  0  0
   16.3631   14.2422  -11.1496 H   0  0  0  0  0  0  0  0  0  0  0  0
   16.1774   13.6564   -9.1761 H   0  0  0  0  0  0  0  0  0  0  0  0
   15.5498   13.4954   -7.5008 H   0  0  0  0  0  0  0  0  0  0  0  0
   16.9200   14.6053   -7.8438 H   0  0  0  0  0  0  0  0  0  0  0  0
   12.8560   18.9794   -7.9360 H   0  0  0  0  0  0  0  0  0  0  0  0
   13.6172   18.3780   -6.4242 H   0  0  0  0  0  0  0  0  0  0  0  0
   11.9287   16.5582   -6.2856 H   0  0  0  0  0  0  0  0  0  0  0  0
   11.1771   17.1296   -7.8137 H   0  0  0  0  0  0  0  0  0  0  0  0
    9.8285   17.7684   -5.8558 H   0  0  0  0  0  0  0  0  0  0  0  0
   10.4799   19.2202   -6.6891 H   0  0  0  0  0  0  0  0  0  0  0  0
   11.2316   18.6488   -5.1610 H   0  0  0  0  0  0  0  0  0  0  0  0
    9.7153   21.3888   -9.0862 H   0  0  0  0  0  0  0  0  0  0  0  0
   11.3077   20.6606   -8.6854 H   0  0  0  0  0  0  0  0  0  0  0  0
    9.8340   19.6341   -8.7206 H   0  0  0  0  0  0  0  0  0  0  0  0
  1  2  1  0  0  0  0
  1  3  1  0  0  0  0
  1 14  1  1  0  0  0
  2  4  1  0  0  0  0
  2 13  2  0  0  0  0
  3  5  2  0  0  0  0
  4  6  2  0  0  0  0
  4 11  2  0  0  0  0
  5  6  1  0  0  0  0
  5 10  1  0  0  0  0
  6  8  1  0  0  0  0
  7  9  1  0  0  0  0
  7 19  1  0  0  0  0
  8  7  2  0  0  0  0
  9 10  2  0  0  0  0
  9 21  1  0  0  0  0
 10 22  1  0  0  0  0
 11 12  1  0  0  0  0
 11 16  1  0  0  0  0
 12 13  1  0  0  0  0
 12 23  1  0  0  0  0
 13 15  1  0  0  0  0
 14 24  1  0  0  0  0
 14 25  1  0  0  0  0
 14 26  1  0  0  0  0
 15 27  1  0  0  0  0
 15 28  1  0  0  0  0
 15 29  1  0  0  0  0
 16 17  1  0  0  0  0
 16 30  1  0  0  0  0
 16 31  1  0  0  0  0
 17 18  1  0  0  0  0
 17 32  1  0  0  0  0
 17 33  1  0  0  0  0
 18 34  1  0  0  0  0
 18 35  1  0  0  0  0
 18 36  1  0  0  0  0
 19 20  1  0  0  0  0
 20 37  1  0  0  0  0
 20 38  1  0  0  0  0
 20 39  1  0  0  0  0
M  END
