3m3o_ligand
 OpenBabel08222323343D

 63 65  0  0  1  0  0  0  0  0999 V2000
    1.8920  -19.5680   -0.2800 C   0  0  1  0  0  0  0  0  0  0  0  0
    0.9340  -18.3750   -0.3250 C   0  0  1  0  0  0  0  0  0  0  0  0
    1.7030  -17.0600   -0.4630 C   0  0  2  0  0  0  0  0  0  0  0  0
    2.7380  -16.9750    0.6580 C   0  0  2  0  0  0  0  0  0  0  0  0
    3.6330  -18.2160    0.6100 C   0  0  1  0  0  0  0  0  0  0  0  0
    4.7100  -18.1320    1.6950 C   0  0  0  0  0  0  0  0  0  0  0  0
    0.0200  -18.5290   -1.4130 O   0  0  0  0  0  0  0  0  0  0  0  0
    0.7940  -15.9610   -0.3600 O   0  0  0  0  0  0  0  0  0  0  0  0
    2.0570  -16.9250    1.9150 O   0  0  0  0  0  0  0  0  0  0  0  0
    2.8400  -19.4000    0.7870 O   0  0  0  0  0  0  0  0  0  0  0  0
    5.6120  -19.2360    1.5730 O   0  0  0  0  0  0  0  0  0  0  0  0
    2.5570  -24.6460   -0.0040 O   0  0  0  0  0  0  0  0  0  0  0  0
    1.4050  -24.4010   -0.8250 C   0  0  1  0  0  0  0  0  0  0  0  0
    0.7490  -23.0950   -0.3700 C   0  0  2  0  0  0  0  0  0  0  0  0
   -0.4560  -22.8180   -1.1660 N   0  0  0  0  0  0  0  0  0  0  0  0
    1.7250  -21.9260   -0.5060 C   0  0  1  0  0  0  0  0  0  0  0  0
    1.0930  -20.7320   -0.0230 O   0  0  0  0  0  0  0  0  0  0  0  0
    2.9950  -22.2740    0.2740 C   0  0  1  0  0  0  0  0  0  0  0  0
    2.7070  -22.3510    1.6720 O   0  0  0  0  0  0  0  0  0  0  0  0
    3.5440  -23.6210   -0.2010 C   0  0  1  0  0  0  0  0  0  0  0  0
    4.8050  -23.9650    0.5930 C   0  0  0  0  0  0  0  0  0  0  0  0
    5.3390  -25.2020    0.1160 O   0  0  0  0  0  0  0  0  0  0  0  0
   -1.6480  -23.2930   -0.8160 C   0  0  0  0  0  0  0  0  0  0  0  0
   -1.7670  -24.0560    0.3030 O   0  0  0  0  0  0  0  0  0  0  0  0
   -2.7680  -23.0030   -1.5860 C   0  0  0  0  0  0  0  0  0  0  0  0
   -1.0690  -25.2350   -4.9730 C   0  0  0  0  0  0  0  0  0  0  0  0
   -0.0370  -24.3650   -5.3070 C   0  0  0  0  0  0  0  0  0  0  0  0
    0.9210  -24.0270   -4.3570 C   0  0  0  0  0  0  0  0  0  0  0  0
    0.8500  -24.5620   -3.0750 C   0  0  0  0  0  0  0  0  0  0  0  0
   -0.1860  -25.4260   -2.7410 C   0  0  0  0  0  0  0  0  0  0  0  0
   -1.1470  -25.7620   -3.6880 C   0  0  0  0  0  0  0  0  0  0  0  0
    1.8440  -24.2900   -2.1870 O   0  0  0  0  0  0  0  0  0  0  0  0
   -1.9800  -25.5620   -5.8840 N   0  0  0  0  0  0  0  0  0  0  0  0
   -3.0570  -26.4230   -5.5370 O   0  0  0  0  0  0  0  0  0  0  0  0
   -1.8870  -25.0320   -7.1990 O   0  0  0  0  0  0  0  0  0  0  0  0
    2.4224  -19.6686   -1.2384 H   0  0  0  0  0  0  0  0  0  0  0  0
    0.3630  -18.3484    0.6148 H   0  0  0  0  0  0  0  0  0  0  0  0
    2.2100  -17.0277   -1.4387 H   0  0  0  0  0  0  0  0  0  0  0  0
    3.3512  -16.0706    0.5316 H   0  0  0  0  0  0  0  0  0  0  0  0
    4.1239  -18.2618   -0.3733 H   0  0  0  0  0  0  0  0  0  0  0  0
    4.2326  -18.1590    2.6856 H   0  0  0  0  0  0  0  0  0  0  0  0
    5.2683  -17.1909    1.5826 H   0  0  0  0  0  0  0  0  0  0  0  0
   -0.5964  -17.8062   -1.4120 H   0  0  0  0  0  0  0  0  0  0  0  0
    0.1518  -16.0162   -1.0579 H   0  0  0  0  0  0  0  0  0  0  0  0
    2.6947  -16.8831    2.6179 H   0  0  0  0  0  0  0  0  0  0  0  0
    5.1306  -20.0491    1.6711 H   0  0  0  0  0  0  0  0  0  0  0  0
    0.6879  -25.2297   -0.7301 H   0  0  0  0  0  0  0  0  0  0  0  0
    0.4614  -23.1965    0.6869 H   0  0  0  0  0  0  0  0  0  0  0  0
   -0.3773  -22.2585   -1.9911 H   0  0  0  0  0  0  0  0  0  0  0  0
    1.9854  -21.7838   -1.5652 H   0  0  0  0  0  0  0  0  0  0  0  0
    3.7496  -21.4925    0.1014 H   0  0  0  0  0  0  0  0  0  0  0  0
    3.5012  -22.5673    2.1464 H   0  0  0  0  0  0  0  0  0  0  0  0
    3.7925  -23.5562   -1.2706 H   0  0  0  0  0  0  0  0  0  0  0  0
    4.5535  -24.0600    1.6596 H   0  0  0  0  0  0  0  0  0  0  0  0
    5.5512  -23.1675    0.4618 H   0  0  0  0  0  0  0  0  0  0  0  0
    4.6931  -25.8892    0.2296 H   0  0  0  0  0  0  0  0  0  0  0  0
   -3.6531  -23.4803   -1.1401 H   0  0  0  0  0  0  0  0  0  0  0  0
   -2.6203  -23.3855   -2.6067 H   0  0  0  0  0  0  0  0  0  0  0  0
   -2.9172  -21.9137   -1.6206 H   0  0  0  0  0  0  0  0  0  0  0  0
    0.0208  -23.9505   -6.3070 H   0  0  0  0  0  0  0  0  0  0  0  0
    1.7237  -23.3460   -4.6159 H   0  0  0  0  0  0  0  0  0  0  0  0
   -0.2450  -25.8387   -1.7404 H   0  0  0  0  0  0  0  0  0  0  0  0
   -1.9561  -26.4339   -3.4253 H   0  0  0  0  0  0  0  0  0  0  0  0
  1  2  1  0  0  0  0
  1 10  1  0  0  0  0
  1 36  1  6  0  0  0
  2  3  1  0  0  0  0
  2  7  1  0  0  0  0
  2 37  1  1  0  0  0
  3  4  1  0  0  0  0
  3  8  1  0  0  0  0
  3 38  1  6  0  0  0
  4  9  1  0  0  0  0
  4 39  1  6  0  0  0
  5  4  1  0  0  0  0
  5  6  1  0  0  0  0
  5 40  1  6  0  0  0
  6 11  1  0  0  0  0
  6 41  1  0  0  0  0
  6 42  1  0  0  0  0
  7 43  1  0  0  0  0
  8 44  1  0  0  0  0
  9 45  1  0  0  0  0
 10  5  1  0  0  0  0
 11 46  1  0  0  0  0
 12 20  1  0  0  0  0
 13 12  1  0  0  0  0
 13 14  1  0  0  0  0
 13 47  1  1  0  0  0
 14 15  1  0  0  0  0
 14 16  1  0  0  0  0
 14 48  1  1  0  0  0
 15 23  1  0  0  0  0
 15 49  1  0  0  0  0
 16 17  1  0  0  0  0
 16 18  1  0  0  0  0
 16 50  1  6  0  0  0
 17  1  1  0  0  0  0
 18 19  1  0  0  0  0
 18 51  1  6  0  0  0
 19 52  1  0  0  0  0
 20 18  1  0  0  0  0
 20 21  1  0  0  0  0
 20 53  1  6  0  0  0
 21 22  1  0  0  0  0
 21 54  1  0  0  0  0
 21 55  1  0  0  0  0
 22 56  1  0  0  0  0
 23 24  2  0  0  0  0
 23 25  1  0  0  0  0
 25 57  1  0  0  0  0
 25 58  1  0  0  0  0
 25 59  1  0  0  0  0
 26 31  1  0  0  0  0
 26 33  1  0  0  0  0
 27 26  2  0  0  0  0
 27 60  1  0  0  0  0
 28 27  1  0  0  0  0
 28 61  1  0  0  0  0
 29 28  2  0  0  0  0
 29 30  1  0  0  0  0
 29 32  1  0  0  0  0
 30 31  2  0  0  0  0
 30 62  1  0  0  0  0
 31 63  1  0  0  0  0
 32 13  1  0  0  0  0
 33 34  2  0  0  0  0
 33 35  2  0  0  0  0
M  END
