3m6p_ligand
 OpenBabel08222323343D

 62 62  0  0  1  0  0  0  0  0999 V2000
   16.6930   11.4440   26.4200 C   0  0  0  0  0  0  0  0  0  0  0  0
   16.2320   11.4980   27.8370 C   0  0  0  0  0  0  0  0  0  0  0  0
   16.8700   10.8950   28.6730 O   0  0  0  0  0  0  0  0  0  0  0  0
   15.1070   12.1800   28.1040 N   0  0  0  0  0  0  0  0  0  0  0  0
   14.7060   12.1920   29.4080 O   0  0  0  0  0  0  0  0  0  0  0  0
   16.3060   10.0010   26.0410 C   0  0  2  0  0  0  0  0  0  0  0  0
   16.9130    9.6400   24.7250 C   0  0  0  0  0  0  0  0  0  0  0  0
   16.8880   10.4350   23.7850 O   0  0  0  0  0  0  0  0  0  0  0  0
   14.7340    9.9090   25.8150 C   0  0  0  0  0  0  0  0  0  0  0  0
   14.2780    8.5110   25.2870 C   0  0  0  0  0  0  0  0  0  0  0  0
   12.7890    8.4730   25.0830 C   0  0  0  0  0  0  0  0  0  0  0  0
   12.3180    6.9530   25.0570 C   0  0  0  0  0  0  0  0  0  0  0  0
   13.1440    6.0580   24.0800 C   0  0  0  0  0  0  0  0  0  0  0  0
   17.4130    8.4370   24.6770 N   0  0  0  0  0  0  0  0  0  0  0  0
   17.9520    7.9160   23.4410 C   0  0  1  0  0  0  0  0  0  0  0  0
   19.4650    7.6840   23.5130 C   0  0  0  0  0  0  0  0  0  0  0  0
   20.1800    9.0590   23.6460 C   0  0  0  0  0  0  0  0  0  0  0  0
   19.7830    6.8770   24.7190 C   0  0  0  0  0  0  0  0  0  0  0  0
   17.1280    6.6430   23.0870 C   0  0  0  0  0  0  0  0  0  0  0  0
   16.6840    5.9060   23.9880 O   0  0  0  0  0  0  0  0  0  0  0  0
   16.8840    6.3400   21.7840 N   0  0  0  0  0  0  0  0  0  0  0  0
   16.1200    5.1700   21.3430 C   0  0  1  0  0  0  0  0  0  0  0  0
   17.3290    7.1430   20.6180 C   0  0  0  0  0  0  0  0  0  0  0  0
   16.3290    6.7780   19.5230 C   0  0  0  0  0  0  0  0  0  0  0  0
   15.9020    5.3640   19.8400 C   0  0  0  0  0  0  0  0  0  0  0  0
   16.9330    3.8650   21.5450 C   0  0  0  0  0  0  0  0  0  0  0  0
   15.9890    2.7900   21.3710 O   0  0  0  0  0  0  0  0  0  0  0  0
   17.7783   11.6052   26.3416 H   0  0  0  0  0  0  0  0  0  0  0  0
   16.1668   12.1808   25.7954 H   0  0  0  0  0  0  0  0  0  0  0  0
   14.5924   12.6521   27.3882 H   0  0  0  0  0  0  0  0  0  0  0  0
   13.9060   12.6981   29.4875 H   0  0  0  0  0  0  0  0  0  0  0  0
   16.6317    9.3048   26.8278 H   0  0  0  0  0  0  0  0  0  0  0  0
   14.4391   10.6745   25.0822 H   0  0  0  0  0  0  0  0  0  0  0  0
   14.2294   10.1044   26.7727 H   0  0  0  0  0  0  0  0  0  0  0  0
   14.5608    7.7400   26.0189 H   0  0  0  0  0  0  0  0  0  0  0  0
   14.7779    8.3077   24.3285 H   0  0  0  0  0  0  0  0  0  0  0  0
   12.5334    8.9564   24.1285 H   0  0  0  0  0  0  0  0  0  0  0  0
   12.2885    9.0018   25.9075 H   0  0  0  0  0  0  0  0  0  0  0  0
   11.2625    6.9214   24.7489 H   0  0  0  0  0  0  0  0  0  0  0  0
   12.4161    6.5413   26.0723 H   0  0  0  0  0  0  0  0  0  0  0  0
   12.7626    5.0269   24.1163 H   0  0  0  0  0  0  0  0  0  0  0  0
   14.2024    6.0682   24.3794 H   0  0  0  0  0  0  0  0  0  0  0  0
   13.0488    6.4483   23.0560 H   0  0  0  0  0  0  0  0  0  0  0  0
   17.4237    7.8706   25.5011 H   0  0  0  0  0  0  0  0  0  0  0  0
   17.7810    8.6606   22.6496 H   0  0  0  0  0  0  0  0  0  0  0  0
   19.8089    7.1627   22.6075 H   0  0  0  0  0  0  0  0  0  0  0  0
   21.2676    8.9031   23.6985 H   0  0  0  0  0  0  0  0  0  0  0  0
   19.8373    9.5635   24.5615 H   0  0  0  0  0  0  0  0  0  0  0  0
   19.9408    9.6828   22.7721 H   0  0  0  0  0  0  0  0  0  0  0  0
   19.2866    5.8980   24.6464 H   0  0  0  0  0  0  0  0  0  0  0  0
   19.4265    7.4032   25.6168 H   0  0  0  0  0  0  0  0  0  0  0  0
   20.8713    6.7321   24.7868 H   0  0  0  0  0  0  0  0  0  0  0  0
   15.1623    5.1071   21.8804 H   0  0  0  0  0  0  0  0  0  0  0  0
   18.3524    6.8697   20.3213 H   0  0  0  0  0  0  0  0  0  0  0  0
   17.2876    8.2187   20.8440 H   0  0  0  0  0  0  0  0  0  0  0  0
   16.8055    6.8252   18.5327 H   0  0  0  0  0  0  0  0  0  0  0  0
   15.4644    7.4576   19.5467 H   0  0  0  0  0  0  0  0  0  0  0  0
   14.8405    5.2224   19.5887 H   0  0  0  0  0  0  0  0  0  0  0  0
   16.5123    4.6465   19.2719 H   0  0  0  0  0  0  0  0  0  0  0  0
   17.3669    3.8353   22.5554 H   0  0  0  0  0  0  0  0  0  0  0  0
   17.7375    3.7942   20.7982 H   0  0  0  0  0  0  0  0  0  0  0  0
   15.2965    2.8706   22.0164 H   0  0  0  0  0  0  0  0  0  0  0  0
  1  2  1  0  0  0  0
  1  6  1  0  0  0  0
  1 28  1  0  0  0  0
  1 29  1  0  0  0  0
  2  3  2  0  0  0  0
  2  4  1  0  0  0  0
  4  5  1  0  0  0  0
  4 30  1  0  0  0  0
  5 31  1  0  0  0  0
  6  7  1  0  0  0  0
  6  9  1  0  0  0  0
  6 32  1  1  0  0  0
  7  8  2  0  0  0  0
  7 14  1  0  0  0  0
  9 10  1  0  0  0  0
  9 33  1  0  0  0  0
  9 34  1  0  0  0  0
 10 11  1  0  0  0  0
 10 35  1  0  0  0  0
 10 36  1  0  0  0  0
 11 12  1  0  0  0  0
 11 37  1  0  0  0  0
 11 38  1  0  0  0  0
 12 13  1  0  0  0  0
 12 39  1  0  0  0  0
 12 40  1  0  0  0  0
 13 41  1  0  0  0  0
 13 42  1  0  0  0  0
 13 43  1  0  0  0  0
 14 15  1  0  0  0  0
 14 44  1  0  0  0  0
 15 16  1  0  0  0  0
 15 19  1  0  0  0  0
 15 45  1  6  0  0  0
 16 17  1  0  0  0  0
 16 18  1  0  0  0  0
 16 46  1  0  0  0  0
 17 47  1  0  0  0  0
 17 48  1  0  0  0  0
 17 49  1  0  0  0  0
 18 50  1  0  0  0  0
 18 51  1  0  0  0  0
 18 52  1  0  0  0  0
 19 20  2  0  0  0  0
 19 21  1  0  0  0  0
 21 22  1  0  0  0  0
 21 23  1  0  0  0  0
 22 25  1  0  0  0  0
 22 26  1  0  0  0  0
 22 53  1  1  0  0  0
 23 24  1  0  0  0  0
 23 54  1  0  0  0  0
 23 55  1  0  0  0  0
 24 25  1  0  0  0  0
 24 56  1  0  0  0  0
 24 57  1  0  0  0  0
 25 58  1  0  0  0  0
 25 59  1  0  0  0  0
 26 27  1  0  0  0  0
 26 60  1  0  0  0  0
 26 61  1  0  0  0  0
 27 62  1  0  0  0  0
M  END
