3m9f_ligand
 OpenBabel08222323343D

 94 96  0  0  1  0  0  0  0  0999 V2000
  -13.7280   23.8690   -2.7340 C   0  0  0  0  0  0  0  0  0  0  0  0
  -12.9780   24.4600   -1.7810 N   0  0  0  0  0  0  0  0  0  0  0  0
  -17.9530   21.7060   -5.5680 O   0  0  0  0  0  0  0  0  0  0  0  0
  -16.3170   21.8720   -6.0010 S   0  0  0  0  0  0  0  0  0  0  0  0
  -13.6140   24.1790   -4.0880 C   0  0  0  0  0  0  0  0  0  0  0  0
  -14.3950   23.5670   -5.0720 C   0  0  0  0  0  0  0  0  0  0  0  0
  -15.3670   22.6010   -4.7850 C   0  0  0  0  0  0  0  0  0  0  0  0
  -15.4890   22.2980   -3.4310 C   0  0  0  0  0  0  0  0  0  0  0  0
  -14.7000   22.9030   -2.4450 C   0  0  0  0  0  0  0  0  0  0  0  0
  -15.6970   20.3240   -6.3300 N   0  0  0  0  0  0  0  0  0  0  0  0
  -16.1120   22.7840   -7.4070 O   0  0  0  0  0  0  0  0  0  0  0  0
  -16.2970   19.1910   -5.5510 C   0  0  1  0  0  0  0  0  0  0  0  0
  -16.9660   18.1000   -6.4050 C   0  0  0  0  0  0  0  0  0  0  0  0
  -14.9460   20.1280   -7.6000 C   0  0  0  0  0  0  0  0  0  0  0  0
  -13.4440   20.3240   -7.4430 C   0  0  0  0  0  0  0  0  0  0  0  0
  -13.0000   21.6920   -7.9520 C   0  0  0  0  0  0  0  0  0  0  0  0
  -13.4550   21.9340   -9.3960 C   0  0  0  0  0  0  0  0  0  0  0  0
  -11.4720   21.7510   -7.9050 C   0  0  0  0  0  0  0  0  0  0  0  0
  -18.2260   18.6580   -7.0930 C   0  0  0  0  0  0  0  0  0  0  0  0
  -18.8900   17.7100   -8.1040 C   0  0  0  0  0  0  0  0  0  0  0  0
  -19.4910   16.4720   -7.4360 C   0  0  1  0  0  0  0  0  0  0  0  0
  -20.6910   16.8280   -6.6860 N   0  0  0  0  0  0  0  0  0  0  0  0
  -21.2030   16.1570   -5.6410 C   0  0  0  0  0  0  0  0  0  0  0  0
  -22.5330   16.6210   -5.1110 C   0  0  1  0  0  0  0  0  0  0  0  0
  -23.5800   15.6720   -5.4830 N   0  0  0  0  0  0  0  0  0  0  0  0
  -24.5860   15.7710   -6.3710 C   0  0  0  0  0  0  0  0  0  0  0  0
  -25.3890   14.7020   -6.4900 O   0  0  0  0  0  0  0  0  0  0  0  0
  -26.5620   14.7750   -7.3370 C   0  0  0  0  0  0  0  0  0  0  0  0
  -24.8640   16.7280   -7.0890 O   0  0  0  0  0  0  0  0  0  0  0  0
  -15.4730   18.6230   -4.3780 C   0  0  0  0  0  0  0  0  0  0  0  0
  -14.0880   18.3200   -4.6190 O   0  0  0  0  0  0  0  0  0  0  0  0
  -20.6330   15.2210   -5.1020 O   0  0  0  0  0  0  0  0  0  0  0  0
  -23.6100   17.7300   -2.9820 C   0  0  0  0  0  0  0  0  0  0  0  0
  -21.1340   17.8830   -3.3570 C   0  0  0  0  0  0  0  0  0  0  0  0
  -20.0610   17.2570   -2.7250 C   0  0  0  0  0  0  0  0  0  0  0  0
  -18.8950   17.9760   -2.4410 C   0  0  0  0  0  0  0  0  0  0  0  0
  -18.7420   19.3210   -2.7690 C   0  0  0  0  0  0  0  0  0  0  0  0
  -19.8060   19.9630   -3.4000 C   0  0  0  0  0  0  0  0  0  0  0  0
  -20.9640   19.2340   -3.6660 C   0  0  0  0  0  0  0  0  0  0  0  0
  -23.7220   17.5600   -1.5990 C   0  0  0  0  0  0  0  0  0  0  0  0
  -24.7800   18.1120   -0.8850 C   0  0  0  0  0  0  0  0  0  0  0  0
  -25.7570   18.8630   -1.5420 C   0  0  0  0  0  0  0  0  0  0  0  0
  -25.6550   19.0510   -2.9170 C   0  0  0  0  0  0  0  0  0  0  0  0
  -24.5870   18.4870   -3.6230 C   0  0  0  0  0  0  0  0  0  0  0  0
  -19.9070   15.4960   -8.5470 C   0  0  0  0  0  0  0  0  0  0  0  0
  -22.4080   17.1100   -3.6670 C   0  0  0  0  0  0  0  0  0  0  0  0
  -12.2749   25.1657   -2.0429 H   0  0  0  0  0  0  0  0  0  0  0  0
  -13.1085   24.2055   -0.7915 H   0  0  0  0  0  0  0  0  0  0  0  0
  -12.8892   24.9261   -4.3905 H   0  0  0  0  0  0  0  0  0  0  0  0
  -14.2411   23.8536   -6.1060 H   0  0  0  0  0  0  0  0  0  0  0  0
  -16.2257   21.5629   -3.1278 H   0  0  0  0  0  0  0  0  0  0  0  0
  -14.8482   22.6106   -1.4118 H   0  0  0  0  0  0  0  0  0  0  0  0
  -17.1458   19.6728   -5.0437 H   0  0  0  0  0  0  0  0  0  0  0  0
  -17.2490   17.2559   -5.7589 H   0  0  0  0  0  0  0  0  0  0  0  0
  -16.2572   17.7535   -7.1716 H   0  0  0  0  0  0  0  0  0  0  0  0
  -15.3176   20.8507   -8.3414 H   0  0  0  0  0  0  0  0  0  0  0  0
  -15.1296   19.1052   -7.9609 H   0  0  0  0  0  0  0  0  0  0  0  0
  -12.9204   19.5434   -8.0144 H   0  0  0  0  0  0  0  0  0  0  0  0
  -13.1820   20.2371   -6.3782 H   0  0  0  0  0  0  0  0  0  0  0  0
  -13.4234   22.4739   -7.3044 H   0  0  0  0  0  0  0  0  0  0  0  0
  -13.1167   22.9275   -9.7254 H   0  0  0  0  0  0  0  0  0  0  0  0
  -14.5527   21.8847   -9.4477 H   0  0  0  0  0  0  0  0  0  0  0  0
  -13.0221   21.1635  -10.0509 H   0  0  0  0  0  0  0  0  0  0  0  0
  -11.1300   21.5789   -6.8738 H   0  0  0  0  0  0  0  0  0  0  0  0
  -11.1327   22.7411   -8.2434 H   0  0  0  0  0  0  0  0  0  0  0  0
  -11.0546   20.9754   -8.5639 H   0  0  0  0  0  0  0  0  0  0  0  0
  -17.9448   19.5795   -7.6237 H   0  0  0  0  0  0  0  0  0  0  0  0
  -18.9640   18.8950   -6.3125 H   0  0  0  0  0  0  0  0  0  0  0  0
  -18.1333   17.3854   -8.8334 H   0  0  0  0  0  0  0  0  0  0  0  0
  -19.6915   18.2543   -8.6248 H   0  0  0  0  0  0  0  0  0  0  0  0
  -18.7516   16.0067   -6.7676 H   0  0  0  0  0  0  0  0  0  0  0  0
  -21.1791   17.6505   -6.9780 H   0  0  0  0  0  0  0  0  0  0  0  0
  -22.7831   17.5304   -5.6770 H   0  0  0  0  0  0  0  0  0  0  0  0
  -23.5424   14.8004   -4.9943 H   0  0  0  0  0  0  0  0  0  0  0  0
  -27.0936   13.8124   -7.3108 H   0  0  0  0  0  0  0  0  0  0  0  0
  -26.2553   14.9964   -8.3699 H   0  0  0  0  0  0  0  0  0  0  0  0
  -27.2278   15.5715   -6.9734 H   0  0  0  0  0  0  0  0  0  0  0  0
  -15.9613   17.6922   -4.0538 H   0  0  0  0  0  0  0  0  0  0  0  0
  -15.5109   19.3602   -3.5625 H   0  0  0  0  0  0  0  0  0  0  0  0
  -14.0226   17.6698   -5.3085 H   0  0  0  0  0  0  0  0  0  0  0  0
  -20.1302   16.2100   -2.4527 H   0  0  0  0  0  0  0  0  0  0  0  0
  -18.0772   17.4655   -1.9454 H   0  0  0  0  0  0  0  0  0  0  0  0
  -17.8246   19.8515   -2.5408 H   0  0  0  0  0  0  0  0  0  0  0  0
  -19.7345   21.0082   -3.6783 H   0  0  0  0  0  0  0  0  0  0  0  0
  -21.7879   19.7507   -4.1449 H   0  0  0  0  0  0  0  0  0  0  0  0
  -22.9684   16.9859   -1.0721 H   0  0  0  0  0  0  0  0  0  0  0  0
  -24.8466   17.9587    0.1860 H   0  0  0  0  0  0  0  0  0  0  0  0
  -26.5836   19.2936   -0.9884 H   0  0  0  0  0  0  0  0  0  0  0  0
  -26.4032   19.6346   -3.4412 H   0  0  0  0  0  0  0  0  0  0  0  0
  -24.5186   18.6429   -4.6935 H   0  0  0  0  0  0  0  0  0  0  0  0
  -20.3442   14.5927   -8.0967 H   0  0  0  0  0  0  0  0  0  0  0  0
  -19.0238   15.2187   -9.1412 H   0  0  0  0  0  0  0  0  0  0  0  0
  -20.6509   15.9776   -9.1986 H   0  0  0  0  0  0  0  0  0  0  0  0
  -22.2771   16.1664   -3.1171 H   0  0  0  0  0  0  0  0  0  0  0  0
  1  2  1  0  0  0  0
  2 47  1  0  0  0  0
  2 48  1  0  0  0  0
  4  3  2  0  0  0  0
  4  7  1  0  0  0  0
  4 11  2  0  0  0  0
  5  1  2  0  0  0  0
  5 49  1  0  0  0  0
  6  5  1  0  0  0  0
  6 50  1  0  0  0  0
  7  6  2  0  0  0  0
  7  8  1  0  0  0  0
  8  9  2  0  0  0  0
  8 51  1  0  0  0  0
  9  1  1  0  0  0  0
  9 52  1  0  0  0  0
 10  4  1  0  0  0  0
 10 14  1  0  0  0  0
 12 10  1  0  0  0  0
 12 30  1  0  0  0  0
 12 53  1  1  0  0  0
 13 12  1  0  0  0  0
 13 54  1  0  0  0  0
 13 55  1  0  0  0  0
 14 15  1  0  0  0  0
 14 56  1  0  0  0  0
 14 57  1  0  0  0  0
 15 16  1  0  0  0  0
 15 58  1  0  0  0  0
 15 59  1  0  0  0  0
 16 17  1  0  0  0  0
 16 18  1  0  0  0  0
 16 60  1  0  0  0  0
 17 61  1  0  0  0  0
 17 62  1  0  0  0  0
 17 63  1  0  0  0  0
 18 64  1  0  0  0  0
 18 65  1  0  0  0  0
 18 66  1  0  0  0  0
 19 13  1  0  0  0  0
 19 67  1  0  0  0  0
 19 68  1  0  0  0  0
 20 19  1  0  0  0  0
 20 69  1  0  0  0  0
 20 70  1  0  0  0  0
 21 20  1  0  0  0  0
 21 45  1  0  0  0  0
 21 71  1  1  0  0  0
 22 21  1  0  0  0  0
 22 72  1  0  0  0  0
 23 22  1  0  0  0  0
 23 32  2  0  0  0  0
 24 23  1  0  0  0  0
 24 25  1  0  0  0  0
 24 73  1  6  0  0  0
 25 26  1  0  0  0  0
 25 74  1  0  0  0  0
 26 27  1  0  0  0  0
 26 29  2  0  0  0  0
 27 28  1  0  0  0  0
 28 75  1  0  0  0  0
 28 76  1  0  0  0  0
 28 77  1  0  0  0  0
 30 31  1  0  0  0  0
 30 78  1  0  0  0  0
 30 79  1  0  0  0  0
 31 80  1  0  0  0  0
 33 40  2  0  0  0  0
 33 44  1  0  0  0  0
 34 35  2  0  0  0  0
 34 39  1  0  0  0  0
 34 46  1  0  0  0  0
 35 36  1  0  0  0  0
 35 81  1  0  0  0  0
 36 37  2  0  0  0  0
 36 82  1  0  0  0  0
 37 38  1  0  0  0  0
 37 83  1  0  0  0  0
 38 39  2  0  0  0  0
 38 84  1  0  0  0  0
 39 85  1  0  0  0  0
 40 41  1  0  0  0  0
 40 86  1  0  0  0  0
 41 42  2  0  0  0  0
 41 87  1  0  0  0  0
 42 43  1  0  0  0  0
 42 88  1  0  0  0  0
 43 44  2  0  0  0  0
 43 89  1  0  0  0  0
 44 90  1  0  0  0  0
 45 91  1  0  0  0  0
 45 92  1  0  0  0  0
 45 93  1  0  0  0  0
 46 24  1  0  0  0  0
 46 33  1  0  0  0  0
 46 94  1  0  0  0  0
M  END
