3max_ligand
 OpenBabel08222323343D

 38 40  0  0  0  0  0  0  0  0999 V2000
   65.8820   28.8880   -1.6780 N   0  0  0  0  0  0  0  0  0  0  0  0
   65.4500   28.7330   -0.3430 C   0  0  0  0  0  0  0  0  0  0  0  0
   64.2210   28.1250   -0.0690 C   0  0  0  0  0  0  0  0  0  0  0  0
   63.7890   27.9790    1.2410 C   0  0  0  0  0  0  0  0  0  0  0  0
   64.5660   28.4370    2.3170 C   0  0  0  0  0  0  0  0  0  0  0  0
   65.7920   29.0770    2.0410 C   0  0  0  0  0  0  0  0  0  0  0  0
   66.2210   29.2180    0.7260 C   0  0  0  0  0  0  0  0  0  0  0  0
   67.4780   29.7880    0.4590 N   0  0  0  0  0  0  0  0  0  0  0  0
   67.6220   30.8320   -0.3730 C   0  0  0  0  0  0  0  0  0  0  0  0
   66.6320   31.3230   -0.8890 O   0  0  0  0  0  0  0  0  0  0  0  0
   69.0040   31.3170   -0.6050 C   0  0  0  0  0  0  0  0  0  0  0  0
   70.0600   30.4160   -0.4870 C   0  0  0  0  0  0  0  0  0  0  0  0
   71.3670   30.8260   -0.6850 C   0  0  0  0  0  0  0  0  0  0  0  0
   71.6380   32.1460   -1.0050 C   0  0  0  0  0  0  0  0  0  0  0  0
   70.5940   33.0570   -1.1190 C   0  0  0  0  0  0  0  0  0  0  0  0
   69.2780   32.6580   -0.9160 C   0  0  0  0  0  0  0  0  0  0  0  0
   64.0950   28.3080    3.7300 C   0  0  0  0  0  0  0  0  0  0  0  0
   65.0120   28.1180    4.7740 C   0  0  0  0  0  0  0  0  0  0  0  0
   64.5540   28.0390    6.0880 C   0  0  0  0  0  0  0  0  0  0  0  0
   63.1940   28.1440    6.3880 C   0  0  0  0  0  0  0  0  0  0  0  0
   62.2730   28.3410    5.3640 C   0  0  0  0  0  0  0  0  0  0  0  0
   62.7200   28.4250    4.0480 C   0  0  0  0  0  0  0  0  0  0  0  0
   65.3052   28.5268   -2.4512 H   0  0  0  0  0  0  0  0  0  0  0  0
   66.7740   29.3623   -1.8789 H   0  0  0  0  0  0  0  0  0  0  0  0
   63.6030   27.7661   -0.8841 H   0  0  0  0  0  0  0  0  0  0  0  0
   62.8351   27.5031    1.4374 H   0  0  0  0  0  0  0  0  0  0  0  0
   66.3995   29.4588    2.8536 H   0  0  0  0  0  0  0  0  0  0  0  0
   68.2886   29.4047    0.9017 H   0  0  0  0  0  0  0  0  0  0  0  0
   69.8555   29.3812   -0.2371 H   0  0  0  0  0  0  0  0  0  0  0  0
   72.1787   30.1139   -0.5896 H   0  0  0  0  0  0  0  0  0  0  0  0
   72.6606   32.4677   -1.1660 H   0  0  0  0  0  0  0  0  0  0  0  0
   70.8086   34.0897   -1.3689 H   0  0  0  0  0  0  0  0  0  0  0  0
   68.4703   33.3764   -0.9972 H   0  0  0  0  0  0  0  0  0  0  0  0
   66.0713   28.0330    4.5601 H   0  0  0  0  0  0  0  0  0  0  0  0
   65.2665   27.8934    6.8919 H   0  0  0  0  0  0  0  0  0  0  0  0
   62.8570   28.0722    7.4158 H   0  0  0  0  0  0  0  0  0  0  0  0
   61.2162   28.4284    5.5888 H   0  0  0  0  0  0  0  0  0  0  0  0
   62.0017   28.5830    3.2516 H   0  0  0  0  0  0  0  0  0  0  0  0
  1  2  1  0  0  0  0
  1 23  1  0  0  0  0
  1 24  1  0  0  0  0
  2  3  2  0  0  0  0
  2  7  1  0  0  0  0
  3  4  1  0  0  0  0
  3 25  1  0  0  0  0
  4  5  2  0  0  0  0
  4 26  1  0  0  0  0
  5  6  1  0  0  0  0
  5 17  1  0  0  0  0
  6  7  2  0  0  0  0
  6 27  1  0  0  0  0
  7  8  1  0  0  0  0
  8  9  1  0  0  0  0
  8 28  1  0  0  0  0
  9 10  2  0  0  0  0
  9 11  1  0  0  0  0
 11 12  2  0  0  0  0
 11 16  1  0  0  0  0
 12 13  1  0  0  0  0
 12 29  1  0  0  0  0
 13 14  2  0  0  0  0
 13 30  1  0  0  0  0
 14 15  1  0  0  0  0
 14 31  1  0  0  0  0
 15 16  2  0  0  0  0
 15 32  1  0  0  0  0
 16 33  1  0  0  0  0
 17 18  2  0  0  0  0
 17 22  1  0  0  0  0
 18 19  1  0  0  0  0
 18 34  1  0  0  0  0
 19 20  2  0  0  0  0
 19 35  1  0  0  0  0
 20 21  1  0  0  0  0
 20 36  1  0  0  0  0
 21 22  2  0  0  0  0
 21 37  1  0  0  0  0
 22 38  1  0  0  0  0
M  END
