3mb7_ligand
 OpenBabel08222323343D

 28 31  0  0  0  0  0  0  0  0999 V2000
   22.8660    9.3970   11.2570 C   0  0  0  0  0  0  0  0  0  0  0  0
   22.7010   10.5610   12.0090 C   0  0  0  0  0  0  0  0  0  0  0  0
   22.5960   10.4360   13.3870 C   0  0  0  0  0  0  0  0  0  0  0  0
   22.6480    9.1440   14.0830 C   0  0  0  0  0  0  0  0  0  0  0  0
   22.8020    7.9790   13.3410 C   0  0  0  0  0  0  0  0  0  0  0  0
   22.9180    8.1300   11.8550 C   0  0  0  0  0  0  0  0  0  0  0  0
   22.8710    6.6850   13.8470 C   0  0  0  0  0  0  0  0  0  0  0  0
   23.0360    5.5680   12.9070 C   0  0  0  0  0  0  0  0  0  0  0  0
   23.1460    5.7300   11.5360 C   0  0  0  0  0  0  0  0  0  0  0  0
   23.0810    7.0120   11.0240 C   0  0  0  0  0  0  0  0  0  0  0  0
   22.5140    9.4020   15.4950 C   0  0  0  0  0  0  0  0  0  0  0  0
   22.3890   10.8000   15.5710 C   0  0  0  0  0  0  0  0  0  0  0  0
   22.4400   11.4470   14.3590 O   0  0  0  0  0  0  0  0  0  0  0  0
   22.8010    6.1320   15.1770 C   0  0  0  0  0  0  0  0  0  0  0  0
   22.9250    4.7520   14.9700 C   0  0  0  0  0  0  0  0  0  0  0  0
   23.0840    4.3830   13.6570 O   0  0  0  0  0  0  0  0  0  0  0  0
   22.9000    3.7000   16.0080 C   0  0  0  0  0  0  0  0  0  0  0  0
   22.2280   11.6010   16.8080 C   0  0  0  0  0  0  0  0  0  0  0  0
   22.1760   11.0350   17.9120 O   0  5  0  0  0  0  0  0  0  0  0  0
   23.0130    2.5320   15.5740 O   0  5  0  0  0  0  0  0  0  0  0  0
   22.7810    4.0070   17.2170 O   0  0  0  0  0  0  0  0  0  0  0  0
   22.1360   12.8340   16.6680 O   0  0  0  0  0  0  0  0  0  0  0  0
   22.9566    9.4747   10.1796 H   0  0  0  0  0  0  0  0  0  0  0  0
   22.6562   11.5330   11.5313 H   0  0  0  0  0  0  0  0  0  0  0  0
   23.2793    4.8752   10.8828 H   0  0  0  0  0  0  0  0  0  0  0  0
   23.1580    7.1572    9.9525 H   0  0  0  0  0  0  0  0  0  0  0  0
   22.5104    8.6819   16.3120 H   0  0  0  0  0  0  0  0  0  0  0  0
   22.6802    6.6624   16.1204 H   0  0  0  0  0  0  0  0  0  0  0  0
  1  2  2  0  0  0  0
  1  6  1  0  0  0  0
  1 23  1  0  0  0  0
  2  3  1  0  0  0  0
  2 24  1  0  0  0  0
  3  4  2  0  0  0  0
  3 13  1  0  0  0  0
  4  5  1  0  0  0  0
  4 11  1  0  0  0  0
  5  6  2  0  0  0  0
  5  7  1  0  0  0  0
  6 10  1  0  0  0  0
  7  8  2  0  0  0  0
  7 14  1  0  0  0  0
  8  9  1  0  0  0  0
  8 16  1  0  0  0  0
  9 10  2  0  0  0  0
  9 25  1  0  0  0  0
 10 26  1  0  0  0  0
 11 12  2  0  0  0  0
 11 27  1  0  0  0  0
 12 13  1  0  0  0  0
 12 18  1  0  0  0  0
 14 15  2  0  0  0  0
 14 28  1  0  0  0  0
 15 16  1  0  0  0  0
 15 17  1  0  0  0  0
 17 20  1  0  0  0  0
 17 21  2  0  0  0  0
 18 19  1  0  0  0  0
 18 22  2  0  0  0  0
M  CHG  2  19  -1  20  -1
M  END
