3ms2_ligand
 OpenBabel08222323343D

 45 46  0  0  1  0  0  0  0  0999 V2000
   19.3350   14.9500   56.0300 C   0  0  1  0  0  0  0  0  0  0  0  0
   18.8510   13.6940   55.4910 N   0  0  0  0  0  0  0  0  0  0  0  0
   18.4110   12.8680   57.9660 S   0  0  0  0  0  0  0  0  0  0  0  0
   20.6050   15.3410   55.2690 C   0  0  2  0  0  0  0  0  0  0  0  0
   17.9330   11.6030   55.6760 N   0  0  0  0  0  0  0  0  0  0  0  0
   21.6850   14.4590   55.5860 O   0  0  0  0  0  0  0  0  0  0  0  0
   20.9460   16.7850   55.6180 C   0  0  1  0  0  0  0  0  0  0  0  0
   17.9240   11.5120   54.4310 N   0  0  0  0  0  0  0  0  0  0  0  0
   22.1210   17.2090   54.9230 O   0  0  0  0  0  0  0  0  0  0  0  0
   19.7860   17.6680   55.1760 C   0  0  2  0  0  0  0  0  0  0  0  0
   20.0570   19.0310   55.4920 O   0  0  0  0  0  0  0  0  0  0  0  0
   18.4500   17.2430   55.7890 C   0  0  2  0  0  0  0  0  0  0  0  0
   18.2440   15.8270   55.7350 O   0  0  0  0  0  0  0  0  0  0  0  0
   17.3240   17.8390   54.9590 C   0  0  0  0  0  0  0  0  0  0  0  0
   16.7780   18.9530   55.6660 O   0  0  0  0  0  0  0  0  0  0  0  0
   18.3920   12.7150   56.2660 C   0  0  0  0  0  0  0  0  0  0  0  0
   17.5070   10.4650   53.8810 C   0  0  0  0  0  0  0  0  0  0  0  0
   17.4810   10.2820   52.4130 C   0  0  0  0  0  0  0  0  0  0  0  0
   18.1800   11.1320   51.5460 C   0  0  0  0  0  0  0  0  0  0  0  0
   18.1250   10.9010   50.1690 C   0  0  0  0  0  0  0  0  0  0  0  0
   17.3800    9.8250   49.6590 C   0  0  0  0  0  0  0  0  0  0  0  0
   16.6870    8.9830   50.5240 C   0  0  0  0  0  0  0  0  0  0  0  0
   16.7410    9.2180   51.8980 C   0  0  0  0  0  0  0  0  0  0  0  0
   17.2990    9.5630   48.1750 C   0  0  0  0  0  0  0  0  0  0  0  0
   19.5351   14.8966   57.1103 H   0  0  0  0  0  0  0  0  0  0  0  0
   18.8627   13.5587   54.5003 H   0  0  0  0  0  0  0  0  0  0  0  0
   20.4089   15.2732   54.1888 H   0  0  0  0  0  0  0  0  0  0  0  0
   22.4594   14.7219   55.1025 H   0  0  0  0  0  0  0  0  0  0  0  0
   21.1026   16.8778   56.7028 H   0  0  0  0  0  0  0  0  0  0  0  0
   21.9740   17.1454   53.9867 H   0  0  0  0  0  0  0  0  0  0  0  0
   19.6960   17.5794   54.0833 H   0  0  0  0  0  0  0  0  0  0  0  0
   20.8476   19.3077   55.0437 H   0  0  0  0  0  0  0  0  0  0  0  0
   18.3980   17.5929   56.8305 H   0  0  0  0  0  0  0  0  0  0  0  0
   16.5417   17.0826   54.7981 H   0  0  0  0  0  0  0  0  0  0  0  0
   17.7165   18.1731   53.9873 H   0  0  0  0  0  0  0  0  0  0  0  0
   16.0725   19.3347   55.1570 H   0  0  0  0  0  0  0  0  0  0  0  0
   16.4687   10.3368   54.2209 H   0  0  0  0  0  0  0  0  0  0  0  0
   18.1263    9.6469   54.2775 H   0  0  0  0  0  0  0  0  0  0  0  0
   18.7577   11.9606   51.9395 H   0  0  0  0  0  0  0  0  0  0  0  0
   18.6601   11.5557   49.4907 H   0  0  0  0  0  0  0  0  0  0  0  0
   16.1106    8.1522   50.1335 H   0  0  0  0  0  0  0  0  0  0  0  0
   16.2008    8.5652   52.5741 H   0  0  0  0  0  0  0  0  0  0  0  0
   17.8981   10.3125   47.6371 H   0  0  0  0  0  0  0  0  0  0  0  0
   16.2508    9.6280   47.8478 H   0  0  0  0  0  0  0  0  0  0  0  0
   17.6892    8.5576   47.9583 H   0  0  0  0  0  0  0  0  0  0  0  0
  1  4  1  0  0  0  0
  1 13  1  0  0  0  0
  1 25  1  1  0  0  0
  2  1  1  0  0  0  0
  2 26  1  0  0  0  0
  4  6  1  0  0  0  0
  4  7  1  0  0  0  0
  4 27  1  6  0  0  0
  5  8  2  0  0  0  0
  5 16  1  0  0  0  0
  6 28  1  0  0  0  0
  7  9  1  0  0  0  0
  7 10  1  0  0  0  0
  7 29  1  1  0  0  0
  8 17  1  0  0  0  0
  9 30  1  0  0  0  0
 10 11  1  0  0  0  0
 10 12  1  0  0  0  0
 10 31  1  6  0  0  0
 11 32  1  0  0  0  0
 12 13  1  0  0  0  0
 12 14  1  0  0  0  0
 12 33  1  1  0  0  0
 14 15  1  0  0  0  0
 14 34  1  0  0  0  0
 14 35  1  0  0  0  0
 15 36  1  0  0  0  0
 16  2  1  0  0  0  0
 16  3  2  0  0  0  0
 17 18  1  0  0  0  0
 17 37  1  0  0  0  0
 17 38  1  0  0  0  0
 18 19  2  0  0  0  0
 18 23  1  0  0  0  0
 19 20  1  0  0  0  0
 19 39  1  0  0  0  0
 20 21  2  0  0  0  0
 20 40  1  0  0  0  0
 21 22  1  0  0  0  0
 21 24  1  0  0  0  0
 22 23  2  0  0  0  0
 22 41  1  0  0  0  0
 23 42  1  0  0  0  0
 24 43  1  0  0  0  0
 24 44  1  0  0  0  0
 24 45  1  0  0  0  0
M  END
