3ms7_ligand
 OpenBabel08222323343D

 42 43  0  0  1  0  0  0  0  0999 V2000
   19.2880   15.0630   56.0290 C   0  0  1  0  0  0  0  0  0  0  0  0
   18.8250   13.7930   55.4700 N   0  0  0  0  0  0  0  0  0  0  0  0
   18.1290   12.8390   57.8680 S   0  0  0  0  0  0  0  0  0  0  0  0
   15.8410    8.4530   52.4250 Cl  0  0  0  0  0  0  0  0  0  0  0  0
   20.7150   15.4200   55.5570 C   0  0  2  0  0  0  0  0  0  0  0  0
   17.8770   11.6780   55.5420 N   0  0  0  0  0  0  0  0  0  0  0  0
   21.7140   14.5490   56.1200 O   0  0  0  0  0  0  0  0  0  0  0  0
   21.0330   16.8970   55.8930 C   0  0  2  0  0  0  0  0  0  0  0  0
   17.9680   11.5900   54.3030 N   0  0  0  0  0  0  0  0  0  0  0  0
   16.2430   17.4800   55.2520 O   0  0  0  0  0  0  0  0  0  0  0  0
   19.9380   17.8380   55.3710 C   0  0  2  0  0  0  0  0  0  0  0  0
   20.1350   19.1730   55.8480 O   0  0  0  0  0  0  0  0  0  0  0  0
   18.5630   17.3680   55.8280 C   0  0  2  0  0  0  0  0  0  0  0  0
   18.3760   16.0000   55.4540 O   0  0  0  0  0  0  0  0  0  0  0  0
   17.4710   18.2090   55.1750 C   0  0  0  0  0  0  0  0  0  0  0  0
   22.2920   17.3170   55.3480 O   0  0  0  0  0  0  0  0  0  0  0  0
   18.2840   12.7840   56.1760 C   0  0  0  0  0  0  0  0  0  0  0  0
   17.5810   10.5640   53.6870 C   0  0  0  0  0  0  0  0  0  0  0  0
   17.7050   10.4870   52.2070 C   0  0  0  0  0  0  0  0  0  0  0  0
   16.9470    9.5440   51.5130 C   0  0  0  0  0  0  0  0  0  0  0  0
   17.0420    9.4390   50.1230 C   0  0  0  0  0  0  0  0  0  0  0  0
   17.8970   10.3030   49.4330 C   0  0  0  0  0  0  0  0  0  0  0  0
   18.6600   11.2540   50.1220 C   0  0  0  0  0  0  0  0  0  0  0  0
   18.5600   11.3530   51.5130 C   0  0  0  0  0  0  0  0  0  0  0  0
   19.2411   15.0586   57.1280 H   0  0  0  0  0  0  0  0  0  0  0  0
   18.9183   13.6645   54.4827 H   0  0  0  0  0  0  0  0  0  0  0  0
   20.7464   15.3026   54.4637 H   0  0  0  0  0  0  0  0  0  0  0  0
   22.5717   14.8059   55.8026 H   0  0  0  0  0  0  0  0  0  0  0  0
   21.0810   16.9900   56.9880 H   0  0  0  0  0  0  0  0  0  0  0  0
   15.5486   17.9882   54.8496 H   0  0  0  0  0  0  0  0  0  0  0  0
   19.9721   17.8402   54.2715 H   0  0  0  0  0  0  0  0  0  0  0  0
   20.9785   19.4931   55.5506 H   0  0  0  0  0  0  0  0  0  0  0  0
   18.4924   17.4635   56.9216 H   0  0  0  0  0  0  0  0  0  0  0  0
   17.3700   19.1667   55.7066 H   0  0  0  0  0  0  0  0  0  0  0  0
   17.7264   18.3991   54.1221 H   0  0  0  0  0  0  0  0  0  0  0  0
   22.2544   17.2770   54.3997 H   0  0  0  0  0  0  0  0  0  0  0  0
   16.5138   10.4377   53.9219 H   0  0  0  0  0  0  0  0  0  0  0  0
   18.1495    9.7160   54.0965 H   0  0  0  0  0  0  0  0  0  0  0  0
   16.4605    8.6976   49.5870 H   0  0  0  0  0  0  0  0  0  0  0  0
   17.9703   10.2363   48.3535 H   0  0  0  0  0  0  0  0  0  0  0  0
   19.3272   11.9124   49.5776 H   0  0  0  0  0  0  0  0  0  0  0  0
   19.1399   12.0945   52.0506 H   0  0  0  0  0  0  0  0  0  0  0  0
  1  5  1  0  0  0  0
  1 14  1  0  0  0  0
  1 25  1  1  0  0  0
  2  1  1  0  0  0  0
  2 26  1  0  0  0  0
  5  7  1  0  0  0  0
  5  8  1  0  0  0  0
  5 27  1  6  0  0  0
  6 17  1  0  0  0  0
  7 28  1  0  0  0  0
  8 11  1  0  0  0  0
  8 16  1  0  0  0  0
  8 29  1  1  0  0  0
  9  6  2  0  0  0  0
 10 30  1  0  0  0  0
 11 12  1  0  0  0  0
 11 31  1  6  0  0  0
 12 32  1  0  0  0  0
 13 11  1  0  0  0  0
 13 15  1  0  0  0  0
 13 33  1  1  0  0  0
 14 13  1  0  0  0  0
 15 10  1  0  0  0  0
 15 34  1  0  0  0  0
 15 35  1  0  0  0  0
 16 36  1  0  0  0  0
 17  2  1  0  0  0  0
 17  3  2  0  0  0  0
 18  9  1  0  0  0  0
 18 37  1  0  0  0  0
 18 38  1  0  0  0  0
 19 18  1  0  0  0  0
 19 20  2  0  0  0  0
 19 24  1  0  0  0  0
 20  4  1  0  0  0  0
 20 21  1  0  0  0  0
 21 22  2  0  0  0  0
 21 39  1  0  0  0  0
 22 23  1  0  0  0  0
 22 40  1  0  0  0  0
 23 24  2  0  0  0  0
 23 41  1  0  0  0  0
 24 42  1  0  0  0  0
M  END
