3msj_ligand
 OpenBabel08222323343D

 27 28  0  0  0  0  0  0  0  0999 V2000
  -15.6340  -89.6560   14.0260 C   0  0  0  0  0  0  0  0  0  0  0  0
  -15.8830  -90.8130   14.7710 C   0  0  0  0  0  0  0  0  0  0  0  0
  -16.2310  -89.4610   12.7880 C   0  0  0  0  0  0  0  0  0  0  0  0
  -16.7300  -91.8010   14.2700 C   0  0  0  0  0  0  0  0  0  0  0  0
  -17.0620  -90.4490   12.3160 C   0  0  0  0  0  0  0  0  0  0  0  0
  -17.3080  -91.5930   13.0300 C   0  0  0  0  0  0  0  0  0  0  0  0
  -17.7180  -90.4790   11.1580 N   0  0  0  0  0  0  0  0  0  0  0  0
  -18.3760  -91.6460   11.1740 C   0  0  0  0  0  0  0  0  0  0  0  0
  -18.1390  -92.3430   12.3060 N   0  0  0  0  0  0  0  0  0  0  0  0
  -19.2000  -92.0490   10.1220 N   0  0  0  0  0  0  0  0  0  0  0  0
  -18.6910  -93.6610   12.6910 C   0  0  0  0  0  0  0  0  0  0  0  0
  -20.1930  -93.5820   12.9780 C   0  0  0  0  0  0  0  0  0  0  0  0
  -20.9330  -94.8750   12.6780 C   0  0  0  0  0  0  0  0  0  0  0  0
  -20.4630  -95.9300   13.4960 O   0  0  0  0  0  0  0  0  0  0  0  0
  -14.5810  -88.4500   14.6420 Cl  0  0  0  0  0  0  0  0  0  0  0  0
  -15.4162  -90.9422   15.7408 H   0  0  0  0  0  0  0  0  0  0  0  0
  -16.0481  -88.5604   12.2131 H   0  0  0  0  0  0  0  0  0  0  0  0
  -16.9296  -92.7045   14.8347 H   0  0  0  0  0  0  0  0  0  0  0  0
  -19.3161  -91.4428    9.2974 H   0  0  0  0  0  0  0  0  0  0  0  0
  -19.6920  -92.9526   10.1703 H   0  0  0  0  0  0  0  0  0  0  0  0
  -18.1732  -94.0145   13.5948 H   0  0  0  0  0  0  0  0  0  0  0  0
  -18.5217  -94.3726   11.8694 H   0  0  0  0  0  0  0  0  0  0  0  0
  -20.6247  -92.7815   12.3593 H   0  0  0  0  0  0  0  0  0  0  0  0
  -20.3326  -93.3390   14.0417 H   0  0  0  0  0  0  0  0  0  0  0  0
  -20.7775  -95.1418   11.6223 H   0  0  0  0  0  0  0  0  0  0  0  0
  -22.0069  -94.7264   12.8644 H   0  0  0  0  0  0  0  0  0  0  0  0
  -20.9398  -96.7254   13.2901 H   0  0  0  0  0  0  0  0  0  0  0  0
  1  2  2  0  0  0  0
  1  3  1  0  0  0  0
  1 15  1  0  0  0  0
  2  4  1  0  0  0  0
  2 16  1  0  0  0  0
  3  5  2  0  0  0  0
  3 17  1  0  0  0  0
  4  6  2  0  0  0  0
  4 18  1  0  0  0  0
  5  6  1  0  0  0  0
  5  7  1  0  0  0  0
  6  9  1  0  0  0  0
  7  8  2  0  0  0  0
  8  9  1  0  0  0  0
  8 10  1  0  0  0  0
  9 11  1  0  0  0  0
 10 19  1  0  0  0  0
 10 20  1  0  0  0  0
 11 12  1  0  0  0  0
 11 21  1  0  0  0  0
 11 22  1  0  0  0  0
 12 13  1  0  0  0  0
 12 23  1  0  0  0  0
 12 24  1  0  0  0  0
 13 14  1  0  0  0  0
 13 25  1  0  0  0  0
 13 26  1  0  0  0  0
 14 27  1  0  0  0  0
M  END
