3mv5_ligand
 OpenBabel08222323343D

 32 34  0  0  1  0  0  0  0  0999 V2000
    7.7030    2.9450   19.0800 C   0  0  2  0  0  0  0  0  0  0  0  0
    8.3500    4.1420   18.4140 C   0  0  0  0  0  0  0  0  0  0  0  0
    7.1770    4.8100   17.6990 C   0  0  0  0  0  0  0  0  0  0  0  0
    6.3720    3.6650   17.2890 N   0  0  0  0  0  0  0  0  0  0  0  0
    6.6440    2.4790   18.0890 C   0  0  0  0  0  0  0  0  0  0  0  0
    5.0950    3.9220   16.7430 C   0  0  0  0  0  0  0  0  0  0  0  0
    4.8810    5.2460   16.5710 N   0  0  0  0  0  0  0  0  0  0  0  0
    3.7070    5.7080   16.0980 C   0  0  0  0  0  0  0  0  0  0  0  0
    2.6930    4.8490   15.7390 N   0  0  0  0  0  0  0  0  0  0  0  0
    4.0540    3.0000   16.3770 C   0  0  0  0  0  0  0  0  0  0  0  0
    2.8290    3.5150   15.8680 C   0  0  0  0  0  0  0  0  0  0  0  0
    1.9170    2.5540   15.5790 N   0  0  0  0  0  0  0  0  0  0  0  0
    2.4280    1.3250   15.8460 C   0  0  0  0  0  0  0  0  0  0  0  0
    3.7330    1.5320   16.3170 C   0  0  0  0  0  0  0  0  0  0  0  0
    4.5770    0.3460   16.7110 C   0  0  0  0  0  0  0  0  0  0  0  0
    7.0470    3.3570   20.3150 N   0  3  0  0  0  0  0  0  0  0  0  0
    8.4404    2.1544   19.2828 H   0  0  0  0  0  0  0  0  0  0  0  0
    9.1225    3.8266   17.6973 H   0  0  0  0  0  0  0  0  0  0  0  0
    8.7953    4.8171   19.1596 H   0  0  0  0  0  0  0  0  0  0  0  0
    7.5184    5.3893   16.8285 H   0  0  0  0  0  0  0  0  0  0  0  0
    6.6170    5.4674   18.3803 H   0  0  0  0  0  0  0  0  0  0  0  0
    5.7371    2.1434   18.6133 H   0  0  0  0  0  0  0  0  0  0  0  0
    7.0278    1.6619   17.4605 H   0  0  0  0  0  0  0  0  0  0  0  0
    3.5581    6.7771   15.9982 H   0  0  0  0  0  0  0  0  0  0  0  0
    0.9719    2.7312   15.2098 H   0  0  0  0  0  0  0  0  0  0  0  0
    1.9244    0.3677   15.7195 H   0  0  0  0  0  0  0  0  0  0  0  0
    5.5624    0.6948   17.0536 H   0  0  0  0  0  0  0  0  0  0  0  0
    4.7045   -0.3178   15.8432 H   0  0  0  0  0  0  0  0  0  0  0  0
    4.0799   -0.2040   17.5236 H   0  0  0  0  0  0  0  0  0  0  0  0
    7.7412    3.6671   20.9769 H   0  0  0  0  0  0  0  0  0  0  0  0
    6.5387    2.5772   20.7018 H   0  0  0  0  0  0  0  0  0  0  0  0
    6.4077    4.1116   20.1203 H   0  0  0  0  0  0  0  0  0  0  0  0
  1  2  1  0  0  0  0
  1  5  1  0  0  0  0
  1 16  1  0  0  0  0
  1 17  1  1  0  0  0
  2  3  1  0  0  0  0
  2 18  1  0  0  0  0
  2 19  1  0  0  0  0
  3  4  1  0  0  0  0
  3 20  1  0  0  0  0
  3 21  1  0  0  0  0
  4  5  1  0  0  0  0
  4  6  1  0  0  0  0
  5 22  1  0  0  0  0
  5 23  1  0  0  0  0
  6  7  2  0  0  0  0
  6 10  1  0  0  0  0
  7  8  1  0  0  0  0
  8  9  2  0  0  0  0
  8 24  1  0  0  0  0
  9 11  1  0  0  0  0
 10 11  2  0  0  0  0
 10 14  1  0  0  0  0
 11 12  1  0  0  0  0
 12 13  1  0  0  0  0
 12 25  1  0  0  0  0
 13 14  2  0  0  0  0
 13 26  1  0  0  0  0
 14 15  1  0  0  0  0
 15 27  1  0  0  0  0
 15 28  1  0  0  0  0
 15 29  1  0  0  0  0
 16 30  1  0  0  0  0
 16 31  1  0  0  0  0
 16 32  1  0  0  0  0
M  CHG  1  16   1
M  END
