3mvh_ligand
 OpenBabel08222323343D

 52 55  0  0  1  0  0  0  0  0999 V2000
   16.3290   -0.7580   29.3170 C   0  0  0  0  0  0  0  0  0  0  0  0
   15.3980   -1.3020   28.2480 C   0  0  0  0  0  0  0  0  0  0  0  0
   14.6320   -2.4920   28.7780 C   0  0  0  0  0  0  0  0  0  0  0  0
   13.3260   -2.4040   29.2320 C   0  0  0  0  0  0  0  0  0  0  0  0
   12.9200   -3.6380   29.5790 N   0  0  0  0  0  0  0  0  0  0  0  0
   13.9460   -4.5060   29.4260 C   0  0  0  0  0  0  0  0  0  0  0  0
   13.8940   -5.8380   29.7230 N   0  0  0  0  0  0  0  0  0  0  0  0
   14.9940   -6.5990   29.5520 C   0  0  0  0  0  0  0  0  0  0  0  0
   16.0980   -6.0270   29.0160 N   0  0  0  0  0  0  0  0  0  0  0  0
   16.1680   -4.7240   28.6610 C   0  0  0  0  0  0  0  0  0  0  0  0
   17.3910   -4.4220   28.1630 N   0  0  0  0  0  0  0  0  0  0  0  0
   18.4990   -5.4200   28.0240 C   0  0  0  0  0  0  0  0  0  0  0  0
   19.5030   -4.7300   27.0680 C   0  0  0  0  0  0  0  0  0  0  0  0
   18.6180   -3.7680   26.3580 C   0  0  2  0  0  0  0  0  0  0  0  0
   17.9770   -4.7660   25.5010 N   0  3  0  0  0  0  0  0  0  0  0  0
   19.2290   -2.7400   25.3980 C   0  0  0  0  0  0  0  0  0  0  0  0
   19.7190   -1.5480   26.0970 N   0  0  0  0  0  0  0  0  0  0  0  0
   20.9200   -1.4910   26.5970 C   0  0  0  0  0  0  0  0  0  0  0  0
   21.6830   -2.4370   26.4770 O   0  0  0  0  0  0  0  0  0  0  0  0
   21.4250   -0.2890   27.3100 C   0  0  0  0  0  0  0  0  0  0  0  0
   21.0200    1.0060   26.9730 C   0  0  0  0  0  0  0  0  0  0  0  0
   21.5380    2.0900   27.6850 C   0  0  0  0  0  0  0  0  0  0  0  0
   22.4440    1.8360   28.7080 C   0  0  0  0  0  0  0  0  0  0  0  0
   22.9750    2.8300   29.4040 F   0  0  0  0  0  0  0  0  0  0  0  0
   22.8680    0.5560   29.0210 C   0  0  0  0  0  0  0  0  0  0  0  0
   22.3600   -0.5100   28.3070 C   0  0  0  0  0  0  0  0  0  0  0  0
   22.7360   -1.7570   28.6280 F   0  0  0  0  0  0  0  0  0  0  0  0
   17.8110   -3.1990   27.5850 C   0  0  0  0  0  0  0  0  0  0  0  0
   15.0450   -3.8740   28.9040 C   0  0  0  0  0  0  0  0  0  0  0  0
   16.8796    0.1068   28.9182 H   0  0  0  0  0  0  0  0  0  0  0  0
   17.0420   -1.5408   29.6152 H   0  0  0  0  0  0  0  0  0  0  0  0
   15.7400   -0.4458   30.1920 H   0  0  0  0  0  0  0  0  0  0  0  0
   15.9900   -1.6112   27.3739 H   0  0  0  0  0  0  0  0  0  0  0  0
   14.6880   -0.5162   27.9507 H   0  0  0  0  0  0  0  0  0  0  0  0
   12.7317   -1.4938   29.2966 H   0  0  0  0  0  0  0  0  0  0  0  0
   11.9759   -3.8837   29.9094 H   0  0  0  0  0  0  0  0  0  0  0  0
   14.9944   -7.6448   29.8371 H   0  0  0  0  0  0  0  0  0  0  0  0
   18.1273   -6.3597   27.5895 H   0  0  0  0  0  0  0  0  0  0  0  0
   18.9650   -5.6259   28.9989 H   0  0  0  0  0  0  0  0  0  0  0  0
   19.9552   -5.4507   26.3708 H   0  0  0  0  0  0  0  0  0  0  0  0
   20.2970   -4.2108   27.6248 H   0  0  0  0  0  0  0  0  0  0  0  0
   17.3031   -4.3130   24.9038 H   0  0  0  0  0  0  0  0  0  0  0  0
   17.5107   -5.4515   26.0743 H   0  0  0  0  0  0  0  0  0  0  0  0
   18.6757   -5.2210   24.9345 H   0  0  0  0  0  0  0  0  0  0  0  0
   18.4612   -2.4338   24.6723 H   0  0  0  0  0  0  0  0  0  0  0  0
   20.0700   -3.2088   24.8662 H   0  0  0  0  0  0  0  0  0  0  0  0
   19.1144   -0.7572   26.1924 H   0  0  0  0  0  0  0  0  0  0  0  0
   20.3119    1.1669   26.1681 H   0  0  0  0  0  0  0  0  0  0  0  0
   21.2408    3.1046   27.4457 H   0  0  0  0  0  0  0  0  0  0  0  0
   23.5881    0.3935   29.8148 H   0  0  0  0  0  0  0  0  0  0  0  0
   18.4513   -2.6196   28.2664 H   0  0  0  0  0  0  0  0  0  0  0  0
   16.9595   -2.5797   27.2667 H   0  0  0  0  0  0  0  0  0  0  0  0
  1  2  1  0  0  0  0
  1 30  1  0  0  0  0
  1 31  1  0  0  0  0
  1 32  1  0  0  0  0
  2  3  1  0  0  0  0
  2 33  1  0  0  0  0
  2 34  1  0  0  0  0
  3  4  2  0  0  0  0
  3 29  1  0  0  0  0
  4  5  1  0  0  0  0
  4 35  1  0  0  0  0
  5  6  1  0  0  0  0
  5 36  1  0  0  0  0
  6  7  2  0  0  0  0
  6 29  1  0  0  0  0
  7  8  1  0  0  0  0
  8  9  2  0  0  0  0
  8 37  1  0  0  0  0
  9 10  1  0  0  0  0
 10 11  1  0  0  0  0
 10 29  2  0  0  0  0
 11 12  1  0  0  0  0
 11 28  1  0  0  0  0
 12 13  1  0  0  0  0
 12 38  1  0  0  0  0
 12 39  1  0  0  0  0
 13 14  1  0  0  0  0
 13 40  1  0  0  0  0
 13 41  1  0  0  0  0
 14 15  1  0  0  0  0
 14 16  1  6  0  0  0
 14 28  1  0  0  0  0
 15 42  1  0  0  0  0
 15 43  1  0  0  0  0
 15 44  1  0  0  0  0
 16 17  1  0  0  0  0
 16 45  1  0  0  0  0
 16 46  1  0  0  0  0
 17 18  1  0  0  0  0
 17 47  1  0  0  0  0
 18 19  2  0  0  0  0
 18 20  1  0  0  0  0
 20 21  2  0  0  0  0
 20 26  1  0  0  0  0
 21 22  1  0  0  0  0
 21 48  1  0  0  0  0
 22 23  2  0  0  0  0
 22 49  1  0  0  0  0
 23 24  1  0  0  0  0
 23 25  1  0  0  0  0
 25 26  2  0  0  0  0
 25 50  1  0  0  0  0
 26 27  1  0  0  0  0
 28 51  1  0  0  0  0
 28 52  1  0  0  0  0
M  CHG  1  15   1
M  END
