3my5_ligand
 OpenBabel08222323343D

 32 34  0  0  1  0  0  0  0  0999 V2000
   -6.3290   21.9070  -23.0760 C   0  0  0  0  0  0  0  0  0  0  0  0
   -7.1230   21.0490  -22.3340 C   0  0  0  0  0  0  0  0  0  0  0  0
   -8.4890   21.0500  -22.5670 C   0  0  0  0  0  0  0  0  0  0  0  0
   -9.5410   19.9530  -21.6270 Cl  0  0  0  0  0  0  0  0  0  0  0  0
   -9.0580   21.8860  -23.5180 C   0  0  0  0  0  0  0  0  0  0  0  0
  -10.8360   21.8400  -23.7460 Cl  0  0  0  0  0  0  0  0  0  0  0  0
   -8.2750   22.7500  -24.2710 C   0  0  0  0  0  0  0  0  0  0  0  0
   -6.9030   22.7500  -24.0350 C   0  0  0  0  0  0  0  0  0  0  0  0
   -5.9000   23.4620  -24.5890 N   0  0  0  0  0  0  0  0  0  0  0  0
   -4.7520   23.0730  -23.9970 C   0  0  0  0  0  0  0  0  0  0  0  0
   -5.0050   22.1210  -23.0820 N   0  0  0  0  0  0  0  0  0  0  0  0
   -3.9470   21.5110  -22.2160 C   0  0  2  0  0  0  0  0  0  0  0  0
   -3.8930   20.1210  -22.4400 O   0  0  0  0  0  0  0  0  0  0  0  0
   -3.3590   19.4780  -21.2400 C   0  0  2  0  0  0  0  0  0  0  0  0
   -4.2280   18.3030  -20.8660 C   0  0  0  0  0  0  0  0  0  0  0  0
   -3.5250   17.3680  -20.0510 O   0  0  0  0  0  0  0  0  0  0  0  0
   -3.2610   20.5780  -20.1760 C   0  0  1  0  0  0  0  0  0  0  0  0
   -1.9300   21.0890  -20.1440 O   0  0  0  0  0  0  0  0  0  0  0  0
   -4.2030   21.6470  -20.7210 C   0  0  1  0  0  0  0  0  0  0  0  0
   -3.9500   22.9540  -20.2530 O   0  0  0  0  0  0  0  0  0  0  0  0
   -6.6869   20.3929  -21.5894 H   0  0  0  0  0  0  0  0  0  0  0  0
   -8.7162   23.4017  -25.0165 H   0  0  0  0  0  0  0  0  0  0  0  0
   -3.7649   23.4717  -24.2266 H   0  0  0  0  0  0  0  0  0  0  0  0
   -2.9824   21.9770  -22.4656 H   0  0  0  0  0  0  0  0  0  0  0  0
   -2.3471   19.0977  -21.4435 H   0  0  0  0  0  0  0  0  0  0  0  0
   -4.5591   17.7971  -21.7850 H   0  0  0  0  0  0  0  0  0  0  0  0
   -5.1052   18.6697  -20.3129 H   0  0  0  0  0  0  0  0  0  0  0  0
   -4.0998   16.6432  -19.8347 H   0  0  0  0  0  0  0  0  0  0  0  0
   -3.5671   20.2226  -19.1810 H   0  0  0  0  0  0  0  0  0  0  0  0
   -1.8694   21.7704  -19.4848 H   0  0  0  0  0  0  0  0  0  0  0  0
   -5.2459   21.3948  -20.4787 H   0  0  0  0  0  0  0  0  0  0  0  0
   -3.0698   23.2127  -20.4997 H   0  0  0  0  0  0  0  0  0  0  0  0
  1  2  2  0  0  0  0
  1  8  1  0  0  0  0
  1 11  1  0  0  0  0
  2  3  1  0  0  0  0
  2 21  1  0  0  0  0
  3  4  1  0  0  0  0
  3  5  2  0  0  0  0
  5  6  1  0  0  0  0
  5  7  1  0  0  0  0
  7  8  2  0  0  0  0
  7 22  1  0  0  0  0
  8  9  1  0  0  0  0
  9 10  2  0  0  0  0
 10 11  1  0  0  0  0
 10 23  1  0  0  0  0
 11 12  1  0  0  0  0
 12 13  1  0  0  0  0
 12 19  1  0  0  0  0
 12 24  1  6  0  0  0
 13 14  1  0  0  0  0
 14 15  1  0  0  0  0
 14 17  1  0  0  0  0
 14 25  1  6  0  0  0
 15 16  1  0  0  0  0
 15 26  1  0  0  0  0
 15 27  1  0  0  0  0
 16 28  1  0  0  0  0
 17 18  1  0  0  0  0
 17 19  1  0  0  0  0
 17 29  1  1  0  0  0
 18 30  1  0  0  0  0
 19 20  1  0  0  0  0
 19 31  1  1  0  0  0
 20 32  1  0  0  0  0
M  END
