3n1v_ligand
 OpenBabel08222323343D

 23 24  0  0  0  0  0  0  0  0999 V2000
   -0.1650   77.9230   28.9120 Cl  0  0  0  0  0  0  0  0  0  0  0  0
    1.5040   78.0890   28.5960 C   0  0  0  0  0  0  0  0  0  0  0  0
    2.3460   76.9620   28.6930 C   0  0  0  0  0  0  0  0  0  0  0  0
    3.6950   77.1810   28.4450 C   0  0  0  0  0  0  0  0  0  0  0  0
    4.1810   78.4370   28.1120 C   0  0  0  0  0  0  0  0  0  0  0  0
    5.9200   78.5420   27.8050 S   0  0  0  0  0  0  0  0  0  0  0  0
    5.9750   76.7620   28.1520 C   0  0  0  0  0  0  0  0  0  0  0  0
    4.8010   76.1820   28.4740 C   0  0  0  0  0  0  0  0  0  0  0  0
    4.5890   74.7150   28.8210 C   0  0  0  0  0  0  0  0  0  0  0  0
    7.2460   75.9870   28.0770 C   0  0  0  0  0  0  0  0  0  0  0  0
    7.5280   75.6680   26.6240 C   0  0  0  0  0  0  0  0  0  0  0  0
    8.6580   75.7440   26.1730 O   0  5  0  0  0  0  0  0  0  0  0  0
    6.4840   75.3040   25.8640 O   0  0  0  0  0  0  0  0  0  0  0  0
    3.3370   79.5540   28.0130 C   0  0  0  0  0  0  0  0  0  0  0  0
    1.9810   79.3660   28.2630 C   0  0  0  0  0  0  0  0  0  0  0  0
    1.9622   75.9805   28.9467 H   0  0  0  0  0  0  0  0  0  0  0  0
    3.5251   74.5397   29.0385 H   0  0  0  0  0  0  0  0  0  0  0  0
    5.1913   74.4564   29.7044 H   0  0  0  0  0  0  0  0  0  0  0  0
    4.8974   74.0888   27.9708 H   0  0  0  0  0  0  0  0  0  0  0  0
    7.1456   75.0530   28.6494 H   0  0  0  0  0  0  0  0  0  0  0  0
    8.0705   76.5849   28.4925 H   0  0  0  0  0  0  0  0  0  0  0  0
    3.7282   80.5303   27.7506 H   0  0  0  0  0  0  0  0  0  0  0  0
    1.2954   80.2033   28.2007 H   0  0  0  0  0  0  0  0  0  0  0  0
  1  2  1  0  0  0  0
  2  3  2  0  0  0  0
  2 15  1  0  0  0  0
  3  4  1  0  0  0  0
  3 16  1  0  0  0  0
  4  5  2  0  0  0  0
  4  8  1  0  0  0  0
  5  6  1  0  0  0  0
  5 14  1  0  0  0  0
  6  7  1  0  0  0  0
  7  8  2  0  0  0  0
  7 10  1  0  0  0  0
  8  9  1  0  0  0  0
  9 17  1  0  0  0  0
  9 18  1  0  0  0  0
  9 19  1  0  0  0  0
 10 11  1  0  0  0  0
 10 20  1  0  0  0  0
 10 21  1  0  0  0  0
 11 12  1  0  0  0  0
 11 13  2  0  0  0  0
 14 15  2  0  0  0  0
 14 22  1  0  0  0  0
 15 23  1  0  0  0  0
M  CHG  1  12  -1
M  END
