3n46_ligand
 OpenBabel08222323343D

 36 38  0  0  1  0  0  0  0  0999 V2000
    3.0830   75.7430   25.5720 N   0  0  0  0  0  0  0  0  0  0  0  0
    4.5170   75.9630   25.5700 C   0  0  2  0  0  0  0  0  0  0  0  0
    4.6720   77.5460   25.6140 C   0  0  0  0  0  0  0  0  0  0  0  0
    3.2440   78.0220   25.4930 C   0  0  0  0  0  0  0  0  0  0  0  0
    2.4090   76.9370   25.4880 C   0  0  0  0  0  0  0  0  0  0  0  0
    1.0110   77.0570   25.4080 C   0  0  0  0  0  0  0  0  0  0  0  0
    0.4830   78.3590   25.3060 C   0  0  0  0  0  0  0  0  0  0  0  0
    1.3450   79.4820   25.2840 C   0  0  0  0  0  0  0  0  0  0  0  0
    2.7500   79.3250   25.3970 C   0  0  0  0  0  0  0  0  0  0  0  0
    5.0590   75.3700   24.2600 C   0  0  0  0  0  0  0  0  0  0  0  0
    4.3560   75.2270   23.2640 O   0  5  0  0  0  0  0  0  0  0  0  0
    6.3390   74.9980   24.2680 O   0  0  0  0  0  0  0  0  0  0  0  0
    2.5110   74.4910   25.6330 C   0  0  0  0  0  0  0  0  0  0  0  0
    1.3040   74.2760   25.5610 O   0  0  0  0  0  0  0  0  0  0  0  0
    3.4470   73.4980   25.7870 O   0  0  0  0  0  0  0  0  0  0  0  0
    2.8880   72.1790   25.9820 C   0  0  0  0  0  0  0  0  0  0  0  0
    4.0200   71.1640   25.8580 C   0  0  0  0  0  0  0  0  0  0  0  0
    5.1750   71.2790   26.6530 C   0  0  0  0  0  0  0  0  0  0  0  0
    6.2260   70.3560   26.5160 C   0  0  0  0  0  0  0  0  0  0  0  0
    6.1120   69.2980   25.5850 C   0  0  0  0  0  0  0  0  0  0  0  0
    4.9430   69.1650   24.7940 C   0  0  0  0  0  0  0  0  0  0  0  0
    3.9000   70.1090   24.9310 C   0  0  0  0  0  0  0  0  0  0  0  0
    5.0074   75.4948   26.4362 H   0  0  0  0  0  0  0  0  0  0  0  0
    5.2835   77.9083   24.7745 H   0  0  0  0  0  0  0  0  0  0  0  0
    5.1207   77.8746   26.5631 H   0  0  0  0  0  0  0  0  0  0  0  0
    0.3668   76.1853   25.4241 H   0  0  0  0  0  0  0  0  0  0  0  0
   -0.5897   78.5020   25.2440 H   0  0  0  0  0  0  0  0  0  0  0  0
    0.9251   80.4759   25.1793 H   0  0  0  0  0  0  0  0  0  0  0  0
    3.4139   80.1819   25.4084 H   0  0  0  0  0  0  0  0  0  0  0  0
    2.1234   71.9807   25.2165 H   0  0  0  0  0  0  0  0  0  0  0  0
    2.4330   72.1104   26.9811 H   0  0  0  0  0  0  0  0  0  0  0  0
    5.2547   72.0837   27.3750 H   0  0  0  0  0  0  0  0  0  0  0  0
    7.1198   70.4548   27.1213 H   0  0  0  0  0  0  0  0  0  0  0  0
    6.9217   68.5857   25.4756 H   0  0  0  0  0  0  0  0  0  0  0  0
    4.8499   68.3461   24.0899 H   0  0  0  0  0  0  0  0  0  0  0  0
    3.0071   70.0216   24.3227 H   0  0  0  0  0  0  0  0  0  0  0  0
  1  2  1  0  0  0  0
  1  5  1  0  0  0  0
  1 13  1  0  0  0  0
  2  3  1  0  0  0  0
  2 10  1  0  0  0  0
  2 23  1  1  0  0  0
  3  4  1  0  0  0  0
  3 24  1  0  0  0  0
  3 25  1  0  0  0  0
  4  5  2  0  0  0  0
  4  9  1  0  0  0  0
  5  6  1  0  0  0  0
  6  7  2  0  0  0  0
  6 26  1  0  0  0  0
  7  8  1  0  0  0  0
  7 27  1  0  0  0  0
  8  9  2  0  0  0  0
  8 28  1  0  0  0  0
  9 29  1  0  0  0  0
 10 11  1  0  0  0  0
 10 12  2  0  0  0  0
 13 14  2  0  0  0  0
 13 15  1  0  0  0  0
 15 16  1  0  0  0  0
 16 17  1  0  0  0  0
 16 30  1  0  0  0  0
 16 31  1  0  0  0  0
 17 18  2  0  0  0  0
 17 22  1  0  0  0  0
 18 19  1  0  0  0  0
 18 32  1  0  0  0  0
 19 20  2  0  0  0  0
 19 33  1  0  0  0  0
 20 21  1  0  0  0  0
 20 34  1  0  0  0  0
 21 22  2  0  0  0  0
 21 35  1  0  0  0  0
 22 36  1  0  0  0  0
M  CHG  1  11  -1
M  END
