3n49_ligand
 OpenBabel08222323343D

 26 28  0  0  0  0  0  0  0  0999 V2000
    1.1280   73.4230   27.9610 S   0  0  0  0  0  0  0  0  0  0  0  0
    1.6060   75.1050   28.1870 C   0  0  0  0  0  0  0  0  0  0  0  0
    2.9480   75.3290   28.5010 C   0  0  0  0  0  0  0  0  0  0  0  0
    3.4580   76.6330   28.6340 C   0  0  0  0  0  0  0  0  0  0  0  0
    2.5740   77.7330   28.4760 C   0  0  0  0  0  0  0  0  0  0  0  0
    1.2030   77.4970   28.1860 C   0  0  0  0  0  0  0  0  0  0  0  0
    0.7090   76.1710   28.0490 C   0  0  0  0  0  0  0  0  0  0  0  0
    3.0270   79.0540   28.5890 C   0  0  0  0  0  0  0  0  0  0  0  0
    4.3980   79.2850   28.8130 C   0  0  0  0  0  0  0  0  0  0  0  0
    5.2940   78.1970   28.9660 C   0  0  0  0  0  0  0  0  0  0  0  0
    4.8280   76.8850   28.9170 C   0  0  0  0  0  0  0  0  0  0  0  0
    3.6330   73.9920   28.6390 C   0  0  0  0  0  0  0  0  0  0  0  0
    2.8020   72.9540   28.4520 C   0  0  0  0  0  0  0  0  0  0  0  0
    5.1240   73.8530   28.9360 C   0  0  0  0  0  0  0  0  0  0  0  0
    5.8750   73.7820   27.5080 C   0  0  0  0  0  0  0  0  0  0  0  0
    6.3300   72.7430   27.0830 O   0  5  0  0  0  0  0  0  0  0  0  0
    6.0310   74.8590   26.7330 O   0  0  0  0  0  0  0  0  0  0  0  0
    0.5272   78.3363   28.0681 H   0  0  0  0  0  0  0  0  0  0  0  0
   -0.3395   75.9893   27.8422 H   0  0  0  0  0  0  0  0  0  0  0  0
    2.3343   79.8836   28.5055 H   0  0  0  0  0  0  0  0  0  0  0  0
    4.7707   80.3014   28.8688 H   0  0  0  0  0  0  0  0  0  0  0  0
    6.3496   78.3874   29.1223 H   0  0  0  0  0  0  0  0  0  0  0  0
    5.5077   76.0593   29.0940 H   0  0  0  0  0  0  0  0  0  0  0  0
    3.1107   71.9182   28.5849 H   0  0  0  0  0  0  0  0  0  0  0  0
    5.3125   72.9337   29.5099 H   0  0  0  0  0  0  0  0  0  0  0  0
    5.4795   74.7222   29.5088 H   0  0  0  0  0  0  0  0  0  0  0  0
  1  2  1  0  0  0  0
  1 13  1  0  0  0  0
  2  3  2  0  0  0  0
  2  7  1  0  0  0  0
  3  4  1  0  0  0  0
  3 12  1  0  0  0  0
  4  5  2  0  0  0  0
  4 11  1  0  0  0  0
  5  6  1  0  0  0  0
  5  8  1  0  0  0  0
  6  7  2  0  0  0  0
  6 18  1  0  0  0  0
  7 19  1  0  0  0  0
  8  9  2  0  0  0  0
  8 20  1  0  0  0  0
  9 10  1  0  0  0  0
  9 21  1  0  0  0  0
 10 11  2  0  0  0  0
 10 22  1  0  0  0  0
 11 23  1  0  0  0  0
 12 13  2  0  0  0  0
 12 14  1  0  0  0  0
 13 24  1  0  0  0  0
 14 15  1  0  0  0  0
 14 25  1  0  0  0  0
 14 26  1  0  0  0  0
 15 16  1  0  0  0  0
 15 17  2  0  0  0  0
M  CHG  1  16  -1
M  END
