3n5e_ligand
 OpenBabel08222323343D

142142  0  0  1  0  0  0  0  0999 V2000
  -39.2260    5.1120   21.7250 N   0  3  0  0  0  0  0  0  0  0  0  0
  -39.3890    6.2540   20.7790 C   0  0  2  0  0  0  0  0  0  0  0  0
  -38.4500    5.9840   19.5980 C   0  0  0  0  0  0  0  0  0  0  0  0
  -37.5220    6.7470   19.3520 O   0  0  0  0  0  0  0  0  0  0  0  0
  -39.0820    7.5830   21.5100 C   0  0  0  0  0  0  0  0  0  0  0  0
  -38.6170    8.9000   20.8690 C   0  0  0  0  0  0  0  0  0  0  0  0
  -39.7370    9.9080   20.7440 C   0  0  0  0  0  0  0  0  0  0  0  0
  -37.4980    9.5200   21.7000 C   0  0  0  0  0  0  0  0  0  0  0  0
  -38.7220    4.9010   18.8590 N   0  0  0  0  0  0  0  0  0  0  0  0
  -37.6820    4.1830   18.0890 C   0  0  2  0  0  0  0  0  0  0  0  0
  -38.1010    3.5430   16.7640 C   0  0  0  0  0  0  0  0  0  0  0  0
  -39.2850    3.5510   16.4280 O   0  0  0  0  0  0  0  0  0  0  0  0
  -37.1220    3.0590   18.9760 C   0  0  0  0  0  0  0  0  0  0  0  0
  -38.1520    2.2740   19.5320 O   0  0  0  0  0  0  0  0  0  0  0  0
  -37.1060    2.9910   16.0420 N   0  0  0  0  0  0  0  0  0  0  0  0
  -37.2830    1.8380   15.1190 C   0  0  2  0  0  0  0  0  0  0  0  0
  -36.4160    1.6150   13.8550 C   0  0  0  0  0  0  0  0  0  0  0  0
  -35.9400    2.5530   13.1970 O   0  0  0  0  0  0  0  0  0  0  0  0
  -38.7440    1.4950   14.8380 C   0  0  0  0  0  0  0  0  0  0  0  0
  -39.5470    0.8500   16.2890 S   0  0  0  0  0  0  0  0  0  0  0  0
  -36.2170    0.3210   13.5900 N   0  0  0  0  0  0  0  0  0  0  0  0
  -35.5340   -0.2650   12.4190 C   0  0  2  0  0  0  0  0  0  0  0  0
  -34.0020   -0.3730   12.3430 C   0  0  0  0  0  0  0  0  0  0  0  0
  -33.3010    0.6330   12.2580 O   0  0  0  0  0  0  0  0  0  0  0  0
  -36.0890    0.2420   11.0910 C   0  0  0  0  0  0  0  0  0  0  0  0
  -35.9460   -0.7900    9.9940 C   0  0  0  0  0  0  0  0  0  0  0  0
  -36.0890   -2.2320   10.4870 C   0  0  0  0  0  0  0  0  0  0  0  0
  -35.0930   -2.9380   10.6950 O   0  0  0  0  0  0  0  0  0  0  0  0
  -37.3290   -2.6690   10.6770 N   0  0  0  0  0  0  0  0  0  0  0  0
  -33.5370   -1.6240   12.3040 N   0  0  0  0  0  0  0  0  0  0  0  0
  -32.1480   -2.0620   12.5680 C   0  0  2  0  0  0  0  0  0  0  0  0
  -30.9520   -1.1000   12.6810 C   0  0  0  0  0  0  0  0  0  0  0  0
  -30.9180   -0.0260   12.0740 O   0  0  0  0  0  0  0  0  0  0  0  0
  -31.7880   -3.2840   11.7080 C   0  0  0  0  0  0  0  0  0  0  0  0
  -31.8580   -4.6910   12.3360 C   0  0  0  0  0  0  0  0  0  0  0  0
  -30.6310   -5.0200   13.1970 C   0  0  0  0  0  0  0  0  0  0  0  0
  -33.1540   -4.9650   13.1050 C   0  0  0  0  0  0  0  0  0  0  0  0
  -29.9560   -1.5760   13.4350 N   0  0  0  0  0  0  0  0  0  0  0  0
  -28.8500   -0.7960   14.0250 C   0  0  2  0  0  0  0  0  0  0  0  0
  -28.2520    0.3630   13.2220 C   0  0  0  0  0  0  0  0  0  0  0  0
  -28.0000    1.4310   13.7860 O   0  0  0  0  0  0  0  0  0  0  0  0
  -27.7500   -1.7370   14.5600 C   0  0  0  0  0  0  0  0  0  0  0  0
  -26.9470   -2.4800   13.5090 C   0  0  0  0  0  0  0  0  0  0  0  0
  -25.5920   -2.1930   13.3130 C   0  0  0  0  0  0  0  0  0  0  0  0
  -27.5280   -3.4800   12.7240 C   0  0  0  0  0  0  0  0  0  0  0  0
  -24.8390   -2.8730   12.3560 C   0  0  0  0  0  0  0  0  0  0  0  0
  -26.7840   -4.1650   11.7610 C   0  0  0  0  0  0  0  0  0  0  0  0
  -25.4430   -3.8540   11.5850 C   0  0  0  0  0  0  0  0  0  0  0  0
  -24.7020   -4.5220   10.6410 O   0  0  0  0  0  0  0  0  0  0  0  0
  -28.0150    0.1680   11.9280 N   0  0  0  0  0  0  0  0  0  0  0  0
  -27.6470    1.3010   11.0840 C   0  0  2  0  0  0  0  0  0  0  0  0
  -28.9170    2.0940   10.7750 C   0  0  0  0  0  0  0  0  0  0  0  0
  -29.6210    1.8100    9.8000 O   0  0  0  0  0  0  0  0  0  0  0  0
  -26.9090    0.8550    9.8090 C   0  0  0  0  0  0  0  0  0  0  0  0
  -26.4900    2.0040    8.8610 C   0  0  0  0  0  0  0  0  0  0  0  0
  -26.0180    3.2630    9.5900 C   0  0  0  0  0  0  0  0  0  0  0  0
  -26.7520    4.2490    9.6840 O   0  0  0  0  0  0  0  0  0  0  0  0
  -24.7970    3.2270   10.1160 N   0  0  0  0  0  0  0  0  0  0  0  0
  -29.2070    3.0710   11.6410 N   0  0  0  0  0  0  0  0  0  0  0  0
  -30.4330    3.8850   11.5720 C   0  0  2  0  0  0  0  0  0  0  0  0
  -31.6970    3.0160   11.6120 C   0  0  0  0  0  0  0  0  0  0  0  0
  -32.7954    3.4705   12.0298 O   0  5  0  0  0  0  0  0  0  0  0  0
  -30.4210    4.7710   10.3220 C   0  0  0  0  0  0  0  0  0  0  0  0
  -31.5490    5.7950   10.2480 C   0  0  0  0  0  0  0  0  0  0  0  0
  -31.8880    6.1400    8.8090 C   0  0  0  0  0  0  0  0  0  0  0  0
  -30.7000    6.3700    7.9910 N   0  0  0  0  0  0  0  0  0  0  0  0
  -30.7260    6.6950    6.7000 C   0  0  0  0  0  3  0  0  0  0  0  0
  -31.8830    6.8340    6.0590 N   0  0  0  0  0  0  0  0  0  0  0  0
  -29.5880    6.8860    6.0460 N   0  0  0  0  0  0  0  0  0  0  0  0
  -31.6352    1.8207   11.2182 O   0  0  0  0  0  0  0  0  0  0  0  0
  -39.8281    5.2474   22.5220 H   0  0  0  0  0  0  0  0  0  0  0  0
  -38.2672    5.0646   22.0325 H   0  0  0  0  0  0  0  0  0  0  0  0
  -39.4726    4.2525   21.2598 H   0  0  0  0  0  0  0  0  0  0  0  0
  -40.4257    6.2890   20.4129 H   0  0  0  0  0  0  0  0  0  0  0  0
  -38.3001    7.3312   22.2415 H   0  0  0  0  0  0  0  0  0  0  0  0
  -40.0117    7.8374   22.0400 H   0  0  0  0  0  0  0  0  0  0  0  0
  -38.2340    8.6764   19.8624 H   0  0  0  0  0  0  0  0  0  0  0  0
  -39.3518   10.8285   20.2811 H   0  0  0  0  0  0  0  0  0  0  0  0
  -40.1356   10.1390   21.7429 H   0  0  0  0  0  0  0  0  0  0  0  0
  -40.5383    9.4899   20.1171 H   0  0  0  0  0  0  0  0  0  0  0  0
  -36.6736    8.7988   21.8010 H   0  0  0  0  0  0  0  0  0  0  0  0
  -37.8825    9.7793   22.6974 H   0  0  0  0  0  0  0  0  0  0  0  0
  -37.1309   10.4288   21.2008 H   0  0  0  0  0  0  0  0  0  0  0  0
  -39.6632    4.5648   18.8262 H   0  0  0  0  0  0  0  0  0  0  0  0
  -36.8825    4.9055   17.8680 H   0  0  0  0  0  0  0  0  0  0  0  0
  -36.5350    3.5068   19.7914 H   0  0  0  0  0  0  0  0  0  0  0  0
  -36.4713    2.4144   18.3669 H   0  0  0  0  0  0  0  0  0  0  0  0
  -38.7155    2.8236   20.0639 H   0  0  0  0  0  0  0  0  0  0  0  0
  -36.1899    3.3816   16.1325 H   0  0  0  0  0  0  0  0  0  0  0  0
  -36.9481    1.0089   15.7596 H   0  0  0  0  0  0  0  0  0  0  0  0
  -38.7877    0.7403   14.0389 H   0  0  0  0  0  0  0  0  0  0  0  0
  -39.2695    2.4048   14.5122 H   0  0  0  0  0  0  0  0  0  0  0  0
  -40.5074    0.6337   16.0720 H   0  0  0  0  0  0  0  0  0  0  0  0
  -36.5722   -0.3271   14.2637 H   0  0  0  0  0  0  0  0  0  0  0  0
  -35.8502   -1.3175   12.4670 H   0  0  0  0  0  0  0  0  0  0  0  0
  -35.5415    1.1504   10.7993 H   0  0  0  0  0  0  0  0  0  0  0  0
  -37.1550    0.4814   11.2183 H   0  0  0  0  0  0  0  0  0  0  0  0
  -34.9522   -0.6759    9.5365 H   0  0  0  0  0  0  0  0  0  0  0  0
  -36.7218   -0.6028    9.2370 H   0  0  0  0  0  0  0  0  0  0  0  0
  -37.4863   -3.6028   10.9984 H   0  0  0  0  0  0  0  0  0  0  0  0
  -38.1051   -2.0642   10.4986 H   0  0  0  0  0  0  0  0  0  0  0  0
  -34.1959   -2.3397   12.0723 H   0  0  0  0  0  0  0  0  0  0  0  0
  -32.2226   -2.4560   13.5923 H   0  0  0  0  0  0  0  0  0  0  0  0
  -30.7551   -3.1386   11.3588 H   0  0  0  0  0  0  0  0  0  0  0  0
  -32.4704   -3.2825   10.8453 H   0  0  0  0  0  0  0  0  0  0  0  0
  -31.8456   -5.3974   11.4929 H   0  0  0  0  0  0  0  0  0  0  0  0
  -30.7377   -6.0314   13.6161 H   0  0  0  0  0  0  0  0  0  0  0  0
  -30.5515   -4.2902   14.0162 H   0  0  0  0  0  0  0  0  0  0  0  0
  -29.7243   -4.9743   12.5759 H   0  0  0  0  0  0  0  0  0  0  0  0
  -34.0169   -4.7218   12.4676 H   0  0  0  0  0  0  0  0  0  0  0  0
  -33.1810   -4.3427   14.0117 H   0  0  0  0  0  0  0  0  0  0  0  0
  -33.1949   -6.0272   13.3879 H   0  0  0  0  0  0  0  0  0  0  0  0
  -29.9605   -2.5592   13.6178 H   0  0  0  0  0  0  0  0  0  0  0  0
  -29.2933   -0.3147   14.9092 H   0  0  0  0  0  0  0  0  0  0  0  0
  -28.2312   -2.4846   15.2077 H   0  0  0  0  0  0  0  0  0  0  0  0
  -27.0494   -1.1329   15.1551 H   0  0  0  0  0  0  0  0  0  0  0  0
  -25.1181   -1.4273   13.9165 H   0  0  0  0  0  0  0  0  0  0  0  0
  -28.5738   -3.7280   12.8651 H   0  0  0  0  0  0  0  0  0  0  0  0
  -23.7904   -2.6364   12.2163 H   0  0  0  0  0  0  0  0  0  0  0  0
  -27.2504   -4.9338   11.1556 H   0  0  0  0  0  0  0  0  0  0  0  0
  -23.8111   -4.1924   10.6480 H   0  0  0  0  0  0  0  0  0  0  0  0
  -28.0884   -0.7489   11.5356 H   0  0  0  0  0  0  0  0  0  0  0  0
  -26.9642    1.9497   11.6523 H   0  0  0  0  0  0  0  0  0  0  0  0
  -27.5710    0.1764    9.2511 H   0  0  0  0  0  0  0  0  0  0  0  0
  -26.0004    0.3140   10.1120 H   0  0  0  0  0  0  0  0  0  0  0  0
  -27.3541    2.2694    8.2342 H   0  0  0  0  0  0  0  0  0  0  0  0
  -25.6698    1.6450    8.2219 H   0  0  0  0  0  0  0  0  0  0  0  0
  -24.4389    4.0233   10.6035 H   0  0  0  0  0  0  0  0  0  0  0  0
  -24.2370    2.4036   10.0240 H   0  0  0  0  0  0  0  0  0  0  0  0
  -28.5556    3.2594   12.3760 H   0  0  0  0  0  0  0  0  0  0  0  0
  -30.4501    4.5422   12.4539 H   0  0  0  0  0  0  0  0  0  0  0  0
  -30.4944    4.1179    9.4399 H   0  0  0  0  0  0  0  0  0  0  0  0
  -29.4648    5.3141   10.2976 H   0  0  0  0  0  0  0  0  0  0  0  0
  -31.2367    6.7105   10.7718 H   0  0  0  0  0  0  0  0  0  0  0  0
  -32.4426    5.3796   10.7368 H   0  0  0  0  0  0  0  0  0  0  0  0
  -32.5030    7.0520    8.8010 H   0  0  0  0  0  0  0  0  0  0  0  0
  -32.4602    5.3080    8.3728 H   0  0  0  0  0  0  0  0  0  0  0  0
  -29.7797    6.2743    8.4435 H   0  0  0  0  0  0  0  0  0  0  0  0
  -31.8914    7.0857    5.0603 H   0  0  0  0  0  0  0  0  0  0  0  0
  -32.7706    6.6900    6.5613 H   0  0  0  0  0  0  0  0  0  0  0  0
  -28.6883    6.7800    6.5361 H   0  0  0  0  0  0  0  0  0  0  0  0
  -29.6040    7.1403    5.0480 H   0  0  0  0  0  0  0  0  0  0  0  0
  1  2  1  0  0  0  0
  1 71  1  0  0  0  0
  1 72  1  0  0  0  0
  1 73  1  0  0  0  0
  2  3  1  0  0  0  0
  2  5  1  0  0  0  0
  2 74  1  6  0  0  0
  3  4  2  0  0  0  0
  3  9  1  0  0  0  0
  5  6  1  0  0  0  0
  5 75  1  0  0  0  0
  5 76  1  0  0  0  0
  6  7  1  0  0  0  0
  6  8  1  0  0  0  0
  6 77  1  0  0  0  0
  7 78  1  0  0  0  0
  7 79  1  0  0  0  0
  7 80  1  0  0  0  0
  8 81  1  0  0  0  0
  8 82  1  0  0  0  0
  8 83  1  0  0  0  0
  9 10  1  0  0  0  0
  9 84  1  0  0  0  0
 10 11  1  0  0  0  0
 10 13  1  0  0  0  0
 10 85  1  6  0  0  0
 11 12  2  0  0  0  0
 11 15  1  0  0  0  0
 13 14  1  0  0  0  0
 13 86  1  0  0  0  0
 13 87  1  0  0  0  0
 14 88  1  0  0  0  0
 15 16  1  0  0  0  0
 15 89  1  0  0  0  0
 16 17  1  0  0  0  0
 16 19  1  0  0  0  0
 16 90  1  1  0  0  0
 17 18  2  0  0  0  0
 17 21  1  0  0  0  0
 19 20  1  0  0  0  0
 19 91  1  0  0  0  0
 19 92  1  0  0  0  0
 20 93  1  0  0  0  0
 21 22  1  0  0  0  0
 21 94  1  0  0  0  0
 22 23  1  0  0  0  0
 22 25  1  0  0  0  0
 22 95  1  1  0  0  0
 23 24  2  0  0  0  0
 23 30  1  0  0  0  0
 25 26  1  0  0  0  0
 25 96  1  0  0  0  0
 25 97  1  0  0  0  0
 26 27  1  0  0  0  0
 26 98  1  0  0  0  0
 26 99  1  0  0  0  0
 27 28  2  0  0  0  0
 27 29  1  0  0  0  0
 29100  1  0  0  0  0
 29101  1  0  0  0  0
 30 31  1  0  0  0  0
 30102  1  0  0  0  0
 31 32  1  0  0  0  0
 31 34  1  0  0  0  0
 31103  1  1  0  0  0
 32 33  2  0  0  0  0
 32 38  1  0  0  0  0
 34 35  1  0  0  0  0
 34104  1  0  0  0  0
 34105  1  0  0  0  0
 35 36  1  0  0  0  0
 35 37  1  0  0  0  0
 35106  1  0  0  0  0
 36107  1  0  0  0  0
 36108  1  0  0  0  0
 36109  1  0  0  0  0
 37110  1  0  0  0  0
 37111  1  0  0  0  0
 37112  1  0  0  0  0
 38 39  1  0  0  0  0
 38113  1  0  0  0  0
 39 40  1  0  0  0  0
 39 42  1  0  0  0  0
 39114  1  1  0  0  0
 40 41  2  0  0  0  0
 40 50  1  0  0  0  0
 42 43  1  0  0  0  0
 42115  1  0  0  0  0
 42116  1  0  0  0  0
 43 44  2  0  0  0  0
 43 45  1  0  0  0  0
 44 46  1  0  0  0  0
 44117  1  0  0  0  0
 45 47  2  0  0  0  0
 45118  1  0  0  0  0
 46 48  2  0  0  0  0
 46119  1  0  0  0  0
 47 48  1  0  0  0  0
 47120  1  0  0  0  0
 48 49  1  0  0  0  0
 49121  1  0  0  0  0
 50 51  1  0  0  0  0
 50122  1  0  0  0  0
 51 52  1  0  0  0  0
 51 54  1  0  0  0  0
 51123  1  1  0  0  0
 52 53  2  0  0  0  0
 52 59  1  0  0  0  0
 54 55  1  0  0  0  0
 54124  1  0  0  0  0
 54125  1  0  0  0  0
 55 56  1  0  0  0  0
 55126  1  0  0  0  0
 55127  1  0  0  0  0
 56 57  2  0  0  0  0
 56 58  1  0  0  0  0
 58128  1  0  0  0  0
 58129  1  0  0  0  0
 59 60  1  0  0  0  0
 59130  1  0  0  0  0
 60 61  1  0  0  0  0
 60 63  1  0  0  0  0
 60131  1  1  0  0  0
 61 62  1  0  0  0  0
 61 70  2  0  0  0  0
 63 64  1  0  0  0  0
 63132  1  0  0  0  0
 63133  1  0  0  0  0
 64 65  1  0  0  0  0
 64134  1  0  0  0  0
 64135  1  0  0  0  0
 65 66  1  0  0  0  0
 65136  1  0  0  0  0
 65137  1  0  0  0  0
 66 67  1  0  0  0  0
 66138  1  0  0  0  0
 67 68  1  0  0  0  0
 67 69  1  0  0  0  0
 68139  1  0  0  0  0
 68140  1  0  0  0  0
 69141  1  0  0  0  0
 69142  1  0  0  0  0
M  CHG  2   1   1  62  -1
M  END
