3n5u_ligand
 OpenBabel08222323343D

141141  0  0  1  0  0  0  0  0999 V2000
   10.7310   23.3040    7.9400 N   0  3  0  0  0  0  0  0  0  0  0  0
   10.8360   22.2450    8.9270 C   0  0  2  0  0  0  0  0  0  0  0  0
   11.7360   21.0630    8.5220 C   0  0  0  0  0  0  0  0  0  0  0  0
   11.5330   19.9420    8.9720 O   0  0  0  0  0  0  0  0  0  0  0  0
    9.4430   21.7570    9.2800 C   0  0  0  0  0  0  0  0  0  0  0  0
    8.3910   22.8620    9.3620 C   0  0  0  0  0  0  0  0  0  0  0  0
    7.0610   22.3100    9.8900 C   0  0  0  0  0  0  0  0  0  0  0  0
    5.9900   23.3670    9.9660 C   0  0  0  0  0  0  0  0  0  0  0  0
    5.1140   23.1910   11.1540 N   0  3  0  0  0  0  0  0  0  0  0  0
   12.7240   21.3260    7.6760 N   0  0  0  0  0  0  0  0  0  0  0  0
   13.6880   20.3220    7.2740 C   0  0  2  0  0  0  0  0  0  0  0  0
   15.0290   20.9130    6.9580 C   0  0  0  0  0  0  0  0  0  0  0  0
   15.2500   22.0970    7.0790 O   0  0  0  0  0  0  0  0  0  0  0  0
   13.2590   19.5140    6.0650 C   0  0  0  0  0  0  0  0  0  0  0  0
   14.4170   18.6520    5.5360 C   0  0  0  0  0  0  0  0  0  0  0  0
   14.1450   18.0730    4.1560 C   0  0  0  0  0  0  0  0  0  0  0  0
   13.0420   16.9960    4.1800 C   0  0  0  0  0  0  0  0  0  0  0  0
   12.9770   16.1350    2.9540 N   0  3  0  0  0  0  0  0  0  0  0  0
   15.9270   20.0510    6.5220 N   0  0  0  0  0  0  0  0  0  0  0  0
   17.3570   20.3520    6.6130 C   0  0  2  0  0  0  0  0  0  0  0  0
   17.8960   21.3710    5.6120 C   0  0  0  0  0  0  0  0  0  0  0  0
   17.7870   21.1810    4.4010 O   0  0  0  0  0  0  0  0  0  0  0  0
   18.1800   19.0600    6.5290 C   0  0  0  0  0  0  0  0  0  0  0  0
   19.4360   19.0310    7.4100 C   0  0  0  0  0  0  0  0  0  0  0  0
   19.9690   17.6120    7.5550 C   0  0  0  0  0  0  0  0  0  0  0  0
   20.5220   19.9710    6.8950 C   0  0  0  0  0  0  0  0  0  0  0  0
   18.4970   22.4380    6.1390 N   0  0  0  0  0  0  0  0  0  0  0  0
   19.2120   23.4330    5.3310 C   0  0  2  0  0  0  0  0  0  0  0  0
   20.2070   24.2270    6.1740 C   0  0  0  0  0  0  0  0  0  0  0  0
   20.1860   24.1380    7.3980 O   0  0  0  0  0  0  0  0  0  0  0  0
   18.2450   24.3710    4.5980 C   0  0  0  0  0  0  0  0  0  0  0  0
   16.8090   24.3410    5.1060 C   0  0  0  0  0  0  0  0  0  0  0  0
   16.5420   25.3780    6.1750 C   0  0  0  0  0  0  0  0  0  0  0  0
   15.1810   25.2480    6.6800 N   0  0  0  0  0  0  0  0  0  0  0  0
   14.6140   26.0930    7.5310 C   0  0  0  0  0  3  0  0  0  0  0  0
   15.2910   27.1440    7.9770 N   0  0  0  0  0  0  0  0  0  0  0  0
   13.3660   25.8850    7.9320 N   0  0  0  0  0  0  0  0  0  0  0  0
   21.0670   25.0070    5.5200 N   0  0  0  0  0  0  0  0  0  0  0  0
   22.1900   25.6550    6.2070 C   0  0  2  0  0  0  0  0  0  0  0  0
   22.4980   27.1380    5.9930 C   0  0  0  0  0  0  0  0  0  0  0  0
   22.3210   27.6630    4.8990 O   0  0  0  0  0  0  0  0  0  0  0  0
   23.5210   25.2250    5.5790 C   0  0  0  0  0  0  0  0  0  0  0  0
   23.9190   23.8170    5.9220 C   0  0  0  0  0  0  0  0  0  0  0  0
   24.4060   23.5080    7.1870 C   0  0  0  0  0  0  0  0  0  0  0  0
   23.7960   22.7990    4.9910 C   0  0  0  0  0  0  0  0  0  0  0  0
   24.7680   22.2160    7.5120 C   0  0  0  0  0  0  0  0  0  0  0  0
   24.1570   21.5020    5.3120 C   0  0  0  0  0  0  0  0  0  0  0  0
   24.6420   21.2120    6.5750 C   0  0  0  0  0  0  0  0  0  0  0  0
   22.9630   27.8000    7.0530 N   0  0  0  0  0  0  0  0  0  0  0  0
   23.2120   29.2430    7.0400 C   0  0  2  0  0  0  0  0  0  0  0  0
   24.5560   29.8380    6.6020 C   0  0  0  0  0  0  0  0  0  0  0  0
   25.4840   29.1090    6.2460 O   0  0  0  0  0  0  0  0  0  0  0  0
   22.9480   29.5350    8.5210 C   0  0  0  0  0  0  0  0  0  0  0  0
   22.5970   30.9910    8.7860 C   0  0  0  0  0  0  0  0  0  0  0  0
   23.4820   31.8550    8.6170 O   0  5  0  0  0  0  0  0  0  0  0  0
   21.4470   31.2730    9.1940 O   0  0  0  0  0  0  0  0  0  0  0  0
   24.6440   31.1640    6.6160 N   0  0  0  0  0  0  0  0  0  0  0  0
   25.8600   31.8820    6.2290 C   0  0  2  0  0  0  0  0  0  0  0  0
   25.9260   33.2530    6.9070 C   0  0  0  0  0  0  0  0  0  0  0  0
   27.0010   33.7350    7.2690 O   0  5  0  0  0  0  0  0  0  0  0  0
   25.9510   32.0740    4.6920 C   0  0  2  0  0  0  0  0  0  0  0  0
   26.4270   30.7850    4.0100 C   0  0  0  0  0  0  0  0  0  0  0  0
   26.8820   33.2410    4.3460 C   0  0  0  0  0  0  0  0  0  0  0  0
   26.5790   30.9020    2.4860 C   0  0  0  0  0  0  0  0  0  0  0  0
   24.9060   33.9140    7.1100 O   0  0  0  0  0  0  0  0  0  0  0  0
   10.1257   24.0303    8.2896 H   0  0  0  0  0  0  0  0  0  0  0  0
   10.3486   22.9303    7.0855 H   0  0  0  0  0  0  0  0  0  0  0  0
   11.6457   23.6870    7.7595 H   0  0  0  0  0  0  0  0  0  0  0  0
   11.2801   22.6880    9.8306 H   0  0  0  0  0  0  0  0  0  0  0  0
    9.4915   21.2545   10.2573 H   0  0  0  0  0  0  0  0  0  0  0  0
    9.1258   21.0359    8.5123 H   0  0  0  0  0  0  0  0  0  0  0  0
    8.2331   23.2847    8.3588 H   0  0  0  0  0  0  0  0  0  0  0  0
    8.7486   23.6508   10.0402 H   0  0  0  0  0  0  0  0  0  0  0  0
    7.2240   21.8993   10.8973 H   0  0  0  0  0  0  0  0  0  0  0  0
    6.7194   21.5088    9.2182 H   0  0  0  0  0  0  0  0  0  0  0  0
    5.3716   23.3113    9.0580 H   0  0  0  0  0  0  0  0  0  0  0  0
    6.4701   24.3550   10.0227 H   0  0  0  0  0  0  0  0  0  0  0  0
    4.4143   23.9165   11.1659 H   0  0  0  0  0  0  0  0  0  0  0  0
    5.6701   23.2468   11.9928 H   0  0  0  0  0  0  0  0  0  0  0  0
    4.6635   22.2904   11.1088 H   0  0  0  0  0  0  0  0  0  0  0  0
   12.8060   22.2501    7.3027 H   0  0  0  0  0  0  0  0  0  0  0  0
   13.8058   19.6307    8.1215 H   0  0  0  0  0  0  0  0  0  0  0  0
   12.9313   20.2015    5.2713 H   0  0  0  0  0  0  0  0  0  0  0  0
   12.4235   18.8576    6.3496 H   0  0  0  0  0  0  0  0  0  0  0  0
   14.5847   17.8216    6.2376 H   0  0  0  0  0  0  0  0  0  0  0  0
   15.3218   19.2752    5.4824 H   0  0  0  0  0  0  0  0  0  0  0  0
   15.0720   17.6214    3.7729 H   0  0  0  0  0  0  0  0  0  0  0  0
   13.8299   18.8871    3.4867 H   0  0  0  0  0  0  0  0  0  0  0  0
   12.0720   17.5020    4.2945 H   0  0  0  0  0  0  0  0  0  0  0  0
   13.2198   16.3433    5.0474 H   0  0  0  0  0  0  0  0  0  0  0  0
   12.2325   15.4629    3.0545 H   0  0  0  0  0  0  0  0  0  0  0  0
   13.8532   15.6507    2.8366 H   0  0  0  0  0  0  0  0  0  0  0  0
   12.8015   16.7125    2.1467 H   0  0  0  0  0  0  0  0  0  0  0  0
   15.6282   19.1831    6.1253 H   0  0  0  0  0  0  0  0  0  0  0  0
   17.5180   20.7834    7.6120 H   0  0  0  0  0  0  0  0  0  0  0  0
   18.4936   18.9229    5.4836 H   0  0  0  0  0  0  0  0  0  0  0  0
   17.5328   18.2232    6.8305 H   0  0  0  0  0  0  0  0  0  0  0  0
   19.1442   19.3817    8.4109 H   0  0  0  0  0  0  0  0  0  0  0  0
   20.8673   17.6208    8.1899 H   0  0  0  0  0  0  0  0  0  0  0  0
   20.2255   17.2134    6.5624 H   0  0  0  0  0  0  0  0  0  0  0  0
   19.1993   16.9767    8.0176 H   0  0  0  0  0  0  0  0  0  0  0  0
   20.1121   20.9873    6.7993 H   0  0  0  0  0  0  0  0  0  0  0  0
   20.8723   19.6230    5.9121 H   0  0  0  0  0  0  0  0  0  0  0  0
   21.3644   19.9805    7.6023 H   0  0  0  0  0  0  0  0  0  0  0  0
   18.4589   22.5662    7.1300 H   0  0  0  0  0  0  0  0  0  0  0  0
   19.7853   22.8865    4.5677 H   0  0  0  0  0  0  0  0  0  0  0  0
   18.2366   24.0893    3.5347 H   0  0  0  0  0  0  0  0  0  0  0  0
   18.6222   25.3990    4.7020 H   0  0  0  0  0  0  0  0  0  0  0  0
   16.6054   23.3445    5.5248 H   0  0  0  0  0  0  0  0  0  0  0  0
   16.1328   24.5279    4.2588 H   0  0  0  0  0  0  0  0  0  0  0  0
   16.6754   26.3825    5.7470 H   0  0  0  0  0  0  0  0  0  0  0  0
   17.2512   25.2353    7.0036 H   0  0  0  0  0  0  0  0  0  0  0  0
   14.6221   24.4465    6.3544 H   0  0  0  0  0  0  0  0  0  0  0  0
   14.8488   27.7988    8.6377 H   0  0  0  0  0  0  0  0  0  0  0  0
   16.2585   27.3047    7.6624 H   0  0  0  0  0  0  0  0  0  0  0  0
   12.8427   25.0687    7.5845 H   0  0  0  0  0  0  0  0  0  0  0  0
   12.9208   26.5399    8.5907 H   0  0  0  0  0  0  0  0  0  0  0  0
   20.9442   25.1541    4.5385 H   0  0  0  0  0  0  0  0  0  0  0  0
   22.1121   25.4169    7.2781 H   0  0  0  0  0  0  0  0  0  0  0  0
   24.3091   25.9056    5.9334 H   0  0  0  0  0  0  0  0  0  0  0  0
   23.4319   25.3049    4.4855 H   0  0  0  0  0  0  0  0  0  0  0  0
   24.5028   24.2926    7.9286 H   0  0  0  0  0  0  0  0  0  0  0  0
   23.4132   23.0202    4.0012 H   0  0  0  0  0  0  0  0  0  0  0  0
   25.1503   21.9913    8.5012 H   0  0  0  0  0  0  0  0  0  0  0  0
   24.0598   20.7137    4.5743 H   0  0  0  0  0  0  0  0  0  0  0  0
   24.9228   20.1960    6.8279 H   0  0  0  0  0  0  0  0  0  0  0  0
   23.1496   27.2894    7.8924 H   0  0  0  0  0  0  0  0  0  0  0  0
   22.4482   29.7185    6.4071 H   0  0  0  0  0  0  0  0  0  0  0  0
   23.8519   29.2823    9.0947 H   0  0  0  0  0  0  0  0  0  0  0  0
   22.1114   28.9057    8.8587 H   0  0  0  0  0  0  0  0  0  0  0  0
   23.8459   31.6938    6.9030 H   0  0  0  0  0  0  0  0  0  0  0  0
   26.7253   31.2871    6.5566 H   0  0  0  0  0  0  0  0  0  0  0  0
   24.9454   32.3120    4.3150 H   0  0  0  0  0  0  0  0  0  0  0  0
   25.6969   29.9906    4.2245 H   0  0  0  0  0  0  0  0  0  0  0  0
   27.4037   30.5098    4.4345 H   0  0  0  0  0  0  0  0  0  0  0  0
   26.5249   34.1548    4.8434 H   0  0  0  0  0  0  0  0  0  0  0  0
   26.8880   33.3949    3.2568 H   0  0  0  0  0  0  0  0  0  0  0  0
   27.9014   33.0111    4.6895 H   0  0  0  0  0  0  0  0  0  0  0  0
   26.9219   29.9402    2.0768 H   0  0  0  0  0  0  0  0  0  0  0  0
   27.3154   31.6843    2.2499 H   0  0  0  0  0  0  0  0  0  0  0  0
   25.6086   31.1652    2.0398 H   0  0  0  0  0  0  0  0  0  0  0  0
  1  2  1  0  0  0  0
  1 66  1  0  0  0  0
  1 67  1  0  0  0  0
  1 68  1  0  0  0  0
  2  3  1  0  0  0  0
  2  5  1  0  0  0  0
  2 69  1  1  0  0  0
  3  4  2  0  0  0  0
  3 10  1  0  0  0  0
  5  6  1  0  0  0  0
  5 70  1  0  0  0  0
  5 71  1  0  0  0  0
  6  7  1  0  0  0  0
  6 72  1  0  0  0  0
  6 73  1  0  0  0  0
  7  8  1  0  0  0  0
  7 74  1  0  0  0  0
  7 75  1  0  0  0  0
  8  9  1  0  0  0  0
  8 76  1  0  0  0  0
  8 77  1  0  0  0  0
  9 78  1  0  0  0  0
  9 79  1  0  0  0  0
  9 80  1  0  0  0  0
 10 11  1  0  0  0  0
 10 81  1  0  0  0  0
 11 12  1  0  0  0  0
 11 14  1  0  0  0  0
 11 82  1  1  0  0  0
 12 13  2  0  0  0  0
 12 19  1  0  0  0  0
 14 15  1  0  0  0  0
 14 83  1  0  0  0  0
 14 84  1  0  0  0  0
 15 16  1  0  0  0  0
 15 85  1  0  0  0  0
 15 86  1  0  0  0  0
 16 17  1  0  0  0  0
 16 87  1  0  0  0  0
 16 88  1  0  0  0  0
 17 18  1  0  0  0  0
 17 89  1  0  0  0  0
 17 90  1  0  0  0  0
 18 91  1  0  0  0  0
 18 92  1  0  0  0  0
 18 93  1  0  0  0  0
 19 20  1  0  0  0  0
 19 94  1  0  0  0  0
 20 21  1  0  0  0  0
 20 23  1  0  0  0  0
 20 95  1  1  0  0  0
 21 22  2  0  0  0  0
 21 27  1  0  0  0  0
 23 24  1  0  0  0  0
 23 96  1  0  0  0  0
 23 97  1  0  0  0  0
 24 25  1  0  0  0  0
 24 26  1  0  0  0  0
 24 98  1  0  0  0  0
 25 99  1  0  0  0  0
 25100  1  0  0  0  0
 25101  1  0  0  0  0
 26102  1  0  0  0  0
 26103  1  0  0  0  0
 26104  1  0  0  0  0
 27 28  1  0  0  0  0
 27105  1  0  0  0  0
 28 29  1  0  0  0  0
 28 31  1  0  0  0  0
 28106  1  6  0  0  0
 29 30  2  0  0  0  0
 29 38  1  0  0  0  0
 31 32  1  0  0  0  0
 31107  1  0  0  0  0
 31108  1  0  0  0  0
 32 33  1  0  0  0  0
 32109  1  0  0  0  0
 32110  1  0  0  0  0
 33 34  1  0  0  0  0
 33111  1  0  0  0  0
 33112  1  0  0  0  0
 34 35  1  0  0  0  0
 34113  1  0  0  0  0
 35 36  1  0  0  0  0
 35 37  1  0  0  0  0
 36114  1  0  0  0  0
 36115  1  0  0  0  0
 37116  1  0  0  0  0
 37117  1  0  0  0  0
 38 39  1  0  0  0  0
 38118  1  0  0  0  0
 39 40  1  0  0  0  0
 39 42  1  0  0  0  0
 39119  1  1  0  0  0
 40 41  2  0  0  0  0
 40 49  1  0  0  0  0
 42 43  1  0  0  0  0
 42120  1  0  0  0  0
 42121  1  0  0  0  0
 43 44  2  0  0  0  0
 43 45  1  0  0  0  0
 44 46  1  0  0  0  0
 44122  1  0  0  0  0
 45 47  2  0  0  0  0
 45123  1  0  0  0  0
 46 48  2  0  0  0  0
 46124  1  0  0  0  0
 47 48  1  0  0  0  0
 47125  1  0  0  0  0
 48126  1  0  0  0  0
 49 50  1  0  0  0  0
 49127  1  0  0  0  0
 50 51  1  0  0  0  0
 50 53  1  0  0  0  0
 50128  1  6  0  0  0
 51 52  2  0  0  0  0
 51 57  1  0  0  0  0
 53 54  1  0  0  0  0
 53129  1  0  0  0  0
 53130  1  0  0  0  0
 54 55  1  0  0  0  0
 54 56  2  0  0  0  0
 57 58  1  0  0  0  0
 57131  1  0  0  0  0
 58 59  1  0  0  0  0
 58 61  1  0  0  0  0
 58132  1  1  0  0  0
 59 60  1  0  0  0  0
 59 65  2  0  0  0  0
 61 62  1  0  0  0  0
 61 63  1  0  0  0  0
 61133  1  6  0  0  0
 62 64  1  0  0  0  0
 62134  1  0  0  0  0
 62135  1  0  0  0  0
 63136  1  0  0  0  0
 63137  1  0  0  0  0
 63138  1  0  0  0  0
 64139  1  0  0  0  0
 64140  1  0  0  0  0
 64141  1  0  0  0  0
M  CHG  5   1   1   9   1  18   1  55  -1  60  -1
M  END
