3ncq_ligand
 OpenBabel08222323343D

 43 45  0  0  1  0  0  0  0  0999 V2000
   12.6330   14.5100   24.8590 P   0  0  0  0  0  0  0  0  0  0  0  0
   12.1840   13.4010   24.0560 O   0  0  0  0  0  1  0  0  0  0  0  0
   12.9100   14.0210   26.3130 O   0  0  0  0  0  1  0  0  0  0  0  0
   11.6790   15.5860   24.6960 O   0  0  0  0  0  0  0  0  0  0  0  0
   15.4690   14.3050   24.2170 P   0  0  1  0  0  0  0  0  0  0  0  0
   15.5600   13.0380   24.9960 O   0  0  0  0  0  1  0  0  0  0  0  0
   16.1000   14.3040   22.8730 O   0  0  0  0  0  0  0  0  0  0  0  0
   13.9890   14.8730   24.1030 O   0  0  0  0  0  0  0  0  0  0  0  0
   15.8770   16.0320   26.5240 P   0  0  2  0  0  0  0  0  0  0  0  0
   15.4080   14.8820   27.3350 O   0  0  0  0  0  1  0  0  0  0  0  0
   15.0780   17.2520   26.3910 O   0  0  0  0  0  0  0  0  0  0  0  0
   16.1710   15.5020   25.0970 O   0  0  0  0  0  0  0  0  0  0  0  0
   17.3180   16.4420   27.0180 O   0  0  0  0  0  0  0  0  0  0  0  0
   17.8670   17.7510   27.0560 C   0  0  0  0  0  0  0  0  0  0  0  0
   19.0610   17.7230   27.9770 C   0  0  1  0  0  0  0  0  0  0  0  0
   18.6980   17.2260   29.2830 O   0  0  0  0  0  0  0  0  0  0  0  0
   20.1530   16.7720   27.5140 C   0  0  1  0  0  0  0  0  0  0  0  0
   20.9530   17.3210   26.4040 O   0  0  0  0  0  0  0  0  0  0  0  0
   20.9520   16.5000   28.7510 C   0  0  1  0  0  0  0  0  0  0  0  0
   21.7360   17.6270   29.0740 O   0  0  0  0  0  0  0  0  0  0  0  0
   19.8470   16.4940   29.7890 C   0  0  2  0  0  0  0  0  0  0  0  0
   19.3640   15.1000   30.0350 N   0  0  0  0  0  0  0  0  0  0  0  0
   18.3240   14.4670   29.3650 C   0  0  0  0  0  0  0  0  0  0  0  0
   18.1250   13.2440   29.9370 N   0  0  0  0  0  0  0  0  0  0  0  0
   19.0750   13.0820   30.9300 C   0  0  0  0  0  0  0  0  0  0  0  0
   19.4020   12.0500   31.9180 C   0  0  0  0  0  0  0  0  0  0  0  0
   18.6860   10.8870   31.9240 N   0  0  0  0  0  0  0  0  0  0  0  0
   20.4060   12.3240   32.7810 N   0  0  0  0  0  0  0  0  0  0  0  0
   21.1060   13.4830   32.7780 C   0  0  0  0  0  0  0  0  0  0  0  0
   20.8320   14.4770   31.8900 N   0  0  0  0  0  0  0  0  0  0  0  0
   19.8450   14.2870   30.9760 C   0  0  0  0  0  0  0  0  0  0  0  0
   17.1174   18.4604   27.4365 H   0  0  0  0  0  0  0  0  0  0  0  0
   18.1802   18.0550   26.0463 H   0  0  0  0  0  0  0  0  0  0  0  0
   19.4637   18.7436   28.0558 H   0  0  0  0  0  0  0  0  0  0  0  0
   19.6971   15.8343   27.1633 H   0  0  0  0  0  0  0  0  0  0  0  0
   20.3855   17.4962   25.6626 H   0  0  0  0  0  0  0  0  0  0  0  0
   21.5412   15.5725   28.6999 H   0  0  0  0  0  0  0  0  0  0  0  0
   22.2394   17.4466   29.8591 H   0  0  0  0  0  0  0  0  0  0  0  0
   20.2135   16.9444   30.7232 H   0  0  0  0  0  0  0  0  0  0  0  0
   17.7633   14.8770   28.5263 H   0  0  0  0  0  0  0  0  0  0  0  0
   18.9034   10.1519   32.6119 H   0  0  0  0  0  0  0  0  0  0  0  0
   17.9286   10.7450   31.2406 H   0  0  0  0  0  0  0  0  0  0  0  0
   21.9029   13.6222   33.4995 H   0  0  0  0  0  0  0  0  0  0  0  0
  1  2  1  0  0  0  0
  1  3  1  0  0  0  0
  1  4  2  0  0  0  0
  5  6  1  1  0  0  0
  5  7  2  0  0  0  0
  5  8  1  0  0  0  0
  8  1  1  0  0  0  0
  9 10  1  1  0  0  0
  9 11  2  0  0  0  0
  9 12  1  0  0  0  0
  9 13  1  0  0  0  0
 12  5  1  0  0  0  0
 13 14  1  0  0  0  0
 14 15  1  0  0  0  0
 14 32  1  0  0  0  0
 14 33  1  0  0  0  0
 15 16  1  0  0  0  0
 15 17  1  0  0  0  0
 15 34  1  1  0  0  0
 16 21  1  0  0  0  0
 17 18  1  0  0  0  0
 17 19  1  0  0  0  0
 17 35  1  6  0  0  0
 18 36  1  0  0  0  0
 19 20  1  0  0  0  0
 19 21  1  0  0  0  0
 19 37  1  6  0  0  0
 20 38  1  0  0  0  0
 21 22  1  0  0  0  0
 21 39  1  1  0  0  0
 22 23  1  0  0  0  0
 22 31  1  0  0  0  0
 23 24  2  0  0  0  0
 23 40  1  0  0  0  0
 24 25  1  0  0  0  0
 25 26  2  0  0  0  0
 25 31  1  0  0  0  0
 26 27  1  0  0  0  0
 26 28  1  0  0  0  0
 27 41  1  0  0  0  0
 27 42  1  0  0  0  0
 28 29  2  0  0  0  0
 29 30  1  0  0  0  0
 29 43  1  0  0  0  0
 30 31  2  0  0  0  0
M  END
