3nf7_ligand
 OpenBabel08222323343D

 35 38  0  0  0  0  0  0  0  0999 V2000
    6.2140  -28.7590   -8.7220 C   0  0  0  0  0  0  0  0  0  0  0  0
    7.3450  -29.2110   -9.3560 C   0  0  0  0  0  0  0  0  0  0  0  0
    8.2900  -28.3370   -9.8450 C   0  0  0  0  0  0  0  0  0  0  0  0
    8.0220  -27.0070   -9.6490 C   0  0  0  0  0  0  0  0  0  0  0  0
    6.9010  -26.5350   -9.0230 C   0  0  0  0  0  0  0  0  0  0  0  0
    5.9610  -27.4150   -8.5420 C   0  0  0  0  0  0  0  0  0  0  0  0
    6.8880  -25.0620   -8.9930 C   0  0  0  0  0  0  0  0  0  0  0  0
    8.1970  -24.7470   -9.6650 C   0  0  0  0  0  0  0  0  0  0  0  0
    8.6630  -23.6260   -9.7760 O   0  0  0  0  0  0  0  0  0  0  0  0
    8.7950  -25.9440  -10.0450 N   0  0  0  0  0  0  0  0  0  0  0  0
    9.7240  -26.0660  -11.1230 C   0  0  0  0  0  0  0  0  0  0  0  0
   11.0130  -26.5570  -10.5780 C   0  0  0  0  0  0  0  0  0  0  0  0
   11.0930  -26.7750   -9.2020 C   0  0  0  0  0  0  0  0  0  0  0  0
   12.2530  -27.2570   -8.6350 C   0  0  0  0  0  0  0  0  0  0  0  0
   13.3160  -27.4880   -9.4830 C   0  0  0  0  0  0  0  0  0  0  0  0
   13.2200  -27.2590  -10.8250 C   0  0  0  0  0  0  0  0  0  0  0  0
   12.0860  -26.7930  -11.4270 C   0  0  0  0  0  0  0  0  0  0  0  0
   12.1100  -26.6030  -12.9200 C   0  0  0  0  0  0  0  0  0  0  0  0
   12.8590  -25.6980  -13.3460 O   0  5  0  0  0  0  0  0  0  0  0  0
   11.4520  -27.3380  -13.6910 O   0  0  0  0  0  0  0  0  0  0  0  0
   14.3770  -27.5770  -11.4840 O   0  0  0  0  0  0  0  0  0  0  0  0
   15.2190  -28.0880  -10.4480 C   0  0  0  0  0  0  0  0  0  0  0  0
   14.5820  -27.9750   -9.1500 O   0  0  0  0  0  0  0  0  0  0  0  0
    5.0930  -29.8990   -8.1100 Cl  0  0  0  0  0  0  0  0  0  0  0  0
    7.4970  -30.2778   -9.4740 H   0  0  0  0  0  0  0  0  0  0  0  0
    9.1859  -28.6779  -10.3511 H   0  0  0  0  0  0  0  0  0  0  0  0
    5.0624  -27.0688   -8.0442 H   0  0  0  0  0  0  0  0  0  0  0  0
    6.8614  -24.6796   -7.9620 H   0  0  0  0  0  0  0  0  0  0  0  0
    6.0364  -24.6544   -9.5574 H   0  0  0  0  0  0  0  0  0  0  0  0
    9.8716  -25.0853  -11.5989 H   0  0  0  0  0  0  0  0  0  0  0  0
    9.3390  -26.7799  -11.8660 H   0  0  0  0  0  0  0  0  0  0  0  0
   10.2354  -26.5634   -8.5737 H   0  0  0  0  0  0  0  0  0  0  0  0
   12.3267  -27.4461   -7.5702 H   0  0  0  0  0  0  0  0  0  0  0  0
   16.1598  -27.5181  -10.4366 H   0  0  0  0  0  0  0  0  0  0  0  0
   15.4344  -29.1475  -10.6507 H   0  0  0  0  0  0  0  0  0  0  0  0
  1  2  2  0  0  0  0
  1  6  1  0  0  0  0
  1 24  1  0  0  0  0
  2  3  1  0  0  0  0
  2 25  1  0  0  0  0
  3  4  2  0  0  0  0
  3 26  1  0  0  0  0
  4  5  1  0  0  0  0
  4 10  1  0  0  0  0
  5  6  2  0  0  0  0
  5  7  1  0  0  0  0
  6 27  1  0  0  0  0
  7  8  1  0  0  0  0
  7 28  1  0  0  0  0
  7 29  1  0  0  0  0
  8  9  2  0  0  0  0
  8 10  1  0  0  0  0
 10 11  1  0  0  0  0
 11 12  1  0  0  0  0
 11 30  1  0  0  0  0
 11 31  1  0  0  0  0
 12 13  2  0  0  0  0
 12 17  1  0  0  0  0
 13 14  1  0  0  0  0
 13 32  1  0  0  0  0
 14 15  2  0  0  0  0
 14 33  1  0  0  0  0
 15 16  1  0  0  0  0
 15 23  1  0  0  0  0
 16 17  2  0  0  0  0
 16 21  1  0  0  0  0
 17 18  1  0  0  0  0
 18 19  1  0  0  0  0
 18 20  2  0  0  0  0
 21 22  1  0  0  0  0
 22 23  1  0  0  0  0
 22 34  1  0  0  0  0
 22 35  1  0  0  0  0
M  CHG  1  19  -1
M  END
