3nf8_ligand
 OpenBabel08222323343D

 38 41  0  0  0  0  0  0  0  0999 V2000
    1.3240  -23.3490    7.6630 C   0  0  0  0  0  0  0  0  0  0  0  0
    1.4630  -24.0180    8.8680 C   0  0  0  0  0  0  0  0  0  0  0  0
    2.1820  -23.4660    9.9160 C   0  0  0  0  0  0  0  0  0  0  0  0
    2.7540  -22.2310    9.7040 C   0  0  0  0  0  0  0  0  0  0  0  0
    2.5890  -21.5690    8.5180 C   0  0  0  0  0  0  0  0  0  0  0  0
    1.8830  -22.1030    7.4670 C   0  0  0  0  0  0  0  0  0  0  0  0
    3.2590  -20.2510    8.5530 C   0  0  0  0  0  0  0  0  0  0  0  0
    3.7090  -20.1700    9.9950 C   0  0  0  0  0  0  0  0  0  0  0  0
    4.1520  -19.1520   10.5200 O   0  0  0  0  0  0  0  0  0  0  0  0
    3.5070  -21.4210   10.5670 N   0  0  0  0  0  0  0  0  0  0  0  0
    4.3140  -21.9150   11.6580 C   0  0  0  0  0  0  0  0  0  0  0  0
    5.6040  -22.5920   11.2480 C   0  0  0  0  0  0  0  0  0  0  0  0
    6.4330  -22.0860   10.2600 C   0  0  0  0  0  0  0  0  0  0  0  0
    7.6100  -22.7450    9.9060 C   0  0  0  0  0  0  0  0  0  0  0  0
    7.8980  -23.9290   10.6000 C   0  0  0  0  0  0  0  0  0  0  0  0
    7.0810  -24.4440   11.6070 C   0  0  0  0  0  0  0  0  0  0  0  0
    5.9220  -23.7570   11.9340 C   0  0  0  0  0  0  0  0  0  0  0  0
    4.9680  -24.2490   12.9880 C   0  0  0  0  0  0  0  0  0  0  0  0
    5.1800  -23.9590   14.1980 O   0  5  0  0  0  0  0  0  0  0  0  0
    3.9880  -24.9210   12.5430 O   0  0  0  0  0  0  0  0  0  0  0  0
    7.3820  -25.6120   12.3270 O   0  0  0  0  0  0  0  0  0  0  0  0
    8.2650  -26.4240   11.5350 C   0  0  0  0  0  0  0  0  0  0  0  0
    9.4540  -25.5970   11.2260 C   0  0  0  0  0  0  0  0  0  0  0  0
    9.0600  -24.5490   10.2490 O   0  0  0  0  0  0  0  0  0  0  0  0
    0.4330  -24.0500    6.3470 Cl  0  0  0  0  0  0  0  0  0  0  0  0
    1.0011  -24.9906    8.9933 H   0  0  0  0  0  0  0  0  0  0  0  0
    2.2897  -23.9839   10.8622 H   0  0  0  0  0  0  0  0  0  0  0  0
    1.7707  -21.5710    6.5292 H   0  0  0  0  0  0  0  0  0  0  0  0
    2.5590  -19.4393    8.3059 H   0  0  0  0  0  0  0  0  0  0  0  0
    4.1157  -20.2189    7.8638 H   0  0  0  0  0  0  0  0  0  0  0  0
    3.7131  -22.6417   12.2244 H   0  0  0  0  0  0  0  0  0  0  0  0
    4.5674  -21.0637   12.3069 H   0  0  0  0  0  0  0  0  0  0  0  0
    6.1631  -21.1654    9.7553 H   0  0  0  0  0  0  0  0  0  0  0  0
    8.2680  -22.3619    9.1345 H   0  0  0  0  0  0  0  0  0  0  0  0
    7.7646  -26.7287   10.6040 H   0  0  0  0  0  0  0  0  0  0  0  0
    8.5640  -27.3189   12.1004 H   0  0  0  0  0  0  0  0  0  0  0  0
   10.2433  -26.2293   10.7933 H   0  0  0  0  0  0  0  0  0  0  0  0
    9.8264  -25.1243   12.1468 H   0  0  0  0  0  0  0  0  0  0  0  0
  1  2  2  0  0  0  0
  1  6  1  0  0  0  0
  1 25  1  0  0  0  0
  2  3  1  0  0  0  0
  2 26  1  0  0  0  0
  3  4  2  0  0  0  0
  3 27  1  0  0  0  0
  4  5  1  0  0  0  0
  4 10  1  0  0  0  0
  5  6  2  0  0  0  0
  5  7  1  0  0  0  0
  6 28  1  0  0  0  0
  7  8  1  0  0  0  0
  7 29  1  0  0  0  0
  7 30  1  0  0  0  0
  8  9  2  0  0  0  0
  8 10  1  0  0  0  0
 10 11  1  0  0  0  0
 11 12  1  0  0  0  0
 11 31  1  0  0  0  0
 11 32  1  0  0  0  0
 12 13  2  0  0  0  0
 12 17  1  0  0  0  0
 13 14  1  0  0  0  0
 13 33  1  0  0  0  0
 14 15  2  0  0  0  0
 14 34  1  0  0  0  0
 15 16  1  0  0  0  0
 15 24  1  0  0  0  0
 16 17  2  0  0  0  0
 16 21  1  0  0  0  0
 17 18  1  0  0  0  0
 18 19  1  0  0  0  0
 18 20  2  0  0  0  0
 21 22  1  0  0  0  0
 22 23  1  0  0  0  0
 22 35  1  0  0  0  0
 22 36  1  0  0  0  0
 23 24  1  0  0  0  0
 23 37  1  0  0  0  0
 23 38  1  0  0  0  0
M  CHG  1  19  -1
M  END
