3nf9_ligand
 OpenBabel08222323343D

 35 38  0  0  0  0  0  0  0  0999 V2000
    5.1390  -28.4940   -8.6980 C   0  0  0  0  0  0  0  0  0  0  0  0
    6.2940  -29.1410   -9.1080 C   0  0  0  0  0  0  0  0  0  0  0  0
    7.4010  -28.4150   -9.4720 C   0  0  0  0  0  0  0  0  0  0  0  0
    7.3070  -27.0480   -9.4030 C   0  0  0  0  0  0  0  0  0  0  0  0
    6.1790  -26.3910   -8.9900 C   0  0  0  0  0  0  0  0  0  0  0  0
    5.0650  -27.1140   -8.6320 C   0  0  0  0  0  0  0  0  0  0  0  0
    6.3940  -24.9210   -9.0520 C   0  0  0  0  0  0  0  0  0  0  0  0
    7.8180  -24.8460   -9.5740 C   0  0  0  0  0  0  0  0  0  0  0  0
    8.4210  -23.8110   -9.8150 O   0  0  0  0  0  0  0  0  0  0  0  0
    8.2980  -26.1340   -9.7360 N   0  0  0  0  0  0  0  0  0  0  0  0
    9.6410  -26.5540  -10.0310 C   0  0  0  0  0  0  0  0  0  0  0  0
    9.9640  -26.6670  -11.4910 C   0  0  0  0  0  0  0  0  0  0  0  0
    8.9830  -26.9030  -12.4460 C   0  0  0  0  0  0  0  0  0  0  0  0
    9.2770  -27.0280  -13.8040 C   0  0  0  0  0  0  0  0  0  0  0  0
   10.5930  -26.9000  -14.2130 C   0  0  0  0  0  0  0  0  0  0  0  0
   11.5640  -26.6620  -13.2950 C   0  0  0  0  0  0  0  0  0  0  0  0
   11.2730  -26.5490  -11.9460 C   0  0  0  0  0  0  0  0  0  0  0  0
   12.4060  -26.3260  -11.0540 C   0  0  0  0  0  0  0  0  0  0  0  0
   13.3760  -25.7110  -11.5820 O   0  5  0  0  0  0  0  0  0  0  0  0
   12.2840  -26.8520   -9.8970 O   0  0  0  0  0  0  0  0  0  0  0  0
   12.8130  -26.5520  -13.8620 O   0  0  0  0  0  0  0  0  0  0  0  0
   12.4880  -26.5960  -15.2700 C   0  0  0  0  0  0  0  0  0  0  0  0
   11.1210  -26.9710  -15.5060 O   0  0  0  0  0  0  0  0  0  0  0  0
    6.4570  -30.8750   -9.1990 Cl  0  0  0  0  0  0  0  0  0  0  0  0
    4.2722  -29.0837   -8.4222 H   0  0  0  0  0  0  0  0  0  0  0  0
    8.3121  -28.9020   -9.8005 H   0  0  0  0  0  0  0  0  0  0  0  0
    4.1572  -26.6179   -8.3082 H   0  0  0  0  0  0  0  0  0  0  0  0
    6.3057  -24.4595   -8.0574 H   0  0  0  0  0  0  0  0  0  0  0  0
    5.6866  -24.4401   -9.7435 H   0  0  0  0  0  0  0  0  0  0  0  0
    9.7993  -27.5398   -9.5694 H   0  0  0  0  0  0  0  0  0  0  0  0
   10.3325  -25.8245   -9.5842 H   0  0  0  0  0  0  0  0  0  0  0  0
    7.9518  -26.9933  -12.1243 H   0  0  0  0  0  0  0  0  0  0  0  0
    8.4905  -27.2215  -14.5244 H   0  0  0  0  0  0  0  0  0  0  0  0
   13.1450  -27.3288  -15.7613 H   0  0  0  0  0  0  0  0  0  0  0  0
   12.6607  -25.5999  -15.7036 H   0  0  0  0  0  0  0  0  0  0  0  0
  1  2  2  0  0  0  0
  1  6  1  0  0  0  0
  1 25  1  0  0  0  0
  2  3  1  0  0  0  0
  2 24  1  0  0  0  0
  3  4  2  0  0  0  0
  3 26  1  0  0  0  0
  4  5  1  0  0  0  0
  4 10  1  0  0  0  0
  5  6  2  0  0  0  0
  5  7  1  0  0  0  0
  6 27  1  0  0  0  0
  7  8  1  0  0  0  0
  7 28  1  0  0  0  0
  7 29  1  0  0  0  0
  8  9  2  0  0  0  0
  8 10  1  0  0  0  0
 10 11  1  0  0  0  0
 11 12  1  0  0  0  0
 11 30  1  0  0  0  0
 11 31  1  0  0  0  0
 12 13  2  0  0  0  0
 12 17  1  0  0  0  0
 13 14  1  0  0  0  0
 13 32  1  0  0  0  0
 14 15  2  0  0  0  0
 14 33  1  0  0  0  0
 15 16  1  0  0  0  0
 15 23  1  0  0  0  0
 16 17  2  0  0  0  0
 16 21  1  0  0  0  0
 17 18  1  0  0  0  0
 18 19  1  0  0  0  0
 18 20  2  0  0  0  0
 21 22  1  0  0  0  0
 22 23  1  0  0  0  0
 22 34  1  0  0  0  0
 22 35  1  0  0  0  0
M  CHG  1  19  -1
M  END
