3nkx_ligand
 OpenBabel08222323343D

141142  0  0  1  0  0  0  0  0999 V2000
   53.2330  -10.4480   -5.0500 N   0  3  0  0  0  0  0  0  0  0  0  0
   53.0400   -9.4210   -3.9720 C   0  0  2  0  0  0  0  0  0  0  0  0
   53.1090   -9.9890   -2.5270 C   0  0  0  0  0  0  0  0  0  0  0  0
   52.3460  -10.8960   -2.1320 O   0  0  0  0  0  0  0  0  0  0  0  0
   51.7660   -8.6020   -4.2070 C   0  0  0  0  0  0  0  0  0  0  0  0
   52.0360   -7.2100   -4.8670 C   0  0  0  0  0  0  0  0  0  0  0  0
   51.9540   -6.0430   -3.8340 C   0  0  0  0  0  0  0  0  0  0  0  0
   50.5840   -5.8130   -3.3370 N   0  0  0  0  0  0  0  0  0  0  0  0
   50.2640   -5.4950   -2.0710 C   0  0  0  0  0  3  0  0  0  0  0  0
   51.2060   -5.3550   -1.1360 N   0  0  0  0  0  0  0  0  0  0  0  0
   48.9940   -5.3230   -1.7240 N   0  0  0  0  0  0  0  0  0  0  0  0
   54.0690   -9.4440   -1.7690 N   0  0  0  0  0  0  0  0  0  0  0  0
   54.3290   -9.8760   -0.4090 C   0  0  2  0  0  0  0  0  0  0  0  0
   53.2900   -9.2370    0.4630 C   0  0  0  0  0  0  0  0  0  0  0  0
   52.7280   -8.1950    0.1120 O   0  0  0  0  0  0  0  0  0  0  0  0
   55.6980   -9.3850    0.0300 C   0  0  0  0  0  0  0  0  0  0  0  0
   56.6260   -9.5980   -1.0130 O   0  0  0  0  0  0  0  0  0  0  0  0
   53.0600   -9.8480    1.6130 N   0  0  0  0  0  0  0  0  0  0  0  0
   52.0580   -9.3570    2.5050 C   0  0  2  0  0  0  0  0  0  0  0  0
   52.7080   -8.5330    3.5990 C   0  0  0  0  0  0  0  0  0  0  0  0
   53.6400   -8.9960    4.2770 O   0  0  0  0  0  0  0  0  0  0  0  0
   51.2710  -10.5200    3.0920 C   0  0  2  0  0  0  0  0  0  0  0  0
   50.8080  -11.3310    2.0130 O   0  0  0  0  0  0  0  0  0  0  0  0
   50.0420  -10.0380    3.8820 C   0  0  0  0  0  0  0  0  0  0  0  0
   52.1890   -7.3290    3.8110 N   0  0  0  0  0  0  0  0  0  0  0  0
   52.6290   -6.5460    4.9530 C   0  0  1  0  0  0  0  0  0  0  0  0
   52.8530   -5.1080    4.5140 C   0  0  0  0  0  0  0  0  0  0  0  0
   51.6660   -4.5880    3.9580 O   0  0  0  0  0  0  0  0  0  0  0  0
   51.6220   -6.6040    6.1050 C   0  0  0  0  0  0  0  0  0  0  0  0
   50.6200   -7.3020    6.0530 O   0  0  0  0  0  0  0  0  0  0  0  0
   51.7770   -3.1490    3.3560 P   0  0  0  0  0  0  0  0  0  0  0  0
   52.6050   -3.0720    2.0010 O   0  0  0  0  0  1  0  0  0  0  0  0
   52.3540   -2.0340    4.3080 O   0  0  0  0  0  1  0  0  0  0  0  0
   50.2760   -2.7570    2.9890 O   0  0  0  0  0  0  0  0  0  0  0  0
   51.9210   -5.8870    7.1650 N   0  0  0  0  0  0  0  0  0  0  0  0
   51.1320   -5.9040    8.3870 C   0  0  2  0  0  0  0  0  0  0  0  0
   49.7510   -5.3710    8.1380 C   0  0  0  0  0  0  0  0  0  0  0  0
   49.6300   -4.1630    7.8000 O   0  0  0  0  0  0  0  0  0  0  0  0
   51.8360   -5.0310    9.4470 C   0  0  2  0  0  0  0  0  0  0  0  0
   53.0530   -5.6900    9.7900 O   0  0  0  0  0  0  0  0  0  0  0  0
   51.1350   -5.0280   10.6660 C   0  0  0  0  0  0  0  0  0  0  0  0
   48.7050   -6.2140    8.3610 N   0  0  0  0  0  0  0  0  0  0  0  0
   47.3060   -5.7590    8.2000 C   0  0  2  0  0  0  0  0  0  0  0  0
   46.8460   -4.9180    9.3720 C   0  0  0  0  0  0  0  0  0  0  0  0
   47.4740   -4.9370   10.4110 O   0  0  0  0  0  0  0  0  0  0  0  0
   46.4940   -7.0520    8.2490 C   0  0  0  0  0  0  0  0  0  0  0  0
   47.3420   -7.9840    9.1680 C   0  0  0  0  0  0  0  0  0  0  0  0
   48.7930   -7.5660    8.9510 C   0  0  0  0  0  0  0  0  0  0  0  0
   45.7390   -4.2100    9.2240 N   0  0  0  0  0  0  0  0  0  0  0  0
   45.0490   -3.6620   10.3960 C   0  0  2  0  0  0  0  0  0  0  0  0
   44.7040   -4.7210   11.4500 C   0  0  0  0  0  0  0  0  0  0  0  0
   44.3470   -5.8420   11.0940 O   0  0  0  0  0  0  0  0  0  0  0  0
   43.7680   -3.0010    9.9470 C   0  0  0  0  0  0  0  0  0  0  0  0
   44.0250   -1.6870    9.2250 C   0  0  0  0  0  0  0  0  0  0  0  0
   44.8920   -0.9230    9.6170 O   0  0  0  0  0  0  0  0  0  0  0  0
   43.3180   -1.4500    8.1560 N   0  0  0  0  0  0  0  0  0  0  0  0
   44.7760   -4.3580   12.7370 N   0  0  0  0  0  0  0  0  0  0  0  0
   44.3370   -5.2810   13.8380 C   0  0  2  0  0  0  0  0  0  0  0  0
   42.8300   -5.7810   13.7530 C   0  0  0  0  0  0  0  0  0  0  0  0
   42.5910   -7.0060   13.9430 O   0  0  0  0  0  0  0  0  0  0  0  0
   44.8290   -4.8130   15.2890 C   0  0  0  0  0  0  0  0  0  0  0  0
   44.5750   -5.8760   16.3580 C   0  0  0  0  0  0  0  0  0  0  0  0
   46.3260   -4.4700   15.2820 C   0  0  0  0  0  0  0  0  0  0  0  0
   41.7950   -4.9370   13.5110 N   0  0  0  0  0  0  0  0  0  0  0  0
   41.6600   -3.4380   13.6710 C   0  0  2  0  0  0  0  0  0  0  0  0
   41.2940   -2.7150   12.3420 C   0  0  0  0  0  0  0  0  0  0  0  0
   40.1284   -2.7100   11.8636 O   0  5  0  0  0  0  0  0  0  0  0  0
   42.8770   -2.7920   14.3680 C   0  0  0  0  0  0  0  0  0  0  0  0
   42.6440   -1.3960   14.8760 C   0  0  0  0  0  0  0  0  0  0  0  0
   41.3800   -0.8680   15.0940 N   0  0  0  0  0  0  0  0  0  0  0  0
   43.5180   -0.4240   15.2350 C   0  0  0  0  0  0  0  0  0  0  0  0
   41.4870    0.3800   15.5340 C   0  0  0  0  0  0  0  0  0  0  0  0
   42.7740    0.6720   15.6290 N   0  0  0  0  0  0  0  0  0  0  0  0
   42.2039   -2.1076   11.7168 O   0  0  0  0  0  0  0  0  0  0  0  0
   53.1747  -10.0028   -5.9525 H   0  0  0  0  0  0  0  0  0  0  0  0
   52.5155  -11.1521   -4.9757 H   0  0  0  0  0  0  0  0  0  0  0  0
   54.1384  -10.8786   -4.9457 H   0  0  0  0  0  0  0  0  0  0  0  0
   53.8838   -8.7212   -4.0625 H   0  0  0  0  0  0  0  0  0  0  0  0
   51.2727   -8.4385   -3.2375 H   0  0  0  0  0  0  0  0  0  0  0  0
   51.0984   -9.1767   -4.8658 H   0  0  0  0  0  0  0  0  0  0  0  0
   51.2868   -7.0397   -5.6542 H   0  0  0  0  0  0  0  0  0  0  0  0
   53.0414   -7.2183   -5.3132 H   0  0  0  0  0  0  0  0  0  0  0  0
   52.3120   -5.1214   -4.3161 H   0  0  0  0  0  0  0  0  0  0  0  0
   52.6019   -6.2849   -2.9786 H   0  0  0  0  0  0  0  0  0  0  0  0
   49.8124   -5.9032   -4.0133 H   0  0  0  0  0  0  0  0  0  0  0  0
   50.9415   -5.1109   -0.1709 H   0  0  0  0  0  0  0  0  0  0  0  0
   52.1975   -5.4910   -1.3795 H   0  0  0  0  0  0  0  0  0  0  0  0
   48.2493   -5.4258   -2.4281 H   0  0  0  0  0  0  0  0  0  0  0  0
   48.7535   -5.0868   -0.7507 H   0  0  0  0  0  0  0  0  0  0  0  0
   54.6283   -8.7107   -2.1556 H   0  0  0  0  0  0  0  0  0  0  0  0
   54.2773  -10.9724   -0.3364 H   0  0  0  0  0  0  0  0  0  0  0  0
   56.0176   -9.9388    0.9251 H   0  0  0  0  0  0  0  0  0  0  0  0
   55.6463   -8.3111    0.2623 H   0  0  0  0  0  0  0  0  0  0  0  0
   56.3482   -9.1194   -1.7852 H   0  0  0  0  0  0  0  0  0  0  0  0
   53.5908  -10.6588    1.8598 H   0  0  0  0  0  0  0  0  0  0  0  0
   51.3658   -8.7127    1.9431 H   0  0  0  0  0  0  0  0  0  0  0  0
   51.9249  -11.1063    3.7543 H   0  0  0  0  0  0  0  0  0  0  0  0
   51.5524  -11.6547    1.5195 H   0  0  0  0  0  0  0  0  0  0  0  0
   49.5032  -10.9069    4.2879 H   0  0  0  0  0  0  0  0  0  0  0  0
   49.3755   -9.4725    3.2142 H   0  0  0  0  0  0  0  0  0  0  0  0
   50.3685   -9.3901    4.7088 H   0  0  0  0  0  0  0  0  0  0  0  0
   51.4983   -6.9630    3.1873 H   0  0  0  0  0  0  0  0  0  0  0  0
   53.5838   -6.9586    5.3109 H   0  0  0  0  0  0  0  0  0  0  0  0
   53.6535   -5.0767    3.7603 H   0  0  0  0  0  0  0  0  0  0  0  0
   53.1448   -4.5017    5.3842 H   0  0  0  0  0  0  0  0  0  0  0  0
   52.7306   -5.3010    7.1298 H   0  0  0  0  0  0  0  0  0  0  0  0
   51.0572   -6.9380    8.7547 H   0  0  0  0  0  0  0  0  0  0  0  0
   51.9981   -4.0109    9.0686 H   0  0  0  0  0  0  0  0  0  0  0  0
   53.5940   -5.7777    9.0140 H   0  0  0  0  0  0  0  0  0  0  0  0
   51.6668   -4.3968   11.3932 H   0  0  0  0  0  0  0  0  0  0  0  0
   51.0675   -6.0556   11.0527 H   0  0  0  0  0  0  0  0  0  0  0  0
   50.1224   -4.6293   10.5057 H   0  0  0  0  0  0  0  0  0  0  0  0
   47.1703   -5.2149    7.2537 H   0  0  0  0  0  0  0  0  0  0  0  0
   46.3849   -7.4854    7.2439 H   0  0  0  0  0  0  0  0  0  0  0  0
   45.4984   -6.8743    8.6817 H   0  0  0  0  0  0  0  0  0  0  0  0
   47.1993   -9.0369    8.8833 H   0  0  0  0  0  0  0  0  0  0  0  0
   47.0567   -7.8471   10.2215 H   0  0  0  0  0  0  0  0  0  0  0  0
   49.3366   -7.5383    9.9069 H   0  0  0  0  0  0  0  0  0  0  0  0
   49.2981   -8.2587    8.2618 H   0  0  0  0  0  0  0  0  0  0  0  0
   45.3707   -4.0476    8.3086 H   0  0  0  0  0  0  0  0  0  0  0  0
   45.7027   -2.9094   10.8609 H   0  0  0  0  0  0  0  0  0  0  0  0
   43.1420   -2.8041   10.8298 H   0  0  0  0  0  0  0  0  0  0  0  0
   43.2372   -3.6822    9.2657 H   0  0  0  0  0  0  0  0  0  0  0  0
   43.4509   -0.5995    7.6470 H   0  0  0  0  0  0  0  0  0  0  0  0
   42.6427   -2.1186    7.8448 H   0  0  0  0  0  0  0  0  0  0  0  0
   45.1299   -3.4523   12.9704 H   0  0  0  0  0  0  0  0  0  0  0  0
   44.9155   -6.1980   13.6525 H   0  0  0  0  0  0  0  0  0  0  0  0
   44.2646   -3.9087   15.5603 H   0  0  0  0  0  0  0  0  0  0  0  0
   44.9289   -5.5080   17.3323 H   0  0  0  0  0  0  0  0  0  0  0  0
   45.1162   -6.7969   16.0953 H   0  0  0  0  0  0  0  0  0  0  0  0
   43.4972   -6.0879   16.4156 H   0  0  0  0  0  0  0  0  0  0  0  0
   46.5233   -3.7052   14.5164 H   0  0  0  0  0  0  0  0  0  0  0  0
   46.9085   -5.3750   15.0548 H   0  0  0  0  0  0  0  0  0  0  0  0
   46.6184   -4.0840   16.2697 H   0  0  0  0  0  0  0  0  0  0  0  0
   40.9723   -5.3873   13.1640 H   0  0  0  0  0  0  0  0  0  0  0  0
   40.8057   -3.2835   14.3465 H   0  0  0  0  0  0  0  0  0  0  0  0
   43.7072   -2.7598   13.6471 H   0  0  0  0  0  0  0  0  0  0  0  0
   43.1578   -3.4249   15.2227 H   0  0  0  0  0  0  0  0  0  0  0  0
   44.6046   -0.4938   15.2164 H   0  0  0  0  0  0  0  0  0  0  0  0
   40.6602    1.0467   15.7746 H   0  0  0  0  0  0  0  0  0  0  0  0
   43.1600    1.5728   15.9461 H   0  0  0  0  0  0  0  0  0  0  0  0
  1  2  1  0  0  0  0
  1 75  1  0  0  0  0
  1 76  1  0  0  0  0
  1 77  1  0  0  0  0
  2  3  1  0  0  0  0
  2  5  1  0  0  0  0
  2 78  1  6  0  0  0
  3  4  2  0  0  0  0
  3 12  1  0  0  0  0
  5  6  1  0  0  0  0
  5 79  1  0  0  0  0
  5 80  1  0  0  0  0
  6  7  1  0  0  0  0
  6 81  1  0  0  0  0
  6 82  1  0  0  0  0
  7  8  1  0  0  0  0
  7 83  1  0  0  0  0
  7 84  1  0  0  0  0
  8  9  1  0  0  0  0
  8 85  1  0  0  0  0
  9 10  1  0  0  0  0
  9 11  1  0  0  0  0
 10 86  1  0  0  0  0
 10 87  1  0  0  0  0
 11 88  1  0  0  0  0
 11 89  1  0  0  0  0
 12 13  1  0  0  0  0
 12 90  1  0  0  0  0
 13 14  1  0  0  0  0
 13 16  1  0  0  0  0
 13 91  1  1  0  0  0
 14 15  2  0  0  0  0
 14 18  1  0  0  0  0
 16 17  1  0  0  0  0
 16 92  1  0  0  0  0
 16 93  1  0  0  0  0
 17 94  1  0  0  0  0
 18 19  1  0  0  0  0
 18 95  1  0  0  0  0
 19 20  1  0  0  0  0
 19 22  1  0  0  0  0
 19 96  1  6  0  0  0
 20 21  2  0  0  0  0
 20 25  1  0  0  0  0
 22 23  1  0  0  0  0
 22 24  1  0  0  0  0
 22 97  1  1  0  0  0
 23 98  1  0  0  0  0
 24 99  1  0  0  0  0
 24100  1  0  0  0  0
 24101  1  0  0  0  0
 25 26  1  0  0  0  0
 25102  1  0  0  0  0
 26 27  1  0  0  0  0
 26 29  1  0  0  0  0
 26103  1  1  0  0  0
 27 28  1  0  0  0  0
 27104  1  0  0  0  0
 27105  1  0  0  0  0
 28 31  1  0  0  0  0
 29 30  2  0  0  0  0
 29 35  1  0  0  0  0
 31 32  1  0  0  0  0
 31 33  1  0  0  0  0
 31 34  2  0  0  0  0
 35 36  1  0  0  0  0
 35106  1  0  0  0  0
 36 37  1  0  0  0  0
 36 39  1  0  0  0  0
 36107  1  1  0  0  0
 37 38  2  0  0  0  0
 37 42  1  0  0  0  0
 39 40  1  0  0  0  0
 39 41  1  0  0  0  0
 39108  1  6  0  0  0
 40109  1  0  0  0  0
 41110  1  0  0  0  0
 41111  1  0  0  0  0
 41112  1  0  0  0  0
 42 43  1  0  0  0  0
 42 48  1  0  0  0  0
 43 44  1  0  0  0  0
 43 46  1  0  0  0  0
 43113  1  6  0  0  0
 44 45  2  0  0  0  0
 44 49  1  0  0  0  0
 46 47  1  0  0  0  0
 46114  1  0  0  0  0
 46115  1  0  0  0  0
 47 48  1  0  0  0  0
 47116  1  0  0  0  0
 47117  1  0  0  0  0
 48118  1  0  0  0  0
 48119  1  0  0  0  0
 49 50  1  0  0  0  0
 49120  1  0  0  0  0
 50 51  1  0  0  0  0
 50 53  1  0  0  0  0
 50121  1  1  0  0  0
 51 52  2  0  0  0  0
 51 57  1  0  0  0  0
 53 54  1  0  0  0  0
 53122  1  0  0  0  0
 53123  1  0  0  0  0
 54 55  2  0  0  0  0
 54 56  1  0  0  0  0
 56124  1  0  0  0  0
 56125  1  0  0  0  0
 57 58  1  0  0  0  0
 57126  1  0  0  0  0
 58 59  1  0  0  0  0
 58 61  1  0  0  0  0
 58127  1  6  0  0  0
 59 60  2  0  0  0  0
 59 64  1  0  0  0  0
 61 62  1  0  0  0  0
 61 63  1  0  0  0  0
 61128  1  0  0  0  0
 62129  1  0  0  0  0
 62130  1  0  0  0  0
 62131  1  0  0  0  0
 63132  1  0  0  0  0
 63133  1  0  0  0  0
 63134  1  0  0  0  0
 64 65  1  0  0  0  0
 64135  1  0  0  0  0
 65 66  1  0  0  0  0
 65 68  1  0  0  0  0
 65136  1  1  0  0  0
 66 67  1  0  0  0  0
 66 74  2  0  0  0  0
 68 69  1  0  0  0  0
 68137  1  0  0  0  0
 68138  1  0  0  0  0
 69 70  1  0  0  0  0
 69 71  2  0  0  0  0
 70 72  2  0  0  0  0
 71 73  1  0  0  0  0
 71139  1  0  0  0  0
 72 73  1  0  0  0  0
 72140  1  0  0  0  0
 73141  1  0  0  0  0
M  CHG  2   1   1  67  -1
M  END
