3nnu_ligand
 OpenBabel08222323343D

 49 52  0  0  0  0  0  0  0  0999 V2000
   18.6190   12.3390   29.4570 C   0  0  0  0  0  0  0  0  0  0  0  0
   19.3070   11.3800   30.2120 C   0  0  0  0  0  0  0  0  0  0  0  0
   18.6330   10.5730   31.1380 C   0  0  0  0  0  0  0  0  0  0  0  0
   17.2570   10.7300   31.2760 C   0  0  0  0  0  0  0  0  0  0  0  0
   16.5780   11.6840   30.5160 C   0  0  0  0  0  0  0  0  0  0  0  0
   17.2150   12.4790   29.5820 C   0  0  0  0  0  0  0  0  0  0  0  0
   15.9740   15.6040   23.7850 C   0  0  0  0  0  0  0  0  0  0  0  0
   16.0910   14.5890   24.7260 C   0  0  0  0  0  0  0  0  0  0  0  0
   15.8340   15.2430   25.9330 C   0  0  0  0  0  0  0  0  0  0  0  0
   15.5810   16.5590   25.6530 N   0  0  0  0  0  0  0  0  0  0  0  0
   15.6540   16.8170   24.2850 N   0  0  0  0  0  0  0  0  0  0  0  0
   15.3330   17.5750   26.5150 C   0  0  0  0  0  0  0  0  0  0  0  0
   14.0000   18.5760   26.2800 C   0  0  0  0  0  0  0  0  0  0  0  0
   14.1300   19.6350   27.1710 C   0  0  0  0  0  0  0  0  0  0  0  0
   14.8570   19.7610   28.3590 C   0  0  0  0  0  0  0  0  0  0  0  0
   15.8260   18.7980   28.6240 C   0  0  0  0  0  0  0  0  0  0  0  0
   16.0380   17.7520   27.7210 C   0  0  0  0  0  0  0  0  0  0  0  0
   15.8350   14.8090   27.2280 N   0  0  0  0  0  0  0  0  0  0  0  0
   16.5820   13.7780   27.6300 C   0  0  0  0  0  0  0  0  0  0  0  0
   17.3030   13.1630   26.8620 O   0  0  0  0  0  0  0  0  0  0  0  0
   16.4990   13.4340   28.9100 N   0  0  0  0  0  0  0  0  0  0  0  0
   16.2240   15.5020   19.8010 C   0  0  0  0  0  0  0  0  0  0  0  0
   15.9340   16.6140   21.1010 S   0  0  0  0  0  0  0  0  0  0  0  0
   16.1110   15.3630   22.3120 C   0  0  0  0  0  0  0  0  0  0  0  0
   16.3960   14.1160   21.7700 C   0  0  0  0  0  0  0  0  0  0  0  0
   16.4460   14.2320   20.3950 C   0  0  0  0  0  0  0  0  0  0  0  0
   13.0600   20.6610   26.8480 C   0  0  0  0  0  0  0  0  0  0  0  0
   13.6560   21.9340   26.2860 C   0  0  0  0  0  0  0  0  0  0  0  0
   13.2710   23.0280   26.6720 O   0  0  0  0  0  0  0  0  0  0  0  0
   14.5920   21.7900   25.3630 N   0  0  0  0  0  0  0  0  0  0  0  0
   14.8210   11.8790   30.6730 Cl  0  0  0  0  0  0  0  0  0  0  0  0
   16.2990    9.7360   32.4200 Cl  0  0  0  0  0  0  0  0  0  0  0  0
   19.1649   12.9782   28.7725 H   0  0  0  0  0  0  0  0  0  0  0  0
   20.3760   11.2607   30.0778 H   0  0  0  0  0  0  0  0  0  0  0  0
   19.1706    9.8435   31.7329 H   0  0  0  0  0  0  0  0  0  0  0  0
   16.3261   13.5383   24.5623 H   0  0  0  0  0  0  0  0  0  0  0  0
   13.1949   18.4239   25.5702 H   0  0  0  0  0  0  0  0  0  0  0  0
   14.6727   20.5779   29.0474 H   0  0  0  0  0  0  0  0  0  0  0  0
   16.4166   18.8589   29.5309 H   0  0  0  0  0  0  0  0  0  0  0  0
   16.8017   17.0232   27.9675 H   0  0  0  0  0  0  0  0  0  0  0  0
   15.2579   15.2784   27.8963 H   0  0  0  0  0  0  0  0  0  0  0  0
   15.8270   13.9371   29.4534 H   0  0  0  0  0  0  0  0  0  0  0  0
   16.2338   15.7333   18.7369 H   0  0  0  0  0  0  0  0  0  0  0  0
   16.5538   13.1990   22.3358 H   0  0  0  0  0  0  0  0  0  0  0  0
   16.6529   13.3611   19.7748 H   0  0  0  0  0  0  0  0  0  0  0  0
   12.5079   20.9020   27.7683 H   0  0  0  0  0  0  0  0  0  0  0  0
   12.3686   20.2337   26.1068 H   0  0  0  0  0  0  0  0  0  0  0  0
   15.0213   22.5964   24.9561 H   0  0  0  0  0  0  0  0  0  0  0  0
   14.8705   20.8748   25.0719 H   0  0  0  0  0  0  0  0  0  0  0  0
  1  2  2  0  0  0  0
  1 33  1  0  0  0  0
  2  3  1  0  0  0  0
  2 34  1  0  0  0  0
  3 35  1  0  0  0  0
  4  3  2  0  0  0  0
  4 32  1  0  0  0  0
  5  4  1  0  0  0  0
  5 31  1  0  0  0  0
  6  1  1  0  0  0  0
  6  5  2  0  0  0  0
  7  8  1  0  0  0  0
  7 11  2  0  0  0  0
  8  9  2  0  0  0  0
  8 36  1  0  0  0  0
  9 18  1  0  0  0  0
 10  9  1  0  0  0  0
 10 12  1  0  0  0  0
 11 10  1  0  0  0  0
 12 13  2  0  0  0  0
 12 17  1  0  0  0  0
 13 14  1  0  0  0  0
 13 37  1  0  0  0  0
 14 15  2  0  0  0  0
 14 27  1  0  0  0  0
 15 38  1  0  0  0  0
 16 15  1  0  0  0  0
 16 39  1  0  0  0  0
 17 16  2  0  0  0  0
 17 40  1  0  0  0  0
 18 19  1  0  0  0  0
 18 41  1  0  0  0  0
 19 20  2  0  0  0  0
 19 21  1  0  0  0  0
 21  6  1  0  0  0  0
 21 42  1  0  0  0  0
 22 26  2  0  0  0  0
 22 43  1  0  0  0  0
 23 22  1  0  0  0  0
 23 24  1  0  0  0  0
 24  7  1  0  0  0  0
 24 25  2  0  0  0  0
 25 26  1  0  0  0  0
 25 44  1  0  0  0  0
 26 45  1  0  0  0  0
 27 28  1  0  0  0  0
 27 46  1  0  0  0  0
 27 47  1  0  0  0  0
 28 29  2  0  0  0  0
 28 30  1  0  0  0  0
 30 48  1  0  0  0  0
 30 49  1  0  0  0  0
M  END
