3nnv_ligand
 OpenBabel08222323343D

 57 60  0  0  0  0  0  0  0  0999 V2000
   18.7220   10.9890   30.8090 C   0  0  0  0  0  0  0  0  0  0  0  0
   19.2770   12.0040   30.0190 C   0  0  0  0  0  0  0  0  0  0  0  0
   18.4360   12.7960   29.2250 C   0  0  0  0  0  0  0  0  0  0  0  0
   17.3470   10.7760   30.7950 C   0  0  0  0  0  0  0  0  0  0  0  0
   16.4990   11.5790   30.0070 C   0  0  0  0  0  0  0  0  0  0  0  0
   17.0330   12.6120   29.2050 C   0  0  0  0  0  0  0  0  0  0  0  0
   16.2650   13.4830   28.4360 N   0  0  0  0  0  0  0  0  0  0  0  0
   16.3960   13.7600   27.1350 C   0  0  0  0  0  0  0  0  0  0  0  0
   17.2360   13.1860   26.4380 O   0  0  0  0  0  0  0  0  0  0  0  0
   15.5630   14.6880   26.6140 N   0  0  0  0  0  0  0  0  0  0  0  0
   15.5710   15.0430   25.2870 C   0  0  0  0  0  0  0  0  0  0  0  0
   15.9030   14.3430   24.1230 C   0  0  0  0  0  0  0  0  0  0  0  0
   15.6860   15.2810   23.1050 C   0  0  0  0  0  0  0  0  0  0  0  0
   15.8780   14.9880   21.6300 C   0  0  0  0  0  0  0  0  0  0  0  0
   17.1910   14.2290   21.3510 C   0  0  0  0  0  0  0  0  0  0  0  0
   15.8450   16.2420   20.7370 C   0  0  0  0  0  0  0  0  0  0  0  0
   14.6960   14.1050   21.2500 C   0  0  0  0  0  0  0  0  0  0  0  0
   15.2250   16.4690   23.5390 N   0  0  0  0  0  0  0  0  0  0  0  0
   15.1640   16.2840   24.9100 N   0  0  0  0  0  0  0  0  0  0  0  0
   14.7560   17.3360   25.6540 C   0  0  0  0  0  0  0  0  0  0  0  0
   15.3300   17.7590   26.8550 C   0  0  0  0  0  0  0  0  0  0  0  0
   13.6790   18.1280   25.2050 C   0  0  0  0  0  0  0  0  0  0  0  0
   13.1910   19.2450   25.8860 C   0  0  0  0  0  0  0  0  0  0  0  0
   13.7920   19.6270   27.0670 C   0  0  0  0  0  0  0  0  0  0  0  0
   13.2530   20.8320   27.8160 C   0  0  0  0  0  0  0  0  0  0  0  0
   14.8750   18.8740   27.5630 C   0  0  0  0  0  0  0  0  0  0  0  0
   12.8460   21.8590   26.9000 O   0  0  0  0  0  0  0  0  0  0  0  0
   15.1300   11.3170   30.0400 C   0  0  0  0  0  0  0  0  0  0  0  0
   14.6240   10.2630   30.8200 C   0  0  0  0  0  0  0  0  0  0  0  0
   15.4710    9.4860   31.6060 C   0  0  0  0  0  0  0  0  0  0  0  0
   16.8340    9.7530   31.5940 C   0  0  0  0  0  0  0  0  0  0  0  0
   19.3616   10.3715   31.4292 H   0  0  0  0  0  0  0  0  0  0  0  0
   20.3474   12.1755   30.0217 H   0  0  0  0  0  0  0  0  0  0  0  0
   18.8734   13.5725   28.6079 H   0  0  0  0  0  0  0  0  0  0  0  0
   15.5268   13.9583   28.9148 H   0  0  0  0  0  0  0  0  0  0  0  0
   14.9099   15.1375   27.2234 H   0  0  0  0  0  0  0  0  0  0  0  0
   16.2479   13.3143   24.0299 H   0  0  0  0  0  0  0  0  0  0  0  0
   17.2835   14.0410   20.2711 H   0  0  0  0  0  0  0  0  0  0  0  0
   17.1822   13.2705   21.8906 H   0  0  0  0  0  0  0  0  0  0  0  0
   18.0439   14.8341   21.6921 H   0  0  0  0  0  0  0  0  0  0  0  0
   14.9143   16.7988   20.9211 H   0  0  0  0  0  0  0  0  0  0  0  0
   15.8890   15.9407   19.6800 H   0  0  0  0  0  0  0  0  0  0  0  0
   16.7079   16.8824   20.9721 H   0  0  0  0  0  0  0  0  0  0  0  0
   14.6980   13.2004   21.8759 H   0  0  0  0  0  0  0  0  0  0  0  0
   14.7779   13.8184   20.1912 H   0  0  0  0  0  0  0  0  0  0  0  0
   13.7588   14.6586   21.4087 H   0  0  0  0  0  0  0  0  0  0  0  0
   16.1659   17.1970   27.2556 H   0  0  0  0  0  0  0  0  0  0  0  0
   13.1999   17.8523   24.2725 H   0  0  0  0  0  0  0  0  0  0  0  0
   12.3506   19.8047   25.4915 H   0  0  0  0  0  0  0  0  0  0  0  0
   14.0388   21.2279   28.4761 H   0  0  0  0  0  0  0  0  0  0  0  0
   12.3872   20.5237   28.4205 H   0  0  0  0  0  0  0  0  0  0  0  0
   15.3542   19.1595   28.4924 H   0  0  0  0  0  0  0  0  0  0  0  0
   12.5124   22.6028   27.3878 H   0  0  0  0  0  0  0  0  0  0  0  0
   14.4507   11.9309   29.4597 H   0  0  0  0  0  0  0  0  0  0  0  0
   13.5607   10.0523   30.8096 H   0  0  0  0  0  0  0  0  0  0  0  0
   15.0727    8.6849   32.2180 H   0  0  0  0  0  0  0  0  0  0  0  0
   17.5037    9.1630   32.2092 H   0  0  0  0  0  0  0  0  0  0  0  0
  1  2  2  0  0  0  0
  1  4  1  0  0  0  0
  1 32  1  0  0  0  0
  2  3  1  0  0  0  0
  2 33  1  0  0  0  0
  3  6  2  0  0  0  0
  3 34  1  0  0  0  0
  4  5  2  0  0  0  0
  4 31  1  0  0  0  0
  5  6  1  0  0  0  0
  5 28  1  0  0  0  0
  6  7  1  0  0  0  0
  7  8  1  0  0  0  0
  7 35  1  0  0  0  0
  8  9  2  0  0  0  0
  8 10  1  0  0  0  0
 10 11  1  0  0  0  0
 10 36  1  0  0  0  0
 11 12  2  0  0  0  0
 11 19  1  0  0  0  0
 12 13  1  0  0  0  0
 12 37  1  0  0  0  0
 13 14  1  0  0  0  0
 13 18  2  0  0  0  0
 14 15  1  0  0  0  0
 14 16  1  0  0  0  0
 14 17  1  0  0  0  0
 15 38  1  0  0  0  0
 15 39  1  0  0  0  0
 15 40  1  0  0  0  0
 16 41  1  0  0  0  0
 16 42  1  0  0  0  0
 16 43  1  0  0  0  0
 17 44  1  0  0  0  0
 17 45  1  0  0  0  0
 17 46  1  0  0  0  0
 18 19  1  0  0  0  0
 19 20  1  0  0  0  0
 20 21  2  0  0  0  0
 20 22  1  0  0  0  0
 21 26  1  0  0  0  0
 21 47  1  0  0  0  0
 22 23  2  0  0  0  0
 22 48  1  0  0  0  0
 23 24  1  0  0  0  0
 23 49  1  0  0  0  0
 24 25  1  0  0  0  0
 24 26  2  0  0  0  0
 25 27  1  0  0  0  0
 25 50  1  0  0  0  0
 25 51  1  0  0  0  0
 26 52  1  0  0  0  0
 27 53  1  0  0  0  0
 28 29  2  0  0  0  0
 28 54  1  0  0  0  0
 29 30  1  0  0  0  0
 29 55  1  0  0  0  0
 30 31  2  0  0  0  0
 30 56  1  0  0  0  0
 31 57  1  0  0  0  0
M  END
