3nnx_ligand
 OpenBabel08222323343D

 54 56  0  0  0  0  0  0  0  0999 V2000
    6.6480  -38.1000  -25.7670 C   0  0  0  0  0  0  0  0  0  0  0  0
    5.5570  -38.9210  -25.5680 C   0  0  0  0  0  0  0  0  0  0  0  0
    5.4490  -40.1810  -26.1580 C   0  0  0  0  0  0  0  0  0  0  0  0
    6.4490  -40.6340  -27.0080 C   0  0  0  0  0  0  0  0  0  0  0  0
    7.5410  -39.8190  -27.2560 C   0  0  0  0  0  0  0  0  0  0  0  0
    7.6370  -38.5850  -26.6300 C   0  0  0  0  0  0  0  0  0  0  0  0
    8.6200  -40.2950  -28.1760 C   0  0  0  0  0  0  0  0  0  0  0  0
    8.1810  -40.0840  -29.6170 C   0  0  0  0  0  0  0  0  0  0  0  0
    7.6860  -38.9170  -30.0140 N   0  0  0  0  0  0  0  0  0  0  0  0
    8.3330  -40.9780  -30.3990 O   0  0  0  0  0  0  0  0  0  0  0  0
    6.7590  -36.9070  -25.2230 N   0  0  0  0  0  0  0  0  0  0  0  0
    7.1720  -35.8710  -26.0150 N   0  0  0  0  0  0  0  0  0  0  0  0
    7.1240  -34.8630  -25.1360 C   0  0  0  0  0  0  0  0  0  0  0  0
    6.7100  -35.1890  -23.8570 C   0  0  0  0  0  0  0  0  0  0  0  0
    6.4750  -36.5460  -23.9520 C   0  0  0  0  0  0  0  0  0  0  0  0
    7.5260  -33.4760  -25.5320 C   0  0  0  0  0  0  0  0  0  0  0  0
    7.5610  -33.4350  -27.0720 C   0  0  0  0  0  0  0  0  0  0  0  0
    8.9090  -33.1420  -24.9500 C   0  0  0  0  0  0  0  0  0  0  0  0
    6.4860  -32.5220  -24.9620 C   0  0  0  0  0  0  0  0  0  0  0  0
    6.0800  -37.4770  -23.0330 N   0  0  0  0  0  0  0  0  0  0  0  0
    5.1870  -37.1660  -22.0990 C   0  0  0  0  0  0  0  0  0  0  0  0
    4.7530  -38.2230  -21.3620 N   0  0  0  0  0  0  0  0  0  0  0  0
    3.8200  -38.1750  -20.3620 C   0  0  0  0  0  0  0  0  0  0  0  0
    4.8210  -35.9820  -22.0290 O   0  0  0  0  0  0  0  0  0  0  0  0
    2.5650  -37.5930  -20.5820 C   0  0  0  0  0  0  0  0  0  0  0  0
    1.6420  -37.5540  -19.5600 C   0  0  0  0  0  0  0  0  0  0  0  0
    1.9440  -38.0880  -18.3020 C   0  0  0  0  0  0  0  0  0  0  0  0
    3.1820  -38.6900  -18.0380 C   0  0  0  0  0  0  0  0  0  0  0  0
    4.0980  -38.6990  -19.0850 C   0  0  0  0  0  0  0  0  0  0  0  0
    5.6710  -39.4670  -18.7640 Cl  0  0  0  0  0  0  0  0  0  0  0  0
    3.5980  -39.4360  -16.3960 Cl  0  0  0  0  0  0  0  0  0  0  0  0
    4.7531  -38.5740  -24.9290 H   0  0  0  0  0  0  0  0  0  0  0  0
    4.5863  -40.8046  -25.9531 H   0  0  0  0  0  0  0  0  0  0  0  0
    6.3761  -41.6115  -27.4709 H   0  0  0  0  0  0  0  0  0  0  0  0
    8.5119  -37.9727  -26.8165 H   0  0  0  0  0  0  0  0  0  0  0  0
    8.8062  -41.3650  -28.0015 H   0  0  0  0  0  0  0  0  0  0  0  0
    9.5423  -39.7265  -27.9859 H   0  0  0  0  0  0  0  0  0  0  0  0
    7.4012  -38.7920  -30.9644 H   0  0  0  0  0  0  0  0  0  0  0  0
    7.5981  -38.1635  -29.3625 H   0  0  0  0  0  0  0  0  0  0  0  0
    6.5976  -34.5378  -22.9914 H   0  0  0  0  0  0  0  0  0  0  0  0
    7.8535  -32.4284  -27.4054 H   0  0  0  0  0  0  0  0  0  0  0  0
    6.5637  -33.6771  -27.4680 H   0  0  0  0  0  0  0  0  0  0  0  0
    8.2908  -34.1702  -27.4419 H   0  0  0  0  0  0  0  0  0  0  0  0
    8.8626  -33.1766  -23.8515 H   0  0  0  0  0  0  0  0  0  0  0  0
    9.2090  -32.1341  -25.2727 H   0  0  0  0  0  0  0  0  0  0  0  0
    9.6451  -33.8763  -25.3092 H   0  0  0  0  0  0  0  0  0  0  0  0
    5.4980  -32.7640  -25.3806 H   0  0  0  0  0  0  0  0  0  0  0  0
    6.7529  -31.4881  -25.2263 H   0  0  0  0  0  0  0  0  0  0  0  0
    6.4554  -32.6244  -23.8672 H   0  0  0  0  0  0  0  0  0  0  0  0
    6.4657  -38.3991  -23.0634 H   0  0  0  0  0  0  0  0  0  0  0  0
    5.1517  -39.1163  -21.5695 H   0  0  0  0  0  0  0  0  0  0  0  0
    2.3212  -37.1752  -21.5521 H   0  0  0  0  0  0  0  0  0  0  0  0
    0.6707  -37.1046  -19.7321 H   0  0  0  0  0  0  0  0  0  0  0  0
    1.2027  -38.0347  -17.5129 H   0  0  0  0  0  0  0  0  0  0  0  0
  1  2  2  0  0  0  0
  1  6  1  0  0  0  0
  1 11  1  0  0  0  0
  2  3  1  0  0  0  0
  2 32  1  0  0  0  0
  3  4  2  0  0  0  0
  3 33  1  0  0  0  0
  4  5  1  0  0  0  0
  4 34  1  0  0  0  0
  5  6  2  0  0  0  0
  5  7  1  0  0  0  0
  6 35  1  0  0  0  0
  7  8  1  0  0  0  0
  7 36  1  0  0  0  0
  7 37  1  0  0  0  0
  8  9  1  0  0  0  0
  8 10  2  0  0  0  0
  9 38  1  0  0  0  0
  9 39  1  0  0  0  0
 11 12  1  0  0  0  0
 11 15  1  0  0  0  0
 12 13  2  0  0  0  0
 13 14  1  0  0  0  0
 13 16  1  0  0  0  0
 14 15  2  0  0  0  0
 14 40  1  0  0  0  0
 15 20  1  0  0  0  0
 16 17  1  0  0  0  0
 16 18  1  0  0  0  0
 16 19  1  0  0  0  0
 17 41  1  0  0  0  0
 17 42  1  0  0  0  0
 17 43  1  0  0  0  0
 18 44  1  0  0  0  0
 18 45  1  0  0  0  0
 18 46  1  0  0  0  0
 19 47  1  0  0  0  0
 19 48  1  0  0  0  0
 19 49  1  0  0  0  0
 20 21  1  0  0  0  0
 20 50  1  0  0  0  0
 21 22  1  0  0  0  0
 21 24  2  0  0  0  0
 22 23  1  0  0  0  0
 22 51  1  0  0  0  0
 23 25  2  0  0  0  0
 23 29  1  0  0  0  0
 25 26  1  0  0  0  0
 25 52  1  0  0  0  0
 26 27  2  0  0  0  0
 26 53  1  0  0  0  0
 27 28  1  0  0  0  0
 27 54  1  0  0  0  0
 28 29  2  0  0  0  0
 28 31  1  0  0  0  0
 29 30  1  0  0  0  0
M  END
