3ns9_ligand
 OpenBabel08222323343D

 55 57  0  0  1  0  0  0  0  0999 V2000
    1.6430   -4.8010  -29.2550 N   0  0  0  0  0  0  0  0  0  0  0  0
    1.5250   -5.9400  -28.7130 N   0  0  0  0  0  0  0  0  0  0  0  0
    2.4420   -6.9660  -28.5960 C   0  0  0  0  0  0  0  0  0  0  0  0
    2.0800   -8.0990  -27.8330 C   0  0  0  0  0  0  0  0  0  0  0  0
    0.7660   -8.2020  -27.2370 C   0  0  0  0  0  0  0  0  0  0  0  0
   -0.1350   -7.1610  -27.3200 N   0  0  0  0  0  0  0  0  0  0  0  0
    0.2530   -6.0650  -28.0560 C   0  0  0  0  0  0  0  0  0  0  0  0
   -0.3640   -4.8510  -28.3800 C   0  0  0  0  0  0  0  0  0  0  0  0
    0.5030   -4.1160  -29.1010 C   0  0  0  0  0  0  0  0  0  0  0  0
    3.6520   -6.8040  -29.1880 N   0  0  0  0  0  0  0  0  0  0  0  0
    4.7830   -7.7640  -28.9660 C   0  0  0  0  0  0  0  0  0  0  0  0
    4.7230   -8.8550  -30.0140 C   0  0  0  0  0  0  0  0  0  0  0  0
    4.7350   -8.4860  -31.3650 C   0  0  0  0  0  0  0  0  0  0  0  0
    4.6810   -9.4500  -32.3650 C   0  0  0  0  0  0  0  0  0  0  0  0
    4.6150  -10.8130  -32.0080 C   0  0  0  0  0  0  0  0  0  0  0  0
    4.6220  -11.1410  -30.6740 C   0  0  0  0  0  0  0  0  0  0  0  0
    4.6650  -10.1900  -29.6460 C   0  0  0  0  0  0  0  0  0  0  0  0
    0.4920   -9.3120  -26.5190 N   0  0  0  0  0  0  0  0  0  0  0  0
   -0.9020   -9.5720  -26.0100 C   0  0  2  0  0  0  0  0  0  0  0  0
   -1.0830   -9.2120  -24.5500 C   0  0  1  0  0  0  0  0  0  0  0  0
   -0.7310   -7.7240  -24.1800 C   0  0  0  0  0  0  0  0  0  0  0  0
   -1.5920   -6.9460  -24.9620 O   0  0  0  0  0  0  0  0  0  0  0  0
   -1.1950  -11.0980  -26.1930 C   0  0  0  0  0  0  0  0  0  0  0  0
   -0.0090  -11.8870  -25.9210 O   0  0  0  0  0  0  0  0  0  0  0  0
   -2.4850   -9.5190  -24.2100 O   0  0  0  0  0  0  0  0  0  0  0  0
   -1.7460   -4.4110  -27.9630 C   0  0  0  0  0  0  0  0  0  0  0  0
   -1.7530   -4.0710  -26.4490 C   0  0  0  0  0  0  0  0  0  0  0  0
   -2.8670   -5.4870  -28.1990 C   0  0  0  0  0  0  0  0  0  0  0  0
    2.7991   -8.9045  -27.6920 H   0  0  0  0  0  0  0  0  0  0  0  0
    0.3078   -3.1205  -29.4969 H   0  0  0  0  0  0  0  0  0  0  0  0
    3.7987   -5.9960  -29.8097 H   0  0  0  0  0  0  0  0  0  0  0  0
    4.6953   -8.2106  -27.9646 H   0  0  0  0  0  0  0  0  0  0  0  0
    5.7408   -7.2291  -29.0463 H   0  0  0  0  0  0  0  0  0  0  0  0
    4.7870   -7.4371  -31.6338 H   0  0  0  0  0  0  0  0  0  0  0  0
    4.6895   -9.1572  -33.4087 H   0  0  0  0  0  0  0  0  0  0  0  0
    4.5600  -11.5836  -32.7684 H   0  0  0  0  0  0  0  0  0  0  0  0
    4.5927  -12.1901  -30.4026 H   0  0  0  0  0  0  0  0  0  0  0  0
    4.6534  -10.4868  -28.6035 H   0  0  0  0  0  0  0  0  0  0  0  0
    1.2430   -9.9874  -26.3173 H   0  0  0  0  0  0  0  0  0  0  0  0
   -1.6136   -8.9830  -26.6072 H   0  0  0  0  0  0  0  0  0  0  0  0
   -0.4223   -9.8601  -23.9555 H   0  0  0  0  0  0  0  0  0  0  0  0
    0.3188   -7.5026  -24.4229 H   0  0  0  0  0  0  0  0  0  0  0  0
   -0.9067   -7.5392  -23.1100 H   0  0  0  0  0  0  0  0  0  0  0  0
   -1.4337   -7.1270  -25.8810 H   0  0  0  0  0  0  0  0  0  0  0  0
   -1.5203  -11.2811  -27.2277 H   0  0  0  0  0  0  0  0  0  0  0  0
   -1.9941  -11.3974  -25.4990 H   0  0  0  0  0  0  0  0  0  0  0  0
    0.2735  -11.7341  -25.0270 H   0  0  0  0  0  0  0  0  0  0  0  0
   -2.6180   -9.3952  -23.2775 H   0  0  0  0  0  0  0  0  0  0  0  0
   -2.0023   -3.5102  -28.5399 H   0  0  0  0  0  0  0  0  0  0  0  0
   -2.7620   -3.7509  -26.1498 H   0  0  0  0  0  0  0  0  0  0  0  0
   -1.0374   -3.2591  -26.2522 H   0  0  0  0  0  0  0  0  0  0  0  0
   -1.4647   -4.9619  -25.8718 H   0  0  0  0  0  0  0  0  0  0  0  0
   -2.8967   -5.7579  -29.2647 H   0  0  0  0  0  0  0  0  0  0  0  0
   -3.8411   -5.0737  -27.8985 H   0  0  0  0  0  0  0  0  0  0  0  0
   -2.6478   -6.3826  -27.5991 H   0  0  0  0  0  0  0  0  0  0  0  0
  1  2  1  0  0  0  0
  1  9  2  0  0  0  0
  2  3  1  0  0  0  0
  2  7  1  0  0  0  0
  3  4  2  0  0  0  0
  3 10  1  0  0  0  0
  4  5  1  0  0  0  0
  4 29  1  0  0  0  0
  5  6  2  0  0  0  0
  5 18  1  0  0  0  0
  6  7  1  0  0  0  0
  7  8  2  0  0  0  0
  8  9  1  0  0  0  0
  8 26  1  0  0  0  0
  9 30  1  0  0  0  0
 10 11  1  0  0  0  0
 10 31  1  0  0  0  0
 11 12  1  0  0  0  0
 11 32  1  0  0  0  0
 11 33  1  0  0  0  0
 12 13  2  0  0  0  0
 12 17  1  0  0  0  0
 13 14  1  0  0  0  0
 13 34  1  0  0  0  0
 14 15  2  0  0  0  0
 14 35  1  0  0  0  0
 15 16  1  0  0  0  0
 15 36  1  0  0  0  0
 16 17  2  0  0  0  0
 16 37  1  0  0  0  0
 17 38  1  0  0  0  0
 18 19  1  0  0  0  0
 18 39  1  0  0  0  0
 19 20  1  0  0  0  0
 19 23  1  0  0  0  0
 19 40  1  6  0  0  0
 20 21  1  0  0  0  0
 20 25  1  0  0  0  0
 20 41  1  1  0  0  0
 21 22  1  0  0  0  0
 21 42  1  0  0  0  0
 21 43  1  0  0  0  0
 22 44  1  0  0  0  0
 23 24  1  0  0  0  0
 23 45  1  0  0  0  0
 23 46  1  0  0  0  0
 24 47  1  0  0  0  0
 25 48  1  0  0  0  0
 26 27  1  0  0  0  0
 26 28  1  0  0  0  0
 26 49  1  0  0  0  0
 27 50  1  0  0  0  0
 27 51  1  0  0  0  0
 27 52  1  0  0  0  0
 28 53  1  0  0  0  0
 28 54  1  0  0  0  0
 28 55  1  0  0  0  0
M  END
