3nsh_ligand
 OpenBabel08222323343D

 64 66  0  0  1  0  0  0  0  0999 V2000
    0.3830   33.6660   32.5710 C   0  0  0  0  0  0  0  0  0  0  0  0
   -0.7050   33.6730   33.6010 C   0  0  0  0  0  0  0  0  0  0  0  0
   -1.9480   33.5270   33.1460 N   0  0  0  0  0  0  0  0  0  0  0  0
   -3.1010   33.6380   34.0050 C   0  0  2  0  0  0  0  0  0  0  0  0
   -3.6050   32.2450   34.2490 C   0  0  1  0  0  0  0  0  0  0  0  0
   -2.5650   31.2950   34.8130 C   0  0  0  0  0  0  0  0  0  0  0  0
   -3.2580   30.1540   35.3910 N   0  3  0  0  0  0  0  0  0  0  0  0
   -2.5150   29.4740   36.4780 C   0  0  0  0  0  0  0  0  0  0  0  0
   -2.4600   30.2150   37.7800 C   0  0  0  0  0  0  0  0  0  0  0  0
   -3.5500   30.8160   38.3510 C   0  0  0  0  0  0  0  0  0  0  0  0
   -3.2090   31.4760   39.5480 C   0  0  0  0  0  0  0  0  0  0  0  0
   -1.8550   31.4210   39.8520 C   0  0  0  0  0  0  0  0  0  0  0  0
   -1.0070   30.5300   38.6330 S   0  0  0  0  0  0  0  0  0  0  0  0
   -4.2190   32.2090   40.3830 C   0  0  0  0  0  0  0  0  0  0  0  0
   -4.9860   31.3940   41.3920 C   0  0  0  0  0  0  0  0  0  0  0  0
   -4.0310   30.8410   42.4380 C   0  0  0  0  0  0  0  0  0  0  0  0
   -5.7900   30.3280   40.6490 C   0  0  0  0  0  0  0  0  0  0  0  0
   -5.9290   32.2990   42.1920 C   0  0  0  0  0  0  0  0  0  0  0  0
   -0.4630   33.7920   34.8000 O   0  0  0  0  0  0  0  0  0  0  0  0
   -4.1240   34.4870   33.2960 C   0  0  0  0  0  0  0  0  0  0  0  0
   -3.4270   35.8270   33.0100 C   0  0  0  0  0  0  0  0  0  0  0  0
   -3.3210   36.2840   31.6910 C   0  0  0  0  0  0  0  0  0  0  0  0
   -2.6700   37.4900   31.4380 C   0  0  0  0  0  0  0  0  0  0  0  0
   -2.1040   38.2270   32.4760 C   0  0  0  0  0  0  0  0  0  0  0  0
   -2.2010   37.7700   33.7900 C   0  0  0  0  0  0  0  0  0  0  0  0
   -2.8760   36.5650   34.0570 C   0  0  0  0  0  0  0  0  0  0  0  0
   -2.5440   38.0560   30.1100 F   0  0  0  0  0  0  0  0  0  0  0  0
   -1.5710   38.6430   34.8310 F   0  0  0  0  0  0  0  0  0  0  0  0
   -4.6770   32.3020   35.1800 O   0  0  0  0  0  0  0  0  0  0  0  0
   -1.2310   28.7090   36.1210 C   0  0  0  0  0  0  0  0  0  0  0  0
   -2.4770   27.9450   36.5960 C   0  0  0  0  0  0  0  0  0  0  0  0
    1.3571   33.7935   33.0658 H   0  0  0  0  0  0  0  0  0  0  0  0
    0.2215   34.4909   31.8614 H   0  0  0  0  0  0  0  0  0  0  0  0
    0.3693   32.7086   32.0296 H   0  0  0  0  0  0  0  0  0  0  0  0
   -2.0867   33.3336   32.1747 H   0  0  0  0  0  0  0  0  0  0  0  0
   -2.8280   34.1085   34.9611 H   0  0  0  0  0  0  0  0  0  0  0  0
   -3.9674   31.8382   33.2934 H   0  0  0  0  0  0  0  0  0  0  0  0
   -1.9763   31.8055   35.5894 H   0  0  0  0  0  0  0  0  0  0  0  0
   -1.8954   30.9558   34.0089 H   0  0  0  0  0  0  0  0  0  0  0  0
   -3.4279   29.4835   34.6577 H   0  0  0  0  0  0  0  0  0  0  0  0
   -4.1380   30.4749   35.7633 H   0  0  0  0  0  0  0  0  0  0  0  0
   -4.5548   30.7873   37.9321 H   0  0  0  0  0  0  0  0  0  0  0  0
   -1.3937   31.8724   40.7292 H   0  0  0  0  0  0  0  0  0  0  0  0
   -4.9497   32.6641   39.6982 H   0  0  0  0  0  0  0  0  0  0  0  0
   -3.6867   33.0009   40.9303 H   0  0  0  0  0  0  0  0  0  0  0  0
   -4.5952   30.2470   43.1721 H   0  0  0  0  0  0  0  0  0  0  0  0
   -3.5261   31.6733   42.9501 H   0  0  0  0  0  0  0  0  0  0  0  0
   -3.2808   30.2025   41.9486 H   0  0  0  0  0  0  0  0  0  0  0  0
   -6.4513   30.8125   39.9155 H   0  0  0  0  0  0  0  0  0  0  0  0
   -6.3959   29.7578   41.3686 H   0  0  0  0  0  0  0  0  0  0  0  0
   -5.1016   29.6464   40.1279 H   0  0  0  0  0  0  0  0  0  0  0  0
   -5.3416   33.0625   42.7230 H   0  0  0  0  0  0  0  0  0  0  0  0
   -6.4875   31.6935   42.9210 H   0  0  0  0  0  0  0  0  0  0  0  0
   -6.6348   32.7906   41.5063 H   0  0  0  0  0  0  0  0  0  0  0  0
   -5.0044   34.6419   33.9369 H   0  0  0  0  0  0  0  0  0  0  0  0
   -4.4346   34.0080   32.3557 H   0  0  0  0  0  0  0  0  0  0  0  0
   -3.7406   35.7062   30.8755 H   0  0  0  0  0  0  0  0  0  0  0  0
   -1.5880   39.1560   32.2622 H   0  0  0  0  0  0  0  0  0  0  0  0
   -2.9678   36.2100   35.0771 H   0  0  0  0  0  0  0  0  0  0  0  0
   -5.3471   32.8913   34.8540 H   0  0  0  0  0  0  0  0  0  0  0  0
   -0.3480   28.7813   36.7730 H   0  0  0  0  0  0  0  0  0  0  0  0
   -0.9074   28.6361   35.0722 H   0  0  0  0  0  0  0  0  0  0  0  0
   -3.0449   27.3245   35.8872 H   0  0  0  0  0  0  0  0  0  0  0  0
   -2.4855   27.4697   37.5880 H   0  0  0  0  0  0  0  0  0  0  0  0
  1  2  1  0  0  0  0
  1 32  1  0  0  0  0
  1 33  1  0  0  0  0
  1 34  1  0  0  0  0
  2  3  1  0  0  0  0
  2 19  2  0  0  0  0
  3  4  1  0  0  0  0
  3 35  1  0  0  0  0
  4  5  1  0  0  0  0
  4 20  1  0  0  0  0
  4 36  1  1  0  0  0
  5  6  1  0  0  0  0
  5 29  1  0  0  0  0
  5 37  1  6  0  0  0
  6  7  1  0  0  0  0
  6 38  1  0  0  0  0
  6 39  1  0  0  0  0
  7  8  1  0  0  0  0
  7 40  1  0  0  0  0
  7 41  1  0  0  0  0
  8  9  1  0  0  0  0
  8 30  1  0  0  0  0
  8 31  1  0  0  0  0
  9 10  2  0  0  0  0
  9 13  1  0  0  0  0
 10 11  1  0  0  0  0
 10 42  1  0  0  0  0
 11 12  2  0  0  0  0
 11 14  1  0  0  0  0
 12 13  1  0  0  0  0
 12 43  1  0  0  0  0
 14 15  1  0  0  0  0
 14 44  1  0  0  0  0
 14 45  1  0  0  0  0
 15 16  1  0  0  0  0
 15 17  1  0  0  0  0
 15 18  1  0  0  0  0
 16 46  1  0  0  0  0
 16 47  1  0  0  0  0
 16 48  1  0  0  0  0
 17 49  1  0  0  0  0
 17 50  1  0  0  0  0
 17 51  1  0  0  0  0
 18 52  1  0  0  0  0
 18 53  1  0  0  0  0
 18 54  1  0  0  0  0
 20 21  1  0  0  0  0
 20 55  1  0  0  0  0
 20 56  1  0  0  0  0
 21 22  2  0  0  0  0
 21 26  1  0  0  0  0
 22 23  1  0  0  0  0
 22 57  1  0  0  0  0
 23 24  2  0  0  0  0
 23 27  1  0  0  0  0
 24 25  1  0  0  0  0
 24 58  1  0  0  0  0
 25 26  2  0  0  0  0
 25 28  1  0  0  0  0
 26 59  1  0  0  0  0
 29 60  1  0  0  0  0
 30 31  1  0  0  0  0
 30 61  1  0  0  0  0
 30 62  1  0  0  0  0
 31 63  1  0  0  0  0
 31 64  1  0  0  0  0
M  CHG  1   7   1
M  END
