3nuu_ligand
 OpenBabel08222323343D

 20 21  0  0  0  0  0  0  0  0999 V2000
  -39.2290   16.0260   13.3800 C   0  0  0  0  0  0  0  0  0  0  0  0
  -42.1220   15.1380   11.1450 C   0  0  0  0  0  0  0  0  0  0  0  0
  -42.1300   13.6920   11.5750 C   0  0  0  0  0  0  0  0  0  0  0  0
  -41.2070   15.9100   12.0280 C   0  0  0  0  0  0  0  0  0  0  0  0
  -40.0850   15.3180   12.5660 C   0  0  0  0  0  0  0  0  0  0  0  0
  -40.6120   17.9500   13.1360 C   0  0  0  0  0  0  0  0  0  0  0  0
  -39.4930   17.3470   13.6690 C   0  0  0  0  0  0  0  0  0  0  0  0
  -41.4670   17.2360   12.3160 C   0  0  0  0  0  0  0  0  0  0  0  0
  -39.7650   13.9060   12.2770 C   0  0  0  0  0  0  0  0  0  0  0  0
  -40.7910   13.1710   11.7300 N   0  0  0  0  0  0  0  0  0  0  0  0
  -38.6410   13.4850   12.5230 O   0  0  0  0  0  0  0  0  0  0  0  0
  -38.3494   15.5450   13.7924 H   0  0  0  0  0  0  0  0  0  0  0  0
  -43.1393   15.5493   11.2211 H   0  0  0  0  0  0  0  0  0  0  0  0
  -41.7744   15.2095   10.1038 H   0  0  0  0  0  0  0  0  0  0  0  0
  -42.6577   13.0973   10.8148 H   0  0  0  0  0  0  0  0  0  0  0  0
  -42.6577   13.6093   12.5366 H   0  0  0  0  0  0  0  0  0  0  0  0
  -40.8231   18.9893   13.3606 H   0  0  0  0  0  0  0  0  0  0  0  0
  -38.8247   17.9087   14.3116 H   0  0  0  0  0  0  0  0  0  0  0  0
  -42.3434   17.7181   11.8982 H   0  0  0  0  0  0  0  0  0  0  0  0
  -40.6024   12.2369   11.4269 H   0  0  0  0  0  0  0  0  0  0  0  0
  1  7  1  0  0  0  0
  1 12  1  0  0  0  0
  2  3  1  0  0  0  0
  2 13  1  0  0  0  0
  2 14  1  0  0  0  0
  3 10  1  0  0  0  0
  3 15  1  0  0  0  0
  3 16  1  0  0  0  0
  4  2  1  0  0  0  0
  4  5  1  0  0  0  0
  4  8  2  0  0  0  0
  5  1  2  0  0  0  0
  5  9  1  0  0  0  0
  6  8  1  0  0  0  0
  6 17  1  0  0  0  0
  7  6  2  0  0  0  0
  7 18  1  0  0  0  0
  8 19  1  0  0  0  0
  9 10  1  0  0  0  0
  9 11  2  0  0  0  0
 10 20  1  0  0  0  0
M  END
