3nwb_ligand
 OpenBabel08222323343D

 63 67  0  0  1  0  0  0  0  0999 V2000
   -3.1670   20.6380   14.4800 C   0  0  2  0  0  0  0  0  0  0  0  0
   -3.7600   21.3440   15.6780 C   0  0  1  0  0  0  0  0  0  0  0  0
   -5.0940   21.5650   15.1430 C   0  0  2  0  0  0  0  0  0  0  0  0
   -4.8370   22.0780   13.8060 C   0  0  1  0  0  0  0  0  0  0  0  0
   -3.6750   21.3130   13.3460 O   0  0  0  0  0  0  0  0  0  0  0  0
   -3.7160   20.4900   16.7630 F   0  0  0  0  0  0  0  0  0  0  0  0
   -5.8360   22.4750   15.8990 O   0  0  0  0  0  0  0  0  0  0  0  0
   -3.5020   19.1660   14.4640 C   0  0  0  0  0  0  0  0  0  0  0  0
    1.8380   13.9320   14.1710 C   0  0  0  0  0  0  0  0  0  0  0  0
    1.8140   12.7340   14.8920 C   0  0  0  0  0  0  0  0  0  0  0  0
    0.6040   12.2180   15.4080 C   0  0  0  0  0  0  0  0  0  0  0  0
   -0.5760   12.9510   15.1280 C   0  0  0  0  0  0  0  0  0  0  0  0
   -0.5610   14.1130   14.4010 C   0  0  0  0  0  0  0  0  0  0  0  0
    0.6540   14.6300   13.9170 C   0  0  0  0  0  0  0  0  0  0  0  0
    0.5670   10.9790   16.1650 C   0  0  0  0  0  0  0  0  0  0  0  0
   -0.3360   10.8120   17.2110 C   0  0  0  0  0  0  0  0  0  0  0  0
   -0.3490    9.6580   17.9310 C   0  0  0  0  0  0  0  0  0  0  0  0
    0.5080    8.6150   17.5970 C   0  0  0  0  0  0  0  0  0  0  0  0
    1.3970    8.7620   16.5680 C   0  0  0  0  0  0  0  0  0  0  0  0
    1.3740    9.9440   15.8470 C   0  0  0  0  0  0  0  0  0  0  0  0
    0.7860   15.7610   13.1340 O   0  0  0  0  0  0  0  0  0  0  0  0
    3.0130   14.4530   13.6750 O   0  0  0  0  0  0  0  0  0  0  0  0
    0.5060    7.4920   18.3100 F   0  0  0  0  0  0  0  0  0  0  0  0
   -1.8640   14.7980   14.2290 C   0  0  0  0  0  0  0  0  0  0  0  0
   -1.8380   16.0890   13.7970 N   0  0  0  0  0  0  0  0  0  0  0  0
   -2.9110   14.2920   14.5160 O   0  0  0  0  0  0  0  0  0  0  0  0
   -3.1000   16.8630   13.6920 C   0  0  0  0  0  0  0  0  0  0  0  0
   -2.7180   18.2880   13.8240 C   0  0  0  0  0  0  0  0  0  0  0  0
   -5.8610   21.8580   12.8170 N   0  0  0  0  0  0  0  0  0  0  0  0
   -7.2260   20.8400   11.4210 N   0  0  0  0  0  0  0  0  0  0  0  0
   -6.4270   20.6750   12.5050 C   0  0  0  0  0  0  0  0  0  0  0  0
   -7.1050   22.1580   11.0350 C   0  0  0  0  0  0  0  0  0  0  0  0
   -6.2550   22.7920   11.8960 C   0  0  0  0  0  0  0  0  0  0  0  0
   -5.9360   24.0860   11.7750 N   0  0  0  0  0  0  0  0  0  0  0  0
   -6.5080   24.7620   10.7430 C   0  0  0  0  0  0  0  0  0  0  0  0
   -7.3510   24.1660    9.8510 N   0  0  0  0  0  0  0  0  0  0  0  0
   -7.6870   22.8980   10.0000 C   0  0  0  0  0  0  0  0  0  0  0  0
   -8.6030   22.3980    9.0730 N   0  0  0  0  0  0  0  0  0  0  0  0
   -9.1110   21.0490    9.1470 C   0  0  0  0  0  0  0  0  0  0  0  0
   -2.0719   20.7386   14.5033 H   0  0  0  0  0  0  0  0  0  0  0  0
   -3.2512   22.2883   15.9219 H   0  0  0  0  0  0  0  0  0  0  0  0
   -5.6463   20.6150   15.0931 H   0  0  0  0  0  0  0  0  0  0  0  0
   -4.6184   23.1545   13.8642 H   0  0  0  0  0  0  0  0  0  0  0  0
   -5.3538   23.2901   15.9740 H   0  0  0  0  0  0  0  0  0  0  0  0
   -4.3936   18.8128   14.9800 H   0  0  0  0  0  0  0  0  0  0  0  0
    2.7384   12.1926   15.0577 H   0  0  0  0  0  0  0  0  0  0  0  0
   -1.5235   12.5799   15.5017 H   0  0  0  0  0  0  0  0  0  0  0  0
   -1.0329   11.6062   17.4532 H   0  0  0  0  0  0  0  0  0  0  0  0
   -1.0296    9.5510   18.7679 H   0  0  0  0  0  0  0  0  0  0  0  0
    2.1006    7.9744   16.3235 H   0  0  0  0  0  0  0  0  0  0  0  0
    2.0317   10.0427   14.9910 H   0  0  0  0  0  0  0  0  0  0  0  0
    1.7045   15.9031   12.9371 H   0  0  0  0  0  0  0  0  0  0  0  0
    3.1526   15.3193   14.0392 H   0  0  0  0  0  0  0  0  0  0  0  0
   -0.9680   16.5159   13.5503 H   0  0  0  0  0  0  0  0  0  0  0  0
   -3.7920   16.5768   14.4978 H   0  0  0  0  0  0  0  0  0  0  0  0
   -3.5779   16.6843   12.7175 H   0  0  0  0  0  0  0  0  0  0  0  0
   -1.7789   18.6297   13.3912 H   0  0  0  0  0  0  0  0  0  0  0  0
   -6.2685   19.7382   13.0371 H   0  0  0  0  0  0  0  0  0  0  0  0
   -6.2854   25.8162   10.6243 H   0  0  0  0  0  0  0  0  0  0  0  0
   -8.9268   23.0115    8.3116 H   0  0  0  0  0  0  0  0  0  0  0  0
   -9.8145   20.8762    8.3192 H   0  0  0  0  0  0  0  0  0  0  0  0
   -9.6306   20.9049   10.1058 H   0  0  0  0  0  0  0  0  0  0  0  0
   -8.2752   20.3378    9.0723 H   0  0  0  0  0  0  0  0  0  0  0  0
  1  2  1  0  0  0  0
  1  5  1  0  0  0  0
  1 40  1  1  0  0  0
  2  3  1  0  0  0  0
  2  6  1  0  0  0  0
  2 41  1  1  0  0  0
  3  7  1  0  0  0  0
  3 42  1  6  0  0  0
  4  3  1  0  0  0  0
  4 29  1  0  0  0  0
  4 43  1  1  0  0  0
  5  4  1  0  0  0  0
  7 44  1  0  0  0  0
  8  1  1  0  0  0  0
  8 45  1  0  0  0  0
  9 10  2  0  0  0  0
  9 22  1  0  0  0  0
 10 46  1  0  0  0  0
 11 10  1  0  0  0  0
 11 15  1  0  0  0  0
 12 11  2  0  0  0  0
 12 47  1  0  0  0  0
 13 12  1  0  0  0  0
 13 14  2  0  0  0  0
 14  9  1  0  0  0  0
 14 21  1  0  0  0  0
 15 16  2  0  0  0  0
 15 20  1  0  0  0  0
 16 17  1  0  0  0  0
 16 48  1  0  0  0  0
 17 18  2  0  0  0  0
 17 49  1  0  0  0  0
 18 23  1  0  0  0  0
 19 18  1  0  0  0  0
 19 50  1  0  0  0  0
 20 19  2  0  0  0  0
 20 51  1  0  0  0  0
 21 52  1  0  0  0  0
 22 53  1  0  0  0  0
 24 13  1  0  0  0  0
 24 26  2  0  0  0  0
 25 24  1  0  0  0  0
 25 54  1  0  0  0  0
 27 25  1  0  0  0  0
 27 28  1  0  0  0  0
 27 55  1  0  0  0  0
 27 56  1  0  0  0  0
 28  8  2  0  0  0  0
 28 57  1  0  0  0  0
 29 31  1  0  0  0  0
 29 33  1  0  0  0  0
 30 32  1  0  0  0  0
 31 30  2  0  0  0  0
 31 58  1  0  0  0  0
 32 33  2  0  0  0  0
 32 37  1  0  0  0  0
 33 34  1  0  0  0  0
 34 35  2  0  0  0  0
 35 36  1  0  0  0  0
 35 59  1  0  0  0  0
 36 37  2  0  0  0  0
 37 38  1  0  0  0  0
 38 39  1  0  0  0  0
 38 60  1  0  0  0  0
 39 61  1  0  0  0  0
 39 62  1  0  0  0  0
 39 63  1  0  0  0  0
M  END
