3o6l_ligand
 OpenBabel08222323343D

239245  0  0  1  0  0  0  0  0999 V2000
   57.4660   12.9520   -5.1790 N   0  3  0  0  0  0  0  0  0  0  0  0
   58.2910   14.1290   -4.7070 C   0  0  2  0  0  0  0  0  0  0  0  0
   57.4210   15.4030   -4.8780 C   0  0  0  0  0  0  0  0  0  0  0  0
   56.2440   15.3560   -4.4690 O   0  0  0  0  0  0  0  0  0  0  0  0
   59.6630   14.1940   -5.4350 C   0  0  0  0  0  0  0  0  0  0  0  0
   60.2510   12.8440   -5.9960 C   0  0  0  0  0  0  0  0  0  0  0  0
   60.0120   11.6240   -5.0950 C   0  0  0  0  0  0  0  0  0  0  0  0
   59.2220   10.7350   -5.4970 O   0  5  0  0  0  0  0  0  0  0  0  0
   60.6010   11.5700   -3.9840 O   0  0  0  0  0  0  0  0  0  0  0  0
   57.9610   16.5330   -5.4520 N   0  0  0  0  0  0  0  0  0  0  0  0
   56.9580   17.5430   -5.8770 C   0  0  2  0  0  0  0  0  0  0  0  0
   55.6720   17.0060   -6.6810 C   0  0  0  0  0  0  0  0  0  0  0  0
   54.5690   17.1890   -6.1370 O   0  0  0  0  0  0  0  0  0  0  0  0
   57.8030   18.6230   -6.5800 C   0  0  0  0  0  0  0  0  0  0  0  0
   59.1430   18.5400   -5.9010 C   0  0  0  0  0  0  0  0  0  0  0  0
   59.3310   17.1170   -5.4240 C   0  0  0  0  0  0  0  0  0  0  0  0
   55.6950   16.3730   -7.8820 N   0  0  0  0  0  0  0  0  0  0  0  0
   56.7010   16.2460   -8.9750 C   0  0  2  0  0  0  0  0  0  0  0  0
   56.0810   15.2590  -10.0000 C   0  0  0  0  0  0  0  0  0  0  0  0
   55.8390   15.6440  -11.1460 O   0  0  0  0  0  0  0  0  0  0  0  0
   58.1650   15.8260   -8.5420 C   0  0  0  0  0  0  0  0  0  0  0  0
   58.4660   14.3330   -8.7730 C   0  0  0  0  0  0  0  0  0  0  0  0
   59.1930   16.6820   -9.2500 C   0  0  0  0  0  0  0  0  0  0  0  0
   55.7500   14.0380   -9.5410 N   0  0  0  0  0  0  0  0  0  0  0  0
   55.4140   12.8610  -10.4030 C   0  0  2  0  0  0  0  0  0  0  0  0
   53.8850   12.6170  -10.6130 C   0  0  0  0  0  0  0  0  0  0  0  0
   53.0830   13.4340  -10.1260 O   0  0  0  0  0  0  0  0  0  0  0  0
   56.1380   11.5750   -9.9000 C   0  0  0  0  0  0  0  0  0  0  0  0
   55.6960   11.1300   -8.4850 C   0  0  0  0  0  0  0  0  0  0  0  0
   54.7840   10.2640   -8.3920 O   0  5  0  0  0  0  0  0  0  0  0  0
   56.2720   11.6250   -7.4750 O   0  0  0  0  0  0  0  0  0  0  0  0
   53.4740   11.5040  -11.3310 N   0  0  0  0  0  0  0  0  0  0  0  0
   52.0000   11.2930  -11.5050 C   0  0  2  0  0  0  0  0  0  0  0  0
   51.3190   10.7600  -10.2440 C   0  0  0  0  0  0  0  0  0  0  0  0
   50.0840   10.8250  -10.1600 O   0  0  0  0  0  0  0  0  0  0  0  0
   51.8880   10.3080  -12.6830 C   0  0  0  0  0  0  0  0  0  0  0  0
   53.3140   10.0540  -13.1610 C   0  0  0  0  0  0  0  0  0  0  0  0
   54.2360   10.4260  -12.0010 C   0  0  0  0  0  0  0  0  0  0  0  0
   52.1270   10.2720   -9.2810 N   0  0  0  0  0  0  0  0  0  0  0  0
   51.6460    9.9120   -7.9420 C   0  0  2  0  0  0  0  0  0  0  0  0
   50.6960    8.7110   -8.0010 C   0  0  0  0  0  0  0  0  0  0  0  0
   49.6880    8.6720   -7.2930 O   0  0  0  0  0  0  0  0  0  0  0  0
   50.9260   11.1120   -7.3380 C   0  0  0  0  0  0  0  0  0  0  0  0
   51.8730   12.2510   -6.8500 C   0  0  0  0  0  0  0  0  0  0  0  0
   51.0720   13.3930   -6.2470 C   0  0  0  0  0  0  0  0  0  0  0  0
   51.9560   14.6360   -6.1260 C   0  0  0  0  0  0  0  0  0  0  0  0
   51.1230   15.8010   -6.5190 N   0  3  0  0  0  0  0  0  0  0  0  0
   51.0140    7.7580   -8.8850 N   0  0  0  0  0  0  0  0  0  0  0  0
   50.1780    6.6060   -9.1430 C   0  0  2  0  0  0  0  0  0  0  0  0
   50.7660    5.4180   -8.4100 C   0  0  0  0  0  0  0  0  0  0  0  0
   51.9500    5.4190   -8.0390 O   0  0  0  0  0  0  0  0  0  0  0  0
   50.1450    6.3110  -10.6360 C   0  0  0  0  0  0  0  0  0  0  0  0
   49.3640    7.2530  -11.5420 C   0  0  0  0  0  0  0  0  0  0  0  0
   49.8500    7.0550  -12.9970 C   0  0  0  0  0  0  0  0  0  0  0  0
   47.8920    6.9880  -11.4410 C   0  0  0  0  0  0  0  0  0  0  0  0
   49.9370    4.3960   -8.2130 N   0  0  0  0  0  0  0  0  0  0  0  0
   50.3520    3.1700   -7.5490 C   0  0  2  0  0  0  0  0  0  0  0  0
   51.1960    2.3320   -8.5190 C   0  0  0  0  0  0  0  0  0  0  0  0
   51.0940    2.5260   -9.7240 O   0  0  0  0  0  0  0  0  0  0  0  0
   49.1050    2.4040   -7.1370 C   0  0  0  0  0  0  0  0  0  0  0  0
   48.3350    3.0050   -5.8820 C   0  0  0  0  0  0  0  0  0  0  0  0
   46.8160    2.8110   -6.0200 C   0  0  0  0  0  0  0  0  0  0  0  0
   46.2510    2.2040   -5.1200 O   0  5  0  0  0  0  0  0  0  0  0  0
   46.2130    3.2450   -7.0430 O   0  0  0  0  0  0  0  0  0  0  0  0
   52.0150    1.4120   -7.9940 N   0  0  0  0  0  0  0  0  0  0  0  0
   53.0040    0.6750   -8.7800 C   0  0  2  0  0  0  0  0  0  0  0  0
   52.4410   -0.1200   -9.9460 C   0  0  0  0  0  0  0  0  0  0  0  0
   53.1980   -0.3920  -10.8720 O   0  0  0  0  0  0  0  0  0  0  0  0
   53.6090   -0.2970   -7.7540 C   0  0  0  0  0  0  0  0  0  0  0  0
   53.4930    0.4370   -6.4760 C   0  0  0  0  0  0  0  0  0  0  0  0
   52.1380    1.0630   -6.5580 C   0  0  0  0  0  0  0  0  0  0  0  0
   51.1540   -0.4490   -9.9500 N   0  0  0  0  0  0  0  0  0  0  0  0
   50.6270   -1.3630  -10.9840 C   0  0  2  0  0  0  0  0  0  0  0  0
   49.9290   -0.5970  -12.0350 C   0  0  0  0  0  0  0  0  0  0  0  0
   49.4150   -1.1570  -12.9920 O   0  0  0  0  0  0  0  0  0  0  0  0
   49.6910   -2.4310  -10.3630 C   0  0  0  0  0  0  0  0  0  0  0  0
   48.7520   -1.8130   -9.3300 C   0  0  0  0  0  0  0  0  0  0  0  0
   48.9910   -1.6560   -7.9720 C   0  0  0  0  0  0  0  0  0  0  0  0
   47.4550   -1.2400   -9.5820 C   0  0  0  0  0  0  0  0  0  0  0  0
   47.9060   -1.0420   -7.3900 N   0  0  0  0  0  0  0  0  0  0  0  0
   46.9720   -0.7400   -8.3490 C   0  0  0  0  0  0  0  0  0  0  0  0
   46.6450   -1.1090  -10.7360 C   0  0  0  0  0  0  0  0  0  0  0  0
   45.6920   -0.1660   -8.2180 C   0  0  0  0  0  0  0  0  0  0  0  0
   45.3820   -0.4860  -10.6190 C   0  0  0  0  0  0  0  0  0  0  0  0
   44.9290   -0.0210   -9.3380 C   0  0  0  0  0  0  0  0  0  0  0  0
   49.9070    0.7210  -11.8850 N   0  0  0  0  0  0  0  0  0  0  0  0
   49.3310    1.5700  -12.9000 C   0  0  2  0  0  0  0  0  0  0  0  0
   50.3540    1.8110  -14.0130 C   0  0  0  0  0  0  0  0  0  0  0  0
   51.5330    1.9420  -13.7370 O   0  0  0  0  0  0  0  0  0  0  0  0
   48.9390    2.9160  -12.3210 C   0  0  0  0  0  0  0  0  0  0  0  0
   47.7950    2.8620  -11.2960 C   0  0  0  0  0  0  0  0  0  0  0  0
   46.4710    2.7970  -12.0310 C   0  0  0  0  0  0  0  0  0  0  0  0
   45.3040    3.0320  -10.9830 C   0  0  0  0  0  0  0  0  0  0  0  0
   45.0560    4.4870  -10.6860 N   0  3  0  0  0  0  0  0  0  0  0  0
   49.8620    1.8890  -15.2430 N   0  0  0  0  0  0  0  0  0  0  0  0
   50.6550    2.3160  -16.3730 C   0  0  2  0  0  0  0  0  0  0  0  0
   50.3330    3.7910  -16.5580 C   0  0  0  0  0  0  0  0  0  0  0  0
   49.1510    4.1400  -16.6530 O   0  0  0  0  0  0  0  0  0  0  0  0
   50.3180    1.4510  -17.5940 C   0  0  0  0  0  0  0  0  0  0  0  0
   50.6370   -0.0070  -17.3680 C   0  0  0  0  0  0  0  0  0  0  0  0
   49.6740   -0.9510  -17.0490 N   0  0  0  0  0  0  0  0  0  0  0  0
   51.8240   -0.6590  -17.3100 C   0  0  0  0  0  0  0  0  0  0  0  0
   50.2480   -2.1250  -16.8460 C   0  0  0  0  0  0  0  0  0  0  0  0
   51.5530   -1.9720  -16.9860 N   0  0  0  0  0  0  0  0  0  0  0  0
   51.3580    4.6690  -16.5850 N   0  0  0  0  0  0  0  0  0  0  0  0
   51.0320    6.1240  -16.6240 C   0  0  2  0  0  0  0  0  0  0  0  0
   50.2030    6.4360  -17.8720 C   0  0  0  0  0  0  0  0  0  0  0  0
   50.5340    5.9290  -18.9550 O   0  0  0  0  0  0  0  0  0  0  0  0
   52.3890    6.8330  -16.6420 C   0  0  0  0  0  0  0  0  0  0  0  0
   53.4730    5.7100  -16.6220 C   0  0  0  0  0  0  0  0  0  0  0  0
   52.7950    4.3730  -16.7630 C   0  0  0  0  0  0  0  0  0  0  0  0
   49.0940    7.1770  -17.6890 N   0  0  0  0  0  0  0  0  0  0  0  0
   48.0550    7.4140  -18.7280 C   0  0  0  0  0  0  0  0  0  0  0  0
   48.3900    8.5480  -19.7130 C   0  0  0  0  0  0  0  0  0  0  0  0
   49.3750    9.2880  -19.5300 O   0  0  0  0  0  0  0  0  0  0  0  0
   47.5870    8.6760  -20.7720 N   0  0  0  0  0  0  0  0  0  0  0  0
   47.7840    9.7500  -21.7490 C   0  0  2  0  0  0  0  0  0  0  0  0
   46.7350   10.8790  -21.6000 C   0  0  0  0  0  0  0  0  0  0  0  0
   46.0700   10.9950  -20.5560 O   0  5  0  0  0  0  0  0  0  0  0  0
   47.7990    9.1800  -23.1670 C   0  0  0  0  0  0  0  0  0  0  0  0
   46.4960    9.2550  -23.7250 O   0  0  0  0  0  0  0  0  0  0  0  0
   46.5390   11.6900  -22.5220 O   0  0  0  0  0  0  0  0  0  0  0  0
   58.0030   12.1046   -5.0814 H   0  0  0  0  0  0  0  0  0  0  0  0
   57.2174   13.0826   -6.1471 H   0  0  0  0  0  0  0  0  0  0  0  0
   56.6279   12.8846   -4.6230 H   0  0  0  0  0  0  0  0  0  0  0  0
   58.4987   14.0015   -3.6344 H   0  0  0  0  0  0  0  0  0  0  0  0
   60.3954   14.6021   -4.7229 H   0  0  0  0  0  0  0  0  0  0  0  0
   59.5534   14.8843   -6.2844 H   0  0  0  0  0  0  0  0  0  0  0  0
   61.3363   12.9689   -6.1249 H   0  0  0  0  0  0  0  0  0  0  0  0
   59.7861   12.6462   -6.9731 H   0  0  0  0  0  0  0  0  0  0  0  0
   56.5465   17.9949   -4.9624 H   0  0  0  0  0  0  0  0  0  0  0  0
   57.3566   19.6189   -6.4425 H   0  0  0  0  0  0  0  0  0  0  0  0
   57.8959   18.4079   -7.6548 H   0  0  0  0  0  0  0  0  0  0  0  0
   59.1718   19.2290   -5.0440 H   0  0  0  0  0  0  0  0  0  0  0  0
   59.9398   18.8050   -6.6115 H   0  0  0  0  0  0  0  0  0  0  0  0
   60.0029   16.5660   -6.0984 H   0  0  0  0  0  0  0  0  0  0  0  0
   59.7408   17.0996   -4.4034 H   0  0  0  0  0  0  0  0  0  0  0  0
   54.8463   15.8814   -8.0773 H   0  0  0  0  0  0  0  0  0  0  0  0
   56.7937   17.2311   -9.4555 H   0  0  0  0  0  0  0  0  0  0  0  0
   58.2533   16.0150   -7.4620 H   0  0  0  0  0  0  0  0  0  0  0  0
   59.4947   14.1124   -8.4518 H   0  0  0  0  0  0  0  0  0  0  0  0
   58.3574   14.0982   -9.8421 H   0  0  0  0  0  0  0  0  0  0  0  0
   57.7609   13.7223   -8.1900 H   0  0  0  0  0  0  0  0  0  0  0  0
   58.9669   17.7446   -9.0773 H   0  0  0  0  0  0  0  0  0  0  0  0
   59.1645   16.4718  -10.3293 H   0  0  0  0  0  0  0  0  0  0  0  0
   60.1946   16.4518   -8.8579 H   0  0  0  0  0  0  0  0  0  0  0  0
   55.7267   13.9071   -8.5499 H   0  0  0  0  0  0  0  0  0  0  0  0
   55.8239   13.0856  -11.3987 H   0  0  0  0  0  0  0  0  0  0  0  0
   57.2204   11.7698   -9.8812 H   0  0  0  0  0  0  0  0  0  0  0  0
   55.9247   10.7575  -10.6043 H   0  0  0  0  0  0  0  0  0  0  0  0
   51.5218   12.2467  -11.7727 H   0  0  0  0  0  0  0  0  0  0  0  0
   51.2870   10.7480  -13.4924 H   0  0  0  0  0  0  0  0  0  0  0  0
   51.4237    9.3676  -12.3512 H   0  0  0  0  0  0  0  0  0  0  0  0
   53.5371   10.6787  -14.0385 H   0  0  0  0  0  0  0  0  0  0  0  0
   53.4431    8.9936  -13.4234 H   0  0  0  0  0  0  0  0  0  0  0  0
   54.3944    9.5711  -11.3272 H   0  0  0  0  0  0  0  0  0  0  0  0
   55.2078   10.7910  -12.3649 H   0  0  0  0  0  0  0  0  0  0  0  0
   53.0976   10.1499   -9.4886 H   0  0  0  0  0  0  0  0  0  0  0  0
   52.5080    9.6511   -7.3104 H   0  0  0  0  0  0  0  0  0  0  0  0
   50.3361   10.7625   -6.4778 H   0  0  0  0  0  0  0  0  0  0  0  0
   50.2513   11.5283   -8.1005 H   0  0  0  0  0  0  0  0  0  0  0  0
   52.4538   12.6288   -7.7044 H   0  0  0  0  0  0  0  0  0  0  0  0
   52.5587   11.8496   -6.0893 H   0  0  0  0  0  0  0  0  0  0  0  0
   50.7134   13.1010   -5.2490 H   0  0  0  0  0  0  0  0  0  0  0  0
   50.2117   13.6179   -6.8945 H   0  0  0  0  0  0  0  0  0  0  0  0
   52.8240   14.5490   -6.7961 H   0  0  0  0  0  0  0  0  0  0  0  0
   52.3036   14.7529   -5.0890 H   0  0  0  0  0  0  0  0  0  0  0  0
   51.6716   16.6440   -6.4525 H   0  0  0  0  0  0  0  0  0  0  0  0
   50.3276   15.8683   -5.9034 H   0  0  0  0  0  0  0  0  0  0  0  0
   50.8044   15.6815   -7.4678 H   0  0  0  0  0  0  0  0  0  0  0  0
   51.8714    7.8465   -9.3920 H   0  0  0  0  0  0  0  0  0  0  0  0
   49.1567    6.7996   -8.7834 H   0  0  0  0  0  0  0  0  0  0  0  0
   49.7124    5.3073  -10.7599 H   0  0  0  0  0  0  0  0  0  0  0  0
   51.1864    6.3078  -10.9902 H   0  0  0  0  0  0  0  0  0  0  0  0
   49.5580    8.2912  -11.2347 H   0  0  0  0  0  0  0  0  0  0  0  0
   49.2940    7.7299  -13.6643 H   0  0  0  0  0  0  0  0  0  0  0  0
   49.6770    6.0126  -13.3028 H   0  0  0  0  0  0  0  0  0  0  0  0
   50.9246    7.2817  -13.0587 H   0  0  0  0  0  0  0  0  0  0  0  0
   47.5638    7.1332  -10.4012 H   0  0  0  0  0  0  0  0  0  0  0  0
   47.6837    5.9531  -11.7501 H   0  0  0  0  0  0  0  0  0  0  0  0
   47.3483    7.6833  -12.0975 H   0  0  0  0  0  0  0  0  0  0  0  0
   48.9929    4.4737   -8.5335 H   0  0  0  0  0  0  0  0  0  0  0  0
   50.9493    3.4113   -6.6574 H   0  0  0  0  0  0  0  0  0  0  0  0
   49.4017    1.3730   -6.8943 H   0  0  0  0  0  0  0  0  0  0  0  0
   48.4118    2.3947   -7.9910 H   0  0  0  0  0  0  0  0  0  0  0  0
   48.5545    4.0802   -5.8069 H   0  0  0  0  0  0  0  0  0  0  0  0
   48.6809    2.4956   -4.9705 H   0  0  0  0  0  0  0  0  0  0  0  0
   53.7663    1.3690   -9.1638 H   0  0  0  0  0  0  0  0  0  0  0  0
   54.6615   -0.5130   -7.9896 H   0  0  0  0  0  0  0  0  0  0  0  0
   53.0402   -1.2379   -7.7204 H   0  0  0  0  0  0  0  0  0  0  0  0
   54.2765    1.2043   -6.3902 H   0  0  0  0  0  0  0  0  0  0  0  0
   53.5577   -0.2506   -5.6198 H   0  0  0  0  0  0  0  0  0  0  0  0
   51.3554    0.3514   -6.2561 H   0  0  0  0  0  0  0  0  0  0  0  0
   52.0795    1.9619   -5.9267 H   0  0  0  0  0  0  0  0  0  0  0  0
   50.5413   -0.0776   -9.2524 H   0  0  0  0  0  0  0  0  0  0  0  0
   51.4780   -1.8842  -11.4466 H   0  0  0  0  0  0  0  0  0  0  0  0
   50.3031   -3.2031   -9.8740 H   0  0  0  0  0  0  0  0  0  0  0  0
   49.0914   -2.8904  -11.1626 H   0  0  0  0  0  0  0  0  0  0  0  0
   49.8940   -1.9691   -7.4499 H   0  0  0  0  0  0  0  0  0  0  0  0
   47.8092   -0.8393   -6.3848 H   0  0  0  0  0  0  0  0  0  0  0  0
   46.9885   -1.4809  -11.6945 H   0  0  0  0  0  0  0  0  0  0  0  0
   45.3229    0.1526   -7.2498 H   0  0  0  0  0  0  0  0  0  0  0  0
   44.7560   -0.3593  -11.4949 H   0  0  0  0  0  0  0  0  0  0  0  0
   43.9587    0.4559   -9.2601 H   0  0  0  0  0  0  0  0  0  0  0  0
   50.2940    1.1309  -11.0591 H   0  0  0  0  0  0  0  0  0  0  0  0
   48.4398    1.0781  -13.3170 H   0  0  0  0  0  0  0  0  0  0  0  0
   48.6267    3.5684  -13.1498 H   0  0  0  0  0  0  0  0  0  0  0  0
   49.8221    3.3476  -11.8272 H   0  0  0  0  0  0  0  0  0  0  0  0
   47.8223    3.7633  -10.6661 H   0  0  0  0  0  0  0  0  0  0  0  0
   47.9091    1.9691  -10.6637 H   0  0  0  0  0  0  0  0  0  0  0  0
   46.3550    1.8091  -12.5007 H   0  0  0  0  0  0  0  0  0  0  0  0
   46.4374    3.5774  -12.8054 H   0  0  0  0  0  0  0  0  0  0  0  0
   45.5700    2.5242  -10.0442 H   0  0  0  0  0  0  0  0  0  0  0  0
   44.3787    2.5952  -11.3867 H   0  0  0  0  0  0  0  0  0  0  0  0
   44.3068    4.5703  -10.0168 H   0  0  0  0  0  0  0  0  0  0  0  0
   44.8017    4.9649  -11.5363 H   0  0  0  0  0  0  0  0  0  0  0  0
   45.8934    4.8999  -10.3060 H   0  0  0  0  0  0  0  0  0  0  0  0
   48.9047    1.6425  -15.3938 H   0  0  0  0  0  0  0  0  0  0  0  0
   51.7261    2.2025  -16.1497 H   0  0  0  0  0  0  0  0  0  0  0  0
   50.9006    1.8114  -18.4546 H   0  0  0  0  0  0  0  0  0  0  0  0
   49.2441    1.5487  -17.8113 H   0  0  0  0  0  0  0  0  0  0  0  0
   52.8079   -0.2268  -17.4863 H   0  0  0  0  0  0  0  0  0  0  0  0
   49.7350   -3.0550  -16.6056 H   0  0  0  0  0  0  0  0  0  0  0  0
   52.2565   -2.7155  -16.8713 H   0  0  0  0  0  0  0  0  0  0  0  0
   50.4633    6.4176  -15.7294 H   0  0  0  0  0  0  0  0  0  0  0  0
   52.4931    7.4780  -15.7571 H   0  0  0  0  0  0  0  0  0  0  0  0
   52.4883    7.4415  -17.5530 H   0  0  0  0  0  0  0  0  0  0  0  0
   54.0239    5.7458  -15.6706 H   0  0  0  0  0  0  0  0  0  0  0  0
   54.1734    5.8583  -17.4571 H   0  0  0  0  0  0  0  0  0  0  0  0
   52.9837    3.9439  -17.7581 H   0  0  0  0  0  0  0  0  0  0  0  0
   53.1473    3.6745  -15.9897 H   0  0  0  0  0  0  0  0  0  0  0  0
   48.9588    7.5977  -16.7919 H   0  0  0  0  0  0  0  0  0  0  0  0
   47.1120    7.6660  -18.2208 H   0  0  0  0  0  0  0  0  0  0  0  0
   47.9252    6.4855  -19.3033 H   0  0  0  0  0  0  0  0  0  0  0  0
   46.8373    8.0269  -20.9007 H   0  0  0  0  0  0  0  0  0  0  0  0
   48.7717   10.1947  -21.5577 H   0  0  0  0  0  0  0  0  0  0  0  0
   48.1237    8.1295  -23.1357 H   0  0  0  0  0  0  0  0  0  0  0  0
   48.4968    9.7612  -23.7877 H   0  0  0  0  0  0  0  0  0  0  0  0
   46.2161   10.1624  -23.7522 H   0  0  0  0  0  0  0  0  0  0  0  0
  1  2  1  0  0  0  0
  1123  1  0  0  0  0
  1124  1  0  0  0  0
  1125  1  0  0  0  0
  2  3  1  0  0  0  0
  2  5  1  0  0  0  0
  2126  1  1  0  0  0
  3  4  2  0  0  0  0
  3 10  1  0  0  0  0
  5  6  1  0  0  0  0
  5127  1  0  0  0  0
  5128  1  0  0  0  0
  6  7  1  0  0  0  0
  6129  1  0  0  0  0
  6130  1  0  0  0  0
  7  8  1  0  0  0  0
  7  9  2  0  0  0  0
 10 11  1  0  0  0  0
 10 16  1  0  0  0  0
 11 12  1  0  0  0  0
 11 14  1  0  0  0  0
 11131  1  1  0  0  0
 12 13  2  0  0  0  0
 12 17  1  0  0  0  0
 14 15  1  0  0  0  0
 14132  1  0  0  0  0
 14133  1  0  0  0  0
 15 16  1  0  0  0  0
 15134  1  0  0  0  0
 15135  1  0  0  0  0
 16136  1  0  0  0  0
 16137  1  0  0  0  0
 17 18  1  0  0  0  0
 17138  1  0  0  0  0
 18 19  1  0  0  0  0
 18 21  1  0  0  0  0
 18139  1  6  0  0  0
 19 20  2  0  0  0  0
 19 24  1  0  0  0  0
 21 22  1  0  0  0  0
 21 23  1  0  0  0  0
 21140  1  0  0  0  0
 22141  1  0  0  0  0
 22142  1  0  0  0  0
 22143  1  0  0  0  0
 23144  1  0  0  0  0
 23145  1  0  0  0  0
 23146  1  0  0  0  0
 24 25  1  0  0  0  0
 24147  1  0  0  0  0
 25 26  1  0  0  0  0
 25 28  1  0  0  0  0
 25148  1  6  0  0  0
 26 27  2  0  0  0  0
 26 32  1  0  0  0  0
 28 29  1  0  0  0  0
 28149  1  0  0  0  0
 28150  1  0  0  0  0
 29 30  1  0  0  0  0
 29 31  2  0  0  0  0
 32 33  1  0  0  0  0
 32 38  1  0  0  0  0
 33 34  1  0  0  0  0
 33 36  1  0  0  0  0
 33151  1  6  0  0  0
 34 35  2  0  0  0  0
 34 39  1  0  0  0  0
 36 37  1  0  0  0  0
 36152  1  0  0  0  0
 36153  1  0  0  0  0
 37 38  1  0  0  0  0
 37154  1  0  0  0  0
 37155  1  0  0  0  0
 38156  1  0  0  0  0
 38157  1  0  0  0  0
 39 40  1  0  0  0  0
 39158  1  0  0  0  0
 40 41  1  0  0  0  0
 40 43  1  0  0  0  0
 40159  1  1  0  0  0
 41 42  2  0  0  0  0
 41 48  1  0  0  0  0
 43 44  1  0  0  0  0
 43160  1  0  0  0  0
 43161  1  0  0  0  0
 44 45  1  0  0  0  0
 44162  1  0  0  0  0
 44163  1  0  0  0  0
 45 46  1  0  0  0  0
 45164  1  0  0  0  0
 45165  1  0  0  0  0
 46 47  1  0  0  0  0
 46166  1  0  0  0  0
 46167  1  0  0  0  0
 47168  1  0  0  0  0
 47169  1  0  0  0  0
 47170  1  0  0  0  0
 48 49  1  0  0  0  0
 48171  1  0  0  0  0
 49 50  1  0  0  0  0
 49 52  1  0  0  0  0
 49172  1  1  0  0  0
 50 51  2  0  0  0  0
 50 56  1  0  0  0  0
 52 53  1  0  0  0  0
 52173  1  0  0  0  0
 52174  1  0  0  0  0
 53 54  1  0  0  0  0
 53 55  1  0  0  0  0
 53175  1  0  0  0  0
 54176  1  0  0  0  0
 54177  1  0  0  0  0
 54178  1  0  0  0  0
 55179  1  0  0  0  0
 55180  1  0  0  0  0
 55181  1  0  0  0  0
 56 57  1  0  0  0  0
 56182  1  0  0  0  0
 57 58  1  0  0  0  0
 57 60  1  0  0  0  0
 57183  1  1  0  0  0
 58 59  2  0  0  0  0
 58 65  1  0  0  0  0
 60 61  1  0  0  0  0
 60184  1  0  0  0  0
 60185  1  0  0  0  0
 61 62  1  0  0  0  0
 61186  1  0  0  0  0
 61187  1  0  0  0  0
 62 63  1  0  0  0  0
 62 64  2  0  0  0  0
 65 66  1  0  0  0  0
 65 71  1  0  0  0  0
 66 67  1  0  0  0  0
 66 69  1  0  0  0  0
 66188  1  6  0  0  0
 67 68  2  0  0  0  0
 67 72  1  0  0  0  0
 69 70  1  0  0  0  0
 69189  1  0  0  0  0
 69190  1  0  0  0  0
 70 71  1  0  0  0  0
 70191  1  0  0  0  0
 70192  1  0  0  0  0
 71193  1  0  0  0  0
 71194  1  0  0  0  0
 72 73  1  0  0  0  0
 72195  1  0  0  0  0
 73 74  1  0  0  0  0
 73 76  1  0  0  0  0
 73196  1  6  0  0  0
 74 75  2  0  0  0  0
 74 86  1  0  0  0  0
 76 77  1  0  0  0  0
 76197  1  0  0  0  0
 76198  1  0  0  0  0
 77 78  2  0  0  0  0
 77 79  1  0  0  0  0
 78 80  1  0  0  0  0
 78199  1  0  0  0  0
 79 81  2  0  0  0  0
 79 82  1  0  0  0  0
 80 81  1  0  0  0  0
 80200  1  0  0  0  0
 81 83  1  0  0  0  0
 82 84  2  0  0  0  0
 82201  1  0  0  0  0
 83 85  2  0  0  0  0
 83202  1  0  0  0  0
 84 85  1  0  0  0  0
 84203  1  0  0  0  0
 85204  1  0  0  0  0
 86 87  1  0  0  0  0
 86205  1  0  0  0  0
 87 88  1  0  0  0  0
 87 90  1  0  0  0  0
 87206  1  6  0  0  0
 88 89  2  0  0  0  0
 88 95  1  0  0  0  0
 90 91  1  0  0  0  0
 90207  1  0  0  0  0
 90208  1  0  0  0  0
 91 92  1  0  0  0  0
 91209  1  0  0  0  0
 91210  1  0  0  0  0
 92 93  1  0  0  0  0
 92211  1  0  0  0  0
 92212  1  0  0  0  0
 93 94  1  0  0  0  0
 93213  1  0  0  0  0
 93214  1  0  0  0  0
 94215  1  0  0  0  0
 94216  1  0  0  0  0
 94217  1  0  0  0  0
 95 96  1  0  0  0  0
 95218  1  0  0  0  0
 96 97  1  0  0  0  0
 96 99  1  0  0  0  0
 96219  1  1  0  0  0
 97 98  2  0  0  0  0
 97105  1  0  0  0  0
 99100  1  0  0  0  0
 99220  1  0  0  0  0
 99221  1  0  0  0  0
100101  1  0  0  0  0
100102  2  0  0  0  0
101103  2  0  0  0  0
102104  1  0  0  0  0
102222  1  0  0  0  0
103104  1  0  0  0  0
103223  1  0  0  0  0
104224  1  0  0  0  0
105106  1  0  0  0  0
105111  1  0  0  0  0
106107  1  0  0  0  0
106109  1  0  0  0  0
106225  1  1  0  0  0
107108  2  0  0  0  0
107112  1  0  0  0  0
109110  1  0  0  0  0
109226  1  0  0  0  0
109227  1  0  0  0  0
110111  1  0  0  0  0
110228  1  0  0  0  0
110229  1  0  0  0  0
111230  1  0  0  0  0
111231  1  0  0  0  0
112113  1  0  0  0  0
112232  1  0  0  0  0
113114  1  0  0  0  0
113233  1  0  0  0  0
113234  1  0  0  0  0
114115  2  0  0  0  0
114116  1  0  0  0  0
116117  1  0  0  0  0
116235  1  0  0  0  0
117118  1  0  0  0  0
117120  1  0  0  0  0
117236  1  1  0  0  0
118119  1  0  0  0  0
118122  2  0  0  0  0
120121  1  0  0  0  0
120237  1  0  0  0  0
120238  1  0  0  0  0
121239  1  0  0  0  0
M  CHG  7   1   1   8  -1  30  -1  47   1  63  -1  94   1 119  -1
M  END
