3o8h_ligand
 OpenBabel08222323343D

 58 62  0  0  0  0  0  0  0  0999 V2000
   28.0540   82.1680    7.4520 C   0  0  0  0  0  0  0  0  0  0  0  0
   27.2350   82.9970    8.2180 C   0  0  0  0  0  0  0  0  0  0  0  0
   25.9040   82.6300    8.5020 C   0  0  0  0  0  0  0  0  0  0  0  0
   24.6180   83.8490    9.6750 I   0  0  0  0  0  0  0  0  0  0  0  0
   25.3820   81.4300    8.0250 C   0  0  0  0  0  0  0  0  0  0  0  0
   26.2030   80.6000    7.2680 C   0  0  0  0  0  0  0  0  0  0  0  0
   27.5150   80.9710    6.9840 C   0  0  0  0  0  0  0  0  0  0  0  0
   28.4690   79.9030    6.0280 S   0  0  0  0  0  0  0  0  0  0  0  0
   27.6110   78.9090    5.3390 O   0  0  0  0  0  0  0  0  0  0  0  0
   29.1270   80.7600    4.9980 O   0  0  0  0  0  0  0  0  0  0  0  0
   29.5920   79.1080    6.9720 N   0  0  0  0  0  0  0  0  0  0  0  0
   28.9240   78.2280    7.9430 C   0  0  0  0  0  0  0  0  0  0  0  0
   29.9390   77.6250    8.9170 C   0  0  0  0  0  0  0  0  0  0  0  0
   29.8280   76.4810    9.5560 C   0  0  0  0  0  0  0  0  0  0  0  0
   31.0940   78.1370    9.3240 N   0  0  0  0  0  0  0  0  0  0  0  0
   31.6430   77.3740   10.1170 N   0  0  0  0  0  0  0  0  0  0  0  0
   30.9270   76.3990   10.2960 N   0  0  0  0  0  0  0  0  0  0  0  0
   31.2630   75.2630   11.1590 C   0  0  0  0  0  0  0  0  0  0  0  0
   32.0750   74.2450   10.3470 C   0  0  0  0  0  0  0  0  0  0  0  0
   32.3400   74.4860    9.1550 O   0  0  0  0  0  0  0  0  0  0  0  0
   32.4690   73.0740   10.9200 N   0  0  0  0  0  0  0  0  0  0  0  0
   33.2680   72.1130   10.1070 C   0  0  0  0  0  0  0  0  0  0  0  0
   33.2430   70.6690   10.6330 C   0  0  0  0  0  0  0  0  0  0  0  0
   32.1400   72.7990   12.3710 C   0  0  0  0  0  0  0  0  0  0  0  0
   32.2430   71.3060   12.7750 C   0  0  0  0  0  0  0  0  0  0  0  0
   33.4370   70.6120   12.1370 C   0  0  0  0  0  0  0  0  0  0  0  0
   33.4820   69.1730   12.6070 C   0  0  0  0  0  0  0  0  0  0  0  0
   33.4450   68.0780   11.8410 N   0  0  0  0  0  0  0  0  0  0  0  0
   33.5820   68.8120   13.9170 O   0  0  0  0  0  0  0  0  0  0  0  0
   33.5880   67.3910   13.9060 N   0  0  0  0  0  0  0  0  0  0  0  0
   33.5000   66.9830   12.6320 C   0  0  0  0  0  0  0  0  0  0  0  0
   33.4440   65.6450   12.2000 C   0  0  0  0  0  0  0  0  0  0  0  0
   33.6620   65.1600   10.9830 C   0  0  0  0  0  0  0  0  0  0  0  0
   33.5020   63.8210   10.8530 C   0  0  0  0  0  0  0  0  0  0  0  0
   33.1420   63.1210   11.9420 C   0  0  0  0  0  0  0  0  0  0  0  0
   33.0030   64.2680   13.1630 S   0  0  0  0  0  0  0  0  0  0  0  0
   29.0775   82.4458    7.2277 H   0  0  0  0  0  0  0  0  0  0  0  0
   27.6261   83.9335    8.5990 H   0  0  0  0  0  0  0  0  0  0  0  0
   24.3573   81.1485    8.2391 H   0  0  0  0  0  0  0  0  0  0  0  0
   25.8184   79.6571    6.8963 H   0  0  0  0  0  0  0  0  0  0  0  0
   30.5828   79.2151    6.8890 H   0  0  0  0  0  0  0  0  0  0  0  0
   28.4153   77.4156    7.4033 H   0  0  0  0  0  0  0  0  0  0  0  0
   28.1835   78.8119    8.5093 H   0  0  0  0  0  0  0  0  0  0  0  0
   29.0142   75.7601    9.4922 H   0  0  0  0  0  0  0  0  0  0  0  0
   30.3391   74.7910   11.5246 H   0  0  0  0  0  0  0  0  0  0  0  0
   31.8594   75.6129   12.0145 H   0  0  0  0  0  0  0  0  0  0  0  0
   34.3126   72.4573   10.0942 H   0  0  0  0  0  0  0  0  0  0  0  0
   32.8691   72.1135    9.0819 H   0  0  0  0  0  0  0  0  0  0  0  0
   34.0500   70.0998   10.1484 H   0  0  0  0  0  0  0  0  0  0  0  0
   32.2727   70.2157   10.3821 H   0  0  0  0  0  0  0  0  0  0  0  0
   31.1108   73.1374   12.5613 H   0  0  0  0  0  0  0  0  0  0  0  0
   32.8371   73.3746   12.9977 H   0  0  0  0  0  0  0  0  0  0  0  0
   31.3244   70.7904   12.4582 H   0  0  0  0  0  0  0  0  0  0  0  0
   32.3407   71.2422   13.8688 H   0  0  0  0  0  0  0  0  0  0  0  0
   34.3700   71.1231   12.4167 H   0  0  0  0  0  0  0  0  0  0  0  0
   33.9497   65.7953   10.1466 H   0  0  0  0  0  0  0  0  0  0  0  0
   33.6603   63.3272    9.8954 H   0  0  0  0  0  0  0  0  0  0  0  0
   32.9767   62.0472   12.0170 H   0  0  0  0  0  0  0  0  0  0  0  0
  1  2  2  0  0  0  0
  1  7  1  0  0  0  0
  1 37  1  0  0  0  0
  2  3  1  0  0  0  0
  2 38  1  0  0  0  0
  3  4  1  0  0  0  0
  3  5  2  0  0  0  0
  5  6  1  0  0  0  0
  5 39  1  0  0  0  0
  6  7  2  0  0  0  0
  6 40  1  0  0  0  0
  7  8  1  0  0  0  0
  8  9  2  0  0  0  0
  8 10  2  0  0  0  0
  8 11  1  0  0  0  0
 11 12  1  0  0  0  0
 11 41  1  0  0  0  0
 12 13  1  0  0  0  0
 12 42  1  0  0  0  0
 12 43  1  0  0  0  0
 13 14  2  0  0  0  0
 13 15  1  0  0  0  0
 14 17  1  0  0  0  0
 14 44  1  0  0  0  0
 15 16  2  0  0  0  0
 16 17  1  0  0  0  0
 17 18  1  0  0  0  0
 18 19  1  0  0  0  0
 18 45  1  0  0  0  0
 18 46  1  0  0  0  0
 19 20  2  0  0  0  0
 19 21  1  0  0  0  0
 21 22  1  0  0  0  0
 21 24  1  0  0  0  0
 22 23  1  0  0  0  0
 22 47  1  0  0  0  0
 22 48  1  0  0  0  0
 23 26  1  0  0  0  0
 23 49  1  0  0  0  0
 23 50  1  0  0  0  0
 24 25  1  0  0  0  0
 24 51  1  0  0  0  0
 24 52  1  0  0  0  0
 25 26  1  0  0  0  0
 25 53  1  0  0  0  0
 25 54  1  0  0  0  0
 26 27  1  0  0  0  0
 26 55  1  0  0  0  0
 27 28  2  0  0  0  0
 27 29  1  0  0  0  0
 28 31  1  0  0  0  0
 29 30  1  0  0  0  0
 30 31  2  0  0  0  0
 31 32  1  0  0  0  0
 32 33  2  0  0  0  0
 32 36  1  0  0  0  0
 33 34  1  0  0  0  0
 33 56  1  0  0  0  0
 34 35  2  0  0  0  0
 34 57  1  0  0  0  0
 35 36  1  0  0  0  0
 35 58  1  0  0  0  0
M  END
