3o9g_ligand
 OpenBabel08222323343D

 83 86  0  0  1  0  0  0  0  0999 V2000
   14.2960   35.7890   18.2350 C   0  0  0  0  0  0  0  0  0  0  0  0
   14.8510   35.8600   19.5590 O   0  0  0  0  0  0  0  0  0  0  0  0
   15.2060   34.9220   17.3790 C   0  0  0  0  0  0  0  0  0  0  0  0
   16.2360   35.5150   16.6580 C   0  0  0  0  0  0  0  0  0  0  0  0
   17.0740   34.7250   15.8480 C   0  0  0  0  0  0  0  0  0  0  0  0
   16.9100   33.3270   15.7550 C   0  0  0  0  0  0  0  0  0  0  0  0
   15.8810   32.7460   16.5160 C   0  0  0  0  0  0  0  0  0  0  0  0
   15.0210   33.5420   17.3020 C   0  0  0  0  0  0  0  0  0  0  0  0
   22.5210   24.6060   11.2720 O   0  0  0  0  0  0  0  0  0  0  0  0
   17.9290   32.3990   14.8720 S   0  0  0  0  0  0  0  0  0  0  0  0
   18.5970   33.2150   13.9280 O   0  0  0  0  0  0  0  0  0  0  0  0
   17.2180   31.2890   14.2940 O   0  0  0  0  0  0  0  0  0  0  0  0
   19.1210   31.7980   15.7940 N   0  0  0  0  0  0  0  0  0  0  0  0
   19.7810   32.8440   16.6270 C   0  0  0  0  0  0  0  0  0  0  0  0
   21.2890   32.6320   16.5680 C   0  0  0  0  0  0  0  0  0  0  0  0
   21.8490   32.8160   15.1560 C   0  0  0  0  0  0  0  0  0  0  0  0
   21.9750   33.5550   17.5770 C   0  0  0  0  0  0  0  0  0  0  0  0
   18.8230   30.4980   16.4310 C   0  0  0  0  0  0  0  0  0  0  0  0
   19.7940   29.4340   15.8810 C   0  0  1  0  0  0  0  0  0  0  0  0
   21.8030   35.0240   17.2580 C   0  0  0  0  0  0  0  0  0  0  0  0
   19.7890   28.2430   16.6950 O   0  0  0  0  0  0  0  0  0  0  0  0
   19.4670   29.0490   14.4330 C   0  0  1  0  0  0  0  0  0  0  0  0
   23.3300   32.4940   15.0310 C   0  0  0  0  0  0  0  0  0  0  0  0
   20.5620   28.2570   13.9230 N   0  0  0  0  0  0  0  0  0  0  0  0
   21.4570   28.6380   13.0100 C   0  0  0  0  0  0  0  0  0  0  0  0
   21.5550   29.6840   12.4000 O   0  0  0  0  0  0  0  0  0  0  0  0
   22.4390   27.6090   12.7640 O   0  0  0  0  0  0  0  0  0  0  0  0
   23.2770   27.7790   11.6290 C   0  0  1  0  0  0  0  0  0  0  0  0
   24.5910   27.1810   12.1260 C   0  0  0  0  0  0  0  0  0  0  0  0
   24.3900   25.7760   11.9720 O   0  0  0  0  0  0  0  0  0  0  0  0
   23.5160   25.5460   10.8720 C   0  0  2  0  0  0  0  0  0  0  0  0
   21.2370   25.2510   11.3180 C   0  0  0  0  0  0  0  0  0  0  0  0
   21.3650   26.4900   10.4390 C   0  0  0  0  0  0  0  0  0  0  0  0
   22.8480   26.8540   10.5110 C   0  0  1  0  0  0  0  0  0  0  0  0
   18.1900   28.2210   14.2730 C   0  0  0  0  0  0  0  0  0  0  0  0
   18.0810   26.5890   12.3620 C   0  0  0  0  0  0  0  0  0  0  0  0
   17.8970   26.2280   11.0320 C   0  0  0  0  0  0  0  0  0  0  0  0
   17.5650   27.2110   10.1090 C   0  0  0  0  0  0  0  0  0  0  0  0
   17.4330   28.5250   10.5340 C   0  0  0  0  0  0  0  0  0  0  0  0
   17.6080   28.8820   11.8810 C   0  0  0  0  0  0  0  0  0  0  0  0
   17.9600   27.9060   12.8070 C   0  0  0  0  0  0  0  0  0  0  0  0
   14.2324   36.7991   17.8042 H   0  0  0  0  0  0  0  0  0  0  0  0
   13.2908   35.3442   18.2769 H   0  0  0  0  0  0  0  0  0  0  0  0
   14.2927   36.3993   20.1067 H   0  0  0  0  0  0  0  0  0  0  0  0
   16.3940   36.5857   16.7194 H   0  0  0  0  0  0  0  0  0  0  0  0
   17.8650   35.2031   15.2816 H   0  0  0  0  0  0  0  0  0  0  0  0
   15.7461   31.6706   16.4988 H   0  0  0  0  0  0  0  0  0  0  0  0
   14.2099   33.0769   17.8505 H   0  0  0  0  0  0  0  0  0  0  0  0
   19.4356   32.7613   17.6681 H   0  0  0  0  0  0  0  0  0  0  0  0
   19.5314   33.8414   16.2359 H   0  0  0  0  0  0  0  0  0  0  0  0
   21.4934   31.5936   16.8679 H   0  0  0  0  0  0  0  0  0  0  0  0
   21.6964   33.8636   14.8572 H   0  0  0  0  0  0  0  0  0  0  0  0
   21.2928   32.1556   14.4745 H   0  0  0  0  0  0  0  0  0  0  0  0
   23.0503   33.3236   17.5870 H   0  0  0  0  0  0  0  0  0  0  0  0
   21.5491   33.3618   18.5726 H   0  0  0  0  0  0  0  0  0  0  0  0
   17.7875   30.2048   16.2035 H   0  0  0  0  0  0  0  0  0  0  0  0
   18.9489   30.5838   17.5204 H   0  0  0  0  0  0  0  0  0  0  0  0
   20.8068   29.8628   15.9020 H   0  0  0  0  0  0  0  0  0  0  0  0
   22.3185   35.6274   18.0197 H   0  0  0  0  0  0  0  0  0  0  0  0
   20.7321   35.2755   17.2541 H   0  0  0  0  0  0  0  0  0  0  0  0
   22.2334   35.2372   16.2684 H   0  0  0  0  0  0  0  0  0  0  0  0
   20.0544   28.4645   17.5800 H   0  0  0  0  0  0  0  0  0  0  0  0
   19.3642   29.9707   13.8415 H   0  0  0  0  0  0  0  0  0  0  0  0
   23.6528   32.6507   13.9912 H   0  0  0  0  0  0  0  0  0  0  0  0
   23.5024   31.4452   15.3143 H   0  0  0  0  0  0  0  0  0  0  0  0
   23.9061   33.1532   15.6970 H   0  0  0  0  0  0  0  0  0  0  0  0
   20.6587   27.3320   14.2905 H   0  0  0  0  0  0  0  0  0  0  0  0
   23.3508   28.8269   11.3026 H   0  0  0  0  0  0  0  0  0  0  0  0
   24.7686   27.4406   13.1800 H   0  0  0  0  0  0  0  0  0  0  0  0
   25.4378   27.5274   11.5153 H   0  0  0  0  0  0  0  0  0  0  0  0
   24.0799   25.1577   10.0110 H   0  0  0  0  0  0  0  0  0  0  0  0
   20.9887   25.5375   12.3506 H   0  0  0  0  0  0  0  0  0  0  0  0
   20.4574   24.5815   10.9256 H   0  0  0  0  0  0  0  0  0  0  0  0
   20.7435   27.3098   10.8284 H   0  0  0  0  0  0  0  0  0  0  0  0
   21.0690   26.2653    9.4037 H   0  0  0  0  0  0  0  0  0  0  0  0
   23.1840   27.2527    9.5424 H   0  0  0  0  0  0  0  0  0  0  0  0
   17.3339   28.7917   14.6622 H   0  0  0  0  0  0  0  0  0  0  0  0
   18.2912   27.2817   14.8364 H   0  0  0  0  0  0  0  0  0  0  0  0
   18.3282   25.8169   13.0816 H   0  0  0  0  0  0  0  0  0  0  0  0
   18.0109   25.1959   10.7206 H   0  0  0  0  0  0  0  0  0  0  0  0
   17.4106   26.9543    9.0672 H   0  0  0  0  0  0  0  0  0  0  0  0
   17.1892   29.2938    9.8098 H   0  0  0  0  0  0  0  0  0  0  0  0
   17.4698   29.9099   12.1963 H   0  0  0  0  0  0  0  0  0  0  0  0
  1  2  1  0  0  0  0
  1 42  1  0  0  0  0
  1 43  1  0  0  0  0
  2 44  1  0  0  0  0
  3  1  1  0  0  0  0
  4  3  2  0  0  0  0
  4 45  1  0  0  0  0
  5  4  1  0  0  0  0
  5 46  1  0  0  0  0
  6  5  2  0  0  0  0
  6  7  1  0  0  0  0
  7  8  2  0  0  0  0
  7 47  1  0  0  0  0
  8  3  1  0  0  0  0
  8 48  1  0  0  0  0
 10  6  1  0  0  0  0
 10 11  2  0  0  0  0
 10 12  2  0  0  0  0
 13 10  1  0  0  0  0
 13 14  1  0  0  0  0
 14 15  1  0  0  0  0
 14 49  1  0  0  0  0
 14 50  1  0  0  0  0
 15 16  1  0  0  0  0
 15 17  1  0  0  0  0
 15 51  1  0  0  0  0
 16 23  1  0  0  0  0
 16 52  1  0  0  0  0
 16 53  1  0  0  0  0
 17 20  1  0  0  0  0
 17 54  1  0  0  0  0
 17 55  1  0  0  0  0
 18 13  1  0  0  0  0
 18 56  1  0  0  0  0
 18 57  1  0  0  0  0
 19 18  1  0  0  0  0
 19 21  1  0  0  0  0
 19 58  1  1  0  0  0
 20 59  1  0  0  0  0
 20 60  1  0  0  0  0
 20 61  1  0  0  0  0
 21 62  1  0  0  0  0
 22 19  1  0  0  0  0
 22 24  1  0  0  0  0
 22 63  1  6  0  0  0
 23 64  1  0  0  0  0
 23 65  1  0  0  0  0
 23 66  1  0  0  0  0
 24 25  1  0  0  0  0
 24 67  1  0  0  0  0
 25 26  2  0  0  0  0
 25 27  1  0  0  0  0
 27 28  1  0  0  0  0
 28 29  1  0  0  0  0
 28 34  1  0  0  0  0
 28 68  1  6  0  0  0
 29 30  1  0  0  0  0
 29 69  1  0  0  0  0
 29 70  1  0  0  0  0
 31  9  1  0  0  0  0
 31 30  1  0  0  0  0
 31 71  1  6  0  0  0
 32  9  1  0  0  0  0
 32 72  1  0  0  0  0
 32 73  1  0  0  0  0
 33 32  1  0  0  0  0
 33 74  1  0  0  0  0
 33 75  1  0  0  0  0
 34 31  1  0  0  0  0
 34 33  1  0  0  0  0
 34 76  1  6  0  0  0
 35 22  1  0  0  0  0
 35 77  1  0  0  0  0
 35 78  1  0  0  0  0
 36 37  2  0  0  0  0
 36 41  1  0  0  0  0
 36 79  1  0  0  0  0
 37 38  1  0  0  0  0
 37 80  1  0  0  0  0
 38 39  2  0  0  0  0
 38 81  1  0  0  0  0
 39 40  1  0  0  0  0
 39 82  1  0  0  0  0
 40 41  2  0  0  0  0
 40 83  1  0  0  0  0
 41 35  1  0  0  0  0
M  END
