3o9h_ligand
 OpenBabel08222323343D

 82 86  0  0  1  0  0  0  0  0999 V2000
   15.6200   36.7170   18.3630 C   0  0  0  0  0  0  0  0  0  0  0  0
   14.9180   35.4570   18.5330 O   0  0  0  0  0  0  0  0  0  0  0  0
   15.5210   34.5500   17.6900 C   0  0  0  0  0  0  0  0  0  0  0  0
   16.5050   36.5260   17.2440 O   0  0  0  0  0  0  0  0  0  0  0  0
   16.4570   35.1900   16.9080 C   0  0  0  0  0  0  0  0  0  0  0  0
   17.1950   34.5020   15.9530 C   0  0  0  0  0  0  0  0  0  0  0  0
   17.0290   33.1160   15.7760 C   0  0  0  0  0  0  0  0  0  0  0  0
   16.0420   32.4880   16.5600 C   0  0  0  0  0  0  0  0  0  0  0  0
   15.2840   33.1980   17.5180 C   0  0  0  0  0  0  0  0  0  0  0  0
   17.9600   32.2970   14.7070 S   0  0  0  0  0  0  0  0  0  0  0  0
   17.2300   31.1650   14.1990 O   0  0  0  0  0  0  0  0  0  0  0  0
   18.4890   33.1680   13.6830 O   0  0  0  0  0  0  0  0  0  0  0  0
   19.2300   31.6890   15.5320 N   0  0  0  0  0  0  0  0  0  0  0  0
   19.9510   32.6910   16.3510 C   0  0  0  0  0  0  0  0  0  0  0  0
   21.4670   32.4750   16.3430 C   0  0  0  0  0  0  0  0  0  0  0  0
   22.0610   32.6170   14.9310 C   0  0  0  0  0  0  0  0  0  0  0  0
   22.1360   33.4370   17.3380 C   0  0  0  0  0  0  0  0  0  0  0  0
   18.9190   30.4610   16.2880 C   0  0  0  0  0  0  0  0  0  0  0  0
   19.8470   29.3730   15.7400 C   0  0  1  0  0  0  0  0  0  0  0  0
   21.9910   34.9000   17.0010 C   0  0  0  0  0  0  0  0  0  0  0  0
   19.9230   28.2710   16.6430 O   0  0  0  0  0  0  0  0  0  0  0  0
   19.4860   28.9020   14.3340 C   0  0  1  0  0  0  0  0  0  0  0  0
   23.4600   32.0600   14.8370 C   0  0  0  0  0  0  0  0  0  0  0  0
   20.5830   28.1050   13.8450 N   0  0  0  0  0  0  0  0  0  0  0  0
   21.4770   28.4460   12.9310 C   0  0  0  0  0  0  0  0  0  0  0  0
   21.6270   29.4930   12.3300 O   0  0  0  0  0  0  0  0  0  0  0  0
   22.3930   27.3740   12.6440 O   0  0  0  0  0  0  0  0  0  0  0  0
   23.2650   27.5210   11.5280 C   0  0  1  0  0  0  0  0  0  0  0  0
   24.5850   26.9280   12.0000 C   0  0  0  0  0  0  0  0  0  0  0  0
   24.3950   25.5220   11.8700 O   0  0  0  0  0  0  0  0  0  0  0  0
   23.5090   25.2500   10.7890 C   0  0  1  0  0  0  0  0  0  0  0  0
   22.5120   24.3050   11.1980 O   0  0  0  0  0  0  0  0  0  0  0  0
   21.2600   24.9760   11.3350 C   0  0  0  0  0  0  0  0  0  0  0  0
   21.3560   26.1900   10.4100 C   0  0  0  0  0  0  0  0  0  0  0  0
   22.8330   26.5640   10.4400 C   0  0  1  0  0  0  0  0  0  0  0  0
   18.2020   28.0610   14.2430 C   0  0  0  0  0  0  0  0  0  0  0  0
   18.1340   26.3530   12.3800 C   0  0  0  0  0  0  0  0  0  0  0  0
   17.9310   25.9860   11.0530 C   0  0  0  0  0  0  0  0  0  0  0  0
   17.5280   26.9380   10.1290 C   0  0  0  0  0  0  0  0  0  0  0  0
   17.3330   28.2480   10.5260 C   0  0  0  0  0  0  0  0  0  0  0  0
   17.5410   28.6170   11.8580 C   0  0  0  0  0  0  0  0  0  0  0  0
   17.9530   27.6730   12.7940 C   0  0  0  0  0  0  0  0  0  0  0  0
   16.1950   36.9602   19.2687 H   0  0  0  0  0  0  0  0  0  0  0  0
   14.9066   37.5275   18.1529 H   0  0  0  0  0  0  0  0  0  0  0  0
   17.9070   35.0392   15.3370 H   0  0  0  0  0  0  0  0  0  0  0  0
   15.8583   31.4283   16.4245 H   0  0  0  0  0  0  0  0  0  0  0  0
   14.5291   32.6916   18.1085 H   0  0  0  0  0  0  0  0  0  0  0  0
   19.5908   32.6238   17.3882 H   0  0  0  0  0  0  0  0  0  0  0  0
   19.7356   33.6933   15.9522 H   0  0  0  0  0  0  0  0  0  0  0  0
   21.6629   31.4472   16.6823 H   0  0  0  0  0  0  0  0  0  0  0  0
   22.0869   33.6838   14.6643 H   0  0  0  0  0  0  0  0  0  0  0  0
   21.4174   32.0770   14.2210 H   0  0  0  0  0  0  0  0  0  0  0  0
   23.2094   33.1994   17.3742 H   0  0  0  0  0  0  0  0  0  0  0  0
   21.6895   33.2687   18.3291 H   0  0  0  0  0  0  0  0  0  0  0  0
   17.8673   30.1764   16.1366 H   0  0  0  0  0  0  0  0  0  0  0  0
   19.1060   30.6164   17.3608 H   0  0  0  0  0  0  0  0  0  0  0  0
   20.8521   29.8155   15.6772 H   0  0  0  0  0  0  0  0  0  0  0  0
   22.4995   35.5047   17.7664 H   0  0  0  0  0  0  0  0  0  0  0  0
   20.9240   35.1658   16.9729 H   0  0  0  0  0  0  0  0  0  0  0  0
   22.4439   35.0965   16.0180 H   0  0  0  0  0  0  0  0  0  0  0  0
   19.0560   27.9024   16.7647 H   0  0  0  0  0  0  0  0  0  0  0  0
   19.3605   29.7887   13.6952 H   0  0  0  0  0  0  0  0  0  0  0  0
   23.8366   32.1860   13.8112 H   0  0  0  0  0  0  0  0  0  0  0  0
   23.4469   30.9905   15.0939 H   0  0  0  0  0  0  0  0  0  0  0  0
   24.1165   32.5974   15.5372 H   0  0  0  0  0  0  0  0  0  0  0  0
   20.6792   27.1918   14.2410 H   0  0  0  0  0  0  0  0  0  0  0  0
   23.3407   28.5620   11.1809 H   0  0  0  0  0  0  0  0  0  0  0  0
   24.7845   27.2008   13.0468 H   0  0  0  0  0  0  0  0  0  0  0  0
   25.4167   27.2707   11.3668 H   0  0  0  0  0  0  0  0  0  0  0  0
   24.0657   24.8586    9.9248 H   0  0  0  0  0  0  0  0  0  0  0  0
   21.1046   25.2951   12.3762 H   0  0  0  0  0  0  0  0  0  0  0  0
   20.4338   24.3191   11.0256 H   0  0  0  0  0  0  0  0  0  0  0  0
   20.7360   27.0173   10.7857 H   0  0  0  0  0  0  0  0  0  0  0  0
   21.0399   25.9292    9.3892 H   0  0  0  0  0  0  0  0  0  0  0  0
   23.1447   26.9515    9.4589 H   0  0  0  0  0  0  0  0  0  0  0  0
   17.3509   28.6492   14.6166 H   0  0  0  0  0  0  0  0  0  0  0  0
   18.3150   27.1519   14.8519 H   0  0  0  0  0  0  0  0  0  0  0  0
   18.4369   25.6031   13.1018 H   0  0  0  0  0  0  0  0  0  0  0  0
   18.0874   24.9592   10.7428 H   0  0  0  0  0  0  0  0  0  0  0  0
   17.3658   26.6552    9.0952 H   0  0  0  0  0  0  0  0  0  0  0  0
   17.0179   28.9909    9.8022 H   0  0  0  0  0  0  0  0  0  0  0  0
   17.3805   29.6445   12.1638 H   0  0  0  0  0  0  0  0  0  0  0  0
  1 43  1  0  0  0  0
  1 44  1  0  0  0  0
  2  1  1  0  0  0  0
  3  2  1  0  0  0  0
  4  1  1  0  0  0  0
  5  3  2  0  0  0  0
  5  4  1  0  0  0  0
  6  5  1  0  0  0  0
  6 45  1  0  0  0  0
  7  6  2  0  0  0  0
  7  8  1  0  0  0  0
  8  9  2  0  0  0  0
  8 46  1  0  0  0  0
  9  3  1  0  0  0  0
  9 47  1  0  0  0  0
 10  7  1  0  0  0  0
 10 11  2  0  0  0  0
 10 12  2  0  0  0  0
 13 10  1  0  0  0  0
 13 14  1  0  0  0  0
 14 15  1  0  0  0  0
 14 48  1  0  0  0  0
 14 49  1  0  0  0  0
 15 16  1  0  0  0  0
 15 17  1  0  0  0  0
 15 50  1  0  0  0  0
 16 23  1  0  0  0  0
 16 51  1  0  0  0  0
 16 52  1  0  0  0  0
 17 20  1  0  0  0  0
 17 53  1  0  0  0  0
 17 54  1  0  0  0  0
 18 13  1  0  0  0  0
 18 55  1  0  0  0  0
 18 56  1  0  0  0  0
 19 18  1  0  0  0  0
 19 21  1  0  0  0  0
 19 57  1  6  0  0  0
 20 58  1  0  0  0  0
 20 59  1  0  0  0  0
 20 60  1  0  0  0  0
 21 61  1  0  0  0  0
 22 19  1  0  0  0  0
 22 24  1  0  0  0  0
 22 62  1  6  0  0  0
 23 63  1  0  0  0  0
 23 64  1  0  0  0  0
 23 65  1  0  0  0  0
 24 25  1  0  0  0  0
 24 66  1  0  0  0  0
 25 26  2  0  0  0  0
 25 27  1  0  0  0  0
 27 28  1  0  0  0  0
 28 29  1  0  0  0  0
 28 35  1  0  0  0  0
 28 67  1  6  0  0  0
 29 30  1  0  0  0  0
 29 68  1  0  0  0  0
 29 69  1  0  0  0  0
 31 30  1  0  0  0  0
 31 32  1  0  0  0  0
 31 70  1  6  0  0  0
 33 32  1  0  0  0  0
 33 71  1  0  0  0  0
 33 72  1  0  0  0  0
 34 33  1  0  0  0  0
 34 73  1  0  0  0  0
 34 74  1  0  0  0  0
 35 31  1  0  0  0  0
 35 34  1  0  0  0  0
 35 75  1  6  0  0  0
 36 22  1  0  0  0  0
 36 76  1  0  0  0  0
 36 77  1  0  0  0  0
 37 38  2  0  0  0  0
 37 42  1  0  0  0  0
 37 78  1  0  0  0  0
 38 39  1  0  0  0  0
 38 79  1  0  0  0  0
 39 40  2  0  0  0  0
 39 80  1  0  0  0  0
 40 41  1  0  0  0  0
 40 81  1  0  0  0  0
 41 42  2  0  0  0  0
 41 82  1  0  0  0  0
 42 36  1  0  0  0  0
M  END
