3o9l_ligand
 OpenBabel08222323343D

 86 90  0  0  1  0  0  0  0  0999 V2000
    3.1700    8.5520   -5.8500 Cl  0  0  0  0  0  0  0  0  0  0  0  0
    2.4500    8.1280   -4.2770 C   0  0  0  0  0  0  0  0  0  0  0  0
    3.2270    7.6570   -3.2240 C   0  0  0  0  0  0  0  0  0  0  0  0
    1.0720    8.2840   -4.1490 C   0  0  0  0  0  0  0  0  0  0  0  0
    4.6050    7.4750   -3.3050 O   0  0  0  0  0  0  0  0  0  0  0  0
    2.5730    7.3700   -2.0340 C   0  0  0  0  0  0  0  0  0  0  0  0
    0.4350    7.9790   -2.9550 C   0  0  0  0  0  0  0  0  0  0  0  0
    5.2240    6.4650   -4.1440 C   0  0  0  0  0  0  0  0  0  0  0  0
    3.5520    6.7760   -0.6740 Cl  0  0  0  0  0  0  0  0  0  0  0  0
    1.1910    7.5200   -1.8790 C   0  0  0  0  0  0  0  0  0  0  0  0
   -1.0480    8.1600   -2.8380 C   0  0  0  0  0  0  0  0  0  0  0  0
    6.1690    5.4700   -3.4420 C   0  0  0  0  0  0  0  0  0  0  0  0
    5.7820    5.5460   -2.0930 O   0  0  0  0  0  0  0  0  0  0  0  0
    6.3280    5.3000   -0.8600 C   0  0  0  0  0  0  0  0  0  0  0  0
    7.2710    6.2070   -0.3660 C   0  0  0  0  0  0  0  0  0  0  0  0
    5.8430    4.2770   -0.0400 C   0  0  0  0  0  0  0  0  0  0  0  0
    7.7830    6.0590    0.9230 C   0  0  0  0  0  0  0  0  0  0  0  0
    6.3640    4.1240    1.2430 C   0  0  0  0  0  0  0  0  0  0  0  0
    7.3400    5.0070    1.7380 C   0  0  0  0  0  0  0  0  0  0  0  0
    7.8180    4.8410    3.1530 C   0  0  2  0  0  0  0  0  0  0  0  0
    6.8440    5.6500    4.0740 C   0  0  1  0  0  0  0  0  0  0  0  0
    9.2870    5.2050    3.4030 C   0  0  0  0  0  0  0  0  0  0  0  0
    5.4120    5.2200    3.7880 C   0  0  0  0  0  0  0  0  0  0  0  0
    7.1980    5.5210    5.5650 C   0  0  0  0  0  0  0  0  0  0  0  0
    9.6130    5.1650    4.9020 C   0  0  0  0  0  0  0  0  0  0  0  0
    5.0270    4.1390    4.1980 O   0  0  0  0  0  0  0  0  0  0  0  0
    4.5570    5.9740    3.0690 N   0  0  0  0  0  0  0  0  0  0  0  0
    8.6090    5.8310    5.7490 N   0  3  0  0  0  0  0  0  0  0  0  0
    4.8650    7.2730    2.4280 C   0  0  0  0  0  0  0  0  0  0  0  0
    3.2210    5.4900    2.7210 C   0  0  0  0  0  0  0  0  0  0  0  0
    5.2180    8.3370    3.4610 C   0  0  0  0  0  0  0  0  0  0  0  0
    3.8240    8.2940    2.8590 C   0  0  0  0  0  0  0  0  0  0  0  0
    2.0530    5.7930    3.6390 C   0  0  0  0  0  0  0  0  0  0  0  0
    0.7790    5.5680    3.1300 C   0  0  0  0  0  0  0  0  0  0  0  0
    2.2040    6.2880    4.9310 C   0  0  0  0  0  0  0  0  0  0  0  0
    0.5990    4.9490    1.4690 Cl  0  0  0  0  0  0  0  0  0  0  0  0
   -0.3620    5.8270    3.8720 C   0  0  0  0  0  0  0  0  0  0  0  0
    1.0600    6.5430    5.6820 C   0  0  0  0  0  0  0  0  0  0  0  0
   -0.2090    6.3160    5.1640 C   0  0  0  0  0  0  0  0  0  0  0  0
    1.1730    7.0940    7.0750 C   0  0  0  0  0  0  0  0  0  0  0  0
    1.0700    8.6050    6.9450 C   0  0  0  0  0  0  0  0  0  0  0  0
    1.9420    9.2500    8.0050 C   0  0  0  0  0  0  0  0  0  0  0  0
    2.1120   10.6220    7.6730 O   0  0  0  0  0  0  0  0  0  0  0  0
    2.1000   11.4500    8.8330 C   0  0  0  0  0  0  0  0  0  0  0  0
    0.4921    8.6470   -4.9898 H   0  0  0  0  0  0  0  0  0  0  0  0
    5.8042    6.9855   -4.9202 H   0  0  0  0  0  0  0  0  0  0  0  0
    4.4184    5.8837   -4.6163 H   0  0  0  0  0  0  0  0  0  0  0  0
    0.7149    7.2823   -0.9346 H   0  0  0  0  0  0  0  0  0  0  0  0
   -1.4490    8.5279   -3.7940 H   0  0  0  0  0  0  0  0  0  0  0  0
   -1.2669    8.8889   -2.0438 H   0  0  0  0  0  0  0  0  0  0  0  0
   -1.5167    7.1961   -2.5905 H   0  0  0  0  0  0  0  0  0  0  0  0
    7.2197    5.7705   -3.5671 H   0  0  0  0  0  0  0  0  0  0  0  0
    6.0296    4.4518   -3.8342 H   0  0  0  0  0  0  0  0  0  0  0  0
    7.6057    7.0292   -0.9880 H   0  0  0  0  0  0  0  0  0  0  0  0
    5.0686    3.6089   -0.3991 H   0  0  0  0  0  0  0  0  0  0  0  0
    8.5238    6.7575    1.2951 H   0  0  0  0  0  0  0  0  0  0  0  0
    6.0117    3.3122    1.8690 H   0  0  0  0  0  0  0  0  0  0  0  0
    7.7168    3.7757    3.4075 H   0  0  0  0  0  0  0  0  0  0  0  0
    6.9366    6.7134    3.8084 H   0  0  0  0  0  0  0  0  0  0  0  0
    9.4773    6.2184    3.0199 H   0  0  0  0  0  0  0  0  0  0  0  0
    9.9311    4.4864    2.8750 H   0  0  0  0  0  0  0  0  0  0  0  0
    6.9998    4.4932    5.9030 H   0  0  0  0  0  0  0  0  0  0  0  0
    6.5872    6.2238    6.1506 H   0  0  0  0  0  0  0  0  0  0  0  0
   10.5823    5.6608    5.0590 H   0  0  0  0  0  0  0  0  0  0  0  0
    9.6849    4.1123    5.2129 H   0  0  0  0  0  0  0  0  0  0  0  0
    8.8365    5.6068    6.7050 H   0  0  0  0  0  0  0  0  0  0  0  0
    8.7131    6.8229    5.6026 H   0  0  0  0  0  0  0  0  0  0  0  0
    5.3132    7.2089    1.4255 H   0  0  0  0  0  0  0  0  0  0  0  0
    3.2886    4.3950    2.6406 H   0  0  0  0  0  0  0  0  0  0  0  0
    2.9731    5.9154    1.7373 H   0  0  0  0  0  0  0  0  0  0  0  0
    5.9064    9.1533    3.1968 H   0  0  0  0  0  0  0  0  0  0  0  0
    5.3721    8.0532    4.5125 H   0  0  0  0  0  0  0  0  0  0  0  0
    2.9688    7.9800    3.4755 H   0  0  0  0  0  0  0  0  0  0  0  0
    3.5030    9.0802    2.1598 H   0  0  0  0  0  0  0  0  0  0  0  0
    3.1899    6.4708    5.3430 H   0  0  0  0  0  0  0  0  0  0  0  0
   -1.3477    5.6529    3.4560 H   0  0  0  0  0  0  0  0  0  0  0  0
   -1.0838    6.5212    5.7703 H   0  0  0  0  0  0  0  0  0  0  0  0
    2.1404    6.8148    7.5179 H   0  0  0  0  0  0  0  0  0  0  0  0
    0.3569    6.7093    7.7043 H   0  0  0  0  0  0  0  0  0  0  0  0
    0.0248    8.9174    7.0865 H   0  0  0  0  0  0  0  0  0  0  0  0
    1.4131    8.9139    5.9466 H   0  0  0  0  0  0  0  0  0  0  0  0
    2.9218    8.7508    8.0342 H   0  0  0  0  0  0  0  0  0  0  0  0
    1.4568    9.1632    8.9884 H   0  0  0  0  0  0  0  0  0  0  0  0
    2.2338   12.5004    8.5351 H   0  0  0  0  0  0  0  0  0  0  0  0
    2.9187   11.1522    9.5046 H   0  0  0  0  0  0  0  0  0  0  0  0
    1.1382   11.3365    9.3546 H   0  0  0  0  0  0  0  0  0  0  0  0
  1  2  1  0  0  0  0
  2  3  2  0  0  0  0
  2  4  1  0  0  0  0
  3  5  1  0  0  0  0
  3  6  1  0  0  0  0
  4  7  2  0  0  0  0
  4 45  1  0  0  0  0
  5  8  1  0  0  0  0
  6  9  1  0  0  0  0
  6 10  2  0  0  0  0
  7 10  1  0  0  0  0
  7 11  1  0  0  0  0
  8 12  1  0  0  0  0
  8 46  1  0  0  0  0
  8 47  1  0  0  0  0
 10 48  1  0  0  0  0
 11 49  1  0  0  0  0
 11 50  1  0  0  0  0
 11 51  1  0  0  0  0
 12 13  1  0  0  0  0
 12 52  1  0  0  0  0
 12 53  1  0  0  0  0
 13 14  1  0  0  0  0
 14 15  2  0  0  0  0
 14 16  1  0  0  0  0
 15 17  1  0  0  0  0
 15 54  1  0  0  0  0
 16 18  2  0  0  0  0
 16 55  1  0  0  0  0
 17 19  2  0  0  0  0
 17 56  1  0  0  0  0
 18 19  1  0  0  0  0
 18 57  1  0  0  0  0
 19 20  1  0  0  0  0
 20 21  1  0  0  0  0
 20 22  1  0  0  0  0
 20 58  1  1  0  0  0
 21 23  1  0  0  0  0
 21 24  1  0  0  0  0
 21 59  1  6  0  0  0
 22 25  1  0  0  0  0
 22 60  1  0  0  0  0
 22 61  1  0  0  0  0
 23 26  2  0  0  0  0
 23 27  1  0  0  0  0
 24 28  1  0  0  0  0
 24 62  1  0  0  0  0
 24 63  1  0  0  0  0
 25 28  1  0  0  0  0
 25 64  1  0  0  0  0
 25 65  1  0  0  0  0
 27 29  1  0  0  0  0
 27 30  1  0  0  0  0
 28 66  1  0  0  0  0
 28 67  1  0  0  0  0
 29 31  1  0  0  0  0
 29 32  1  0  0  0  0
 29 68  1  0  0  0  0
 30 33  1  0  0  0  0
 30 69  1  0  0  0  0
 30 70  1  0  0  0  0
 31 32  1  0  0  0  0
 31 71  1  0  0  0  0
 31 72  1  0  0  0  0
 32 73  1  0  0  0  0
 32 74  1  0  0  0  0
 33 34  2  0  0  0  0
 33 35  1  0  0  0  0
 34 36  1  0  0  0  0
 34 37  1  0  0  0  0
 35 38  2  0  0  0  0
 35 75  1  0  0  0  0
 37 39  2  0  0  0  0
 37 76  1  0  0  0  0
 38 39  1  0  0  0  0
 38 40  1  0  0  0  0
 39 77  1  0  0  0  0
 40 41  1  0  0  0  0
 40 78  1  0  0  0  0
 40 79  1  0  0  0  0
 41 42  1  0  0  0  0
 41 80  1  0  0  0  0
 41 81  1  0  0  0  0
 42 43  1  0  0  0  0
 42 82  1  0  0  0  0
 42 83  1  0  0  0  0
 43 44  1  0  0  0  0
 44 84  1  0  0  0  0
 44 85  1  0  0  0  0
 44 86  1  0  0  0  0
M  CHG  1  28   1
M  END
