3ob0_ligand
 OpenBabel08222323343D

 90 93  0  0  1  0  0  0  0  0999 V2000
   20.2910  -33.4920  -37.7380 C   0  0  2  0  0  0  0  0  0  0  0  0
   20.7980  -34.5160  -38.6710 O   0  0  0  0  0  0  0  0  0  0  0  0
   21.2380  -33.3320  -36.5710 C   0  0  1  0  0  0  0  0  0  0  0  0
   20.8390  -32.1570  -35.8570 O   0  0  0  0  0  0  0  0  0  0  0  0
   21.1630  -34.5760  -35.6940 C   0  0  1  0  0  0  0  0  0  0  0  0
   22.2210  -34.5740  -34.7990 O   0  0  0  0  0  0  0  0  0  0  0  0
   19.8570  -34.5740  -34.9340 C   0  0  2  0  0  0  0  0  0  0  0  0
   19.7520  -35.7020  -34.0720 O   0  0  0  0  0  0  0  0  0  0  0  0
   18.7700  -34.6370  -36.0010 C   0  0  2  0  0  0  0  0  0  0  0  0
   18.9150  -33.6710  -37.1160 O   0  0  0  0  0  0  0  0  0  0  0  0
   17.3480  -34.8180  -35.4470 C   0  0  1  0  0  0  0  0  0  0  0  0
   16.6200  -33.6140  -35.4160 O   0  0  0  0  0  0  0  0  0  0  0  0
   14.1230  -40.0710  -42.2850 C   0  0  1  0  0  0  0  0  0  0  0  0
   15.3120  -39.7260  -41.3360 C   0  0  1  0  0  0  0  0  0  0  0  0
   16.3480  -40.8690  -41.1320 C   0  0  1  0  0  0  0  0  0  0  0  0
   15.8930  -42.3010  -41.5390 C   0  0  2  0  0  0  0  0  0  0  0  0
   15.3340  -42.3030  -42.8780 O   0  0  0  0  0  0  0  0  0  0  0  0
   14.2860  -41.3390  -43.2030 C   0  0  2  0  0  0  0  0  0  0  0  0
   14.4340  -40.9050  -44.6660 C   0  0  0  0  0  0  0  0  0  0  0  0
   15.8010  -38.5870  -42.0570 O   0  0  0  0  0  0  0  0  0  0  0  0
   17.6200  -40.6030  -41.7420 O   0  0  0  0  0  0  0  0  0  0  0  0
   15.1620  -35.2000  -42.0780 C   0  0  1  0  0  0  0  0  0  0  0  0
   15.4410  -35.6470  -40.6260 C   0  0  1  0  0  0  0  0  0  0  0  0
   16.6810  -36.5840  -40.4420 C   0  0  1  0  0  0  0  0  0  0  0  0
   16.8190  -37.6370  -41.5930 C   0  0  2  0  0  0  0  0  0  0  0  0
   16.9580  -36.8500  -42.7960 O   0  0  0  0  0  0  0  0  0  0  0  0
   15.7240  -36.1510  -43.1420 C   0  0  2  0  0  0  0  0  0  0  0  0
   15.8710  -35.4600  -44.4820 C   0  0  0  0  0  0  0  0  0  0  0  0
   13.7530  -35.2820  -42.2460 O   0  0  0  0  0  0  0  0  0  0  0  0
   15.6210  -34.4170  -39.9290 O   0  0  0  0  0  0  0  0  0  0  0  0
   17.2640  -35.4170  -44.8230 O   0  0  0  0  0  0  0  0  0  0  0  0
   17.8570  -35.7070  -40.5760 O   0  0  0  0  0  0  0  0  0  0  0  0
   15.1530  -41.8580  -45.5120 O   0  0  0  0  0  0  0  0  0  0  0  0
   12.8780  -40.1060  -41.5540 O   0  0  0  0  0  0  0  0  0  0  0  0
   21.6180  -36.1700  -40.7460 C   0  0  1  0  0  0  0  0  0  0  0  0
   20.7540  -34.9120  -40.9110 C   0  0  1  0  0  0  0  0  0  0  0  0
   19.8600  -34.6480  -39.7510 C   0  0  1  0  0  0  0  0  0  0  0  0
   18.8930  -35.7970  -39.5910 C   0  0  2  0  0  0  0  0  0  0  0  0
   19.5250  -37.0570  -39.5260 O   0  0  0  0  0  0  0  0  0  0  0  0
   20.6840  -37.3480  -40.3340 C   0  0  2  0  0  0  0  0  0  0  0  0
   21.4080  -38.5270  -39.6230 C   0  0  0  0  0  0  0  0  0  0  0  0
   22.3530  -36.4040  -42.0190 O   0  0  0  0  0  0  0  0  0  0  0  0
   21.5000  -33.7290  -41.2070 O   0  0  0  0  0  0  0  0  0  0  0  0
   20.4890  -39.6010  -39.2470 O   0  0  0  0  0  0  0  0  0  0  0  0
   15.1730  -43.0530  -40.4860 O   0  0  0  0  0  0  0  0  0  0  0  0
   16.6630  -35.6140  -36.5190 C   0  0  0  0  0  0  0  0  0  0  0  0
   20.2115  -32.6337  -38.4051 H   0  0  0  0  0  0  0  0  0  0  0  0
   22.2719  -33.2221  -36.8982 H   0  0  0  0  0  0  0  0  0  0  0  0
   21.4230  -32.0263  -35.1063 H   0  0  0  0  0  0  0  0  0  0  0  0
   21.2192  -35.4678  -36.3182 H   0  0  0  0  0  0  0  0  0  0  0  0
   22.1731  -35.3579  -34.2469 H   0  0  0  0  0  0  0  0  0  0  0  0
   19.7749  -33.6900  -34.3016 H   0  0  0  0  0  0  0  0  0  0  0  0
   19.7993  -36.5069  -34.5930 H   0  0  0  0  0  0  0  0  0  0  0  0
   18.9583  -35.5833  -36.5081 H   0  0  0  0  0  0  0  0  0  0  0  0
   17.3942  -35.2403  -34.4432 H   0  0  0  0  0  0  0  0  0  0  0  0
   16.5468  -33.2626  -36.3064 H   0  0  0  0  0  0  0  0  0  0  0  0
   14.1180  -39.2498  -43.0017 H   0  0  0  0  0  0  0  0  0  0  0  0
   15.0514  -39.5540  -40.2917 H   0  0  0  0  0  0  0  0  0  0  0  0
   16.4436  -40.8689  -40.0462 H   0  0  0  0  0  0  0  0  0  0  0  0
   16.7800  -42.9299  -41.6152 H   0  0  0  0  0  0  0  0  0  0  0  0
   13.3673  -41.8933  -43.0111 H   0  0  0  0  0  0  0  0  0  0  0  0
   15.0099  -39.9796  -44.6674 H   0  0  0  0  0  0  0  0  0  0  0  0
   13.4277  -40.8120  -45.0744 H   0  0  0  0  0  0  0  0  0  0  0  0
   17.9123  -39.7216  -41.4986 H   0  0  0  0  0  0  0  0  0  0  0  0
   15.6137  -34.2166  -42.2082 H   0  0  0  0  0  0  0  0  0  0  0  0
   14.6210  -36.2623  -40.2556 H   0  0  0  0  0  0  0  0  0  0  0  0
   16.5862  -37.1094  -39.4917 H   0  0  0  0  0  0  0  0  0  0  0  0
   17.5791  -38.2691  -41.1338 H   0  0  0  0  0  0  0  0  0  0  0  0
   14.9686  -36.9345  -43.2025 H   0  0  0  0  0  0  0  0  0  0  0  0
   15.4712  -34.4476  -44.4239 H   0  0  0  0  0  0  0  0  0  0  0  0
   15.3183  -36.0078  -45.2452 H   0  0  0  0  0  0  0  0  0  0  0  0
   13.3219  -34.7080  -41.6086 H   0  0  0  0  0  0  0  0  0  0  0  0
   16.3989  -33.9688  -40.2689 H   0  0  0  0  0  0  0  0  0  0  0  0
   17.6070  -36.3121  -44.8764 H   0  0  0  0  0  0  0  0  0  0  0  0
   16.0398  -41.9850  -45.1668 H   0  0  0  0  0  0  0  0  0  0  0  0
   12.8084  -39.3215  -41.0050 H   0  0  0  0  0  0  0  0  0  0  0  0
   22.3680  -36.0652  -39.9621 H   0  0  0  0  0  0  0  0  0  0  0  0
   20.1370  -35.1484  -41.7779 H   0  0  0  0  0  0  0  0  0  0  0  0
   19.2221  -33.7679  -39.8324 H   0  0  0  0  0  0  0  0  0  0  0  0
   18.4165  -35.7065  -38.6148 H   0  0  0  0  0  0  0  0  0  0  0  0
   20.3375  -37.6127  -41.3330 H   0  0  0  0  0  0  0  0  0  0  0  0
   21.8661  -38.1412  -38.7123 H   0  0  0  0  0  0  0  0  0  0  0  0
   22.1421  -38.9386  -40.3157 H   0  0  0  0  0  0  0  0  0  0  0  0
   22.9064  -35.6437  -42.2121 H   0  0  0  0  0  0  0  0  0  0  0  0
   22.0265  -33.4844  -40.4424 H   0  0  0  0  0  0  0  0  0  0  0  0
   19.8238  -39.2560  -38.6469 H   0  0  0  0  0  0  0  0  0  0  0  0
   15.6460  -42.9699  -39.6548 H   0  0  0  0  0  0  0  0  0  0  0  0
   16.6797  -35.0527  -37.4532 H   0  0  0  0  0  0  0  0  0  0  0  0
   17.1832  -36.5623  -36.6541 H   0  0  0  0  0  0  0  0  0  0  0  0
   15.6304  -35.8031  -36.2256 H   0  0  0  0  0  0  0  0  0  0  0  0
  1  3  1  0  0  0  0
  1 10  1  0  0  0  0
  1 47  1  6  0  0  0
  2  1  1  0  0  0  0
  3  4  1  0  0  0  0
  3  5  1  0  0  0  0
  3 48  1  6  0  0  0
  4 49  1  0  0  0  0
  5  6  1  0  0  0  0
  5  7  1  0  0  0  0
  5 50  1  6  0  0  0
  6 51  1  0  0  0  0
  7  8  1  0  0  0  0
  7 52  1  1  0  0  0
  8 53  1  0  0  0  0
  9  7  1  0  0  0  0
  9 11  1  0  0  0  0
  9 54  1  6  0  0  0
 10  9  1  0  0  0  0
 11 12  1  0  0  0  0
 11 46  1  0  0  0  0
 11 55  1  1  0  0  0
 12 56  1  0  0  0  0
 13 18  1  0  0  0  0
 13 34  1  0  0  0  0
 13 57  1  6  0  0  0
 14 13  1  0  0  0  0
 14 15  1  0  0  0  0
 14 58  1  1  0  0  0
 15 16  1  0  0  0  0
 15 21  1  0  0  0  0
 15 59  1  1  0  0  0
 16 17  1  0  0  0  0
 16 45  1  0  0  0  0
 16 60  1  6  0  0  0
 18 17  1  0  0  0  0
 18 19  1  0  0  0  0
 18 61  1  1  0  0  0
 19 33  1  0  0  0  0
 19 62  1  0  0  0  0
 19 63  1  0  0  0  0
 20 14  1  0  0  0  0
 21 64  1  0  0  0  0
 22 27  1  0  0  0  0
 22 29  1  0  0  0  0
 22 65  1  6  0  0  0
 23 22  1  0  0  0  0
 23 30  1  0  0  0  0
 23 66  1  1  0  0  0
 24 23  1  0  0  0  0
 24 25  1  0  0  0  0
 24 67  1  1  0  0  0
 25 20  1  0  0  0  0
 25 26  1  0  0  0  0
 25 68  1  1  0  0  0
 26 27  1  0  0  0  0
 27 28  1  0  0  0  0
 27 69  1  6  0  0  0
 28 31  1  0  0  0  0
 28 70  1  0  0  0  0
 28 71  1  0  0  0  0
 29 72  1  0  0  0  0
 30 73  1  0  0  0  0
 31 74  1  0  0  0  0
 32 24  1  0  0  0  0
 33 75  1  0  0  0  0
 34 76  1  0  0  0  0
 35 40  1  0  0  0  0
 35 42  1  0  0  0  0
 35 77  1  1  0  0  0
 36 35  1  0  0  0  0
 36 43  1  0  0  0  0
 36 78  1  6  0  0  0
 37  2  1  0  0  0  0
 37 36  1  0  0  0  0
 37 38  1  0  0  0  0
 37 79  1  6  0  0  0
 38 32  1  0  0  0  0
 38 39  1  0  0  0  0
 38 80  1  1  0  0  0
 39 40  1  0  0  0  0
 40 41  1  0  0  0  0
 40 81  1  6  0  0  0
 41 44  1  0  0  0  0
 41 82  1  0  0  0  0
 41 83  1  0  0  0  0
 42 84  1  0  0  0  0
 43 85  1  0  0  0  0
 44 86  1  0  0  0  0
 45 87  1  0  0  0  0
 46 88  1  0  0  0  0
 46 89  1  0  0  0  0
 46 90  1  0  0  0  0
M  END
