3ob2_ligand
 OpenBabel08222323343D

183185  0  0  1  0  0  0  0  0999 V2000
  -67.1200   35.7050   -6.6780 N   0  3  0  0  0  0  0  0  0  0  0  0
  -65.9020   36.5720   -6.5530 C   0  0  2  0  0  0  0  0  0  0  0  0
  -65.4390   36.5190   -5.1180 C   0  0  0  0  0  0  0  0  0  0  0  0
  -64.3860   35.9200   -4.8240 O   0  0  0  0  0  0  0  0  0  0  0  0
  -66.2060   38.0170   -6.9600 C   0  0  0  0  0  0  0  0  0  0  0  0
  -65.3560   38.9340   -6.2930 O   0  0  0  0  0  0  0  0  0  0  0  0
  -66.2260   37.1660   -4.2460 N   0  0  0  0  0  0  0  0  0  0  0  0
  -66.1430   37.0080   -2.7860 C   0  0  2  0  0  0  0  0  0  0  0  0
  -67.3560   36.1440   -2.5460 C   0  0  0  0  0  0  0  0  0  0  0  0
  -68.3840   36.3660   -3.2180 O   0  0  0  0  0  0  0  0  0  0  0  0
  -66.3250   38.3440   -2.0280 C   0  0  0  0  0  0  0  0  0  0  0  0
  -65.2590   39.3930   -2.3270 C   0  0  0  0  0  0  0  0  0  0  0  0
  -64.1650   39.5630   -1.4730 C   0  0  0  0  0  0  0  0  0  0  0  0
  -65.3560   40.2170   -3.4620 C   0  0  0  0  0  0  0  0  0  0  0  0
  -63.1850   40.5290   -1.7540 C   0  0  0  0  0  0  0  0  0  0  0  0
  -64.3760   41.1980   -3.7440 C   0  0  0  0  0  0  0  0  0  0  0  0
  -63.2900   41.3480   -2.8870 C   0  0  0  0  0  0  0  0  0  0  0  0
  -67.2390   35.1700   -1.6410 N   0  0  0  0  0  0  0  0  0  0  0  0
  -68.3150   34.2350   -1.2810 C   0  0  2  0  0  0  0  0  0  0  0  0
  -67.9420   33.5640    0.0430 C   0  0  0  0  0  0  0  0  0  0  0  0
  -66.7480   33.4890    0.3770 O   0  0  0  0  0  0  0  0  0  0  0  0
  -68.5700   33.1680   -2.3590 C   0  0  0  0  0  0  0  0  0  0  0  0
  -69.5680   33.4810   -3.4880 C   0  0  0  0  0  0  0  0  0  0  0  0
  -69.2290   32.6720   -4.7430 C   0  0  0  0  0  0  0  0  0  0  0  0
  -71.0320   33.2970   -3.0640 C   0  0  0  0  0  0  0  0  0  0  0  0
  -68.9450   33.1060    0.8020 N   0  0  0  0  0  0  0  0  0  0  0  0
  -68.6920   32.4870    2.1140 C   0  0  2  0  0  0  0  0  0  0  0  0
  -67.7480   31.2900    1.9580 C   0  0  0  0  0  0  0  0  0  0  0  0
  -67.9640   30.4170    1.0990 O   0  0  0  0  0  0  0  0  0  0  0  0
  -69.9840   31.9980    2.8020 C   0  0  0  0  0  0  0  0  0  0  0  0
  -69.7150   31.3220    4.1550 C   0  0  0  0  0  0  0  0  0  0  0  0
  -70.9730   30.8580    4.8990 C   0  0  0  0  0  0  0  0  0  0  0  0
  -72.0650   31.3700    4.6740 O   0  0  0  0  0  0  0  0  0  0  0  0
  -70.8110   29.8910    5.8110 N   0  0  0  0  0  0  0  0  0  0  0  0
  -66.7000   31.2580    2.7810 N   0  0  0  0  0  0  0  0  0  0  0  0
  -65.8750   30.0840    2.8290 C   0  0  2  0  0  0  0  0  0  0  0  0
  -65.5930   29.7100    4.2670 C   0  0  0  0  0  0  0  0  0  0  0  0
  -66.4700   29.1600    4.9020 O   0  0  0  0  0  0  0  0  0  0  0  0
  -64.6270   30.2770    2.0120 C   0  0  0  0  0  0  0  0  0  0  0  0
  -64.1010   28.9550    1.5450 C   0  0  0  0  0  0  0  0  0  0  0  0
  -64.9410   28.3800    0.3730 C   0  0  0  0  0  0  0  0  0  0  0  0
  -64.3410   27.1450   -0.1330 N   0  0  0  0  0  0  0  0  0  0  0  0
  -64.8730   26.3780   -1.0900 C   0  0  0  0  0  3  0  0  0  0  0  0
  -66.0290   26.7280   -1.6870 N   0  0  0  0  0  0  0  0  0  0  0  0
  -64.2310   25.2580   -1.4770 N   0  0  0  0  0  0  0  0  0  0  0  0
  -64.4000   30.0260    4.7830 N   0  0  0  0  0  0  0  0  0  0  0  0
  -64.0090   29.5970    6.1120 C   0  0  2  0  0  0  0  0  0  0  0  0
  -64.1450   30.7540    7.0760 C   0  0  0  0  0  0  0  0  0  0  0  0
  -63.9630   31.9040    6.7330 O   0  0  0  0  0  0  0  0  0  0  0  0
  -62.6060   28.9140    6.1980 C   0  0  0  0  0  0  0  0  0  0  0  0
  -62.5040   27.6720    5.3120 C   0  0  0  0  0  0  0  0  0  0  0  0
  -63.1950   26.5020    5.6520 C   0  0  0  0  0  0  0  0  0  0  0  0
  -61.7670   27.6800    4.1240 C   0  0  0  0  0  0  0  0  0  0  0  0
  -63.1340   25.3730    4.8550 C   0  0  0  0  0  0  0  0  0  0  0  0
  -61.7120   26.5490    3.2970 C   0  0  0  0  0  0  0  0  0  0  0  0
  -62.4150   25.3910    3.6710 C   0  0  0  0  0  0  0  0  0  0  0  0
  -62.4380   24.3210    3.0080 O   0  0  0  0  0  0  0  0  0  0  0  0
  -61.7500   24.0430    1.5430 P   0  0  0  0  0  0  0  0  0  0  0  0
  -62.3960   24.9580    0.6050 O   0  0  0  0  0  1  0  0  0  0  0  0
  -62.1500   22.6510    1.1150 O   0  0  0  0  0  1  0  0  0  0  0  0
  -60.2360   24.3150    1.6580 O   0  0  0  0  0  0  0  0  0  0  0  0
  -64.4480   30.4190    8.3010 N   0  0  0  0  0  0  0  0  0  0  0  0
  -64.8030   31.3840    9.2850 C   0  0  1  0  0  0  0  0  0  0  0  0
  -66.2740   31.1470    9.6460 C   0  0  0  0  0  0  0  0  0  0  0  0
  -66.6970   31.7380   10.8690 O   0  0  0  0  0  0  0  0  0  0  0  0
  -63.8400   31.1590   10.4610 C   0  0  0  0  0  0  0  0  0  0  0  0
  -63.3470   30.0680   10.6960 O   0  0  0  0  0  0  0  0  0  0  0  0
  -66.9510   33.3460   10.7890 P   0  0  0  0  0  0  0  0  0  0  0  0
  -67.5480   33.6960    9.3250 O   0  0  0  0  0  1  0  0  0  0  0  0
  -65.5330   34.1180   10.9900 O   0  0  0  0  0  1  0  0  0  0  0  0
  -67.9530   33.8100   11.9600 O   0  0  0  0  0  0  0  0  0  0  0  0
  -63.5620   32.2030   11.1990 N   0  0  0  0  0  0  0  0  0  0  0  0
  -62.6410   32.1140   12.3230 C   0  0  2  0  0  0  0  0  0  0  0  0
  -63.0760   31.1080   13.4450 C   0  0  0  0  0  0  0  0  0  0  0  0
  -64.2620   30.9040   13.6640 O   0  0  0  0  0  0  0  0  0  0  0  0
  -62.4670   33.5480   12.8320 C   0  0  0  0  0  0  0  0  0  0  0  0
  -62.1440   33.5750   14.2090 O   0  0  0  0  0  0  0  0  0  0  0  0
  -62.1210   30.4380   14.1010 N   0  0  0  0  0  0  0  0  0  0  0  0
  -62.3840   29.5390   15.2470 C   0  0  2  0  0  0  0  0  0  0  0  0
  -63.4430   30.0990   16.2380 C   0  0  0  0  0  0  0  0  0  0  0  0
  -63.2640   31.1900   16.7970 O   0  0  0  0  0  0  0  0  0  0  0  0
  -61.0670   29.2890   16.0380 C   0  0  0  0  0  0  0  0  0  0  0  0
  -61.0080   27.9100   16.7160 C   0  0  0  0  0  0  0  0  0  0  0  0
  -62.0630   27.2780   16.9030 O   0  5  0  0  0  0  0  0  0  0  0  0
  -59.8870   27.4440   17.0620 O   0  0  0  0  0  0  0  0  0  0  0  0
  -64.5450   29.3540   16.4740 N   0  0  0  0  0  0  0  0  0  0  0  0
  -65.4820   29.7610   17.5440 C   0  0  2  0  0  0  0  0  0  0  0  0
  -65.0530   29.3430   18.9700 C   0  0  0  0  0  0  0  0  0  0  0  0
  -65.6420   29.8050   19.9490 O   0  0  0  0  0  0  0  0  0  0  0  0
  -66.7600   29.0060   17.1740 C   0  0  0  0  0  0  0  0  0  0  0  0
  -66.2570   27.7590   16.5050 C   0  0  0  0  0  0  0  0  0  0  0  0
  -65.0760   28.2250   15.6830 C   0  0  0  0  0  0  0  0  0  0  0  0
  -64.0530   28.4620   19.0680 N   0  0  0  0  0  0  0  0  0  0  0  0
  -63.7210   27.7830   20.3070 C   0  0  2  0  0  0  0  0  0  0  0  0
  -62.5940   28.4990   21.0130 C   0  0  0  0  0  0  0  0  0  0  0  0
  -62.0000   29.4470   20.4660 O   0  5  0  0  0  0  0  0  0  0  0  0
  -63.2310   26.3540   20.0470 C   0  0  2  0  0  0  0  0  0  0  0  0
  -61.9080   26.4070   19.4800 O   0  0  0  0  0  0  0  0  0  0  0  0
  -64.1950   25.5780   19.1000 C   0  0  0  0  0  0  0  0  0  0  0  0
  -62.2470   28.0920   22.1410 O   0  0  0  0  0  0  0  0  0  0  0  0
  -67.4495   35.7238   -7.6305 H   0  0  0  0  0  0  0  0  0  0  0  0
  -67.8425   36.0502   -6.0657 H   0  0  0  0  0  0  0  0  0  0  0  0
  -66.8864   34.7585   -6.4219 H   0  0  0  0  0  0  0  0  0  0  0  0
  -65.1096   36.1797   -7.2074 H   0  0  0  0  0  0  0  0  0  0  0  0
  -67.2509   38.2479   -6.7052 H   0  0  0  0  0  0  0  0  0  0  0  0
  -66.0617   38.1205   -8.0456 H   0  0  0  0  0  0  0  0  0  0  0  0
  -64.4517   38.7431   -6.5125 H   0  0  0  0  0  0  0  0  0  0  0  0
  -66.9121   37.7952   -4.6112 H   0  0  0  0  0  0  0  0  0  0  0  0
  -65.2058   36.5212   -2.4783 H   0  0  0  0  0  0  0  0  0  0  0  0
  -66.3047   38.1319   -0.9488 H   0  0  0  0  0  0  0  0  0  0  0  0
  -67.3048   38.7629   -2.3010 H   0  0  0  0  0  0  0  0  0  0  0  0
  -64.0726   38.9446   -0.5875 H   0  0  0  0  0  0  0  0  0  0  0  0
  -66.1981   40.0985   -4.1343 H   0  0  0  0  0  0  0  0  0  0  0  0
  -62.3378   40.6426   -1.0873 H   0  0  0  0  0  0  0  0  0  0  0  0
  -64.4705   41.8280   -4.6211 H   0  0  0  0  0  0  0  0  0  0  0  0
  -62.5303   42.0931   -3.0940 H   0  0  0  0  0  0  0  0  0  0  0  0
  -66.3594   35.0693   -1.1760 H   0  0  0  0  0  0  0  0  0  0  0  0
  -69.2430   34.8092   -1.1431 H   0  0  0  0  0  0  0  0  0  0  0  0
  -68.9365   32.2681   -1.8434 H   0  0  0  0  0  0  0  0  0  0  0  0
  -67.6021   32.9499   -2.8339 H   0  0  0  0  0  0  0  0  0  0  0  0
  -69.4434   34.5439   -3.7422 H   0  0  0  0  0  0  0  0  0  0  0  0
  -69.9517   32.9084   -5.5379 H   0  0  0  0  0  0  0  0  0  0  0  0
  -69.2774   31.5978   -4.5110 H   0  0  0  0  0  0  0  0  0  0  0  0
  -68.2144   32.9286   -5.0818 H   0  0  0  0  0  0  0  0  0  0  0  0
  -71.2302   33.8941   -2.1617 H   0  0  0  0  0  0  0  0  0  0  0  0
  -71.2209   32.2348   -2.8495 H   0  0  0  0  0  0  0  0  0  0  0  0
  -71.6939   33.6303   -3.8769 H   0  0  0  0  0  0  0  0  0  0  0  0
  -69.8854   33.1858    0.4713 H   0  0  0  0  0  0  0  0  0  0  0  0
  -68.2150   33.2381    2.7608 H   0  0  0  0  0  0  0  0  0  0  0  0
  -70.4832   31.2749    2.1403 H   0  0  0  0  0  0  0  0  0  0  0  0
  -70.6446   32.8622    2.9655 H   0  0  0  0  0  0  0  0  0  0  0  0
  -69.1820   32.0390    4.7967 H   0  0  0  0  0  0  0  0  0  0  0  0
  -69.0773   30.4433    3.9786 H   0  0  0  0  0  0  0  0  0  0  0  0
  -71.5987   29.5514    6.3250 H   0  0  0  0  0  0  0  0  0  0  0  0
  -69.9023   29.5084    5.9781 H   0  0  0  0  0  0  0  0  0  0  0  0
  -66.4900   32.0455    3.3604 H   0  0  0  0  0  0  0  0  0  0  0  0
  -66.4381   29.2547    2.3762 H   0  0  0  0  0  0  0  0  0  0  0  0
  -63.8633   30.7740    2.6282 H   0  0  0  0  0  0  0  0  0  0  0  0
  -64.8586   30.9042    1.1385 H   0  0  0  0  0  0  0  0  0  0  0  0
  -64.1284   28.2446    2.3844 H   0  0  0  0  0  0  0  0  0  0  0  0
  -63.0620   29.0845    1.2079 H   0  0  0  0  0  0  0  0  0  0  0  0
  -64.9830   29.1207   -0.4392 H   0  0  0  0  0  0  0  0  0  0  0  0
  -65.9600   28.1676    0.7287 H   0  0  0  0  0  0  0  0  0  0  0  0
  -63.4451   26.8453    0.2774 H   0  0  0  0  0  0  0  0  0  0  0  0
  -66.4301   26.1297   -2.4233 H   0  0  0  0  0  0  0  0  0  0  0  0
  -66.5116   27.5938   -1.4071 H   0  0  0  0  0  0  0  0  0  0  0  0
  -63.3471   24.9879   -1.0224 H   0  0  0  0  0  0  0  0  0  0  0  0
  -64.6243   24.6721   -2.2273 H   0  0  0  0  0  0  0  0  0  0  0  0
  -63.7622   30.5713    4.2391 H   0  0  0  0  0  0  0  0  0  0  0  0
  -64.7372   28.8326    6.4209 H   0  0  0  0  0  0  0  0  0  0  0  0
  -62.4206   28.6191    7.2414 H   0  0  0  0  0  0  0  0  0  0  0  0
  -61.8412   29.6378    5.8800 H   0  0  0  0  0  0  0  0  0  0  0  0
  -63.7897   26.4808    6.5581 H   0  0  0  0  0  0  0  0  0  0  0  0
  -61.2287   28.5761    3.8372 H   0  0  0  0  0  0  0  0  0  0  0  0
  -63.6512   24.4699    5.1583 H   0  0  0  0  0  0  0  0  0  0  0  0
  -61.1341   26.5676    2.3801 H   0  0  0  0  0  0  0  0  0  0  0  0
  -64.4300   29.4523    8.5563 H   0  0  0  0  0  0  0  0  0  0  0  0
  -64.6815   32.4059    8.8964 H   0  0  0  0  0  0  0  0  0  0  0  0
  -66.4369   30.0615    9.7176 H   0  0  0  0  0  0  0  0  0  0  0  0
  -66.8944   31.5583    8.8361 H   0  0  0  0  0  0  0  0  0  0  0  0
  -63.9913   33.0808   10.9865 H   0  0  0  0  0  0  0  0  0  0  0  0
  -61.6710   31.7613   11.9425 H   0  0  0  0  0  0  0  0  0  0  0  0
  -63.4057   34.0993   12.6745 H   0  0  0  0  0  0  0  0  0  0  0  0
  -61.6578   34.0323   12.2658 H   0  0  0  0  0  0  0  0  0  0  0  0
  -62.0433   34.4762   14.4919 H   0  0  0  0  0  0  0  0  0  0  0  0
  -61.1744   30.5514   13.7992 H   0  0  0  0  0  0  0  0  0  0  0  0
  -62.7522   28.5813   14.8506 H   0  0  0  0  0  0  0  0  0  0  0  0
  -60.9758   30.0625   16.8148 H   0  0  0  0  0  0  0  0  0  0  0  0
  -60.2212   29.3694   15.3393 H   0  0  0  0  0  0  0  0  0  0  0  0
  -65.6366   30.8498   17.5203 H   0  0  0  0  0  0  0  0  0  0  0  0
  -67.3795   29.5982   16.4845 H   0  0  0  0  0  0  0  0  0  0  0  0
  -67.3444   28.7602   18.0729 H   0  0  0  0  0  0  0  0  0  0  0  0
  -67.0334   27.3233   15.8590 H   0  0  0  0  0  0  0  0  0  0  0  0
  -65.9423   27.0159   17.2524 H   0  0  0  0  0  0  0  0  0  0  0  0
  -64.3261   27.4268   15.5806 H   0  0  0  0  0  0  0  0  0  0  0  0
  -65.3960   28.5578   14.6846 H   0  0  0  0  0  0  0  0  0  0  0  0
  -63.5100   28.2619   18.2524 H   0  0  0  0  0  0  0  0  0  0  0  0
  -64.6122   27.7587   20.9513 H   0  0  0  0  0  0  0  0  0  0  0  0
  -63.1850   25.8192   21.0071 H   0  0  0  0  0  0  0  0  0  0  0  0
  -61.9341   26.8907   18.6628 H   0  0  0  0  0  0  0  0  0  0  0  0
  -63.8099   24.5604   18.9385 H   0  0  0  0  0  0  0  0  0  0  0  0
  -64.2618   26.1021   18.1352 H   0  0  0  0  0  0  0  0  0  0  0  0
  -65.1937   25.5237   19.5578 H   0  0  0  0  0  0  0  0  0  0  0  0
  1  2  1  0  0  0  0
  1101  1  0  0  0  0
  1102  1  0  0  0  0
  1103  1  0  0  0  0
  2  3  1  0  0  0  0
  2  5  1  0  0  0  0
  2104  1  6  0  0  0
  3  4  2  0  0  0  0
  3  7  1  0  0  0  0
  5  6  1  0  0  0  0
  5105  1  0  0  0  0
  5106  1  0  0  0  0
  6107  1  0  0  0  0
  7  8  1  0  0  0  0
  7108  1  0  0  0  0
  8  9  1  0  0  0  0
  8 11  1  0  0  0  0
  8109  1  1  0  0  0
  9 10  2  0  0  0  0
  9 18  1  0  0  0  0
 11 12  1  0  0  0  0
 11110  1  0  0  0  0
 11111  1  0  0  0  0
 12 13  2  0  0  0  0
 12 14  1  0  0  0  0
 13 15  1  0  0  0  0
 13112  1  0  0  0  0
 14 16  2  0  0  0  0
 14113  1  0  0  0  0
 15 17  2  0  0  0  0
 15114  1  0  0  0  0
 16 17  1  0  0  0  0
 16115  1  0  0  0  0
 17116  1  0  0  0  0
 18 19  1  0  0  0  0
 18117  1  0  0  0  0
 19 20  1  0  0  0  0
 19 22  1  0  0  0  0
 19118  1  1  0  0  0
 20 21  2  0  0  0  0
 20 26  1  0  0  0  0
 22 23  1  0  0  0  0
 22119  1  0  0  0  0
 22120  1  0  0  0  0
 23 24  1  0  0  0  0
 23 25  1  0  0  0  0
 23121  1  0  0  0  0
 24122  1  0  0  0  0
 24123  1  0  0  0  0
 24124  1  0  0  0  0
 25125  1  0  0  0  0
 25126  1  0  0  0  0
 25127  1  0  0  0  0
 26 27  1  0  0  0  0
 26128  1  0  0  0  0
 27 28  1  0  0  0  0
 27 30  1  0  0  0  0
 27129  1  1  0  0  0
 28 29  2  0  0  0  0
 28 35  1  0  0  0  0
 30 31  1  0  0  0  0
 30130  1  0  0  0  0
 30131  1  0  0  0  0
 31 32  1  0  0  0  0
 31132  1  0  0  0  0
 31133  1  0  0  0  0
 32 33  2  0  0  0  0
 32 34  1  0  0  0  0
 34134  1  0  0  0  0
 34135  1  0  0  0  0
 35 36  1  0  0  0  0
 35136  1  0  0  0  0
 36 37  1  0  0  0  0
 36 39  1  0  0  0  0
 36137  1  6  0  0  0
 37 38  2  0  0  0  0
 37 46  1  0  0  0  0
 39 40  1  0  0  0  0
 39138  1  0  0  0  0
 39139  1  0  0  0  0
 40 41  1  0  0  0  0
 40140  1  0  0  0  0
 40141  1  0  0  0  0
 41 42  1  0  0  0  0
 41142  1  0  0  0  0
 41143  1  0  0  0  0
 42 43  1  0  0  0  0
 42144  1  0  0  0  0
 43 44  1  0  0  0  0
 43 45  1  0  0  0  0
 44145  1  0  0  0  0
 44146  1  0  0  0  0
 45147  1  0  0  0  0
 45148  1  0  0  0  0
 46 47  1  0  0  0  0
 46149  1  0  0  0  0
 47 48  1  0  0  0  0
 47 50  1  0  0  0  0
 47150  1  1  0  0  0
 48 49  2  0  0  0  0
 48 62  1  0  0  0  0
 50 51  1  0  0  0  0
 50151  1  0  0  0  0
 50152  1  0  0  0  0
 51 52  2  0  0  0  0
 51 53  1  0  0  0  0
 52 54  1  0  0  0  0
 52153  1  0  0  0  0
 53 55  2  0  0  0  0
 53154  1  0  0  0  0
 54 56  2  0  0  0  0
 54155  1  0  0  0  0
 55 56  1  0  0  0  0
 55156  1  0  0  0  0
 56 57  1  0  0  0  0
 57 58  1  0  0  0  0
 58 59  1  0  0  0  0
 58 60  1  0  0  0  0
 58 61  2  0  0  0  0
 62 63  1  0  0  0  0
 62157  1  0  0  0  0
 63 64  1  0  0  0  0
 63 66  1  0  0  0  0
 63158  1  6  0  0  0
 64 65  1  0  0  0  0
 64159  1  0  0  0  0
 64160  1  0  0  0  0
 65 68  1  0  0  0  0
 66 67  2  0  0  0  0
 66 72  1  0  0  0  0
 68 69  1  0  0  0  0
 68 70  1  0  0  0  0
 68 71  2  0  0  0  0
 72 73  1  0  0  0  0
 72161  1  0  0  0  0
 73 74  1  0  0  0  0
 73 76  1  0  0  0  0
 73162  1  6  0  0  0
 74 75  2  0  0  0  0
 74 78  1  0  0  0  0
 76 77  1  0  0  0  0
 76163  1  0  0  0  0
 76164  1  0  0  0  0
 77165  1  0  0  0  0
 78 79  1  0  0  0  0
 78166  1  0  0  0  0
 79 80  1  0  0  0  0
 79 82  1  0  0  0  0
 79167  1  6  0  0  0
 80 81  2  0  0  0  0
 80 86  1  0  0  0  0
 82 83  1  0  0  0  0
 82168  1  0  0  0  0
 82169  1  0  0  0  0
 83 84  1  0  0  0  0
 83 85  2  0  0  0  0
 86 87  1  0  0  0  0
 86 92  1  0  0  0  0
 87 88  1  0  0  0  0
 87 90  1  0  0  0  0
 87170  1  6  0  0  0
 88 89  2  0  0  0  0
 88 93  1  0  0  0  0
 90 91  1  0  0  0  0
 90171  1  0  0  0  0
 90172  1  0  0  0  0
 91 92  1  0  0  0  0
 91173  1  0  0  0  0
 91174  1  0  0  0  0
 92175  1  0  0  0  0
 92176  1  0  0  0  0
 93 94  1  0  0  0  0
 93177  1  0  0  0  0
 94 95  1  0  0  0  0
 94 97  1  0  0  0  0
 94178  1  1  0  0  0
 95 96  1  0  0  0  0
 95100  2  0  0  0  0
 97 98  1  0  0  0  0
 97 99  1  0  0  0  0
 97179  1  1  0  0  0
 98180  1  0  0  0  0
 99181  1  0  0  0  0
 99182  1  0  0  0  0
 99183  1  0  0  0  0
M  CHG  3   1   1  84  -1  96  -1
M  END
