3obu_ligand
 OpenBabel08222323343D

128131  0  0  1  0  0  0  0  0999 V2000
   -7.2870   -2.6170    1.9870 N   0  3  0  0  0  0  0  0  0  0  0  0
   -6.5670   -1.8520    3.0300 C   0  0  2  0  0  0  0  0  0  0  0  0
   -5.0820   -1.7820    2.6930 C   0  0  0  0  0  0  0  0  0  0  0  0
   -4.5070   -0.6990    2.5660 O   0  0  0  0  0  0  0  0  0  0  0  0
   -6.7910   -2.5830    4.3460 C   0  0  0  0  0  0  0  0  0  0  0  0
   -8.0880   -3.3460    4.0670 C   0  0  0  0  0  0  0  0  0  0  0  0
   -7.9940   -3.7590    2.5940 C   0  0  0  0  0  0  0  0  0  0  0  0
   -4.4720   -2.9520    2.5460 N   0  0  0  0  0  0  0  0  0  0  0  0
   -3.0530   -3.0560    2.2240 C   0  0  2  0  0  0  0  0  0  0  0  0
   -2.8650   -3.7660    0.8830 C   0  0  0  0  0  0  0  0  0  0  0  0
   -3.4590   -4.8130    0.6470 O   0  0  0  0  0  0  0  0  0  0  0  0
   -2.3350   -3.8340    3.3290 C   0  0  0  0  0  0  0  0  0  0  0  0
   -0.9640   -4.3500    2.9430 C   0  0  0  0  0  0  0  0  0  0  0  0
    0.1370   -3.7210    3.7630 C   0  0  0  0  0  0  0  0  0  0  0  0
    0.1970   -2.4740    3.8080 O   0  5  0  0  0  0  0  0  0  0  0  0
    0.9420   -4.4710    4.3550 O   0  0  0  0  0  0  0  0  0  0  0  0
   -2.0370   -3.2000   -0.0130 N   0  0  0  0  0  0  0  0  0  0  0  0
   -1.7980   -3.8140   -1.3230 C   0  0  2  0  0  0  0  0  0  0  0  0
   -1.3010   -5.2500   -1.1840 C   0  0  0  0  0  0  0  0  0  0  0  0
   -0.3850   -5.5240   -0.4110 O   0  0  0  0  0  0  0  0  0  0  0  0
   -0.7410   -2.9050   -1.9460 C   0  0  0  0  0  0  0  0  0  0  0  0
   -1.0390   -1.5690   -1.3370 C   0  0  0  0  0  0  0  0  0  0  0  0
   -1.3000   -1.9310    0.1140 C   0  0  0  0  0  0  0  0  0  0  0  0
   -1.9160   -6.1650   -1.9220 N   0  0  0  0  0  0  0  0  0  0  0  0
   -1.5070   -7.5630   -1.8880 C   0  0  2  0  0  0  0  0  0  0  0  0
   -1.5450   -8.1200   -3.3030 C   0  0  0  0  0  0  0  0  0  0  0  0
   -2.2540   -7.5990   -4.1640 O   0  0  0  0  0  0  0  0  0  0  0  0
   -2.4350   -8.4220   -0.9930 C   0  0  2  0  0  0  0  0  0  0  0  0
   -3.7950   -8.2700   -1.4170 O   0  0  0  0  0  0  0  0  0  0  0  0
   -2.3010   -8.0130    0.4680 C   0  0  0  0  0  0  0  0  0  0  0  0
   -0.7790   -9.1780   -3.5370 N   0  0  0  0  0  0  0  0  0  0  0  0
   -0.7260   -9.8070   -4.8480 C   0  0  2  0  0  0  0  0  0  0  0  0
   -0.5890  -11.3130   -4.6720 C   0  0  0  0  0  0  0  0  0  0  0  0
   -0.0430  -11.7800   -3.6730 O   0  0  0  0  0  0  0  0  0  0  0  0
    0.4540   -9.2610   -5.6350 C   0  0  0  0  0  0  0  0  0  0  0  0
   -1.0920  -12.0930   -5.6390 N   0  0  0  0  0  0  0  0  0  0  0  0
   -1.0110  -13.5550   -5.5630 C   0  0  2  0  0  0  0  0  0  0  0  0
    0.3900  -14.0780   -5.8610 C   0  0  0  0  0  0  0  0  0  0  0  0
    1.2100  -13.3830   -6.4500 O   0  0  0  0  0  0  0  0  0  0  0  0
   -2.0230  -14.0030   -6.6100 C   0  0  0  0  0  0  0  0  0  0  0  0
   -1.8590  -12.9580   -7.6680 C   0  0  0  0  0  0  0  0  0  0  0  0
   -1.8050  -11.6700   -6.8590 C   0  0  0  0  0  0  0  0  0  0  0  0
    0.6870  -15.3160   -5.4420 N   0  0  0  0  0  0  0  0  0  0  0  0
    2.0200  -15.8680   -5.7110 C   0  0  2  0  0  0  0  0  0  0  0  0
    2.1170  -16.3290   -7.1660 C   0  0  0  0  0  0  0  0  0  0  0  0
    1.0960  -16.5840   -7.7980 O   0  0  0  0  0  0  0  0  0  0  0  0
    2.1160  -17.0270   -4.7250 C   0  0  0  0  0  0  0  0  0  0  0  0
    0.6890  -17.5000   -4.6310 C   0  0  0  0  0  0  0  0  0  0  0  0
   -0.0940  -16.2040   -4.5610 C   0  0  0  0  0  0  0  0  0  0  0  0
    3.3310  -16.4260   -7.7030 N   0  0  0  0  0  0  0  0  0  0  0  0
    3.4920  -16.8660   -9.0870 C   0  0  2  0  0  0  0  0  0  0  0  0
    2.7310  -18.1700   -9.3030 C   0  0  0  0  0  0  0  0  0  0  0  0
    3.0330  -19.1820   -8.6730 O   0  0  0  0  0  0  0  0  0  0  0  0
    4.9710  -17.0670   -9.4340 C   0  0  0  0  0  0  0  0  0  0  0  0
    5.7710  -15.7780   -9.6450 C   0  0  0  0  0  0  0  0  0  0  0  0
    5.2720  -14.9400  -10.8170 C   0  0  0  0  0  0  0  0  0  0  0  0
    4.7570  -15.5180  -11.8000 O   0  5  0  0  0  0  0  0  0  0  0  0
    5.4150  -13.6980  -10.7660 O   0  0  0  0  0  0  0  0  0  0  0  0
    1.7380  -18.1120  -10.1880 N   0  0  0  0  0  0  0  0  0  0  0  0
    0.8720  -19.2360  -10.5520 C   0  0  2  0  0  0  0  0  0  0  0  0
   -0.4790  -18.7150  -11.0320 C   0  0  0  0  0  0  0  0  0  0  0  0
   -1.4720  -18.8840  -10.2880 O   0  5  0  0  0  0  0  0  0  0  0  0
    0.6370  -20.1950   -9.3760 C   0  0  0  0  0  0  0  0  0  0  0  0
    1.6570  -21.3190   -9.2670 C   0  0  0  0  0  0  0  0  0  0  0  0
    1.9130  -21.9910  -10.5930 C   0  0  0  0  0  0  0  0  0  0  0  0
    0.9690  -22.5940  -11.1480 O   0  5  0  0  0  0  0  0  0  0  0  0
    3.0590  -21.9070  -11.0840 O   0  0  0  0  0  0  0  0  0  0  0  0
   -0.5280  -18.1390  -12.1390 O   0  0  0  0  0  0  0  0  0  0  0  0
   -6.6255   -2.9577    1.3070 H   0  0  0  0  0  0  0  0  0  0  0  0
   -7.9553   -2.0143    1.5330 H   0  0  0  0  0  0  0  0  0  0  0  0
   -6.9720   -0.8314    3.0960 H   0  0  0  0  0  0  0  0  0  0  0  0
   -6.9141   -1.8765    5.1801 H   0  0  0  0  0  0  0  0  0  0  0  0
   -5.9619   -3.2711    4.5675 H   0  0  0  0  0  0  0  0  0  0  0  0
   -8.9614   -2.6980    4.2321 H   0  0  0  0  0  0  0  0  0  0  0  0
   -8.1620   -4.2329    4.7135 H   0  0  0  0  0  0  0  0  0  0  0  0
   -7.4191   -4.6896    2.4780 H   0  0  0  0  0  0  0  0  0  0  0  0
   -8.9933   -3.8879    2.1528 H   0  0  0  0  0  0  0  0  0  0  0  0
   -5.0038   -3.7912    2.6600 H   0  0  0  0  0  0  0  0  0  0  0  0
   -2.6244   -2.0452    2.1573 H   0  0  0  0  0  0  0  0  0  0  0  0
   -2.9610   -4.6951    3.6057 H   0  0  0  0  0  0  0  0  0  0  0  0
   -2.2201   -3.1698    4.1982 H   0  0  0  0  0  0  0  0  0  0  0  0
   -0.7871   -4.1242    1.8811 H   0  0  0  0  0  0  0  0  0  0  0  0
   -0.9402   -5.4391    3.0952 H   0  0  0  0  0  0  0  0  0  0  0  0
   -2.7170   -3.8102   -1.9276 H   0  0  0  0  0  0  0  0  0  0  0  0
   -0.8445   -2.8717   -3.0406 H   0  0  0  0  0  0  0  0  0  0  0  0
    0.2730   -3.2411   -1.6836 H   0  0  0  0  0  0  0  0  0  0  0  0
   -1.9247   -1.1084   -1.7989 H   0  0  0  0  0  0  0  0  0  0  0  0
   -0.1806   -0.8875   -1.4301 H   0  0  0  0  0  0  0  0  0  0  0  0
   -0.3590   -2.0692    0.6666 H   0  0  0  0  0  0  0  0  0  0  0  0
   -1.9093   -1.1635    0.6137 H   0  0  0  0  0  0  0  0  0  0  0  0
   -2.6746   -5.8900   -2.5127 H   0  0  0  0  0  0  0  0  0  0  0  0
   -0.4807   -7.6230   -1.4967 H   0  0  0  0  0  0  0  0  0  0  0  0
   -2.1454   -9.4784   -1.0932 H   0  0  0  0  0  0  0  0  0  0  0  0
   -4.3587   -8.7988   -0.8647 H   0  0  0  0  0  0  0  0  0  0  0  0
   -2.9670   -8.6340    1.0851 H   0  0  0  0  0  0  0  0  0  0  0  0
   -2.5790   -6.9546    0.5795 H   0  0  0  0  0  0  0  0  0  0  0  0
   -1.2603   -8.1551    0.7946 H   0  0  0  0  0  0  0  0  0  0  0  0
   -0.2244   -9.5523   -2.7938 H   0  0  0  0  0  0  0  0  0  0  0  0
   -1.6553   -9.5886   -5.3946 H   0  0  0  0  0  0  0  0  0  0  0  0
    0.4882   -9.7404   -6.6244 H   0  0  0  0  0  0  0  0  0  0  0  0
    1.3868   -9.4737   -5.0922 H   0  0  0  0  0  0  0  0  0  0  0  0
    0.3411   -8.1738   -5.7581 H   0  0  0  0  0  0  0  0  0  0  0  0
   -1.3104  -13.9042   -4.5638 H   0  0  0  0  0  0  0  0  0  0  0  0
   -3.0451  -14.0033   -6.2036 H   0  0  0  0  0  0  0  0  0  0  0  0
   -1.7818  -15.0042   -6.9964 H   0  0  0  0  0  0  0  0  0  0  0  0
   -2.7140  -12.9563   -8.3601 H   0  0  0  0  0  0  0  0  0  0  0  0
   -0.9286  -13.1098   -8.2349 H   0  0  0  0  0  0  0  0  0  0  0  0
   -1.2481  -10.8868   -7.3942 H   0  0  0  0  0  0  0  0  0  0  0  0
   -2.8157  -11.3053   -6.6233 H   0  0  0  0  0  0  0  0  0  0  0  0
    2.8053  -15.1236   -5.5130 H   0  0  0  0  0  0  0  0  0  0  0  0
    2.4862  -16.6862   -3.7469 H   0  0  0  0  0  0  0  0  0  0  0  0
    2.7728  -17.8214   -5.1092 H   0  0  0  0  0  0  0  0  0  0  0  0
    0.5319  -18.1064   -3.7268 H   0  0  0  0  0  0  0  0  0  0  0  0
    0.4069  -18.0852   -5.5186 H   0  0  0  0  0  0  0  0  0  0  0  0
   -1.1190  -16.3372   -4.9374 H   0  0  0  0  0  0  0  0  0  0  0  0
   -0.1286  -15.8148   -3.5328 H   0  0  0  0  0  0  0  0  0  0  0  0
    4.1366  -16.1967   -7.1567 H   0  0  0  0  0  0  0  0  0  0  0  0
    3.0760  -16.0951   -9.7523 H   0  0  0  0  0  0  0  0  0  0  0  0
    5.0263  -17.6576  -10.3604 H   0  0  0  0  0  0  0  0  0  0  0  0
    5.4403  -17.6284   -8.6127 H   0  0  0  0  0  0  0  0  0  0  0  0
    6.8215  -16.0461   -9.8306 H   0  0  0  0  0  0  0  0  0  0  0  0
    5.7034  -15.1720   -8.7295 H   0  0  0  0  0  0  0  0  0  0  0  0
    1.5707  -17.2349  -10.6382 H   0  0  0  0  0  0  0  0  0  0  0  0
    1.3534  -19.7938  -11.3688 H   0  0  0  0  0  0  0  0  0  0  0  0
   -0.3597  -20.6453   -9.4934 H   0  0  0  0  0  0  0  0  0  0  0  0
    0.6681  -19.6109   -8.4444 H   0  0  0  0  0  0  0  0  0  0  0  0
    1.2811  -22.0701   -8.5567 H   0  0  0  0  0  0  0  0  0  0  0  0
    2.6039  -20.9023   -8.8931 H   0  0  0  0  0  0  0  0  0  0  0  0
  1  2  1  0  0  0  0
  1  7  1  0  0  0  0
  1 69  1  0  0  0  0
  1 70  1  0  0  0  0
  2  3  1  0  0  0  0
  2  5  1  0  0  0  0
  2 71  1  1  0  0  0
  3  4  2  0  0  0  0
  3  8  1  0  0  0  0
  5  6  1  0  0  0  0
  5 72  1  0  0  0  0
  5 73  1  0  0  0  0
  6  7  1  0  0  0  0
  6 74  1  0  0  0  0
  6 75  1  0  0  0  0
  7 76  1  0  0  0  0
  7 77  1  0  0  0  0
  8  9  1  0  0  0  0
  8 78  1  0  0  0  0
  9 10  1  0  0  0  0
  9 12  1  0  0  0  0
  9 79  1  6  0  0  0
 10 11  2  0  0  0  0
 10 17  1  0  0  0  0
 12 13  1  0  0  0  0
 12 80  1  0  0  0  0
 12 81  1  0  0  0  0
 13 14  1  0  0  0  0
 13 82  1  0  0  0  0
 13 83  1  0  0  0  0
 14 15  1  0  0  0  0
 14 16  2  0  0  0  0
 17 18  1  0  0  0  0
 17 23  1  0  0  0  0
 18 19  1  0  0  0  0
 18 21  1  0  0  0  0
 18 84  1  6  0  0  0
 19 20  2  0  0  0  0
 19 24  1  0  0  0  0
 21 22  1  0  0  0  0
 21 85  1  0  0  0  0
 21 86  1  0  0  0  0
 22 23  1  0  0  0  0
 22 87  1  0  0  0  0
 22 88  1  0  0  0  0
 23 89  1  0  0  0  0
 23 90  1  0  0  0  0
 24 25  1  0  0  0  0
 24 91  1  0  0  0  0
 25 26  1  0  0  0  0
 25 28  1  0  0  0  0
 25 92  1  1  0  0  0
 26 27  2  0  0  0  0
 26 31  1  0  0  0  0
 28 29  1  0  0  0  0
 28 30  1  0  0  0  0
 28 93  1  6  0  0  0
 29 94  1  0  0  0  0
 30 95  1  0  0  0  0
 30 96  1  0  0  0  0
 30 97  1  0  0  0  0
 31 32  1  0  0  0  0
 31 98  1  0  0  0  0
 32 33  1  0  0  0  0
 32 35  1  0  0  0  0
 32 99  1  6  0  0  0
 33 34  2  0  0  0  0
 33 36  1  0  0  0  0
 35100  1  0  0  0  0
 35101  1  0  0  0  0
 35102  1  0  0  0  0
 36 37  1  0  0  0  0
 36 42  1  0  0  0  0
 37 38  1  0  0  0  0
 37 40  1  0  0  0  0
 37103  1  1  0  0  0
 38 39  2  0  0  0  0
 38 43  1  0  0  0  0
 40 41  1  0  0  0  0
 40104  1  0  0  0  0
 40105  1  0  0  0  0
 41 42  1  0  0  0  0
 41106  1  0  0  0  0
 41107  1  0  0  0  0
 42108  1  0  0  0  0
 42109  1  0  0  0  0
 43 44  1  0  0  0  0
 43 49  1  0  0  0  0
 44 45  1  0  0  0  0
 44 47  1  0  0  0  0
 44110  1  1  0  0  0
 45 46  2  0  0  0  0
 45 50  1  0  0  0  0
 47 48  1  0  0  0  0
 47111  1  0  0  0  0
 47112  1  0  0  0  0
 48 49  1  0  0  0  0
 48113  1  0  0  0  0
 48114  1  0  0  0  0
 49115  1  0  0  0  0
 49116  1  0  0  0  0
 50 51  1  0  0  0  0
 50117  1  0  0  0  0
 51 52  1  0  0  0  0
 51 54  1  0  0  0  0
 51118  1  6  0  0  0
 52 53  2  0  0  0  0
 52 59  1  0  0  0  0
 54 55  1  0  0  0  0
 54119  1  0  0  0  0
 54120  1  0  0  0  0
 55 56  1  0  0  0  0
 55121  1  0  0  0  0
 55122  1  0  0  0  0
 56 57  1  0  0  0  0
 56 58  2  0  0  0  0
 59 60  1  0  0  0  0
 59123  1  0  0  0  0
 60 61  1  0  0  0  0
 60 63  1  0  0  0  0
 60124  1  6  0  0  0
 61 62  1  0  0  0  0
 61 68  2  0  0  0  0
 63 64  1  0  0  0  0
 63125  1  0  0  0  0
 63126  1  0  0  0  0
 64 65  1  0  0  0  0
 64127  1  0  0  0  0
 64128  1  0  0  0  0
 65 66  1  0  0  0  0
 65 67  2  0  0  0  0
M  CHG  5   1   1  15  -1  57  -1  62  -1  66  -1
M  END
