3omg_ligand
 OpenBabel08222323343D

 98 97  0  0  1  0  0  0  0  0999 V2000
   19.3580   -8.7980    5.5130 N   0  3  0  0  0  0  0  0  0  0  0  0
   18.5770   -9.5870    6.5190 C   0  0  0  0  0  0  0  0  0  0  0  0
   17.4270   -8.8120    7.1600 C   0  0  0  0  0  0  0  0  0  0  0  0
   16.7490   -9.3240    8.0600 O   0  0  0  0  0  0  0  0  0  0  0  0
   17.1960   -7.5800    6.7040 N   0  0  0  0  0  0  0  0  0  0  0  0
   16.1100   -6.7650    7.2720 C   0  0  2  0  0  0  0  0  0  0  0  0
   14.7050   -7.3090    6.9500 C   0  0  0  0  0  0  0  0  0  0  0  0
   13.7680   -7.1160    7.7450 O   0  0  0  0  0  0  0  0  0  0  0  0
   16.2550   -5.2800    6.9210 C   0  0  0  0  0  0  0  0  0  0  0  0
   17.2590   -4.5530    7.8290 C   0  0  0  0  0  0  0  0  0  0  0  0
   17.4060   -3.0840    7.4630 C   0  0  0  0  0  0  0  0  0  0  0  0
   17.7160   -2.9190    6.0470 N   0  0  0  0  0  0  0  0  0  0  0  0
   17.8060   -1.7570    5.4030 C   0  0  0  0  0  3  0  0  0  0  0  0
   17.6330   -0.5980    6.0310 N   0  0  0  0  0  0  0  0  0  0  0  0
   18.0840   -1.7560    4.1080 N   0  0  0  0  0  0  0  0  0  0  0  0
   14.5940   -8.0080    5.8150 N   0  0  0  0  0  0  0  0  0  0  0  0
   13.3730   -8.7180    5.3960 C   0  0  2  0  0  0  0  0  0  0  0  0
   13.1000  -10.0430    6.1560 C   0  0  0  0  0  0  0  0  0  0  0  0
   12.0700  -10.6940    5.9430 O   0  0  0  0  0  0  0  0  0  0  0  0
   13.4110   -8.9620    3.8850 C   0  0  0  0  0  0  0  0  0  0  0  0
   14.0240  -10.4370    7.0350 N   0  0  0  0  0  0  0  0  0  0  0  0
   13.9110  -11.6650    7.8550 C   0  0  1  0  0  0  0  0  0  0  0  0
   12.8410  -11.4970    8.9390 C   0  0  0  0  0  0  0  0  0  0  0  0
   13.2040  -10.3790    9.9010 C   0  0  0  0  0  0  0  0  0  0  0  0
   12.2320  -10.3890   11.0770 C   0  0  0  0  0  0  0  0  0  0  0  0
   10.8840   -9.9920   10.6850 N   0  0  0  0  0  0  0  0  0  0  0  0
    9.8430  -10.0440   11.5390 C   0  0  0  0  0  3  0  0  0  0  0  0
   10.0670  -10.4610   12.7230 N   0  0  0  0  0  0  0  0  0  0  0  0
    9.1580  -10.6360   13.8530 C   0  0  0  0  0  0  0  0  0  0  0  0
    8.6100   -9.6750   11.1370 N   0  0  0  0  0  0  0  0  0  0  0  0
    8.2890   -9.1920    9.7940 C   0  0  0  0  0  0  0  0  0  0  0  0
   13.6720  -12.9300    7.0600 C   0  0  0  0  0  0  0  0  0  0  0  0
   12.8940  -13.8020    7.4760 O   0  0  0  0  0  0  0  0  0  0  0  0
   14.3570  -13.0420    5.9210 N   0  0  0  0  0  0  0  0  0  0  0  0
   14.2310  -14.1960    5.0190 C   0  0  0  0  0  0  0  0  0  0  0  0
   12.9240  -14.1930    4.2440 C   0  0  0  0  0  0  0  0  0  0  0  0
   12.6980  -15.0540    3.3890 O   0  0  0  0  0  0  0  0  0  0  0  0
   12.0620  -13.2200    4.5510 N   0  0  0  0  0  0  0  0  0  0  0  0
   10.7420  -13.1010    3.9320 C   0  0  2  0  0  0  0  0  0  0  0  0
   10.8110  -12.1470    2.7400 C   0  0  0  0  0  0  0  0  0  0  0  0
   10.0585  -12.3071    1.7421 O   0  5  0  0  0  0  0  0  0  0  0  0
    9.6900  -12.6130    4.9520 C   0  0  0  0  0  0  0  0  0  0  0  0
    9.8150  -13.1730    6.3910 C   0  0  0  0  0  0  0  0  0  0  0  0
    9.5720  -14.6840    6.5050 C   0  0  0  0  0  0  0  0  0  0  0  0
    8.5630  -15.2060    6.0320 O   0  0  0  0  0  0  0  0  0  0  0  0
   10.4970  -15.3840    7.1560 N   0  0  0  0  0  0  0  0  0  0  0  0
   11.6298  -11.1894    2.7553 O   0  0  0  0  0  0  0  0  0  0  0  0
   20.0956   -9.3719    5.1352 H   0  0  0  0  0  0  0  0  0  0  0  0
   19.7580   -7.9873    5.9589 H   0  0  0  0  0  0  0  0  0  0  0  0
   18.7460   -8.5040    4.7680 H   0  0  0  0  0  0  0  0  0  0  0  0
   19.2641   -9.9080    7.3157 H   0  0  0  0  0  0  0  0  0  0  0  0
   18.1597  -10.4719    6.0161 H   0  0  0  0  0  0  0  0  0  0  0  0
   17.7649   -7.2073    5.9708 H   0  0  0  0  0  0  0  0  0  0  0  0
   16.2184   -6.8341    8.3644 H   0  0  0  0  0  0  0  0  0  0  0  0
   15.2725   -4.7962    7.0240 H   0  0  0  0  0  0  0  0  0  0  0  0
   16.5976   -5.1962    5.8791 H   0  0  0  0  0  0  0  0  0  0  0  0
   18.2401   -5.0414    7.7346 H   0  0  0  0  0  0  0  0  0  0  0  0
   16.9119   -4.6255    8.8703 H   0  0  0  0  0  0  0  0  0  0  0  0
   18.2183   -2.6452    8.0611 H   0  0  0  0  0  0  0  0  0  0  0  0
   16.4634   -2.5630    7.6865 H   0  0  0  0  0  0  0  0  0  0  0  0
   17.8793   -3.7751    5.4981 H   0  0  0  0  0  0  0  0  0  0  0  0
   17.7081    0.2868    5.5091 H   0  0  0  0  0  0  0  0  0  0  0  0
   17.4239   -0.5849    7.0395 H   0  0  0  0  0  0  0  0  0  0  0  0
   18.2203   -2.6472    3.6098 H   0  0  0  0  0  0  0  0  0  0  0  0
   18.1639   -0.8641    3.5991 H   0  0  0  0  0  0  0  0  0  0  0  0
   15.3908   -8.0514    5.2123 H   0  0  0  0  0  0  0  0  0  0  0  0
   12.5249   -8.0501    5.6072 H   0  0  0  0  0  0  0  0  0  0  0  0
   12.4980   -9.4921    3.5761 H   0  0  0  0  0  0  0  0  0  0  0  0
   14.2916   -9.5716    3.6340 H   0  0  0  0  0  0  0  0  0  0  0  0
   13.4706   -7.9977    3.3592 H   0  0  0  0  0  0  0  0  0  0  0  0
   14.8401   -9.8699    7.1463 H   0  0  0  0  0  0  0  0  0  0  0  0
   14.8773  -11.7922    8.3650 H   0  0  0  0  0  0  0  0  0  0  0  0
   12.7489  -12.4380    9.5011 H   0  0  0  0  0  0  0  0  0  0  0  0
   11.8794  -11.2602    8.4603 H   0  0  0  0  0  0  0  0  0  0  0  0
   13.1410   -9.4119    9.3807 H   0  0  0  0  0  0  0  0  0  0  0  0
   14.2289  -10.5306   10.2704 H   0  0  0  0  0  0  0  0  0  0  0  0
   12.5975   -9.6902   11.8439 H   0  0  0  0  0  0  0  0  0  0  0  0
   12.1936  -11.4055   11.4955 H   0  0  0  0  0  0  0  0  0  0  0  0
   10.7226   -9.6608    9.7231 H   0  0  0  0  0  0  0  0  0  0  0  0
   11.0468  -10.7154   12.9133 H   0  0  0  0  0  0  0  0  0  0  0  0
    9.7184  -11.0196   14.7184 H   0  0  0  0  0  0  0  0  0  0  0  0
    8.3684  -11.3519   13.5810 H   0  0  0  0  0  0  0  0  0  0  0  0
    8.7028   -9.6684   14.1107 H   0  0  0  0  0  0  0  0  0  0  0  0
    7.8427   -9.7374   11.8214 H   0  0  0  0  0  0  0  0  0  0  0  0
    7.2151   -8.9614    9.7343 H   0  0  0  0  0  0  0  0  0  0  0  0
    8.5389   -9.9682    9.0557 H   0  0  0  0  0  0  0  0  0  0  0  0
    8.8715   -8.2833    9.5822 H   0  0  0  0  0  0  0  0  0  0  0  0
   14.9858  -12.3065    5.6688 H   0  0  0  0  0  0  0  0  0  0  0  0
   14.2836  -15.1178    5.6170 H   0  0  0  0  0  0  0  0  0  0  0  0
   15.0653  -14.1756    4.3024 H   0  0  0  0  0  0  0  0  0  0  0  0
   12.3313  -12.5421    5.2351 H   0  0  0  0  0  0  0  0  0  0  0  0
   10.4373  -14.0937    3.5692 H   0  0  0  0  0  0  0  0  0  0  0  0
    8.6975  -12.8927    4.5690 H   0  0  0  0  0  0  0  0  0  0  0  0
    9.7646  -11.5172    5.0116 H   0  0  0  0  0  0  0  0  0  0  0  0
    9.0799  -12.6572    7.0263 H   0  0  0  0  0  0  0  0  0  0  0  0
   10.8301  -12.9590    6.7568 H   0  0  0  0  0  0  0  0  0  0  0  0
   10.3929  -16.3729    7.2623 H   0  0  0  0  0  0  0  0  0  0  0  0
   11.2965  -14.9214    7.5391 H   0  0  0  0  0  0  0  0  0  0  0  0
  1  2  1  0  0  0  0
  1 48  1  0  0  0  0
  1 49  1  0  0  0  0
  1 50  1  0  0  0  0
  2  3  1  0  0  0  0
  2 51  1  0  0  0  0
  2 52  1  0  0  0  0
  3  4  2  0  0  0  0
  3  5  1  0  0  0  0
  5  6  1  0  0  0  0
  5 53  1  0  0  0  0
  6  7  1  0  0  0  0
  6  9  1  0  0  0  0
  6 54  1  1  0  0  0
  7  8  2  0  0  0  0
  7 16  1  0  0  0  0
  9 10  1  0  0  0  0
  9 55  1  0  0  0  0
  9 56  1  0  0  0  0
 10 11  1  0  0  0  0
 10 57  1  0  0  0  0
 10 58  1  0  0  0  0
 11 12  1  0  0  0  0
 11 59  1  0  0  0  0
 11 60  1  0  0  0  0
 12 13  1  0  0  0  0
 12 61  1  0  0  0  0
 13 14  1  0  0  0  0
 13 15  1  0  0  0  0
 14 62  1  0  0  0  0
 14 63  1  0  0  0  0
 15 64  1  0  0  0  0
 15 65  1  0  0  0  0
 16 17  1  0  0  0  0
 16 66  1  0  0  0  0
 17 18  1  0  0  0  0
 17 20  1  0  0  0  0
 17 67  1  1  0  0  0
 18 19  2  0  0  0  0
 18 21  1  0  0  0  0
 20 68  1  0  0  0  0
 20 69  1  0  0  0  0
 20 70  1  0  0  0  0
 21 22  1  0  0  0  0
 21 71  1  0  0  0  0
 22 23  1  0  0  0  0
 22 32  1  0  0  0  0
 22 72  1  1  0  0  0
 23 24  1  0  0  0  0
 23 73  1  0  0  0  0
 23 74  1  0  0  0  0
 24 25  1  0  0  0  0
 24 75  1  0  0  0  0
 24 76  1  0  0  0  0
 25 26  1  0  0  0  0
 25 77  1  0  0  0  0
 25 78  1  0  0  0  0
 26 27  1  0  0  0  0
 26 79  1  0  0  0  0
 27 28  1  0  0  0  0
 27 30  1  0  0  0  0
 28 29  1  0  0  0  0
 28 80  1  0  0  0  0
 29 81  1  0  0  0  0
 29 82  1  0  0  0  0
 29 83  1  0  0  0  0
 30 31  1  0  0  0  0
 30 84  1  0  0  0  0
 31 85  1  0  0  0  0
 31 86  1  0  0  0  0
 31 87  1  0  0  0  0
 32 33  2  0  0  0  0
 32 34  1  0  0  0  0
 34 35  1  0  0  0  0
 34 88  1  0  0  0  0
 35 36  1  0  0  0  0
 35 89  1  0  0  0  0
 35 90  1  0  0  0  0
 36 37  2  0  0  0  0
 36 38  1  0  0  0  0
 38 39  1  0  0  0  0
 38 91  1  0  0  0  0
 39 40  1  0  0  0  0
 39 42  1  0  0  0  0
 39 92  1  6  0  0  0
 40 41  1  0  0  0  0
 40 47  2  0  0  0  0
 42 43  1  0  0  0  0
 42 93  1  0  0  0  0
 42 94  1  0  0  0  0
 43 44  1  0  0  0  0
 43 95  1  0  0  0  0
 43 96  1  0  0  0  0
 44 45  2  0  0  0  0
 44 46  1  0  0  0  0
 46 97  1  0  0  0  0
 46 98  1  0  0  0  0
M  CHG  2   1   1  41  -1
M  END
