3oof_ligand
 OpenBabel08222323343D

 60 64  0  0  1  0  0  0  0  0999 V2000
   22.7090   11.0990   52.2500 N   0  0  0  0  0  0  0  0  0  0  0  0
   23.2350   11.8720   53.3320 C   0  0  0  0  0  0  0  0  0  0  0  0
   23.9980   11.1550   54.1430 N   0  0  0  0  0  0  0  0  0  0  0  0
   23.1190    9.7900   52.4530 C   0  0  0  0  0  0  0  0  0  0  0  0
   23.9120    9.8260   53.6590 C   0  0  0  0  0  0  0  0  0  0  0  0
   20.6490   10.7520   50.9510 C   0  0  0  0  0  0  0  0  0  0  0  0
   21.9730   11.5760   51.1060 C   0  0  2  0  0  0  0  0  0  0  0  0
   22.8970    8.6180   51.7310 C   0  0  0  0  0  0  0  0  0  0  0  0
   24.4390    8.6320   54.1800 C   0  0  0  0  0  0  0  0  0  0  0  0
   19.9250   10.5460   52.1210 N   0  0  0  0  0  0  0  0  0  0  0  0
   23.4790    7.4490   52.2330 C   0  0  0  0  0  0  0  0  0  0  0  0
   23.0210   13.3100   53.4270 C   0  0  0  0  0  0  0  0  0  0  0  0
   24.1950    7.4600   53.4640 C   0  0  0  0  0  0  0  0  0  0  0  0
   14.9520    7.7890   52.5180 C   0  0  0  0  0  0  0  0  0  0  0  0
   20.3030   10.3030   49.8470 O   0  0  0  0  0  0  0  0  0  0  0  0
   16.2170    8.5390   52.4880 C   0  0  0  0  0  0  0  0  0  0  0  0
   14.1300    7.6380   51.6140 O   0  5  0  0  0  0  0  0  0  0  0  0
   22.7980   11.5070   49.7860 C   0  0  0  0  0  0  0  0  0  0  0  0
   24.1170   14.1900   53.3660 C   0  0  0  0  0  0  0  0  0  0  0  0
   21.7340   13.8120   53.5660 C   0  0  0  0  0  0  0  0  0  0  0  0
   18.6900    9.8850   52.2810 C   0  0  0  0  0  0  0  0  0  0  0  0
   16.7080    9.2730   53.5720 C   0  0  0  0  0  0  0  0  0  0  0  0
   16.9540    8.4980   51.2990 C   0  0  0  0  0  0  0  0  0  0  0  0
   23.3280    6.2520   51.6160 F   0  0  0  0  0  0  0  0  0  0  0  0
   24.7460    6.2900   53.8320 F   0  0  0  0  0  0  0  0  0  0  0  0
   14.6540    7.1190   53.6640 O   0  0  0  0  0  0  0  0  0  0  0  0
   22.5810   16.0550   53.5150 C   0  0  0  0  0  0  0  0  0  0  0  0
   17.9320    9.9280   53.4740 C   0  0  0  0  0  0  0  0  0  0  0  0
   18.1710    9.1400   51.1950 C   0  0  0  0  0  0  0  0  0  0  0  0
   23.8940   15.5730   53.4190 C   0  0  0  0  0  0  0  0  0  0  0  0
   21.4950   15.1790   53.5930 C   0  0  0  0  0  0  0  0  0  0  0  0
   22.2810   17.7160   53.5200 Cl  0  0  0  0  0  0  0  0  0  0  0  0
   22.1720   12.4180   48.7310 C   0  0  0  0  0  0  0  0  0  0  0  0
   24.2830   11.8530   49.9860 C   0  0  0  0  0  0  0  0  0  0  0  0
   25.0630   11.8220   48.6830 C   0  0  0  0  0  0  0  0  0  0  0  0
   22.9620   12.3550   47.4350 C   0  0  0  0  0  0  0  0  0  0  0  0
   24.4160   12.7310   47.6480 C   0  0  0  0  0  0  0  0  0  0  0  0
   21.7107   12.6289   51.2863 H   0  0  0  0  0  0  0  0  0  0  0  0
   22.3023    8.6129   50.8247 H   0  0  0  0  0  0  0  0  0  0  0  0
   25.0116    8.6222   55.1004 H   0  0  0  0  0  0  0  0  0  0  0  0
   20.3332   10.9143   52.9563 H   0  0  0  0  0  0  0  0  0  0  0  0
   22.7473   10.4722   49.4164 H   0  0  0  0  0  0  0  0  0  0  0  0
   25.1254   13.8019   53.2788 H   0  0  0  0  0  0  0  0  0  0  0  0
   20.9010   13.1241   53.6550 H   0  0  0  0  0  0  0  0  0  0  0  0
   16.1345    9.3320   54.4900 H   0  0  0  0  0  0  0  0  0  0  0  0
   16.5630    7.9538   50.4470 H   0  0  0  0  0  0  0  0  0  0  0  0
   18.3106   10.4804   54.3264 H   0  0  0  0  0  0  0  0  0  0  0  0
   18.7355    9.0731   50.2720 H   0  0  0  0  0  0  0  0  0  0  0  0
   24.7291   16.2634   53.3861 H   0  0  0  0  0  0  0  0  0  0  0  0
   20.4835   15.5605   53.6732 H   0  0  0  0  0  0  0  0  0  0  0  0
   22.1690   13.4532   49.1028 H   0  0  0  0  0  0  0  0  0  0  0  0
   21.1383   12.0938   48.5405 H   0  0  0  0  0  0  0  0  0  0  0  0
   24.7256   11.1239   50.6806 H   0  0  0  0  0  0  0  0  0  0  0  0
   24.3560   12.8620   50.4179 H   0  0  0  0  0  0  0  0  0  0  0  0
   25.0818   10.7919   48.2976 H   0  0  0  0  0  0  0  0  0  0  0  0
   26.0921   12.1625   48.8698 H   0  0  0  0  0  0  0  0  0  0  0  0
   22.5156   13.0521   46.7106 H   0  0  0  0  0  0  0  0  0  0  0  0
   22.9129   11.3309   47.0365 H   0  0  0  0  0  0  0  0  0  0  0  0
   24.9567   12.6346   46.6950 H   0  0  0  0  0  0  0  0  0  0  0  0
   24.4717   13.7725   47.9975 H   0  0  0  0  0  0  0  0  0  0  0  0
  1  2  1  0  0  0  0
  1  4  1  0  0  0  0
  2  3  2  0  0  0  0
  2 12  1  0  0  0  0
  4  5  2  0  0  0  0
  4  8  1  0  0  0  0
  5  3  1  0  0  0  0
  5  9  1  0  0  0  0
  6  7  1  0  0  0  0
  6 15  2  0  0  0  0
  7  1  1  0  0  0  0
  7 18  1  0  0  0  0
  7 38  1  1  0  0  0
  8 11  2  0  0  0  0
  8 39  1  0  0  0  0
  9 13  2  0  0  0  0
  9 40  1  0  0  0  0
 10  6  1  0  0  0  0
 10 41  1  0  0  0  0
 11 13  1  0  0  0  0
 11 24  1  0  0  0  0
 12 19  2  0  0  0  0
 12 20  1  0  0  0  0
 13 25  1  0  0  0  0
 14 17  1  0  0  0  0
 14 26  2  0  0  0  0
 16 14  1  0  0  0  0
 16 23  1  0  0  0  0
 18 33  1  0  0  0  0
 18 34  1  0  0  0  0
 18 42  1  0  0  0  0
 19 30  1  0  0  0  0
 19 43  1  0  0  0  0
 20 31  2  0  0  0  0
 20 44  1  0  0  0  0
 21 10  1  0  0  0  0
 21 29  1  0  0  0  0
 22 16  2  0  0  0  0
 22 28  1  0  0  0  0
 22 45  1  0  0  0  0
 23 29  2  0  0  0  0
 23 46  1  0  0  0  0
 27 31  1  0  0  0  0
 27 32  1  0  0  0  0
 28 21  2  0  0  0  0
 28 47  1  0  0  0  0
 29 48  1  0  0  0  0
 30 27  2  0  0  0  0
 30 49  1  0  0  0  0
 31 50  1  0  0  0  0
 33 36  1  0  0  0  0
 33 51  1  0  0  0  0
 33 52  1  0  0  0  0
 34 35  1  0  0  0  0
 34 53  1  0  0  0  0
 34 54  1  0  0  0  0
 35 37  1  0  0  0  0
 35 55  1  0  0  0  0
 35 56  1  0  0  0  0
 36 37  1  0  0  0  0
 36 57  1  0  0  0  0
 36 58  1  0  0  0  0
 37 59  1  0  0  0  0
 37 60  1  0  0  0  0
M  CHG  1  17  -1
M  END
