3ook_ligand
 OpenBabel08222323343D

 60 64  0  0  1  0  0  0  0  0999 V2000
   23.4380   17.7780    3.4490 N   0  0  0  0  0  0  0  0  0  0  0  0
   22.5910   17.0860    2.6230 C   0  0  0  0  0  0  0  0  0  0  0  0
   23.2210   16.1010    2.0480 N   0  0  0  0  0  0  0  0  0  0  0  0
   24.6660   17.1810    3.3450 C   0  0  0  0  0  0  0  0  0  0  0  0
   24.5080   16.1040    2.4500 C   0  0  0  0  0  0  0  0  0  0  0  0
   23.9840   20.0800    3.9250 C   0  0  0  0  0  0  0  0  0  0  0  0
   24.2200   20.2790    2.6050 N   0  0  0  0  0  0  0  0  0  0  0  0
   25.0320   21.3030    2.1230 C   0  0  0  0  0  0  0  0  0  0  0  0
   23.0970   18.9150    4.3110 C   0  0  2  0  0  0  0  0  0  0  0  0
   25.8960   17.4370    3.9330 C   0  0  0  0  0  0  0  0  0  0  0  0
   24.5290   22.6000    1.9610 C   0  0  0  0  0  0  0  0  0  0  0  0
   26.3870   21.0220    1.8610 C   0  0  0  0  0  0  0  0  0  0  0  0
   26.7320   23.3130    1.2330 C   0  0  0  0  0  0  0  0  0  0  0  0
   25.6130   15.3210    2.1050 C   0  0  0  0  0  0  0  0  0  0  0  0
   27.6600   24.3830    0.7890 C   0  0  0  0  0  0  0  0  0  0  0  0
   26.9640   16.6330    3.6250 C   0  0  0  0  0  0  0  0  0  0  0  0
   21.1560   17.3880    2.4650 C   0  0  0  0  0  0  0  0  0  0  0  0
   26.8210   15.6010    2.6950 C   0  0  0  0  0  0  0  0  0  0  0  0
   27.2220   22.0190    1.4080 C   0  0  0  0  0  0  0  0  0  0  0  0
   25.3790   23.6030    1.5200 C   0  0  0  0  0  0  0  0  0  0  0  0
   24.4480   20.8220    4.7580 O   0  0  0  0  0  0  0  0  0  0  0  0
   28.8040   24.1430    0.4560 O   0  5  0  0  0  0  0  0  0  0  0  0
   23.1710   18.4730    5.7910 C   0  0  0  0  0  0  0  0  0  0  0  0
   20.7860   18.6440    1.9850 C   0  0  0  0  0  0  0  0  0  0  0  0
   20.1930   16.4700    2.9040 C   0  0  0  0  0  0  0  0  0  0  0  0
   26.9030   19.7930    2.0700 F   0  0  0  0  0  0  0  0  0  0  0  0
   23.2290   22.8740    2.2280 F   0  0  0  0  0  0  0  0  0  0  0  0
   28.1590   16.8710    4.1960 F   0  0  0  0  0  0  0  0  0  0  0  0
   27.8620   14.7940    2.4670 F   0  0  0  0  0  0  0  0  0  0  0  0
   27.2470   25.6510    0.8020 O   0  0  0  0  0  0  0  0  0  0  0  0
   18.4940   18.0240    2.2360 C   0  0  0  0  0  0  0  0  0  0  0  0
   18.8560   16.7850    2.7540 C   0  0  0  0  0  0  0  0  0  0  0  0
   19.4590   18.9390    1.8480 C   0  0  0  0  0  0  0  0  0  0  0  0
   16.8290   18.4710    2.0700 Cl  0  0  0  0  0  0  0  0  0  0  0  0
   22.4620   19.5060    6.6800 C   0  0  0  0  0  0  0  0  0  0  0  0
   22.5100   17.0840    5.9650 C   0  0  0  0  0  0  0  0  0  0  0  0
   22.4290   19.0510    8.1470 C   0  0  0  0  0  0  0  0  0  0  0  0
   22.5790   16.6150    7.4310 C   0  0  0  0  0  0  0  0  0  0  0  0
   21.8130   17.6350    8.2920 C   0  0  0  0  0  0  0  0  0  0  0  0
   23.7908   19.6613    1.9460 H   0  0  0  0  0  0  0  0  0  0  0  0
   22.0568   19.2117    4.1111 H   0  0  0  0  0  0  0  0  0  0  0  0
   26.0118   18.2617    4.6269 H   0  0  0  0  0  0  0  0  0  0  0  0
   25.5188   14.5124    1.3892 H   0  0  0  0  0  0  0  0  0  0  0  0
   28.2601   21.7981    1.1874 H   0  0  0  0  0  0  0  0  0  0  0  0
   25.0045   24.6125    1.3950 H   0  0  0  0  0  0  0  0  0  0  0  0
   24.2269   18.4062    6.0919 H   0  0  0  0  0  0  0  0  0  0  0  0
   21.5412   19.3765    1.7240 H   0  0  0  0  0  0  0  0  0  0  0  0
   20.4914   15.5296    3.3532 H   0  0  0  0  0  0  0  0  0  0  0  0
   18.0928   16.0698    3.0387 H   0  0  0  0  0  0  0  0  0  0  0  0
   19.1595   19.8947    1.4332 H   0  0  0  0  0  0  0  0  0  0  0  0
   21.4301   19.6383    6.3226 H   0  0  0  0  0  0  0  0  0  0  0  0
   22.9986   20.4640    6.6140 H   0  0  0  0  0  0  0  0  0  0  0  0
   23.0342   16.3548    5.3298 H   0  0  0  0  0  0  0  0  0  0  0  0
   21.4557   17.1471    5.6576 H   0  0  0  0  0  0  0  0  0  0  0  0
   21.8258   19.7639    8.7284 H   0  0  0  0  0  0  0  0  0  0  0  0
   23.4566   19.0350    8.5390 H   0  0  0  0  0  0  0  0  0  0  0  0
   23.6281   16.5636    7.7577 H   0  0  0  0  0  0  0  0  0  0  0  0
   22.1157   15.6220    7.5277 H   0  0  0  0  0  0  0  0  0  0  0  0
   20.7623   17.6638    7.9676 H   0  0  0  0  0  0  0  0  0  0  0  0
   21.8629   17.3263    9.3466 H   0  0  0  0  0  0  0  0  0  0  0  0
  1  2  1  0  0  0  0
  1  4  1  0  0  0  0
  2  3  2  0  0  0  0
  2 17  1  0  0  0  0
  4  5  2  0  0  0  0
  4 10  1  0  0  0  0
  5  3  1  0  0  0  0
  5 14  1  0  0  0  0
  6  9  1  0  0  0  0
  6 21  2  0  0  0  0
  7  6  1  0  0  0  0
  7 40  1  0  0  0  0
  8  7  1  0  0  0  0
  8 11  2  0  0  0  0
  9  1  1  0  0  0  0
  9 23  1  0  0  0  0
  9 41  1  6  0  0  0
 10 16  2  0  0  0  0
 10 42  1  0  0  0  0
 11 20  1  0  0  0  0
 11 27  1  0  0  0  0
 12  8  1  0  0  0  0
 12 26  1  0  0  0  0
 13 15  1  0  0  0  0
 13 19  1  0  0  0  0
 13 20  2  0  0  0  0
 14 18  2  0  0  0  0
 14 43  1  0  0  0  0
 15 22  1  0  0  0  0
 15 30  2  0  0  0  0
 16 18  1  0  0  0  0
 16 28  1  0  0  0  0
 17 24  2  0  0  0  0
 17 25  1  0  0  0  0
 18 29  1  0  0  0  0
 19 12  2  0  0  0  0
 19 44  1  0  0  0  0
 20 45  1  0  0  0  0
 23 35  1  0  0  0  0
 23 36  1  0  0  0  0
 23 46  1  0  0  0  0
 24 33  1  0  0  0  0
 24 47  1  0  0  0  0
 25 32  2  0  0  0  0
 25 48  1  0  0  0  0
 31 33  2  0  0  0  0
 31 34  1  0  0  0  0
 32 31  1  0  0  0  0
 32 49  1  0  0  0  0
 33 50  1  0  0  0  0
 35 37  1  0  0  0  0
 35 51  1  0  0  0  0
 35 52  1  0  0  0  0
 36 38  1  0  0  0  0
 36 53  1  0  0  0  0
 36 54  1  0  0  0  0
 37 39  1  0  0  0  0
 37 55  1  0  0  0  0
 37 56  1  0  0  0  0
 38 39  1  0  0  0  0
 38 57  1  0  0  0  0
 38 58  1  0  0  0  0
 39 59  1  0  0  0  0
 39 60  1  0  0  0  0
M  CHG  1  22  -1
M  END
