3ooz_ligand
 OpenBabel08222323343D

 51 53  0  0  1  0  0  0  0  0999 V2000
   15.9290   -4.1890   17.8560 C   0  0  0  0  0  0  0  0  0  0  0  0
   17.9220  -14.2740   16.7700 F   0  0  0  0  0  0  0  0  0  0  0  0
   15.4130   -5.3580   17.1410 N   0  0  0  0  0  0  0  0  0  0  0  0
   14.4670   -6.4710   18.9600 O   0  0  0  0  0  0  0  0  0  0  0  0
   14.7540   -6.3850   17.7700 C   0  0  0  0  0  0  0  0  0  0  0  0
   16.1050  -14.0330   15.5840 F   0  0  0  0  0  0  0  0  0  0  0  0
   14.9450   -6.7540   15.4550 N   0  0  0  0  0  0  0  0  0  0  0  0
   16.4020  -12.7320   17.3670 O   0  0  0  0  0  0  0  0  0  0  0  0
   14.3690   -7.3970   16.6730 C   0  0  1  0  0  0  0  0  0  0  0  0
   10.4870   -2.2670   12.8620 F   0  0  0  0  0  0  0  0  0  0  0  0
   16.1290   -4.8280   14.9070 N   0  0  0  0  0  0  0  0  0  0  0  0
   15.5010   -5.6370   15.8100 C   0  0  2  0  0  3  0  0  0  0  0  0
    8.6900   -7.4760   16.6500 F   0  0  0  0  0  0  0  0  0  0  0  0
   14.9330   -8.8190   16.8930 C   0  0  0  0  0  0  0  0  0  0  0  0
   15.3700   -9.3200   18.1340 C   0  0  0  0  0  0  0  0  0  0  0  0
   15.8530  -10.6310   18.2420 C   0  0  0  0  0  0  0  0  0  0  0  0
   15.9110  -11.4680   17.1280 C   0  0  0  0  0  0  0  0  0  0  0  0
   15.4820  -10.9800   15.8890 C   0  0  0  0  0  0  0  0  0  0  0  0
   15.0040   -9.6670   15.7760 C   0  0  0  0  0  0  0  0  0  0  0  0
   17.0590  -13.3640   16.2820 C   0  0  0  0  0  0  0  0  0  0  0  0
   12.8390   -7.4460   16.6410 C   0  0  0  0  0  0  0  0  0  0  0  0
   12.1120   -8.4730   17.2900 C   0  0  0  0  0  0  0  0  0  0  0  0
   10.7140   -8.4860   17.2900 C   0  0  0  0  0  0  0  0  0  0  0  0
   10.0320   -7.4600   16.6440 C   0  0  0  0  0  0  0  0  0  0  0  0
   10.7270   -6.4200   16.0030 C   0  0  0  0  0  0  0  0  0  0  0  0
   12.1200   -6.4080   16.0010 C   0  0  0  0  0  0  0  0  0  0  0  0
   10.0130   -5.3800   15.3460 C   0  0  0  0  0  0  0  0  0  0  0  0
    9.3920   -4.5170   14.7960 C   0  0  0  0  0  0  0  0  0  0  0  0
    8.6400   -3.4480   14.1320 C   0  0  0  0  0  0  0  0  0  0  0  0
    9.0380   -2.0710   14.6770 C   0  0  0  0  0  0  0  0  0  0  0  0
   10.3510   -1.6130   14.0590 C   0  0  0  0  0  0  0  0  0  0  0  0
   15.6861   -4.2765   18.9253 H   0  0  0  0  0  0  0  0  0  0  0  0
   15.4680   -3.2771   17.4487 H   0  0  0  0  0  0  0  0  0  0  0  0
   17.0206   -4.1352   17.7313 H   0  0  0  0  0  0  0  0  0  0  0  0
   14.9074   -7.1321   14.4977 H   0  0  0  0  0  0  0  0  0  0  0  0
   16.5615   -3.9467   15.2187 H   0  0  0  0  0  0  0  0  0  0  0  0
   16.1702   -5.0990   13.9141 H   0  0  0  0  0  0  0  0  0  0  0  0
   15.3326   -8.6866   19.0129 H   0  0  0  0  0  0  0  0  0  0  0  0
   16.1863  -10.9999   19.2053 H   0  0  0  0  0  0  0  0  0  0  0  0
   15.5193  -11.6189   15.0141 H   0  0  0  0  0  0  0  0  0  0  0  0
   14.6831   -9.2994   14.8080 H   0  0  0  0  0  0  0  0  0  0  0  0
   17.5778  -12.6290   15.6491 H   0  0  0  0  0  0  0  0  0  0  0  0
   12.6503   -9.2654   17.7973 H   0  0  0  0  0  0  0  0  0  0  0  0
   10.1704   -9.2825   17.7852 H   0  0  0  0  0  0  0  0  0  0  0  0
   12.6539   -5.6031   15.5089 H   0  0  0  0  0  0  0  0  0  0  0  0
    7.5649   -3.6051   14.3038 H   0  0  0  0  0  0  0  0  0  0  0  0
    8.8474   -3.4804   13.0522 H   0  0  0  0  0  0  0  0  0  0  0  0
    9.1542   -2.1335   15.7690 H   0  0  0  0  0  0  0  0  0  0  0  0
    8.2499   -1.3434   14.4332 H   0  0  0  0  0  0  0  0  0  0  0  0
   10.3304   -0.5257   13.8939 H   0  0  0  0  0  0  0  0  0  0  0  0
   11.1893   -1.8671   14.7244 H   0  0  0  0  0  0  0  0  0  0  0  0
  1 32  1  0  0  0  0
  1 33  1  0  0  0  0
  1 34  1  0  0  0  0
  3  1  1  0  0  0  0
  5  3  1  0  0  0  0
  5  4  2  0  0  0  0
  7 12  1  0  0  0  0
  7 35  1  0  0  0  0
  8 20  1  0  0  0  0
  9  5  1  0  0  0  0
  9  7  1  0  0  0  0
  9 14  1  1  0  0  0
 11 36  1  0  0  0  0
 11 37  1  0  0  0  0
 12  3  1  0  0  0  0
 12 11  1  1  0  0  0
 14 15  2  0  0  0  0
 14 19  1  0  0  0  0
 15 16  1  0  0  0  0
 15 38  1  0  0  0  0
 16 17  2  0  0  0  0
 16 39  1  0  0  0  0
 17  8  1  0  0  0  0
 18 17  1  0  0  0  0
 18 40  1  0  0  0  0
 19 18  2  0  0  0  0
 19 41  1  0  0  0  0
 20  2  1  0  0  0  0
 20  6  1  0  0  0  0
 20 42  1  0  0  0  0
 21  9  1  0  0  0  0
 21 22  2  0  0  0  0
 22 43  1  0  0  0  0
 23 22  1  0  0  0  0
 23 44  1  0  0  0  0
 24 13  1  0  0  0  0
 24 23  2  0  0  0  0
 25 24  1  0  0  0  0
 25 26  2  0  0  0  0
 26 21  1  0  0  0  0
 26 45  1  0  0  0  0
 27 25  1  0  0  0  0
 28 27  3  0  0  0  0
 29 28  1  0  0  0  0
 29 46  1  0  0  0  0
 29 47  1  0  0  0  0
 30 29  1  0  0  0  0
 30 31  1  0  0  0  0
 30 48  1  0  0  0  0
 30 49  1  0  0  0  0
 31 10  1  0  0  0  0
 31 50  1  0  0  0  0
 31 51  1  0  0  0  0
M  END
