3owk_ligand
 OpenBabel08222323343D

 31 34  0  0  0  0  0  0  0  0999 V2000
   23.1820    9.7780   11.0270 C   0  0  0  0  0  0  0  0  0  0  0  0
   23.3270   10.6800   10.0260 O   0  0  0  0  0  0  0  0  0  0  0  0
   23.0090   10.2040   12.3510 C   0  0  0  0  0  0  0  0  0  0  0  0
   22.8670    9.2920   13.4000 C   0  0  0  0  0  0  0  0  0  0  0  0
   22.8860    7.9370   13.0990 C   0  0  0  0  0  0  0  0  0  0  0  0
   23.0730    7.4810   11.6850 C   0  0  0  0  0  0  0  0  0  0  0  0
   23.2110    8.4260   10.6850 C   0  0  0  0  0  0  0  0  0  0  0  0
   22.7600    6.9370   14.0510 C   0  0  0  0  0  0  0  0  0  0  0  0
   22.8060    5.5330   13.6260 C   0  0  0  0  0  0  0  0  0  0  0  0
   22.9750    5.1320   12.3070 C   0  0  0  0  0  0  0  0  0  0  0  0
   23.1090    6.1280   11.3430 C   0  0  0  0  0  0  0  0  0  0  0  0
   22.5790    6.9900   15.4000 N   0  0  0  0  0  0  0  0  0  0  0  0
   22.4960    5.7340   15.9460 C   0  0  0  0  0  0  0  0  0  0  0  0
   22.6340    4.7680   14.8470 C   0  0  0  0  0  0  0  0  0  0  0  0
   22.3140    5.1370   17.2980 C   0  0  0  0  0  0  0  0  0  0  0  0
   22.1590    6.0020   18.5210 C   0  0  0  0  0  0  0  0  0  0  0  0
   22.2850    3.7420   17.4130 C   0  0  0  0  0  0  0  0  0  0  0  0
   22.4150    2.8950   16.3640 N   0  0  0  0  0  0  0  0  0  0  0  0
   22.5880    3.3070   15.0810 C   0  0  0  0  0  0  0  0  0  0  0  0
   22.7420    2.1460   13.7600 Cl  0  0  0  0  0  0  0  0  0  0  0  0
   22.5558   11.2333    9.9856 H   0  0  0  0  0  0  0  0  0  0  0  0
   22.9848   11.2661   12.5663 H   0  0  0  0  0  0  0  0  0  0  0  0
   22.7452    9.6335   14.4216 H   0  0  0  0  0  0  0  0  0  0  0  0
   23.3396    8.1213    9.6527 H   0  0  0  0  0  0  0  0  0  0  0  0
   23.0016    4.0823   12.0378 H   0  0  0  0  0  0  0  0  0  0  0  0
   23.2441    5.8467   10.3049 H   0  0  0  0  0  0  0  0  0  0  0  0
   22.5128    7.8633   15.9421 H   0  0  0  0  0  0  0  0  0  0  0  0
   22.0378    5.3637   19.4086 H   0  0  0  0  0  0  0  0  0  0  0  0
   21.2725    6.6431   18.4067 H   0  0  0  0  0  0  0  0  0  0  0  0
   23.0534    6.6309   18.6411 H   0  0  0  0  0  0  0  0  0  0  0  0
   22.1505    3.3144   18.4000 H   0  0  0  0  0  0  0  0  0  0  0  0
  1  2  1  0  0  0  0
  1  3  2  0  0  0  0
  1  7  1  0  0  0  0
  2 21  1  0  0  0  0
  3  4  1  0  0  0  0
  3 22  1  0  0  0  0
  4  5  2  0  0  0  0
  4 23  1  0  0  0  0
  5  6  1  0  0  0  0
  5  8  1  0  0  0  0
  6  7  2  0  0  0  0
  6 11  1  0  0  0  0
  7 24  1  0  0  0  0
  8  9  2  0  0  0  0
  8 12  1  0  0  0  0
  9 10  1  0  0  0  0
  9 14  1  0  0  0  0
 10 11  2  0  0  0  0
 10 25  1  0  0  0  0
 11 26  1  0  0  0  0
 12 13  1  0  0  0  0
 12 27  1  0  0  0  0
 13 14  2  0  0  0  0
 13 15  1  0  0  0  0
 14 19  1  0  0  0  0
 15 16  1  0  0  0  0
 15 17  2  0  0  0  0
 16 28  1  0  0  0  0
 16 29  1  0  0  0  0
 16 30  1  0  0  0  0
 17 18  1  0  0  0  0
 17 31  1  0  0  0  0
 18 19  2  0  0  0  0
 19 20  1  0  0  0  0
M  END
