3oz1_ligand
 OpenBabel08222323343D

 94 98  0  0  1  0  0  0  0  0999 V2000
  -16.8850  -30.0740   -9.4590 C   0  0  0  0  0  0  0  0  0  0  0  0
  -14.7320  -29.0990   -9.9240 N   0  3  0  0  0  0  0  0  0  0  0  0
  -17.0450  -29.8990   -8.2450 O   0  0  0  0  0  0  0  0  0  0  0  0
  -15.5080  -30.3450  -10.0310 C   0  0  1  0  0  0  0  0  0  0  0  0
  -14.8390  -31.5230   -9.2880 C   0  0  0  0  0  0  0  0  0  0  0  0
  -15.7880  -32.7150   -9.1350 C   0  0  0  0  0  0  0  0  0  0  0  0
  -14.3400  -28.7890   -8.5300 C   0  0  0  0  0  0  0  0  0  0  0  0
  -22.6810  -31.8650  -11.5930 O   0  0  0  0  0  0  0  0  0  0  0  0
  -19.5850  -32.1690  -10.5790 O   0  0  0  0  0  0  0  0  0  0  0  0
  -14.7170  -23.7300   -8.5040 C   0  0  0  0  0  0  0  0  0  0  0  0
  -22.4880  -38.3340  -13.6650 C   0  0  0  0  0  0  0  0  0  0  0  0
  -27.7380  -33.1430  -12.3770 C   0  0  0  0  0  0  0  0  0  0  0  0
  -14.4090  -23.3610   -9.8170 C   0  0  0  0  0  0  0  0  0  0  0  0
  -15.7670  -24.6210   -8.2620 C   0  0  0  0  0  0  0  0  0  0  0  0
  -21.5240  -37.3920  -13.3160 C   0  0  0  0  0  0  0  0  0  0  0  0
  -23.8290  -37.9940  -13.6010 C   0  0  0  0  0  0  0  0  0  0  0  0
  -26.7730  -32.3650  -13.0240 C   0  0  0  0  0  0  0  0  0  0  0  0
  -27.3740  -34.3230  -11.7170 C   0  0  0  0  0  0  0  0  0  0  0  0
  -15.1710  -23.8670  -10.8760 C   0  0  0  0  0  0  0  0  0  0  0  0
  -16.5200  -25.1320   -9.3260 C   0  0  0  0  0  0  0  0  0  0  0  0
  -21.9080  -36.1200  -12.9070 C   0  0  0  0  0  0  0  0  0  0  0  0
  -24.2130  -36.7240  -13.1760 C   0  0  0  0  0  0  0  0  0  0  0  0
  -25.4500  -32.8020  -13.0230 C   0  0  0  0  0  0  0  0  0  0  0  0
  -26.0390  -34.7380  -11.6870 C   0  0  0  0  0  0  0  0  0  0  0  0
  -18.8630  -26.8580  -12.0260 C   0  0  0  0  0  0  0  0  0  0  0  0
  -19.3140  -28.3260  -11.9950 C   0  0  0  0  0  0  0  0  0  0  0  0
  -21.4690  -28.8680  -10.6950 C   0  0  0  0  0  0  0  0  0  0  0  0
  -22.1110  -28.9470   -9.2950 C   0  0  0  0  0  0  0  0  0  0  0  0
  -23.3620  -30.9290   -8.4770 C   0  0  0  0  0  0  0  0  0  0  0  0
  -23.0600  -32.4200   -8.3580 C   0  0  0  0  0  0  0  0  0  0  0  0
  -17.0260  -25.3160  -11.8390 C   0  0  0  0  0  0  0  0  0  0  0  0
  -17.4410  -26.7240  -11.6580 N   0  3  0  0  0  0  0  0  0  0  0  0
  -17.8630  -30.0840  -10.3510 N   0  0  0  0  0  0  0  0  0  0  0  0
  -23.0110  -34.0360  -11.0570 N   0  0  0  0  0  0  0  0  0  0  0  0
  -22.6040  -32.7950  -10.7910 C   0  0  0  0  0  0  0  0  0  0  0  0
  -20.0500  -31.1930   -9.9770 C   0  0  0  0  0  0  0  0  0  0  0  0
  -16.2080  -24.7770  -10.6440 C   0  0  0  0  0  0  0  0  0  0  0  0
  -23.2540  -35.7850  -12.8170 C   0  0  0  0  0  0  0  0  0  0  0  0
  -25.0850  -33.9880  -12.3720 C   0  0  0  0  0  0  0  0  0  0  0  0
  -19.9380  -28.6880  -10.6190 C   0  0  1  0  0  0  0  0  0  0  0  0
  -21.9790  -30.3160   -8.5970 C   0  0  1  0  0  0  0  0  0  0  0  0
  -21.9760  -32.6000   -9.4130 C   0  0  1  0  0  0  0  0  0  0  0  0
  -19.2520  -29.8770   -9.9210 C   0  0  2  0  0  0  0  0  0  0  0  0
  -23.6090  -34.3670  -12.3590 C   0  0  0  0  0  0  0  0  0  0  0  0
  -21.2340  -31.3260   -9.3810 N   0  0  0  0  0  0  0  0  0  0  0  0
  -15.2914  -28.3390  -10.2784 H   0  0  0  0  0  0  0  0  0  0  0  0
  -13.8970  -29.1900  -10.4813 H   0  0  0  0  0  0  0  0  0  0  0  0
  -15.6023  -30.6154  -11.0931 H   0  0  0  0  0  0  0  0  0  0  0  0
  -14.5305  -31.1836   -8.2882 H   0  0  0  0  0  0  0  0  0  0  0  0
  -13.9533  -31.8444   -9.8556 H   0  0  0  0  0  0  0  0  0  0  0  0
  -15.2727  -33.5279   -8.6025 H   0  0  0  0  0  0  0  0  0  0  0  0
  -16.0979  -33.0671  -10.1300 H   0  0  0  0  0  0  0  0  0  0  0  0
  -16.6751  -32.4063   -8.5626 H   0  0  0  0  0  0  0  0  0  0  0  0
  -13.7650  -27.8514   -8.5107 H   0  0  0  0  0  0  0  0  0  0  0  0
  -13.7211  -29.6069   -8.1326 H   0  0  0  0  0  0  0  0  0  0  0  0
  -15.2427  -28.6783   -7.9112 H   0  0  0  0  0  0  0  0  0  0  0  0
  -14.1439  -23.3269   -7.6769 H   0  0  0  0  0  0  0  0  0  0  0  0
  -22.1911  -39.3264  -13.9845 H   0  0  0  0  0  0  0  0  0  0  0  0
  -28.7759  -32.8302  -12.3864 H   0  0  0  0  0  0  0  0  0  0  0  0
  -13.5838  -22.6861  -10.0137 H   0  0  0  0  0  0  0  0  0  0  0  0
  -15.9992  -24.9176   -7.2456 H   0  0  0  0  0  0  0  0  0  0  0  0
  -20.4724  -37.6508  -13.3633 H   0  0  0  0  0  0  0  0  0  0  0  0
  -24.5835  -38.7195  -13.8829 H   0  0  0  0  0  0  0  0  0  0  0  0
  -27.0489  -31.4398  -13.5168 H   0  0  0  0  0  0  0  0  0  0  0  0
  -28.1335  -34.9199  -11.2251 H   0  0  0  0  0  0  0  0  0  0  0  0
  -14.9549  -23.5496  -11.8897 H   0  0  0  0  0  0  0  0  0  0  0  0
  -17.3470  -25.8045   -9.1288 H   0  0  0  0  0  0  0  0  0  0  0  0
  -21.1524  -35.3842  -12.6565 H   0  0  0  0  0  0  0  0  0  0  0  0
  -25.2649  -36.4673  -13.1252 H   0  0  0  0  0  0  0  0  0  0  0  0
  -24.6931  -32.2168  -13.5325 H   0  0  0  0  0  0  0  0  0  0  0  0
  -25.7510  -35.6284  -11.1399 H   0  0  0  0  0  0  0  0  0  0  0  0
  -19.4726  -26.2812  -11.3148 H   0  0  0  0  0  0  0  0  0  0  0  0
  -19.0090  -26.4601  -13.0411 H   0  0  0  0  0  0  0  0  0  0  0  0
  -18.4436  -28.9736  -12.1767 H   0  0  0  0  0  0  0  0  0  0  0  0
  -20.0633  -28.4888  -12.7837 H   0  0  0  0  0  0  0  0  0  0  0  0
  -21.9007  -28.0131  -11.2361 H   0  0  0  0  0  0  0  0  0  0  0  0
  -21.6908  -29.7971  -11.2405 H   0  0  0  0  0  0  0  0  0  0  0  0
  -23.1819  -28.7170   -9.3965 H   0  0  0  0  0  0  0  0  0  0  0  0
  -21.6323  -28.1901   -8.6562 H   0  0  0  0  0  0  0  0  0  0  0  0
  -23.8840  -30.5576   -7.5828 H   0  0  0  0  0  0  0  0  0  0  0  0
  -23.9683  -30.7173   -9.3700 H   0  0  0  0  0  0  0  0  0  0  0  0
  -23.9473  -33.0285   -8.5868 H   0  0  0  0  0  0  0  0  0  0  0  0
  -22.6892  -32.6753   -7.3544 H   0  0  0  0  0  0  0  0  0  0  0  0
  -17.9269  -24.6960  -11.9569 H   0  0  0  0  0  0  0  0  0  0  0  0
  -16.4102  -25.2447  -12.7477 H   0  0  0  0  0  0  0  0  0  0  0  0
  -16.8817  -27.3195  -12.2485 H   0  0  0  0  0  0  0  0  0  0  0  0
  -17.3148  -26.9921  -10.6945 H   0  0  0  0  0  0  0  0  0  0  0  0
  -17.6560  -30.2326  -11.3180 H   0  0  0  0  0  0  0  0  0  0  0  0
  -22.9086  -34.7495  -10.3639 H   0  0  0  0  0  0  0  0  0  0  0  0
  -19.7635  -27.8161   -9.9714 H   0  0  0  0  0  0  0  0  0  0  0  0
  -21.5120  -30.1773   -7.6108 H   0  0  0  0  0  0  0  0  0  0  0  0
  -21.3222  -33.4510   -9.1716 H   0  0  0  0  0  0  0  0  0  0  0  0
  -19.2024  -29.6013   -8.8573 H   0  0  0  0  0  0  0  0  0  0  0  0
  -23.1316  -33.7032  -13.0949 H   0  0  0  0  0  0  0  0  0  0  0  0
  1  3  2  0  0  0  0
  1  4  1  0  0  0  0
  2  7  1  0  0  0  0
  2 46  1  0  0  0  0
  2 47  1  0  0  0  0
  4  2  1  0  0  0  0
  4  5  1  0  0  0  0
  4 48  1  6  0  0  0
  5  6  1  0  0  0  0
  5 49  1  0  0  0  0
  5 50  1  0  0  0  0
  6 51  1  0  0  0  0
  6 52  1  0  0  0  0
  6 53  1  0  0  0  0
  7 54  1  0  0  0  0
  7 55  1  0  0  0  0
  7 56  1  0  0  0  0
 10 57  1  0  0  0  0
 11 58  1  0  0  0  0
 12 59  1  0  0  0  0
 13 10  2  0  0  0  0
 13 60  1  0  0  0  0
 14 10  1  0  0  0  0
 14 61  1  0  0  0  0
 15 11  2  0  0  0  0
 15 62  1  0  0  0  0
 16 11  1  0  0  0  0
 16 63  1  0  0  0  0
 17 12  2  0  0  0  0
 17 64  1  0  0  0  0
 18 12  1  0  0  0  0
 18 65  1  0  0  0  0
 19 13  1  0  0  0  0
 19 66  1  0  0  0  0
 20 14  2  0  0  0  0
 20 67  1  0  0  0  0
 21 15  1  0  0  0  0
 21 68  1  0  0  0  0
 22 16  2  0  0  0  0
 22 69  1  0  0  0  0
 23 17  1  0  0  0  0
 23 70  1  0  0  0  0
 24 18  2  0  0  0  0
 24 71  1  0  0  0  0
 25 32  1  0  0  0  0
 25 72  1  0  0  0  0
 25 73  1  0  0  0  0
 26 25  1  0  0  0  0
 26 74  1  0  0  0  0
 26 75  1  0  0  0  0
 27 28  1  0  0  0  0
 27 76  1  0  0  0  0
 27 77  1  0  0  0  0
 28 41  1  0  0  0  0
 28 78  1  0  0  0  0
 28 79  1  0  0  0  0
 29 30  1  0  0  0  0
 29 80  1  0  0  0  0
 29 81  1  0  0  0  0
 30 42  1  0  0  0  0
 30 82  1  0  0  0  0
 30 83  1  0  0  0  0
 31 37  1  0  0  0  0
 31 84  1  0  0  0  0
 31 85  1  0  0  0  0
 32 31  1  0  0  0  0
 32 86  1  0  0  0  0
 32 87  1  0  0  0  0
 33  1  1  0  0  0  0
 33 88  1  0  0  0  0
 34 44  1  0  0  0  0
 34 89  1  0  0  0  0
 35  8  2  0  0  0  0
 35 34  1  0  0  0  0
 36  9  2  0  0  0  0
 36 45  1  0  0  0  0
 37 19  2  0  0  0  0
 37 20  1  0  0  0  0
 38 21  2  0  0  0  0
 38 22  1  0  0  0  0
 39 23  2  0  0  0  0
 39 24  1  0  0  0  0
 40 26  1  0  0  0  0
 40 27  1  0  0  0  0
 40 43  1  0  0  0  0
 40 90  1  1  0  0  0
 41 29  1  0  0  0  0
 41 45  1  0  0  0  0
 41 91  1  1  0  0  0
 42 35  1  0  0  0  0
 42 45  1  0  0  0  0
 42 92  1  1  0  0  0
 43 33  1  0  0  0  0
 43 36  1  0  0  0  0
 43 93  1  1  0  0  0
 44 38  1  0  0  0  0
 44 39  1  0  0  0  0
 44 94  1  0  0  0  0
M  CHG  2   2   1  32   1
M  END
