3p76_ligand
 OpenBabel08222323343D

 58 60  0  0  1  0  0  0  0  0999 V2000
   -6.3340   20.9290   -3.8250 N   0  0  0  0  0  0  0  0  0  0  0  0
   -5.0740   21.2430   -3.1830 C   0  0  2  0  0  0  0  0  0  0  0  0
   -5.0700   22.7470   -3.0480 C   0  0  0  0  0  0  0  0  0  0  0  0
   -4.9710   23.5140   -4.0160 O   0  0  0  0  0  0  0  0  0  0  0  0
   -5.1690   23.1210   -1.7410 N   0  0  0  0  0  0  0  0  0  0  0  0
   -5.1380   24.5040   -1.6360 O   0  0  0  0  0  0  0  0  0  0  0  0
   -6.8880   19.6340   -3.7030 C   0  0  0  0  0  0  0  0  0  0  0  0
   -6.3350   18.7090   -3.0520 O   0  0  0  0  0  0  0  0  0  0  0  0
   -8.1050   19.4590   -4.3600 N   0  0  0  0  0  0  0  0  0  0  0  0
   -8.8200   20.5060   -5.1040 C   0  0  0  0  0  0  0  0  0  0  0  0
   -9.3190   19.9930   -6.4180 C   0  0  0  0  0  0  0  0  0  0  0  0
  -10.3240   18.8520   -6.1880 C   0  0  2  0  0  0  0  0  0  0  0  0
   -9.5060   17.7230   -5.5370 C   0  0  0  0  0  0  0  0  0  0  0  0
   -8.7660   18.1420   -4.2670 C   0  0  0  0  0  0  0  0  0  0  0  0
  -10.9280   18.3230   -7.4850 C   0  0  0  0  0  0  0  0  0  0  0  0
  -11.8010   17.1880   -7.4950 C   0  0  0  0  0  0  0  0  0  0  0  0
  -12.3450   16.7190   -8.7170 C   0  0  0  0  0  0  0  0  0  0  0  0
  -12.0070   17.3920   -9.9230 C   0  0  0  0  0  0  0  0  0  0  0  0
  -11.1660   18.4940   -9.9340 C   0  0  0  0  0  0  0  0  0  0  0  0
  -10.6570   18.9400   -8.7270 C   0  0  0  0  0  0  0  0  0  0  0  0
  -12.4520   16.9970  -11.1910 C   0  0  0  0  0  0  0  0  0  0  0  0
  -12.6090   16.6110  -12.2990 C   0  0  0  0  0  0  0  0  0  0  0  0
  -12.7910   16.1400  -13.6180 C   0  0  0  0  0  0  0  0  0  0  0  0
  -12.0180   15.0120  -14.0100 C   0  0  0  0  0  0  0  0  0  0  0  0
  -12.1550   14.4770  -15.3090 C   0  0  0  0  0  0  0  0  0  0  0  0
  -13.0580   15.0880  -16.2130 C   0  0  0  0  0  0  0  0  0  0  0  0
  -13.8190   16.2170  -15.8140 C   0  0  0  0  0  0  0  0  0  0  0  0
  -13.6920   16.7520  -14.5030 C   0  0  0  0  0  0  0  0  0  0  0  0
   -3.8040   20.6620   -3.8300 C   0  0  1  0  0  0  0  0  0  0  0  0
   -3.6170   21.0070   -5.3020 C   0  0  0  0  0  0  0  0  0  0  0  0
   -2.6750   21.1780   -3.0930 O   0  0  0  0  0  0  0  0  0  0  0  0
   -6.8125   21.6290   -4.3551 H   0  0  0  0  0  0  0  0  0  0  0  0
   -5.1088   20.8156   -2.1700 H   0  0  0  0  0  0  0  0  0  0  0  0
   -5.2519   22.4900   -0.9697 H   0  0  0  0  0  0  0  0  0  0  0  0
   -5.2076   24.7527   -0.7218 H   0  0  0  0  0  0  0  0  0  0  0  0
   -8.1360   21.3484   -5.2844 H   0  0  0  0  0  0  0  0  0  0  0  0
   -9.6760   20.8504   -4.5052 H   0  0  0  0  0  0  0  0  0  0  0  0
   -8.4705   19.6178   -7.0089 H   0  0  0  0  0  0  0  0  0  0  0  0
   -9.8135   20.8097   -6.9642 H   0  0  0  0  0  0  0  0  0  0  0  0
  -11.1306   19.1890   -5.5203 H   0  0  0  0  0  0  0  0  0  0  0  0
   -8.7645   17.3679   -6.2678 H   0  0  0  0  0  0  0  0  0  0  0  0
  -10.1921   16.9018   -5.2822 H   0  0  0  0  0  0  0  0  0  0  0  0
   -9.4912   18.1772   -3.4406 H   0  0  0  0  0  0  0  0  0  0  0  0
   -7.9983   17.3850   -4.0491 H   0  0  0  0  0  0  0  0  0  0  0  0
  -12.0464   16.6863   -6.5659 H   0  0  0  0  0  0  0  0  0  0  0  0
  -13.0078   15.8614   -8.7318 H   0  0  0  0  0  0  0  0  0  0  0  0
  -10.9140   18.9928  -10.8629 H   0  0  0  0  0  0  0  0  0  0  0  0
  -10.0137   19.8124   -8.7347 H   0  0  0  0  0  0  0  0  0  0  0  0
  -11.3228   14.5627  -13.3101 H   0  0  0  0  0  0  0  0  0  0  0  0
  -11.5772   13.6107  -15.6104 H   0  0  0  0  0  0  0  0  0  0  0  0
  -13.1683   14.6907  -17.2155 H   0  0  0  0  0  0  0  0  0  0  0  0
  -14.5048   16.6767  -16.5165 H   0  0  0  0  0  0  0  0  0  0  0  0
  -14.2765   17.6112  -14.1946 H   0  0  0  0  0  0  0  0  0  0  0  0
   -3.8378   19.5665   -3.7369 H   0  0  0  0  0  0  0  0  0  0  0  0
   -2.6874   20.5489   -5.6707 H   0  0  0  0  0  0  0  0  0  0  0  0
   -3.5586   22.0993   -5.4181 H   0  0  0  0  0  0  0  0  0  0  0  0
   -4.4699   20.6219   -5.8801 H   0  0  0  0  0  0  0  0  0  0  0  0
   -2.6305   22.1206   -3.2030 H   0  0  0  0  0  0  0  0  0  0  0  0
  1  2  1  0  0  0  0
  1  7  1  0  0  0  0
  1 32  1  0  0  0  0
  2  3  1  0  0  0  0
  2 29  1  0  0  0  0
  2 33  1  1  0  0  0
  3  4  2  0  0  0  0
  3  5  1  0  0  0  0
  5  6  1  0  0  0  0
  5 34  1  0  0  0  0
  6 35  1  0  0  0  0
  7  8  2  0  0  0  0
  7  9  1  0  0  0  0
  9 10  1  0  0  0  0
  9 14  1  0  0  0  0
 10 11  1  0  0  0  0
 10 36  1  0  0  0  0
 10 37  1  0  0  0  0
 11 12  1  0  0  0  0
 11 38  1  0  0  0  0
 11 39  1  0  0  0  0
 12 13  1  0  0  0  0
 12 15  1  0  0  0  0
 12 40  1  1  0  0  0
 13 14  1  0  0  0  0
 13 41  1  0  0  0  0
 13 42  1  0  0  0  0
 14 43  1  0  0  0  0
 14 44  1  0  0  0  0
 15 16  2  0  0  0  0
 15 20  1  0  0  0  0
 16 17  1  0  0  0  0
 16 45  1  0  0  0  0
 17 18  2  0  0  0  0
 17 46  1  0  0  0  0
 18 19  1  0  0  0  0
 18 21  1  0  0  0  0
 19 20  2  0  0  0  0
 19 47  1  0  0  0  0
 20 48  1  0  0  0  0
 21 22  3  0  0  0  0
 22 23  1  0  0  0  0
 23 24  2  0  0  0  0
 23 28  1  0  0  0  0
 24 25  1  0  0  0  0
 24 49  1  0  0  0  0
 25 26  2  0  0  0  0
 25 50  1  0  0  0  0
 26 27  1  0  0  0  0
 26 51  1  0  0  0  0
 27 28  2  0  0  0  0
 27 52  1  0  0  0  0
 28 53  1  0  0  0  0
 29 30  1  0  0  0  0
 29 31  1  0  0  0  0
 29 54  1  1  0  0  0
 30 55  1  0  0  0  0
 30 56  1  0  0  0  0
 30 57  1  0  0  0  0
 31 58  1  0  0  0  0
M  END
