3p7b_ligand
 OpenBabel08222323343D

 61 64  0  0  0  0  0  0  0  0999 V2000
   49.1100   27.2540  -18.1190 C   0  0  0  0  0  0  0  0  0  0  0  0
   50.0950   28.2640  -19.0980 S   0  0  0  0  0  0  0  0  0  0  0  0
   51.2810   28.5510  -17.8460 C   0  0  0  0  0  0  0  0  0  0  0  0
   50.7630   27.9170  -16.6990 C   0  0  0  0  0  0  0  0  0  0  0  0
   49.5890   27.1900  -16.8100 C   0  0  0  0  0  0  0  0  0  0  0  0
   47.8610   26.6740  -18.7300 C   0  0  0  0  0  0  0  0  0  0  0  0
   48.2680   25.5020  -19.5860 C   0  0  0  0  0  0  0  0  0  0  0  0
   46.8060   26.4070  -17.6760 C   0  0  0  0  0  0  0  0  0  0  0  0
   47.3250   27.6440  -19.7650 C   0  0  0  0  0  0  0  0  0  0  0  0
   51.5340   28.0180  -15.4340 C   0  0  0  0  0  0  0  0  0  0  0  0
   52.6450   28.5010  -15.5110 O   0  0  0  0  0  0  0  0  0  0  0  0
   52.4090   29.3140  -17.9280 N   0  0  0  0  0  0  0  0  0  0  0  0
   52.6360   30.2320  -18.9030 C   0  0  0  0  0  0  0  0  0  0  0  0
   51.6930   30.5480  -19.7680 O   0  0  0  0  0  0  0  0  0  0  0  0
   53.7750   30.8260  -19.0040 N   0  0  0  0  0  0  0  0  0  0  0  0
   54.1420   31.8480  -19.8410 C   0  0  0  0  0  0  0  0  0  0  0  0
   53.4220   33.0600  -19.6660 C   0  0  0  0  0  0  0  0  0  0  0  0
   53.7510   34.1610  -20.4770 C   0  0  0  0  0  0  0  0  0  0  0  0
   54.8240   34.0590  -21.3540 C   0  0  0  0  0  0  0  0  0  0  0  0
   55.5440   32.8740  -21.5490 C   0  0  0  0  0  0  0  0  0  0  0  0
   55.2230   31.7430  -20.7710 C   0  0  0  0  0  0  0  0  0  0  0  0
   56.5850   32.8870  -22.5200 C   0  0  0  0  0  0  0  0  0  0  0  0
   57.3540   31.7460  -22.7020 C   0  0  0  0  0  0  0  0  0  0  0  0
   57.0240   30.6290  -21.9370 C   0  0  0  0  0  0  0  0  0  0  0  0
   56.0080   30.5900  -20.9640 C   0  0  0  0  0  0  0  0  0  0  0  0
   51.0750   27.6290  -14.2290 N   0  0  0  0  0  0  0  0  0  0  0  0
   49.7170   28.1170  -13.9080 C   0  0  0  0  0  0  0  0  0  0  0  0
   49.0580   27.5390  -12.6520 C   0  0  0  0  0  0  0  0  0  0  0  0
   49.6540   28.1480  -11.4350 N   0  0  0  0  0  0  0  0  0  0  0  0
   50.9380   28.2350  -10.9650 C   0  0  0  0  0  0  0  0  0  0  0  0
   52.0240   28.4860  -12.0210 C   0  0  0  0  0  0  0  0  0  0  0  0
   52.0460   27.4110  -13.1220 C   0  0  0  0  0  0  0  0  0  0  0  0
   51.2080   27.6750   -9.8820 O   0  0  0  0  0  0  0  0  0  0  0  0
   49.1104   26.6483  -15.9955 H   0  0  0  0  0  0  0  0  0  0  0  0
   47.3740   25.0566  -20.0468 H   0  0  0  0  0  0  0  0  0  0  0  0
   48.7722   24.7496  -18.9618 H   0  0  0  0  0  0  0  0  0  0  0  0
   48.9547   25.8445  -20.3741 H   0  0  0  0  0  0  0  0  0  0  0  0
   46.5978   27.3345  -17.1225 H   0  0  0  0  0  0  0  0  0  0  0  0
   47.1704   25.6380  -16.9790 H   0  0  0  0  0  0  0  0  0  0  0  0
   45.8838   26.0547  -18.1612 H   0  0  0  0  0  0  0  0  0  0  0  0
   48.0970   27.8320  -20.5257 H   0  0  0  0  0  0  0  0  0  0  0  0
   47.0550   28.5910  -19.2749 H   0  0  0  0  0  0  0  0  0  0  0  0
   46.4343   27.2127  -20.2453 H   0  0  0  0  0  0  0  0  0  0  0  0
   53.1117   29.1898  -17.2274 H   0  0  0  0  0  0  0  0  0  0  0  0
   54.4896   30.4962  -18.3870 H   0  0  0  0  0  0  0  0  0  0  0  0
   52.6359   33.1347  -18.9234 H   0  0  0  0  0  0  0  0  0  0  0  0
   53.1749   35.0774  -20.4187 H   0  0  0  0  0  0  0  0  0  0  0  0
   55.1178   34.9393  -21.9142 H   0  0  0  0  0  0  0  0  0  0  0  0
   56.7746   33.7766  -23.1096 H   0  0  0  0  0  0  0  0  0  0  0  0
   58.1757   31.7247  -23.4087 H   0  0  0  0  0  0  0  0  0  0  0  0
   57.5929   29.7215  -22.1040 H   0  0  0  0  0  0  0  0  0  0  0  0
   55.8341   29.6949  -20.3778 H   0  0  0  0  0  0  0  0  0  0  0  0
   49.0672   27.8817  -14.7638 H   0  0  0  0  0  0  0  0  0  0  0  0
   49.7760   29.2081  -13.7815 H   0  0  0  0  0  0  0  0  0  0  0  0
   49.2142   26.4504  -12.6276 H   0  0  0  0  0  0  0  0  0  0  0  0
   47.9795   27.7543  -12.6754 H   0  0  0  0  0  0  0  0  0  0  0  0
   48.9808   28.5831  -10.8370 H   0  0  0  0  0  0  0  0  0  0  0  0
   53.0039   28.4973  -11.5214 H   0  0  0  0  0  0  0  0  0  0  0  0
   51.8397   29.4643  -12.4889 H   0  0  0  0  0  0  0  0  0  0  0  0
   53.0572   27.3851  -13.5543 H   0  0  0  0  0  0  0  0  0  0  0  0
   51.8213   26.4401  -12.6563 H   0  0  0  0  0  0  0  0  0  0  0  0
  1  2  1  0  0  0  0
  1  5  2  0  0  0  0
  1  6  1  0  0  0  0
  2  3  1  0  0  0  0
  3  4  2  0  0  0  0
  3 12  1  0  0  0  0
  4  5  1  0  0  0  0
  4 10  1  0  0  0  0
  5 34  1  0  0  0  0
  6  7  1  0  0  0  0
  6  8  1  0  0  0  0
  6  9  1  0  0  0  0
  7 35  1  0  0  0  0
  7 36  1  0  0  0  0
  7 37  1  0  0  0  0
  8 38  1  0  0  0  0
  8 39  1  0  0  0  0
  8 40  1  0  0  0  0
  9 41  1  0  0  0  0
  9 42  1  0  0  0  0
  9 43  1  0  0  0  0
 10 11  2  0  0  0  0
 10 26  1  0  0  0  0
 12 13  1  0  0  0  0
 12 44  1  0  0  0  0
 13 14  2  0  0  0  0
 13 15  1  0  0  0  0
 15 16  1  0  0  0  0
 15 45  1  0  0  0  0
 16 17  2  0  0  0  0
 16 21  1  0  0  0  0
 17 18  1  0  0  0  0
 17 46  1  0  0  0  0
 18 19  2  0  0  0  0
 18 47  1  0  0  0  0
 19 20  1  0  0  0  0
 19 48  1  0  0  0  0
 20 21  2  0  0  0  0
 20 22  1  0  0  0  0
 21 25  1  0  0  0  0
 22 23  2  0  0  0  0
 22 49  1  0  0  0  0
 23 24  1  0  0  0  0
 23 50  1  0  0  0  0
 24 25  2  0  0  0  0
 24 51  1  0  0  0  0
 25 52  1  0  0  0  0
 26 27  1  0  0  0  0
 26 32  1  0  0  0  0
 27 28  1  0  0  0  0
 27 53  1  0  0  0  0
 27 54  1  0  0  0  0
 28 29  1  0  0  0  0
 28 55  1  0  0  0  0
 28 56  1  0  0  0  0
 29 30  1  0  0  0  0
 29 57  1  0  0  0  0
 30 31  1  0  0  0  0
 30 33  2  0  0  0  0
 31 32  1  0  0  0  0
 31 58  1  0  0  0  0
 31 59  1  0  0  0  0
 32 60  1  0  0  0  0
 32 61  1  0  0  0  0
M  END
