3pch_ligand
 OpenBabel08222323343D

 15 15  0  0  0  0  0  0  0  0999 V2000
   16.2328   11.8055   39.2033 H   0  0  0  0  0  0  0  0  0  0  0  0
   12.7446    8.6096   41.4795 H   0  0  0  0  0  0  0  0  0  0  0  0
   12.5135   10.7376   42.3158 H   0  0  0  0  0  0  0  0  0  0  0  0
   13.3367   13.0732   42.1359 H   0  0  0  0  0  0  0  0  0  0  0  0
   14.8430   12.5980   40.6780 C   0  0  0  0  0  0  0  0  0  0  0  0
   15.4100   11.5770   39.8710 C   0  0  0  0  0  0  0  0  0  0  0  0
   14.9130   10.3000   39.9390 C   0  0  0  0  0  0  0  0  0  0  0  0
   15.6960    9.0590   39.0190 Cl  0  0  0  0  0  0  0  0  0  0  0  0
   13.8720    9.9890   40.8040 C   0  0  0  0  0  0  0  0  0  0  0  0
   13.4560    8.6890   40.8550 O   0  0  0  0  0  0  0  0  0  0  0  0
   13.3100   10.9840   41.6230 C   0  0  0  0  0  0  0  0  0  0  0  0
   13.7880   12.2920   41.5350 C   0  0  0  0  0  0  0  0  0  0  0  0
   15.4350   14.0050   40.5530 C   0  0  0  0  0  0  0  0  0  0  0  0
   16.3830   14.2430   39.7880 O   0  5  0  0  0  0  0  0  0  0  0  0
   14.9320   14.8710   41.2860 O   0  0  0  0  0  0  0  0  0  0  0  0
  5 12  1  0  0  0  0
  5 13  1  0  0  0  0
  6  1  1  0  0  0  0
  6  5  2  0  0  0  0
  7  6  1  0  0  0  0
  7  8  1  0  0  0  0
  9  7  2  0  0  0  0
  9 10  1  0  0  0  0
  9 11  1  0  0  0  0
 10  2  1  0  0  0  0
 11  3  1  0  0  0  0
 11 12  2  0  0  0  0
 12  4  1  0  0  0  0
 13 14  1  0  0  0  0
 13 15  2  0  0  0  0
M  CHG  1  14  -1
M  END
