3pdq_ligand
 OpenBabel08222323343D

 35 36  0  0  0  0  0  0  0  0999 V2000
  -24.6260  -22.4220  -25.7740 O   0  5  0  0  0  0  0  0  0  0  0  0
  -24.4650  -21.9260  -24.6570 C   0  0  0  0  0  0  0  0  0  0  0  0
  -25.7250  -21.8030  -23.7840 C   0  0  0  0  0  0  0  0  0  0  0  0
  -26.7090  -22.7490  -24.0090 C   0  0  0  0  0  0  0  0  0  0  0  0
  -27.8650  -22.6870  -23.2270 C   0  0  0  0  0  0  0  0  0  0  0  0
  -28.0640  -21.7880  -22.2550 N   0  0  0  0  0  0  0  0  0  0  0  0
  -27.0930  -20.8510  -22.0180 C   0  0  0  0  0  0  0  0  0  0  0  0
  -27.3790  -19.7870  -20.9640 C   0  0  0  0  0  0  0  0  0  0  0  0
  -26.3720  -18.8780  -20.5220 C   0  0  0  0  0  0  0  0  0  0  0  0
  -26.6450  -17.8550  -19.6080 C   0  0  0  0  0  0  0  0  0  0  0  0
  -25.5860  -16.8910  -19.1330 C   0  0  0  0  0  0  0  0  0  0  0  0
  -25.8430  -15.5150  -18.9860 N   0  0  0  0  0  0  0  0  0  0  0  0
  -24.8000  -14.4740  -18.9910 C   0  0  0  0  0  0  0  0  0  0  0  0
  -23.6690  -14.6320  -17.9320 C   0  0  0  0  0  0  0  0  0  0  0  0
  -22.5610  -15.5000  -18.3580 N   0  3  0  0  0  0  0  0  0  0  0  0
  -24.4410  -17.3340  -18.9550 O   0  0  0  0  0  0  0  0  0  0  0  0
  -27.9670  -17.6800  -19.1920 C   0  0  0  0  0  0  0  0  0  0  0  0
  -28.9290  -18.5670  -19.7100 C   0  0  0  0  0  0  0  0  0  0  0  0
  -28.6790  -19.5650  -20.6050 N   0  0  0  0  0  0  0  0  0  0  0  0
  -25.9010  -20.8490  -22.7800 C   0  0  0  0  0  0  0  0  0  0  0  0
  -23.4070  -21.5240  -24.1130 O   0  0  0  0  0  0  0  0  0  0  0  0
  -26.5870  -23.5137  -24.7676 H   0  0  0  0  0  0  0  0  0  0  0  0
  -28.6487  -23.4109  -23.4189 H   0  0  0  0  0  0  0  0  0  0  0  0
  -25.3640  -18.9835  -20.9065 H   0  0  0  0  0  0  0  0  0  0  0  0
  -26.7933  -15.2256  -18.8709 H   0  0  0  0  0  0  0  0  0  0  0  0
  -25.2911  -13.5054  -18.8161 H   0  0  0  0  0  0  0  0  0  0  0  0
  -24.3309  -14.4730  -19.9860 H   0  0  0  0  0  0  0  0  0  0  0  0
  -24.1091  -15.0579  -17.0183 H   0  0  0  0  0  0  0  0  0  0  0  0
  -23.2607  -13.6346  -17.7119 H   0  0  0  0  0  0  0  0  0  0  0  0
  -21.8731  -15.5518  -17.6230 H   0  0  0  0  0  0  0  0  0  0  0  0
  -22.1365  -15.1194  -19.1893 H   0  0  0  0  0  0  0  0  0  0  0  0
  -22.9139  -16.4237  -18.5536 H   0  0  0  0  0  0  0  0  0  0  0  0
  -28.2407  -16.8931  -18.4985 H   0  0  0  0  0  0  0  0  0  0  0  0
  -29.9513  -18.4472  -19.3701 H   0  0  0  0  0  0  0  0  0  0  0  0
  -25.1300  -20.1122  -22.5857 H   0  0  0  0  0  0  0  0  0  0  0  0
  1  2  1  0  0  0  0
  2  3  1  0  0  0  0
  2 21  2  0  0  0  0
  3  4  2  0  0  0  0
  3 20  1  0  0  0  0
  4  5  1  0  0  0  0
  4 22  1  0  0  0  0
  5  6  2  0  0  0  0
  5 23  1  0  0  0  0
  6  7  1  0  0  0  0
  7  8  1  0  0  0  0
  7 20  2  0  0  0  0
  8  9  2  0  0  0  0
  8 19  1  0  0  0  0
  9 10  1  0  0  0  0
  9 24  1  0  0  0  0
 10 11  1  0  0  0  0
 10 17  2  0  0  0  0
 11 12  1  0  0  0  0
 11 16  2  0  0  0  0
 12 13  1  0  0  0  0
 12 25  1  0  0  0  0
 13 14  1  0  0  0  0
 13 26  1  0  0  0  0
 13 27  1  0  0  0  0
 14 15  1  0  0  0  0
 14 28  1  0  0  0  0
 14 29  1  0  0  0  0
 15 30  1  0  0  0  0
 15 31  1  0  0  0  0
 15 32  1  0  0  0  0
 17 18  1  0  0  0  0
 17 33  1  0  0  0  0
 18 19  2  0  0  0  0
 18 34  1  0  0  0  0
 20 35  1  0  0  0  0
M  CHG  2   1  -1  15   1
M  END
