3pi5_ligand
 OpenBabel08222323343D

 56 59  0  0  1  0  0  0  0  0999 V2000
   30.8570    9.7680   19.7320 Br  0  0  0  0  0  0  0  0  0  0  0  0
   31.2840    9.6140   17.9000 C   0  0  0  0  0  0  0  0  0  0  0  0
   31.0820   10.7050   17.0480 C   0  0  0  0  0  0  0  0  0  0  0  0
   31.4590   10.6060   15.7050 C   0  0  0  0  0  0  0  0  0  0  0  0
   32.0160    9.4230   15.1980 C   0  0  0  0  0  0  0  0  0  0  0  0
   32.1800    8.3210   16.0470 C   0  0  0  0  0  0  0  0  0  0  0  0
   31.8120    8.4120   17.4020 C   0  0  0  0  0  0  0  0  0  0  0  0
   32.7660    7.0140   15.4730 C   0  0  0  0  0  0  0  0  0  0  0  0
   31.6480    6.2010   14.7520 C   0  0  1  0  0  0  0  0  0  0  0  0
   32.1840    4.8130   14.4050 C   0  0  1  0  0  0  0  0  0  0  0  0
   31.2290    3.9860   13.5560 C   0  0  2  0  0  0  0  0  0  0  0  0
   29.8940    3.7330   14.2590 C   0  0  0  0  0  0  0  0  0  0  0  0
   29.1090    5.3160   14.5550 S   0  0  0  0  0  0  0  0  0  0  0  0
   30.3920    6.0960   15.6250 C   0  0  0  0  0  0  0  0  0  0  0  0
   27.9310    5.1400   15.3120 O   0  0  0  0  0  0  0  0  0  0  0  0
   29.0540    6.0510   13.3160 O   0  0  0  0  0  0  0  0  0  0  0  0
   31.9180    2.6970   13.2510 N   0  3  0  0  0  0  0  0  0  0  0  0
   31.3020    1.9300   12.1490 C   0  0  0  0  0  0  0  0  0  0  0  0
   31.2410    2.6960   10.8010 C   0  0  0  0  0  0  0  0  0  0  0  0
   32.3910    3.1890   10.1530 C   0  0  0  0  0  0  0  0  0  0  0  0
   32.2610    3.8950    8.9290 C   0  0  0  0  0  0  0  0  0  0  0  0
   31.0000    4.0830    8.3640 C   0  0  0  0  0  0  0  0  0  0  0  0
   29.8650    3.5750    9.0030 C   0  0  0  0  0  0  0  0  0  0  0  0
   29.9800    2.8930   10.2190 C   0  0  0  0  0  0  0  0  0  0  0  0
   33.4420    4.4980    8.1460 C   0  0  0  0  0  0  0  0  0  0  0  0
   34.7160    3.6590    8.3150 C   0  0  0  0  0  0  0  0  0  0  0  0
   34.5520    4.9610    9.1010 C   0  0  0  0  0  0  0  0  0  0  0  0
   33.4000    4.9620   13.6700 O   0  0  0  0  0  0  0  0  0  0  0  0
   30.5130   11.8790   17.5320 O   0  0  0  0  0  0  0  0  0  0  0  0
   31.3187   11.4556   15.0466 H   0  0  0  0  0  0  0  0  0  0  0  0
   32.3169    9.3620   14.1584 H   0  0  0  0  0  0  0  0  0  0  0  0
   31.9355    7.5582   18.0584 H   0  0  0  0  0  0  0  0  0  0  0  0
   33.1840    6.4111   16.2926 H   0  0  0  0  0  0  0  0  0  0  0  0
   33.5618    7.2565   14.7534 H   0  0  0  0  0  0  0  0  0  0  0  0
   31.3799    6.7200   13.8199 H   0  0  0  0  0  0  0  0  0  0  0  0
   32.3817    4.2714   15.3418 H   0  0  0  0  0  0  0  0  0  0  0  0
   31.0283    4.5227   12.6171 H   0  0  0  0  0  0  0  0  0  0  0  0
   30.0684    3.2191   15.2158 H   0  0  0  0  0  0  0  0  0  0  0  0
   29.2490    3.1110   13.6209 H   0  0  0  0  0  0  0  0  0  0  0  0
   30.0655    7.0949   15.9500 H   0  0  0  0  0  0  0  0  0  0  0  0
   30.5889    5.4694   16.5074 H   0  0  0  0  0  0  0  0  0  0  0  0
   31.9029    2.1257   14.0813 H   0  0  0  0  0  0  0  0  0  0  0  0
   32.8729    2.9001   13.0002 H   0  0  0  0  0  0  0  0  0  0  0  0
   30.2754    1.6663   12.4432 H   0  0  0  0  0  0  0  0  0  0  0  0
   31.8876    1.0112   11.9980 H   0  0  0  0  0  0  0  0  0  0  0  0
   33.3711    3.0296   10.5878 H   0  0  0  0  0  0  0  0  0  0  0  0
   30.8998    4.6230    7.4294 H   0  0  0  0  0  0  0  0  0  0  0  0
   28.8883    3.7106    8.5527 H   0  0  0  0  0  0  0  0  0  0  0  0
   29.0920    2.5156   10.7130 H   0  0  0  0  0  0  0  0  0  0  0  0
   33.1625    5.0186    7.2182 H   0  0  0  0  0  0  0  0  0  0  0  0
   35.4479    3.6000    7.4959 H   0  0  0  0  0  0  0  0  0  0  0  0
   34.6720    2.6922    8.8378 H   0  0  0  0  0  0  0  0  0  0  0  0
   34.3899    4.9299   10.1885 H   0  0  0  0  0  0  0  0  0  0  0  0
   35.1658    5.8377    8.8467 H   0  0  0  0  0  0  0  0  0  0  0  0
   34.0155    5.4761   14.1792 H   0  0  0  0  0  0  0  0  0  0  0  0
   31.1228   12.5977   17.4129 H   0  0  0  0  0  0  0  0  0  0  0  0
  1  2  1  0  0  0  0
  2  3  2  0  0  0  0
  2  7  1  0  0  0  0
  3  4  1  0  0  0  0
  3 29  1  0  0  0  0
  4  5  2  0  0  0  0
  4 30  1  0  0  0  0
  5  6  1  0  0  0  0
  5 31  1  0  0  0  0
  6  7  2  0  0  0  0
  6  8  1  0  0  0  0
  7 32  1  0  0  0  0
  8  9  1  0  0  0  0
  8 33  1  0  0  0  0
  8 34  1  0  0  0  0
  9 10  1  0  0  0  0
  9 14  1  0  0  0  0
  9 35  1  6  0  0  0
 10 11  1  0  0  0  0
 10 28  1  0  0  0  0
 10 36  1  1  0  0  0
 11 12  1  0  0  0  0
 11 17  1  0  0  0  0
 11 37  1  6  0  0  0
 12 13  1  0  0  0  0
 12 38  1  0  0  0  0
 12 39  1  0  0  0  0
 13 14  1  0  0  0  0
 13 15  2  0  0  0  0
 13 16  2  0  0  0  0
 14 40  1  0  0  0  0
 14 41  1  0  0  0  0
 17 18  1  0  0  0  0
 17 42  1  0  0  0  0
 17 43  1  0  0  0  0
 18 19  1  0  0  0  0
 18 44  1  0  0  0  0
 18 45  1  0  0  0  0
 19 20  2  0  0  0  0
 19 24  1  0  0  0  0
 20 21  1  0  0  0  0
 20 46  1  0  0  0  0
 21 22  2  0  0  0  0
 21 25  1  0  0  0  0
 22 23  1  0  0  0  0
 22 47  1  0  0  0  0
 23 24  2  0  0  0  0
 23 48  1  0  0  0  0
 24 49  1  0  0  0  0
 25 26  1  0  0  0  0
 25 27  1  0  0  0  0
 25 50  1  0  0  0  0
 26 27  1  0  0  0  0
 26 51  1  0  0  0  0
 26 52  1  0  0  0  0
 27 53  1  0  0  0  0
 27 54  1  0  0  0  0
 28 55  1  0  0  0  0
 29 56  1  0  0  0  0
M  CHG  1  17   1
M  END
