3pj2_ligand
 OpenBabel08222323343D

 64 67  0  0  0  0  0  0  0  0999 V2000
  -20.7200    5.0010  -19.0360 N   0  0  0  0  0  0  0  0  0  0  0  0
  -19.5120    5.4970  -19.2960 C   0  0  0  0  0  0  0  0  0  0  0  0
  -18.6470    5.7880  -18.3260 N   0  0  0  0  0  0  0  0  0  0  0  0
  -21.1230    4.7740  -17.7960 C   0  0  0  0  0  0  0  0  0  0  0  0
  -20.2440    5.0590  -16.7420 C   0  0  0  0  0  0  0  0  0  0  0  0
  -18.9630    5.5910  -17.0430 C   0  0  0  0  0  0  0  0  0  0  0  0
  -18.0910    5.8730  -16.0100 N   0  0  0  0  0  0  0  0  0  0  0  0
  -18.4330    5.6300  -14.7170 C   0  0  0  0  0  0  0  0  0  0  0  0
  -19.7050    5.0930  -14.3620 C   0  0  0  0  0  0  0  0  0  0  0  0
  -20.6080    4.8080  -15.3470 C   0  0  0  0  0  0  0  0  0  0  0  0
  -20.0090    4.8320  -13.0490 O   0  0  0  0  0  0  0  0  0  0  0  0
  -20.7550    5.7360  -12.3440 C   0  0  0  0  0  0  0  0  0  0  0  0
  -19.2040    5.7010  -20.6310 N   0  0  0  0  0  0  0  0  0  0  0  0
  -17.9480    5.9990  -21.1960 C   0  0  0  0  0  0  0  0  0  0  0  0
  -17.7210    5.6070  -22.5160 C   0  0  0  0  0  0  0  0  0  0  0  0
  -16.5160    5.8880  -23.1400 C   0  0  0  0  0  0  0  0  0  0  0  0
  -15.5140    6.5660  -22.4540 C   0  0  0  0  0  0  0  0  0  0  0  0
  -15.7390    6.9760  -21.1360 C   0  0  0  0  0  0  0  0  0  0  0  0
  -16.9470    6.6940  -20.5100 C   0  0  0  0  0  0  0  0  0  0  0  0
  -14.3380    6.8350  -23.1010 O   0  0  0  0  0  0  0  0  0  0  0  0
  -13.2400    6.2870  -22.3680 C   0  0  0  0  0  0  0  0  0  0  0  0
  -11.9320    6.4620  -23.1490 C   0  0  0  0  0  0  0  0  0  0  0  0
  -11.8790    5.5680  -24.3190 N   0  3  0  0  0  0  0  0  0  0  0  0
  -10.7190    6.0120  -25.1130 C   0  0  0  0  0  0  0  0  0  0  0  0
  -11.0750    6.0610  -26.6020 C   0  0  0  0  0  0  0  0  0  0  0  0
  -11.5590    4.2110  -23.8390 C   0  0  0  0  0  0  0  0  0  0  0  0
  -12.5090    3.1910  -24.4760 C   0  0  0  0  0  0  0  0  0  0  0  0
  -17.6350    5.8750  -13.8230 O   0  0  0  0  0  0  0  0  0  0  0  0
  -16.7650    6.4240  -16.3300 C   0  0  0  0  0  0  0  0  0  0  0  0
  -20.5020    5.8290  -10.9770 C   0  0  0  0  0  0  0  0  0  0  0  0
  -21.2200    6.7030  -10.1780 C   0  0  0  0  0  0  0  0  0  0  0  0
  -22.2140    7.4910  -10.7410 C   0  0  0  0  0  0  0  0  0  0  0  0
  -22.4850    7.3950  -12.1020 C   0  0  0  0  0  0  0  0  0  0  0  0
  -21.7640    6.5190  -12.9030 C   0  0  0  0  0  0  0  0  0  0  0  0
  -22.9170    8.3480   -9.9620 F   0  0  0  0  0  0  0  0  0  0  0  0
  -22.1120    4.3761  -17.5996 H   0  0  0  0  0  0  0  0  0  0  0  0
  -21.5860    4.3993  -15.0972 H   0  0  0  0  0  0  0  0  0  0  0  0
  -19.9901    5.6256  -21.2923 H   0  0  0  0  0  0  0  0  0  0  0  0
  -18.4954    5.0772  -23.0589 H   0  0  0  0  0  0  0  0  0  0  0  0
  -16.3539    5.5784  -24.1661 H   0  0  0  0  0  0  0  0  0  0  0  0
  -14.9671    7.5165  -20.6001 H   0  0  0  0  0  0  0  0  0  0  0  0
  -17.1139    7.0134  -19.4877 H   0  0  0  0  0  0  0  0  0  0  0  0
  -13.4183    5.2152  -22.1962 H   0  0  0  0  0  0  0  0  0  0  0  0
  -13.1561    6.8044  -21.4009 H   0  0  0  0  0  0  0  0  0  0  0  0
  -11.0856    6.2325  -22.4850 H   0  0  0  0  0  0  0  0  0  0  0  0
  -11.8569    7.5045  -23.4919 H   0  0  0  0  0  0  0  0  0  0  0  0
  -12.7363    5.5874  -24.8489 H   0  0  0  0  0  0  0  0  0  0  0  0
   -9.8869    5.3084  -24.9628 H   0  0  0  0  0  0  0  0  0  0  0  0
  -10.4153    7.0155  -24.7803 H   0  0  0  0  0  0  0  0  0  0  0  0
  -10.1988    6.3938  -27.1777 H   0  0  0  0  0  0  0  0  0  0  0  0
  -11.9051    6.7657  -26.7576 H   0  0  0  0  0  0  0  0  0  0  0  0
  -11.3767    5.0587  -26.9401 H   0  0  0  0  0  0  0  0  0  0  0  0
  -11.6683    4.1765  -22.7450 H   0  0  0  0  0  0  0  0  0  0  0  0
  -10.5226    3.9632  -24.1120 H   0  0  0  0  0  0  0  0  0  0  0  0
  -12.2622    2.1828  -24.1118 H   0  0  0  0  0  0  0  0  0  0  0  0
  -12.4005    3.2223  -25.5702 H   0  0  0  0  0  0  0  0  0  0  0  0
  -13.5462    3.4357  -24.2032 H   0  0  0  0  0  0  0  0  0  0  0  0
  -16.6737    6.5508  -17.4188 H   0  0  0  0  0  0  0  0  0  0  0  0
  -15.9856    5.7339  -15.9747 H   0  0  0  0  0  0  0  0  0  0  0  0
  -16.6442    7.3993  -15.8359 H   0  0  0  0  0  0  0  0  0  0  0  0
  -19.7323    5.2084  -10.5326 H   0  0  0  0  0  0  0  0  0  0  0  0
  -21.0065    6.7713   -9.1174 H   0  0  0  0  0  0  0  0  0  0  0  0
  -23.2642    8.0080  -12.5403 H   0  0  0  0  0  0  0  0  0  0  0  0
  -21.9855    6.4442  -13.9615 H   0  0  0  0  0  0  0  0  0  0  0  0
  1  2  2  0  0  0  0
  1  4  1  0  0  0  0
  2  3  1  0  0  0  0
  2 13  1  0  0  0  0
  3  6  2  0  0  0  0
  4  5  2  0  0  0  0
  4 36  1  0  0  0  0
  5  6  1  0  0  0  0
  5 10  1  0  0  0  0
  6  7  1  0  0  0  0
  7  8  1  0  0  0  0
  7 29  1  0  0  0  0
  8  9  1  0  0  0  0
  8 28  2  0  0  0  0
  9 10  2  0  0  0  0
  9 11  1  0  0  0  0
 10 37  1  0  0  0  0
 11 12  1  0  0  0  0
 12 30  2  0  0  0  0
 12 34  1  0  0  0  0
 13 14  1  0  0  0  0
 13 38  1  0  0  0  0
 14 15  2  0  0  0  0
 14 19  1  0  0  0  0
 15 16  1  0  0  0  0
 15 39  1  0  0  0  0
 16 17  2  0  0  0  0
 16 40  1  0  0  0  0
 17 18  1  0  0  0  0
 17 20  1  0  0  0  0
 18 19  2  0  0  0  0
 18 41  1  0  0  0  0
 19 42  1  0  0  0  0
 20 21  1  0  0  0  0
 21 22  1  0  0  0  0
 21 43  1  0  0  0  0
 21 44  1  0  0  0  0
 22 23  1  0  0  0  0
 22 45  1  0  0  0  0
 22 46  1  0  0  0  0
 23 24  1  0  0  0  0
 23 26  1  0  0  0  0
 23 47  1  0  0  0  0
 24 25  1  0  0  0  0
 24 48  1  0  0  0  0
 24 49  1  0  0  0  0
 25 50  1  0  0  0  0
 25 51  1  0  0  0  0
 25 52  1  0  0  0  0
 26 27  1  0  0  0  0
 26 53  1  0  0  0  0
 26 54  1  0  0  0  0
 27 55  1  0  0  0  0
 27 56  1  0  0  0  0
 27 57  1  0  0  0  0
 29 58  1  0  0  0  0
 29 59  1  0  0  0  0
 29 60  1  0  0  0  0
 30 31  1  0  0  0  0
 30 61  1  0  0  0  0
 31 32  2  0  0  0  0
 31 62  1  0  0  0  0
 32 33  1  0  0  0  0
 32 35  1  0  0  0  0
 33 34  2  0  0  0  0
 33 63  1  0  0  0  0
 34 64  1  0  0  0  0
M  CHG  1  23   1
M  END
