3pjt_ligand
 OpenBabel08222323343D

 68 74  0  0  1  0  0  0  0  0999 V2000
  -18.7560  -46.1670   15.6700 P   0  0  1  0  0  0  0  0  0  0  0  0
  -17.8040  -45.3260   16.4680 O   0  0  0  0  0  1  0  0  0  0  0  0
  -18.8470  -47.5270   16.3410 O   0  0  0  0  0  0  0  0  0  0  0  0
  -20.1820  -45.4520   15.6880 O   0  0  0  0  0  0  0  0  0  0  0  0
  -21.3060  -46.2210   15.3870 C   0  0  0  0  0  0  0  0  0  0  0  0
  -21.6970  -46.2070   13.9390 C   0  0  1  0  0  0  0  0  0  0  0  0
  -22.7340  -47.1110   13.7190 O   0  0  0  0  0  0  0  0  0  0  0  0
  -22.2990  -44.9220   13.4380 C   0  0  1  0  0  0  0  0  0  0  0  0
  -22.2790  -44.9250   12.0580 O   0  0  0  0  0  0  0  0  0  0  0  0
  -23.6320  -45.0140   13.8850 C   0  0  1  0  0  0  0  0  0  0  0  0
  -24.5720  -44.2590   13.1390 O   0  0  0  0  0  0  0  0  0  0  0  0
  -23.9570  -46.4130   13.7910 C   0  0  2  0  0  0  0  0  0  0  0  0
  -24.9000  -47.0730   14.8860 N   0  0  0  0  0  0  0  0  0  0  0  0
  -24.9570  -46.6720   16.1660 C   0  0  0  0  0  0  0  0  0  0  0  0
  -25.7830  -47.5010   16.8250 N   0  0  0  0  0  0  0  0  0  0  0  0
  -26.2320  -48.4350   15.9630 C   0  0  0  0  0  0  0  0  0  0  0  0
  -27.1040  -49.5180   16.1170 C   0  0  0  0  0  0  0  0  0  0  0  0
  -27.6560  -49.8420   17.3340 O   0  0  0  0  0  0  0  0  0  0  0  0
  -27.3700  -50.2780   15.0490 N   0  0  0  0  0  0  0  0  0  0  0  0
  -26.8110  -49.9930   13.8640 C   0  0  0  0  0  0  0  0  0  0  0  0
  -27.1560  -50.8000   12.7480 N   0  0  0  0  0  0  0  0  0  0  0  0
  -25.9610  -48.9620   13.6900 N   0  0  0  0  0  0  0  0  0  0  0  0
  -25.6530  -48.1670   14.7180 C   0  0  0  0  0  0  0  0  0  0  0  0
  -21.3540  -43.8660   11.3590 P   0  0  2  0  0  0  0  0  0  0  0  0
  -21.2090  -42.6500   12.2230 O   0  0  0  0  0  1  0  0  0  0  0  0
  -21.9080  -43.4720   10.0250 O   0  0  0  0  0  0  0  0  0  0  0  0
  -19.9490  -44.4530   11.0300 O   0  0  0  0  0  0  0  0  0  0  0  0
  -19.1120  -44.3100   12.0850 C   0  0  0  0  0  0  0  0  0  0  0  0
  -18.0690  -45.3360   12.1560 C   0  0  1  0  0  0  0  0  0  0  0  0
  -16.8900  -44.8540   11.4330 O   0  0  0  0  0  0  0  0  0  0  0  0
  -17.7500  -45.3030   13.5900 C   0  0  1  0  0  0  0  0  0  0  0  0
  -18.1740  -46.4410   14.2410 O   0  0  0  0  0  0  0  0  0  0  0  0
  -16.3340  -44.9130   13.7200 C   0  0  1  0  0  0  0  0  0  0  0  0
  -15.5280  -45.9720   14.0010 O   0  0  0  0  0  0  0  0  0  0  0  0
  -16.0080  -44.3230   12.3760 C   0  0  2  0  0  0  0  0  0  0  0  0
  -15.7870  -42.7590   12.4050 N   0  0  0  0  0  0  0  0  0  0  0  0
  -16.7490  -41.8500   12.6340 C   0  0  0  0  0  0  0  0  0  0  0  0
  -16.1770  -40.6400   12.7320 N   0  0  0  0  0  0  0  0  0  0  0  0
  -14.8490  -40.7830   12.5650 C   0  0  0  0  0  0  0  0  0  0  0  0
  -13.7740  -39.8960   12.5670 C   0  0  0  0  0  0  0  0  0  0  0  0
  -13.9970  -38.5600   12.8260 O   0  0  0  0  0  0  0  0  0  0  0  0
  -12.5250  -40.3790   12.3760 N   0  0  0  0  0  0  0  0  0  0  0  0
  -12.3060  -41.6840   12.1680 C   0  0  0  0  0  0  0  0  0  0  0  0
  -10.9710  -42.1710   11.9510 N   0  0  0  0  0  0  0  0  0  0  0  0
  -13.3380  -42.5420   12.1700 N   0  0  0  0  0  0  0  0  0  0  0  0
  -14.5980  -42.1330   12.3650 C   0  0  0  0  0  0  0  0  0  0  0  0
  -22.1526  -45.8379   15.9756 H   0  0  0  0  0  0  0  0  0  0  0  0
  -21.0987  -47.2616   15.6772 H   0  0  0  0  0  0  0  0  0  0  0  0
  -20.8120  -46.4649   13.3388 H   0  0  0  0  0  0  0  0  0  0  0  0
  -21.7852  -44.0353   13.8378 H   0  0  0  0  0  0  0  0  0  0  0  0
  -23.6819  -44.6827   14.9327 H   0  0  0  0  0  0  0  0  0  0  0  0
  -25.4386  -44.3800   13.5088 H   0  0  0  0  0  0  0  0  0  0  0  0
  -24.4815  -46.5425   12.8329 H   0  0  0  0  0  0  0  0  0  0  0  0
  -24.4264  -45.8232   16.5948 H   0  0  0  0  0  0  0  0  0  0  0  0
  -27.9870  -51.0603   15.1344 H   0  0  0  0  0  0  0  0  0  0  0  0
  -26.7430  -50.6057   11.8247 H   0  0  0  0  0  0  0  0  0  0  0  0
  -27.8193  -51.5797   12.8617 H   0  0  0  0  0  0  0  0  0  0  0  0
  -19.7074  -44.3564   13.0088 H   0  0  0  0  0  0  0  0  0  0  0  0
  -18.6259  -43.3260   12.0111 H   0  0  0  0  0  0  0  0  0  0  0  0
  -18.3996  -46.3225   11.7988 H   0  0  0  0  0  0  0  0  0  0  0  0
  -18.3327  -44.4831   14.0351 H   0  0  0  0  0  0  0  0  0  0  0  0
  -16.2169  -44.1585   14.5118 H   0  0  0  0  0  0  0  0  0  0  0  0
  -15.8004  -46.3671   14.8209 H   0  0  0  0  0  0  0  0  0  0  0  0
  -15.0220  -44.7255   12.1009 H   0  0  0  0  0  0  0  0  0  0  0  0
  -17.8138  -42.0596   12.7248 H   0  0  0  0  0  0  0  0  0  0  0  0
  -11.7489  -39.7486   12.3904 H   0  0  0  0  0  0  0  0  0  0  0  0
  -10.8088  -43.1756   11.7916 H   0  0  0  0  0  0  0  0  0  0  0  0
  -10.1766  -41.5154   11.9549 H   0  0  0  0  0  0  0  0  0  0  0  0
  1  2  1  1  0  0  0
  1  3  2  0  0  0  0
  1  4  1  0  0  0  0
  1 32  1  0  0  0  0
  4  5  1  0  0  0  0
  5  6  1  0  0  0  0
  5 47  1  0  0  0  0
  5 48  1  0  0  0  0
  6  7  1  0  0  0  0
  6  8  1  0  0  0  0
  6 49  1  6  0  0  0
  7 12  1  0  0  0  0
  8  9  1  0  0  0  0
  8 10  1  0  0  0  0
  8 50  1  1  0  0  0
  9 24  1  0  0  0  0
 10 11  1  0  0  0  0
 10 12  1  0  0  0  0
 10 51  1  1  0  0  0
 11 52  1  0  0  0  0
 12 13  1  0  0  0  0
 12 53  1  6  0  0  0
 13 14  1  0  0  0  0
 13 23  1  0  0  0  0
 14 15  2  0  0  0  0
 14 54  1  0  0  0  0
 15 16  1  0  0  0  0
 16 17  1  0  0  0  0
 16 23  2  0  0  0  0
 17 18  2  0  0  0  0
 17 19  1  0  0  0  0
 19 20  1  0  0  0  0
 19 55  1  0  0  0  0
 20 21  1  0  0  0  0
 20 22  2  0  0  0  0
 21 56  1  0  0  0  0
 21 57  1  0  0  0  0
 22 23  1  0  0  0  0
 24 25  1  1  0  0  0
 24 26  2  0  0  0  0
 24 27  1  0  0  0  0
 27 28  1  0  0  0  0
 28 29  1  0  0  0  0
 28 58  1  0  0  0  0
 28 59  1  0  0  0  0
 29 30  1  0  0  0  0
 29 31  1  0  0  0  0
 29 60  1  6  0  0  0
 30 35  1  0  0  0  0
 31 32  1  0  0  0  0
 31 33  1  0  0  0  0
 31 61  1  1  0  0  0
 33 34  1  0  0  0  0
 33 35  1  0  0  0  0
 33 62  1  1  0  0  0
 34 63  1  0  0  0  0
 35 36  1  0  0  0  0
 35 64  1  6  0  0  0
 36 37  1  0  0  0  0
 36 46  1  0  0  0  0
 37 38  2  0  0  0  0
 37 65  1  0  0  0  0
 38 39  1  0  0  0  0
 39 40  1  0  0  0  0
 39 46  2  0  0  0  0
 40 41  2  0  0  0  0
 40 42  1  0  0  0  0
 42 43  1  0  0  0  0
 42 66  1  0  0  0  0
 43 44  1  0  0  0  0
 43 45  2  0  0  0  0
 44 67  1  0  0  0  0
 44 68  1  0  0  0  0
 45 46  1  0  0  0  0
M  END
