3pkb_ligand
 OpenBabel08222323343D

 48 47  0  0  1  0  0  0  0  0999 V2000
   -3.7590  -43.1910    2.8600 N   0  0  0  0  0  0  0  0  0  0  0  0
  -10.7900  -43.9830    2.5320 O   0  0  0  0  0  0  0  0  0  0  0  0
   -0.9380  -43.6850    5.1000 N   0  0  0  0  0  0  0  0  0  0  0  0
   -6.8030  -44.4650    1.8180 O   0  0  0  0  0  0  0  0  0  0  0  0
   -8.7410  -42.7190    1.4440 O   0  0  0  0  0  0  0  0  0  0  0  0
   -4.8490  -43.6130    4.8310 O   0  0  0  0  0  0  0  0  0  0  0  0
   -2.0020  -41.8150    4.4420 O   0  0  0  0  0  0  0  0  0  0  0  0
   -6.5870  -41.5750    4.0780 O   0  0  0  0  0  0  0  0  0  0  0  0
   -9.1620  -46.1980    6.5320 C   0  0  0  0  0  0  0  0  0  0  0  0
   -9.2480  -45.7950    5.0640 C   0  0  0  0  0  0  0  0  0  0  0  0
   -9.6470  -44.6570    4.5690 C   0  0  0  0  0  0  0  0  0  0  0  0
   -9.5110  -44.3110    3.1020 C   0  0  2  0  0  0  0  0  0  0  0  0
   -8.5670  -43.2040    2.7960 C   0  0  1  0  0  0  0  0  0  0  0  0
   -7.1630  -43.6610    2.9970 C   0  0  2  0  0  0  0  0  0  0  0  0
   -6.0890  -42.5740    3.1320 C   0  0  2  0  0  0  0  0  0  0  0  0
   -7.7050  -46.4100    6.8840 C   0  0  0  0  0  0  0  0  0  0  0  0
   -9.7970  -45.1680    7.4940 C   0  0  0  0  0  0  0  0  0  0  0  0
   -9.9060  -47.4800    6.7620 C   0  0  0  0  0  0  0  0  0  0  0  0
   -4.8500  -43.2060    3.6490 C   0  0  0  0  0  0  0  0  0  0  0  0
   -2.5050  -43.8050    3.2500 C   0  0  0  0  0  0  0  0  0  0  0  0
   -1.8150  -42.9930    4.3050 C   0  0  0  0  0  0  0  0  0  0  0  0
   -5.8480  -40.3800    4.0530 C   0  0  0  0  0  0  0  0  0  0  0  0
   -3.8160  -42.7385    1.9700 H   0  0  0  0  0  0  0  0  0  0  0  0
  -11.3741  -44.7273    2.6181 H   0  0  0  0  0  0  0  0  0  0  0  0
   -0.8043  -44.6662    4.9608 H   0  0  0  0  0  0  0  0  0  0  0  0
   -0.4321  -43.2085    5.8191 H   0  0  0  0  0  0  0  0  0  0  0  0
   -6.8747  -43.9292    1.0368 H   0  0  0  0  0  0  0  0  0  0  0  0
   -8.1253  -42.0144    1.2798 H   0  0  0  0  0  0  0  0  0  0  0  0
   -8.9387  -46.5490    4.3417 H   0  0  0  0  0  0  0  0  0  0  0  0
  -10.0966  -43.9253    5.2386 H   0  0  0  0  0  0  0  0  0  0  0  0
   -9.1320  -45.2120    2.5974 H   0  0  0  0  0  0  0  0  0  0  0  0
   -8.7693  -42.3748    3.4899 H   0  0  0  0  0  0  0  0  0  0  0  0
   -7.1341  -44.2836    3.9034 H   0  0  0  0  0  0  0  0  0  0  0  0
   -5.8914  -42.1046    2.1570 H   0  0  0  0  0  0  0  0  0  0  0  0
   -7.6220  -46.7019    7.9413 H   0  0  0  0  0  0  0  0  0  0  0  0
   -7.1477  -45.4765    6.7166 H   0  0  0  0  0  0  0  0  0  0  0  0
   -7.2866  -47.2056    6.2500 H   0  0  0  0  0  0  0  0  0  0  0  0
  -10.8546  -45.0222    7.2289 H   0  0  0  0  0  0  0  0  0  0  0  0
   -9.2626  -44.2102    7.4104 H   0  0  0  0  0  0  0  0  0  0  0  0
   -9.7258  -45.5387    8.5272 H   0  0  0  0  0  0  0  0  0  0  0  0
   -9.5009  -48.2622    6.1032 H   0  0  0  0  0  0  0  0  0  0  0  0
  -10.9728  -47.3298    6.5399 H   0  0  0  0  0  0  0  0  0  0  0  0
   -9.7898  -47.7882    7.8115 H   0  0  0  0  0  0  0  0  0  0  0  0
   -1.8513  -43.8795    2.3685 H   0  0  0  0  0  0  0  0  0  0  0  0
   -2.7048  -44.8122    3.6445 H   0  0  0  0  0  0  0  0  0  0  0  0
   -6.2696  -39.6729    4.7825 H   0  0  0  0  0  0  0  0  0  0  0  0
   -5.8961  -39.9401    3.0460 H   0  0  0  0  0  0  0  0  0  0  0  0
   -4.7998  -40.5916    4.3110 H   0  0  0  0  0  0  0  0  0  0  0  0
  1 19  1  0  0  0  0
  1 23  1  0  0  0  0
  2 24  1  0  0  0  0
  3 25  1  0  0  0  0
  3 26  1  0  0  0  0
  4 27  1  0  0  0  0
  5 28  1  0  0  0  0
  8 22  1  0  0  0  0
  9 16  1  0  0  0  0
  9 17  1  0  0  0  0
  9 18  1  0  0  0  0
 10  9  1  0  0  0  0
 10 29  1  0  0  0  0
 11 10  2  0  0  0  0
 11 30  1  0  0  0  0
 12  2  1  0  0  0  0
 12 11  1  0  0  0  0
 12 31  1  6  0  0  0
 13  5  1  0  0  0  0
 13 12  1  0  0  0  0
 13 32  1  1  0  0  0
 14  4  1  0  0  0  0
 14 13  1  0  0  0  0
 14 33  1  1  0  0  0
 15  8  1  0  0  0  0
 15 14  1  0  0  0  0
 15 34  1  6  0  0  0
 16 35  1  0  0  0  0
 16 36  1  0  0  0  0
 16 37  1  0  0  0  0
 17 38  1  0  0  0  0
 17 39  1  0  0  0  0
 17 40  1  0  0  0  0
 18 41  1  0  0  0  0
 18 42  1  0  0  0  0
 18 43  1  0  0  0  0
 19  6  2  0  0  0  0
 19 15  1  0  0  0  0
 20  1  1  0  0  0  0
 20 21  1  0  0  0  0
 20 44  1  0  0  0  0
 20 45  1  0  0  0  0
 21  3  1  0  0  0  0
 21  7  2  0  0  0  0
 22 46  1  0  0  0  0
 22 47  1  0  0  0  0
 22 48  1  0  0  0  0
M  END
