3pkd_ligand
 OpenBabel08222323343D

 58 59  0  0  1  0  0  0  0  0999 V2000
   25.0240   -3.7110   11.1940 N   0  0  0  0  0  0  0  0  0  0  0  0
   25.5920    1.9260   15.2210 O   0  0  0  0  0  0  0  0  0  0  0  0
   26.3730   -1.6360   13.3520 O   0  0  0  0  0  0  0  0  0  0  0  0
   24.9880   -0.6680   15.3290 O   0  0  0  0  0  0  0  0  0  0  0  0
   23.9870   -1.8900   10.2950 O   0  0  0  0  0  0  0  0  0  0  0  0
   22.8750   -1.2990   12.6910 O   0  0  0  0  0  0  0  0  0  0  0  0
   25.8490    3.0370   10.4920 C   0  0  0  0  0  0  0  0  0  0  0  0
   26.1540    2.2770   11.7630 C   0  0  0  0  0  0  0  0  0  0  0  0
   25.2870    2.1310   12.7760 C   0  0  0  0  0  0  0  0  0  0  0  0
   25.7650    1.2360   13.9130 C   0  0  2  0  0  0  0  0  0  0  0  0
   24.8190    0.0280   14.0460 C   0  0  1  0  0  0  0  0  0  0  0  0
   25.1640   -0.9640   12.9270 C   0  0  2  0  0  0  0  0  0  0  0  0
   24.0740   -2.0460   12.6550 C   0  0  2  0  0  0  0  0  0  0  0  0
   24.4960    3.7400   10.5120 C   0  0  0  0  0  0  0  0  0  0  0  0
   25.8560    2.0120    9.3610 C   0  0  0  0  0  0  0  0  0  0  0  0
   26.9550    4.0740   10.2270 C   0  0  0  0  0  0  0  0  0  0  0  0
   24.3420   -2.5670   11.2900 C   0  0  0  0  0  0  0  0  0  0  0  0
   25.4710   -4.2520    9.9480 C   0  0  0  0  0  0  0  0  0  0  0  0
   26.1630   -5.6050   10.2410 C   0  0  0  0  0  0  0  0  0  0  0  0
   27.2130   -5.7040    9.2000 C   0  0  0  0  0  0  0  0  0  0  0  0
   27.4420   -4.4880    8.6190 C   0  0  0  0  0  0  0  0  0  0  0  0
   26.5020   -3.4370    9.1840 C   0  0  0  0  0  0  0  0  0  0  0  0
   27.9430   -6.8940    8.8750 C   0  0  0  0  0  0  0  0  0  0  0  0
   28.9530   -6.7410    7.8840 C   0  0  0  0  0  0  0  0  0  0  0  0
   29.1240   -5.4810    7.2720 C   0  0  0  0  0  0  0  0  0  0  0  0
   28.3910   -4.3080    7.5930 C   0  0  0  0  0  0  0  0  0  0  0  0
   21.7350   -2.1770   12.7850 C   0  0  0  0  0  0  0  0  0  0  0  0
   25.2320   -4.2133   12.0333 H   0  0  0  0  0  0  0  0  0  0  0  0
   26.0992    2.7293   15.2235 H   0  0  0  0  0  0  0  0  0  0  0  0
   26.2121   -2.0855   14.1733 H   0  0  0  0  0  0  0  0  0  0  0  0
   24.3884   -1.4037   15.3703 H   0  0  0  0  0  0  0  0  0  0  0  0
   27.1376    1.8203   11.8621 H   0  0  0  0  0  0  0  0  0  0  0  0
   24.3124    2.6167   12.7852 H   0  0  0  0  0  0  0  0  0  0  0  0
   26.8078    0.9274   13.7476 H   0  0  0  0  0  0  0  0  0  0  0  0
   23.7771    0.3668   13.9478 H   0  0  0  0  0  0  0  0  0  0  0  0
   25.3435   -0.4061   11.9962 H   0  0  0  0  0  0  0  0  0  0  0  0
   24.0764   -2.8559   13.3994 H   0  0  0  0  0  0  0  0  0  0  0  0
   24.3437    4.2692    9.5598 H   0  0  0  0  0  0  0  0  0  0  0  0
   24.4703    4.4624   11.3411 H   0  0  0  0  0  0  0  0  0  0  0  0
   23.6979    2.9955   10.6494 H   0  0  0  0  0  0  0  0  0  0  0  0
   26.8285    1.4985    9.3376 H   0  0  0  0  0  0  0  0  0  0  0  0
   25.6882    2.5233    8.4017 H   0  0  0  0  0  0  0  0  0  0  0  0
   25.0564    1.2754    9.5287 H   0  0  0  0  0  0  0  0  0  0  0  0
   26.9603    4.8192   11.0361 H   0  0  0  0  0  0  0  0  0  0  0  0
   26.7643    4.5763    9.2672 H   0  0  0  0  0  0  0  0  0  0  0  0
   27.9308    3.5677   10.1885 H   0  0  0  0  0  0  0  0  0  0  0  0
   24.5920   -4.4008    9.3037 H   0  0  0  0  0  0  0  0  0  0  0  0
   25.4480   -6.4365   10.1553 H   0  0  0  0  0  0  0  0  0  0  0  0
   26.6084   -5.6066   11.2468 H   0  0  0  0  0  0  0  0  0  0  0  0
   27.0382   -2.7519    9.8572 H   0  0  0  0  0  0  0  0  0  0  0  0
   26.0269   -2.8605    8.3766 H   0  0  0  0  0  0  0  0  0  0  0  0
   27.7396   -7.8460    9.3518 H   0  0  0  0  0  0  0  0  0  0  0  0
   29.5809   -7.5790    7.6038 H   0  0  0  0  0  0  0  0  0  0  0  0
   29.8752   -5.4023    6.4945 H   0  0  0  0  0  0  0  0  0  0  0  0
   28.5475   -3.3588    7.0934 H   0  0  0  0  0  0  0  0  0  0  0  0
   20.8125   -1.5785   12.8118 H   0  0  0  0  0  0  0  0  0  0  0  0
   21.8093   -2.7774   13.7037 H   0  0  0  0  0  0  0  0  0  0  0  0
   21.7135   -2.8448   11.9112 H   0  0  0  0  0  0  0  0  0  0  0  0
  1 18  1  0  0  0  0
  1 28  1  0  0  0  0
  2 29  1  0  0  0  0
  3 30  1  0  0  0  0
  4 31  1  0  0  0  0
  6 27  1  0  0  0  0
  7 14  1  0  0  0  0
  7 15  1  0  0  0  0
  7 16  1  0  0  0  0
  8  7  1  0  0  0  0
  8 32  1  0  0  0  0
  9  8  2  0  0  0  0
  9 33  1  0  0  0  0
 10  2  1  0  0  0  0
 10  9  1  0  0  0  0
 10 34  1  6  0  0  0
 11  4  1  0  0  0  0
 11 10  1  0  0  0  0
 11 35  1  6  0  0  0
 12  3  1  0  0  0  0
 12 11  1  0  0  0  0
 12 36  1  6  0  0  0
 13  6  1  0  0  0  0
 13 12  1  0  0  0  0
 13 17  1  0  0  0  0
 13 37  1  1  0  0  0
 14 38  1  0  0  0  0
 14 39  1  0  0  0  0
 14 40  1  0  0  0  0
 15 41  1  0  0  0  0
 15 42  1  0  0  0  0
 15 43  1  0  0  0  0
 16 44  1  0  0  0  0
 16 45  1  0  0  0  0
 16 46  1  0  0  0  0
 17  1  1  0  0  0  0
 17  5  2  0  0  0  0
 18 19  1  0  0  0  0
 18 22  1  0  0  0  0
 18 47  1  0  0  0  0
 19 20  1  0  0  0  0
 19 48  1  0  0  0  0
 19 49  1  0  0  0  0
 20 21  2  0  0  0  0
 20 23  1  0  0  0  0
 21 22  1  0  0  0  0
 21 26  1  0  0  0  0
 22 50  1  0  0  0  0
 22 51  1  0  0  0  0
 23 24  2  0  0  0  0
 23 52  1  0  0  0  0
 24 25  1  0  0  0  0
 24 53  1  0  0  0  0
 25 26  2  0  0  0  0
 25 54  1  0  0  0  0
 26 55  1  0  0  0  0
 27 56  1  0  0  0  0
 27 57  1  0  0  0  0
 27 58  1  0  0  0  0
M  END
