3pxq_ligand
 OpenBabel08222323353D

 33 35  0  0  0  0  0  0  0  0999 V2000
  104.9440   95.3900   28.9750 C   0  0  0  0  0  0  0  0  0  0  0  0
  103.9580   95.2590   30.0180 C   0  0  0  0  0  0  0  0  0  0  0  0
  103.7660   96.2760   30.9680 C   0  0  0  0  0  0  0  0  0  0  0  0
  104.5490   97.4480   30.9220 C   0  0  0  0  0  0  0  0  0  0  0  0
  105.5420   97.6360   29.9210 C   0  0  0  0  0  0  0  0  0  0  0  0
  106.3200   98.8230   29.9000 C   0  0  0  0  0  0  0  0  0  0  0  0
  107.3100   99.0300   28.9110 C   0  0  0  0  0  0  0  0  0  0  0  0
  107.5410   98.0600   27.9180 C   0  0  0  0  0  0  0  0  0  0  0  0
  105.1300   94.4420   28.0950 N   0  0  0  0  0  0  0  0  0  0  0  0
  107.1630   95.6970   26.5620 S   0  0  0  0  0  0  0  0  0  0  0  0
  106.7920   96.8520   27.8900 C   0  0  0  0  0  0  0  0  0  0  0  0
  105.7630   96.6000   28.9060 C   0  0  0  0  0  0  0  0  0  0  0  0
  104.2520   93.6650   27.5200 C   0  0  0  0  0  0  0  0  0  0  0  0
  102.9390   94.1040   27.1400 C   0  0  0  0  0  0  0  0  0  0  0  0
  102.0440   93.2010   26.5030 C   0  0  0  0  0  0  0  0  0  0  0  0
  102.4440   91.8670   26.2350 C   0  0  0  0  0  0  0  0  0  0  0  0
  103.7360   91.4280   26.6020 C   0  0  0  0  0  0  0  0  0  0  0  0
  104.6380   92.3250   27.2420 C   0  0  0  0  0  0  0  0  0  0  0  0
  105.9730   95.5280   25.7480 O   0  0  0  0  0  1  0  0  0  0  0  0
  107.5590   94.3990   27.0900 O   0  0  0  0  0  1  0  0  0  0  0  0
  108.3760   96.2870   25.6400 O   0  0  0  0  0  1  0  0  0  0  0  0
  103.3542   94.3603   30.0703 H   0  0  0  0  0  0  0  0  0  0  0  0
  103.0132   96.1594   31.7392 H   0  0  0  0  0  0  0  0  0  0  0  0
  104.3909   98.2215   31.6648 H   0  0  0  0  0  0  0  0  0  0  0  0
  106.1528   99.5834   30.6542 H   0  0  0  0  0  0  0  0  0  0  0  0
  107.8950   99.9426   28.9181 H   0  0  0  0  0  0  0  0  0  0  0  0
  108.3001   98.2362   27.1645 H   0  0  0  0  0  0  0  0  0  0  0  0
  106.1087   94.2853   27.8150 H   0  0  0  0  0  0  0  0  0  0  0  0
  102.6299   95.1238   27.3387 H   0  0  0  0  0  0  0  0  0  0  0  0
  101.0516   93.5338   26.2210 H   0  0  0  0  0  0  0  0  0  0  0  0
  101.7579   91.1834   25.7481 H   0  0  0  0  0  0  0  0  0  0  0  0
  104.0406   90.4082   26.3963 H   0  0  0  0  0  0  0  0  0  0  0  0
  105.6284   91.9830   27.5199 H   0  0  0  0  0  0  0  0  0  0  0  0
  1  2  2  0  0  0  0
  1  9  1  0  0  0  0
  1 12  1  0  0  0  0
  2  3  1  0  0  0  0
  2 22  1  0  0  0  0
  3  4  2  0  0  0  0
  3 23  1  0  0  0  0
  4  5  1  0  0  0  0
  4 24  1  0  0  0  0
  5  6  2  0  0  0  0
  5 12  1  0  0  0  0
  6  7  1  0  0  0  0
  6 25  1  0  0  0  0
  7  8  2  0  0  0  0
  7 26  1  0  0  0  0
  8 11  1  0  0  0  0
  8 27  1  0  0  0  0
  9 13  1  0  0  0  0
  9 28  1  0  0  0  0
 10 19  1  0  0  0  0
 10 20  1  0  0  0  0
 10 21  1  0  0  0  0
 11 10  1  0  0  0  0
 11 12  2  0  0  0  0
 13 14  2  0  0  0  0
 13 18  1  0  0  0  0
 14 15  1  0  0  0  0
 14 29  1  0  0  0  0
 15 16  2  0  0  0  0
 15 30  1  0  0  0  0
 16 17  1  0  0  0  0
 16 31  1  0  0  0  0
 17 18  2  0  0  0  0
 17 32  1  0  0  0  0
 18 33  1  0  0  0  0
M  END
