3pxy_ligand
 OpenBabel08222323353D

 28 29  0  0  0  0  0  0  0  0999 V2000
   62.2180   81.5410  -82.3630 N   0  0  0  0  0  0  0  0  0  0  0  0
   63.2220   80.6550  -82.0750 C   0  0  0  0  0  0  0  0  0  0  0  0
   63.3140   80.0940  -80.8500 N   0  0  0  0  0  0  0  0  0  0  0  0
   64.1460   80.3290  -83.0440 N   0  0  0  0  0  0  0  0  0  0  0  0
   64.0650   80.8850  -84.3020 C   0  0  0  0  0  0  0  0  0  0  0  0
   65.0670   80.5150  -85.3490 C   0  0  0  0  0  0  0  0  0  0  0  0
   65.0210   81.0600  -86.7050 C   0  0  0  0  0  0  0  0  0  0  0  0
   64.0340   81.9470  -87.0430 O   0  0  0  0  0  0  0  0  0  0  0  0
   66.0080   80.6540  -87.6650 C   0  0  0  0  0  0  0  0  0  0  0  0
   67.0470   79.7180  -87.2980 C   0  0  0  0  0  0  0  0  0  0  0  0
   67.1310   79.1530  -85.9400 C   0  0  0  0  0  0  0  0  0  0  0  0
   68.1050   78.3130  -85.6710 O   0  0  0  0  0  0  0  0  0  0  0  0
   66.1060   79.5850  -84.9960 C   0  0  0  0  0  0  0  0  0  0  0  0
   63.0500   81.7720  -84.5740 N   0  0  0  0  0  0  0  0  0  0  0  0
   62.1300   82.1070  -83.6200 C   0  0  0  0  0  0  0  0  0  0  0  0
   61.1570   82.9780  -83.9190 N   0  0  0  0  0  0  0  0  0  0  0  0
   69.1080   77.9040  -86.6280 C   0  0  0  0  0  0  0  0  0  0  0  0
   62.6267   80.3332  -80.1211 H   0  0  0  0  0  0  0  0  0  0  0  0
   64.0714   79.4269  -80.6446 H   0  0  0  0  0  0  0  0  0  0  0  0
   63.1860   81.5346  -86.9274 H   0  0  0  0  0  0  0  0  0  0  0  0
   65.9741   81.0522  -88.6727 H   0  0  0  0  0  0  0  0  0  0  0  0
   67.7815   79.4251  -88.0395 H   0  0  0  0  0  0  0  0  0  0  0  0
   66.1283   79.1889  -83.9872 H   0  0  0  0  0  0  0  0  0  0  0  0
   60.4597   83.2359  -83.2061 H   0  0  0  0  0  0  0  0  0  0  0  0
   61.1062   83.3897  -84.8618 H   0  0  0  0  0  0  0  0  0  0  0  0
   69.8040   77.1984  -86.1507 H   0  0  0  0  0  0  0  0  0  0  0  0
   69.6632   78.7870  -86.9773 H   0  0  0  0  0  0  0  0  0  0  0  0
   68.6202   77.4152  -87.4842 H   0  0  0  0  0  0  0  0  0  0  0  0
  1  2  2  0  0  0  0
  1 15  1  0  0  0  0
  2  3  1  0  0  0  0
  2  4  1  0  0  0  0
  3 18  1  0  0  0  0
  3 19  1  0  0  0  0
  4  5  2  0  0  0  0
  5  6  1  0  0  0  0
  5 14  1  0  0  0  0
  6  7  2  0  0  0  0
  6 13  1  0  0  0  0
  7  8  1  0  0  0  0
  7  9  1  0  0  0  0
  8 20  1  0  0  0  0
  9 10  2  0  0  0  0
  9 21  1  0  0  0  0
 10 11  1  0  0  0  0
 10 22  1  0  0  0  0
 11 12  1  0  0  0  0
 11 13  2  0  0  0  0
 12 17  1  0  0  0  0
 13 23  1  0  0  0  0
 14 15  2  0  0  0  0
 15 16  1  0  0  0  0
 16 24  1  0  0  0  0
 16 25  1  0  0  0  0
 17 26  1  0  0  0  0
 17 27  1  0  0  0  0
 17 28  1  0  0  0  0
M  END
