3py1_ligand
 OpenBabel08222323353D

 29 31  0  0  0  0  0  0  0  0999 V2000
  -75.3620  -97.6910   29.6820 N   0  0  0  0  0  0  0  0  0  0  0  0
  -74.2540  -96.9760   29.7320 C   0  0  0  0  0  0  0  0  0  0  0  0
  -74.3340  -95.8890   28.9310 N   0  0  0  0  0  0  0  0  0  0  0  0
  -75.5800  -95.9280   28.3340 C   0  0  0  0  0  0  0  0  0  0  0  0
  -76.1990  -97.0590   28.8180 C   0  0  0  0  0  0  0  0  0  0  0  0
  -77.5510  -97.4300   28.3990 C   0  0  0  0  0  0  0  0  0  0  0  0
  -78.3200  -98.5040   28.7670 C   0  0  0  0  0  0  0  0  0  0  0  0
  -78.0230  -99.5640   29.6760 C   0  0  0  0  0  0  0  0  0  0  0  0
  -77.0040  -99.7570   30.3470 O   0  0  0  0  0  0  0  0  0  0  0  0
  -79.0880 -100.4410   29.7370 N   0  0  0  0  0  0  0  0  0  0  0  0
  -80.0970  -99.9890   28.8850 C   0  0  0  0  0  0  0  0  0  0  0  0
  -81.3820 -100.5480   28.5950 C   0  0  0  0  0  0  0  0  0  0  0  0
  -82.2170  -99.8460   27.6640 C   0  0  0  0  0  0  0  0  0  0  0  0
  -81.8140  -98.6180   27.0200 C   0  0  0  0  0  0  0  0  0  0  0  0
  -82.7100  -98.0280   26.1480 O   0  0  0  0  0  0  0  0  0  0  0  0
  -82.3610  -96.8200   25.4930 C   0  0  0  0  0  0  0  0  0  0  0  0
  -80.5110  -98.1100   27.3460 C   0  0  0  0  0  0  0  0  0  0  0  0
  -79.6690  -98.7930   28.2680 C   0  0  0  0  0  0  0  0  0  0  0  0
  -73.3866  -97.2287   30.3401 H   0  0  0  0  0  0  0  0  0  0  0  0
  -73.6078  -95.1718   28.7928 H   0  0  0  0  0  0  0  0  0  0  0  0
  -75.9892  -95.2100   27.6248 H   0  0  0  0  0  0  0  0  0  0  0  0
  -78.0170  -96.7503   27.6872 H   0  0  0  0  0  0  0  0  0  0  0  0
  -79.1296 -101.2662   30.3003 H   0  0  0  0  0  0  0  0  0  0  0  0
  -81.7123 -101.4687   29.0621 H   0  0  0  0  0  0  0  0  0  0  0  0
  -83.1939 -100.2554   27.4335 H   0  0  0  0  0  0  0  0  0  0  0  0
  -83.1902  -96.5021   24.8438 H   0  0  0  0  0  0  0  0  0  0  0  0
  -81.4592  -96.9804   24.8838 H   0  0  0  0  0  0  0  0  0  0  0  0
  -82.1629  -96.0402   26.2431 H   0  0  0  0  0  0  0  0  0  0  0  0
  -80.1638  -97.1933   26.8833 H   0  0  0  0  0  0  0  0  0  0  0  0
  1  2  2  0  0  0  0
  1  5  1  0  0  0  0
  2  3  1  0  0  0  0
  2 19  1  0  0  0  0
  3  4  1  0  0  0  0
  3 20  1  0  0  0  0
  4  5  2  0  0  0  0
  4 21  1  0  0  0  0
  5  6  1  0  0  0  0
  6  7  2  0  0  0  0
  6 22  1  0  0  0  0
  7  8  1  0  0  0  0
  7 18  1  0  0  0  0
  8  9  2  0  0  0  0
  8 10  1  0  0  0  0
 10 11  1  0  0  0  0
 10 23  1  0  0  0  0
 11 12  2  0  0  0  0
 11 18  1  0  0  0  0
 12 13  1  0  0  0  0
 12 24  1  0  0  0  0
 13 14  2  0  0  0  0
 13 25  1  0  0  0  0
 14 15  1  0  0  0  0
 14 17  1  0  0  0  0
 15 16  1  0  0  0  0
 16 26  1  0  0  0  0
 16 27  1  0  0  0  0
 16 28  1  0  0  0  0
 17 18  2  0  0  0  0
 17 29  1  0  0  0  0
M  END
