3q4b_ligand
 OpenBabel08222323353D

 78 80  0  0  1  0  0  0  0  0999 V2000
   25.3160   -9.1970   -6.3710 C   0  0  0  0  0  0  0  0  0  0  0  0
   25.5350   -8.0720   -7.2880 N   0  3  0  0  0  0  0  0  0  0  0  0
   25.4310  -11.2350  -11.1690 O   0  0  0  0  0  0  0  0  0  0  0  0
   26.2920   -8.4090   -8.5250 C   0  0  2  0  0  0  0  0  0  0  0  0
   26.0060   -9.1650  -10.8360 N   0  0  0  0  0  0  0  0  0  0  0  0
   29.2030   -7.1570  -13.4380 O   0  0  0  0  0  0  0  0  0  0  0  0
   25.5220   -9.3270   -9.4650 C   0  0  0  0  0  0  0  0  0  0  0  0
   26.3380  -10.1480  -12.9240 N   0  0  0  0  0  0  0  0  0  0  0  0
   27.8540   -2.6940  -13.6150 O   0  0  0  0  0  0  0  0  0  0  0  0
   25.9080  -10.2030  -11.6500 C   0  0  0  0  0  0  0  0  0  0  0  0
   27.8940   -4.7900  -12.5890 N   0  0  0  0  0  0  0  0  0  0  0  0
   25.8550   -3.6220  -12.8980 O   0  0  0  0  0  0  0  0  0  0  0  0
   26.9440   -8.9620  -13.5810 C   0  0  0  0  0  0  0  0  0  0  0  0
   28.4120   -9.3260  -13.8840 C   0  0  1  0  0  0  0  0  0  0  0  0
   28.4600  -10.5760  -14.8020 C   0  0  0  0  0  0  0  0  0  0  0  0
   27.6300  -11.7620  -14.2580 C   0  0  0  0  0  0  0  0  0  0  0  0
   26.2140  -11.3350  -13.7920 C   0  0  0  0  0  0  0  0  0  0  0  0
   29.1870   -8.1430  -14.4660 C   0  0  2  0  0  0  0  0  0  0  0  0
   27.6450   -8.9850   -8.1350 C   0  0  0  0  0  0  0  0  0  0  0  0
   28.7560   -8.7410   -9.1500 C   0  0  2  0  0  0  0  0  0  0  0  0
   29.8010   -9.8440   -8.9650 C   0  0  0  0  0  0  0  0  0  0  0  0
   30.8880   -9.6470   -9.8890 O   0  0  0  0  0  0  0  0  0  0  0  0
   31.6330   -8.4820   -9.5280 C   0  0  0  0  0  0  0  0  0  0  0  0
   30.7260   -7.2610   -9.6420 C   0  0  0  0  0  0  0  0  0  0  0  0
   29.4490   -7.4190   -8.8580 C   0  0  0  0  0  0  0  0  0  0  0  0
   29.5600   -5.8650  -13.9650 C   0  0  0  0  0  0  0  0  0  0  0  0
   29.3540   -4.8960  -12.7960 C   0  0  0  0  0  0  0  0  0  0  0  0
   27.2840   -3.6700  -13.0510 C   0  0  0  0  0  0  0  0  0  0  0  0
   30.6190   -8.4440  -14.7940 C   0  0  0  0  0  0  0  0  0  0  0  0
   31.5410   -8.7370  -13.7920 C   0  0  0  0  0  0  0  0  0  0  0  0
   32.8580   -9.0120  -14.1170 C   0  0  0  0  0  0  0  0  0  0  0  0
   33.3250   -8.9860  -15.4220 C   0  0  0  0  0  0  0  0  0  0  0  0
   32.3940   -8.6870  -16.4120 C   0  0  0  0  0  0  0  0  0  0  0  0
   31.0580   -8.4410  -16.1090 C   0  0  0  0  0  0  0  0  0  0  0  0
   25.1110   -2.6210  -13.6230 C   0  0  0  0  0  0  0  0  0  0  0  0
   33.9910   -9.4230  -12.8060 Cl  0  0  0  0  0  0  0  0  0  0  0  0
   24.7518   -8.8498   -5.4929 H   0  0  0  0  0  0  0  0  0  0  0  0
   26.2867   -9.6003   -6.0470 H   0  0  0  0  0  0  0  0  0  0  0  0
   24.7453   -9.9840   -6.8858 H   0  0  0  0  0  0  0  0  0  0  0  0
   26.0469   -7.3591   -6.7922 H   0  0  0  0  0  0  0  0  0  0  0  0
   24.6344   -7.7107   -7.5609 H   0  0  0  0  0  0  0  0  0  0  0  0
   26.4720   -7.4707   -9.0702 H   0  0  0  0  0  0  0  0  0  0  0  0
   26.3976   -8.2991  -11.1472 H   0  0  0  0  0  0  0  0  0  0  0  0
   24.4522   -9.0741   -9.4248 H   0  0  0  0  0  0  0  0  0  0  0  0
   25.6639  -10.3714   -9.1504 H   0  0  0  0  0  0  0  0  0  0  0  0
   27.3785   -5.5126  -12.1284 H   0  0  0  0  0  0  0  0  0  0  0  0
   26.8999   -8.0923  -12.9090 H   0  0  0  0  0  0  0  0  0  0  0  0
   26.4100   -8.7314  -14.5146 H   0  0  0  0  0  0  0  0  0  0  0  0
   28.8942   -9.5931  -12.9321 H   0  0  0  0  0  0  0  0  0  0  0  0
   29.5072  -10.8979  -14.9003 H   0  0  0  0  0  0  0  0  0  0  0  0
   28.0672  -10.2988  -15.7913 H   0  0  0  0  0  0  0  0  0  0  0  0
   28.1640  -12.2031  -13.4034 H   0  0  0  0  0  0  0  0  0  0  0  0
   27.5269  -12.5143  -15.0539 H   0  0  0  0  0  0  0  0  0  0  0  0
   25.5947  -11.0900  -14.6675 H   0  0  0  0  0  0  0  0  0  0  0  0
   25.7460  -12.1568  -13.2302 H   0  0  0  0  0  0  0  0  0  0  0  0
   28.6753   -7.7721  -15.3664 H   0  0  0  0  0  0  0  0  0  0  0  0
   27.5309  -10.0714   -8.0060 H   0  0  0  0  0  0  0  0  0  0  0  0
   27.9480   -8.5321   -7.1795 H   0  0  0  0  0  0  0  0  0  0  0  0
   28.3507   -8.7473  -10.1726 H   0  0  0  0  0  0  0  0  0  0  0  0
   29.3356  -10.8229   -9.1523 H   0  0  0  0  0  0  0  0  0  0  0  0
   30.1869   -9.8124   -7.9354 H   0  0  0  0  0  0  0  0  0  0  0  0
   32.4921   -8.3684  -10.2055 H   0  0  0  0  0  0  0  0  0  0  0  0
   31.9926   -8.5796   -8.4930 H   0  0  0  0  0  0  0  0  0  0  0  0
   30.4733   -7.1063  -10.7013 H   0  0  0  0  0  0  0  0  0  0  0  0
   31.2673   -6.3821   -9.2620 H   0  0  0  0  0  0  0  0  0  0  0  0
   29.6842   -7.3717   -7.7845 H   0  0  0  0  0  0  0  0  0  0  0  0
   28.7679   -6.5962   -9.1208 H   0  0  0  0  0  0  0  0  0  0  0  0
   28.9083   -5.5973  -14.8098 H   0  0  0  0  0  0  0  0  0  0  0  0
   30.6094   -5.8572  -14.2946 H   0  0  0  0  0  0  0  0  0  0  0  0
   29.8388   -5.2866  -11.8891 H   0  0  0  0  0  0  0  0  0  0  0  0
   29.7754   -3.9100  -13.0414 H   0  0  0  0  0  0  0  0  0  0  0  0
   31.2263   -8.7497  -12.7548 H   0  0  0  0  0  0  0  0  0  0  0  0
   34.3632   -9.1884  -15.6593 H   0  0  0  0  0  0  0  0  0  0  0  0
   32.7175   -8.6446  -17.4457 H   0  0  0  0  0  0  0  0  0  0  0  0
   30.3536   -8.2451  -16.9093 H   0  0  0  0  0  0  0  0  0  0  0  0
   24.0399   -2.7232  -13.3944 H   0  0  0  0  0  0  0  0  0  0  0  0
   25.2700   -2.7566  -14.7030 H   0  0  0  0  0  0  0  0  0  0  0  0
   25.4557   -1.6200  -13.3244 H   0  0  0  0  0  0  0  0  0  0  0  0
  1 37  1  0  0  0  0
  1 38  1  0  0  0  0
  1 39  1  0  0  0  0
  2  1  1  0  0  0  0
  2 40  1  0  0  0  0
  2 41  1  0  0  0  0
  4  2  1  0  0  0  0
  4 19  1  0  0  0  0
  4 42  1  6  0  0  0
  5  7  1  0  0  0  0
  5 43  1  0  0  0  0
  6 18  1  0  0  0  0
  7  4  1  0  0  0  0
  7 44  1  0  0  0  0
  7 45  1  0  0  0  0
  8 10  1  0  0  0  0
  8 17  1  0  0  0  0
 10  3  2  0  0  0  0
 10  5  1  0  0  0  0
 11 28  1  0  0  0  0
 11 46  1  0  0  0  0
 12 35  1  0  0  0  0
 13  8  1  0  0  0  0
 13 47  1  0  0  0  0
 13 48  1  0  0  0  0
 14 13  1  0  0  0  0
 14 15  1  0  0  0  0
 14 49  1  1  0  0  0
 15 16  1  0  0  0  0
 15 50  1  0  0  0  0
 15 51  1  0  0  0  0
 16 17  1  0  0  0  0
 16 52  1  0  0  0  0
 16 53  1  0  0  0  0
 17 54  1  0  0  0  0
 17 55  1  0  0  0  0
 18 14  1  0  0  0  0
 18 29  1  0  0  0  0
 18 56  1  6  0  0  0
 19 20  1  0  0  0  0
 19 57  1  0  0  0  0
 19 58  1  0  0  0  0
 20 21  1  0  0  0  0
 20 25  1  0  0  0  0
 20 59  1  6  0  0  0
 21 22  1  0  0  0  0
 21 60  1  0  0  0  0
 21 61  1  0  0  0  0
 22 23  1  0  0  0  0
 23 62  1  0  0  0  0
 23 63  1  0  0  0  0
 24 23  1  0  0  0  0
 24 64  1  0  0  0  0
 24 65  1  0  0  0  0
 25 24  1  0  0  0  0
 25 66  1  0  0  0  0
 25 67  1  0  0  0  0
 26  6  1  0  0  0  0
 26 27  1  0  0  0  0
 26 68  1  0  0  0  0
 26 69  1  0  0  0  0
 27 11  1  0  0  0  0
 27 70  1  0  0  0  0
 27 71  1  0  0  0  0
 28  9  2  0  0  0  0
 28 12  1  0  0  0  0
 29 30  2  0  0  0  0
 29 34  1  0  0  0  0
 30 31  1  0  0  0  0
 30 72  1  0  0  0  0
 31 32  2  0  0  0  0
 31 36  1  0  0  0  0
 32 33  1  0  0  0  0
 32 73  1  0  0  0  0
 33 34  2  0  0  0  0
 33 74  1  0  0  0  0
 34 75  1  0  0  0  0
 35 76  1  0  0  0  0
 35 77  1  0  0  0  0
 35 78  1  0  0  0  0
M  CHG  1   2   1
M  END
