3q4c_ligand
 OpenBabel08222323353D

 44 54  0  0  1  0  0  0  0  0999 V2000
  -20.3540   12.1760   -0.1010 O   0  0  0  0  0  0  0  0  0  0  0  0
  -13.0590    9.8510   -1.6000 Cl  0  0  0  0  0  0  0  0  0  0  0  0
  -16.0220   10.9670    0.3480 C   0  0  0  0  0  0  0  0  0  0  0  0
  -14.9000   11.7210    0.0210 N   0  0  0  0  0  0  0  0  0  0  0  0
  -20.0580    7.9660    1.6330 O   0  0  0  0  0  0  0  0  0  0  0  0
  -15.4080   12.9740   -0.4950 C   0  0  0  0  0  0  0  0  0  0  0  0
  -10.1500    8.3500    1.2960 O   0  5  0  0  0  0  0  0  0  0  0  0
  -14.7250   14.1570   -1.0000 C   0  0  0  0  0  0  0  0  0  0  0  0
   -9.3480    9.8100   -0.1180 O   0  0  0  0  0  0  0  0  0  0  0  0
  -15.5360   15.2670   -1.4510 C   0  0  0  0  0  0  0  0  0  0  0  0
  -16.9780   15.2100   -1.4040 C   0  0  0  0  0  0  0  0  0  0  0  0
  -17.6640   14.0290   -0.9010 C   0  0  0  0  0  0  0  0  0  0  0  0
  -16.8710   12.9070   -0.4460 C   0  0  0  0  0  0  0  0  0  0  0  0
  -17.2590   11.6310    0.0880 C   0  0  0  0  0  0  0  0  0  0  0  0
  -18.4620   10.8120    0.4410 C   0  0  0  0  0  0  0  0  0  0  0  0
  -19.8440   11.0860    0.3430 C   0  0  0  0  0  0  0  0  0  0  0  0
  -20.5970   10.0450    0.7810 N   0  0  0  0  0  0  0  0  0  0  0  0
  -19.6970    9.1040    1.1600 C   0  0  0  0  0  0  0  0  0  0  0  0
  -18.3540    9.4820    0.9880 C   0  0  2  0  0  3  0  0  0  0  0  0
  -17.0410    8.8480    1.2360 C   0  0  0  0  0  0  0  0  0  0  0  0
  -16.7520    7.5300    1.7760 C   0  0  0  0  0  0  0  0  0  0  0  0
  -15.3760    7.0940    1.9370 C   0  0  0  0  0  0  0  0  0  0  0  0
  -14.2660    7.9450    1.5710 C   0  0  0  0  0  0  0  0  0  0  0  0
  -14.5260    9.2510    1.0420 N   0  0  0  0  0  0  0  0  0  0  0  0
  -15.8590    9.6570    0.8880 C   0  0  0  0  0  0  0  0  0  0  0  0
  -15.0940    5.7310    2.4940 C   0  0  0  0  0  0  0  0  0  0  0  0
  -11.3770   10.3930    1.2350 C   0  0  0  0  0  0  0  0  0  0  0  0
  -11.4920   11.6880    0.6580 C   0  0  0  0  0  0  0  0  0  0  0  0
  -12.5130   12.5520    1.0420 C   0  0  0  0  0  0  0  0  0  0  0  0
  -13.4610   12.1470    2.0160 C   0  0  0  0  0  0  0  0  0  0  0  0
  -13.3600   10.8920    2.6070 C   0  0  0  0  0  0  0  0  0  0  0  0
  -12.3290   10.0060    2.2170 C   0  0  0  0  0  0  0  0  0  0  0  0
  -10.2680    9.4700    0.8090 C   0  0  0  0  0  0  0  0  0  0  0  0
  -13.3560   10.6710    0.4310 Ru  0  0  0  0  0  0  0  0  0  0  0  0
  -13.6367   14.2047   -1.0370 H   0  0  0  0  0  0  0  0  0  0  0  0
  -15.0489   16.1638   -1.8337 H   0  0  0  0  0  0  0  0  0  0  0  0
  -17.5610   16.0635   -1.7501 H   0  0  0  0  0  0  0  0  0  0  0  0
  -18.7528   13.9903   -0.8676 H   0  0  0  0  0  0  0  0  0  0  0  0
  -21.6145    9.9840    0.8171 H   0  0  0  0  0  0  0  0  0  0  0  0
  -17.5694    6.8675    2.0607 H   0  0  0  0  0  0  0  0  0  0  0  0
  -13.2409    7.5963    1.6963 H   0  0  0  0  0  0  0  0  0  0  0  0
  -15.5197    5.6535    3.4944 H   0  0  0  0  0  0  0  0  0  0  0  0
  -15.5417    4.9760    1.8477 H   0  0  0  0  0  0  0  0  0  0  0  0
  -14.0162    5.5759    2.5434 H   0  0  0  0  0  0  0  0  0  0  0  0
  3 14  1  0  0  0  0
  4  3  1  0  0  0  0
  4  6  1  0  0  0  0
  6  8  2  0  0  0  0
  6 13  1  0  0  0  0
  8 10  1  0  0  0  0
  8 35  1  0  0  0  0
 10 11  2  0  0  0  0
 10 36  1  0  0  0  0
 11 37  1  0  0  0  0
 12 11  1  0  0  0  0
 12 38  1  0  0  0  0
 13 12  2  0  0  0  0
 13 14  1  0  0  0  0
 14 15  2  0  0  0  0
 15 16  1  0  0  0  0
 16  1  2  0  0  0  0
 16 17  1  0  0  0  0
 17 39  1  0  0  0  0
 18  5  2  0  0  0  0
 18 17  1  0  0  0  0
 19 15  1  1  0  0  0
 19 18  1  0  0  0  0
 20 19  1  0  0  0  0
 20 21  2  0  0  0  0
 21 40  1  0  0  0  0
 22 21  1  0  0  0  0
 22 26  1  0  0  0  0
 23 22  2  0  0  0  0
 23 41  1  0  0  0  0
 24 23  1  0  0  0  0
 24 25  1  0  0  0  0
 25  3  2  0  0  0  0
 25 20  1  0  0  0  0
 26 42  1  0  0  0  0
 26 43  1  0  0  0  0
 26 44  1  0  0  0  0
 27 32  1  0  0  0  0
 27 33  1  0  0  0  0
 28 27  2  0  0  0  0
 28 29  1  0  0  0  0
 29 30  2  0  0  0  0
 30 31  1  0  0  0  0
 32 31  2  0  0  0  0
 33  7  1  0  0  0  0
 33  9  2  0  0  0  0
 34  2  1  0  0  0  0
 34  4  1  0  0  0  0
 34 24  1  0  0  0  0
 34 28  1  0  0  0  0
 34 29  1  0  0  0  0
 34 30  1  0  0  0  0
 34 31  1  0  0  0  0
 34 32  1  0  0  0  0
M  CHG  1   7  -1
M  END
