3q5u_ligand
 OpenBabel08222323353D

143144  0  0  1  0  0  0  0  0999 V2000
   80.7290   50.5170   32.6220 N   0  3  0  0  0  0  0  0  0  0  0  0
   79.9820   49.9460   33.7300 C   0  0  0  0  0  0  0  0  0  0  0  0
   80.6730   48.7480   34.3610 C   0  0  0  0  0  0  0  0  0  0  0  0
   81.4820   48.0750   33.7150 O   0  0  0  0  0  0  0  0  0  0  0  0
   80.3670   48.4820   35.6300 N   0  0  0  0  0  0  0  0  0  0  0  0
   79.4610   49.3200   36.4130 C   0  0  2  0  0  0  0  0  0  0  0  0
   80.2390   50.5120   36.9710 C   0  0  0  0  0  0  0  0  0  0  0  0
   81.2660   50.3330   37.6360 O   0  0  0  0  0  0  0  0  0  0  0  0
   78.8410   48.5120   37.5600 C   0  0  0  0  0  0  0  0  0  0  0  0
   78.3270   47.2670   37.1050 O   0  0  0  0  0  0  0  0  0  0  0  0
   79.7510   51.7240   36.7020 N   0  0  0  0  0  0  0  0  0  0  0  0
   80.5000   52.9400   37.0340 C   0  0  2  0  0  0  0  0  0  0  0  0
   79.9070   53.8110   38.1470 C   0  0  0  0  0  0  0  0  0  0  0  0
   78.8720   54.4650   37.9640 O   0  0  0  0  0  0  0  0  0  0  0  0
   80.7500   53.8200   35.7820 C   0  0  2  0  0  0  0  0  0  0  0  0
   81.5370   53.0300   34.7280 C   0  0  0  0  0  0  0  0  0  0  0  0
   81.4840   55.1090   36.1680 C   0  0  0  0  0  0  0  0  0  0  0  0
   82.0920   53.8740   33.5840 C   0  0  0  0  0  0  0  0  0  0  0  0
   80.6310   53.9090   39.2430 N   0  0  0  0  0  0  0  0  0  0  0  0
   80.4060   54.9450   40.2490 C   0  0  2  0  0  0  0  0  0  0  0  0
   80.7920   56.3370   39.7710 C   0  0  0  0  0  0  0  0  0  0  0  0
   81.8900   56.5610   39.3490 O   0  0  0  0  0  0  0  0  0  0  0  0
   81.0930   54.5800   41.5870 C   0  0  2  0  0  0  0  0  0  0  0  0
   80.7130   53.1680   41.9800 C   0  0  0  0  0  0  0  0  0  0  0  0
   80.6730   55.4800   42.7080 C   0  0  0  0  0  0  0  0  0  0  0  0
   79.5850   53.1180   42.8790 C   0  0  0  0  0  0  0  0  0  0  0  0
   79.8610   57.2550   39.9090 N   0  0  0  0  0  0  0  0  0  0  0  0
   80.1500   58.6490   39.7630 C   0  0  2  0  0  0  0  0  0  0  0  0
   79.8140   59.3810   41.0280 C   0  0  0  0  0  0  0  0  0  0  0  0
   78.6930   59.3810   41.4400 O   0  0  0  0  0  0  0  0  0  0  0  0
   79.3550   59.1730   38.5910 C   0  0  0  0  0  0  0  0  0  0  0  0
   79.8070   58.5620   37.3030 C   0  0  0  0  0  0  0  0  0  0  0  0
   78.8360   58.8120   36.2230 C   0  0  0  0  0  0  0  0  0  0  0  0
   77.4890   58.5860   36.6830 N   0  0  0  0  0  0  0  0  0  0  0  0
   76.5550   59.4990   36.6360 C   0  0  0  0  0  3  0  0  0  0  0  0
   76.8440   60.6690   36.1600 N   0  0  0  0  0  0  0  0  0  0  0  0
   75.3490   59.2540   37.0720 N   0  0  0  0  0  0  0  0  0  0  0  0
   80.8130   60.0050   41.6340 N   0  0  0  0  0  0  0  0  0  0  0  0
   80.6480   61.1220   42.5480 C   0  0  2  0  0  0  0  0  0  0  0  0
   80.3970   62.4630   41.8420 C   0  0  0  0  0  0  0  0  0  0  0  0
   80.6560   62.5790   40.6730 O   0  0  0  0  0  0  0  0  0  0  0  0
   81.8470   61.1660   43.4810 C   0  0  0  0  0  0  0  0  0  0  0  0
   82.4660   59.8190   43.7700 C   0  0  0  0  0  0  0  0  0  0  0  0
   83.1220   59.7870   45.1270 C   0  0  0  0  0  0  0  0  0  0  0  0
   83.4960   58.3970   45.5350 C   0  0  0  0  0  0  0  0  0  0  0  0
   83.3880   58.1420   46.9850 N   0  3  0  0  0  0  0  0  0  0  0  0
   79.7910   63.4310   42.5200 N   0  0  0  0  0  0  0  0  0  0  0  0
   80.4390   64.5790   43.1680 C   0  0  2  0  0  0  0  0  0  0  0  0
   79.3270   65.3010   43.8800 C   0  0  0  0  0  0  0  0  0  0  0  0
   78.3650   64.7050   44.2520 O   0  0  0  0  0  0  0  0  0  0  0  0
   81.1430   65.5910   42.2520 C   0  0  0  0  0  0  0  0  0  0  0  0
   80.8030   65.6790   40.7800 C   0  0  0  0  0  0  0  0  0  0  0  0
   81.1300   64.7860   39.8140 C   0  0  0  0  0  0  0  0  0  0  0  0
   80.1590   66.7700   40.1050 C   0  0  0  0  0  0  0  0  0  0  0  0
   80.6980   65.2220   38.5940 N   0  0  0  0  0  0  0  0  0  0  0  0
   80.1040   66.4440   38.7470 C   0  0  0  0  0  0  0  0  0  0  0  0
   79.6180   67.9850   40.5230 C   0  0  0  0  0  0  0  0  0  0  0  0
   79.5190   67.2850   37.8030 C   0  0  0  0  0  0  0  0  0  0  0  0
   79.0420   68.8050   39.5990 C   0  0  0  0  0  0  0  0  0  0  0  0
   78.9920   68.4580   38.2560 C   0  0  0  0  0  0  0  0  0  0  0  0
   79.4640   66.6020   44.0810 N   0  0  0  0  0  0  0  0  0  0  0  0
   78.2670   67.3860   43.8850 C   0  0  2  0  0  0  0  0  0  0  0  0
   78.2410   68.6550   44.6890 C   0  0  0  0  0  0  0  0  0  0  0  0
   78.2802   69.7764   44.1159 O   0  5  0  0  0  0  0  0  0  0  0  0
   77.0500   66.5700   44.2080 C   0  0  0  0  0  0  0  0  0  0  0  0
   75.8420   67.1310   43.5800 C   0  0  0  0  0  0  0  0  0  0  0  0
   74.9660   66.4150   43.1510 O   0  0  0  0  0  0  0  0  0  0  0  0
   75.7960   68.4300   43.4910 N   0  0  0  0  0  0  0  0  0  0  0  0
   78.1795   68.5973   45.9462 O   0  0  0  0  0  0  0  0  0  0  0  0
   80.2235   51.3040   32.2462 H   0  0  0  0  0  0  0  0  0  0  0  0
   80.8490   49.8205   31.9033 H   0  0  0  0  0  0  0  0  0  0  0  0
   81.6325   50.8227   32.9480 H   0  0  0  0  0  0  0  0  0  0  0  0
   78.9964   49.6268   33.3602 H   0  0  0  0  0  0  0  0  0  0  0  0
   79.8515   50.7204   34.5002 H   0  0  0  0  0  0  0  0  0  0  0  0
   80.7730   47.6776   36.0637 H   0  0  0  0  0  0  0  0  0  0  0  0
   78.6558   49.6877   35.7600 H   0  0  0  0  0  0  0  0  0  0  0  0
   78.0215   49.0952   38.0053 H   0  0  0  0  0  0  0  0  0  0  0  0
   79.6123   48.3230   38.3212 H   0  0  0  0  0  0  0  0  0  0  0  0
   77.9516   46.7937   37.8382 H   0  0  0  0  0  0  0  0  0  0  0  0
   78.8554   51.8050   36.2646 H   0  0  0  0  0  0  0  0  0  0  0  0
   81.4818   52.6000   37.3952 H   0  0  0  0  0  0  0  0  0  0  0  0
   79.7761   54.0950   35.3510 H   0  0  0  0  0  0  0  0  0  0  0  0
   80.8681   52.2691   34.2996 H   0  0  0  0  0  0  0  0  0  0  0  0
   82.3814   52.5352   35.2301 H   0  0  0  0  0  0  0  0  0  0  0  0
   80.8975   55.6528   36.9231 H   0  0  0  0  0  0  0  0  0  0  0  0
   81.6092   55.7408   35.2763 H   0  0  0  0  0  0  0  0  0  0  0  0
   82.4720   54.8586   36.5817 H   0  0  0  0  0  0  0  0  0  0  0  0
   82.6376   53.2265   32.8819 H   0  0  0  0  0  0  0  0  0  0  0  0
   82.7759   54.6350   33.9880 H   0  0  0  0  0  0  0  0  0  0  0  0
   81.2626   54.3688   33.0575 H   0  0  0  0  0  0  0  0  0  0  0  0
   81.3653   53.2469   39.3930 H   0  0  0  0  0  0  0  0  0  0  0  0
   79.3232   54.9693   40.4411 H   0  0  0  0  0  0  0  0  0  0  0  0
   82.1829   54.6499   41.4559 H   0  0  0  0  0  0  0  0  0  0  0  0
   81.5759   52.6971   42.4736 H   0  0  0  0  0  0  0  0  0  0  0  0
   80.4602   52.6063   41.0687 H   0  0  0  0  0  0  0  0  0  0  0  0
   80.9327   56.5198   42.4603 H   0  0  0  0  0  0  0  0  0  0  0  0
   81.1918   55.1825   43.6312 H   0  0  0  0  0  0  0  0  0  0  0  0
   79.5860   55.3988   42.8558 H   0  0  0  0  0  0  0  0  0  0  0  0
   79.3592   52.0701   43.1260 H   0  0  0  0  0  0  0  0  0  0  0  0
   78.7102   53.5774   42.3956 H   0  0  0  0  0  0  0  0  0  0  0  0
   79.8259   53.6682   43.8005 H   0  0  0  0  0  0  0  0  0  0  0  0
   78.9259   56.9716   40.1217 H   0  0  0  0  0  0  0  0  0  0  0  0
   81.2225   58.7788   39.5559 H   0  0  0  0  0  0  0  0  0  0  0  0
   79.4819   60.2641   38.5326 H   0  0  0  0  0  0  0  0  0  0  0  0
   78.2922   58.9352   38.7454 H   0  0  0  0  0  0  0  0  0  0  0  0
   79.9183   57.4764   37.4408 H   0  0  0  0  0  0  0  0  0  0  0  0
   80.7770   58.9971   37.0207 H   0  0  0  0  0  0  0  0  0  0  0  0
   79.0486   58.1344   35.3830 H   0  0  0  0  0  0  0  0  0  0  0  0
   78.9318   59.8548   35.8862 H   0  0  0  0  0  0  0  0  0  0  0  0
   77.2510   57.6605   37.0673 H   0  0  0  0  0  0  0  0  0  0  0  0
   76.1199   61.4002   36.1157 H   0  0  0  0  0  0  0  0  0  0  0  0
   77.7978   60.8679   35.8260 H   0  0  0  0  0  0  0  0  0  0  0  0
   75.1172   58.3246   37.4508 H   0  0  0  0  0  0  0  0  0  0  0  0
   74.6294   59.9901   37.0372 H   0  0  0  0  0  0  0  0  0  0  0  0
   81.7427   59.6859   41.4501 H   0  0  0  0  0  0  0  0  0  0  0  0
   79.7575   60.9174   43.1604 H   0  0  0  0  0  0  0  0  0  0  0  0
   81.5236   61.6072   44.4353 H   0  0  0  0  0  0  0  0  0  0  0  0
   82.6155   61.8059   43.0228 H   0  0  0  0  0  0  0  0  0  0  0  0
   83.2237   59.6027   43.0025 H   0  0  0  0  0  0  0  0  0  0  0  0
   81.6797   59.0505   43.7359 H   0  0  0  0  0  0  0  0  0  0  0  0
   82.4229   60.1992   45.8695 H   0  0  0  0  0  0  0  0  0  0  0  0
   84.0313   60.4052   45.0968 H   0  0  0  0  0  0  0  0  0  0  0  0
   84.5372   58.2162   45.2297 H   0  0  0  0  0  0  0  0  0  0  0  0
   82.8327   57.6934   45.0107 H   0  0  0  0  0  0  0  0  0  0  0  0
   83.6552   57.1897   47.1795 H   0  0  0  0  0  0  0  0  0  0  0  0
   82.4366   58.2915   47.2825 H   0  0  0  0  0  0  0  0  0  0  0  0
   83.9985   58.7706   47.4831 H   0  0  0  0  0  0  0  0  0  0  0  0
   78.7957   63.3726   42.5969 H   0  0  0  0  0  0  0  0  0  0  0  0
   81.1779   64.2023   43.8905 H   0  0  0  0  0  0  0  0  0  0  0  0
   82.2191   65.3708   42.3116 H   0  0  0  0  0  0  0  0  0  0  0  0
   80.9482   66.5864   42.6778 H   0  0  0  0  0  0  0  0  0  0  0  0
   81.6625   63.8519   39.9866 H   0  0  0  0  0  0  0  0  0  0  0  0
   80.8025   64.7136   37.7043 H   0  0  0  0  0  0  0  0  0  0  0  0
   79.6549   68.2733   41.5673 H   0  0  0  0  0  0  0  0  0  0  0  0
   79.4843   67.0181   36.7529 H   0  0  0  0  0  0  0  0  0  0  0  0
   78.6140   69.7479   39.9197 H   0  0  0  0  0  0  0  0  0  0  0  0
   78.5232   69.1351   37.5512 H   0  0  0  0  0  0  0  0  0  0  0  0
   80.3350   67.0132   44.3497 H   0  0  0  0  0  0  0  0  0  0  0  0
   78.2247   67.6636   42.8215 H   0  0  0  0  0  0  0  0  0  0  0  0
   76.9105   66.5526   45.2990 H   0  0  0  0  0  0  0  0  0  0  0  0
   77.1999   65.5439   43.8411 H   0  0  0  0  0  0  0  0  0  0  0  0
   75.0030   68.8749   43.0748 H   0  0  0  0  0  0  0  0  0  0  0  0
   76.5537   68.9822   43.8389 H   0  0  0  0  0  0  0  0  0  0  0  0
  1  2  1  0  0  0  0
  1 70  1  0  0  0  0
  1 71  1  0  0  0  0
  1 72  1  0  0  0  0
  2  3  1  0  0  0  0
  2 73  1  0  0  0  0
  2 74  1  0  0  0  0
  3  4  2  0  0  0  0
  3  5  1  0  0  0  0
  5  6  1  0  0  0  0
  5 75  1  0  0  0  0
  6  7  1  0  0  0  0
  6  9  1  0  0  0  0
  6 76  1  6  0  0  0
  7  8  2  0  0  0  0
  7 11  1  0  0  0  0
  9 10  1  0  0  0  0
  9 77  1  0  0  0  0
  9 78  1  0  0  0  0
 10 79  1  0  0  0  0
 11 12  1  0  0  0  0
 11 80  1  0  0  0  0
 12 13  1  0  0  0  0
 12 15  1  0  0  0  0
 12 81  1  1  0  0  0
 13 14  2  0  0  0  0
 13 19  1  0  0  0  0
 15 16  1  0  0  0  0
 15 17  1  0  0  0  0
 15 82  1  6  0  0  0
 16 18  1  0  0  0  0
 16 83  1  0  0  0  0
 16 84  1  0  0  0  0
 17 85  1  0  0  0  0
 17 86  1  0  0  0  0
 17 87  1  0  0  0  0
 18 88  1  0  0  0  0
 18 89  1  0  0  0  0
 18 90  1  0  0  0  0
 19 20  1  0  0  0  0
 19 91  1  0  0  0  0
 20 21  1  0  0  0  0
 20 23  1  0  0  0  0
 20 92  1  1  0  0  0
 21 22  2  0  0  0  0
 21 27  1  0  0  0  0
 23 24  1  0  0  0  0
 23 25  1  0  0  0  0
 23 93  1  6  0  0  0
 24 26  1  0  0  0  0
 24 94  1  0  0  0  0
 24 95  1  0  0  0  0
 25 96  1  0  0  0  0
 25 97  1  0  0  0  0
 25 98  1  0  0  0  0
 26 99  1  0  0  0  0
 26100  1  0  0  0  0
 26101  1  0  0  0  0
 27 28  1  0  0  0  0
 27102  1  0  0  0  0
 28 29  1  0  0  0  0
 28 31  1  0  0  0  0
 28103  1  6  0  0  0
 29 30  2  0  0  0  0
 29 38  1  0  0  0  0
 31 32  1  0  0  0  0
 31104  1  0  0  0  0
 31105  1  0  0  0  0
 32 33  1  0  0  0  0
 32106  1  0  0  0  0
 32107  1  0  0  0  0
 33 34  1  0  0  0  0
 33108  1  0  0  0  0
 33109  1  0  0  0  0
 34 35  1  0  0  0  0
 34110  1  0  0  0  0
 35 36  1  0  0  0  0
 35 37  1  0  0  0  0
 36111  1  0  0  0  0
 36112  1  0  0  0  0
 37113  1  0  0  0  0
 37114  1  0  0  0  0
 38 39  1  0  0  0  0
 38115  1  0  0  0  0
 39 40  1  0  0  0  0
 39 42  1  0  0  0  0
 39116  1  1  0  0  0
 40 41  2  0  0  0  0
 40 47  1  0  0  0  0
 42 43  1  0  0  0  0
 42117  1  0  0  0  0
 42118  1  0  0  0  0
 43 44  1  0  0  0  0
 43119  1  0  0  0  0
 43120  1  0  0  0  0
 44 45  1  0  0  0  0
 44121  1  0  0  0  0
 44122  1  0  0  0  0
 45 46  1  0  0  0  0
 45123  1  0  0  0  0
 45124  1  0  0  0  0
 46125  1  0  0  0  0
 46126  1  0  0  0  0
 46127  1  0  0  0  0
 47 48  1  0  0  0  0
 47128  1  0  0  0  0
 48 49  1  0  0  0  0
 48 51  1  0  0  0  0
 48129  1  1  0  0  0
 49 50  2  0  0  0  0
 49 61  1  0  0  0  0
 51 52  1  0  0  0  0
 51130  1  0  0  0  0
 51131  1  0  0  0  0
 52 53  2  0  0  0  0
 52 54  1  0  0  0  0
 53 55  1  0  0  0  0
 53132  1  0  0  0  0
 54 56  2  0  0  0  0
 54 57  1  0  0  0  0
 55 56  1  0  0  0  0
 55133  1  0  0  0  0
 56 58  1  0  0  0  0
 57 59  2  0  0  0  0
 57134  1  0  0  0  0
 58 60  2  0  0  0  0
 58135  1  0  0  0  0
 59 60  1  0  0  0  0
 59136  1  0  0  0  0
 60137  1  0  0  0  0
 61 62  1  0  0  0  0
 61138  1  0  0  0  0
 62 63  1  0  0  0  0
 62 65  1  0  0  0  0
 62139  1  6  0  0  0
 63 64  1  0  0  0  0
 63 69  2  0  0  0  0
 65 66  1  0  0  0  0
 65140  1  0  0  0  0
 65141  1  0  0  0  0
 66 67  2  0  0  0  0
 66 68  1  0  0  0  0
 68142  1  0  0  0  0
 68143  1  0  0  0  0
M  CHG  3   1   1  46   1  64  -1
M  END
