3q7p_ligand
 OpenBabel08222323353D

 46 48  0  0  1  0  0  0  0  0999 V2000
   -5.4190   -2.4040    1.2440 P   0  0  0  0  0  0  0  0  0  0  0  0
   -4.7080   -2.0810   -0.0550 O   0  0  0  0  0  1  0  0  0  0  0  0
   -6.6960   -3.1790    1.0720 O   0  0  0  0  0  1  0  0  0  0  0  0
   -5.5480   -1.1020    2.0010 O   0  0  0  0  0  0  0  0  0  0  0  0
   -4.4770   -3.3270    2.1350 N   0  0  0  0  0  0  0  0  0  0  0  0
   -3.1280   -2.7640    2.7450 P   0  0  1  0  0  0  0  0  0  0  0  0
   -2.0440   -2.8330    1.7440 O   0  0  0  0  0  1  0  0  0  0  0  0
   -3.4530   -1.4500    3.3450 O   0  0  0  0  0  0  0  0  0  0  0  0
   -2.6560   -3.7040    3.8500 O   0  0  0  0  0  0  0  0  0  0  0  0
   -2.9570   -3.5330    5.3390 P   0  0  2  0  0  0  0  0  0  0  0  0
   -4.4110   -3.2810    5.4800 O   0  0  0  0  0  1  0  0  0  0  0  0
   -2.0110   -2.5700    5.9380 O   0  0  0  0  0  0  0  0  0  0  0  0
   -2.6720   -4.9390    5.9940 O   0  0  0  0  0  0  0  0  0  0  0  0
   -3.1800   -6.1440    5.4230 C   0  0  0  0  0  0  0  0  0  0  0  0
   -3.1010   -7.2710    6.4410 C   0  0  1  0  0  0  0  0  0  0  0  0
   -1.7240   -7.7360    6.5650 O   0  0  0  0  0  0  0  0  0  0  0  0
   -3.5370   -6.8880    7.8540 C   0  0  1  0  0  0  0  0  0  0  0  0
   -4.1600   -7.9970    8.4870 O   0  0  0  0  0  0  0  0  0  0  0  0
   -2.2140   -6.5550    8.5370 C   0  0  1  0  0  0  0  0  0  0  0  0
   -2.2460   -6.7750    9.9310 O   0  0  0  0  0  0  0  0  0  0  0  0
   -1.2560   -7.5460    7.8900 C   0  0  2  0  0  0  0  0  0  0  0  0
    0.1290   -7.0710    7.8670 N   0  0  0  0  0  0  0  0  0  0  0  0
    0.5760   -5.8510    7.4180 C   0  0  0  0  0  0  0  0  0  0  0  0
    1.8670   -5.6920    7.5480 N   0  0  0  0  0  0  0  0  0  0  0  0
    2.3130   -6.8740    8.1260 C   0  0  0  0  0  0  0  0  0  0  0  0
    3.6240   -7.2850    8.4990 C   0  0  0  0  0  0  0  0  0  0  0  0
    4.6980   -6.6790    8.3760 O   0  0  0  0  0  0  0  0  0  0  0  0
    3.6290   -8.5570    9.0580 N   0  0  0  0  0  0  0  0  0  0  0  0
    2.5100   -9.3250    9.2510 C   0  0  2  0  0  3  0  0  0  0  0  0
    2.7180  -10.5130    9.8350 N   0  0  0  0  0  0  0  0  0  0  0  0
    1.2820   -8.9670    8.8850 N   0  0  0  0  0  0  0  0  0  0  0  0
    1.2520   -7.7330    8.3300 C   0  0  0  0  0  0  0  0  0  0  0  0
   -4.7404   -4.2753    2.3121 H   0  0  0  0  0  0  0  0  0  0  0  0
   -2.5825   -6.4089    4.5382 H   0  0  0  0  0  0  0  0  0  0  0  0
   -4.2283   -5.9935    5.1259 H   0  0  0  0  0  0  0  0  0  0  0  0
   -3.7393   -8.0932    6.0853 H   0  0  0  0  0  0  0  0  0  0  0  0
   -4.2176   -6.0238    7.8488 H   0  0  0  0  0  0  0  0  0  0  0  0
   -3.5453   -8.7198    8.5339 H   0  0  0  0  0  0  0  0  0  0  0  0
   -1.9188   -5.5147    8.3354 H   0  0  0  0  0  0  0  0  0  0  0  0
   -1.4014   -6.5531   10.3050 H   0  0  0  0  0  0  0  0  0  0  0  0
   -1.2906   -8.4978    8.4403 H   0  0  0  0  0  0  0  0  0  0  0  0
   -0.0807   -5.0918    6.9956 H   0  0  0  0  0  0  0  0  0  0  0  0
    4.5096   -8.9386    9.3389 H   0  0  0  0  0  0  0  0  0  0  0  0
    1.9247  -11.1454   10.0128 H   0  0  0  0  0  0  0  0  0  0  0  0
    3.6712  -10.7937   10.1061 H   0  0  0  0  0  0  0  0  0  0  0  0
    0.4497   -9.5608    9.0097 H   0  0  0  0  0  0  0  0  0  0  0  0
  1  2  1  0  0  0  0
  1  3  1  0  0  0  0
  1  4  2  0  0  0  0
  1  5  1  0  0  0  0
  5  6  1  0  0  0  0
  5 33  1  0  0  0  0
  6  7  1  6  0  0  0
  6  8  2  0  0  0  0
  6  9  1  0  0  0  0
  9 10  1  0  0  0  0
 10 11  1  1  0  0  0
 10 12  2  0  0  0  0
 10 13  1  0  0  0  0
 13 14  1  0  0  0  0
 14 15  1  0  0  0  0
 14 34  1  0  0  0  0
 14 35  1  0  0  0  0
 15 16  1  0  0  0  0
 15 17  1  0  0  0  0
 15 36  1  6  0  0  0
 16 21  1  0  0  0  0
 17 18  1  0  0  0  0
 17 19  1  0  0  0  0
 17 37  1  6  0  0  0
 18 38  1  0  0  0  0
 19 20  1  0  0  0  0
 19 21  1  0  0  0  0
 19 39  1  6  0  0  0
 20 40  1  0  0  0  0
 21 22  1  0  0  0  0
 21 41  1  1  0  0  0
 22 23  1  0  0  0  0
 22 32  1  0  0  0  0
 23 24  2  0  0  0  0
 23 42  1  0  0  0  0
 24 25  1  0  0  0  0
 25 26  1  0  0  0  0
 25 32  2  0  0  0  0
 26 27  2  0  0  0  0
 26 28  1  0  0  0  0
 28 29  1  0  0  0  0
 28 43  1  0  0  0  0
 29 30  1  6  0  0  0
 29 31  1  0  0  0  0
 30 44  1  0  0  0  0
 30 45  1  0  0  0  0
 31 32  1  0  0  0  0
 31 46  1  0  0  0  0
M  END
