3qar_ligand
 OpenBabel08222323353D

 36 39  0  0  0  0  0  0  0  0999 V2000
   19.6800   12.2810   24.2590 N   0  0  0  0  0  0  0  0  0  0  0  0
   21.7330   12.9740   23.4020 N   0  0  0  0  0  0  0  0  0  0  0  0
   21.5510   15.9450   21.4520 C   0  0  0  0  0  0  0  0  0  0  0  0
   22.6370   16.3970   20.7010 C   0  0  0  0  0  0  0  0  0  0  0  0
   23.1240   14.4510   21.4780 C   0  0  0  0  0  0  0  0  0  0  0  0
   20.4100   16.7490   21.5800 C   0  0  0  0  0  0  0  0  0  0  0  0
   20.3610   18.0010   20.9600 C   0  0  0  0  0  0  0  0  0  0  0  0
   22.5920   17.6500   20.0840 C   0  0  0  0  0  0  0  0  0  0  0  0
   25.7040   11.9970   22.1020 C   0  0  0  0  0  0  0  0  0  0  0  0
   26.9300   12.0110   21.5910 C   0  0  0  0  0  0  0  0  0  0  0  0
   26.9940   13.0170   20.7180 N   0  0  0  0  0  0  0  0  0  0  0  0
   25.9040   13.5980   20.6700 N   0  0  0  0  0  0  0  0  0  0  0  0
   25.0650   13.0040   21.5160 C   0  0  0  0  0  0  0  0  0  0  0  0
   23.7770   13.3100   21.7590 N   0  0  0  0  0  0  0  0  0  0  0  0
   23.5790   15.4570   20.7380 N   0  0  0  0  0  0  0  0  0  0  0  0
   21.4560   18.4520   20.2110 C   0  0  0  0  0  0  0  0  0  0  0  0
   21.8910   14.7400   21.9130 N   0  0  0  0  0  0  0  0  0  0  0  0
   21.1380   13.9390   22.6850 C   0  0  0  0  0  0  0  0  0  0  0  0
   19.8010   14.0720   22.7650 N   0  0  0  0  0  0  0  0  0  0  0  0
   21.0080   12.1550   24.1790 C   0  0  0  0  0  0  0  0  0  0  0  0
   21.6990   11.0710   24.9810 C   0  0  0  0  0  0  0  0  0  0  0  0
   19.0790   13.2460   23.5510 C   0  0  0  0  0  0  0  0  0  0  0  0
   17.7640   13.3650   23.6380 N   0  0  0  0  0  0  0  0  0  0  0  0
   19.5594   16.3974   22.1640 H   0  0  0  0  0  0  0  0  0  0  0  0
   19.4728   18.6251   21.0590 H   0  0  0  0  0  0  0  0  0  0  0  0
   23.4445   18.0017   19.5030 H   0  0  0  0  0  0  0  0  0  0  0  0
   25.3062   11.3057   22.8449 H   0  0  0  0  0  0  0  0  0  0  0  0
   27.7384   11.3237   21.8404 H   0  0  0  0  0  0  0  0  0  0  0  0
   25.6837   14.4001   20.0797 H   0  0  0  0  0  0  0  0  0  0  0  0
   23.2257   12.5829   22.2148 H   0  0  0  0  0  0  0  0  0  0  0  0
   21.4210   19.4284   19.7277 H   0  0  0  0  0  0  0  0  0  0  0  0
   21.5046   11.2261   26.0422 H   0  0  0  0  0  0  0  0  0  0  0  0
   21.3153   10.0966   24.6787 H   0  0  0  0  0  0  0  0  0  0  0  0
   22.7725   11.1132   24.7970 H   0  0  0  0  0  0  0  0  0  0  0  0
   17.2812   14.0893   23.1063 H   0  0  0  0  0  0  0  0  0  0  0  0
   17.2332   12.7325   24.2368 H   0  0  0  0  0  0  0  0  0  0  0  0
  1 22  1  0  0  0  0
  2 20  1  0  0  0  0
  3  4  2  0  0  0  0
  3  6  1  0  0  0  0
  4  8  1  0  0  0  0
  5 14  1  0  0  0  0
  5 15  2  0  0  0  0
  6  7  2  0  0  0  0
  6 24  1  0  0  0  0
  7 16  1  0  0  0  0
  7 25  1  0  0  0  0
  8 16  2  0  0  0  0
  8 26  1  0  0  0  0
  9 10  1  0  0  0  0
  9 27  1  0  0  0  0
 10 28  1  0  0  0  0
 11 10  2  0  0  0  0
 12 11  1  0  0  0  0
 12 29  1  0  0  0  0
 13  9  2  0  0  0  0
 13 12  1  0  0  0  0
 14 13  1  0  0  0  0
 14 30  1  0  0  0  0
 15  4  1  0  0  0  0
 16 31  1  0  0  0  0
 17  3  1  0  0  0  0
 17  5  1  0  0  0  0
 17 18  1  0  0  0  0
 18  2  2  0  0  0  0
 18 19  1  0  0  0  0
 19 22  2  0  0  0  0
 20  1  2  0  0  0  0
 20 21  1  0  0  0  0
 21 32  1  0  0  0  0
 21 33  1  0  0  0  0
 21 34  1  0  0  0  0
 22 23  1  0  0  0  0
 23 35  1  0  0  0  0
 23 36  1  0  0  0  0
M  END
