3qbh_ligand
 OpenBabel08222323353D

 79 82  0  0  1  0  0  0  0  0999 V2000
   28.7780    5.2150   14.3000 S   0  0  0  0  0  0  0  0  0  0  0  0
   29.5930    3.6230   14.1070 C   0  0  0  0  0  0  0  0  0  0  0  0
   30.9700    3.8330   13.4070 C   0  0  1  0  0  0  0  0  0  0  0  0
   31.9250    4.7850   14.1980 C   0  0  2  0  0  0  0  0  0  0  0  0
   31.3680    6.2090   14.5170 C   0  0  1  0  0  0  0  0  0  0  0  0
   29.9880    6.1180   15.2500 C   0  0  0  0  0  0  0  0  0  0  0  0
   32.3940    7.0700   15.3420 C   0  0  0  0  0  0  0  0  0  0  0  0
   31.8020    8.3860   15.8730 C   0  0  0  0  0  0  0  0  0  0  0  0
   31.5160    8.5250   17.2550 C   0  0  0  0  0  0  0  0  0  0  0  0
   30.9550    9.7160   17.7760 C   0  0  0  0  0  0  0  0  0  0  0  0
   30.6770   10.7830   16.8740 C   0  0  0  0  0  0  0  0  0  0  0  0
   30.9710   10.6570   15.4960 C   0  0  0  0  0  0  0  0  0  0  0  0
   31.5340    9.4630   14.9910 C   0  0  0  0  0  0  0  0  0  0  0  0
   30.1060   11.9770   17.3100 O   0  0  0  0  0  0  0  0  0  0  0  0
   30.6650    9.8190   19.2910 C   0  0  0  0  0  0  0  0  0  0  0  0
   29.3520    9.1360   19.7770 C   0  0  2  0  0  0  0  0  0  0  0  0
   29.2380    7.6830   19.6880 N   0  0  0  0  0  0  0  0  0  0  0  0
   28.1800    7.2680   18.9400 C   0  0  0  0  0  0  0  0  0  0  0  0
   27.5250    8.3320   18.4570 O   0  0  0  0  0  0  0  0  0  0  0  0
   28.0520    9.5350   19.0420 C   0  0  0  0  0  0  0  0  0  0  0  0
   27.8220    6.1280   18.6920 O   0  0  0  0  0  0  0  0  0  0  0  0
   30.1620    6.7260   20.3190 C   0  0  0  0  0  0  0  0  0  0  0  0
   30.2440    6.7890   21.8660 C   0  0  0  0  0  0  0  0  0  0  0  0
   31.1530    5.6460   22.3960 C   0  0  0  0  0  0  0  0  0  0  0  0
   33.1640    4.8650   13.4740 O   0  0  0  0  0  0  0  0  0  0  0  0
   31.6490    2.5440   13.0870 N   0  3  0  0  0  0  0  0  0  0  0  0
   31.0770    1.6410   12.0330 C   0  0  0  0  0  0  0  0  0  0  0  0
   30.9750    2.3530   10.6680 C   0  0  0  0  0  0  0  0  0  0  0  0
   32.1410    2.7400    9.9650 C   0  0  0  0  0  0  0  0  0  0  0  0
   32.0660    3.3980    8.7080 C   0  0  0  0  0  0  0  0  0  0  0  0
   30.7890    3.6680    8.1630 C   0  0  0  0  0  0  0  0  0  0  0  0
   29.6130    3.2880    8.8530 C   0  0  0  0  0  0  0  0  0  0  0  0
   29.7040    2.6300   10.1050 C   0  0  0  0  0  0  0  0  0  0  0  0
   33.3530    3.8070    7.9570 C   0  0  0  0  0  0  0  0  0  0  0  0
   33.9860    5.0620    8.6140 C   0  0  0  0  0  0  0  0  0  0  0  0
   34.4040    2.6810    7.7570 C   0  0  0  0  0  0  0  0  0  0  0  0
   27.5960    4.9960   15.1010 O   0  0  0  0  0  0  0  0  0  0  0  0
   28.6370    5.8460   13.0000 O   0  0  0  0  0  0  0  0  0  0  0  0
   28.9654    2.9606   13.4928 H   0  0  0  0  0  0  0  0  0  0  0  0
   29.7489    3.1673   15.0959 H   0  0  0  0  0  0  0  0  0  0  0  0
   30.7571    4.3267   12.4474 H   0  0  0  0  0  0  0  0  0  0  0  0
   32.1270    4.3060   15.1674 H   0  0  0  0  0  0  0  0  0  0  0  0
   31.2030    6.7220   13.5581 H   0  0  0  0  0  0  0  0  0  0  0  0
   30.1323    5.6095   16.2146 H   0  0  0  0  0  0  0  0  0  0  0  0
   29.6122    7.1369   15.4252 H   0  0  0  0  0  0  0  0  0  0  0  0
   33.2490    7.3097   14.6927 H   0  0  0  0  0  0  0  0  0  0  0  0
   32.7401    6.4731   16.1987 H   0  0  0  0  0  0  0  0  0  0  0  0
   31.7315    7.7020   17.9267 H   0  0  0  0  0  0  0  0  0  0  0  0
   30.7632   11.4812   14.8233 H   0  0  0  0  0  0  0  0  0  0  0  0
   31.7597    9.3713   13.9347 H   0  0  0  0  0  0  0  0  0  0  0  0
   30.6929   12.6977   17.1135 H   0  0  0  0  0  0  0  0  0  0  0  0
   30.6071   10.8860   19.5520 H   0  0  0  0  0  0  0  0  0  0  0  0
   31.5056    9.3552   19.8280 H   0  0  0  0  0  0  0  0  0  0  0  0
   29.2592    9.4223   20.8350 H   0  0  0  0  0  0  0  0  0  0  0  0
   28.2712   10.2741   18.2573 H   0  0  0  0  0  0  0  0  0  0  0  0
   27.3286    9.9594   19.7537 H   0  0  0  0  0  0  0  0  0  0  0  0
   31.1692    6.9154   19.9195 H   0  0  0  0  0  0  0  0  0  0  0  0
   29.8411    5.7118   20.0389 H   0  0  0  0  0  0  0  0  0  0  0  0
   29.2348    6.6780   22.2893 H   0  0  0  0  0  0  0  0  0  0  0  0
   30.6642    7.7592   22.1695 H   0  0  0  0  0  0  0  0  0  0  0  0
   31.2054    5.6983   23.4935 H   0  0  0  0  0  0  0  0  0  0  0  0
   32.1633    5.7558   21.9750 H   0  0  0  0  0  0  0  0  0  0  0  0
   30.7339    4.6746   22.0948 H   0  0  0  0  0  0  0  0  0  0  0  0
   33.8050    5.3329   13.9962 H   0  0  0  0  0  0  0  0  0  0  0  0
   31.6811    2.0109   13.9419 H   0  0  0  0  0  0  0  0  0  0  0  0
   32.5873    2.7723   12.7979 H   0  0  0  0  0  0  0  0  0  0  0  0
   30.0717    1.3211   12.3445 H   0  0  0  0  0  0  0  0  0  0  0  0
   31.7263    0.7593   11.9278 H   0  0  0  0  0  0  0  0  0  0  0  0
   33.1134    2.5296   10.3955 H   0  0  0  0  0  0  0  0  0  0  0  0
   30.7101    4.1715    7.2063 H   0  0  0  0  0  0  0  0  0  0  0  0
   28.6409    3.5007    8.4230 H   0  0  0  0  0  0  0  0  0  0  0  0
   28.8023    2.3388   10.6316 H   0  0  0  0  0  0  0  0  0  0  0  0
   33.0339    4.1021    6.9465 H   0  0  0  0  0  0  0  0  0  0  0  0
   34.8999    5.3399    8.0685 H   0  0  0  0  0  0  0  0  0  0  0  0
   34.2375    4.8401    9.6616 H   0  0  0  0  0  0  0  0  0  0  0  0
   33.2695    5.8958    8.5776 H   0  0  0  0  0  0  0  0  0  0  0  0
   33.9227    1.8088    7.2905 H   0  0  0  0  0  0  0  0  0  0  0  0
   34.8212    2.3912    8.7327 H   0  0  0  0  0  0  0  0  0  0  0  0
   35.2125    3.0454    7.1062 H   0  0  0  0  0  0  0  0  0  0  0  0
  1  2  1  0  0  0  0
  1  6  1  0  0  0  0
  1 37  2  0  0  0  0
  1 38  2  0  0  0  0
  2  3  1  0  0  0  0
  2 39  1  0  0  0  0
  2 40  1  0  0  0  0
  3  4  1  0  0  0  0
  3 26  1  0  0  0  0
  3 41  1  6  0  0  0
  4  5  1  0  0  0  0
  4 25  1  0  0  0  0
  4 42  1  1  0  0  0
  5  6  1  0  0  0  0
  5  7  1  0  0  0  0
  5 43  1  6  0  0  0
  6 44  1  0  0  0  0
  6 45  1  0  0  0  0
  7  8  1  0  0  0  0
  7 46  1  0  0  0  0
  7 47  1  0  0  0  0
  8  9  2  0  0  0  0
  8 13  1  0  0  0  0
  9 10  1  0  0  0  0
  9 48  1  0  0  0  0
 10 11  2  0  0  0  0
 10 15  1  0  0  0  0
 11 12  1  0  0  0  0
 11 14  1  0  0  0  0
 12 13  2  0  0  0  0
 12 49  1  0  0  0  0
 13 50  1  0  0  0  0
 14 51  1  0  0  0  0
 15 16  1  0  0  0  0
 15 52  1  0  0  0  0
 15 53  1  0  0  0  0
 16 17  1  0  0  0  0
 16 20  1  0  0  0  0
 16 54  1  1  0  0  0
 17 18  1  0  0  0  0
 17 22  1  0  0  0  0
 18 19  1  0  0  0  0
 18 21  2  0  0  0  0
 19 20  1  0  0  0  0
 20 55  1  0  0  0  0
 20 56  1  0  0  0  0
 22 23  1  0  0  0  0
 22 57  1  0  0  0  0
 22 58  1  0  0  0  0
 23 24  1  0  0  0  0
 23 59  1  0  0  0  0
 23 60  1  0  0  0  0
 24 61  1  0  0  0  0
 24 62  1  0  0  0  0
 24 63  1  0  0  0  0
 25 64  1  0  0  0  0
 26 27  1  0  0  0  0
 26 65  1  0  0  0  0
 26 66  1  0  0  0  0
 27 28  1  0  0  0  0
 27 67  1  0  0  0  0
 27 68  1  0  0  0  0
 28 29  2  0  0  0  0
 28 33  1  0  0  0  0
 29 30  1  0  0  0  0
 29 69  1  0  0  0  0
 30 31  2  0  0  0  0
 30 34  1  0  0  0  0
 31 32  1  0  0  0  0
 31 70  1  0  0  0  0
 32 33  2  0  0  0  0
 32 71  1  0  0  0  0
 33 72  1  0  0  0  0
 34 35  1  0  0  0  0
 34 36  1  0  0  0  0
 34 73  1  0  0  0  0
 35 74  1  0  0  0  0
 35 75  1  0  0  0  0
 35 76  1  0  0  0  0
 36 77  1  0  0  0  0
 36 78  1  0  0  0  0
 36 79  1  0  0  0  0
M  CHG  1  26   1
M  END
