3qc4_ligand
 OpenBabel08222323353D

 60 64  0  0  1  0  0  0  0  0999 V2000
   15.1040   32.2130   21.3850 C   0  0  0  0  0  0  0  0  0  0  0  0
    9.3500   26.8700   21.0990 F   0  0  0  0  0  0  0  0  0  0  0  0
   14.0790   30.4490   19.9550 N   0  0  0  0  0  0  0  0  0  0  0  0
   12.7870   31.7070   21.3690 O   0  0  0  0  0  0  0  0  0  0  0  0
   16.3270   31.8230   20.8310 C   0  0  0  0  0  0  0  0  0  0  0  0
   16.4100   30.7950   19.8680 C   0  0  0  0  0  0  0  0  0  0  0  0
   15.2760   30.0900   19.4440 C   0  0  0  0  0  0  0  0  0  0  0  0
   13.9160   31.4820   20.9020 C   0  0  0  0  0  0  0  0  0  0  0  0
   12.8390   29.7900   19.5990 C   0  0  0  0  0  0  0  0  0  0  0  0
   12.4340   28.6350   20.4750 C   0  0  0  0  0  0  0  0  0  0  0  0
   13.3400   27.9010   21.1950 C   0  0  0  0  0  0  0  0  0  0  0  0
   12.8800   26.8140   21.9490 C   0  0  0  0  0  0  0  0  0  0  0  0
   11.5200   26.4690   21.9060 C   0  0  0  0  0  0  0  0  0  0  0  0
   10.6250   27.2250   21.1580 C   0  0  0  0  0  0  0  0  0  0  0  0
   11.1080   28.3010   20.4300 C   0  0  0  0  0  0  0  0  0  0  0  0
   11.0800   25.4540   22.5830 F   0  0  0  0  0  0  0  0  0  0  0  0
    9.4790   38.4850   20.5180 C   0  0  0  0  0  0  0  0  0  0  0  0
   10.5200   37.9790   19.6730 C   0  0  0  0  0  0  0  0  0  0  0  0
   11.4910   37.1220   20.1710 C   0  0  0  0  0  0  0  0  0  0  0  0
   11.4200   36.7650   21.5310 C   0  0  0  0  0  0  0  0  0  0  0  0
   10.4010   37.2690   22.3970 C   0  0  0  0  0  0  0  0  0  0  0  0
    9.4190   38.0880   21.8700 C   0  0  0  0  0  0  0  0  0  0  0  0
    8.6630   39.2490   19.7670 N   0  0  0  0  0  0  0  0  0  0  0  0
   10.3010   38.4830   18.4520 N   0  0  0  0  0  0  0  0  0  0  0  0
   12.4010   35.9890   22.0850 O   0  0  0  0  0  0  0  0  0  0  0  0
   12.3490   35.5610   23.4590 C   0  0  0  0  0  0  0  0  0  0  0  0
   13.6550   34.8420   23.7440 C   0  0  1  0  0  0  0  0  0  0  0  0
   13.9030   34.5440   25.2180 C   0  0  0  0  0  0  0  0  0  0  0  0
   13.7810   35.5490   26.1840 C   0  0  0  0  0  0  0  0  0  0  0  0
   14.0380   35.3110   27.5270 C   0  0  0  0  0  0  0  0  0  0  0  0
   14.4520   34.0380   27.9440 C   0  0  0  0  0  0  0  0  0  0  0  0
   14.6060   33.0290   27.0170 C   0  0  0  0  0  0  0  0  0  0  0  0
   14.3230   33.2860   25.6520 C   0  0  0  0  0  0  0  0  0  0  0  0
    9.2350   39.2320   18.5280 C   0  0  0  0  0  0  0  0  0  0  0  0
    8.7620   39.8480   17.4850 O   0  0  0  0  0  0  0  0  0  0  0  0
   13.7890   33.6610   22.8960 N   0  0  0  0  0  0  0  0  0  0  0  0
   14.9860   33.3020   22.4220 C   0  0  0  0  0  0  0  0  0  0  0  0
   16.0530   33.7950   22.8130 O   0  0  0  0  0  0  0  0  0  0  0  0
   17.2387   32.3254   21.1508 H   0  0  0  0  0  0  0  0  0  0  0  0
   17.3807   30.5431   19.4434 H   0  0  0  0  0  0  0  0  0  0  0  0
   15.3576   29.2770   18.7240 H   0  0  0  0  0  0  0  0  0  0  0  0
   12.9405   29.4136   18.5704 H   0  0  0  0  0  0  0  0  0  0  0  0
   12.0354   30.5402   19.6374 H   0  0  0  0  0  0  0  0  0  0  0  0
   14.3933   28.1570   21.1812 H   0  0  0  0  0  0  0  0  0  0  0  0
   13.5690   26.2434   22.5612 H   0  0  0  0  0  0  0  0  0  0  0  0
   10.4283   28.8838   19.8188 H   0  0  0  0  0  0  0  0  0  0  0  0
   12.2794   36.7394   19.5330 H   0  0  0  0  0  0  0  0  0  0  0  0
   10.3978   37.0134   23.4504 H   0  0  0  0  0  0  0  0  0  0  0  0
    8.6018   38.4254   22.4972 H   0  0  0  0  0  0  0  0  0  0  0  0
    7.8287   39.7209   20.0520 H   0  0  0  0  0  0  0  0  0  0  0  0
   10.8518   38.3165   17.6341 H   0  0  0  0  0  0  0  0  0  0  0  0
   11.4999   34.8784   23.6112 H   0  0  0  0  0  0  0  0  0  0  0  0
   12.2433   36.4315   24.1231 H   0  0  0  0  0  0  0  0  0  0  0  0
   14.4556   35.5334   23.4422 H   0  0  0  0  0  0  0  0  0  0  0  0
   13.4769   36.5424   25.8744 H   0  0  0  0  0  0  0  0  0  0  0  0
   13.9189   36.1079   28.2522 H   0  0  0  0  0  0  0  0  0  0  0  0
   14.6505   33.8475   28.9925 H   0  0  0  0  0  0  0  0  0  0  0  0
   14.9410   32.0466   27.3297 H   0  0  0  0  0  0  0  0  0  0  0  0
   14.4355   32.4867   24.9284 H   0  0  0  0  0  0  0  0  0  0  0  0
   12.9808   33.1178   22.6686 H   0  0  0  0  0  0  0  0  0  0  0  0
  1  5  2  0  0  0  0
  1  8  1  0  0  0  0
  3  7  1  0  0  0  0
  3  9  1  0  0  0  0
  5  6  1  0  0  0  0
  5 39  1  0  0  0  0
  6  7  2  0  0  0  0
  6 40  1  0  0  0  0
  7 41  1  0  0  0  0
  8  3  1  0  0  0  0
  8  4  2  0  0  0  0
  9 10  1  0  0  0  0
  9 42  1  0  0  0  0
  9 43  1  0  0  0  0
 10 11  2  0  0  0  0
 10 15  1  0  0  0  0
 11 12  1  0  0  0  0
 11 44  1  0  0  0  0
 12 13  2  0  0  0  0
 12 45  1  0  0  0  0
 13 16  1  0  0  0  0
 14  2  1  0  0  0  0
 14 13  1  0  0  0  0
 15 14  2  0  0  0  0
 15 46  1  0  0  0  0
 17 23  1  0  0  0  0
 18 17  2  0  0  0  0
 18 24  1  0  0  0  0
 19 18  1  0  0  0  0
 19 47  1  0  0  0  0
 20 19  2  0  0  0  0
 20 21  1  0  0  0  0
 21 22  2  0  0  0  0
 21 48  1  0  0  0  0
 22 17  1  0  0  0  0
 22 49  1  0  0  0  0
 23 34  1  0  0  0  0
 23 50  1  0  0  0  0
 24 34  1  0  0  0  0
 24 51  1  0  0  0  0
 25 20  1  0  0  0  0
 26 25  1  0  0  0  0
 26 52  1  0  0  0  0
 26 53  1  0  0  0  0
 27 26  1  0  0  0  0
 27 28  1  0  0  0  0
 27 54  1  6  0  0  0
 28 29  2  0  0  0  0
 28 33  1  0  0  0  0
 29 30  1  0  0  0  0
 29 55  1  0  0  0  0
 30 31  2  0  0  0  0
 30 56  1  0  0  0  0
 31 57  1  0  0  0  0
 32 31  1  0  0  0  0
 32 58  1  0  0  0  0
 33 32  2  0  0  0  0
 33 59  1  0  0  0  0
 34 35  2  0  0  0  0
 36 27  1  0  0  0  0
 36 37  1  0  0  0  0
 36 60  1  0  0  0  0
 37  1  1  0  0  0  0
 37 38  2  0  0  0  0
M  END
