3qc9_ligand
 OpenBabel08222323353D

 39 41  0  0  1  0  0  0  0  0999 V2000
  -41.0180   -3.7870   62.3310 P   0  0  0  0  0  0  0  0  0  0  0  0
  -42.0490   -2.7490   62.6780 O   0  0  0  0  0  1  0  0  0  0  0  0
  -39.7550   -3.2050   61.7200 O   0  0  0  0  0  1  0  0  0  0  0  0
  -40.7570   -4.8260   63.3910 O   0  0  0  0  0  0  0  0  0  0  0  0
  -41.1400   -6.0110   60.5470 P   0  0  1  0  0  0  0  0  0  0  0  0
  -40.4030   -5.6420   59.2780 O   0  0  0  0  0  1  0  0  0  0  0  0
  -40.3470   -6.7990   61.5590 O   0  0  0  0  0  0  0  0  0  0  0  0
  -41.7540   -4.6520   61.1820 O   0  0  0  0  0  0  0  0  0  0  0  0
  -42.4830   -6.8570   60.2180 O   0  0  0  0  0  0  0  0  0  0  0  0
  -43.4260   -7.1680   61.2390 C   0  0  0  0  0  0  0  0  0  0  0  0
  -43.8270   -8.6400   61.2290 C   0  0  1  0  0  0  0  0  0  0  0  0
  -44.4710   -8.9770   60.0090 O   0  0  0  0  0  0  0  0  0  0  0  0
  -42.6600   -9.6000   61.3690 C   0  0  1  0  0  0  0  0  0  0  0  0
  -42.4630   -9.9520   62.7480 O   0  0  0  0  0  0  0  0  0  0  0  0
  -43.0980  -10.8030   60.5610 C   0  0  1  0  0  0  0  0  0  0  0  0
  -43.8720  -11.7010   61.3550 O   0  0  0  0  0  0  0  0  0  0  0  0
  -44.0340  -10.2370   59.5150 C   0  0  2  0  0  0  0  0  0  0  0  0
  -43.2040  -10.0410   58.3040 N   0  0  0  0  0  0  0  0  0  0  0  0
  -42.3760   -8.9940   58.1070 C   0  0  0  0  0  0  0  0  0  0  0  0
  -41.7220   -9.0950   56.9200 N   0  0  0  0  0  0  0  0  0  0  0  0
  -42.1390  -10.2380   56.3350 C   0  0  0  0  0  0  0  0  0  0  0  0
  -41.8480  -10.9320   55.0630 C   0  0  0  0  0  0  0  0  0  0  0  0
  -40.9560  -10.3990   54.1940 N   0  0  0  0  0  0  0  0  0  0  0  0
  -42.4790  -12.1080   54.8270 N   0  0  0  0  0  0  0  0  0  0  0  0
  -43.3500  -12.6220   55.7130 C   0  0  0  0  0  0  0  0  0  0  0  0
  -43.6790  -12.0380   56.8870 N   0  0  0  0  0  0  0  0  0  0  0  0
  -43.1100  -10.8650   57.2530 C   0  0  0  0  0  0  0  0  0  0  0  0
  -44.3220   -6.5725   61.0641 H   0  0  0  0  0  0  0  0  0  0  0  0
  -42.9652   -6.9499   62.2024 H   0  0  0  0  0  0  0  0  0  0  0  0
  -44.4837   -8.7478   62.0923 H   0  0  0  0  0  0  0  0  0  0  0  0
  -41.7136   -9.1818   61.0261 H   0  0  0  0  0  0  0  0  0  0  0  0
  -42.2785   -9.1588   63.2564 H   0  0  0  0  0  0  0  0  0  0  0  0
  -42.2342  -11.3374   60.1655 H   0  0  0  0  0  0  0  0  0  0  0  0
  -43.3454  -12.0047   62.0979 H   0  0  0  0  0  0  0  0  0  0  0  0
  -44.8928  -10.8719   59.2973 H   0  0  0  0  0  0  0  0  0  0  0  0
  -42.2479   -8.1715   58.8107 H   0  0  0  0  0  0  0  0  0  0  0  0
  -40.4874   -9.5212   54.4184 H   0  0  0  0  0  0  0  0  0  0  0  0
  -40.7529  -10.8754   53.3153 H   0  0  0  0  0  0  0  0  0  0  0  0
  -43.8225  -13.5733   55.4683 H   0  0  0  0  0  0  0  0  0  0  0  0
  1  2  1  0  0  0  0
  1  3  1  0  0  0  0
  1  4  2  0  0  0  0
  5  6  1  6  0  0  0
  5  7  2  0  0  0  0
  5  8  1  0  0  0  0
  5  9  1  0  0  0  0
  8  1  1  0  0  0  0
  9 10  1  0  0  0  0
 10 11  1  0  0  0  0
 10 28  1  0  0  0  0
 10 29  1  0  0  0  0
 11 12  1  0  0  0  0
 11 13  1  0  0  0  0
 11 30  1  1  0  0  0
 12 17  1  0  0  0  0
 13 14  1  0  0  0  0
 13 15  1  0  0  0  0
 13 31  1  6  0  0  0
 14 32  1  0  0  0  0
 15 16  1  0  0  0  0
 15 17  1  0  0  0  0
 15 33  1  6  0  0  0
 16 34  1  0  0  0  0
 17 18  1  0  0  0  0
 17 35  1  6  0  0  0
 18 19  1  0  0  0  0
 18 27  1  0  0  0  0
 19 20  2  0  0  0  0
 19 36  1  0  0  0  0
 20 21  1  0  0  0  0
 21 22  2  0  0  0  0
 21 27  1  0  0  0  0
 22 23  1  0  0  0  0
 22 24  1  0  0  0  0
 23 37  1  0  0  0  0
 23 38  1  0  0  0  0
 24 25  2  0  0  0  0
 25 26  1  0  0  0  0
 25 39  1  0  0  0  0
 26 27  2  0  0  0  0
M  END
