3qck_ligand
 OpenBabel08222323353D

 28 29  0  0  0  0  0  0  0  0999 V2000
   19.7460   30.0560   62.1540 C   0  0  0  0  0  0  0  0  0  0  0  0
   19.3910   29.6850   60.4550 S   0  0  0  0  0  0  0  0  0  0  0  0
   17.6880   29.0240   60.4900 C   0  0  0  0  0  0  0  0  0  0  0  0
   17.3360   28.4890   59.1230 C   0  0  0  0  0  0  0  0  0  0  0  0
   17.7080   27.1330   58.7830 C   0  0  0  0  0  0  0  0  0  0  0  0
   16.3100   28.9590   56.9020 C   0  0  0  0  0  0  0  0  0  0  0  0
   16.6590   29.3800   58.2170 C   0  0  0  0  0  0  0  0  0  0  0  0
   17.3540   26.7160   57.4770 C   0  0  0  0  0  0  0  0  0  0  0  0
   16.6590   27.6070   56.5860 C   0  0  0  0  0  0  0  0  0  0  0  0
   16.1570   26.9960   55.0690 Cl  0  0  0  0  0  0  0  0  0  0  0  0
   17.7110   25.1090   56.9360 Cl  0  0  0  0  0  0  0  0  0  0  0  0
   18.9160   29.5590   63.2290 C   0  0  0  0  0  0  0  0  0  0  0  0
   19.3230   29.8680   64.5720 C   0  0  0  0  0  0  0  0  0  0  0  0
   20.5140   30.6520   64.8220 C   0  0  0  0  0  0  0  0  0  0  0  0
   21.3400   31.1460   63.7550 C   0  0  0  0  0  0  0  0  0  0  0  0
   20.9190   30.8290   62.4150 C   0  0  0  0  0  0  0  0  0  0  0  0
   21.7200   31.2920   61.3110 C   0  0  0  0  0  0  0  0  0  0  0  0
   22.9540   31.1600   61.4000 O   0  5  0  0  0  0  0  0  0  0  0  0
   21.1760   31.8290   60.3300 O   0  0  0  0  0  0  0  0  0  0  0  0
   16.9871   29.8267   60.7627 H   0  0  0  0  0  0  0  0  0  0  0  0
   17.6230   28.2132   61.2305 H   0  0  0  0  0  0  0  0  0  0  0  0
   18.2223   26.4812   59.4799 H   0  0  0  0  0  0  0  0  0  0  0  0
   15.8166   29.6138   56.1929 H   0  0  0  0  0  0  0  0  0  0  0  0
   16.4116   30.3847   58.5401 H   0  0  0  0  0  0  0  0  0  0  0  0
   18.0233   28.9772   63.0298 H   0  0  0  0  0  0  0  0  0  0  0  0
   18.7317   29.5101   65.4071 H   0  0  0  0  0  0  0  0  0  0  0  0
   20.7914   30.8733   65.8463 H   0  0  0  0  0  0  0  0  0  0  0  0
   22.2341   31.7274   63.9489 H   0  0  0  0  0  0  0  0  0  0  0  0
  1  2  1  0  0  0  0
  1 12  2  0  0  0  0
  1 16  1  0  0  0  0
  2  3  1  0  0  0  0
  3  4  1  0  0  0  0
  3 20  1  0  0  0  0
  3 21  1  0  0  0  0
  4  5  2  0  0  0  0
  4  7  1  0  0  0  0
  5  8  1  0  0  0  0
  5 22  1  0  0  0  0
  6  9  1  0  0  0  0
  6 23  1  0  0  0  0
  7  6  2  0  0  0  0
  7 24  1  0  0  0  0
  8  9  2  0  0  0  0
  8 11  1  0  0  0  0
  9 10  1  0  0  0  0
 12 13  1  0  0  0  0
 12 25  1  0  0  0  0
 13 14  2  0  0  0  0
 13 26  1  0  0  0  0
 14 15  1  0  0  0  0
 14 27  1  0  0  0  0
 15 16  2  0  0  0  0
 15 28  1  0  0  0  0
 16 17  1  0  0  0  0
 17 18  1  0  0  0  0
 17 19  2  0  0  0  0
M  CHG  1  18  -1
M  END
