3qcs_ligand
 OpenBabel08222323353D

 40 43  0  0  0  0  0  0  0  0999 V2000
  -40.8520   16.4420   12.8550 C   0  0  0  0  0  0  0  0  0  0  0  0
  -42.0130   17.1260   12.5620 C   0  0  0  0  0  0  0  0  0  0  0  0
  -43.1360   15.1680   11.7880 C   0  0  0  0  0  0  0  0  0  0  0  0
  -44.6080   18.5260   12.1850 C   0  0  0  0  0  0  0  0  0  0  0  0
  -40.8490   15.0810   12.6040 C   0  0  0  0  0  0  0  0  0  0  0  0
  -43.1310   16.5230   12.0350 C   0  0  0  0  0  0  0  0  0  0  0  0
  -41.9800   14.4920   12.0880 C   0  0  0  0  0  0  0  0  0  0  0  0
  -44.3330   17.2600   11.7230 C   0  0  0  0  0  0  0  0  0  0  0  0
  -45.8210   19.0770   11.8310 C   0  0  0  0  0  0  0  0  0  0  0  0
  -39.9130   14.0190   12.7480 C   0  0  0  0  0  0  0  0  0  0  0  0
  -46.3500   17.1830   10.6660 C   0  0  0  0  0  0  0  0  0  0  0  0
  -44.9590   21.0230   12.8250 C   0  0  0  0  0  0  0  0  0  0  0  0
  -47.0900   21.0210   11.4150 C   0  0  0  0  0  0  0  0  0  0  0  0
  -44.8290   22.4510   12.3540 C   0  0  0  0  0  0  0  0  0  0  0  0
  -46.7030   22.4450   11.1100 C   0  0  0  0  0  0  0  0  0  0  0  0
  -45.1980   16.5800   10.9680 N   0  0  0  0  0  0  0  0  0  0  0  0
  -46.6970   18.4100   11.0720 N   0  0  0  0  0  0  0  0  0  0  0  0
  -40.4280   12.8530   12.3470 N   0  0  0  0  0  0  0  0  0  0  0  0
  -41.6720   13.1670   11.9540 N   0  0  0  0  0  0  0  0  0  0  0  0
  -46.1430   20.3610   12.3020 N   0  0  0  0  0  0  0  0  0  0  0  0
  -38.6640   14.2090   13.2340 N   0  0  0  0  0  0  0  0  0  0  0  0
  -47.2480   16.4620    9.8770 N   0  0  0  0  0  0  0  0  0  0  0  0
  -46.1250   23.0140   12.2780 O   0  0  0  0  0  0  0  0  0  0  0  0
  -39.9832   16.9462   13.2625 H   0  0  0  0  0  0  0  0  0  0  0  0
  -42.0460   18.1919   12.7567 H   0  0  0  0  0  0  0  0  0  0  0  0
  -44.0044   14.6638   11.3795 H   0  0  0  0  0  0  0  0  0  0  0  0
  -43.9003   19.0679   12.8018 H   0  0  0  0  0  0  0  0  0  0  0  0
  -45.0111   21.0190   13.9237 H   0  0  0  0  0  0  0  0  0  0  0  0
  -44.0704   20.4631   12.4980 H   0  0  0  0  0  0  0  0  0  0  0  0
  -47.1384   20.4591   10.4706 H   0  0  0  0  0  0  0  0  0  0  0  0
  -48.0804   21.0199   11.8936 H   0  0  0  0  0  0  0  0  0  0  0  0
  -44.3550   22.4736   11.3616 H   0  0  0  0  0  0  0  0  0  0  0  0
  -44.2162   23.0232   13.0661 H   0  0  0  0  0  0  0  0  0  0  0  0
  -47.5958   23.0186   10.8204 H   0  0  0  0  0  0  0  0  0  0  0  0
  -45.9727   22.4633   10.2876 H   0  0  0  0  0  0  0  0  0  0  0  0
  -39.9752   11.9279   12.3410 H   0  0  0  0  0  0  0  0  0  0  0  0
  -38.3596   15.1512   13.5177 H   0  0  0  0  0  0  0  0  0  0  0  0
  -38.0180   13.4114   13.3201 H   0  0  0  0  0  0  0  0  0  0  0  0
  -47.0034   15.5156    9.5523 H   0  0  0  0  0  0  0  0  0  0  0  0
  -48.1551   16.8764    9.6195 H   0  0  0  0  0  0  0  0  0  0  0  0
  1  5  1  0  0  0  0
  1 24  1  0  0  0  0
  2  1  2  0  0  0  0
  2 25  1  0  0  0  0
  3  7  1  0  0  0  0
  3 26  1  0  0  0  0
  4  8  2  0  0  0  0
  4 27  1  0  0  0  0
  5 10  2  0  0  0  0
  6  2  1  0  0  0  0
  6  3  2  0  0  0  0
  7  5  1  0  0  0  0
  7 19  2  0  0  0  0
  8  6  1  0  0  0  0
  8 16  1  0  0  0  0
  9  4  1  0  0  0  0
  9 17  2  0  0  0  0
 10 18  1  0  0  0  0
 10 21  1  0  0  0  0
 11 16  2  0  0  0  0
 11 22  1  0  0  0  0
 12 14  1  0  0  0  0
 12 28  1  0  0  0  0
 12 29  1  0  0  0  0
 13 15  1  0  0  0  0
 13 20  1  0  0  0  0
 13 30  1  0  0  0  0
 13 31  1  0  0  0  0
 14 23  1  0  0  0  0
 14 32  1  0  0  0  0
 14 33  1  0  0  0  0
 15 23  1  0  0  0  0
 15 34  1  0  0  0  0
 15 35  1  0  0  0  0
 17 11  1  0  0  0  0
 18 19  1  0  0  0  0
 18 36  1  0  0  0  0
 20  9  1  0  0  0  0
 20 12  1  0  0  0  0
 21 37  1  0  0  0  0
 21 38  1  0  0  0  0
 22 39  1  0  0  0  0
 22 40  1  0  0  0  0
M  END
