3qi1_ligand
 OpenBabel08222323353D

 75 78  0  0  1  0  0  0  0  0999 V2000
    4.7970   14.7730  -13.3930 C   0  0  0  0  0  0  0  0  0  0  0  0
    4.2110   13.5420  -13.0750 C   0  0  0  0  0  0  0  0  0  0  0  0
    4.9710   12.3710  -13.1780 C   0  0  0  0  0  0  0  0  0  0  0  0
    6.3070   12.4130  -13.5780 C   0  0  0  0  0  0  0  0  0  0  0  0
    6.9010   13.6130  -13.8820 C   0  0  0  0  0  0  0  0  0  0  0  0
    6.1480   14.7680  -13.7620 C   0  0  0  0  0  0  0  0  0  0  0  0
    6.7640   15.9010  -14.0600 F   0  0  0  0  0  0  0  0  0  0  0  0
    7.0320   11.2940  -13.6740 F   0  0  0  0  0  0  0  0  0  0  0  0
    2.7600   13.4490  -12.5890 C   0  0  0  0  0  0  0  0  0  0  0  0
    2.6430   14.2730  -11.2960 C   0  0  1  0  0  0  0  0  0  0  0  0
    1.2550   14.2230  -10.6820 C   0  0  1  0  0  0  0  0  0  0  0  0
    1.1110   15.1180   -9.4720 C   0  0  0  0  0  0  0  0  0  0  0  0
   -0.3040   15.1370   -9.0640 N   0  3  0  0  0  0  0  0  0  0  0  0
   -0.7650   16.2590   -8.2730 C   0  0  2  0  0  0  0  0  0  0  0  0
   -0.3960   17.6300   -8.8040 C   0  0  0  0  0  0  0  0  0  0  0  0
    0.1700   18.6920   -7.9210 C   0  0  0  0  0  0  0  0  0  0  0  0
    0.3560   18.3570   -6.6090 O   0  0  0  0  0  0  0  0  0  0  0  0
   -0.3390   17.2890   -5.9910 C   0  0  2  0  0  0  0  0  0  0  0  0
   -0.1850   16.0580   -6.8700 C   0  0  0  0  0  0  0  0  0  0  0  0
   -0.5870   17.9560  -10.1270 C   0  0  0  0  0  0  0  0  0  0  0  0
   -0.2940   19.2090  -10.6280 C   0  0  0  0  0  0  0  0  0  0  0  0
    0.2860   20.2020   -9.8140 C   0  0  0  0  0  0  0  0  0  0  0  0
    0.5230   19.9820   -8.4360 C   0  0  0  0  0  0  0  0  0  0  0  0
   -0.5780   19.3680  -12.1280 C   0  0  0  0  0  0  0  0  0  0  0  0
   -1.8210   20.1890  -12.4860 C   0  0  0  0  0  0  0  0  0  0  0  0
   -1.7610   20.5230  -13.9960 C   0  0  0  0  0  0  0  0  0  0  0  0
   -1.8910   21.5070  -11.7260 C   0  0  0  0  0  0  0  0  0  0  0  0
   -3.0590   19.3540  -12.1280 C   0  0  0  0  0  0  0  0  0  0  0  0
   -1.7770   17.6960   -5.6800 C   0  0  0  0  0  0  0  0  0  0  0  0
   -1.8370   18.9600   -4.8330 C   0  0  0  0  0  0  0  0  0  0  0  0
   -1.9860   17.5950   -4.1660 C   0  0  0  0  0  0  0  0  0  0  0  0
    0.3090   14.5410  -11.6920 O   0  0  0  0  0  0  0  0  0  0  0  0
    3.5440   13.8110  -10.2720 N   0  0  0  0  0  0  0  0  0  0  0  0
    4.3300   14.6870   -9.6470 C   0  0  0  0  0  0  0  0  0  0  0  0
    5.3510   14.0890   -8.7020 C   0  0  0  0  0  0  0  0  0  0  0  0
    4.2350   15.9010   -9.8770 O   0  0  0  0  0  0  0  0  0  0  0  0
    4.2271   15.6943  -13.3551 H   0  0  0  0  0  0  0  0  0  0  0  0
    4.5143   11.4163  -12.9432 H   0  0  0  0  0  0  0  0  0  0  0  0
    7.9340   13.6547  -14.2079 H   0  0  0  0  0  0  0  0  0  0  0  0
    2.4992   12.3994  -12.3885 H   0  0  0  0  0  0  0  0  0  0  0  0
    2.0824   13.8555  -13.3542 H   0  0  0  0  0  0  0  0  0  0  0  0
    2.8855   15.3171  -11.5430 H   0  0  0  0  0  0  0  0  0  0  0  0
    1.0681   13.1914  -10.3491 H   0  0  0  0  0  0  0  0  0  0  0  0
    1.4369   16.1377   -9.7250 H   0  0  0  0  0  0  0  0  0  0  0  0
    1.7283   14.7294   -8.6487 H   0  0  0  0  0  0  0  0  0  0  0  0
   -0.4730   14.3011   -8.5266 H   0  0  0  0  0  0  0  0  0  0  0  0
   -0.8594   15.1139   -9.9048 H   0  0  0  0  0  0  0  0  0  0  0  0
   -1.8628   16.2126   -8.2206 H   0  0  0  0  0  0  0  0  0  0  0  0
    0.1467   17.0692   -5.0289 H   0  0  0  0  0  0  0  0  0  0  0  0
    0.8856   15.8226   -6.9619 H   0  0  0  0  0  0  0  0  0  0  0  0
   -0.7058   15.2159   -6.3909 H   0  0  0  0  0  0  0  0  0  0  0  0
   -0.9813   17.2029  -10.7996 H   0  0  0  0  0  0  0  0  0  0  0  0
    0.5567   21.1556  -10.2527 H   0  0  0  0  0  0  0  0  0  0  0  0
    0.9501   20.7506   -7.8020 H   0  0  0  0  0  0  0  0  0  0  0  0
   -0.7022   18.3627  -12.5568 H   0  0  0  0  0  0  0  0  0  0  0  0
    0.2937   19.8573  -12.5869 H   0  0  0  0  0  0  0  0  0  0  0  0
   -2.6457   21.1136  -14.2763 H   0  0  0  0  0  0  0  0  0  0  0  0
   -1.7440   19.5895  -14.5776 H   0  0  0  0  0  0  0  0  0  0  0  0
   -0.8508   21.1034  -14.2073 H   0  0  0  0  0  0  0  0  0  0  0  0
   -1.9349   21.3053  -10.6455 H   0  0  0  0  0  0  0  0  0  0  0  0
   -2.7912   22.0598  -12.0327 H   0  0  0  0  0  0  0  0  0  0  0  0
   -0.9974   22.1078  -11.9508 H   0  0  0  0  0  0  0  0  0  0  0  0
   -3.0247   18.3969  -12.6691 H   0  0  0  0  0  0  0  0  0  0  0  0
   -3.9676   19.9043  -12.4137 H   0  0  0  0  0  0  0  0  0  0  0  0
   -3.0715   19.1626  -11.0449 H   0  0  0  0  0  0  0  0  0  0  0  0
   -2.5201   17.4284   -6.4456 H   0  0  0  0  0  0  0  0  0  0  0  0
   -2.7049   19.6315   -4.9093 H   0  0  0  0  0  0  0  0  0  0  0  0
   -0.9264   19.5549   -4.6689 H   0  0  0  0  0  0  0  0  0  0  0  0
   -1.1825   17.2052   -3.5239 H   0  0  0  0  0  0  0  0  0  0  0  0
   -2.9609   17.2818   -3.7643 H   0  0  0  0  0  0  0  0  0  0  0  0
    0.4309   13.9592  -12.4330 H   0  0  0  0  0  0  0  0  0  0  0  0
    3.5795   12.8409  -10.0319 H   0  0  0  0  0  0  0  0  0  0  0  0
    5.9422   14.8952   -8.2432 H   0  0  0  0  0  0  0  0  0  0  0  0
    6.0188   13.4172   -9.2611 H   0  0  0  0  0  0  0  0  0  0  0  0
    4.8336   13.5204   -7.9152 H   0  0  0  0  0  0  0  0  0  0  0  0
  1  2  2  0  0  0  0
  1  6  1  0  0  0  0
  1 37  1  0  0  0  0
  2  3  1  0  0  0  0
  2  9  1  0  0  0  0
  3  4  2  0  0  0  0
  3 38  1  0  0  0  0
  4  5  1  0  0  0  0
  4  8  1  0  0  0  0
  5  6  2  0  0  0  0
  5 39  1  0  0  0  0
  6  7  1  0  0  0  0
  9 10  1  0  0  0  0
  9 40  1  0  0  0  0
  9 41  1  0  0  0  0
 10 11  1  0  0  0  0
 10 33  1  0  0  0  0
 10 42  1  6  0  0  0
 11 12  1  0  0  0  0
 11 32  1  0  0  0  0
 11 43  1  1  0  0  0
 12 13  1  0  0  0  0
 12 44  1  0  0  0  0
 12 45  1  0  0  0  0
 13 14  1  0  0  0  0
 13 46  1  0  0  0  0
 13 47  1  0  0  0  0
 14 15  1  0  0  0  0
 14 19  1  0  0  0  0
 14 48  1  1  0  0  0
 15 16  2  0  0  0  0
 15 20  1  0  0  0  0
 16 17  1  0  0  0  0
 16 23  1  0  0  0  0
 17 18  1  0  0  0  0
 18 19  1  0  0  0  0
 18 29  1  0  0  0  0
 18 49  1  1  0  0  0
 19 50  1  0  0  0  0
 19 51  1  0  0  0  0
 20 21  2  0  0  0  0
 20 52  1  0  0  0  0
 21 22  1  0  0  0  0
 21 24  1  0  0  0  0
 22 23  2  0  0  0  0
 22 53  1  0  0  0  0
 23 54  1  0  0  0  0
 24 25  1  0  0  0  0
 24 55  1  0  0  0  0
 24 56  1  0  0  0  0
 25 26  1  0  0  0  0
 25 27  1  0  0  0  0
 25 28  1  0  0  0  0
 26 57  1  0  0  0  0
 26 58  1  0  0  0  0
 26 59  1  0  0  0  0
 27 60  1  0  0  0  0
 27 61  1  0  0  0  0
 27 62  1  0  0  0  0
 28 63  1  0  0  0  0
 28 64  1  0  0  0  0
 28 65  1  0  0  0  0
 29 30  1  0  0  0  0
 29 31  1  0  0  0  0
 29 66  1  0  0  0  0
 30 31  1  0  0  0  0
 30 67  1  0  0  0  0
 30 68  1  0  0  0  0
 31 69  1  0  0  0  0
 31 70  1  0  0  0  0
 32 71  1  0  0  0  0
 33 34  1  0  0  0  0
 33 72  1  0  0  0  0
 34 35  1  0  0  0  0
 34 36  2  0  0  0  0
 35 73  1  0  0  0  0
 35 74  1  0  0  0  0
 35 75  1  0  0  0  0
M  CHG  1  13   1
M  END
