3qi2_ligand
 OpenBabel08222323353D

 41 43  0  0  1  0  0  0  0  0999 V2000
  -28.0040   17.0970   29.6850 P   0  0  0  0  0  0  0  0  0  0  0  0
  -26.9020   18.0600   29.3150 O   0  0  0  0  0  1  0  0  0  0  0  0
  -28.6530   16.5570   28.4350 O   0  0  0  0  0  1  0  0  0  0  0  0
  -27.4360   15.9400   30.4680 O   0  0  0  0  0  0  0  0  0  0  0  0
  -29.1040   17.8470   30.5860 O   0  0  0  0  0  0  0  0  0  0  0  0
  -28.8070   19.3140   31.1710 P   0  0  2  0  0  0  0  0  0  0  0  0
  -28.5760   20.2920   30.0450 O   0  0  0  0  0  1  0  0  0  0  0  0
  -27.6250   19.2960   32.1070 O   0  0  0  0  0  0  0  0  0  0  0  0
  -30.1660   19.6770   31.9500 O   0  0  0  0  0  0  0  0  0  0  0  0
  -31.1540   20.4470   31.2700 C   0  0  0  0  0  0  0  0  0  0  0  0
  -31.8510   21.3870   32.2400 C   0  0  1  0  0  0  0  0  0  0  0  0
  -32.3150   20.6540   33.3700 O   0  0  0  0  0  0  0  0  0  0  0  0
  -30.8840   22.4410   32.7530 C   0  0  1  0  0  0  0  0  0  0  0  0
  -31.1940   23.7130   32.1820 O   0  0  0  0  0  0  0  0  0  0  0  0
  -31.0810   22.4840   34.2520 C   0  0  1  0  0  0  0  0  0  0  0  0
  -31.5590   23.7720   34.6440 O   0  0  0  0  0  0  0  0  0  0  0  0
  -32.1270   21.4250   34.5570 C   0  0  2  0  0  0  0  0  0  0  0  0
  -31.6430   20.5600   35.6570 N   0  0  0  0  0  0  0  0  0  0  0  0
  -30.6060   19.7040   35.5960 C   0  0  0  0  0  0  0  0  0  0  0  0
  -30.4320   19.0650   36.7810 N   0  0  0  0  0  0  0  0  0  0  0  0
  -31.3810   19.5140   37.6230 C   0  0  0  0  0  0  0  0  0  0  0  0
  -31.7720   19.2570   39.0270 C   0  0  0  0  0  0  0  0  0  0  0  0
  -31.1440   18.4330   39.7240 O   0  0  0  0  0  0  0  0  0  0  0  0
  -32.8170   19.9340   39.5220 N   0  0  0  0  0  0  0  0  0  0  0  0
  -33.5100   20.8270   38.7890 C   0  0  2  0  0  3  0  0  0  0  0  0
  -34.5550   21.4710   39.3610 N   0  0  0  0  0  0  0  0  0  0  0  0
  -33.2090   21.1130   37.4970 N   0  0  0  0  0  0  0  0  0  0  0  0
  -32.1760   20.4980   36.8760 C   0  0  0  0  0  0  0  0  0  0  0  0
  -31.8924   19.7735   30.8348 H   0  0  0  0  0  0  0  0  0  0  0  0
  -30.6714   21.0352   30.4895 H   0  0  0  0  0  0  0  0  0  0  0  0
  -32.6782   21.8595   31.7102 H   0  0  0  0  0  0  0  0  0  0  0  0
  -29.8536   22.2049   32.4872 H   0  0  0  0  0  0  0  0  0  0  0  0
  -32.0890   23.9618   32.4244 H   0  0  0  0  0  0  0  0  0  0  0  0
  -30.1507   22.3005   34.7896 H   0  0  0  0  0  0  0  0  0  0  0  0
  -30.9191   24.4407   34.3893 H   0  0  0  0  0  0  0  0  0  0  0  0
  -33.0683   21.8801   34.8650 H   0  0  0  0  0  0  0  0  0  0  0  0
  -29.9880   19.5450   34.7123 H   0  0  0  0  0  0  0  0  0  0  0  0
  -33.0978   19.7673   40.4883 H   0  0  0  0  0  0  0  0  0  0  0  0
  -34.8052   21.2764   40.3305 H   0  0  0  0  0  0  0  0  0  0  0  0
  -35.0919   22.1506   38.8223 H   0  0  0  0  0  0  0  0  0  0  0  0
  -33.7673   21.7988   36.9887 H   0  0  0  0  0  0  0  0  0  0  0  0
  1  2  1  0  0  0  0
  1  3  1  0  0  0  0
  1  4  2  0  0  0  0
  1  5  1  0  0  0  0
  5  6  1  0  0  0  0
  6  7  1  6  0  0  0
  6  8  2  0  0  0  0
  6  9  1  0  0  0  0
  9 10  1  0  0  0  0
 10 11  1  0  0  0  0
 10 29  1  0  0  0  0
 10 30  1  0  0  0  0
 11 12  1  0  0  0  0
 11 13  1  0  0  0  0
 11 31  1  6  0  0  0
 12 17  1  0  0  0  0
 13 14  1  0  0  0  0
 13 15  1  0  0  0  0
 13 32  1  6  0  0  0
 14 33  1  0  0  0  0
 15 16  1  0  0  0  0
 15 17  1  0  0  0  0
 15 34  1  1  0  0  0
 16 35  1  0  0  0  0
 17 18  1  0  0  0  0
 17 36  1  1  0  0  0
 18 19  1  0  0  0  0
 18 28  1  0  0  0  0
 19 20  2  0  0  0  0
 19 37  1  0  0  0  0
 20 21  1  0  0  0  0
 21 22  1  0  0  0  0
 21 28  2  0  0  0  0
 22 23  2  0  0  0  0
 22 24  1  0  0  0  0
 24 25  1  0  0  0  0
 24 38  1  0  0  0  0
 25 26  1  6  0  0  0
 25 27  1  0  0  0  0
 26 39  1  0  0  0  0
 26 40  1  0  0  0  0
 27 28  1  0  0  0  0
 27 41  1  0  0  0  0
M  END
