3qip_ligand
 OpenBabel08222323353D

 41 44  0  0  0  0  0  0  0  0999 V2000
    2.2000   74.9470   37.9960 C   0  0  0  0  0  0  0  0  0  0  0  0
    2.8230   76.0990   37.5120 C   0  0  0  0  0  0  0  0  0  0  0  0
    2.8310   76.4040   36.1480 C   0  0  0  0  0  0  0  0  0  0  0  0
    2.1830   75.5040   35.2960 C   0  0  0  0  0  0  0  0  0  0  0  0
    1.5470   74.3400   35.7420 C   0  0  0  0  0  0  0  0  0  0  0  0
    1.5590   74.0550   37.1240 C   0  0  0  0  0  0  0  0  0  0  0  0
    2.0370   75.5520   33.9370 N   0  0  0  0  0  0  0  0  0  0  0  0
    1.3140   74.4660   33.4810 C   0  0  0  0  0  0  0  0  0  0  0  0
    0.9870   73.6600   34.6050 C   0  0  0  0  0  0  0  0  0  0  0  0
    1.1170   74.3430   32.0310 C   0  0  0  0  0  0  0  0  0  0  0  0
    0.2500   72.3540   34.7460 C   0  0  0  0  0  0  0  0  0  0  0  0
   -1.2380   72.4890   34.5210 C   0  0  0  0  0  0  0  0  0  0  0  0
    1.4150   75.4280   31.1860 C   0  0  0  0  0  0  0  0  0  0  0  0
    1.2740   75.2980   29.7990 C   0  0  0  0  0  0  0  0  0  0  0  0
    0.8680   74.0800   29.2420 C   0  0  0  0  0  0  0  0  0  0  0  0
    0.5960   72.9850   30.0670 C   0  0  0  0  0  0  0  0  0  0  0  0
    0.7370   73.1130   31.4550 C   0  0  0  0  0  0  0  0  0  0  0  0
   -1.7740   71.5200   33.7500 N   0  0  0  0  0  0  0  0  0  0  0  0
   -3.0950   71.5790   33.5050 C   0  0  0  0  0  0  0  0  0  0  0  0
   -3.9010   72.5760   34.0210 C   0  0  0  0  0  0  0  0  0  0  0  0
   -3.2630   73.5240   34.8010 C   0  0  0  0  0  0  0  0  0  0  0  0
   -1.9380   73.5100   35.0800 N   0  0  0  0  0  0  0  0  0  0  0  0
   -3.5390   70.4670   32.6500 C   0  0  0  0  0  0  0  0  0  0  0  0
   -5.2290   72.6570   33.7940 O   0  0  0  0  0  0  0  0  0  0  0  0
   -4.0060   74.5540   35.3410 O   0  0  0  0  0  0  0  0  0  0  0  0
   -2.8800   69.5640   32.1750 O   0  5  0  0  0  0  0  0  0  0  0  0
   -4.8340   70.5230   32.4160 O   0  0  0  0  0  0  0  0  0  0  0  0
    2.2120   74.7382   39.0657 H   0  0  0  0  0  0  0  0  0  0  0  0
    3.3135   76.7747   38.2127 H   0  0  0  0  0  0  0  0  0  0  0  0
    3.3191   77.3008   35.7664 H   0  0  0  0  0  0  0  0  0  0  0  0
    1.0776   73.1556   37.5078 H   0  0  0  0  0  0  0  0  0  0  0  0
    2.4113   76.2898   33.3404 H   0  0  0  0  0  0  0  0  0  0  0  0
    0.4008   71.9957   35.7643 H   0  0  0  0  0  0  0  0  0  0  0  0
    0.6393   71.6698   33.9920 H   0  0  0  0  0  0  0  0  0  0  0  0
    1.7563   76.3715   31.6120 H   0  0  0  0  0  0  0  0  0  0  0  0
    1.4813   76.1491   29.1503 H   0  0  0  0  0  0  0  0  0  0  0  0
    0.7636   73.9850   28.1612 H   0  0  0  0  0  0  0  0  0  0  0  0
    0.2762   72.0375   29.6332 H   0  0  0  0  0  0  0  0  0  0  0  0
    0.5509   72.2521   32.0971 H   0  0  0  0  0  0  0  0  0  0  0  0
   -5.5027   71.9241   33.2376 H   0  0  0  0  0  0  0  0  0  0  0  0
   -3.6658   75.3935   35.0229 H   0  0  0  0  0  0  0  0  0  0  0  0
  1  2  2  0  0  0  0
  1  6  1  0  0  0  0
  1 28  1  0  0  0  0
  2  3  1  0  0  0  0
  2 29  1  0  0  0  0
  3  4  2  0  0  0  0
  3 30  1  0  0  0  0
  4  5  1  0  0  0  0
  4  7  1  0  0  0  0
  5  6  2  0  0  0  0
  5  9  1  0  0  0  0
  6 31  1  0  0  0  0
  7  8  1  0  0  0  0
  7 32  1  0  0  0  0
  8  9  2  0  0  0  0
  8 10  1  0  0  0  0
  9 11  1  0  0  0  0
 10 13  2  0  0  0  0
 10 17  1  0  0  0  0
 11 12  1  0  0  0  0
 11 33  1  0  0  0  0
 11 34  1  0  0  0  0
 12 18  2  0  0  0  0
 12 22  1  0  0  0  0
 13 14  1  0  0  0  0
 13 35  1  0  0  0  0
 14 15  2  0  0  0  0
 14 36  1  0  0  0  0
 15 16  1  0  0  0  0
 15 37  1  0  0  0  0
 16 17  2  0  0  0  0
 16 38  1  0  0  0  0
 17 39  1  0  0  0  0
 18 19  1  0  0  0  0
 19 20  2  0  0  0  0
 19 23  1  0  0  0  0
 20 21  1  0  0  0  0
 20 24  1  0  0  0  0
 21 22  2  0  0  0  0
 21 25  1  0  0  0  0
 23 26  1  0  0  0  0
 23 27  2  0  0  0  0
 24 40  1  0  0  0  0
 25 41  1  0  0  0  0
M  CHG  1  26  -1
M  END
