3qj9_ligand
 OpenBabel08222323353D

 58 63  0  0  1  0  0  0  0  0999 V2000
  -17.2830    0.2050   -4.8380 N   0  0  0  0  0  0  0  0  0  0  0  0
  -15.5840   -1.4580   -4.9530 N   0  0  0  0  0  0  0  0  0  0  0  0
  -16.6030   -0.7910   -4.2350 C   0  0  0  0  0  0  0  0  0  0  0  0
  -18.9330    1.9020   -4.8700 C   0  0  0  0  0  0  0  0  0  0  0  0
  -18.9550    2.1340   -6.1850 C   0  0  0  0  0  0  0  0  0  0  0  0
  -20.1810    3.6830   -5.1950 C   0  0  0  0  0  0  0  0  0  0  0  0
  -19.7090    3.2060   -6.4240 C   0  0  0  0  0  0  0  0  0  0  0  0
  -20.8750    4.9840   -7.5680 C   0  0  0  0  0  0  0  0  0  0  0  0
  -14.6900   -2.4490   -4.2810 C   0  0  0  0  0  0  0  0  0  0  0  0
  -12.9920   -1.9500   -6.1070 C   0  0  0  0  0  0  0  0  0  0  0  0
  -15.3820   -1.1500   -6.4000 C   0  0  0  0  0  0  0  0  0  0  0  0
  -11.2260   -5.0730   -3.6660 C   0  0  0  0  0  0  0  0  0  0  0  0
  -10.8020   -6.3770   -3.9260 C   0  0  0  0  0  0  0  0  0  0  0  0
  -11.2750   -7.0510   -5.0520 C   0  0  0  0  0  0  0  0  0  0  0  0
  -12.5880   -5.1210   -5.6600 C   0  0  0  0  0  0  0  0  0  0  0  0
   -8.6270   -3.9570   -1.8220 C   0  0  0  0  0  0  0  0  0  0  0  0
  -10.0430   -4.4620   -1.5500 C   0  0  0  0  0  0  0  0  0  0  0  0
  -10.9440   -4.2040   -2.6950 N   0  0  0  0  0  0  0  0  0  0  0  0
  -11.6230   -3.0820   -2.9170 C   0  0  0  0  0  0  0  0  0  0  0  0
  -11.5970   -2.0750   -2.2080 O   0  0  0  0  0  0  0  0  0  0  0  0
  -12.1650   -6.4190   -5.9240 C   0  0  0  0  0  0  0  0  0  0  0  0
  -12.1190   -4.4410   -4.5330 C   0  0  0  0  0  0  0  0  0  0  0  0
  -12.3360   -3.2160   -4.0340 N   0  0  0  0  0  0  0  0  0  0  0  0
  -13.2120   -2.1490   -4.5870 C   0  0  2  0  0  0  0  0  0  0  0  0
  -13.9010   -0.8590   -6.6870 C   0  0  0  0  0  0  0  0  0  0  0  0
  -16.9000   -1.1330   -2.9620 N   0  0  0  0  0  0  0  0  0  0  0  0
  -17.8570   -0.5040   -2.2890 C   0  0  0  0  0  0  0  0  0  0  0  0
  -18.5730    0.5280   -2.8930 C   0  0  0  0  0  0  0  0  0  0  0  0
  -18.2590    0.8770   -4.2030 C   0  0  0  0  0  0  0  0  0  0  0  0
  -20.0550    3.8580   -7.6110 C   0  0  0  0  0  0  0  0  0  0  0  0
  -21.3470    5.4560   -6.3420 C   0  0  0  0  0  0  0  0  0  0  0  0
  -21.0050    4.8100   -5.1520 C   0  0  0  0  0  0  0  0  0  0  0  0
  -19.6870    2.8550   -4.2220 O   0  0  0  0  0  0  0  0  0  0  0  0
  -18.4397    1.5423   -6.9402 H   0  0  0  0  0  0  0  0  0  0  0  0
  -21.1461    5.4929   -8.4859 H   0  0  0  0  0  0  0  0  0  0  0  0
  -14.9351   -3.4586   -4.6424 H   0  0  0  0  0  0  0  0  0  0  0  0
  -14.8501   -2.3997   -3.1938 H   0  0  0  0  0  0  0  0  0  0  0  0
  -13.2038   -2.8983   -6.6226 H   0  0  0  0  0  0  0  0  0  0  0  0
  -11.9434   -1.6654   -6.2788 H   0  0  0  0  0  0  0  0  0  0  0  0
  -15.9828   -0.2690   -6.6698 H   0  0  0  0  0  0  0  0  0  0  0  0
  -15.7046   -2.0122   -7.0020 H   0  0  0  0  0  0  0  0  0  0  0  0
  -10.1059   -6.8655   -3.2537 H   0  0  0  0  0  0  0  0  0  0  0  0
  -10.9516   -8.0664   -5.2507 H   0  0  0  0  0  0  0  0  0  0  0  0
  -13.2853   -4.6340   -6.3321 H   0  0  0  0  0  0  0  0  0  0  0  0
   -7.9893   -4.1665   -0.9505 H   0  0  0  0  0  0  0  0  0  0  0  0
   -8.6532   -2.8726   -2.0049 H   0  0  0  0  0  0  0  0  0  0  0  0
   -8.2189   -4.4683   -2.7063 H   0  0  0  0  0  0  0  0  0  0  0  0
  -10.4399   -3.9496   -0.6613 H   0  0  0  0  0  0  0  0  0  0  0  0
  -10.0056   -5.5453   -1.3626 H   0  0  0  0  0  0  0  0  0  0  0  0
  -12.5249   -6.9393   -6.8043 H   0  0  0  0  0  0  0  0  0  0  0  0
  -12.9476   -1.2062   -4.0857 H   0  0  0  0  0  0  0  0  0  0  0  0
  -13.7507   -0.8097   -7.7756 H   0  0  0  0  0  0  0  0  0  0  0  0
  -13.6325    0.1075   -6.2356 H   0  0  0  0  0  0  0  0  0  0  0  0
  -18.0814   -0.7937   -1.2688 H   0  0  0  0  0  0  0  0  0  0  0  0
  -19.3572    1.0474   -2.3542 H   0  0  0  0  0  0  0  0  0  0  0  0
  -19.6868    3.4891   -8.5615 H   0  0  0  0  0  0  0  0  0  0  0  0
  -21.9849    6.3320   -6.3134 H   0  0  0  0  0  0  0  0  0  0  0  0
  -21.3759    5.1801   -4.2030 H   0  0  0  0  0  0  0  0  0  0  0  0
  1 29  1  0  0  0  0
  2  3  1  0  0  0  0
  2 11  1  0  0  0  0
  3  1  2  0  0  0  0
  3 26  1  0  0  0  0
  4  5  2  0  0  0  0
  4 33  1  0  0  0  0
  5  7  1  0  0  0  0
  5 34  1  0  0  0  0
  6  7  2  0  0  0  0
  6 32  1  0  0  0  0
  7 30  1  0  0  0  0
  8 31  1  0  0  0  0
  8 35  1  0  0  0  0
  9  2  1  0  0  0  0
  9 36  1  0  0  0  0
  9 37  1  0  0  0  0
 10 25  1  0  0  0  0
 10 38  1  0  0  0  0
 10 39  1  0  0  0  0
 11 40  1  0  0  0  0
 11 41  1  0  0  0  0
 12 13  2  0  0  0  0
 12 18  1  0  0  0  0
 13 14  1  0  0  0  0
 13 42  1  0  0  0  0
 14 43  1  0  0  0  0
 15 21  1  0  0  0  0
 15 44  1  0  0  0  0
 16 45  1  0  0  0  0
 16 46  1  0  0  0  0
 16 47  1  0  0  0  0
 17 16  1  0  0  0  0
 17 48  1  0  0  0  0
 17 49  1  0  0  0  0
 18 17  1  0  0  0  0
 19 18  1  0  0  0  0
 19 20  2  0  0  0  0
 21 14  2  0  0  0  0
 21 50  1  0  0  0  0
 22 12  1  0  0  0  0
 22 15  2  0  0  0  0
 23 19  1  0  0  0  0
 23 22  1  0  0  0  0
 23 24  1  0  0  0  0
 24  9  1  0  0  0  0
 24 10  1  0  0  0  0
 24 51  1  1  0  0  0
 25 11  1  0  0  0  0
 25 52  1  0  0  0  0
 25 53  1  0  0  0  0
 26 27  2  0  0  0  0
 27 28  1  0  0  0  0
 27 54  1  0  0  0  0
 28 29  2  0  0  0  0
 28 55  1  0  0  0  0
 29  4  1  0  0  0  0
 30  8  2  0  0  0  0
 30 56  1  0  0  0  0
 31 32  2  0  0  0  0
 31 57  1  0  0  0  0
 32 58  1  0  0  0  0
 33  6  1  0  0  0  0
M  END
