3qkm_ligand
 OpenBabel08222323353D

 85 89  0  0  1  0  0  0  0  0999 V2000
   28.1440    2.6070   13.9550 C   0  0  0  0  0  0  0  0  0  0  0  0
   28.7290    1.4580   13.1180 C   0  0  1  0  0  0  0  0  0  0  0  0
   29.2960    0.4010   14.0890 C   0  0  0  0  0  0  0  0  0  0  0  0
   27.7160    0.8850   12.3060 O   0  0  0  0  0  0  0  0  0  0  0  0
   30.3940   -0.4390   13.5300 N   0  0  0  0  0  0  0  0  0  0  0  0
   29.9610   -1.7740   13.0410 C   0  0  0  0  0  0  0  0  0  0  0  0
   29.8030   -2.7930   14.1840 C   0  0  0  0  0  0  0  0  0  0  0  0
   31.8910    1.5200   12.2860 C   0  0  0  0  0  0  0  0  0  0  0  0
   31.9800    2.8620   12.7530 C   0  0  0  0  0  0  0  0  0  0  0  0
   31.8310    3.9340   11.8430 C   0  0  0  0  0  0  0  0  0  0  0  0
   31.5720    3.6740   10.4790 C   0  0  0  0  0  0  0  0  0  0  0  0
   31.4810    2.3470   10.0100 C   0  0  0  0  0  0  0  0  0  0  0  0
   31.6350    1.2690   10.9090 C   0  0  0  0  0  0  0  0  0  0  0  0
   31.5140   -0.1360   10.3330 C   0  0  0  0  0  0  0  0  0  0  0  0
   32.2380    3.2180   14.2130 C   0  0  0  0  0  0  0  0  0  0  0  0
   27.5100    5.5110   11.4420 C   0  0  2  0  0  0  0  0  0  0  0  0
   26.7490    6.4200   12.4430 C   0  0  0  0  0  0  0  0  0  0  0  0
   25.8360    5.6190   13.3960 C   0  0  0  0  0  0  0  0  0  0  0  0
   26.6680    4.5480   14.1260 C   0  0  0  0  0  0  0  0  0  0  0  0
   27.3920    3.6380   13.1940 N   0  3  1  0  0  0  0  0  0  0  0  0
   28.2150    4.3440   12.1660 C   0  0  0  0  0  0  0  0  0  0  0  0
   28.5280    6.3550   10.6620 C   0  0  0  0  0  0  0  0  0  0  0  0
   27.7820    6.8470    9.4080 C   0  0  0  0  0  0  0  0  0  0  0  0
   26.5950    5.9900    9.2660 N   0  0  0  0  0  0  0  0  0  0  0  0
   26.5820    4.9830   10.3430 C   0  0  0  0  0  0  0  0  0  0  0  0
   25.5190    6.3000    8.4820 C   0  0  0  0  0  0  0  0  0  0  0  0
   24.4000    5.4620    8.2230 C   0  0  0  0  0  0  0  0  0  0  0  0
   23.3660    5.9490    7.3850 C   0  0  0  0  0  0  0  0  0  0  0  0
   23.4640    7.1790    6.8560 N   0  0  0  0  0  0  0  0  0  0  0  0
   24.5460    7.9220    7.1380 C   0  0  0  0  0  0  0  0  0  0  0  0
   25.5620    7.5260    7.9230 N   0  0  0  0  0  0  0  0  0  0  0  0
   24.2810    4.1620    8.7710 C   0  0  0  0  0  0  0  0  0  0  0  0
   23.1460    3.3610    8.4880 C   0  0  0  0  0  0  0  0  0  0  0  0
   22.1210    3.8530    7.6460 C   0  0  0  0  0  0  0  0  0  0  0  0
   22.2340    5.1500    7.0960 C   0  0  0  0  0  0  0  0  0  0  0  0
   29.9950   -4.0900   13.6540 O   0  0  0  0  0  0  0  0  0  0  0  0
   29.7780   -6.4560   13.9040 C   0  0  0  0  0  0  0  0  0  0  0  0
   29.7720   -5.0980   14.6270 C   0  0  0  0  0  0  0  0  0  0  0  0
   32.0670    0.1130   13.4460 S   0  0  0  0  0  0  0  0  0  0  0  0
   32.4400    0.5790   14.7880 O   0  0  0  0  0  0  0  0  0  0  0  0
   32.8890   -0.9520   12.8530 O   0  0  0  0  0  0  0  0  0  0  0  0
   28.9765    3.1076   14.4710 H   0  0  0  0  0  0  0  0  0  0  0  0
   27.4611    2.1703   14.6986 H   0  0  0  0  0  0  0  0  0  0  0  0
   29.5357    1.8406   12.4755 H   0  0  0  0  0  0  0  0  0  0  0  0
   28.4734   -0.2657   14.3869 H   0  0  0  0  0  0  0  0  0  0  0  0
   29.6834    0.9242   14.9756 H   0  0  0  0  0  0  0  0  0  0  0  0
   27.0141    0.5615   12.8584 H   0  0  0  0  0  0  0  0  0  0  0  0
   30.7125   -2.1517   12.3321 H   0  0  0  0  0  0  0  0  0  0  0  0
   28.9942   -1.6660   12.5276 H   0  0  0  0  0  0  0  0  0  0  0  0
   28.7945   -2.7136   14.6160 H   0  0  0  0  0  0  0  0  0  0  0  0
   30.5528   -2.5956   14.9643 H   0  0  0  0  0  0  0  0  0  0  0  0
   31.9156    4.9566   12.1926 H   0  0  0  0  0  0  0  0  0  0  0  0
   31.4424    4.4995    9.7884 H   0  0  0  0  0  0  0  0  0  0  0  0
   31.2929    2.1547    8.9599 H   0  0  0  0  0  0  0  0  0  0  0  0
   31.6539   -0.8747   11.1359 H   0  0  0  0  0  0  0  0  0  0  0  0
   32.2836   -0.2834    9.5610 H   0  0  0  0  0  0  0  0  0  0  0  0
   30.5171   -0.2645    9.8862 H   0  0  0  0  0  0  0  0  0  0  0  0
   32.3327    2.2952   14.8042 H   0  0  0  0  0  0  0  0  0  0  0  0
   31.3990    3.8158   14.5985 H   0  0  0  0  0  0  0  0  0  0  0  0
   33.1684    3.7997   14.2897 H   0  0  0  0  0  0  0  0  0  0  0  0
   26.1292    7.1289   11.8743 H   0  0  0  0  0  0  0  0  0  0  0  0
   27.4842    6.9756   13.0436 H   0  0  0  0  0  0  0  0  0  0  0  0
   25.0387    5.1313   12.8160 H   0  0  0  0  0  0  0  0  0  0  0  0
   25.3881    6.3009   14.1338 H   0  0  0  0  0  0  0  0  0  0  0  0
   25.9926    3.9449   14.7506 H   0  0  0  0  0  0  0  0  0  0  0  0
   27.4060    5.0535   14.7662 H   0  0  0  0  0  0  0  0  0  0  0  0
   26.6815    3.1439   12.6771 H   0  0  0  0  0  0  0  0  0  0  0  0
   29.1101    4.7447   12.6643 H   0  0  0  0  0  0  0  0  0  0  0  0
   28.5167    3.6066   11.4076 H   0  0  0  0  0  0  0  0  0  0  0  0
   29.3964    5.7430   10.3769 H   0  0  0  0  0  0  0  0  0  0  0  0
   28.8643    7.2088   11.2686 H   0  0  0  0  0  0  0  0  0  0  0  0
   28.4263    6.7539    8.5213 H   0  0  0  0  0  0  0  0  0  0  0  0
   27.4798    7.8972    9.5330 H   0  0  0  0  0  0  0  0  0  0  0  0
   25.5616    4.8582   10.7345 H   0  0  0  0  0  0  0  0  0  0  0  0
   26.9505    4.0178    9.9654 H   0  0  0  0  0  0  0  0  0  0  0  0
   24.6041    8.9123    6.7011 H   0  0  0  0  0  0  0  0  0  0  0  0
   25.0647    3.7757    9.4126 H   0  0  0  0  0  0  0  0  0  0  0  0
   23.0633    2.3693    8.9178 H   0  0  0  0  0  0  0  0  0  0  0  0
   21.2552    3.2396    7.4243 H   0  0  0  0  0  0  0  0  0  0  0  0
   21.4517    5.5338    6.4512 H   0  0  0  0  0  0  0  0  0  0  0  0
   29.6070   -7.2608   14.6341 H   0  0  0  0  0  0  0  0  0  0  0  0
   30.7513   -6.6062   13.4140 H   0  0  0  0  0  0  0  0  0  0  0  0
   28.9800   -6.4720   13.1471 H   0  0  0  0  0  0  0  0  0  0  0  0
   28.7996   -4.9382   15.1158 H   0  0  0  0  0  0  0  0  0  0  0  0
   30.5709   -5.0725   15.3827 H   0  0  0  0  0  0  0  0  0  0  0  0
  1  2  1  0  0  0  0
  1 42  1  0  0  0  0
  1 43  1  0  0  0  0
  2  3  1  0  0  0  0
  2  4  1  0  0  0  0
  2 44  1  6  0  0  0
  3  5  1  0  0  0  0
  3 45  1  0  0  0  0
  3 46  1  0  0  0  0
  4 47  1  0  0  0  0
  5  6  1  0  0  0  0
  5 39  1  0  0  0  0
  6  7  1  0  0  0  0
  6 48  1  0  0  0  0
  6 49  1  0  0  0  0
  7 36  1  0  0  0  0
  7 50  1  0  0  0  0
  7 51  1  0  0  0  0
  8  9  2  0  0  0  0
  8 13  1  0  0  0  0
  9 10  1  0  0  0  0
  9 15  1  0  0  0  0
 10 11  2  0  0  0  0
 10 52  1  0  0  0  0
 11 53  1  0  0  0  0
 12 11  1  0  0  0  0
 12 54  1  0  0  0  0
 13 12  2  0  0  0  0
 13 14  1  0  0  0  0
 14 55  1  0  0  0  0
 14 56  1  0  0  0  0
 14 57  1  0  0  0  0
 15 58  1  0  0  0  0
 15 59  1  0  0  0  0
 15 60  1  0  0  0  0
 16 17  1  1  0  0  0
 16 21  1  0  0  0  0
 16 22  1  0  0  0  0
 16 25  1  0  0  0  0
 17 61  1  0  0  0  0
 17 62  1  0  0  0  0
 18 17  1  0  0  0  0
 18 63  1  0  0  0  0
 18 64  1  0  0  0  0
 19 18  1  0  0  0  0
 19 20  1  0  0  0  0
 19 65  1  0  0  0  0
 19 66  1  0  0  0  0
 20  1  1  0  0  0  0
 20 21  1  0  0  0  0
 20 67  1  6  0  0  0
 21 68  1  0  0  0  0
 21 69  1  0  0  0  0
 22 23  1  0  0  0  0
 22 70  1  0  0  0  0
 22 71  1  0  0  0  0
 23 24  1  0  0  0  0
 23 72  1  0  0  0  0
 23 73  1  0  0  0  0
 24 25  1  0  0  0  0
 24 26  1  0  0  0  0
 25 74  1  0  0  0  0
 25 75  1  0  0  0  0
 26 27  2  0  0  0  0
 26 31  1  0  0  0  0
 27 28  1  0  0  0  0
 27 32  1  0  0  0  0
 28 29  2  0  0  0  0
 28 35  1  0  0  0  0
 29 30  1  0  0  0  0
 30 31  2  0  0  0  0
 30 76  1  0  0  0  0
 32 33  2  0  0  0  0
 32 77  1  0  0  0  0
 33 34  1  0  0  0  0
 33 78  1  0  0  0  0
 34 35  2  0  0  0  0
 34 79  1  0  0  0  0
 35 80  1  0  0  0  0
 36 38  1  0  0  0  0
 37 81  1  0  0  0  0
 37 82  1  0  0  0  0
 37 83  1  0  0  0  0
 38 37  1  0  0  0  0
 38 84  1  0  0  0  0
 38 85  1  0  0  0  0
 39  8  1  0  0  0  0
 39 40  2  0  0  0  0
 39 41  2  0  0  0  0
M  CHG  1  20   1
M  END
