3qo3_ligand
 OpenBabel08222323353D

 43 45  0  0  1  0  0  0  0  0999 V2000
  -41.5660  -15.0600  -21.6770 P   0  0  0  0  0  0  0  0  0  0  0  0
  -42.6320  -16.1620  -21.5600 O   0  0  0  0  0  1  0  0  0  0  0  0
  -40.2720  -15.5530  -22.2790 O   0  0  0  0  0  1  0  0  0  0  0  0
  -42.0970  -13.7920  -22.3010 O   0  0  0  0  0  0  0  0  0  0  0  0
  -41.5790  -15.5960  -18.9640 P   0  0  1  0  0  0  0  0  0  0  0  0
  -43.0320  -15.3430  -18.6270 O   0  0  0  0  0  1  0  0  0  0  0  0
  -41.0840  -16.9770  -19.3430 O   0  0  0  0  0  0  0  0  0  0  0  0
  -41.1810  -14.6250  -20.1730 O   0  0  0  0  0  0  0  0  0  0  0  0
  -39.9800  -16.1070  -16.7890 P   0  0  1  0  0  0  0  0  0  0  0  0
  -39.8680  -15.4670  -15.4090 O   0  0  0  0  0  1  0  0  0  0  0  0
  -40.6630  -17.4810  -16.9280 O   0  0  0  0  0  0  0  0  0  0  0  0
  -40.6910  -15.0360  -17.7530 O   0  0  0  0  0  0  0  0  0  0  0  0
  -38.4850  -16.2400  -17.4120 O   0  0  0  0  0  0  0  0  0  0  0  0
  -38.1610  -15.7850  -18.7440 C   0  0  0  0  0  0  0  0  0  0  0  0
  -37.1700  -14.6290  -18.6670 C   0  0  1  0  0  0  0  0  0  0  0  0
  -37.6680  -13.4960  -19.3900 O   0  0  0  0  0  0  0  0  0  0  0  0
  -36.9470  -14.1850  -17.2300 C   0  0  1  0  0  0  0  0  0  0  0  0
  -35.5400  -14.1920  -16.9490 O   0  0  0  0  0  0  0  0  0  0  0  0
  -37.5060  -12.7780  -17.1610 C   0  0  1  0  0  0  0  0  0  0  0  0
  -36.6710  -11.9180  -16.3820 O   0  0  0  0  0  0  0  0  0  0  0  0
  -37.5680  -12.3080  -18.6060 C   0  0  2  0  0  0  0  0  0  0  0  0
  -38.7640  -11.4580  -18.8130 N   0  0  0  0  0  0  0  0  0  0  0  0
  -40.0270  -11.8090  -18.5050 C   0  0  0  0  0  0  0  0  0  0  0  0
  -40.9010  -10.8190  -18.8060 N   0  0  0  0  0  0  0  0  0  0  0  0
  -40.1900   -9.8030  -19.3230 C   0  0  0  0  0  0  0  0  0  0  0  0
  -40.5020   -8.4540  -19.8480 C   0  0  0  0  0  0  0  0  0  0  0  0
  -41.7800   -7.9980  -19.8760 N   0  0  0  0  0  0  0  0  0  0  0  0
  -39.4710   -7.7000  -20.2970 N   0  0  0  0  0  0  0  0  0  0  0  0
  -38.2010   -8.1470  -20.2710 C   0  0  0  0  0  0  0  0  0  0  0  0
  -37.8450   -9.3630  -19.8080 N   0  0  0  0  0  0  0  0  0  0  0  0
  -38.7780  -10.2250  -19.3280 C   0  0  0  0  0  0  0  0  0  0  0  0
  -39.0784  -15.4467  -19.2478 H   0  0  0  0  0  0  0  0  0  0  0  0
  -37.7134  -16.6125  -19.3140 H   0  0  0  0  0  0  0  0  0  0  0  0
  -36.2130  -14.9530  -19.1020 H   0  0  0  0  0  0  0  0  0  0  0  0
  -37.4725  -14.8467  -16.5257 H   0  0  0  0  0  0  0  0  0  0  0  0
  -35.3960  -13.9151  -16.0518 H   0  0  0  0  0  0  0  0  0  0  0  0
  -38.5141  -12.7923  -16.7211 H   0  0  0  0  0  0  0  0  0  0  0  0
  -35.8061  -11.8789  -16.7731 H   0  0  0  0  0  0  0  0  0  0  0  0
  -36.6612  -11.7441  -18.8701 H   0  0  0  0  0  0  0  0  0  0  0  0
  -40.3096  -12.7664  -18.0696 H   0  0  0  0  0  0  0  0  0  0  0  0
  -41.9833   -7.0576  -20.2438 H   0  0  0  0  0  0  0  0  0  0  0  0
  -42.5466   -8.5923  -19.5295 H   0  0  0  0  0  0  0  0  0  0  0  0
  -37.4208   -7.4928  -20.6431 H   0  0  0  0  0  0  0  0  0  0  0  0
  1  2  1  0  0  0  0
  1  3  1  0  0  0  0
  1  4  2  0  0  0  0
  5  6  1  1  0  0  0
  5  7  2  0  0  0  0
  5  8  1  0  0  0  0
  8  1  1  0  0  0  0
  9 10  1  1  0  0  0
  9 11  2  0  0  0  0
  9 12  1  0  0  0  0
  9 13  1  0  0  0  0
 12  5  1  0  0  0  0
 13 14  1  0  0  0  0
 14 15  1  0  0  0  0
 14 32  1  0  0  0  0
 14 33  1  0  0  0  0
 15 16  1  0  0  0  0
 15 17  1  0  0  0  0
 15 34  1  6  0  0  0
 16 21  1  0  0  0  0
 17 18  1  0  0  0  0
 17 19  1  0  0  0  0
 17 35  1  1  0  0  0
 18 36  1  0  0  0  0
 19 20  1  0  0  0  0
 19 21  1  0  0  0  0
 19 37  1  1  0  0  0
 20 38  1  0  0  0  0
 21 22  1  0  0  0  0
 21 39  1  6  0  0  0
 22 23  1  0  0  0  0
 22 31  1  0  0  0  0
 23 24  2  0  0  0  0
 23 40  1  0  0  0  0
 24 25  1  0  0  0  0
 25 26  2  0  0  0  0
 25 31  1  0  0  0  0
 26 27  1  0  0  0  0
 26 28  1  0  0  0  0
 27 41  1  0  0  0  0
 27 42  1  0  0  0  0
 28 29  2  0  0  0  0
 29 30  1  0  0  0  0
 29 43  1  0  0  0  0
 30 31  2  0  0  0  0
M  END
