3qo9_ligand
 OpenBabel08222323353D

 81 83  0  0  1  0  0  0  0  0999 V2000
   46.8950  -30.8140   41.9960 C   0  0  0  0  0  0  0  0  0  0  0  0
   47.9920  -31.6330   41.8070 N   0  0  0  0  0  0  0  0  0  0  0  0
   45.9050  -31.2230   42.8290 O   0  0  0  0  0  0  0  0  0  0  0  0
   53.2030  -29.2090   36.3860 S   0  0  0  0  0  0  0  0  0  0  0  0
   46.8030  -29.5720   41.3130 C   0  0  0  0  0  0  0  0  0  0  0  0
   49.0060  -30.0530   40.3050 N   0  0  0  0  0  0  0  0  0  0  0  0
   50.0890  -32.1120   40.8640 O   0  0  0  0  0  0  0  0  0  0  0  0
   47.9010  -29.2210   40.4780 C   0  0  0  0  0  0  0  0  0  0  0  0
   50.7710  -28.4880   40.0020 O   0  0  0  0  0  0  0  0  0  0  0  0
   49.0400  -31.2710   40.9920 C   0  0  0  0  0  0  0  0  0  0  0  0
   52.3280  -29.3920   37.7470 O   0  0  0  0  0  0  0  0  0  0  0  0
   45.7150  -28.7370   41.4820 C   0  0  0  0  0  0  0  0  0  0  0  0
   50.0250  -30.5430   37.1850 O   0  0  0  0  0  0  0  0  0  0  0  0
   50.1800  -29.6530   39.4480 C   0  0  2  0  0  0  0  0  0  0  0  0
   49.5040  -26.3140   40.1590 O   0  0  0  0  0  0  0  0  0  0  0  0
   51.1470  -27.6230   38.9500 C   0  0  1  0  0  0  0  0  0  0  0  0
   54.5810  -28.6830   36.6830 O   0  0  0  0  0  0  0  0  0  0  0  0
   51.1750  -28.5040   37.6950 C   0  0  2  0  0  0  0  0  0  0  0  0
   53.3370  -30.4900   35.5890 O   0  0  0  0  0  0  0  0  0  0  0  0
   49.9190  -29.3490   37.9390 C   0  0  1  0  0  0  0  0  0  0  0  0
   50.1360  -26.4360   38.9180 C   0  0  0  0  0  0  0  0  0  0  0  0
   51.1970  -27.7110   36.3750 C   0  0  0  0  0  0  0  0  0  0  0  0
   52.3410  -28.0660   35.5660 C   0  0  0  0  0  0  0  0  0  0  0  0
   48.8750  -32.7670   35.8170 C   0  0  0  0  0  0  0  0  0  0  0  0
   47.0820  -30.5930   37.1000 C   0  0  0  0  0  0  0  0  0  0  0  0
   48.7420  -29.9140   34.6440 C   0  0  0  0  0  0  0  0  0  0  0  0
   47.6430  -33.2420   35.0420 C   0  0  0  0  0  0  0  0  0  0  0  0
   50.1370  -32.9840   34.9570 C   0  0  0  0  0  0  0  0  0  0  0  0
   49.0070  -33.5810   37.1240 C   0  0  0  0  0  0  0  0  0  0  0  0
   48.3750  -23.5990   39.8710 C   0  0  0  0  0  0  0  0  0  0  0  0
   46.8200  -26.0880   38.8940 C   0  0  0  0  0  0  0  0  0  0  0  0
   47.3410  -25.7180   41.8360 C   0  0  0  0  0  0  0  0  0  0  0  0
   47.0980  -22.8350   40.2580 C   0  0  0  0  0  0  0  0  0  0  0  0
   49.5310  -23.1170   40.7820 C   0  0  0  0  0  0  0  0  0  0  0  0
   48.7200  -23.3110   38.4010 C   0  0  0  0  0  0  0  0  0  0  0  0
   48.7160  -30.9080   36.2280 Si  0  0  0  0  0  0  0  0  0  0  0  0
   48.0820  -25.4650   40.1410 Si  0  0  0  0  0  0  0  0  0  0  0  0
   50.2520  -26.7490   35.9600 N   0  0  0  0  0  0  0  0  0  0  0  0
   48.0252  -32.5152   42.2766 H   0  0  0  0  0  0  0  0  0  0  0  0
   47.8769  -28.2664   39.9545 H   0  0  0  0  0  0  0  0  0  0  0  0
   44.9933  -29.2088   42.1650 H   0  0  0  0  0  0  0  0  0  0  0  0
   45.2354  -28.5581   40.5084 H   0  0  0  0  0  0  0  0  0  0  0  0
   46.0502  -27.7795   41.9072 H   0  0  0  0  0  0  0  0  0  0  0  0
   50.9036  -30.4803   39.4928 H   0  0  0  0  0  0  0  0  0  0  0  0
   52.1544  -27.2175   39.1249 H   0  0  0  0  0  0  0  0  0  0  0  0
   48.9727  -28.8235   37.7431 H   0  0  0  0  0  0  0  0  0  0  0  0
   50.6748  -25.5044   38.6902 H   0  0  0  0  0  0  0  0  0  0  0  0
   49.3802  -26.6219   38.1407 H   0  0  0  0  0  0  0  0  0  0  0  0
   52.5895  -27.6528   34.5896 H   0  0  0  0  0  0  0  0  0  0  0  0
   46.2513  -30.8495   36.4260 H   0  0  0  0  0  0  0  0  0  0  0  0
   47.0137  -29.5310   37.3784 H   0  0  0  0  0  0  0  0  0  0  0  0
   47.0242  -31.2141   38.0060 H   0  0  0  0  0  0  0  0  0  0  0  0
   47.8661  -30.1759   34.0324 H   0  0  0  0  0  0  0  0  0  0  0  0
   49.6612  -30.1406   34.0839 H   0  0  0  0  0  0  0  0  0  0  0  0
   48.7139  -28.8409   34.8840 H   0  0  0  0  0  0  0  0  0  0  0  0
   47.7454  -34.3126   34.8110 H   0  0  0  0  0  0  0  0  0  0  0  0
   47.5565  -32.6715   34.1055 H   0  0  0  0  0  0  0  0  0  0  0  0
   46.7420  -33.0833   35.6527 H   0  0  0  0  0  0  0  0  0  0  0  0
   50.2367  -34.0525   34.7153 H   0  0  0  0  0  0  0  0  0  0  0  0
   51.0236  -32.6503   35.5161 H   0  0  0  0  0  0  0  0  0  0  0  0
   50.0507  -32.4041   34.0263 H   0  0  0  0  0  0  0  0  0  0  0  0
   49.0982  -34.6502   36.8824 H   0  0  0  0  0  0  0  0  0  0  0  0
   48.1150  -33.4208   37.7474 H   0  0  0  0  0  0  0  0  0  0  0  0
   49.9017  -33.2514   37.6725 H   0  0  0  0  0  0  0  0  0  0  0  0
   45.9121  -25.4695   38.9509 H   0  0  0  0  0  0  0  0  0  0  0  0
   46.5659  -27.1339   39.1208 H   0  0  0  0  0  0  0  0  0  0  0  0
   47.2436  -26.0250   37.8808 H   0  0  0  0  0  0  0  0  0  0  0  0
   46.3845  -25.1789   41.9022 H   0  0  0  0  0  0  0  0  0  0  0  0
   48.0326  -25.3328   42.5998 H   0  0  0  0  0  0  0  0  0  0  0  0
   47.1693  -26.7913   42.0047 H   0  0  0  0  0  0  0  0  0  0  0  0
   47.2555  -21.7570   40.1062 H   0  0  0  0  0  0  0  0  0  0  0  0
   46.8628  -23.0258   41.3155 H   0  0  0  0  0  0  0  0  0  0  0  0
   46.2622  -23.1755   39.6292 H   0  0  0  0  0  0  0  0  0  0  0  0
   49.6978  -22.0412   40.6244 H   0  0  0  0  0  0  0  0  0  0  0  0
   50.4486  -23.6705   40.5339 H   0  0  0  0  0  0  0  0  0  0  0  0
   49.2676  -23.2968   41.8347 H   0  0  0  0  0  0  0  0  0  0  0  0
   48.8847  -22.2316   38.2677 H   0  0  0  0  0  0  0  0  0  0  0  0
   47.8888  -23.6371   37.7586 H   0  0  0  0  0  0  0  0  0  0  0  0
   49.6334  -23.8581   38.1247 H   0  0  0  0  0  0  0  0  0  0  0  0
   50.3636  -26.2757   35.0520 H   0  0  0  0  0  0  0  0  0  0  0  0
   49.4505  -26.5200   36.5650 H   0  0  0  0  0  0  0  0  0  0  0  0
  1  3  2  0  0  0  0
  2  1  1  0  0  0  0
  2 39  1  0  0  0  0
  4 17  2  0  0  0  0
  4 19  2  0  0  0  0
  5  1  1  0  0  0  0
  5 12  1  0  0  0  0
  6  8  1  0  0  0  0
  6 10  1  0  0  0  0
  8  5  2  0  0  0  0
  8 40  1  0  0  0  0
  9 14  1  0  0  0  0
 10  2  1  0  0  0  0
 10  7  2  0  0  0  0
 11  4  1  0  0  0  0
 12 41  1  0  0  0  0
 12 42  1  0  0  0  0
 12 43  1  0  0  0  0
 13 36  1  0  0  0  0
 14  6  1  0  0  0  0
 14 44  1  1  0  0  0
 15 21  1  0  0  0  0
 16  9  1  0  0  0  0
 16 18  1  0  0  0  0
 16 45  1  1  0  0  0
 18 11  1  1  0  0  0
 18 20  1  0  0  0  0
 18 22  1  0  0  0  0
 20 13  1  0  0  0  0
 20 14  1  0  0  0  0
 20 46  1  6  0  0  0
 21 16  1  0  0  0  0
 21 47  1  0  0  0  0
 21 48  1  0  0  0  0
 22 23  2  0  0  0  0
 22 38  1  0  0  0  0
 23  4  1  0  0  0  0
 23 49  1  0  0  0  0
 24 27  1  0  0  0  0
 24 28  1  0  0  0  0
 24 29  1  0  0  0  0
 25 50  1  0  0  0  0
 25 51  1  0  0  0  0
 25 52  1  0  0  0  0
 26 53  1  0  0  0  0
 26 54  1  0  0  0  0
 26 55  1  0  0  0  0
 27 56  1  0  0  0  0
 27 57  1  0  0  0  0
 27 58  1  0  0  0  0
 28 59  1  0  0  0  0
 28 60  1  0  0  0  0
 28 61  1  0  0  0  0
 29 62  1  0  0  0  0
 29 63  1  0  0  0  0
 29 64  1  0  0  0  0
 30 33  1  0  0  0  0
 30 34  1  0  0  0  0
 30 35  1  0  0  0  0
 30 37  1  0  0  0  0
 31 65  1  0  0  0  0
 31 66  1  0  0  0  0
 31 67  1  0  0  0  0
 32 68  1  0  0  0  0
 32 69  1  0  0  0  0
 32 70  1  0  0  0  0
 33 71  1  0  0  0  0
 33 72  1  0  0  0  0
 33 73  1  0  0  0  0
 34 74  1  0  0  0  0
 34 75  1  0  0  0  0
 34 76  1  0  0  0  0
 35 77  1  0  0  0  0
 35 78  1  0  0  0  0
 35 79  1  0  0  0  0
 36 24  1  0  0  0  0
 36 25  1  0  0  0  0
 36 26  1  0  0  0  0
 37 15  1  0  0  0  0
 37 31  1  0  0  0  0
 37 32  1  0  0  0  0
 38 80  1  0  0  0  0
 38 81  1  0  0  0  0
M  END
