3qtr_ligand
 OpenBabel08222323353D

 36 38  0  0  1  0  0  0  0  0999 V2000
   91.7380   81.8750  -51.0020 N   0  0  0  0  0  0  0  0  0  0  0  0
   92.8210   81.1210  -51.3000 C   0  0  0  0  0  0  0  0  0  0  0  0
   93.3290   81.1370  -52.5370 N   0  0  0  0  0  0  0  0  0  0  0  0
   93.3100   80.3550  -50.2310 C   0  0  0  0  0  0  0  0  0  0  0  0
   94.4160   79.4660  -50.2440 C   0  0  1  0  0  0  0  0  0  0  0  0
   94.8760   78.6390  -49.0580 C   0  0  0  0  0  0  0  0  0  0  0  0
   93.9210   77.8670  -48.2200 C   0  0  0  0  0  0  0  0  0  0  0  0
   94.3930   77.1080  -47.1180 C   0  0  0  0  0  0  0  0  0  0  0  0
   95.7650   77.0490  -46.7690 C   0  0  0  0  0  0  0  0  0  0  0  0
   96.7440   77.7800  -47.5560 C   0  0  0  0  0  0  0  0  0  0  0  0
   96.3040   78.5690  -48.6940 C   0  0  0  0  0  0  0  0  0  0  0  0
   95.1300   79.3060  -51.3820 O   0  0  0  0  0  0  0  0  0  0  0  0
   92.3400   80.6440  -48.8520 S   0  0  0  0  0  0  0  0  0  0  0  0
   91.3620   81.7220  -49.7370 C   0  0  0  0  0  0  0  0  0  0  0  0
   90.2650   82.4100  -49.2730 N   0  0  0  0  0  0  0  0  0  0  0  0
   89.6400   82.4060  -48.0430 C   0  0  0  0  0  0  0  0  0  0  0  0
   88.4920   83.3120  -47.8780 C   0  0  0  0  0  0  0  0  0  0  0  0
   87.7790   83.3710  -46.6240 C   0  0  0  0  0  0  0  0  0  0  0  0
   88.1790   82.5310  -45.5010 C   0  0  0  0  0  0  0  0  0  0  0  0
   89.3060   81.6140  -45.6160 C   0  0  0  0  0  0  0  0  0  0  0  0
   90.0320   81.5460  -46.8650 C   0  0  0  0  0  0  0  0  0  0  0  0
   94.1536   80.5625  -52.7626 H   0  0  0  0  0  0  0  0  0  0  0  0
   92.8957   81.7239  -53.2641 H   0  0  0  0  0  0  0  0  0  0  0  0
   95.0678   80.2922  -49.9236 H   0  0  0  0  0  0  0  0  0  0  0  0
   92.8621   77.8840  -48.4513 H   0  0  0  0  0  0  0  0  0  0  0  0
   93.6780   76.5531  -46.5214 H   0  0  0  0  0  0  0  0  0  0  0  0
   96.0838   76.4598  -45.9167 H   0  0  0  0  0  0  0  0  0  0  0  0
   97.7954   77.7369  -47.2957 H   0  0  0  0  0  0  0  0  0  0  0  0
   97.0339   79.1128  -49.2827 H   0  0  0  0  0  0  0  0  0  0  0  0
   95.0865   78.3977  -51.6567 H   0  0  0  0  0  0  0  0  0  0  0  0
   89.8343   83.0389  -49.9658 H   0  0  0  0  0  0  0  0  0  0  0  0
   88.1793   83.9399  -48.7045 H   0  0  0  0  0  0  0  0  0  0  0  0
   86.9380   84.0464  -46.5161 H   0  0  0  0  0  0  0  0  0  0  0  0
   87.6305   82.5894  -44.5678 H   0  0  0  0  0  0  0  0  0  0  0  0
   89.5960   80.9917  -44.7771 H   0  0  0  0  0  0  0  0  0  0  0  0
   90.8715   80.8664  -46.9572 H   0  0  0  0  0  0  0  0  0  0  0  0
  1  2  1  0  0  0  0
  1 14  2  0  0  0  0
  2  3  1  0  0  0  0
  2  4  2  0  0  0  0
  3 22  1  0  0  0  0
  3 23  1  0  0  0  0
  4  5  1  0  0  0  0
  4 13  1  0  0  0  0
  5  6  1  0  0  0  0
  5 12  1  0  0  0  0
  5 24  1  1  0  0  0
  6  7  2  0  0  0  0
  6 11  1  0  0  0  0
  7  8  1  0  0  0  0
  7 25  1  0  0  0  0
  8  9  2  0  0  0  0
  8 26  1  0  0  0  0
  9 10  1  0  0  0  0
  9 27  1  0  0  0  0
 10 11  2  0  0  0  0
 10 28  1  0  0  0  0
 11 29  1  0  0  0  0
 12 30  1  0  0  0  0
 13 14  1  0  0  0  0
 14 15  1  0  0  0  0
 15 16  1  0  0  0  0
 15 31  1  0  0  0  0
 16 17  2  0  0  0  0
 16 21  1  0  0  0  0
 17 18  1  0  0  0  0
 17 32  1  0  0  0  0
 18 19  2  0  0  0  0
 18 33  1  0  0  0  0
 19 20  1  0  0  0  0
 19 34  1  0  0  0  0
 20 21  2  0  0  0  0
 20 35  1  0  0  0  0
 21 36  1  0  0  0  0
M  END
