3qup_ligand
 OpenBabel08222323353D

 60 65  0  0  1  0  0  0  0  0999 V2000
   10.4110   -7.6330   14.6510 C   0  0  1  0  0  0  0  0  0  0  0  0
    9.0600   -7.0270   14.8810 C   0  0  0  0  0  0  0  0  0  0  0  0
   10.1140   -9.1220   14.7860 C   0  0  0  0  0  0  0  0  0  0  0  0
   11.0310   -7.3660   13.2940 C   0  0  0  0  0  0  0  0  0  0  0  0
   11.4010   -7.1810   15.6740 C   0  0  0  0  0  0  0  0  0  0  0  0
    8.1400   -7.9940   15.2020 C   0  0  0  0  0  0  0  0  0  0  0  0
    8.6740   -5.7040   14.8030 C   0  0  0  0  0  0  0  0  0  0  0  0
    8.7300   -9.2630   15.2120 N   0  0  0  0  0  0  0  0  0  0  0  0
   12.4500   -6.9770   13.5480 N   0  3  1  0  0  0  0  0  0  0  0  0
   12.7510   -7.1270   14.9920 C   0  0  0  0  0  0  0  0  0  0  0  0
    6.8250   -7.6850   15.4460 C   0  0  0  0  0  0  0  0  0  0  0  0
    7.3540   -5.3730   15.0490 C   0  0  0  0  0  0  0  0  0  0  0  0
    7.9510  -10.4290   15.1240 C   0  0  0  0  0  0  0  0  0  0  0  0
   13.4640   -7.6100   12.6550 C   0  0  2  0  0  0  0  0  0  0  0  0
    6.4340   -6.3650   15.3650 C   0  0  0  0  0  0  0  0  0  0  0  0
    8.5430  -11.6450   14.6620 C   0  0  0  0  0  0  0  0  0  0  0  0
    6.7560  -10.4270   15.4130 O   0  0  0  0  0  0  0  0  0  0  0  0
   14.8460   -7.0420   12.9640 C   0  0  0  0  0  0  0  0  0  0  0  0
   13.1270   -7.2050   11.2400 C   0  0  0  0  0  0  0  0  0  0  0  0
    9.8320  -12.1490   14.6400 C   0  0  0  0  0  0  0  0  0  0  0  0
    7.7680  -12.6110   14.0910 N   0  0  0  0  0  0  0  0  0  0  0  0
   15.8630   -7.5510   11.9460 C   0  0  0  0  0  0  0  0  0  0  0  0
   14.0820   -7.7900   10.2980 N   0  3  0  0  0  0  0  0  0  0  0  0
    9.8090  -13.4370   14.0360 C   0  0  0  0  0  0  0  0  0  0  0  0
    8.4950  -13.6980   13.6990 C   0  0  0  0  0  0  0  0  0  0  0  0
   15.4130   -7.2160   10.5330 C   0  0  0  0  0  0  0  0  0  0  0  0
   10.7790  -14.3920   13.7520 C   0  0  0  0  0  0  0  0  0  0  0  0
    8.0610  -14.8540   13.0850 C   0  0  0  0  0  0  0  0  0  0  0  0
   10.3600  -15.5620   13.1450 C   0  0  0  0  0  0  0  0  0  0  0  0
    9.0420  -15.7820   12.8190 C   0  0  0  0  0  0  0  0  0  0  0  0
   11.2700  -16.5290   12.8460 F   0  0  0  0  0  0  0  0  0  0  0  0
   10.7834   -9.5707   15.5347 H   0  0  0  0  0  0  0  0  0  0  0  0
   10.2600   -9.6220   13.8171 H   0  0  0  0  0  0  0  0  0  0  0  0
   10.4977   -6.5489   12.7862 H   0  0  0  0  0  0  0  0  0  0  0  0
   10.9906   -8.2725   12.6722 H   0  0  0  0  0  0  0  0  0  0  0  0
   11.4297   -7.8930   16.5120 H   0  0  0  0  0  0  0  0  0  0  0  0
   11.1275   -6.1838   16.0492 H   0  0  0  0  0  0  0  0  0  0  0  0
    9.3957   -4.9350   14.5523 H   0  0  0  0  0  0  0  0  0  0  0  0
   12.5054   -5.9904   13.3489 H   0  0  0  0  0  0  0  0  0  0  0  0
   13.3131   -8.0547   15.1747 H   0  0  0  0  0  0  0  0  0  0  0  0
   13.3333   -6.2677   15.3561 H   0  0  0  0  0  0  0  0  0  0  0  0
    6.1104   -8.4606   15.6966 H   0  0  0  0  0  0  0  0  0  0  0  0
    7.0366   -4.3379   14.9952 H   0  0  0  0  0  0  0  0  0  0  0  0
   13.4565   -8.7039   12.7702 H   0  0  0  0  0  0  0  0  0  0  0  0
    5.3995   -6.0990   15.5496 H   0  0  0  0  0  0  0  0  0  0  0  0
   15.1517   -7.3576   13.9724 H   0  0  0  0  0  0  0  0  0  0  0  0
   14.8059   -5.9436   12.9199 H   0  0  0  0  0  0  0  0  0  0  0  0
   13.1639   -6.1086   11.1588 H   0  0  0  0  0  0  0  0  0  0  0  0
   12.1143   -7.5571   10.9942 H   0  0  0  0  0  0  0  0  0  0  0  0
   10.7175  -11.6432   15.0220 H   0  0  0  0  0  0  0  0  0  0  0  0
    6.7485  -12.5296   13.9692 H   0  0  0  0  0  0  0  0  0  0  0  0
   15.9607   -8.6421   12.0459 H   0  0  0  0  0  0  0  0  0  0  0  0
   16.8366   -7.0765   12.1382 H   0  0  0  0  0  0  0  0  0  0  0  0
   13.7905   -7.5879    9.3545 H   0  0  0  0  0  0  0  0  0  0  0  0
   14.1180   -8.7884   10.4320 H   0  0  0  0  0  0  0  0  0  0  0  0
   16.1274   -7.6372    9.8104 H   0  0  0  0  0  0  0  0  0  0  0  0
   15.3687   -6.1237   10.4108 H   0  0  0  0  0  0  0  0  0  0  0  0
   11.8219  -14.2261   13.9966 H   0  0  0  0  0  0  0  0  0  0  0  0
    7.0206  -15.0201   12.8299 H   0  0  0  0  0  0  0  0  0  0  0  0
    8.7677  -16.7140   12.3382 H   0  0  0  0  0  0  0  0  0  0  0  0
  1  2  1  1  0  0  0
  1  3  1  0  0  0  0
  1  4  1  0  0  0  0
  1  5  1  0  0  0  0
  2  6  2  0  0  0  0
  2  7  1  0  0  0  0
  3  8  1  0  0  0  0
  3 32  1  0  0  0  0
  3 33  1  0  0  0  0
  4  9  1  0  0  0  0
  4 34  1  0  0  0  0
  4 35  1  0  0  0  0
  5 10  1  0  0  0  0
  5 36  1  0  0  0  0
  5 37  1  0  0  0  0
  6  8  1  0  0  0  0
  6 11  1  0  0  0  0
  7 12  2  0  0  0  0
  7 38  1  0  0  0  0
  8 13  1  0  0  0  0
  9 10  1  0  0  0  0
  9 14  1  0  0  0  0
  9 39  1  6  0  0  0
 10 40  1  0  0  0  0
 10 41  1  0  0  0  0
 11 15  2  0  0  0  0
 11 42  1  0  0  0  0
 12 15  1  0  0  0  0
 12 43  1  0  0  0  0
 13 16  1  0  0  0  0
 13 17  2  0  0  0  0
 14 18  1  0  0  0  0
 14 19  1  0  0  0  0
 14 44  1  1  0  0  0
 15 45  1  0  0  0  0
 16 20  2  0  0  0  0
 16 21  1  0  0  0  0
 18 22  1  0  0  0  0
 18 46  1  0  0  0  0
 18 47  1  0  0  0  0
 19 23  1  0  0  0  0
 19 48  1  0  0  0  0
 19 49  1  0  0  0  0
 20 24  1  0  0  0  0
 20 50  1  0  0  0  0
 21 25  1  0  0  0  0
 21 51  1  0  0  0  0
 22 26  1  0  0  0  0
 22 52  1  0  0  0  0
 22 53  1  0  0  0  0
 23 26  1  0  0  0  0
 23 54  1  0  0  0  0
 23 55  1  0  0  0  0
 24 25  2  0  0  0  0
 24 27  1  0  0  0  0
 25 28  1  0  0  0  0
 26 56  1  0  0  0  0
 26 57  1  0  0  0  0
 27 29  2  0  0  0  0
 27 58  1  0  0  0  0
 28 30  2  0  0  0  0
 28 59  1  0  0  0  0
 29 30  1  0  0  0  0
 29 31  1  0  0  0  0
 30 60  1  0  0  0  0
M  CHG  2   9   1  23   1
M  END
