3qxm_ligand
 OpenBabel08222323353D

 36 37  0  0  1  0  0  0  0  0999 V2000
    4.0590  -12.0810   24.1730 O   0  5  0  0  0  0  0  0  0  0  0  0
    3.8900  -11.4610   25.2550 C   0  0  0  0  0  0  0  0  0  0  0  0
    4.5110  -11.7730   26.2800 O   0  0  0  0  0  0  0  0  0  0  0  0
    2.8650  -10.3450   25.3810 C   0  0  1  0  0  0  0  0  0  0  0  0
    1.9520  -10.2980   24.2240 N   0  3  0  0  0  0  0  0  0  0  0  0
    2.0630  -10.5450   26.6820 C   0  0  0  0  0  0  0  0  0  0  0  0
    1.2870   -9.2440   27.0790 C   0  0  2  0  0  0  0  0  0  0  0  0
    2.2150   -8.1010   27.2120 C   0  0  0  0  0  0  0  0  0  0  0  0
    1.9770   -6.9820   26.6630 O   0  5  0  0  0  0  0  0  0  0  0  0
    3.2500   -8.2950   27.8880 O   0  0  0  0  0  0  0  0  0  0  0  0
    0.5810   -9.4310   28.4270 C   0  0  0  0  0  0  0  0  0  0  0  0
    0.2610   -8.9520   26.0980 O   0  0  0  0  0  0  0  0  0  0  0  0
   -1.0220   -9.0320   26.6360 C   0  0  1  0  0  0  0  0  0  0  0  0
   -0.8330   -8.8750   28.1530 C   0  0  2  0  0  0  0  0  0  0  0  0
   -0.7530   -7.4480   28.4480 O   0  0  0  0  0  0  0  0  0  0  0  0
   -1.6920   -6.5620   27.8860 C   0  0  0  0  0  0  0  0  0  0  0  0
   -1.7130   -6.5460   26.3430 C   0  0  1  0  0  0  0  0  0  0  0  0
   -0.3840   -6.1290   25.9420 O   0  0  0  0  0  0  0  0  0  0  0  0
   -1.9900   -8.0250   25.9610 C   0  0  1  0  0  0  0  0  0  0  0  0
   -1.8670   -8.1200   24.5330 O   0  0  0  0  0  0  0  0  0  0  0  0
    3.3970   -9.3940   25.4078 H   0  0  0  0  0  0  0  0  0  0  0  0
    2.4938  -10.1655   23.3700 H   0  0  0  0  0  0  0  0  0  0  0  0
    1.4329  -11.1741   24.1662 H   0  0  0  0  0  0  0  0  0  0  0  0
    1.3000   -9.5220   24.3382 H   0  0  0  0  0  0  0  0  0  0  0  0
    2.7590  -10.7917   27.4838 H   0  0  0  0  0  0  0  0  0  0  0  0
    1.3400  -11.3452   26.5239 H   0  0  0  0  0  0  0  0  0  0  0  0
    1.0869   -8.9188   29.2454 H   0  0  0  0  0  0  0  0  0  0  0  0
    0.5714  -10.4687   28.7604 H   0  0  0  0  0  0  0  0  0  0  0  0
   -1.5160   -9.9838   26.4407 H   0  0  0  0  0  0  0  0  0  0  0  0
   -1.6272   -9.3580   28.7222 H   0  0  0  0  0  0  0  0  0  0  0  0
   -1.4184   -5.5584   28.2117 H   0  0  0  0  0  0  0  0  0  0  0  0
   -2.6777   -6.8910   28.2151 H   0  0  0  0  0  0  0  0  0  0  0  0
   -2.4464   -5.8874   25.8777 H   0  0  0  0  0  0  0  0  0  0  0  0
    0.2616   -6.7551   26.2779 H   0  0  0  0  0  0  0  0  0  0  0  0
   -2.9868   -8.2915   26.3123 H   0  0  0  0  0  0  0  0  0  0  0  0
   -0.9801   -7.8619   24.2715 H   0  0  0  0  0  0  0  0  0  0  0  0
  1  2  1  0  0  0  0
  2  3  2  0  0  0  0
  2  4  1  0  0  0  0
  4  5  1  0  0  0  0
  4  6  1  0  0  0  0
  4 21  1  1  0  0  0
  5 22  1  0  0  0  0
  5 23  1  0  0  0  0
  5 24  1  0  0  0  0
  6  7  1  0  0  0  0
  6 25  1  0  0  0  0
  6 26  1  0  0  0  0
  7  8  1  1  0  0  0
  7 11  1  0  0  0  0
  7 12  1  0  0  0  0
  8  9  1  0  0  0  0
  8 10  2  0  0  0  0
 11 14  1  0  0  0  0
 11 27  1  0  0  0  0
 11 28  1  0  0  0  0
 12 13  1  0  0  0  0
 13 14  1  0  0  0  0
 13 19  1  0  0  0  0
 13 29  1  6  0  0  0
 14 15  1  0  0  0  0
 14 30  1  1  0  0  0
 15 16  1  0  0  0  0
 16 17  1  0  0  0  0
 16 31  1  0  0  0  0
 16 32  1  0  0  0  0
 17 18  1  0  0  0  0
 17 19  1  0  0  0  0
 17 33  1  6  0  0  0
 18 34  1  0  0  0  0
 19 20  1  0  0  0  0
 19 35  1  1  0  0  0
 20 36  1  0  0  0  0
M  CHG  3   1  -1   5   1   9  -1
M  END
