3r04_ligand
 OpenBabel08222323353D

 46 49  0  0  1  0  0  0  0  0999 V2000
   23.3010  -37.3150   -0.5070 C   0  0  0  0  0  0  0  0  0  0  0  0
   22.7950  -35.0800   -1.0660 C   0  0  0  0  0  0  0  0  0  0  0  0
   22.8000  -36.0590   -0.1130 C   0  0  0  0  0  0  0  0  0  0  0  0
   23.2570  -35.3100   -2.3790 C   0  0  0  0  0  0  0  0  0  0  0  0
   23.7470  -37.5340   -1.8440 C   0  0  0  0  0  0  0  0  0  0  0  0
   23.6990  -36.5730   -2.8450 C   0  0  0  0  0  0  0  0  0  0  0  0
   23.1030  -34.1690   -3.1370 O   0  0  0  0  0  0  0  0  0  0  0  0
   22.3450  -33.6730   -0.9800 C   0  0  0  0  0  0  0  0  0  0  0  0
   22.5470  -33.2420   -2.2520 C   0  0  0  0  0  0  0  0  0  0  0  0
   22.3520  -31.8240   -2.7510 C   0  0  0  0  0  0  0  0  0  0  0  0
   21.8430  -30.9210   -2.0610 O   0  5  0  0  0  0  0  0  0  0  0  0
   23.0210  -31.6630   -3.8860 O   0  0  0  0  0  0  0  0  0  0  0  0
   23.4160  -38.3400    0.5610 C   0  0  0  0  0  0  0  0  0  0  0  0
   23.6140  -39.1170    2.8010 C   0  0  0  0  0  0  0  0  0  0  0  0
   23.4420  -38.0560    1.9100 N   0  0  0  0  0  0  0  0  0  0  0  0
   23.7700  -40.4450    2.3330 C   0  0  0  0  0  0  0  0  0  0  0  0
   23.6450  -39.6670    0.1400 C   0  0  0  0  0  0  0  0  0  0  0  0
   23.7900  -40.7110    1.0140 N   0  0  0  0  0  0  0  0  0  0  0  0
   23.6030  -38.8180    4.1710 N   0  0  0  0  0  0  0  0  0  0  0  0
   23.1970  -37.4220    4.5770 C   0  0  1  0  0  0  0  0  0  0  0  0
   22.7150  -37.4300    6.0660 C   0  0  0  0  0  0  0  0  0  0  0  0
   22.4650  -35.9830    6.5920 C   0  0  0  0  0  0  0  0  0  0  0  0
   23.6900  -35.0520    6.3890 C   0  0  1  0  0  0  0  0  0  0  0  0
   24.1110  -35.0680    4.9040 C   0  0  0  0  0  0  0  0  0  0  0  0
   24.4530  -36.4870    4.4470 C   0  0  0  0  0  0  0  0  0  0  0  0
   23.5430  -33.7360    6.9350 N   0  3  0  0  0  0  0  0  0  0  0  0
   22.4377  -35.8787    0.8926 H   0  0  0  0  0  0  0  0  0  0  0  0
   24.1477  -38.5098   -2.0937 H   0  0  0  0  0  0  0  0  0  0  0  0
   23.9714  -36.7686   -3.8758 H   0  0  0  0  0  0  0  0  0  0  0  0
   21.9546  -33.1269   -0.1225 H   0  0  0  0  0  0  0  0  0  0  0  0
   23.8744  -41.2556    3.0451 H   0  0  0  0  0  0  0  0  0  0  0  0
   23.7090  -39.8691   -0.9231 H   0  0  0  0  0  0  0  0  0  0  0  0
   23.8623  -39.5247    4.8741 H   0  0  0  0  0  0  0  0  0  0  0  0
   22.3882  -37.0607    3.9249 H   0  0  0  0  0  0  0  0  0  0  0  0
   23.4850  -37.9089    6.6887 H   0  0  0  0  0  0  0  0  0  0  0  0
   21.7785  -38.0027    6.1358 H   0  0  0  0  0  0  0  0  0  0  0  0
   22.2360  -36.0339    7.6667 H   0  0  0  0  0  0  0  0  0  0  0  0
   21.6058  -35.5564    6.0537 H   0  0  0  0  0  0  0  0  0  0  0  0
   24.5181  -35.5089    6.9507 H   0  0  0  0  0  0  0  0  0  0  0  0
   24.9941  -34.4253    4.7734 H   0  0  0  0  0  0  0  0  0  0  0  0
   23.2830  -34.6824    4.2911 H   0  0  0  0  0  0  0  0  0  0  0  0
   24.7783  -36.4609    3.3965 H   0  0  0  0  0  0  0  0  0  0  0  0
   25.2662  -36.8832    5.0729 H   0  0  0  0  0  0  0  0  0  0  0  0
   23.2682  -33.8025    7.9026 H   0  0  0  0  0  0  0  0  0  0  0  0
   22.8368  -33.2350    6.4189 H   0  0  0  0  0  0  0  0  0  0  0  0
   24.4204  -33.2444    6.8679 H   0  0  0  0  0  0  0  0  0  0  0  0
  1  3  2  0  0  0  0
  1  5  1  0  0  0  0
  1 13  1  0  0  0  0
  2  4  2  0  0  0  0
  2  8  1  0  0  0  0
  3  2  1  0  0  0  0
  3 27  1  0  0  0  0
  4  6  1  0  0  0  0
  4  7  1  0  0  0  0
  5  6  2  0  0  0  0
  5 28  1  0  0  0  0
  6 29  1  0  0  0  0
  7  9  1  0  0  0  0
  8  9  2  0  0  0  0
  8 30  1  0  0  0  0
  9 10  1  0  0  0  0
 10 11  1  0  0  0  0
 10 12  2  0  0  0  0
 13 15  2  0  0  0  0
 13 17  1  0  0  0  0
 14 16  2  0  0  0  0
 14 19  1  0  0  0  0
 15 14  1  0  0  0  0
 16 18  1  0  0  0  0
 16 31  1  0  0  0  0
 17 18  2  0  0  0  0
 17 32  1  0  0  0  0
 19 20  1  0  0  0  0
 19 33  1  0  0  0  0
 20 21  1  0  0  0  0
 20 25  1  0  0  0  0
 20 34  1  6  0  0  0
 21 22  1  0  0  0  0
 21 35  1  0  0  0  0
 21 36  1  0  0  0  0
 22 23  1  0  0  0  0
 22 37  1  0  0  0  0
 22 38  1  0  0  0  0
 23 24  1  0  0  0  0
 23 26  1  0  0  0  0
 23 39  1  1  0  0  0
 24 25  1  0  0  0  0
 24 40  1  0  0  0  0
 24 41  1  0  0  0  0
 25 42  1  0  0  0  0
 25 43  1  0  0  0  0
 26 44  1  0  0  0  0
 26 45  1  0  0  0  0
 26 46  1  0  0  0  0
M  CHG  2  11  -1  26   1
M  END
