3r0i_ligand
 OpenBabel08222323353D

 32 32  0  0  1  0  0  0  0  0999 V2000
   11.2810   -2.9760   38.7810 C   0  0  0  0  0  0  0  0  0  0  0  0
   10.5650   -4.1670   38.5060 C   0  0  0  0  0  0  0  0  0  0  0  0
    9.6400   -4.2090   37.4270 C   0  0  0  0  0  0  0  0  0  0  0  0
    9.4280   -3.0660   36.6380 C   0  0  0  0  0  0  0  0  0  0  0  0
   10.1380   -1.8820   36.9130 C   0  0  0  0  0  0  0  0  0  0  0  0
   11.0560   -1.8380   37.9640 C   0  0  0  0  0  0  0  0  0  0  0  0
    8.8070   -5.4030   37.0270 C   0  0  1  0  0  0  0  0  0  0  0  0
    9.7680   -6.9520   36.6900 P   0  0  0  0  0  0  0  0  0  0  0  0
   10.7780   -7.1900   37.8370 O   0  0  0  0  0  1  0  0  0  0  0  0
    8.7660   -8.0690   36.5230 O   0  0  0  0  0  1  0  0  0  0  0  0
   10.4480   -6.6840   35.3840 O   0  0  0  0  0  0  0  0  0  0  0  0
    7.4960   -5.4400   37.8680 C   0  0  0  0  0  0  0  0  0  0  0  0
    6.5320   -4.3860   37.2530 C   0  0  0  0  0  0  0  0  0  0  0  0
    5.8610   -4.5950   35.8550 C   0  0  0  0  0  0  0  0  0  0  0  0
    5.7730   -5.7320   35.3370 O   0  0  0  0  0  0  0  0  0  0  0  0
    5.3700   -3.4850   35.1930 N   0  0  0  0  0  0  0  0  0  0  0  0
    5.4340   -2.0640   35.6130 C   0  0  0  0  0  0  0  0  0  0  0  0
    4.6850   -3.6730   34.0000 O   0  0  0  0  0  0  0  0  0  0  0  0
    9.9480   -0.7440   36.1860 F   0  0  0  0  0  0  0  0  0  0  0  0
   11.6860   -0.6530   38.1210 F   0  0  0  0  0  0  0  0  0  0  0  0
   11.9884   -2.9348   39.6013 H   0  0  0  0  0  0  0  0  0  0  0  0
   10.7225   -5.0472   39.1188 H   0  0  0  0  0  0  0  0  0  0  0  0
    8.7188   -3.0958   35.8187 H   0  0  0  0  0  0  0  0  0  0  0  0
    8.4416   -5.1442   36.0223 H   0  0  0  0  0  0  0  0  0  0  0  0
    7.7124   -5.1876   38.9165 H   0  0  0  0  0  0  0  0  0  0  0  0
    7.0430   -6.4411   37.8178 H   0  0  0  0  0  0  0  0  0  0  0  0
    7.1036   -3.4488   37.1836 H   0  0  0  0  0  0  0  0  0  0  0  0
    5.7104   -4.2619   37.9738 H   0  0  0  0  0  0  0  0  0  0  0  0
    4.9460   -1.4350   34.8539 H   0  0  0  0  0  0  0  0  0  0  0  0
    6.4858   -1.7602   35.7198 H   0  0  0  0  0  0  0  0  0  0  0  0
    4.9176   -1.9428   36.5767 H   0  0  0  0  0  0  0  0  0  0  0  0
    4.6769   -4.5978   33.7831 H   0  0  0  0  0  0  0  0  0  0  0  0
  1  2  2  0  0  0  0
  1  6  1  0  0  0  0
  1 21  1  0  0  0  0
  2  3  1  0  0  0  0
  2 22  1  0  0  0  0
  3  4  2  0  0  0  0
  3  7  1  0  0  0  0
  4  5  1  0  0  0  0
  4 23  1  0  0  0  0
  5  6  2  0  0  0  0
  5 19  1  0  0  0  0
  6 20  1  0  0  0  0
  7  8  1  0  0  0  0
  7 12  1  0  0  0  0
  7 24  1  6  0  0  0
  8  9  1  0  0  0  0
  8 10  1  0  0  0  0
  8 11  2  0  0  0  0
 12 13  1  0  0  0  0
 12 25  1  0  0  0  0
 12 26  1  0  0  0  0
 13 14  1  0  0  0  0
 13 27  1  0  0  0  0
 13 28  1  0  0  0  0
 14 15  2  0  0  0  0
 14 16  1  0  0  0  0
 16 17  1  0  0  0  0
 16 18  1  0  0  0  0
 17 29  1  0  0  0  0
 17 30  1  0  0  0  0
 17 31  1  0  0  0  0
 18 32  1  0  0  0  0
M  END
