3r0w_ligand
 OpenBabel08222323353D

 87 88  0  0  1  0  0  0  0  0999 V2000
   15.4600   10.1450    4.6730 C   0  0  0  0  0  0  0  0  0  0  0  0
   16.7870    8.5970    5.8550 C   0  0  0  0  0  0  0  0  0  0  0  0
   15.8250    8.4860    6.8500 C   0  0  0  0  0  0  0  0  0  0  0  0
   15.2490   11.0550    3.4850 C   0  0  0  0  0  0  0  0  0  0  0  0
   14.6540    9.2260    6.7540 C   0  0  0  0  0  0  0  0  0  0  0  0
   14.4730   10.0590    5.6580 C   0  0  0  0  0  0  0  0  0  0  0  0
   14.2050   11.6880    3.4350 O   0  0  0  0  0  0  0  0  0  0  0  0
   16.5910    9.4070    4.8040 N   0  0  0  0  0  0  0  0  0  0  0  0
   16.1390   11.1990    2.4920 N   0  0  0  0  0  0  0  0  0  0  0  0
   17.4360   10.5370    2.3770 C   0  0  2  0  0  0  0  0  0  0  0  0
   18.4210   11.6450    1.9560 C   0  0  0  0  0  0  0  0  0  0  0  0
   18.3010   12.0810    0.4930 C   0  0  0  0  0  0  0  0  0  0  0  0
   19.8690   11.2920    2.2920 C   0  0  0  0  0  0  0  0  0  0  0  0
   17.4180    9.3620    1.4320 C   0  0  0  0  0  0  0  0  0  0  0  0
   18.1540    8.4200    1.6520 O   0  0  0  0  0  0  0  0  0  0  0  0
   16.5640    9.4180    0.4030 N   0  0  0  0  0  0  0  0  0  0  0  0
   16.3480    8.4350   -0.6710 C   0  0  1  0  0  0  0  0  0  0  0  0
   17.5520    8.5580   -1.6100 C   0  0  0  0  0  0  0  0  0  0  0  0
   17.1130    9.3090   -2.8430 C   0  0  0  0  0  0  0  0  0  0  0  0
   16.2120    8.7310   -3.7390 C   0  0  0  0  0  0  0  0  0  0  0  0
   17.6020   10.5910   -3.0780 C   0  0  0  0  0  0  0  0  0  0  0  0
   15.8050    9.4360   -4.8670 C   0  0  0  0  0  0  0  0  0  0  0  0
   17.1930   11.2940   -4.2050 C   0  0  0  0  0  0  0  0  0  0  0  0
   16.2990   10.7160   -5.1020 C   0  0  0  0  0  0  0  0  0  0  0  0
   16.1570    7.0020   -0.1470 C   0  0  1  0  0  0  0  0  0  0  0  0
   17.3840    6.4040    0.2980 O   0  0  0  0  0  0  0  0  0  0  0  0
   15.1010    6.9100    0.9500 C   0  0  0  0  0  0  0  0  0  0  0  0
   14.2400    5.7020    0.6830 C   0  0  0  0  0  0  0  0  0  0  0  0
   14.6890    4.5790    0.8520 O   0  0  0  0  0  0  0  0  0  0  0  0
   11.2690    5.2220   -1.2660 C   0  0  0  0  0  0  0  0  0  0  0  0
   12.9950    5.9500    0.2790 N   0  0  0  0  0  0  0  0  0  0  0  0
   11.3460    4.4880   -2.2360 O   0  0  0  0  0  0  0  0  0  0  0  0
    9.6140    3.9050    0.7990 Cl  0  0  0  0  0  0  0  0  0  0  0  0
   12.0380    4.8930   -0.0220 C   0  0  1  0  0  0  0  0  0  0  0  0
   11.1040    4.8230    1.1860 C   0  0  0  0  0  0  0  0  0  0  0  0
   10.5390    6.3390   -1.2230 N   0  0  0  0  0  0  0  0  0  0  0  0
    9.7040    6.8380   -2.3110 C   0  0  2  0  0  0  0  0  0  0  0  0
   10.3740    6.8140   -3.6600 C   0  0  0  0  0  0  0  0  0  0  0  0
   11.5570    7.0930   -3.7860 O   0  0  0  0  0  0  0  0  0  0  0  0
    9.3750    8.2790   -1.9120 C   0  0  0  0  0  0  0  0  0  0  0  0
    8.3720    8.4680   -0.7570 C   0  0  0  0  0  0  0  0  0  0  0  0
    7.5280    7.2260   -0.4270 C   0  0  0  0  0  0  0  0  0  0  0  0
    9.0990    8.9760    0.5020 C   0  0  0  0  0  0  0  0  0  0  0  0
    9.6060    6.4630   -4.6890 N   0  0  0  0  0  0  0  0  0  0  0  0
   17.7043    8.0241    5.9282 H   0  0  0  0  0  0  0  0  0  0  0  0
   15.9868    7.8268    7.6952 H   0  0  0  0  0  0  0  0  0  0  0  0
   13.8930    9.1545    7.5227 H   0  0  0  0  0  0  0  0  0  0  0  0
   13.5646   10.6434    5.5665 H   0  0  0  0  0  0  0  0  0  0  0  0
   15.8885   11.8248    1.7533 H   0  0  0  0  0  0  0  0  0  0  0  0
   17.7308   10.1569    3.3662 H   0  0  0  0  0  0  0  0  0  0  0  0
   18.1614   12.5255    2.5621 H   0  0  0  0  0  0  0  0  0  0  0  0
   19.0382   12.8702    0.2840 H   0  0  0  0  0  0  0  0  0  0  0  0
   17.2879   12.4671    0.3074 H   0  0  0  0  0  0  0  0  0  0  0  0
   18.4908   11.2189   -0.1633 H   0  0  0  0  0  0  0  0  0  0  0  0
   19.9358   10.9816    3.3452 H   0  0  0  0  0  0  0  0  0  0  0  0
   20.5085   12.1718    2.1278 H   0  0  0  0  0  0  0  0  0  0  0  0
   20.2052   10.4684    1.6450 H   0  0  0  0  0  0  0  0  0  0  0  0
   15.9954   10.2394    0.3577 H   0  0  0  0  0  0  0  0  0  0  0  0
   15.4370    8.7095   -1.2230 H   0  0  0  0  0  0  0  0  0  0  0  0
   17.9087    7.5562   -1.8914 H   0  0  0  0  0  0  0  0  0  0  0  0
   18.3615    9.1078   -1.1076 H   0  0  0  0  0  0  0  0  0  0  0  0
   15.8297    7.7333   -3.5559 H   0  0  0  0  0  0  0  0  0  0  0  0
   18.3013   11.0407   -2.3824 H   0  0  0  0  0  0  0  0  0  0  0  0
   15.1038    8.9890   -5.5624 H   0  0  0  0  0  0  0  0  0  0  0  0
   17.5707   12.2939   -4.3858 H   0  0  0  0  0  0  0  0  0  0  0  0
   15.9873   11.2632   -5.9843 H   0  0  0  0  0  0  0  0  0  0  0  0
   15.7947    6.4033   -0.9957 H   0  0  0  0  0  0  0  0  0  0  0  0
   17.7514    6.9246    1.0026 H   0  0  0  0  0  0  0  0  0  0  0  0
   14.4794    7.8175    0.9441 H   0  0  0  0  0  0  0  0  0  0  0  0
   15.5910    6.8075    1.9295 H   0  0  0  0  0  0  0  0  0  0  0  0
   12.7049    6.9017    0.1780 H   0  0  0  0  0  0  0  0  0  0  0  0
   12.5584    3.9335   -0.1579 H   0  0  0  0  0  0  0  0  0  0  0  0
   11.6271    4.3253    2.0158 H   0  0  0  0  0  0  0  0  0  0  0  0
   10.8284    5.8447    1.4864 H   0  0  0  0  0  0  0  0  0  0  0  0
   10.5665    6.8756   -0.3796 H   0  0  0  0  0  0  0  0  0  0  0  0
    8.7831    6.2393   -2.3705 H   0  0  0  0  0  0  0  0  0  0  0  0
    8.9616    8.7836   -2.7977 H   0  0  0  0  0  0  0  0  0  0  0  0
   10.3164    8.7663   -1.6184 H   0  0  0  0  0  0  0  0  0  0  0  0
    7.6688    9.2524   -1.0736 H   0  0  0  0  0  0  0  0  0  0  0  0
    6.8462    7.4565    0.4049 H   0  0  0  0  0  0  0  0  0  0  0  0
    8.1918    6.3977   -0.1383 H   0  0  0  0  0  0  0  0  0  0  0  0
    6.9421    6.9352   -1.3114 H   0  0  0  0  0  0  0  0  0  0  0  0
    9.6969    9.8635    0.2471 H   0  0  0  0  0  0  0  0  0  0  0  0
    9.7609    8.1863    0.8870 H   0  0  0  0  0  0  0  0  0  0  0  0
    8.3586    9.2412    1.2711 H   0  0  0  0  0  0  0  0  0  0  0  0
    9.9911    6.4276   -5.6112 H   0  0  0  0  0  0  0  0  0  0  0  0
    8.6439    6.2347   -4.5399 H   0  0  0  0  0  0  0  0  0  0  0  0
  1  6  2  0  0  0  0
  1  8  1  0  0  0  0
  2  3  1  0  0  0  0
  2 45  1  0  0  0  0
  3 46  1  0  0  0  0
  4  1  1  0  0  0  0
  4  7  2  0  0  0  0
  5  3  2  0  0  0  0
  5 47  1  0  0  0  0
  6  5  1  0  0  0  0
  6 48  1  0  0  0  0
  8  2  2  0  0  0  0
  9  4  1  0  0  0  0
  9 49  1  0  0  0  0
 10  9  1  0  0  0  0
 10 11  1  0  0  0  0
 10 50  1  1  0  0  0
 11 12  1  0  0  0  0
 11 13  1  0  0  0  0
 11 51  1  0  0  0  0
 12 52  1  0  0  0  0
 12 53  1  0  0  0  0
 12 54  1  0  0  0  0
 13 55  1  0  0  0  0
 13 56  1  0  0  0  0
 13 57  1  0  0  0  0
 14 10  1  0  0  0  0
 14 15  2  0  0  0  0
 16 14  1  0  0  0  0
 16 58  1  0  0  0  0
 17 16  1  0  0  0  0
 17 18  1  0  0  0  0
 17 59  1  6  0  0  0
 18 19  1  0  0  0  0
 18 60  1  0  0  0  0
 18 61  1  0  0  0  0
 19 20  2  0  0  0  0
 19 21  1  0  0  0  0
 20 22  1  0  0  0  0
 20 62  1  0  0  0  0
 21 23  2  0  0  0  0
 21 63  1  0  0  0  0
 22 24  2  0  0  0  0
 22 64  1  0  0  0  0
 23 24  1  0  0  0  0
 23 65  1  0  0  0  0
 24 66  1  0  0  0  0
 25 17  1  0  0  0  0
 25 26  1  0  0  0  0
 25 67  1  6  0  0  0
 26 68  1  0  0  0  0
 27 25  1  0  0  0  0
 27 69  1  0  0  0  0
 27 70  1  0  0  0  0
 28 27  1  0  0  0  0
 28 29  2  0  0  0  0
 30 32  2  0  0  0  0
 30 36  1  0  0  0  0
 31 28  1  0  0  0  0
 31 71  1  0  0  0  0
 34 30  1  0  0  0  0
 34 31  1  0  0  0  0
 34 35  1  0  0  0  0
 34 72  1  6  0  0  0
 35 33  1  0  0  0  0
 35 73  1  0  0  0  0
 35 74  1  0  0  0  0
 36 37  1  0  0  0  0
 36 75  1  0  0  0  0
 37 38  1  0  0  0  0
 37 40  1  0  0  0  0
 37 76  1  6  0  0  0
 38 39  2  0  0  0  0
 38 44  1  0  0  0  0
 40 41  1  0  0  0  0
 40 77  1  0  0  0  0
 40 78  1  0  0  0  0
 41 42  1  0  0  0  0
 41 43  1  0  0  0  0
 41 79  1  0  0  0  0
 42 80  1  0  0  0  0
 42 81  1  0  0  0  0
 42 82  1  0  0  0  0
 43 83  1  0  0  0  0
 43 84  1  0  0  0  0
 43 85  1  0  0  0  0
 44 86  1  0  0  0  0
 44 87  1  0  0  0  0
M  END
