3r2a_ligand
 OpenBabel08222323353D

 28 30  0  0  0  0  0  0  0  0999 V2000
  -47.3650  -14.7690    1.6270 O   0  5  0  0  0  0  0  0  0  0  0  0
  -49.6860   -9.3020    1.4710 O   0  0  0  0  0  0  0  0  0  0  0  0
  -52.0480  -11.7870   -2.5350 O   0  0  0  0  0  0  0  0  0  0  0  0
  -48.6020  -14.0650    3.2540 O   0  0  0  0  0  0  0  0  0  0  0  0
  -53.0210   -9.7760   -3.3390 O   0  0  0  0  0  0  0  0  0  0  0  0
  -51.1450  -13.9260   -1.8660 O   0  0  0  0  0  0  0  0  0  0  0  0
  -51.9810   -7.0610   -1.1180 C   0  0  0  0  0  0  0  0  0  0  0  0
  -52.6030   -7.7150   -2.1770 C   0  0  0  0  0  0  0  0  0  0  0  0
  -51.1970   -7.7890   -0.2240 C   0  0  0  0  0  0  0  0  0  0  0  0
  -49.7430  -14.0350    0.0740 C   0  0  0  0  0  0  0  0  0  0  0  0
  -49.2920  -11.9970    1.2700 C   0  0  0  0  0  0  0  0  0  0  0  0
  -48.3360  -14.0920    2.0330 C   0  0  0  0  0  0  0  0  0  0  0  0
  -49.1210  -13.3760    1.1290 C   0  0  0  0  0  0  0  0  0  0  0  0
  -52.4340   -9.0900   -2.3240 C   0  0  0  0  0  0  0  0  0  0  0  0
  -50.5250  -13.3110   -0.8230 C   0  0  0  0  0  0  0  0  0  0  0  0
  -50.2370   -9.8850    0.5350 C   0  0  0  0  0  0  0  0  0  0  0  0
  -51.4940  -11.2110   -1.5960 C   0  0  0  0  0  0  0  0  0  0  0  0
  -51.0260   -9.1690   -0.3710 C   0  0  0  0  0  0  0  0  0  0  0  0
  -50.0800  -11.2670    0.3710 C   0  0  0  0  0  0  0  0  0  0  0  0
  -51.6520   -9.8310   -1.4330 C   0  0  0  0  0  0  0  0  0  0  0  0
  -50.7060  -11.9290   -0.6900 C   0  0  0  0  0  0  0  0  0  0  0  0
  -52.7885  -10.7050   -3.2724 H   0  0  0  0  0  0  0  0  0  0  0  0
  -51.6355  -13.2755   -2.3739 H   0  0  0  0  0  0  0  0  0  0  0  0
  -52.1059   -5.9860   -0.9881 H   0  0  0  0  0  0  0  0  0  0  0  0
  -53.2164   -7.1571   -2.8845 H   0  0  0  0  0  0  0  0  0  0  0  0
  -50.7092   -7.2737    0.6034 H   0  0  0  0  0  0  0  0  0  0  0  0
  -49.6194  -15.1108   -0.0501 H   0  0  0  0  0  0  0  0  0  0  0  0
  -48.8031  -11.4791    2.0951 H   0  0  0  0  0  0  0  0  0  0  0  0
  5 22  1  0  0  0  0
  6 23  1  0  0  0  0
  7  9  1  0  0  0  0
  7 24  1  0  0  0  0
  8  7  2  0  0  0  0
  8 25  1  0  0  0  0
  9 18  2  0  0  0  0
  9 26  1  0  0  0  0
 10 15  1  0  0  0  0
 10 27  1  0  0  0  0
 11 13  1  0  0  0  0
 11 28  1  0  0  0  0
 12  1  1  0  0  0  0
 12  4  2  0  0  0  0
 13 10  2  0  0  0  0
 13 12  1  0  0  0  0
 14  5  1  0  0  0  0
 14  8  1  0  0  0  0
 15  6  1  0  0  0  0
 15 21  2  0  0  0  0
 16  2  2  0  0  0  0
 16 19  1  0  0  0  0
 17  3  2  0  0  0  0
 17 20  1  0  0  0  0
 17 21  1  0  0  0  0
 18 16  1  0  0  0  0
 18 20  1  0  0  0  0
 19 11  2  0  0  0  0
 19 21  1  0  0  0  0
 20 14  2  0  0  0  0
M  CHG  1   1  -1
M  END
