3r8i_ligand
 OpenBabel08222323353D

 65 67  0  0  0  0  0  0  0  0999 V2000
   18.3400    8.3930    9.8040 N   0  0  0  0  0  0  0  0  0  0  0  0
   17.0350    6.5830   10.5750 N   0  0  0  0  0  0  0  0  0  0  0  0
    9.1390    5.3070    9.5850 C   0  0  0  0  0  0  0  0  0  0  0  0
   21.2620    7.3880   17.4110 C   0  0  0  0  0  0  0  0  0  0  0  0
   18.8080    7.8560   17.6160 C   0  0  0  0  0  0  0  0  0  0  0  0
   21.0300    7.5110   20.0340 O   0  5  0  0  0  0  0  0  0  0  0  0
   19.1800    6.2780   20.1730 O   0  0  0  0  0  0  0  0  0  0  0  0
   18.3930   11.6200    7.9960 C   0  0  0  0  0  0  0  0  0  0  0  0
   17.0530   11.6190    7.6270 C   0  0  0  0  0  0  0  0  0  0  0  0
   19.5620    5.3090   13.9230 C   0  0  0  0  0  0  0  0  0  0  0  0
   17.3230    5.2450   14.7990 C   0  0  0  0  0  0  0  0  0  0  0  0
   20.0620    5.4460   15.2150 C   0  0  0  0  0  0  0  0  0  0  0  0
   17.8240    5.3830   16.0870 C   0  0  0  0  0  0  0  0  0  0  0  0
   18.9180   10.5610    8.7280 C   0  0  0  0  0  0  0  0  0  0  0  0
   16.2380   10.5520    7.9870 C   0  0  0  0  0  0  0  0  0  0  0  0
   10.5580    5.7630    9.2370 C   0  0  0  0  0  0  0  0  0  0  0  0
   11.3940    5.9210   10.5080 C   0  0  0  0  0  0  0  0  0  0  0  0
   12.8100    6.4190   10.2120 C   0  0  0  0  0  0  0  0  0  0  0  0
   13.6100    5.4100    9.3870 C   0  0  0  0  0  0  0  0  0  0  0  0
   15.0660    5.8680    9.2720 C   0  0  0  0  0  0  0  0  0  0  0  0
   17.6310    4.9690   12.3080 C   0  0  0  0  0  0  0  0  0  0  0  0
   15.6980    5.9760   10.6610 C   0  0  0  0  0  0  0  0  0  0  0  0
   18.1690    5.9660   11.2780 C   0  0  0  0  0  0  0  0  0  0  0  0
   19.6800    5.5650   17.5720 O   0  0  0  0  0  0  0  0  0  0  0  0
   16.2020    8.3600    9.2240 O   0  0  0  0  0  0  0  0  0  0  0  0
   20.0610    6.8960   19.5360 C   0  0  0  0  0  0  0  0  0  0  0  0
   18.1920    5.2020   13.7110 C   0  0  0  0  0  0  0  0  0  0  0  0
   19.1950    5.4800   16.3000 C   0  0  0  0  0  0  0  0  0  0  0  0
   17.2020    7.7130    9.8940 C   0  0  0  0  0  0  0  0  0  0  0  0
   18.1040    9.4940    9.0930 C   0  0  0  0  0  0  0  0  0  0  0  0
   16.7650    9.4930    8.7180 C   0  0  0  0  0  0  0  0  0  0  0  0
   19.9400    6.9040   18.0100 C   0  0  0  0  0  0  0  0  0  0  0  0
    8.5519    5.1984    8.6612 H   0  0  0  0  0  0  0  0  0  0  0  0
    8.6629    6.0548   10.2362 H   0  0  0  0  0  0  0  0  0  0  0  0
    9.1824    4.3401   10.1077 H   0  0  0  0  0  0  0  0  0  0  0  0
   21.4621    8.4161   17.7470 H   0  0  0  0  0  0  0  0  0  0  0  0
   21.1965    7.3673   16.3132 H   0  0  0  0  0  0  0  0  0  0  0  0
   22.0778    6.7287   17.7422 H   0  0  0  0  0  0  0  0  0  0  0  0
   17.8621    7.5006   18.0506 H   0  0  0  0  0  0  0  0  0  0  0  0
   18.7193    7.8865   16.5200 H   0  0  0  0  0  0  0  0  0  0  0  0
   19.0290    8.8650   17.9943 H   0  0  0  0  0  0  0  0  0  0  0  0
   19.0309   12.4492    7.7121 H   0  0  0  0  0  0  0  0  0  0  0  0
   16.6446   12.4478    7.0601 H   0  0  0  0  0  0  0  0  0  0  0  0
   20.2428    5.2857   13.0797 H   0  0  0  0  0  0  0  0  0  0  0  0
   16.2533    5.1706   14.6400 H   0  0  0  0  0  0  0  0  0  0  0  0
   21.1311    5.5264   15.3749 H   0  0  0  0  0  0  0  0  0  0  0  0
   17.1434    5.4153   16.9301 H   0  0  0  0  0  0  0  0  0  0  0  0
   19.9634   10.5669    9.0147 H   0  0  0  0  0  0  0  0  0  0  0  0
   15.1932   10.5455    7.6983 H   0  0  0  0  0  0  0  0  0  0  0  0
   10.5100    6.7287    8.7124 H   0  0  0  0  0  0  0  0  0  0  0  0
   11.0295    5.0139    8.5839 H   0  0  0  0  0  0  0  0  0  0  0  0
   11.4600    4.9454   11.0118 H   0  0  0  0  0  0  0  0  0  0  0  0
   10.8963    6.6434   11.1716 H   0  0  0  0  0  0  0  0  0  0  0  0
   13.3320    6.5926   11.1645 H   0  0  0  0  0  0  0  0  0  0  0  0
   12.7447    7.3636    9.6521 H   0  0  0  0  0  0  0  0  0  0  0  0
   13.1717    5.3323    8.3811 H   0  0  0  0  0  0  0  0  0  0  0  0
   13.5748    4.4269    9.8793 H   0  0  0  0  0  0  0  0  0  0  0  0
   15.0997    6.8514    8.7802 H   0  0  0  0  0  0  0  0  0  0  0  0
   15.6299    5.1385    8.6722 H   0  0  0  0  0  0  0  0  0  0  0  0
   17.9009    3.9522   11.9865 H   0  0  0  0  0  0  0  0  0  0  0  0
   16.5357    5.0624   12.3480 H   0  0  0  0  0  0  0  0  0  0  0  0
   15.0580    6.6002   11.3019 H   0  0  0  0  0  0  0  0  0  0  0  0
   15.7849    4.9702   11.0979 H   0  0  0  0  0  0  0  0  0  0  0  0
   18.7547    6.7446   11.7887 H   0  0  0  0  0  0  0  0  0  0  0  0
   18.8098    5.4402   10.5549 H   0  0  0  0  0  0  0  0  0  0  0  0
  1 30  1  0  0  0  0
  2 22  1  0  0  0  0
  2 29  1  0  0  0  0
  3 33  1  0  0  0  0
  3 34  1  0  0  0  0
  3 35  1  0  0  0  0
  4 36  1  0  0  0  0
  4 37  1  0  0  0  0
  4 38  1  0  0  0  0
  5 39  1  0  0  0  0
  5 40  1  0  0  0  0
  5 41  1  0  0  0  0
  8 42  1  0  0  0  0
  9  8  2  0  0  0  0
  9 43  1  0  0  0  0
 10 27  1  0  0  0  0
 10 44  1  0  0  0  0
 11 27  2  0  0  0  0
 11 45  1  0  0  0  0
 12 10  2  0  0  0  0
 12 46  1  0  0  0  0
 13 11  1  0  0  0  0
 13 47  1  0  0  0  0
 14  8  1  0  0  0  0
 14 48  1  0  0  0  0
 15  9  1  0  0  0  0
 15 49  1  0  0  0  0
 16  3  1  0  0  0  0
 16 50  1  0  0  0  0
 16 51  1  0  0  0  0
 17 16  1  0  0  0  0
 17 52  1  0  0  0  0
 17 53  1  0  0  0  0
 18 17  1  0  0  0  0
 18 54  1  0  0  0  0
 18 55  1  0  0  0  0
 19 18  1  0  0  0  0
 19 56  1  0  0  0  0
 19 57  1  0  0  0  0
 20 19  1  0  0  0  0
 20 58  1  0  0  0  0
 20 59  1  0  0  0  0
 21 23  1  0  0  0  0
 21 60  1  0  0  0  0
 21 61  1  0  0  0  0
 22 20  1  0  0  0  0
 22 62  1  0  0  0  0
 22 63  1  0  0  0  0
 23  2  1  0  0  0  0
 23 64  1  0  0  0  0
 23 65  1  0  0  0  0
 24 28  1  0  0  0  0
 25 31  1  0  0  0  0
 26  6  1  0  0  0  0
 26  7  2  0  0  0  0
 26 32  1  0  0  0  0
 27 21  1  0  0  0  0
 28 12  1  0  0  0  0
 28 13  2  0  0  0  0
 29  1  2  0  0  0  0
 29 25  1  0  0  0  0
 30 14  2  0  0  0  0
 30 31  1  0  0  0  0
 31 15  2  0  0  0  0
 32  4  1  0  0  0  0
 32  5  1  0  0  0  0
 32 24  1  0  0  0  0
M  CHG  1   6  -1
M  END
