3r8z_ligand
 OpenBabel08222323353D

 34 35  0  0  1  0  0  0  0  0999 V2000
  -64.7410  -46.5530  -49.0630 N   0  0  0  0  0  0  0  0  0  0  0  0
  -65.7440  -45.7430  -49.4020 C   0  0  0  0  0  0  0  0  0  0  0  0
  -66.1350  -45.6630  -50.6820 N   0  0  0  0  0  0  0  0  0  0  0  0
  -66.3060  -45.0190  -48.3400 C   0  0  0  0  0  0  0  0  0  0  0  0
  -67.3590  -44.1040  -48.4410 C   0  0  2  0  0  0  0  0  0  0  0  0
  -67.9510  -43.3370  -47.2960 C   0  0  0  0  0  0  0  0  0  0  0  0
  -67.1420  -42.5970  -46.3750 C   0  0  0  0  0  0  0  0  0  0  0  0
  -67.7650  -41.8900  -45.3130 C   0  0  0  0  0  0  0  0  0  0  0  0
  -69.1450  -41.9230  -45.1820 N   0  0  0  0  0  0  0  0  0  0  0  0
  -69.9570  -42.6260  -46.0530 C   0  0  0  0  0  0  0  0  0  0  0  0
  -69.3790  -43.3480  -47.1280 C   0  0  0  0  0  0  0  0  0  0  0  0
  -67.9310  -43.8540  -49.6470 O   0  0  0  0  0  0  0  0  0  0  0  0
  -65.5030  -45.4110  -46.8510 S   0  0  0  0  0  0  0  0  0  0  0  0
  -64.4830  -46.4940  -47.7480 C   0  0  0  0  0  0  0  0  0  0  0  0
  -63.4770  -47.2460  -47.2030 N   0  0  0  0  0  0  0  0  0  0  0  0
  -63.1360  -47.1160  -45.7990 C   0  0  0  0  0  0  0  0  0  0  0  0
  -61.8620  -46.3450  -45.6380 C   0  0  0  0  0  0  0  0  0  0  0  0
  -61.8490  -44.8820  -45.6440 C   0  0  0  0  0  0  0  0  0  0  0  0
  -66.9098  -45.0377  -50.9457 H   0  0  0  0  0  0  0  0  0  0  0  0
  -65.6606  -46.2269  -51.4016 H   0  0  0  0  0  0  0  0  0  0  0  0
  -66.6223  -43.3026  -48.5993 H   0  0  0  0  0  0  0  0  0  0  0  0
  -66.0640  -42.5768  -46.4875 H   0  0  0  0  0  0  0  0  0  0  0  0
  -67.1645  -41.3269  -44.6077 H   0  0  0  0  0  0  0  0  0  0  0  0
  -71.0321  -42.6252  -45.9145 H   0  0  0  0  0  0  0  0  0  0  0  0
  -70.0071  -43.9024  -47.8159 H   0  0  0  0  0  0  0  0  0  0  0  0
  -67.8374  -42.9320  -49.8556 H   0  0  0  0  0  0  0  0  0  0  0  0
  -62.9577  -47.9099  -47.7951 H   0  0  0  0  0  0  0  0  0  0  0  0
  -63.0104  -48.1179  -45.3627 H   0  0  0  0  0  0  0  0  0  0  0  0
  -63.9473  -46.5877  -45.2768 H   0  0  0  0  0  0  0  0  0  0  0  0
  -61.2000  -46.6647  -46.4562 H   0  0  0  0  0  0  0  0  0  0  0  0
  -61.4308  -46.6554  -44.6748 H   0  0  0  0  0  0  0  0  0  0  0  0
  -60.8173  -44.5240  -45.5122 H   0  0  0  0  0  0  0  0  0  0  0  0
  -62.4753  -44.5063  -44.8214 H   0  0  0  0  0  0  0  0  0  0  0  0
  -62.2445  -44.5157  -46.6028 H   0  0  0  0  0  0  0  0  0  0  0  0
  1  2  1  0  0  0  0
  1 14  2  0  0  0  0
  2  3  1  0  0  0  0
  2  4  2  0  0  0  0
  3 19  1  0  0  0  0
  3 20  1  0  0  0  0
  4  5  1  0  0  0  0
  4 13  1  0  0  0  0
  5  6  1  0  0  0  0
  5 12  1  0  0  0  0
  5 21  1  6  0  0  0
  6  7  2  0  0  0  0
  6 11  1  0  0  0  0
  7  8  1  0  0  0  0
  7 22  1  0  0  0  0
  8  9  2  0  0  0  0
  8 23  1  0  0  0  0
  9 10  1  0  0  0  0
 10 11  2  0  0  0  0
 10 24  1  0  0  0  0
 11 25  1  0  0  0  0
 12 26  1  0  0  0  0
 13 14  1  0  0  0  0
 14 15  1  0  0  0  0
 15 16  1  0  0  0  0
 15 27  1  0  0  0  0
 16 17  1  0  0  0  0
 16 28  1  0  0  0  0
 16 29  1  0  0  0  0
 17 18  1  0  0  0  0
 17 30  1  0  0  0  0
 17 31  1  0  0  0  0
 18 32  1  0  0  0  0
 18 33  1  0  0  0  0
 18 34  1  0  0  0  0
M  END
