3rah_ligand
 OpenBabel08222323353D

 48 51  0  0  1  0  0  0  0  0999 V2000
   94.6170   77.1240  -46.0520 C   0  0  0  0  0  0  0  0  0  0  0  0
   92.2410   81.0180  -48.5450 S   0  0  0  0  0  0  0  0  0  0  0  0
   94.3600   76.3890  -47.2640 C   0  0  0  0  0  0  0  0  0  0  0  0
   91.8650   82.0740  -50.8890 N   0  0  0  0  0  0  0  0  0  0  0  0
   94.1630   77.0890  -48.5100 C   0  0  0  0  0  0  0  0  0  0  0  0
   90.5810   83.0760  -49.1280 N   0  0  0  0  0  0  0  0  0  0  0  0
   94.6080   78.7620  -50.8850 O   0  0  0  0  0  0  0  0  0  0  0  0
   94.4910   79.2960  -47.3520 C   0  0  0  0  0  0  0  0  0  0  0  0
   93.2810   80.7850  -52.3010 N   0  0  0  0  0  0  0  0  0  0  0  0
   94.6870   78.6160  -46.0970 C   0  0  0  0  0  0  0  0  0  0  0  0
   94.8060   76.4420  -44.7880 C   0  0  0  0  0  0  0  0  0  0  0  0
   95.0590   77.2070  -43.5860 C   0  0  0  0  0  0  0  0  0  0  0  0
   95.1290   78.6510  -43.6280 C   0  0  0  0  0  0  0  0  0  0  0  0
   94.9460   79.3590  -44.8750 C   0  0  0  0  0  0  0  0  0  0  0  0
   94.2200   78.5460  -48.5900 C   0  0  0  0  0  0  0  0  0  0  0  0
   94.0010   79.2080  -49.7530 C   0  0  2  0  0  0  0  0  0  0  0  0
   93.0700   80.3800  -49.8980 C   0  0  0  0  0  0  0  0  0  0  0  0
   92.7630   81.0710  -51.0710 C   0  0  0  0  0  0  0  0  0  0  0  0
   91.4960   82.1530  -49.5780 C   0  0  0  0  0  0  0  0  0  0  0  0
   89.9970   82.9140  -47.7880 C   0  0  0  0  0  0  0  0  0  0  0  0
   88.9240   81.7720  -47.7610 C   0  0  0  0  0  0  0  0  0  0  0  0
   88.3210   81.6020  -46.3440 C   0  0  0  0  0  0  0  0  0  0  0  0
   87.7250   82.9360  -45.8250 C   0  0  0  0  0  0  0  0  0  0  0  0
   88.7400   84.1050  -45.9040 C   0  0  0  0  0  0  0  0  0  0  0  0
   89.3600   84.2490  -47.3170 C   0  0  0  0  0  0  0  0  0  0  0  0
   94.3145   75.3062  -47.2397 H   0  0  0  0  0  0  0  0  0  0  0  0
   93.9675   76.5183  -49.4107 H   0  0  0  0  0  0  0  0  0  0  0  0
   90.3079   83.8715  -49.7226 H   0  0  0  0  0  0  0  0  0  0  0  0
   94.3638   79.3193  -51.6145 H   0  0  0  0  0  0  0  0  0  0  0  0
   94.5439   80.3782  -47.3855 H   0  0  0  0  0  0  0  0  0  0  0  0
   93.9604   80.0183  -52.4081 H   0  0  0  0  0  0  0  0  0  0  0  0
   92.9925   81.3359  -53.1221 H   0  0  0  0  0  0  0  0  0  0  0  0
   94.7580   75.3600  -44.7426 H   0  0  0  0  0  0  0  0  0  0  0  0
   95.1978   76.6915  -42.6426 H   0  0  0  0  0  0  0  0  0  0  0  0
   95.3202   79.2068  -42.7172 H   0  0  0  0  0  0  0  0  0  0  0  0
   95.0018   80.4413  -44.8986 H   0  0  0  0  0  0  0  0  0  0  0  0
   94.8385   79.8855  -49.5305 H   0  0  0  0  0  0  0  0  0  0  0  0
   90.8043   82.6458  -47.0906 H   0  0  0  0  0  0  0  0  0  0  0  0
   89.3982   80.8271  -48.0647 H   0  0  0  0  0  0  0  0  0  0  0  0
   88.1175   82.0209  -48.4664 H   0  0  0  0  0  0  0  0  0  0  0  0
   89.1116   81.2701  -45.6550 H   0  0  0  0  0  0  0  0  0  0  0  0
   87.5250   80.8438  -46.3813 H   0  0  0  0  0  0  0  0  0  0  0  0
   87.4200   82.8028  -44.7766 H   0  0  0  0  0  0  0  0  0  0  0  0
   86.8447   83.1904  -46.4335 H   0  0  0  0  0  0  0  0  0  0  0  0
   89.5477   83.9221  -45.1800 H   0  0  0  0  0  0  0  0  0  0  0  0
   88.2225   85.0411  -45.6474 H   0  0  0  0  0  0  0  0  0  0  0  0
   88.5719   84.5409  -48.0267 H   0  0  0  0  0  0  0  0  0  0  0  0
   90.1365   85.0277  -47.2906 H   0  0  0  0  0  0  0  0  0  0  0  0
  1 11  1  0  0  0  0
  2 19  1  0  0  0  0
  3  1  2  0  0  0  0
  3 26  1  0  0  0  0
  4 18  1  0  0  0  0
  5  3  1  0  0  0  0
  5 27  1  0  0  0  0
  6 20  1  0  0  0  0
  6 28  1  0  0  0  0
  7 29  1  0  0  0  0
  8 10  2  0  0  0  0
  8 30  1  0  0  0  0
  9 31  1  0  0  0  0
  9 32  1  0  0  0  0
 10  1  1  0  0  0  0
 10 14  1  0  0  0  0
 11 12  2  0  0  0  0
 11 33  1  0  0  0  0
 12 34  1  0  0  0  0
 13 12  1  0  0  0  0
 13 35  1  0  0  0  0
 14 13  2  0  0  0  0
 14 36  1  0  0  0  0
 15  5  2  0  0  0  0
 15  8  1  0  0  0  0
 16  7  1  0  0  0  0
 16 15  1  0  0  0  0
 16 17  1  0  0  0  0
 16 37  1  1  0  0  0
 17  2  1  0  0  0  0
 17 18  2  0  0  0  0
 18  9  1  0  0  0  0
 19  4  2  0  0  0  0
 19  6  1  0  0  0  0
 20 21  1  0  0  0  0
 20 25  1  0  0  0  0
 20 38  1  0  0  0  0
 21 22  1  0  0  0  0
 21 39  1  0  0  0  0
 21 40  1  0  0  0  0
 22 23  1  0  0  0  0
 22 41  1  0  0  0  0
 22 42  1  0  0  0  0
 23 24  1  0  0  0  0
 23 43  1  0  0  0  0
 23 44  1  0  0  0  0
 24 25  1  0  0  0  0
 24 45  1  0  0  0  0
 24 46  1  0  0  0  0
 25 47  1  0  0  0  0
 25 48  1  0  0  0  0
M  END
