3rbm_ligand
 OpenBabel08222323353D

 58 58  0  0  0  0  0  0  0  0999 V2000
  -32.4000   10.7370   -5.4540 C   0  0  0  0  0  0  0  0  0  0  0  0
  -40.2220    8.3240  -22.1210 O   0  0  0  0  0  1  0  0  0  0  0  0
  -40.7580   10.8510  -21.3370 O   0  0  0  0  0  1  0  0  0  0  0  0
  -37.8050    7.4990  -21.7210 O   0  0  0  0  0  1  0  0  0  0  0  0
  -39.5720    7.1610  -19.8250 O   0  0  0  0  0  0  0  0  0  0  0  0
  -40.3130   10.7300  -18.7390 O   0  0  0  0  0  1  0  0  0  0  0  0
  -38.9400   12.3560  -20.1470 O   0  0  0  0  0  0  0  0  0  0  0  0
  -35.3230   12.6680  -19.2940 C   0  0  0  0  0  0  0  0  0  0  0  0
  -35.8100   11.7900  -20.1710 C   0  0  0  0  0  0  0  0  0  0  0  0
  -36.3890   11.0630  -18.1830 C   0  0  0  0  0  0  0  0  0  0  0  0
  -33.5750    9.9220   -6.0280 C   0  0  0  0  0  0  0  0  0  0  0  0
  -34.6850   10.8280   -6.5790 C   0  0  0  0  0  0  0  0  0  0  0  0
  -34.6590   10.8990   -8.1080 C   0  0  0  0  0  0  0  0  0  0  0  0
  -33.8250   12.0920   -8.5630 C   0  0  0  0  0  0  0  0  0  0  0  0
  -33.5260   12.0540  -10.0630 C   0  0  0  0  0  0  0  0  0  0  0  0
  -34.7720   12.5070  -10.7830 C   0  0  0  0  0  0  0  0  0  0  0  0
  -34.4190   13.1280  -12.1350 C   0  0  0  0  0  0  0  0  0  0  0  0
  -35.0860   12.3160  -13.2410 C   0  0  0  0  0  0  0  0  0  0  0  0
  -34.4020   12.6400  -14.5640 C   0  0  0  0  0  0  0  0  0  0  0  0
  -35.0820   11.8850  -15.6980 C   0  0  0  0  0  0  0  0  0  0  0  0
  -35.2200   12.8520  -16.8560 C   0  0  0  0  0  0  0  0  0  0  0  0
  -37.1010    9.7300  -20.1550 C   0  0  0  0  0  0  0  0  0  0  0  0
  -38.6210    9.5070  -20.0490 C   0  0  0  0  0  0  0  0  0  0  0  0
  -35.5430   12.1200  -18.0910 N   0  0  0  0  0  0  0  0  0  0  0  0
  -36.6000   10.9300  -19.4920 N   0  0  0  0  0  4  0  0  0  0  0  0
  -39.1730    8.1260  -21.0850 P   0  0  0  0  0  0  0  0  0  0  0  0
  -39.7440   10.9070  -20.2580 P   0  0  0  0  0  0  0  0  0  0  0  0
  -31.9738   11.3606   -6.2399 H   0  0  0  0  0  0  0  0  0  0  0  0
  -32.7601   11.3689   -4.6422 H   0  0  0  0  0  0  0  0  0  0  0  0
  -31.6378   10.0560   -5.0753 H   0  0  0  0  0  0  0  0  0  0  0  0
  -34.8482   13.6253  -19.5091 H   0  0  0  0  0  0  0  0  0  0  0  0
  -35.6075   11.7697  -21.2418 H   0  0  0  0  0  0  0  0  0  0  0  0
  -36.8010   10.4614  -17.3728 H   0  0  0  0  0  0  0  0  0  0  0  0
  -33.9953    9.3163   -5.2251 H   0  0  0  0  0  0  0  0  0  0  0  0
  -33.1977    9.3079   -6.8457 H   0  0  0  0  0  0  0  0  0  0  0  0
  -34.5305   11.8336   -6.1879 H   0  0  0  0  0  0  0  0  0  0  0  0
  -35.6462   10.4151   -6.2727 H   0  0  0  0  0  0  0  0  0  0  0  0
  -35.6779   11.0127   -8.4782 H   0  0  0  0  0  0  0  0  0  0  0  0
  -34.2177    9.9832   -8.5012 H   0  0  0  0  0  0  0  0  0  0  0  0
  -32.8755   12.0642   -8.0284 H   0  0  0  0  0  0  0  0  0  0  0  0
  -34.3914   12.9996   -8.3542 H   0  0  0  0  0  0  0  0  0  0  0  0
  -33.2513   11.0456  -10.3724 H   0  0  0  0  0  0  0  0  0  0  0  0
  -32.6875   12.7081  -10.3021 H   0  0  0  0  0  0  0  0  0  0  0  0
  -35.2792   13.2547  -10.1733 H   0  0  0  0  0  0  0  0  0  0  0  0
  -35.4166   11.6439  -10.9491 H   0  0  0  0  0  0  0  0  0  0  0  0
  -33.3378   13.1202  -12.2730 H   0  0  0  0  0  0  0  0  0  0  0  0
  -34.7720   14.1586  -12.1705 H   0  0  0  0  0  0  0  0  0  0  0  0
  -36.1447   12.5688  -13.2994 H   0  0  0  0  0  0  0  0  0  0  0  0
  -34.9930   11.2513  -13.0267 H   0  0  0  0  0  0  0  0  0  0  0  0
  -33.3552   12.3409  -14.5101 H   0  0  0  0  0  0  0  0  0  0  0  0
  -34.4728   13.7113  -14.7523 H   0  0  0  0  0  0  0  0  0  0  0  0
  -36.0592   11.5177  -15.3845 H   0  0  0  0  0  0  0  0  0  0  0  0
  -34.4923   11.0161  -15.9901 H   0  0  0  0  0  0  0  0  0  0  0  0
  -34.2784   13.3841  -16.9916 H   0  0  0  0  0  0  0  0  0  0  0  0
  -36.0216   13.5579  -16.6387 H   0  0  0  0  0  0  0  0  0  0  0  0
  -36.8747    9.8413  -21.2154 H   0  0  0  0  0  0  0  0  0  0  0  0
  -36.6256    8.8805  -19.6647 H   0  0  0  0  0  0  0  0  0  0  0  0
  -38.7068    9.2851  -18.9853 H   0  0  0  0  0  0  0  0  0  0  0  0
  1 28  1  0  0  0  0
  1 29  1  0  0  0  0
  1 30  1  0  0  0  0
  8 31  1  0  0  0  0
  9  8  2  0  0  0  0
  9 32  1  0  0  0  0
 10 24  1  0  0  0  0
 10 33  1  0  0  0  0
 11  1  1  0  0  0  0
 11 34  1  0  0  0  0
 11 35  1  0  0  0  0
 12 11  1  0  0  0  0
 12 36  1  0  0  0  0
 12 37  1  0  0  0  0
 13 12  1  0  0  0  0
 13 38  1  0  0  0  0
 13 39  1  0  0  0  0
 14 13  1  0  0  0  0
 14 40  1  0  0  0  0
 14 41  1  0  0  0  0
 15 14  1  0  0  0  0
 15 42  1  0  0  0  0
 15 43  1  0  0  0  0
 16 15  1  0  0  0  0
 16 44  1  0  0  0  0
 16 45  1  0  0  0  0
 17 16  1  0  0  0  0
 17 46  1  0  0  0  0
 17 47  1  0  0  0  0
 18 17  1  0  0  0  0
 18 48  1  0  0  0  0
 18 49  1  0  0  0  0
 19 18  1  0  0  0  0
 19 50  1  0  0  0  0
 19 51  1  0  0  0  0
 20 19  1  0  0  0  0
 20 52  1  0  0  0  0
 20 53  1  0  0  0  0
 21 20  1  0  0  0  0
 21 54  1  0  0  0  0
 21 55  1  0  0  0  0
 22 25  1  0  0  0  0
 22 56  1  0  0  0  0
 22 57  1  0  0  0  0
 23 22  1  0  0  0  0
 23 26  1  0  0  0  0
 23 27  1  0  0  0  0
 23 58  1  0  0  0  0
 24  8  1  0  0  0  0
 24 21  1  0  0  0  0
 25  9  1  0  0  0  0
 25 10  2  0  0  0  0
 26  2  1  0  0  0  0
 26  4  1  0  0  0  0
 26  5  2  0  0  0  0
 27  3  1  0  0  0  0
 27  6  1  0  0  0  0
 27  7  2  0  0  0  0
M  END
