3rcj_ligand
 OpenBabel08222323353D

 34 37  0  0  0  0  0  0  0  0999 V2000
  -14.1980  -26.7270   -8.9080 C   0  0  0  0  0  0  0  0  0  0  0  0
  -12.8720  -26.9930   -8.5130 C   0  0  0  0  0  0  0  0  0  0  0  0
  -12.1740  -26.1000   -7.7970 N   0  0  0  0  0  0  0  0  0  0  0  0
  -14.7880  -25.5030   -8.5380 C   0  0  0  0  0  0  0  0  0  0  0  0
  -14.0290  -24.5710   -7.7790 C   0  0  0  0  0  0  0  0  0  0  0  0
  -12.6870  -24.9130   -7.4170 C   0  0  0  0  0  0  0  0  0  0  0  0
  -12.1820  -23.8680   -6.7030 N   0  0  0  0  0  0  0  0  0  0  0  0
  -13.1110  -22.8790   -6.5800 C   0  0  0  0  0  0  0  0  0  0  0  0
  -14.2660  -23.2280   -7.2050 C   0  0  0  0  0  0  0  0  0  0  0  0
  -15.4990  -22.3870   -7.2590 C   0  0  0  0  0  0  0  0  0  0  0  0
  -15.6460  -21.1700   -6.7040 N   0  0  0  0  0  0  0  0  0  0  0  0
  -16.8360  -20.7400   -6.9380 N   0  0  0  0  0  0  0  0  0  0  0  0
  -17.4980  -21.6030   -7.6210 N   0  0  0  0  0  0  0  0  0  0  0  0
  -16.6990  -22.6710   -7.8550 C   0  0  0  0  0  0  0  0  0  0  0  0
  -18.8900  -21.4570   -8.0720 C   0  0  0  0  0  0  0  0  0  0  0  0
  -18.9440  -20.4530   -9.1900 C   0  0  0  0  0  0  0  0  0  0  0  0
  -18.8830  -20.8880  -10.5270 C   0  0  0  0  0  0  0  0  0  0  0  0
  -18.9300  -19.9510  -11.5750 C   0  0  0  0  0  0  0  0  0  0  0  0
  -19.0400  -18.5760  -11.2850 C   0  0  0  0  0  0  0  0  0  0  0  0
  -19.1030  -18.1350   -9.9440 C   0  0  0  0  0  0  0  0  0  0  0  0
  -19.0550  -19.0760   -8.8960 C   0  0  0  0  0  0  0  0  0  0  0  0
  -14.7556  -27.4535   -9.4879 H   0  0  0  0  0  0  0  0  0  0  0  0
  -12.4097  -27.9329   -8.7920 H   0  0  0  0  0  0  0  0  0  0  0  0
  -15.8072  -25.2746   -8.8281 H   0  0  0  0  0  0  0  0  0  0  0  0
  -11.2303  -23.8309   -6.3108 H   0  0  0  0  0  0  0  0  0  0  0  0
  -12.9502  -21.9392   -6.0538 H   0  0  0  0  0  0  0  0  0  0  0  0
  -16.9583  -23.5738   -8.4060 H   0  0  0  0  0  0  0  0  0  0  0  0
  -19.5136  -21.1097   -7.2350 H   0  0  0  0  0  0  0  0  0  0  0  0
  -19.2645  -22.4272   -8.4303 H   0  0  0  0  0  0  0  0  0  0  0  0
  -18.7998  -21.9457  -10.7493 H   0  0  0  0  0  0  0  0  0  0  0  0
  -18.8817  -20.2860  -12.6048 H   0  0  0  0  0  0  0  0  0  0  0  0
  -19.0764  -17.8546  -12.0933 H   0  0  0  0  0  0  0  0  0  0  0  0
  -19.1879  -17.0773   -9.7223 H   0  0  0  0  0  0  0  0  0  0  0  0
  -19.1032  -18.7434   -7.8654 H   0  0  0  0  0  0  0  0  0  0  0  0
  1  2  2  0  0  0  0
  1  4  1  0  0  0  0
  1 22  1  0  0  0  0
  2  3  1  0  0  0  0
  2 23  1  0  0  0  0
  3  6  2  0  0  0  0
  4  5  2  0  0  0  0
  4 24  1  0  0  0  0
  5  6  1  0  0  0  0
  5  9  1  0  0  0  0
  6  7  1  0  0  0  0
  7  8  1  0  0  0  0
  7 25  1  0  0  0  0
  8  9  2  0  0  0  0
  8 26  1  0  0  0  0
  9 10  1  0  0  0  0
 10 11  1  0  0  0  0
 10 14  2  0  0  0  0
 11 12  2  0  0  0  0
 12 13  1  0  0  0  0
 13 14  1  0  0  0  0
 13 15  1  0  0  0  0
 14 27  1  0  0  0  0
 15 16  1  0  0  0  0
 15 28  1  0  0  0  0
 15 29  1  0  0  0  0
 16 17  2  0  0  0  0
 16 21  1  0  0  0  0
 17 18  1  0  0  0  0
 17 30  1  0  0  0  0
 18 19  2  0  0  0  0
 18 31  1  0  0  0  0
 19 20  1  0  0  0  0
 19 32  1  0  0  0  0
 20 21  2  0  0  0  0
 20 33  1  0  0  0  0
 21 34  1  0  0  0  0
M  END
