3rhk_ligand
 OpenBabel08222323353D

 45 50  0  0  1  0  0  0  0  0999 V2000
   -7.7550   12.1690   -3.6380 C   0  0  1  0  0  0  0  0  0  0  0  0
  -10.8150   10.5170   -4.6180 N   0  0  0  0  0  0  0  0  0  0  0  0
   -7.8460   13.0860   -5.8700 O   0  0  0  0  0  0  0  0  0  0  0  0
   -6.4790   11.4310   -1.5800 C   0  0  0  0  0  0  0  0  0  0  0  0
   -5.8660   12.3950   -4.9580 N   0  0  0  0  0  0  0  0  0  0  0  0
   -4.3140   11.4900   -3.5640 O   0  0  0  0  0  0  0  0  0  0  0  0
   -6.8900   10.4140   -0.7330 C   0  0  0  0  0  0  0  0  0  0  0  0
   -6.6600   10.8460    0.5200 N   0  0  0  0  0  0  0  0  0  0  0  0
   -9.0870   11.5240   -3.7760 C   0  0  0  0  0  0  0  0  0  0  0  0
   -9.5690   10.9590   -4.9370 C   0  0  0  0  0  0  0  0  0  0  0  0
   -6.6350   11.2830   -3.0620 C   0  0  2  0  0  0  0  0  0  0  0  0
   -7.1840   12.6030   -4.9540 C   0  0  0  0  0  0  0  0  0  0  0  0
   -5.4630   11.7240   -3.8720 C   0  0  0  0  0  0  0  0  0  0  0  0
  -11.0950   10.7980   -3.3180 C   0  0  0  0  0  0  0  0  0  0  0  0
  -10.0060   11.4580   -2.7620 C   0  0  0  0  0  0  0  0  0  0  0  0
   -9.9760   11.8930   -1.4390 C   0  0  0  0  0  0  0  0  0  0  0  0
  -11.0990   11.6590   -0.6470 C   0  0  0  0  0  0  0  0  0  0  0  0
  -12.2050   11.0040   -1.1940 C   0  0  0  0  0  0  0  0  0  0  0  0
  -12.2180   10.5740   -2.5230 C   0  0  0  0  0  0  0  0  0  0  0  0
   -5.7960   12.8340    1.5510 C   0  0  0  0  0  0  0  0  0  0  0  0
   -5.9720   12.2850    2.9540 C   0  0  0  0  0  0  0  0  0  0  0  0
   -6.5320   10.8540    3.0290 C   0  0  0  0  0  0  0  0  0  0  0  0
   -6.9360   10.1090    1.7560 C   0  0  0  0  0  0  0  0  0  0  0  0
   -6.1590   12.0790    0.4590 C   0  0  0  0  0  0  0  0  0  0  0  0
   -6.0210   12.5150   -0.8440 C   0  0  0  0  0  0  0  0  0  0  0  0
   -5.5080   13.7720   -1.1120 C   0  0  0  0  0  0  0  0  0  0  0  0
   -5.1380   14.5580   -0.0130 C   0  0  0  0  0  0  0  0  0  0  0  0
   -5.2680   14.1050    1.3100 C   0  0  0  0  0  0  0  0  0  0  0  0
   -7.8877   13.0452   -2.9863 H   0  0  0  0  0  0  0  0  0  0  0  0
  -11.4545   10.0382   -5.2681 H   0  0  0  0  0  0  0  0  0  0  0  0
   -5.2527   12.7034   -5.6852 H   0  0  0  0  0  0  0  0  0  0  0  0
   -7.3152    9.4547   -1.0243 H   0  0  0  0  0  0  0  0  0  0  0  0
   -9.0633   10.8832   -5.8985 H   0  0  0  0  0  0  0  0  0  0  0  0
   -6.8477   10.2234   -3.2667 H   0  0  0  0  0  0  0  0  0  0  0  0
   -9.1052   12.3985   -1.0373 H   0  0  0  0  0  0  0  0  0  0  0  0
  -11.1140   11.9834    0.3872 H   0  0  0  0  0  0  0  0  0  0  0  0
  -13.0745   10.8250   -0.5719 H   0  0  0  0  0  0  0  0  0  0  0  0
  -13.0889   10.0733   -2.9303 H   0  0  0  0  0  0  0  0  0  0  0  0
   -6.6610   12.9494    3.4961 H   0  0  0  0  0  0  0  0  0  0  0  0
   -4.9896   12.2929    3.4488 H   0  0  0  0  0  0  0  0  0  0  0  0
   -6.6417   10.3674    3.9970 H   0  0  0  0  0  0  0  0  0  0  0  0
   -7.3887    9.1186    1.7671 H   0  0  0  0  0  0  0  0  0  0  0  0
   -5.3973   14.1328   -2.1282 H   0  0  0  0  0  0  0  0  0  0  0  0
   -4.7377   15.5497   -0.1898 H   0  0  0  0  0  0  0  0  0  0  0  0
   -4.9615   14.7357    2.1367 H   0  0  0  0  0  0  0  0  0  0  0  0
  1  9  1  0  0  0  0
  1 12  1  0  0  0  0
  1 29  1  1  0  0  0
  2 30  1  0  0  0  0
  4 11  1  0  0  0  0
  4 25  1  0  0  0  0
  5 12  1  0  0  0  0
  5 31  1  0  0  0  0
  7  4  2  0  0  0  0
  7 32  1  0  0  0  0
  8  7  1  0  0  0  0
  8 23  1  0  0  0  0
  9 10  2  0  0  0  0
  9 15  1  0  0  0  0
 10  2  1  0  0  0  0
 10 33  1  0  0  0  0
 11  1  1  0  0  0  0
 11 13  1  0  0  0  0
 11 34  1  6  0  0  0
 12  3  2  0  0  0  0
 13  5  1  0  0  0  0
 13  6  2  0  0  0  0
 14  2  1  0  0  0  0
 14 19  1  0  0  0  0
 15 14  2  0  0  0  0
 15 16  1  0  0  0  0
 16 17  2  0  0  0  0
 16 35  1  0  0  0  0
 17 18  1  0  0  0  0
 17 36  1  0  0  0  0
 18 37  1  0  0  0  0
 19 18  2  0  0  0  0
 19 38  1  0  0  0  0
 20 21  1  0  0  0  0
 20 24  2  0  0  0  0
 20 28  1  0  0  0  0
 21 22  1  0  0  0  0
 21 39  1  0  0  0  0
 21 40  1  0  0  0  0
 22 23  2  0  0  0  0
 22 41  1  0  0  0  0
 23 42  1  0  0  0  0
 24  8  1  0  0  0  0
 24 25  1  0  0  0  0
 25 26  2  0  0  0  0
 26 27  1  0  0  0  0
 26 43  1  0  0  0  0
 27 28  2  0  0  0  0
 27 44  1  0  0  0  0
 28 45  1  0  0  0  0
M  END
