3rhx_ligand
 OpenBabel08222323353D

 36 39  0  0  1  0  0  0  0  0999 V2000
   65.8830    2.2490    9.0100 C   0  0  0  0  0  0  0  0  0  0  0  0
   66.8610    1.7570    9.8750 C   0  0  0  0  0  0  0  0  0  0  0  0
   65.3680    1.4540    8.0620 N   0  0  0  0  0  0  0  0  0  0  0  0
   65.7880    0.1880    7.9590 C   0  0  0  0  0  0  0  0  0  0  0  0
   65.1920   -0.5550    6.9960 N   0  0  0  0  0  0  0  0  0  0  0  0
   66.7370   -0.3080    8.7910 N   0  0  0  0  0  0  0  0  0  0  0  0
   67.2890    0.4470    9.7380 C   0  0  0  0  0  0  0  0  0  0  0  0
   67.4360    2.6620   10.9270 C   0  0  0  0  0  0  0  0  0  0  0  0
   66.4000    3.7130   11.4200 C   0  0  1  0  0  0  0  0  0  0  0  0
   67.1120    4.6270   12.3340 C   0  0  0  0  0  0  0  0  0  0  0  0
   65.6270    4.3470   10.3130 C   0  0  0  0  0  0  0  0  0  0  0  0
   65.3720    3.6350    9.1400 C   0  0  0  0  0  0  0  0  0  0  0  0
   68.0520    5.5720   11.8550 C   0  0  0  0  0  0  0  0  0  0  0  0
   68.6980    6.3660   12.7920 C   0  0  0  0  0  0  0  0  0  0  0  0
   68.4370    6.2300   14.1720 C   0  0  0  0  0  0  0  0  0  0  0  0
   67.5070    5.2970   14.6810 C   0  0  0  0  0  0  0  0  0  0  0  0
   66.8650    4.4950   13.7230 C   0  0  0  0  0  0  0  0  0  0  0  0
   65.1200    5.6370   10.4100 C   0  0  0  0  0  0  0  0  0  0  0  0
   64.3810    6.2250    9.3730 C   0  0  0  0  0  0  0  0  0  0  0  0
   64.1300    5.4970    8.2110 C   0  0  0  0  0  0  0  0  0  0  0  0
   64.6240    4.1890    8.1060 C   0  0  0  0  0  0  0  0  0  0  0  0
   64.4758   -0.1320    6.3885 H   0  0  0  0  0  0  0  0  0  0  0  0
   65.4549   -1.5430    6.8712 H   0  0  0  0  0  0  0  0  0  0  0  0
   68.0574    0.0450   10.3884 H   0  0  0  0  0  0  0  0  0  0  0  0
   68.3044    3.1897   10.5058 H   0  0  0  0  0  0  0  0  0  0  0  0
   67.7579    2.0516   11.7836 H   0  0  0  0  0  0  0  0  0  0  0  0
   65.6554    3.1775   12.0273 H   0  0  0  0  0  0  0  0  0  0  0  0
   68.2591    5.6713   10.7956 H   0  0  0  0  0  0  0  0  0  0  0  0
   69.4170    7.1050   12.4573 H   0  0  0  0  0  0  0  0  0  0  0  0
   68.9710    6.8663   14.8684 H   0  0  0  0  0  0  0  0  0  0  0  0
   67.3020    5.2057   15.7415 H   0  0  0  0  0  0  0  0  0  0  0  0
   66.1548    3.7479   14.0585 H   0  0  0  0  0  0  0  0  0  0  0  0
   65.3011    6.2062   11.3146 H   0  0  0  0  0  0  0  0  0  0  0  0
   64.0079    7.2377    9.4744 H   0  0  0  0  0  0  0  0  0  0  0  0
   63.5607    5.9361    7.3997 H   0  0  0  0  0  0  0  0  0  0  0  0
   64.4220    3.6063    7.2145 H   0  0  0  0  0  0  0  0  0  0  0  0
  1  2  2  0  0  0  0
  1  3  1  0  0  0  0
  1 12  1  0  0  0  0
  2  7  1  0  0  0  0
  2  8  1  0  0  0  0
  3  4  2  0  0  0  0
  4  5  1  0  0  0  0
  4  6  1  0  0  0  0
  5 22  1  0  0  0  0
  5 23  1  0  0  0  0
  6  7  2  0  0  0  0
  7 24  1  0  0  0  0
  8  9  1  0  0  0  0
  8 25  1  0  0  0  0
  8 26  1  0  0  0  0
  9 10  1  0  0  0  0
  9 11  1  0  0  0  0
  9 27  1  1  0  0  0
 10 13  2  0  0  0  0
 10 17  1  0  0  0  0
 11 12  2  0  0  0  0
 11 18  1  0  0  0  0
 12 21  1  0  0  0  0
 13 14  1  0  0  0  0
 13 28  1  0  0  0  0
 14 15  2  0  0  0  0
 14 29  1  0  0  0  0
 15 16  1  0  0  0  0
 15 30  1  0  0  0  0
 16 17  2  0  0  0  0
 16 31  1  0  0  0  0
 17 32  1  0  0  0  0
 18 19  2  0  0  0  0
 18 33  1  0  0  0  0
 19 20  1  0  0  0  0
 19 34  1  0  0  0  0
 20 21  2  0  0  0  0
 20 35  1  0  0  0  0
 21 36  1  0  0  0  0
M  END
