3rik_ligand
 OpenBabel08222323353D

 32 32  0  0  1  0  0  0  0  0999 V2000
   10.0930   -5.8000   37.6670 O   0  0  0  0  0  0  0  0  0  0  0  0
    9.7280  -11.8710   38.3290 O   0  0  0  0  0  0  0  0  0  0  0  0
   13.1520   -8.4060   41.2000 O   0  0  0  0  0  0  0  0  0  0  0  0
   11.8580  -12.7500   39.5230 O   0  0  0  0  0  0  0  0  0  0  0  0
   13.3330  -11.4830   41.3050 O   0  0  0  0  0  0  0  0  0  0  0  0
    9.2950   -6.9430   38.0300 C   0  0  0  0  0  0  0  0  0  0  0  0
    9.4740   -7.3710   39.5080 C   0  0  0  0  0  0  0  0  0  0  0  0
    9.6280   -9.7830   39.2170 C   0  0  0  0  0  0  0  0  0  0  0  0
   10.7700   -8.7080   41.0580 C   0  0  0  0  0  0  0  0  0  0  0  0
   10.5970  -10.8560   38.7680 C   0  0  1  0  0  0  0  0  0  0  0  0
   12.1300   -9.3910   41.3230 C   0  0  1  0  0  0  0  0  0  0  0  0
   11.3570  -11.4830   39.9440 C   0  0  2  0  0  0  0  0  0  0  0  0
   12.5210  -10.6330   40.4870 C   0  0  2  0  0  0  0  0  0  0  0  0
   10.3560   -8.5680   39.6450 N   0  3  2  0  0  0  0  0  0  0  0  0
   11.0120   -6.0025   37.7975 H   0  0  0  0  0  0  0  0  0  0  0  0
   10.2376  -12.6102   38.0184 H   0  0  0  0  0  0  0  0  0  0  0  0
   13.1342   -8.0405   40.3232 H   0  0  0  0  0  0  0  0  0  0  0  0
   12.3329  -13.1553   40.2390 H   0  0  0  0  0  0  0  0  0  0  0  0
   13.5839  -12.2530   40.8083 H   0  0  0  0  0  0  0  0  0  0  0  0
    9.5805   -7.7871   37.3851 H   0  0  0  0  0  0  0  0  0  0  0  0
    8.2360   -6.6964   37.8638 H   0  0  0  0  0  0  0  0  0  0  0  0
    8.4864   -7.6084   39.9303 H   0  0  0  0  0  0  0  0  0  0  0  0
    9.9208   -6.5358   40.0672 H   0  0  0  0  0  0  0  0  0  0  0  0
    9.0330  -10.1635   40.0603 H   0  0  0  0  0  0  0  0  0  0  0  0
    8.9591   -9.5279   38.3819 H   0  0  0  0  0  0  0  0  0  0  0  0
   10.8146   -7.6986   41.4928 H   0  0  0  0  0  0  0  0  0  0  0  0
    9.9967   -9.2958   41.5742 H   0  0  0  0  0  0  0  0  0  0  0  0
   11.2838  -10.4934   37.9891 H   0  0  0  0  0  0  0  0  0  0  0  0
   12.1038   -9.7277   42.3699 H   0  0  0  0  0  0  0  0  0  0  0  0
   10.6422  -11.6351   40.7661 H   0  0  0  0  0  0  0  0  0  0  0  0
   13.1102  -10.2833   39.6265 H   0  0  0  0  0  0  0  0  0  0  0  0
   11.1730   -8.4489   39.0668 H   0  0  0  0  0  0  0  0  0  0  0  0
  1 15  1  0  0  0  0
  2 16  1  0  0  0  0
  3 17  1  0  0  0  0
  4 18  1  0  0  0  0
  5 19  1  0  0  0  0
  6  1  1  0  0  0  0
  6 20  1  0  0  0  0
  6 21  1  0  0  0  0
  7  6  1  0  0  0  0
  7 22  1  0  0  0  0
  7 23  1  0  0  0  0
  8 10  1  0  0  0  0
  8 24  1  0  0  0  0
  8 25  1  0  0  0  0
  9 14  1  0  0  0  0
  9 26  1  0  0  0  0
  9 27  1  0  0  0  0
 10  2  1  0  0  0  0
 10 12  1  0  0  0  0
 10 28  1  6  0  0  0
 11  3  1  0  0  0  0
 11  9  1  0  0  0  0
 11 13  1  0  0  0  0
 11 29  1  1  0  0  0
 12  4  1  0  0  0  0
 12 13  1  0  0  0  0
 12 30  1  1  0  0  0
 13  5  1  0  0  0  0
 13 31  1  6  0  0  0
 14  7  1  0  0  0  0
 14  8  1  0  0  0  0
 14 32  1  6  0  0  0
M  CHG  1  14   1
M  END
