3ril_ligand
 OpenBabel08222323353D

 25 25  0  0  1  0  0  0  0  0999 V2000
  -14.8550   -4.8250   38.8600 O   0  0  0  0  0  0  0  0  0  0  0  0
  -12.6150   -8.2940   42.8100 O   0  0  0  0  0  0  0  0  0  0  0  0
  -15.8630   -7.7900   39.3770 O   0  0  0  0  0  0  0  0  0  0  0  0
  -14.7420   -9.0830   41.4580 O   0  0  0  0  0  0  0  0  0  0  0  0
  -12.6680   -5.8880   39.3610 C   0  0  0  0  0  0  0  0  0  0  0  0
  -12.0620   -6.3760   41.6890 C   0  0  0  0  0  0  0  0  0  0  0  0
  -12.4010   -5.3830   40.6960 N   0  3  0  0  0  0  0  0  0  0  0  0
  -14.1760   -6.0740   39.1200 C   0  0  1  0  0  0  0  0  0  0  0  0
  -13.2480   -7.2450   42.1050 C   0  0  1  0  0  0  0  0  0  0  0  0
  -14.9240   -6.9840   40.1310 C   0  0  2  0  0  0  0  0  0  0  0  0
  -14.0130   -7.9330   40.9550 C   0  0  2  0  0  0  0  0  0  0  0  0
  -15.7794   -4.9919   38.7183 H   0  0  0  0  0  0  0  0  0  0  0  0
  -13.2714   -8.9064   43.1208 H   0  0  0  0  0  0  0  0  0  0  0  0
  -16.3378   -8.3596   39.9708 H   0  0  0  0  0  0  0  0  0  0  0  0
  -15.2087   -9.4984   40.7424 H   0  0  0  0  0  0  0  0  0  0  0  0
  -12.1641   -6.8581   39.2383 H   0  0  0  0  0  0  0  0  0  0  0  0
  -12.2735   -5.1739   38.6231 H   0  0  0  0  0  0  0  0  0  0  0  0
  -11.6773   -5.8603   42.5812 H   0  0  0  0  0  0  0  0  0  0  0  0
  -11.2787   -7.0289   41.2765 H   0  0  0  0  0  0  0  0  0  0  0  0
  -13.2254   -4.8975   41.0134 H   0  0  0  0  0  0  0  0  0  0  0  0
  -11.6323   -4.7341   40.6329 H   0  0  0  0  0  0  0  0  0  0  0  0
  -14.2320   -6.6266   38.1706 H   0  0  0  0  0  0  0  0  0  0  0  0
  -13.9470   -6.6711   42.7311 H   0  0  0  0  0  0  0  0  0  0  0  0
  -15.4721   -6.3404   40.8348 H   0  0  0  0  0  0  0  0  0  0  0  0
  -13.2533   -8.3128   40.2561 H   0  0  0  0  0  0  0  0  0  0  0  0
  1 12  1  0  0  0  0
  2 13  1  0  0  0  0
  3 14  1  0  0  0  0
  4 15  1  0  0  0  0
  5  8  1  0  0  0  0
  5 16  1  0  0  0  0
  5 17  1  0  0  0  0
  6  7  1  0  0  0  0
  6 18  1  0  0  0  0
  6 19  1  0  0  0  0
  7  5  1  0  0  0  0
  7 20  1  0  0  0  0
  7 21  1  0  0  0  0
  8  1  1  0  0  0  0
  8 10  1  0  0  0  0
  8 22  1  6  0  0  0
  9  2  1  0  0  0  0
  9  6  1  0  0  0  0
  9 11  1  0  0  0  0
  9 23  1  1  0  0  0
 10  3  1  0  0  0  0
 10 11  1  0  0  0  0
 10 24  1  1  0  0  0
 11  4  1  0  0  0  0
 11 25  1  6  0  0  0
M  CHG  1   7   1
M  END
