3rl3_ligand
 OpenBabel08222323353D

 37 39  0  0  1  0  0  0  0  0999 V2000
  -24.0770   10.5650    7.1860 P   0  0  0  0  0  0  0  0  0  0  0  0
  -22.7100    9.9540    7.2740 O   0  0  0  0  0  1  0  0  0  0  0  0
  -24.7920   10.7370    8.6110 O   0  0  0  0  0  1  0  0  0  0  0  0
  -23.9890   11.9630    6.4880 O   0  0  0  0  0  0  0  0  0  0  0  0
  -25.0070    9.6110    6.2800 O   0  0  0  0  0  0  0  0  0  0  0  0
  -26.4230    9.8170    6.2150 C   0  0  0  0  0  0  0  0  0  0  0  0
  -27.0050    8.9770    5.0420 C   0  0  1  0  0  0  0  0  0  0  0  0
  -26.2170    9.2600    3.8430 O   0  0  0  0  0  0  0  0  0  0  0  0
  -26.8670    7.4600    5.1470 C   0  0  1  0  0  0  0  0  0  0  0  0
  -27.9090    6.9560    5.9520 O   0  0  0  0  0  0  0  0  0  0  0  0
  -27.0420    7.0410    3.6870 C   0  0  1  0  0  0  0  0  0  0  0  0
  -28.3950    7.2380    3.2210 O   0  0  0  0  0  0  0  0  0  0  0  0
  -26.1580    8.0840    3.0180 C   0  0  2  0  0  0  0  0  0  0  0  0
  -24.7930    7.5330    2.9240 N   0  0  0  0  0  0  0  0  0  0  0  0
  -23.8410    7.4910    3.8640 C   0  0  0  0  0  0  0  0  0  0  0  0
  -22.7460    6.9020    3.3570 N   0  0  0  0  0  0  0  0  0  0  0  0
  -23.0140    6.5560    2.0950 C   0  0  0  0  0  0  0  0  0  0  0  0
  -22.2880    5.9210    1.0910 C   0  0  0  0  0  0  0  0  0  0  0  0
  -21.1260    5.5560    1.2750 O   0  0  0  0  0  0  0  0  0  0  0  0
  -22.8910    5.7230   -0.1520 N   0  0  0  0  0  0  0  0  0  0  0  0
  -24.2070    6.1550   -0.3530 C   0  0  2  0  0  3  0  0  0  0  0  0
  -24.8030    5.9860   -1.5260 N   0  0  0  0  0  0  0  0  0  0  0  0
  -24.8790    6.7570    0.6350 N   0  0  0  0  0  0  0  0  0  0  0  0
  -24.3110    6.9650    1.8270 C   0  0  0  0  0  0  0  0  0  0  0  0
  -26.6329   10.8832    6.0444 H   0  0  0  0  0  0  0  0  0  0  0  0
  -26.8855    9.4990    7.1610 H   0  0  0  0  0  0  0  0  0  0  0  0
  -28.0626    9.2478    4.9070 H   0  0  0  0  0  0  0  0  0  0  0  0
  -25.8895    7.1544    5.5484 H   0  0  0  0  0  0  0  0  0  0  0  0
  -28.7456    7.1747    5.5587 H   0  0  0  0  0  0  0  0  0  0  0  0
  -26.7124    6.0076    3.5040 H   0  0  0  0  0  0  0  0  0  0  0  0
  -28.9897    6.7199    3.7505 H   0  0  0  0  0  0  0  0  0  0  0  0
  -26.5293    8.3180    2.0094 H   0  0  0  0  0  0  0  0  0  0  0  0
  -23.9390    7.8737    4.8788 H   0  0  0  0  0  0  0  0  0  0  0  0
  -22.3876    5.2768   -0.8919 H   0  0  0  0  0  0  0  0  0  0  0  0
  -25.7718    6.3079   -1.6625 H   0  0  0  0  0  0  0  0  0  0  0  0
  -24.2969    5.5329   -2.3003 H   0  0  0  0  0  0  0  0  0  0  0  0
  -25.8488    7.0648    0.4746 H   0  0  0  0  0  0  0  0  0  0  0  0
  1  2  1  0  0  0  0
  1  3  1  0  0  0  0
  1  4  2  0  0  0  0
  1  5  1  0  0  0  0
  5  6  1  0  0  0  0
  6  7  1  0  0  0  0
  6 25  1  0  0  0  0
  6 26  1  0  0  0  0
  7  8  1  0  0  0  0
  7  9  1  0  0  0  0
  7 27  1  6  0  0  0
  8 13  1  0  0  0  0
  9 10  1  0  0  0  0
  9 11  1  0  0  0  0
  9 28  1  1  0  0  0
 10 29  1  0  0  0  0
 11 12  1  0  0  0  0
 11 13  1  0  0  0  0
 11 30  1  6  0  0  0
 12 31  1  0  0  0  0
 13 14  1  0  0  0  0
 13 32  1  6  0  0  0
 14 15  1  0  0  0  0
 14 24  1  0  0  0  0
 15 16  2  0  0  0  0
 15 33  1  0  0  0  0
 16 17  1  0  0  0  0
 17 18  1  0  0  0  0
 17 24  2  0  0  0  0
 18 19  2  0  0  0  0
 18 20  1  0  0  0  0
 20 21  1  0  0  0  0
 20 34  1  0  0  0  0
 21 22  1  6  0  0  0
 21 23  1  0  0  0  0
 22 35  1  0  0  0  0
 22 36  1  0  0  0  0
 23 24  1  0  0  0  0
 23 37  1  0  0  0  0
M  END
