3rl4_ligand
 OpenBabel08222323353D

 37 39  0  0  1  0  0  0  0  0999 V2000
  -23.8720   11.3580    7.3000 P   0  0  0  0  0  0  0  0  0  0  0  0
  -22.5070   10.8010    7.3830 O   0  0  0  0  0  1  0  0  0  0  0  0
  -24.5900   11.6000    8.7310 O   0  0  0  0  0  1  0  0  0  0  0  0
  -23.8350   12.7720    6.6230 O   0  0  0  0  0  0  0  0  0  0  0  0
  -24.8120   10.4050    6.4280 O   0  0  0  0  0  0  0  0  0  0  0  0
  -26.2020   10.7260    6.2020 C   0  0  0  0  0  0  0  0  0  0  0  0
  -26.7620    9.9250    5.0380 C   0  0  1  0  0  0  0  0  0  0  0  0
  -25.9290   10.2050    3.8950 O   0  0  0  0  0  0  0  0  0  0  0  0
  -26.6680    8.4100    5.1630 C   0  0  1  0  0  0  0  0  0  0  0  0
  -27.7260    7.8970    5.9960 O   0  0  0  0  0  0  0  0  0  0  0  0
  -26.8170    8.0000    3.7000 C   0  0  1  0  0  0  0  0  0  0  0  0
  -28.1760    8.1370    3.2580 O   0  0  0  0  0  0  0  0  0  0  0  0
  -25.9810    9.0850    3.0010 C   0  0  2  0  0  0  0  0  0  0  0  0
  -24.5990    8.5730    2.7710 N   0  0  0  0  0  0  0  0  0  0  0  0
  -23.5650    8.5240    3.6310 C   0  0  0  0  0  0  0  0  0  0  0  0
  -22.5220    7.9690    3.0240 N   0  0  0  0  0  0  0  0  0  0  0  0
  -22.8840    7.6490    1.7830 C   0  0  0  0  0  0  0  0  0  0  0  0
  -22.2280    7.0490    0.7110 C   0  0  0  0  0  0  0  0  0  0  0  0
  -21.0520    6.6800    0.7570 O   0  0  0  0  0  0  0  0  0  0  0  0
  -22.9310    6.8800   -0.4720 N   0  0  0  0  0  0  0  0  0  0  0  0
  -24.2680    7.2830   -0.5740 C   0  0  2  0  0  3  0  0  0  0  0  0
  -24.9130    7.0980   -1.7200 N   0  0  0  0  0  0  0  0  0  0  0  0
  -24.8830    7.8600    0.4690 N   0  0  0  0  0  0  0  0  0  0  0  0
  -24.2100    8.0350    1.6260 C   0  0  0  0  0  0  0  0  0  0  0  0
  -26.2917   11.7990    5.9769 H   0  0  0  0  0  0  0  0  0  0  0  0
  -26.7777   10.4924    7.1097 H   0  0  0  0  0  0  0  0  0  0  0  0
  -27.8068   10.2225    4.8651 H   0  0  0  0  0  0  0  0  0  0  0  0
  -25.6967    8.0936    5.5710 H   0  0  0  0  0  0  0  0  0  0  0  0
  -28.5660    8.1211    5.6130 H   0  0  0  0  0  0  0  0  0  0  0  0
  -26.4433    6.9826    3.5121 H   0  0  0  0  0  0  0  0  0  0  0  0
  -28.7374    7.5826    3.7873 H   0  0  0  0  0  0  0  0  0  0  0  0
  -26.4416    9.3732    2.0446 H   0  0  0  0  0  0  0  0  0  0  0  0
  -23.5809    8.8819    4.6594 H   0  0  0  0  0  0  0  0  0  0  0  0
  -22.4780    6.4656   -1.2613 H   0  0  0  0  0  0  0  0  0  0  0  0
  -25.8968    7.3893   -1.8101 H   0  0  0  0  0  0  0  0  0  0  0  0
  -24.4294    6.6632   -2.5188 H   0  0  0  0  0  0  0  0  0  0  0  0
  -25.8626    8.1676    0.3876 H   0  0  0  0  0  0  0  0  0  0  0  0
  1  2  1  0  0  0  0
  1  3  1  0  0  0  0
  1  4  2  0  0  0  0
  1  5  1  0  0  0  0
  5  6  1  0  0  0  0
  6  7  1  0  0  0  0
  6 25  1  0  0  0  0
  6 26  1  0  0  0  0
  7  8  1  0  0  0  0
  7  9  1  0  0  0  0
  7 27  1  6  0  0  0
  8 13  1  0  0  0  0
  9 10  1  0  0  0  0
  9 11  1  0  0  0  0
  9 28  1  1  0  0  0
 10 29  1  0  0  0  0
 11 12  1  0  0  0  0
 11 13  1  0  0  0  0
 11 30  1  6  0  0  0
 12 31  1  0  0  0  0
 13 14  1  0  0  0  0
 13 32  1  6  0  0  0
 14 15  1  0  0  0  0
 14 24  1  0  0  0  0
 15 16  2  0  0  0  0
 15 33  1  0  0  0  0
 16 17  1  0  0  0  0
 17 18  1  0  0  0  0
 17 24  2  0  0  0  0
 18 19  2  0  0  0  0
 18 20  1  0  0  0  0
 20 21  1  0  0  0  0
 20 34  1  0  0  0  0
 21 22  1  6  0  0  0
 21 23  1  0  0  0  0
 22 35  1  0  0  0  0
 22 36  1  0  0  0  0
 23 24  1  0  0  0  0
 23 37  1  0  0  0  0
M  END
