3rm8_ligand
 OpenBabel08222323353D

 46 49  0  0  0  0  0  0  0  0999 V2000
   -3.3040   48.6830   65.6950 C   0  0  0  0  0  0  0  0  0  0  0  0
   -2.4920   51.0310   65.4590 N   0  0  0  0  0  0  0  0  0  0  0  0
   -2.9440   50.0120   66.2630 C   0  0  0  0  0  0  0  0  0  0  0  0
   -2.3150   48.9360   69.5230 N   0  3  0  0  0  0  0  0  0  0  0  0
   -2.9630   50.4830   67.5680 C   0  0  0  0  0  0  0  0  0  0  0  0
    0.1920   47.7880   70.1980 N   0  0  0  0  0  0  0  0  0  0  0  0
   -2.5040   51.8420   67.5360 C   0  0  0  0  0  0  0  0  0  0  0  0
    1.9340   47.4580   71.8350 N   0  0  0  0  0  0  0  0  0  0  0  0
   -2.3130   52.8420   68.5190 C   0  0  0  0  0  0  0  0  0  0  0  0
   -1.8400   54.1080   68.1380 C   0  0  0  0  0  0  0  0  0  0  0  0
   -1.5640   54.3910   66.7990 C   0  0  0  0  0  0  0  0  0  0  0  0
   -1.7470   53.4170   65.8080 C   0  0  0  0  0  0  0  0  0  0  0  0
   -2.2220   52.1540   66.2040 C   0  0  0  0  0  0  0  0  0  0  0  0
   -3.3840   49.7300   68.7880 C   0  0  0  0  0  0  0  0  0  0  0  0
   -1.2040   49.8140   70.0760 C   0  0  0  0  0  0  0  0  0  0  0  0
   -0.2740   48.9730   70.9410 C   0  0  0  0  0  0  0  0  0  0  0  0
   -0.8460   46.9220   69.6110 C   0  0  0  0  0  0  0  0  0  0  0  0
   -1.7960   47.7420   68.7430 C   0  0  0  0  0  0  0  0  0  0  0  0
    1.4340   47.2360   70.5770 C   0  0  0  0  0  0  0  0  0  0  0  0
    2.1810   46.4500   69.6790 C   0  0  0  0  0  0  0  0  0  0  0  0
    3.4080   45.9100   70.0750 C   0  0  0  0  0  0  0  0  0  0  0  0
    3.9020   46.1490   71.3490 C   0  0  0  0  0  0  0  0  0  0  0  0
    3.1300   46.9260   72.1900 C   0  0  0  0  0  0  0  0  0  0  0  0
   -3.6396   48.0173   66.5039 H   0  0  0  0  0  0  0  0  0  0  0  0
   -2.4243   48.2449   65.2008 H   0  0  0  0  0  0  0  0  0  0  0  0
   -4.1141   48.8052   64.9609 H   0  0  0  0  0  0  0  0  0  0  0  0
   -2.3721   50.9625   64.4383 H   0  0  0  0  0  0  0  0  0  0  0  0
   -2.7780   48.5469   70.3294 H   0  0  0  0  0  0  0  0  0  0  0  0
   -2.5306   52.6319   69.5599 H   0  0  0  0  0  0  0  0  0  0  0  0
   -1.6877   54.8730   68.8908 H   0  0  0  0  0  0  0  0  0  0  0  0
   -1.2040   55.3754   66.5227 H   0  0  0  0  0  0  0  0  0  0  0  0
   -1.5290   53.6307   64.7679 H   0  0  0  0  0  0  0  0  0  0  0  0
   -3.8007   50.4591   69.4985 H   0  0  0  0  0  0  0  0  0  0  0  0
   -4.1702   49.0230   68.4846 H   0  0  0  0  0  0  0  0  0  0  0  0
   -1.6416   50.6194   70.6842 H   0  0  0  0  0  0  0  0  0  0  0  0
   -0.6339   50.2517   69.2433 H   0  0  0  0  0  0  0  0  0  0  0  0
    0.5946   49.5805   71.2350 H   0  0  0  0  0  0  0  0  0  0  0  0
   -0.8145   48.6461   71.8415 H   0  0  0  0  0  0  0  0  0  0  0  0
   -1.4171   46.4421   70.4194 H   0  0  0  0  0  0  0  0  0  0  0  0
   -0.3660   46.1494   68.9924 H   0  0  0  0  0  0  0  0  0  0  0  0
   -1.2594   48.0958   67.8503 H   0  0  0  0  0  0  0  0  0  0  0  0
   -2.6435   47.1118   68.4356 H   0  0  0  0  0  0  0  0  0  0  0  0
    1.8044   46.2635   68.6798 H   0  0  0  0  0  0  0  0  0  0  0  0
    3.9770   45.3007   69.3822 H   0  0  0  0  0  0  0  0  0  0  0  0
    4.8541   45.7429   71.6709 H   0  0  0  0  0  0  0  0  0  0  0  0
    3.5006   47.1216   73.1897 H   0  0  0  0  0  0  0  0  0  0  0  0
  1 24  1  0  0  0  0
  1 25  1  0  0  0  0
  1 26  1  0  0  0  0
  2 27  1  0  0  0  0
  3  1  1  0  0  0  0
  3  2  1  0  0  0  0
  4 14  1  0  0  0  0
  4 18  1  0  0  0  0
  4 28  1  0  0  0  0
  5  3  2  0  0  0  0
  5  7  1  0  0  0  0
  6 17  1  0  0  0  0
  6 19  1  0  0  0  0
  7  9  2  0  0  0  0
  7 13  1  0  0  0  0
  8 23  1  0  0  0  0
  9 10  1  0  0  0  0
  9 29  1  0  0  0  0
 10 11  2  0  0  0  0
 10 30  1  0  0  0  0
 11 31  1  0  0  0  0
 12 11  1  0  0  0  0
 12 32  1  0  0  0  0
 13  2  1  0  0  0  0
 13 12  2  0  0  0  0
 14  5  1  0  0  0  0
 14 33  1  0  0  0  0
 14 34  1  0  0  0  0
 15  4  1  0  0  0  0
 15 16  1  0  0  0  0
 15 35  1  0  0  0  0
 15 36  1  0  0  0  0
 16  6  1  0  0  0  0
 16 37  1  0  0  0  0
 16 38  1  0  0  0  0
 17 18  1  0  0  0  0
 17 39  1  0  0  0  0
 17 40  1  0  0  0  0
 18 41  1  0  0  0  0
 18 42  1  0  0  0  0
 19  8  2  0  0  0  0
 19 20  1  0  0  0  0
 20 21  2  0  0  0  0
 20 43  1  0  0  0  0
 21 22  1  0  0  0  0
 21 44  1  0  0  0  0
 22 23  2  0  0  0  0
 22 45  1  0  0  0  0
 23 46  1  0  0  0  0
M  CHG  1   4   1
M  END
