3rme_ligand
 OpenBabel08222323353D

 39 40  0  0  0  0  0  0  0  0999 V2000
    0.9820   49.5790   65.7470 C   0  0  0  0  0  0  0  0  0  0  0  0
    1.3740   48.0200   67.6120 N   0  0  0  0  0  0  0  0  0  0  0  0
    1.8610   45.7550   67.5550 O   0  0  0  0  0  0  0  0  0  0  0  0
    1.0000   48.1340   66.2110 C   0  0  0  0  0  0  0  0  0  0  0  0
    1.7620   47.4580   71.9170 N   0  0  0  0  0  0  0  0  0  0  0  0
    1.7740   46.8170   68.1680 C   0  0  0  0  0  0  0  0  0  0  0  0
    0.1110   48.1440   70.3280 N   0  0  0  0  0  0  0  0  0  0  0  0
    2.1270   46.8570   69.6150 C   0  0  0  0  0  0  0  0  0  0  0  0
   -2.4260   49.3510   69.9240 N   0  3  0  0  0  0  0  0  0  0  0  0
    3.3280   46.2230   69.9870 C   0  0  0  0  0  0  0  0  0  0  0  0
    3.7350   46.2090   71.3160 C   0  0  0  0  0  0  0  0  0  0  0  0
    2.9230   46.8370   72.2360 C   0  0  0  0  0  0  0  0  0  0  0  0
    1.3320   47.4850   70.6160 C   0  0  0  0  0  0  0  0  0  0  0  0
   -1.0000   47.3350   69.8090 C   0  0  0  0  0  0  0  0  0  0  0  0
   -1.9370   48.2420   69.0120 C   0  0  0  0  0  0  0  0  0  0  0  0
   -1.2910   50.1550   70.5250 C   0  0  0  0  0  0  0  0  0  0  0  0
   -0.3050   49.2310   71.2350 C   0  0  0  0  0  0  0  0  0  0  0  0
   -3.4040   50.2490   69.2190 C   0  0  0  0  0  0  0  0  0  0  0  0
    0.6953   49.6198   64.6858 H   0  0  0  0  0  0  0  0  0  0  0  0
    1.9830   50.0172   65.8734 H   0  0  0  0  0  0  0  0  0  0  0  0
    0.2547   50.1472   66.3454 H   0  0  0  0  0  0  0  0  0  0  0  0
    1.3412   48.8349   68.1907 H   0  0  0  0  0  0  0  0  0  0  0  0
    1.7252   47.5738   65.6025 H   0  0  0  0  0  0  0  0  0  0  0  0
   -0.0031   47.7039   66.0744 H   0  0  0  0  0  0  0  0  0  0  0  0
   -2.9161   48.9117   70.6874 H   0  0  0  0  0  0  0  0  0  0  0  0
    3.9394   45.7425   69.2317 H   0  0  0  0  0  0  0  0  0  0  0  0
    4.6558   45.7228   71.6174 H   0  0  0  0  0  0  0  0  0  0  0  0
    3.2314   46.8338   73.2752 H   0  0  0  0  0  0  0  0  0  0  0  0
   -1.5492   46.8801   70.6465 H   0  0  0  0  0  0  0  0  0  0  0  0
   -0.6069   46.5429   69.1548 H   0  0  0  0  0  0  0  0  0  0  0  0
   -1.3958   48.6756   68.1581 H   0  0  0  0  0  0  0  0  0  0  0  0
   -2.7943   47.6586   68.6449 H   0  0  0  0  0  0  0  0  0  0  0  0
   -1.7000   50.8746   71.2495 H   0  0  0  0  0  0  0  0  0  0  0  0
   -0.7673   50.6980   69.7245 H   0  0  0  0  0  0  0  0  0  0  0  0
    0.5797   49.8086   71.5411 H   0  0  0  0  0  0  0  0  0  0  0  0
   -0.7867   48.7989   72.1245 H   0  0  0  0  0  0  0  0  0  0  0  0
   -4.2166   49.6427   68.7923 H   0  0  0  0  0  0  0  0  0  0  0  0
   -2.8886   50.7910   68.4124 H   0  0  0  0  0  0  0  0  0  0  0  0
   -3.8225   50.9703   69.9364 H   0  0  0  0  0  0  0  0  0  0  0  0
  1 19  1  0  0  0  0
  1 20  1  0  0  0  0
  1 21  1  0  0  0  0
  2  4  1  0  0  0  0
  2 22  1  0  0  0  0
  4  1  1  0  0  0  0
  4 23  1  0  0  0  0
  4 24  1  0  0  0  0
  5 12  2  0  0  0  0
  6  2  1  0  0  0  0
  6  3  2  0  0  0  0
  7 13  1  0  0  0  0
  7 17  1  0  0  0  0
  8  6  1  0  0  0  0
  8 10  1  0  0  0  0
  9 16  1  0  0  0  0
  9 18  1  0  0  0  0
  9 25  1  0  0  0  0
 10 11  2  0  0  0  0
 10 26  1  0  0  0  0
 11 27  1  0  0  0  0
 12 11  1  0  0  0  0
 12 28  1  0  0  0  0
 13  5  1  0  0  0  0
 13  8  2  0  0  0  0
 14  7  1  0  0  0  0
 14 15  1  0  0  0  0
 14 29  1  0  0  0  0
 14 30  1  0  0  0  0
 15  9  1  0  0  0  0
 15 31  1  0  0  0  0
 15 32  1  0  0  0  0
 16 17  1  0  0  0  0
 16 33  1  0  0  0  0
 16 34  1  0  0  0  0
 17 35  1  0  0  0  0
 17 36  1  0  0  0  0
 18 37  1  0  0  0  0
 18 38  1  0  0  0  0
 18 39  1  0  0  0  0
M  CHG  1   9   1
M  END
