3rpv_ligand
 OpenBabel08222323353D

 41 43  0  0  0  0  0  0  0  0999 V2000
   65.3520  117.6420  -86.8150 N   0  0  0  0  0  0  0  0  0  0  0  0
   64.1000  118.2300  -85.0070 N   0  0  0  0  0  0  0  0  0  0  0  0
   66.8850  116.7830  -88.3510 N   0  0  0  0  0  0  0  0  0  0  0  0
   67.3660  112.3040  -82.4470 N   0  0  0  0  0  0  0  0  0  0  0  0
   61.4110  116.4060  -79.1560 N   0  0  0  0  0  0  0  0  0  0  0  0
   67.0380  116.1290  -86.1100 C   0  0  0  0  0  0  0  0  0  0  0  0
   66.4540  116.8430  -87.1550 C   0  0  0  0  0  0  0  0  0  0  0  0
   65.0930  117.5450  -85.5330 C   0  0  0  0  0  0  0  0  0  0  0  0
   63.3670  117.9620  -83.9610 C   0  0  0  0  0  0  0  0  0  0  0  0
   68.1490  115.2670  -86.2190 C   0  0  0  0  0  0  0  0  0  0  0  0
   68.5960  114.4770  -85.1430 C   0  0  0  0  0  0  0  0  0  0  0  0
   69.9920  114.3980  -84.8660 C   0  0  0  0  0  0  0  0  0  0  0  0
   70.4700  113.6150  -83.7810 C   0  0  0  0  0  0  0  0  0  0  0  0
   69.5670  112.8970  -82.9510 C   0  0  0  0  0  0  0  0  0  0  0  0
   68.1760  112.9550  -83.2050 C   0  0  0  0  0  0  0  0  0  0  0  0
   67.6830  113.7430  -84.3010 C   0  0  0  0  0  0  0  0  0  0  0  0
   63.5090  116.7830  -83.1570 C   0  0  0  0  0  0  0  0  0  0  0  0
   62.6600  116.5720  -82.0470 C   0  0  0  0  0  0  0  0  0  0  0  0
   61.6660  117.5320  -81.7310 C   0  0  0  0  0  0  0  0  0  0  0  0
   61.5180  118.7020  -82.5140 C   0  0  0  0  0  0  0  0  0  0  0  0
   62.3550  118.9140  -83.6130 C   0  0  0  0  0  0  0  0  0  0  0  0
   68.7600  115.2090  -87.2890 O   0  0  0  0  0  0  0  0  0  0  0  0
   59.4980  116.4510  -80.8600 O   0  0  0  0  0  0  0  0  0  0  0  0
   60.0780  118.5260  -79.8530 O   0  0  0  0  0  0  0  0  0  0  0  0
   66.1500  116.4970  -84.6640 S   0  0  0  0  0  0  0  0  0  0  0  0
   60.5900  117.2570  -80.3620 S   0  0  0  0  0  0  0  0  0  0  0  0
   63.8668  119.1077  -85.4929 H   0  0  0  0  0  0  0  0  0  0  0  0
   67.6958  116.1894  -88.5771 H   0  0  0  0  0  0  0  0  0  0  0  0
   66.4230  117.3281  -89.0929 H   0  0  0  0  0  0  0  0  0  0  0  0
   67.7315  111.7427  -81.6646 H   0  0  0  0  0  0  0  0  0  0  0  0
   66.3518  112.3440  -82.6225 H   0  0  0  0  0  0  0  0  0  0  0  0
   60.9423  116.1665  -78.3057 H   0  0  0  0  0  0  0  0  0  0  0  0
   62.3658  116.1417  -79.2923 H   0  0  0  0  0  0  0  0  0  0  0  0
   70.6949  114.9399  -85.4884 H   0  0  0  0  0  0  0  0  0  0  0  0
   71.5348  113.5647  -83.5842 H   0  0  0  0  0  0  0  0  0  0  0  0
   69.9433  112.3055  -82.1242 H   0  0  0  0  0  0  0  0  0  0  0  0
   66.6176  113.7862  -84.4964 H   0  0  0  0  0  0  0  0  0  0  0  0
   64.2702  116.0510  -83.4015 H   0  0  0  0  0  0  0  0  0  0  0  0
   62.7684  115.6803  -81.4402 H   0  0  0  0  0  0  0  0  0  0  0  0
   60.7572  119.4318  -82.2618 H   0  0  0  0  0  0  0  0  0  0  0  0
   62.2367  119.8110  -84.2101 H   0  0  0  0  0  0  0  0  0  0  0  0
  1  7  1  0  0  0  0
  2  8  1  0  0  0  0
  2 27  1  0  0  0  0
  3 28  1  0  0  0  0
  3 29  1  0  0  0  0
  4 30  1  0  0  0  0
  4 31  1  0  0  0  0
  5 32  1  0  0  0  0
  5 33  1  0  0  0  0
  6  7  2  0  0  0  0
  6 10  1  0  0  0  0
  7  3  1  0  0  0  0
  8  1  2  0  0  0  0
  8 25  1  0  0  0  0
  9  2  1  0  0  0  0
  9 21  1  0  0  0  0
 10 11  1  0  0  0  0
 10 22  2  0  0  0  0
 11 12  2  0  0  0  0
 11 16  1  0  0  0  0
 12 13  1  0  0  0  0
 12 34  1  0  0  0  0
 13 14  2  0  0  0  0
 13 35  1  0  0  0  0
 14 36  1  0  0  0  0
 15  4  1  0  0  0  0
 15 14  1  0  0  0  0
 16 15  2  0  0  0  0
 16 37  1  0  0  0  0
 17  9  2  0  0  0  0
 17 38  1  0  0  0  0
 18 17  1  0  0  0  0
 18 39  1  0  0  0  0
 19 18  2  0  0  0  0
 19 20  1  0  0  0  0
 19 26  1  0  0  0  0
 20 21  2  0  0  0  0
 20 40  1  0  0  0  0
 21 41  1  0  0  0  0
 25  6  1  0  0  0  0
 26  5  1  0  0  0  0
 26 23  2  0  0  0  0
 26 24  2  0  0  0  0
M  END
