3rq7_ligand
 OpenBabel08222323353D

121123  0  0  1  0  0  0  0  0999 V2000
    7.2440   28.9160   14.1520 C   0  0  0  0  0  0  0  0  0  0  0  0
    6.9900   29.3510   15.2700 O   0  0  0  0  0  0  0  0  0  0  0  0
    8.6130   29.0310   13.5070 C   0  0  0  0  0  0  0  0  0  0  0  0
    6.3150   28.1580   13.5460 N   0  0  0  0  0  0  0  0  0  0  0  0
    4.9600   27.9030   14.0860 C   0  0  2  0  0  0  0  0  0  0  0  0
    4.9570   27.0540   15.3320 C   0  0  0  0  0  0  0  0  0  0  0  0
    5.8230   26.2270   15.5570 O   0  0  0  0  0  0  0  0  0  0  0  0
    4.1910   27.1690   12.9760 C   0  0  0  0  0  0  0  0  0  0  0  0
    5.2690   26.6200   12.0110 C   0  0  0  0  0  0  0  0  0  0  0  0
    6.5350   27.4290   12.2790 C   0  0  0  0  0  0  0  0  0  0  0  0
    3.9920   27.4060   16.2030 N   0  0  0  0  0  0  0  0  0  0  0  0
    3.8480   26.7270   17.4980 C   0  0  2  0  0  0  0  0  0  0  0  0
    2.8020   25.6220   17.4930 C   0  0  0  0  0  0  0  0  0  0  0  0
    2.5430   24.9480   18.4900 O   0  0  0  0  0  0  0  0  0  0  0  0
    3.4670   27.7170   18.5830 C   0  0  0  0  0  0  0  0  0  0  0  0
    4.6680   28.6060   18.9150 C   0  0  0  0  0  0  0  0  0  0  0  0
    4.3520   29.5630   20.0840 C   0  0  0  0  0  0  0  0  0  0  0  0
    5.7930   27.7880   19.4720 C   0  0  0  0  0  0  0  0  0  0  0  0
    1.3830   23.9220   14.6740 C   0  0  0  0  0  0  0  0  0  0  0  0
    2.2080   25.4240   16.3190 N   0  0  0  0  0  0  0  0  0  0  0  0
    1.7610   24.7130   13.7770 O   0  0  0  0  0  0  0  0  0  0  0  0
    1.3210   24.2790   16.1250 C   0  0  1  0  0  0  0  0  0  0  0  0
   -0.0970   24.5620   16.6020 C   0  0  0  0  0  0  0  0  0  0  0  0
   -0.6960   25.8500   16.0620 C   0  0  0  0  0  0  0  0  0  0  0  0
   -0.2410   27.1950   18.1470 C   0  0  0  0  0  0  0  0  0  0  0  0
   -1.3630   26.7700   19.0610 C   0  0  0  0  0  0  0  0  0  0  0  0
   -0.9440   26.8720   20.5280 C   0  0  0  0  0  0  0  0  0  0  0  0
   -2.1460   26.4860   21.3890 C   0  0  0  0  0  0  0  0  0  0  0  0
   -1.5100   26.1690   22.6990 C   0  0  0  0  0  0  0  0  0  0  0  0
   -2.6790   25.8980   23.6730 C   0  0  0  0  0  0  0  0  0  0  0  0
   -3.2030   24.4480   23.4200 C   0  0  0  0  0  0  0  0  0  0  0  0
   -4.2400   24.0310   24.4750 C   0  0  0  0  0  0  0  0  0  0  0  0
   -3.7560   24.0260   25.9130 C   0  0  0  0  0  0  0  0  0  0  0  0
   -4.1320   25.0110   26.8210 C   0  0  0  0  0  0  0  0  0  0  0  0
   -3.6360   24.9420   28.1190 C   0  0  0  0  0  0  0  0  0  0  0  0
   -2.7540   23.9460   28.5000 C   0  0  0  0  0  0  0  0  0  0  0  0
   -2.3690   22.9560   27.6100 C   0  0  0  0  0  0  0  0  0  0  0  0
   -2.8710   23.0320   26.3230 C   0  0  0  0  0  0  0  0  0  0  0  0
   -0.7280   27.0380   16.7750 N   0  0  0  0  0  0  0  0  0  0  0  0
   -1.2970   26.0740   14.8710 C   0  0  0  0  0  0  0  0  0  0  0  0
   -1.3750   27.9490   15.9690 C   0  0  0  0  0  0  0  0  0  0  0  0
   -1.7170   27.3790   14.8530 N   0  0  0  0  0  0  0  0  0  0  0  0
    0.8250   22.7420   14.3540 N   0  0  0  0  0  0  0  0  0  0  0  0
    0.7840   22.2150   12.9910 C   0  0  2  0  0  0  0  0  0  0  0  0
   -0.2770   22.9430   12.2340 C   0  0  0  0  0  0  0  0  0  0  0  0
   -1.0720   23.7920   12.7080 O   0  0  0  0  0  0  0  0  0  0  0  0
    0.6170   20.6670   13.0380 C   0  0  0  0  0  0  0  0  0  0  0  0
   -0.6060   20.3570   13.7000 O   0  0  0  0  0  0  0  0  0  0  0  0
   -0.3660   22.6250   10.9380 N   0  0  0  0  0  0  0  0  0  0  0  0
   -1.2390   23.3160   10.0410 C   0  0  1  0  0  0  0  0  0  0  0  0
   -0.9730   22.8110    8.6130 C   0  0  1  0  0  0  0  0  0  0  0  0
   -1.7710   23.7000    7.6500 C   0  0  0  0  0  0  0  0  0  0  0  0
    0.3960   23.0190    8.3420 O   0  0  0  0  0  0  0  0  0  0  0  0
    1.3120   21.6710    8.1060 P   0  0  0  0  0  0  0  0  0  0  0  0
    0.6760   20.9280    6.9960 O   0  0  0  0  0  1  0  0  0  0  0  0
    2.6810   22.2750    7.7760 O   0  0  0  0  0  1  0  0  0  0  0  0
    1.3420   20.9340    9.4290 O   0  0  0  0  0  0  0  0  0  0  0  0
   -2.6880   23.2020   10.3350 C   0  0  0  0  0  0  0  0  0  0  0  0
   -3.2070   22.1520   10.5660 O   0  0  0  0  0  0  0  0  0  0  0  0
   -3.3990   24.3460   10.2980 N   0  0  0  0  0  0  0  0  0  0  0  0
    8.5885   28.5677   12.5096 H   0  0  0  0  0  0  0  0  0  0  0  0
    9.3573   28.5161   14.1322 H   0  0  0  0  0  0  0  0  0  0  0  0
    8.8854   30.0924   13.4116 H   0  0  0  0  0  0  0  0  0  0  0  0
    4.4736   28.8631   14.3131 H   0  0  0  0  0  0  0  0  0  0  0  0
    3.5226   27.8650   12.4480 H   0  0  0  0  0  0  0  0  0  0  0  0
    3.6002   26.3438   13.4002 H   0  0  0  0  0  0  0  0  0  0  0  0
    4.9477   26.7501   10.9671 H   0  0  0  0  0  0  0  0  0  0  0  0
    5.4497   25.5531   12.2088 H   0  0  0  0  0  0  0  0  0  0  0  0
    7.4008   26.7572   12.3739 H   0  0  0  0  0  0  0  0  0  0  0  0
    6.7109   28.1401   11.4584 H   0  0  0  0  0  0  0  0  0  0  0  0
    3.3611   28.1440   15.9637 H   0  0  0  0  0  0  0  0  0  0  0  0
    4.8207   26.2798   17.7507 H   0  0  0  0  0  0  0  0  0  0  0  0
    3.1570   27.1694   19.4852 H   0  0  0  0  0  0  0  0  0  0  0  0
    2.6346   28.3437   18.2303 H   0  0  0  0  0  0  0  0  0  0  0  0
    4.9786   29.1598   18.0168 H   0  0  0  0  0  0  0  0  0  0  0  0
    5.2334   30.1859   20.2964 H   0  0  0  0  0  0  0  0  0  0  0  0
    4.0932   28.9768   20.9781 H   0  0  0  0  0  0  0  0  0  0  0  0
    3.5043   30.2084   19.8106 H   0  0  0  0  0  0  0  0  0  0  0  0
    6.1177   27.0521   18.7217 H   0  0  0  0  0  0  0  0  0  0  0  0
    5.4520   27.2633   20.3766 H   0  0  0  0  0  0  0  0  0  0  0  0
    6.6353   28.4481   19.7265 H   0  0  0  0  0  0  0  0  0  0  0  0
    2.3693   26.0618   15.5658 H   0  0  0  0  0  0  0  0  0  0  0  0
    1.7054   23.4315   16.7115 H   0  0  0  0  0  0  0  0  0  0  0  0
   -0.0849   24.6223   17.7003 H   0  0  0  0  0  0  0  0  0  0  0  0
   -0.7390   23.7259   16.2877 H   0  0  0  0  0  0  0  0  0  0  0  0
    0.6415   26.5590   18.3103 H   0  0  0  0  0  0  0  0  0  0  0  0
    0.0240   28.2456   18.3365 H   0  0  0  0  0  0  0  0  0  0  0  0
   -1.6348   25.7281   18.8363 H   0  0  0  0  0  0  0  0  0  0  0  0
   -2.2328   27.4211   18.8894 H   0  0  0  0  0  0  0  0  0  0  0  0
   -0.6357   27.9026   20.7576 H   0  0  0  0  0  0  0  0  0  0  0  0
   -0.1071   26.1861   20.7260 H   0  0  0  0  0  0  0  0  0  0  0  0
   -2.6664   25.6091   20.9764 H   0  0  0  0  0  0  0  0  0  0  0  0
   -2.8543   27.3225   21.4822 H   0  0  0  0  0  0  0  0  0  0  0  0
   -0.9076   27.0200   23.0494 H   0  0  0  0  0  0  0  0  0  0  0  0
   -0.8701   25.2787   22.6099 H   0  0  0  0  0  0  0  0  0  0  0  0
   -3.4876   26.6220   23.4941 H   0  0  0  0  0  0  0  0  0  0  0  0
   -2.3271   25.9903   24.7111 H   0  0  0  0  0  0  0  0  0  0  0  0
   -2.3541   23.7496   23.4579 H   0  0  0  0  0  0  0  0  0  0  0  0
   -3.6690   24.4051   22.4245 H   0  0  0  0  0  0  0  0  0  0  0  0
   -4.5799   23.0139   24.2301 H   0  0  0  0  0  0  0  0  0  0  0  0
   -5.0887   24.7275   24.4074 H   0  0  0  0  0  0  0  0  0  0  0  0
   -4.7965   25.8142   26.5237 H   0  0  0  0  0  0  0  0  0  0  0  0
   -3.9466   25.6832   28.8464 H   0  0  0  0  0  0  0  0  0  0  0  0
   -2.3585   23.9401   29.5093 H   0  0  0  0  0  0  0  0  0  0  0  0
   -1.7024   22.1555   27.9097 H   0  0  0  0  0  0  0  0  0  0  0  0
   -2.5616   22.2844   25.6015 H   0  0  0  0  0  0  0  0  0  0  0  0
   -1.4244   25.3476   14.0697 H   0  0  0  0  0  0  0  0  0  0  0  0
   -1.5700   28.9886   16.2281 H   0  0  0  0  0  0  0  0  0  0  0  0
    0.4168   22.1964   15.0859 H   0  0  0  0  0  0  0  0  0  0  0  0
    1.7461   22.4271   12.5017 H   0  0  0  0  0  0  0  0  0  0  0  0
    1.4586   20.2209   13.5882 H   0  0  0  0  0  0  0  0  0  0  0  0
    0.5949   20.2663   12.0138 H   0  0  0  0  0  0  0  0  0  0  0  0
   -1.3301   20.7451   13.2231 H   0  0  0  0  0  0  0  0  0  0  0  0
    0.1973   21.8783   10.5842 H   0  0  0  0  0  0  0  0  0  0  0  0
   -0.9803   24.3840   10.0903 H   0  0  0  0  0  0  0  0  0  0  0  0
   -1.2487   21.7518    8.5035 H   0  0  0  0  0  0  0  0  0  0  0  0
   -1.6023   23.3644    6.6161 H   0  0  0  0  0  0  0  0  0  0  0  0
   -1.4402   24.7438    7.7552 H   0  0  0  0  0  0  0  0  0  0  0  0
   -2.8425   23.6291    7.8882 H   0  0  0  0  0  0  0  0  0  0  0  0
   -4.3807   24.3309   10.4878 H   0  0  0  0  0  0  0  0  0  0  0  0
   -2.9450   25.2101   10.0807 H   0  0  0  0  0  0  0  0  0  0  0  0
  1  2  2  0  0  0  0
  1  3  1  0  0  0  0
  3 61  1  0  0  0  0
  3 62  1  0  0  0  0
  3 63  1  0  0  0  0
  4  1  1  0  0  0  0
  4 10  1  0  0  0  0
  5  4  1  0  0  0  0
  5  8  1  0  0  0  0
  5 64  1  1  0  0  0
  6  5  1  0  0  0  0
  6  7  2  0  0  0  0
  8  9  1  0  0  0  0
  8 65  1  0  0  0  0
  8 66  1  0  0  0  0
  9 10  1  0  0  0  0
  9 67  1  0  0  0  0
  9 68  1  0  0  0  0
 10 69  1  0  0  0  0
 10 70  1  0  0  0  0
 11  6  1  0  0  0  0
 11 71  1  0  0  0  0
 12 11  1  0  0  0  0
 12 15  1  0  0  0  0
 12 72  1  1  0  0  0
 13 12  1  0  0  0  0
 13 14  2  0  0  0  0
 15 16  1  0  0  0  0
 15 73  1  0  0  0  0
 15 74  1  0  0  0  0
 16 17  1  0  0  0  0
 16 18  1  0  0  0  0
 16 75  1  0  0  0  0
 17 76  1  0  0  0  0
 17 77  1  0  0  0  0
 17 78  1  0  0  0  0
 18 79  1  0  0  0  0
 18 80  1  0  0  0  0
 18 81  1  0  0  0  0
 19 21  2  0  0  0  0
 19 43  1  0  0  0  0
 20 13  1  0  0  0  0
 20 82  1  0  0  0  0
 22 19  1  0  0  0  0
 22 20  1  0  0  0  0
 22 83  1  1  0  0  0
 23 22  1  0  0  0  0
 23 84  1  0  0  0  0
 23 85  1  0  0  0  0
 24 23  1  0  0  0  0
 24 40  2  0  0  0  0
 25 26  1  0  0  0  0
 25 39  1  0  0  0  0
 25 86  1  0  0  0  0
 25 87  1  0  0  0  0
 26 27  1  0  0  0  0
 26 88  1  0  0  0  0
 26 89  1  0  0  0  0
 27 28  1  0  0  0  0
 27 90  1  0  0  0  0
 27 91  1  0  0  0  0
 28 29  1  0  0  0  0
 28 92  1  0  0  0  0
 28 93  1  0  0  0  0
 29 30  1  0  0  0  0
 29 94  1  0  0  0  0
 29 95  1  0  0  0  0
 30 31  1  0  0  0  0
 30 96  1  0  0  0  0
 30 97  1  0  0  0  0
 31 32  1  0  0  0  0
 31 98  1  0  0  0  0
 31 99  1  0  0  0  0
 32 33  1  0  0  0  0
 32100  1  0  0  0  0
 32101  1  0  0  0  0
 33 34  2  0  0  0  0
 33 38  1  0  0  0  0
 34 35  1  0  0  0  0
 34102  1  0  0  0  0
 35 36  2  0  0  0  0
 35103  1  0  0  0  0
 36 37  1  0  0  0  0
 36104  1  0  0  0  0
 37 38  2  0  0  0  0
 37105  1  0  0  0  0
 38106  1  0  0  0  0
 39 24  1  0  0  0  0
 39 41  1  0  0  0  0
 40 42  1  0  0  0  0
 40107  1  0  0  0  0
 41 42  2  0  0  0  0
 41108  1  0  0  0  0
 43 44  1  0  0  0  0
 43109  1  0  0  0  0
 44 45  1  0  0  0  0
 44 47  1  0  0  0  0
 44110  1  6  0  0  0
 45 46  2  0  0  0  0
 45 49  1  0  0  0  0
 47 48  1  0  0  0  0
 47111  1  0  0  0  0
 47112  1  0  0  0  0
 48113  1  0  0  0  0
 49 50  1  0  0  0  0
 49114  1  0  0  0  0
 50 51  1  0  0  0  0
 50 58  1  0  0  0  0
 50115  1  1  0  0  0
 51 52  1  0  0  0  0
 51 53  1  0  0  0  0
 51116  1  6  0  0  0
 52117  1  0  0  0  0
 52118  1  0  0  0  0
 52119  1  0  0  0  0
 53 54  1  0  0  0  0
 54 55  1  0  0  0  0
 54 56  1  0  0  0  0
 54 57  2  0  0  0  0
 58 59  2  0  0  0  0
 58 60  1  0  0  0  0
 60120  1  0  0  0  0
 60121  1  0  0  0  0
M  END
