3rup_ligand
 OpenBabel08222323353D

 39 41  0  0  1  0  0  0  0  0999 V2000
   19.0460    6.4730   26.9860 P   0  0  0  0  0  0  0  0  0  0  0  0
   17.7190    6.8480   27.5880 O   0  0  0  0  0  1  0  0  0  0  0  0
   19.3950    7.1670   25.6890 O   0  0  0  0  0  1  0  0  0  0  0  0
   20.1590    6.4800   28.0040 O   0  0  0  0  0  0  0  0  0  0  0  0
   17.7410    3.9050   26.4210 P   0  0  1  0  0  0  0  0  0  0  0  0
   16.4220    4.6310   26.3280 O   0  0  0  0  0  1  0  0  0  0  0  0
   18.0560    2.8490   25.3790 O   0  0  0  0  0  0  0  0  0  0  0  0
   18.9830    4.9410   26.4790 O   0  0  0  0  0  0  0  0  0  0  0  0
   17.8890    3.2070   27.8700 O   0  0  0  0  0  0  0  0  0  0  0  0
   18.9920    2.3360   28.1380 C   0  0  0  0  0  0  0  0  0  0  0  0
   18.5340    1.0260   28.7690 C   0  0  1  0  0  0  0  0  0  0  0  0
   17.8510    1.3140   29.9840 O   0  0  0  0  0  0  0  0  0  0  0  0
   17.5370    0.2840   27.8870 C   0  0  1  0  0  0  0  0  0  0  0  0
   17.7300   -1.1320   28.0530 O   0  0  0  0  0  0  0  0  0  0  0  0
   16.1790    0.7160   28.4360 C   0  0  1  0  0  0  0  0  0  0  0  0
   15.1100   -0.2170   28.2110 O   0  0  0  0  0  0  0  0  0  0  0  0
   16.4790    0.8720   29.9170 C   0  0  2  0  0  0  0  0  0  0  0  0
   15.5810    1.8240   30.6130 N   0  0  0  0  0  0  0  0  0  0  0  0
   15.5130    3.1500   30.3920 C   0  0  0  0  0  0  0  0  0  0  0  0
   14.6270    3.7360   31.2270 N   0  0  0  0  0  0  0  0  0  0  0  0
   14.1030    2.7780   32.0110 C   0  0  0  0  0  0  0  0  0  0  0  0
   13.0990    2.7260   33.1100 C   0  0  0  0  0  0  0  0  0  0  0  0
   12.4810    3.8610   33.5080 N   0  0  0  0  0  0  0  0  0  0  0  0
   12.8330    1.5240   33.6870 N   0  0  0  0  0  0  0  0  0  0  0  0
   13.4620    0.4010   33.2730 C   0  0  0  0  0  0  0  0  0  0  0  0
   14.3890    0.3810   32.2720 N   0  0  0  0  0  0  0  0  0  0  0  0
   14.7440    1.5160   31.6130 C   0  0  0  0  0  0  0  0  0  0  0  0
   19.6856    2.8403   28.8268 H   0  0  0  0  0  0  0  0  0  0  0  0
   19.5097    2.1149   27.1930 H   0  0  0  0  0  0  0  0  0  0  0  0
   19.4097    0.3886   28.9609 H   0  0  0  0  0  0  0  0  0  0  0  0
   17.6461    0.5613   26.8281 H   0  0  0  0  0  0  0  0  0  0  0  0
   17.1113   -1.6011   27.5056 H   0  0  0  0  0  0  0  0  0  0  0  0
   15.8870    1.6810   27.9960 H   0  0  0  0  0  0  0  0  0  0  0  0
   15.3214   -1.0452   28.6257 H   0  0  0  0  0  0  0  0  0  0  0  0
   16.3815   -0.1074   30.4083 H   0  0  0  0  0  0  0  0  0  0  0  0
   16.0951    3.6803   29.6397 H   0  0  0  0  0  0  0  0  0  0  0  0
   11.7860    3.8298   34.2676 H   0  0  0  0  0  0  0  0  0  0  0  0
   12.7052    4.7567   33.0516 H   0  0  0  0  0  0  0  0  0  0  0  0
   13.2165   -0.5343   33.7630 H   0  0  0  0  0  0  0  0  0  0  0  0
  1  2  1  0  0  0  0
  1  3  1  0  0  0  0
  1  4  2  0  0  0  0
  5  6  1  6  0  0  0
  5  7  2  0  0  0  0
  5  8  1  0  0  0  0
  5  9  1  0  0  0  0
  8  1  1  0  0  0  0
  9 10  1  0  0  0  0
 10 11  1  0  0  0  0
 10 28  1  0  0  0  0
 10 29  1  0  0  0  0
 11 12  1  0  0  0  0
 11 13  1  0  0  0  0
 11 30  1  1  0  0  0
 12 17  1  0  0  0  0
 13 14  1  0  0  0  0
 13 15  1  0  0  0  0
 13 31  1  6  0  0  0
 14 32  1  0  0  0  0
 15 16  1  0  0  0  0
 15 17  1  0  0  0  0
 15 33  1  6  0  0  0
 16 34  1  0  0  0  0
 17 18  1  0  0  0  0
 17 35  1  1  0  0  0
 18 19  1  0  0  0  0
 18 27  1  0  0  0  0
 19 20  2  0  0  0  0
 19 36  1  0  0  0  0
 20 21  1  0  0  0  0
 21 22  2  0  0  0  0
 21 27  1  0  0  0  0
 22 23  1  0  0  0  0
 22 24  1  0  0  0  0
 23 37  1  0  0  0  0
 23 38  1  0  0  0  0
 24 25  2  0  0  0  0
 25 26  1  0  0  0  0
 25 39  1  0  0  0  0
 26 27  2  0  0  0  0
M  END
