3rxa_ligand
 OpenBabel08222323353D

 24 24  0  0  0  0  0  0  0  0999 V2000
   -1.6920  -13.0360   17.8190 N   0  3  0  0  0  0  0  0  0  0  0  0
   -1.3980  -14.1260   16.8950 C   0  0  0  0  0  0  0  0  0  0  0  0
   -1.5320  -13.6400   15.4520 C   0  0  0  0  0  0  0  0  0  0  0  0
   -0.6390  -14.4240   14.4950 C   0  0  0  0  0  0  0  0  0  0  0  0
   -1.2750  -15.7380   14.0640 C   0  0  0  0  0  0  0  0  0  0  0  0
   -1.4660  -16.6560   15.2620 C   0  0  0  0  0  0  0  0  0  0  0  0
   -2.6710  -16.2540   16.0930 C   0  0  0  0  0  0  0  0  0  0  0  0
   -2.3230  -15.2990   17.2380 C   0  0  0  0  0  0  0  0  0  0  0  0
   -1.0947  -12.2506   17.6130 H   0  0  0  0  0  0  0  0  0  0  0  0
   -1.5281  -13.3438   18.7648 H   0  0  0  0  0  0  0  0  0  0  0  0
   -2.6563  -12.7604   17.7176 H   0  0  0  0  0  0  0  0  0  0  0  0
   -0.3583  -14.4520   17.0456 H   0  0  0  0  0  0  0  0  0  0  0  0
   -1.2511  -12.5774   15.4084 H   0  0  0  0  0  0  0  0  0  0  0  0
   -2.5789  -13.7558   15.1348 H   0  0  0  0  0  0  0  0  0  0  0  0
    0.3154  -14.6401   14.9973 H   0  0  0  0  0  0  0  0  0  0  0  0
   -0.4524  -13.8105   13.6013 H   0  0  0  0  0  0  0  0  0  0  0  0
   -0.6221  -16.2324   13.3297 H   0  0  0  0  0  0  0  0  0  0  0  0
   -2.2536  -15.5332   13.6054 H   0  0  0  0  0  0  0  0  0  0  0  0
   -0.5665  -16.6095   15.8934 H   0  0  0  0  0  0  0  0  0  0  0  0
   -1.6088  -17.6857   14.9025 H   0  0  0  0  0  0  0  0  0  0  0  0
   -3.1200  -17.1628   16.5201 H   0  0  0  0  0  0  0  0  0  0  0  0
   -3.4003  -15.7593   15.4347 H   0  0  0  0  0  0  0  0  0  0  0  0
   -3.2651  -14.8803   17.6215 H   0  0  0  0  0  0  0  0  0  0  0  0
   -1.8354  -15.8888   18.0281 H   0  0  0  0  0  0  0  0  0  0  0  0
  1  2  1  0  0  0  0
  1  9  1  0  0  0  0
  1 10  1  0  0  0  0
  1 11  1  0  0  0  0
  2  3  1  0  0  0  0
  2  8  1  0  0  0  0
  2 12  1  0  0  0  0
  3  4  1  0  0  0  0
  3 13  1  0  0  0  0
  3 14  1  0  0  0  0
  4  5  1  0  0  0  0
  4 15  1  0  0  0  0
  4 16  1  0  0  0  0
  5  6  1  0  0  0  0
  5 17  1  0  0  0  0
  5 18  1  0  0  0  0
  6  7  1  0  0  0  0
  6 19  1  0  0  0  0
  6 20  1  0  0  0  0
  7  8  1  0  0  0  0
  7 21  1  0  0  0  0
  7 22  1  0  0  0  0
  8 23  1  0  0  0  0
  8 24  1  0  0  0  0
M  CHG  1   1   1
M  END
