3rxb_ligand
 OpenBabel08222323353D

 21 20  0  0  0  0  0  0  0  0999 V2000
   -1.5150  -16.7930   14.4380 C   0  0  0  0  0  0  0  0  0  0  0  0
   -1.8670  -17.0730   15.5740 O   0  5  0  0  0  0  0  0  0  0  0  0
   -0.6160  -15.6130   14.1430 C   0  0  0  0  0  0  0  0  0  0  0  0
   -0.5470  -14.6440   15.3190 C   0  0  0  0  0  0  0  0  0  0  0  0
   -1.8630  -13.9040   15.5130 C   0  0  0  0  0  0  0  0  0  0  0  0
   -1.9700  -13.2890   16.8210 N   0  0  0  0  0  0  0  0  0  0  0  0
   -2.2600  -13.9520   17.9490 C   0  0  0  0  0  3  0  0  0  0  0  0
   -2.4110  -15.2070   17.9950 N   0  0  0  0  0  0  0  0  0  0  0  0
   -2.4090  -13.2670   19.0760 N   0  0  0  0  0  0  0  0  0  0  0  0
   -1.9460  -17.5560   13.4450 O   0  0  0  0  0  0  0  0  0  0  0  0
   -1.0067  -15.0789   13.2643 H   0  0  0  0  0  0  0  0  0  0  0  0
    0.3971  -15.9828   13.9268 H   0  0  0  0  0  0  0  0  0  0  0  0
    0.2507  -13.9103   15.1308 H   0  0  0  0  0  0  0  0  0  0  0  0
   -0.3170  -15.2091   16.2343 H   0  0  0  0  0  0  0  0  0  0  0  0
   -2.6902  -14.6188   15.3913 H   0  0  0  0  0  0  0  0  0  0  0  0
   -1.9415  -13.1184   14.7471 H   0  0  0  0  0  0  0  0  0  0  0  0
   -1.8125  -12.2733   16.8882 H   0  0  0  0  0  0  0  0  0  0  0  0
   -2.6335  -15.6665   18.8896 H   0  0  0  0  0  0  0  0  0  0  0  0
   -2.3115  -15.7695   17.1379 H   0  0  0  0  0  0  0  0  0  0  0  0
   -2.2933  -12.2435   19.0757 H   0  0  0  0  0  0  0  0  0  0  0  0
   -2.6403  -13.7589   19.9509 H   0  0  0  0  0  0  0  0  0  0  0  0
  1  2  1  0  0  0  0
  1  3  1  0  0  0  0
  1 10  2  0  0  0  0
  3  4  1  0  0  0  0
  3 11  1  0  0  0  0
  3 12  1  0  0  0  0
  4  5  1  0  0  0  0
  4 13  1  0  0  0  0
  4 14  1  0  0  0  0
  5  6  1  0  0  0  0
  5 15  1  0  0  0  0
  5 16  1  0  0  0  0
  6  7  1  0  0  0  0
  6 17  1  0  0  0  0
  7  8  1  0  0  0  0
  7  9  1  0  0  0  0
  8 18  1  0  0  0  0
  8 19  1  0  0  0  0
  9 20  1  0  0  0  0
  9 21  1  0  0  0  0
M  CHG  1   2  -1
M  END
