3rxf_ligand
 OpenBabel08222323353D

 13 13  0  0  0  0  0  0  0  0999 V2000
   -1.6380  -15.8820   14.7300 N   0  0  0  0  0  0  0  0  0  0  0  0
   -0.9730  -14.7160   14.6380 C   0  0  0  0  0  0  0  0  0  0  0  0
   -0.9560  -13.8260   15.7110 C   0  0  0  0  0  0  0  0  0  0  0  0
   -1.6340  -14.1470   16.8820 C   0  0  0  0  0  0  0  0  0  0  0  0
   -2.3100  -15.3610   16.9500 C   0  0  0  0  0  0  0  0  0  0  0  0
   -2.2980  -16.2160   15.8510 C   0  0  0  0  0  0  0  0  0  0  0  0
   -1.6370  -13.3020   17.9420 N   0  0  0  0  0  0  0  0  0  0  0  0
   -0.4469  -14.4669   13.7235 H   0  0  0  0  0  0  0  0  0  0  0  0
   -0.4171  -12.8887   15.6329 H   0  0  0  0  0  0  0  0  0  0  0  0
   -2.8424  -15.6394   17.8523 H   0  0  0  0  0  0  0  0  0  0  0  0
   -2.8268  -17.1610   15.9007 H   0  0  0  0  0  0  0  0  0  0  0  0
   -1.1349  -12.4044   17.8865 H   0  0  0  0  0  0  0  0  0  0  0  0
   -2.1414  -13.5576   18.8029 H   0  0  0  0  0  0  0  0  0  0  0  0
  1  2  2  0  0  0  0
  1  6  1  0  0  0  0
  2  3  1  0  0  0  0
  2  8  1  0  0  0  0
  3  4  2  0  0  0  0
  3  9  1  0  0  0  0
  4  5  1  0  0  0  0
  4  7  1  0  0  0  0
  5  6  2  0  0  0  0
  5 10  1  0  0  0  0
  6 11  1  0  0  0  0
  7 12  1  0  0  0  0
  7 13  1  0  0  0  0
M  END
