3rxg_ligand
 OpenBabel08222323353D

 22 22  0  0  1  0  0  0  0  0999 V2000
   -1.8230  -13.0100   18.1140 N   0  3  0  0  0  0  0  0  0  0  0  0
   -1.3590  -16.6540   13.7340 O   0  0  0  0  0  0  0  0  0  0  0  0
   -1.3590  -13.9410   17.0970 C   0  0  2  0  0  0  0  0  0  0  0  0
   -1.5750  -13.3400   15.7160 C   0  0  0  0  0  0  0  0  0  0  0  0
   -1.1370  -14.2560   14.5810 C   0  0  0  0  0  0  0  0  0  0  0  0
   -1.5160  -15.7220   14.8250 C   0  0  2  0  0  0  0  0  0  0  0  0
   -1.6280  -16.2920   16.2460 C   0  0  0  0  0  0  0  0  0  0  0  0
   -2.1260  -15.2510   17.2380 C   0  0  0  0  0  0  0  0  0  0  0  0
   -1.3205  -12.1404   18.0278 H   0  0  0  0  0  0  0  0  0  0  0  0
   -1.6607  -13.4026   19.0281 H   0  0  0  0  0  0  0  0  0  0  0  0
   -2.8092  -12.8418   17.9908 H   0  0  0  0  0  0  0  0  0  0  0  0
   -1.8987  -16.3777   13.0028 H   0  0  0  0  0  0  0  0  0  0  0  0
   -0.2856  -14.1334   17.2408 H   0  0  0  0  0  0  0  0  0  0  0  0
   -1.0009  -12.4041   15.6496 H   0  0  0  0  0  0  0  0  0  0  0  0
   -2.6464  -13.1224   15.5944 H   0  0  0  0  0  0  0  0  0  0  0  0
   -0.0442  -14.1878   14.4752 H   0  0  0  0  0  0  0  0  0  0  0  0
   -1.6172  -13.9184   13.6508 H   0  0  0  0  0  0  0  0  0  0  0  0
   -2.5972  -15.5705   14.6908 H   0  0  0  0  0  0  0  0  0  0  0  0
   -0.6364  -16.6434   16.5673 H   0  0  0  0  0  0  0  0  0  0  0  0
   -2.3311  -17.1379   16.2354 H   0  0  0  0  0  0  0  0  0  0  0  0
   -3.1940  -15.0627   17.0540 H   0  0  0  0  0  0  0  0  0  0  0  0
   -1.9923  -15.6365   18.2595 H   0  0  0  0  0  0  0  0  0  0  0  0
  1  9  1  0  0  0  0
  1 10  1  0  0  0  0
  1 11  1  0  0  0  0
  2 12  1  0  0  0  0
  3  1  1  0  0  0  0
  3  8  1  0  0  0  0
  3 13  1  1  0  0  0
  4  3  1  0  0  0  0
  4 14  1  0  0  0  0
  4 15  1  0  0  0  0
  5  4  1  0  0  0  0
  5  6  1  0  0  0  0
  5 16  1  0  0  0  0
  5 17  1  0  0  0  0
  6  2  1  0  0  0  0
  6  7  1  0  0  0  0
  6 18  1  6  0  0  0
  7  8  1  0  0  0  0
  7 19  1  0  0  0  0
  7 20  1  0  0  0  0
  8 21  1  0  0  0  0
  8 22  1  0  0  0  0
M  CHG  1   1   1
M  END
