3rxl_ligand
 OpenBabel08222323353D

 21 21  0  0  0  0  0  0  0  0999 V2000
   -3.0610  -13.5410   19.0190 N   0  3  0  0  0  0  0  0  0  0  0  0
   -1.7990  -15.8270   15.4890 O   0  0  0  0  0  0  0  0  0  0  0  0
   -1.2030  -14.4140   13.4960 C   0  0  0  0  0  0  0  0  0  0  0  0
   -1.4650  -14.6050   14.9670 C   0  0  0  0  0  0  0  0  0  0  0  0
   -1.3840  -13.5520   15.8610 C   0  0  0  0  0  0  0  0  0  0  0  0
   -1.6880  -14.1050   17.0970 C   0  0  0  0  0  0  0  0  0  0  0  0
   -1.7460  -13.3980   18.4320 C   0  0  0  0  0  0  0  0  0  0  0  0
   -1.9430  -15.5490   16.8230 C   0  0  0  0  0  0  0  0  0  0  0  0
   -2.3130  -16.7250   17.6870 C   0  0  0  0  0  0  0  0  0  0  0  0
   -3.0858  -13.0656   19.9075 H   0  0  0  0  0  0  0  0  0  0  0  0
   -3.2635  -14.5190   19.1555 H   0  0  0  0  0  0  0  0  0  0  0  0
   -3.7496  -13.1380   18.4030 H   0  0  0  0  0  0  0  0  0  0  0  0
   -0.9537  -13.3604   13.3018 H   0  0  0  0  0  0  0  0  0  0  0  0
   -2.1017  -14.6894   12.9247 H   0  0  0  0  0  0  0  0  0  0  0  0
   -0.3623  -15.0526   13.1873 H   0  0  0  0  0  0  0  0  0  0  0  0
   -1.1356  -12.5145   15.6422 H   0  0  0  0  0  0  0  0  0  0  0  0
   -0.9972  -13.8368   19.1078 H   0  0  0  0  0  0  0  0  0  0  0  0
   -1.5276  -12.3297   18.2867 H   0  0  0  0  0  0  0  0  0  0  0  0
   -2.4035  -16.3973   18.7331 H   0  0  0  0  0  0  0  0  0  0  0  0
   -1.5323  -17.4961   17.6106 H   0  0  0  0  0  0  0  0  0  0  0  0
   -3.2735  -17.1408   17.3486 H   0  0  0  0  0  0  0  0  0  0  0  0
  1 10  1  0  0  0  0
  1 11  1  0  0  0  0
  1 12  1  0  0  0  0
  2  8  1  0  0  0  0
  3 13  1  0  0  0  0
  3 14  1  0  0  0  0
  3 15  1  0  0  0  0
  4  2  1  0  0  0  0
  4  3  1  0  0  0  0
  5  4  2  0  0  0  0
  5 16  1  0  0  0  0
  6  5  1  0  0  0  0
  6  7  1  0  0  0  0
  6  8  2  0  0  0  0
  7  1  1  0  0  0  0
  7 17  1  0  0  0  0
  7 18  1  0  0  0  0
  8  9  1  0  0  0  0
  9 19  1  0  0  0  0
  9 20  1  0  0  0  0
  9 21  1  0  0  0  0
M  CHG  1   1   1
M  END
