3rxm_ligand
 OpenBabel08222323353D

 21 22  0  0  0  0  0  0  0  0999 V2000
   -1.8110  -13.2780   18.3170 C   0  0  0  0  0  0  0  0  0  0  0  0
   -3.1100  -13.4840   18.9220 N   0  3  0  0  0  0  0  0  0  0  0  0
   -1.2070  -14.5710   14.5140 S   0  0  0  0  0  0  0  0  0  0  0  0
   -1.7380  -13.9920   16.9860 C   0  0  0  0  0  0  0  0  0  0  0  0
   -2.2930  -15.2280   16.7640 N   0  0  0  0  0  0  0  0  0  0  0  0
   -3.9090  -17.7880   15.8520 S   0  0  0  0  0  0  0  0  0  0  0  0
   -1.0970  -13.4800   15.8520 C   0  0  0  0  0  0  0  0  0  0  0  0
   -2.0970  -15.6720   15.5040 C   0  0  0  0  0  0  0  0  0  0  0  0
   -2.6200  -16.9860   15.0450 C   0  0  0  0  0  0  0  0  0  0  0  0
   -2.1340  -17.6890   13.9500 C   0  0  0  0  0  0  0  0  0  0  0  0
   -2.8280  -18.8980   13.7750 C   0  0  0  0  0  0  0  0  0  0  0  0
   -3.8260  -19.0960   14.7240 C   0  0  0  0  0  0  0  0  0  0  0  0
   -1.0317  -13.6735   18.9851 H   0  0  0  0  0  0  0  0  0  0  0  0
   -1.6488  -12.2012   18.1615 H   0  0  0  0  0  0  0  0  0  0  0  0
   -3.1479  -13.0044   19.8078 H   0  0  0  0  0  0  0  0  0  0  0  0
   -3.2605  -14.4701   19.0672 H   0  0  0  0  0  0  0  0  0  0  0  0
   -3.8260  -13.1209   18.3124 H   0  0  0  0  0  0  0  0  0  0  0  0
   -0.5923  -12.5157   15.8164 H   0  0  0  0  0  0  0  0  0  0  0  0
   -1.3212  -17.3476   13.3107 H   0  0  0  0  0  0  0  0  0  0  0  0
   -2.6075  -19.6072   12.9785 H   0  0  0  0  0  0  0  0  0  0  0  0
   -4.4762  -19.9691   14.7529 H   0  0  0  0  0  0  0  0  0  0  0  0
  1  2  1  0  0  0  0
  1 13  1  0  0  0  0
  1 14  1  0  0  0  0
  2 15  1  0  0  0  0
  2 16  1  0  0  0  0
  2 17  1  0  0  0  0
  3  7  1  0  0  0  0
  4  1  1  0  0  0  0
  4  7  2  0  0  0  0
  5  4  1  0  0  0  0
  6 12  1  0  0  0  0
  7 18  1  0  0  0  0
  8  3  1  0  0  0  0
  8  5  2  0  0  0  0
  8  9  1  0  0  0  0
  9  6  1  0  0  0  0
  9 10  2  0  0  0  0
 10 11  1  0  0  0  0
 10 19  1  0  0  0  0
 11 12  2  0  0  0  0
 11 20  1  0  0  0  0
 12 21  1  0  0  0  0
M  CHG  1   2   1
M  END
