3s0o_ligand
 OpenBabel08222323353D

 34 35  0  0  1  0  0  0  0  0999 V2000
   64.7940   82.1740  -86.5730 N   0  0  0  0  0  0  0  0  0  0  0  0
   65.7490   81.2390  -86.7490 C   0  0  0  0  0  0  0  0  0  0  0  0
   66.2670   81.0190  -87.9780 N   0  0  0  0  0  0  0  0  0  0  0  0
   66.1090   80.5560  -85.5720 C   0  0  0  0  0  0  0  0  0  0  0  0
   67.0340   79.5400  -85.4400 C   0  0  1  0  0  0  0  0  0  0  0  0
   67.3180   78.8690  -84.1220 C   0  0  0  0  0  0  0  0  0  0  0  0
   67.2980   78.8590  -81.6430 C   0  0  0  0  0  0  0  0  0  0  0  0
   67.0320   79.5100  -82.8810 N   0  0  0  0  0  0  0  0  0  0  0  0
   67.8400   77.5910  -81.6420 C   0  0  0  0  0  0  0  0  0  0  0  0
   68.1300   76.9390  -82.8210 C   0  0  0  0  0  0  0  0  0  0  0  0
   67.8780   77.5560  -84.0810 C   0  0  0  0  0  0  0  0  0  0  0  0
   67.7150   79.0830  -86.5260 O   0  0  0  0  0  0  0  0  0  0  0  0
   65.2050   81.1460  -84.2320 S   0  0  0  0  0  0  0  0  0  0  0  0
   64.4020   82.2390  -85.2830 C   0  0  0  0  0  0  0  0  0  0  0  0
   63.4270   83.1240  -84.8800 N   0  0  0  0  0  0  0  0  0  0  0  0
   62.9760   83.1960  -83.4950 C   0  0  0  0  0  0  0  0  0  0  0  0
   62.0210   82.0700  -83.1600 C   0  0  0  0  0  0  0  0  0  0  0  0
   62.3170   81.1180  -82.0710 C   0  0  0  0  0  0  0  0  0  0  0  0
   66.9966   80.3038  -88.1089 H   0  0  0  0  0  0  0  0  0  0  0  0
   65.9321   81.5666  -88.7836 H   0  0  0  0  0  0  0  0  0  0  0  0
   67.8181   80.2851  -85.2400 H   0  0  0  0  0  0  0  0  0  0  0  0
   67.0757   79.3574  -80.7064 H   0  0  0  0  0  0  0  0  0  0  0  0
   68.0414   77.0986  -80.6975 H   0  0  0  0  0  0  0  0  0  0  0  0
   68.5559   75.9426  -82.7897 H   0  0  0  0  0  0  0  0  0  0  0  0
   68.1098   77.0323  -85.0014 H   0  0  0  0  0  0  0  0  0  0  0  0
   68.6479   79.1888  -86.3810 H   0  0  0  0  0  0  0  0  0  0  0  0
   63.0040   83.7534  -85.5770 H   0  0  0  0  0  0  0  0  0  0  0  0
   62.4647   84.1568  -83.3356 H   0  0  0  0  0  0  0  0  0  0  0  0
   63.8506   83.1315  -82.8310 H   0  0  0  0  0  0  0  0  0  0  0  0
   61.9099   81.4716  -84.0763 H   0  0  0  0  0  0  0  0  0  0  0  0
   61.0586   82.5406  -82.9104 H   0  0  0  0  0  0  0  0  0  0  0  0
   61.5013   80.3841  -81.9938 H   0  0  0  0  0  0  0  0  0  0  0  0
   62.4094   81.6647  -81.1210 H   0  0  0  0  0  0  0  0  0  0  0  0
   63.2608   80.5958  -82.2869 H   0  0  0  0  0  0  0  0  0  0  0  0
  1  2  1  0  0  0  0
  1 14  2  0  0  0  0
  2  3  1  0  0  0  0
  2  4  2  0  0  0  0
  3 19  1  0  0  0  0
  3 20  1  0  0  0  0
  4  5  1  0  0  0  0
  4 13  1  0  0  0  0
  5  6  1  0  0  0  0
  5 12  1  0  0  0  0
  5 21  1  1  0  0  0
  6  8  2  0  0  0  0
  6 11  1  0  0  0  0
  7  9  2  0  0  0  0
  7 22  1  0  0  0  0
  8  7  1  0  0  0  0
  9 10  1  0  0  0  0
  9 23  1  0  0  0  0
 10 11  2  0  0  0  0
 10 24  1  0  0  0  0
 11 25  1  0  0  0  0
 12 26  1  0  0  0  0
 13 14  1  0  0  0  0
 14 15  1  0  0  0  0
 15 16  1  0  0  0  0
 15 27  1  0  0  0  0
 16 17  1  0  0  0  0
 16 28  1  0  0  0  0
 16 29  1  0  0  0  0
 17 18  1  0  0  0  0
 17 30  1  0  0  0  0
 17 31  1  0  0  0  0
 18 32  1  0  0  0  0
 18 33  1  0  0  0  0
 18 34  1  0  0  0  0
M  END
