3s1g_ligand
 OpenBabel08222323353D

 25 27  0  0  0  0  0  0  0  0999 V2000
   15.9290   16.7050   22.1700 N   0  0  0  0  0  0  0  0  0  0  0  0
   19.0480   18.0790   16.0260 N   0  0  0  0  0  0  0  0  0  0  0  0
   18.7570   17.7600   19.3990 C   0  0  0  0  0  0  0  0  0  0  0  0
   18.6570   17.8790   17.2550 C   0  0  0  0  0  0  0  0  0  0  0  0
   18.1380   17.8710   14.9000 C   0  0  0  0  0  0  0  0  0  0  0  0
   17.4930   17.3930   18.9710 C   0  0  0  0  0  0  0  0  0  0  0  0
   16.5030   17.0230   19.8840 C   0  0  0  0  0  0  0  0  0  0  0  0
   16.1760   16.7050   23.4930 C   0  0  0  0  0  0  0  0  0  0  0  0
   16.8410   17.0520   21.2440 C   0  0  0  0  0  0  0  0  0  0  0  0
   18.1280   17.4320   21.6660 C   0  0  0  0  0  0  0  0  0  0  0  0
   19.1250   17.8040   20.7470 C   0  0  0  0  0  0  0  0  0  0  0  0
   19.4200   18.0390   18.2630 N   0  0  0  0  0  0  0  0  0  0  0  0
   17.4700   17.4840   17.6130 N   0  0  0  0  0  0  0  0  0  0  0  0
   18.3510   17.4180   23.0470 C   0  0  0  0  0  0  0  0  0  0  0  0
   19.5830   17.7870   23.5410 O   0  0  0  0  0  0  0  0  0  0  0  0
   17.3960   17.0670   23.9420 N   0  0  0  0  0  0  0  0  0  0  0  0
   20.0138   18.3886   15.8460 H   0  0  0  0  0  0  0  0  0  0  0  0
   18.6623   18.0935   13.9589 H   0  0  0  0  0  0  0  0  0  0  0  0
   17.2694   18.5381   15.0024 H   0  0  0  0  0  0  0  0  0  0  0  0
   17.7979   16.8249   14.8917 H   0  0  0  0  0  0  0  0  0  0  0  0
   15.5140   16.7257   19.5545 H   0  0  0  0  0  0  0  0  0  0  0  0
   15.3968   16.4149   24.1963 H   0  0  0  0  0  0  0  0  0  0  0  0
   20.1167   18.1060   21.0638 H   0  0  0  0  0  0  0  0  0  0  0  0
   16.6729   17.2809   16.9931 H   0  0  0  0  0  0  0  0  0  0  0  0
   17.5927   17.0761   24.9224 H   0  0  0  0  0  0  0  0  0  0  0  0
  1  8  2  0  0  0  0
  2  5  1  0  0  0  0
  2 17  1  0  0  0  0
  3 11  1  0  0  0  0
  3 12  1  0  0  0  0
  4  2  1  0  0  0  0
  4 12  2  0  0  0  0
  5 18  1  0  0  0  0
  5 19  1  0  0  0  0
  5 20  1  0  0  0  0
  6  3  2  0  0  0  0
  6 13  1  0  0  0  0
  7  6  1  0  0  0  0
  7  9  2  0  0  0  0
  7 21  1  0  0  0  0
  8 16  1  0  0  0  0
  8 22  1  0  0  0  0
  9  1  1  0  0  0  0
  9 10  1  0  0  0  0
 10 11  2  0  0  0  0
 10 14  1  0  0  0  0
 11 23  1  0  0  0  0
 13  4  1  0  0  0  0
 13 24  1  0  0  0  0
 14 15  2  0  0  0  0
 14 16  1  0  0  0  0
 16 25  1  0  0  0  0
M  END
