3s2p_ligand
 OpenBabel08222323353D

 46 48  0  0  1  0  0  0  0  0999 V2000
   28.1550   27.2940   25.7680 C   0  0  0  0  0  0  0  0  0  0  0  0
   26.8950   28.0530   25.7380 N   0  0  0  0  0  0  0  0  0  0  0  0
   24.1860   29.9110   30.2760 O   0  0  0  0  0  0  0  0  0  0  0  0
   24.8130   29.3990   29.1590 C   0  0  0  0  0  0  0  0  0  0  0  0
   27.2950   27.6400   22.2250 O   0  0  0  0  0  0  0  0  0  0  0  0
   25.9950   30.0720   28.7280 C   0  0  0  0  0  0  0  0  0  0  0  0
   29.8170   27.2000   23.9610 O   0  0  0  0  0  0  0  0  0  0  0  0
   26.7150   29.6280   27.5810 C   0  0  0  0  0  0  0  0  0  0  0  0
   26.2390   28.4970   26.8680 C   0  0  0  0  0  0  0  0  0  0  0  0
   25.0640   27.8360   27.3110 C   0  0  0  0  0  0  0  0  0  0  0  0
   24.3120   28.2590   28.4620 C   0  0  0  0  0  0  0  0  0  0  0  0
   26.3760   28.3090   24.3870 C   0  0  0  0  0  0  0  0  0  0  0  0
   28.4370   27.0560   24.2720 C   0  0  2  0  0  0  0  0  0  0  0  0
   27.6130   28.1200   23.5210 C   0  0  1  0  0  0  0  0  0  0  0  0
   20.7810   24.5320   28.0600 C   0  0  0  0  0  0  0  0  0  0  0  0
   21.6720   24.0380   26.9030 C   0  0  0  0  0  0  0  0  0  0  0  0
   23.0500   27.5360   28.9200 C   0  0  0  0  0  0  0  0  0  0  0  0
   22.3120   27.9370   30.0520 N   0  0  0  0  0  0  0  0  0  0  0  0
   21.2040   27.2700   30.4450 C   0  0  0  0  0  0  0  0  0  0  0  0
   19.3550   24.8320   27.5650 C   0  0  0  0  0  0  0  0  0  0  0  0
   20.7080   26.1960   29.8210 N   0  0  0  0  0  0  0  0  0  0  0  0
   21.3740   25.7630   28.7230 C   0  0  0  0  0  0  0  0  0  0  0  0
   22.5520   26.4080   28.2400 C   0  0  0  0  0  0  0  0  0  0  0  0
   20.5300   27.6530   31.5160 N   0  0  0  0  0  0  0  0  0  0  0  0
   28.0330   26.3422   26.3057 H   0  0  0  0  0  0  0  0  0  0  0  0
   28.9604   27.8790   26.2361 H   0  0  0  0  0  0  0  0  0  0  0  0
   23.4162   29.3902   30.4723 H   0  0  0  0  0  0  0  0  0  0  0  0
   28.0941   27.5374   21.7216 H   0  0  0  0  0  0  0  0  0  0  0  0
   26.3506   30.9338   29.2812 H   0  0  0  0  0  0  0  0  0  0  0  0
   29.9490   27.0461   23.0329 H   0  0  0  0  0  0  0  0  0  0  0  0
   27.6113   30.1455   27.2586 H   0  0  0  0  0  0  0  0  0  0  0  0
   24.7169   26.9719   26.7561 H   0  0  0  0  0  0  0  0  0  0  0  0
   25.9814   29.3320   24.2994 H   0  0  0  0  0  0  0  0  0  0  0  0
   25.5891   27.5883   24.1197 H   0  0  0  0  0  0  0  0  0  0  0  0
   28.1082   26.0463   23.9851 H   0  0  0  0  0  0  0  0  0  0  0  0
   28.1705   29.0643   23.4351 H   0  0  0  0  0  0  0  0  0  0  0  0
   20.7235   23.7311   28.8118 H   0  0  0  0  0  0  0  0  0  0  0  0
   21.2170   23.1478   26.4442 H   0  0  0  0  0  0  0  0  0  0  0  0
   22.6686   23.7814   27.2914 H   0  0  0  0  0  0  0  0  0  0  0  0
   21.7661   24.8322   26.1478 H   0  0  0  0  0  0  0  0  0  0  0  0
   18.7405   25.1820   28.4075 H   0  0  0  0  0  0  0  0  0  0  0  0
   18.9129   23.9170   27.1440 H   0  0  0  0  0  0  0  0  0  0  0  0
   19.3923   25.6115   26.7898 H   0  0  0  0  0  0  0  0  0  0  0  0
   23.0585   26.0331   27.3580 H   0  0  0  0  0  0  0  0  0  0  0  0
   20.8436   28.4720   32.0562 H   0  0  0  0  0  0  0  0  0  0  0  0
   19.6913   27.1324   31.8101 H   0  0  0  0  0  0  0  0  0  0  0  0
  1 13  1  0  0  0  0
  1 25  1  0  0  0  0
  1 26  1  0  0  0  0
  2  1  1  0  0  0  0
  2 12  1  0  0  0  0
  3 27  1  0  0  0  0
  4  3  1  0  0  0  0
  4  6  2  0  0  0  0
  5 28  1  0  0  0  0
  6  8  1  0  0  0  0
  6 29  1  0  0  0  0
  7 30  1  0  0  0  0
  8 31  1  0  0  0  0
  9  2  1  0  0  0  0
  9  8  2  0  0  0  0
 10  9  1  0  0  0  0
 10 32  1  0  0  0  0
 11  4  1  0  0  0  0
 11 10  2  0  0  0  0
 12 14  1  0  0  0  0
 12 33  1  0  0  0  0
 12 34  1  0  0  0  0
 13  7  1  0  0  0  0
 13 35  1  6  0  0  0
 14  5  1  0  0  0  0
 14 13  1  0  0  0  0
 14 36  1  6  0  0  0
 15 16  1  0  0  0  0
 15 20  1  0  0  0  0
 15 37  1  0  0  0  0
 16 38  1  0  0  0  0
 16 39  1  0  0  0  0
 16 40  1  0  0  0  0
 17 11  1  0  0  0  0
 17 23  1  0  0  0  0
 18 17  2  0  0  0  0
 19 18  1  0  0  0  0
 19 24  1  0  0  0  0
 20 41  1  0  0  0  0
 20 42  1  0  0  0  0
 20 43  1  0  0  0  0
 21 19  2  0  0  0  0
 21 22  1  0  0  0  0
 22 15  1  0  0  0  0
 22 23  2  0  0  0  0
 23 44  1  0  0  0  0
 24 45  1  0  0  0  0
 24 46  1  0  0  0  0
M  END
