3s7a_ligand
 OpenBabel08222323353D

 57 61  0  0  0  0  0  0  0  0999 V2000
   19.2600   11.0930   10.4420 N   0  0  0  0  0  0  0  0  0  0  0  0
   18.8350   11.1060    9.1620 C   0  0  0  0  0  0  0  0  0  0  0  0
   18.3190   12.2490    8.7120 N   0  0  0  0  0  0  0  0  0  0  0  0
   18.9410    9.9970    8.3760 N   0  0  0  0  0  0  0  0  0  0  0  0
   19.4340    8.8450    8.8560 C   0  0  0  0  0  0  0  0  0  0  0  0
   19.5370    7.7490    8.0710 N   0  0  0  0  0  0  0  0  0  0  0  0
   20.4160    7.7370   10.7340 N   0  0  0  0  0  0  0  0  0  0  0  0
   20.8180    7.7240   12.0160 C   0  0  0  0  0  0  0  0  0  0  0  0
   20.7170    8.8920   12.7880 C   0  0  0  0  0  0  0  0  0  0  0  0
   20.1960    9.9830   12.2580 N   0  0  0  0  0  0  0  0  0  0  0  0
   21.4410    6.4140   12.5490 C   0  0  0  0  0  0  0  0  0  0  0  0
   21.3050    6.1550   13.9820 N   0  0  0  0  0  0  0  0  0  0  0  0
   19.8620    8.8280   10.2080 C   0  0  0  0  0  0  0  0  0  0  0  0
   19.7750    9.9700   10.9730 C   0  0  0  0  0  0  0  0  0  0  0  0
   13.8550    8.0600   19.6610 O   0  5  0  0  0  0  0  0  0  0  0  0
   15.2870    9.7210   20.0480 O   0  0  0  0  0  0  0  0  0  0  0  0
   24.6330    4.9020   16.1020 C   0  0  0  0  0  0  0  0  0  0  0  0
   24.3750    4.4490   14.8080 C   0  0  0  0  0  0  0  0  0  0  0  0
   17.8150    5.4980   13.9790 C   0  0  0  0  0  0  0  0  0  0  0  0
   23.7750    5.8030   16.7270 C   0  0  0  0  0  0  0  0  0  0  0  0
   23.2350    4.8900   14.1160 C   0  0  0  0  0  0  0  0  0  0  0  0
   19.1530    5.5610   13.6110 C   0  0  0  0  0  0  0  0  0  0  0  0
   21.8740    7.1090   16.7810 C   0  0  0  0  0  0  0  0  0  0  0  0
   20.4960    7.2700   16.6420 C   0  0  0  0  0  0  0  0  0  0  0  0
   18.3340    6.5830   16.0690 C   0  0  0  0  0  0  0  0  0  0  0  0
   15.3880    7.4320   17.4260 C   0  0  0  0  0  0  0  0  0  0  0  0
   15.8610    6.0410   17.0080 C   0  0  0  0  0  0  0  0  0  0  0  0
   16.0200    7.8510   18.7600 C   0  0  0  0  0  0  0  0  0  0  0  0
   16.0760    5.9330   15.5610 O   0  0  0  0  0  0  0  0  0  0  0  0
   14.9770    8.5960   19.5890 C   0  0  0  0  0  0  0  0  0  0  0  0
   17.4000    6.0190   15.2080 C   0  0  0  0  0  0  0  0  0  0  0  0
   22.6570    6.2390   16.0240 C   0  0  0  0  0  0  0  0  0  0  0  0
   19.6830    6.6390   15.6960 C   0  0  0  0  0  0  0  0  0  0  0  0
   22.3840    5.7940   14.7330 C   0  0  0  0  0  0  0  0  0  0  0  0
   20.0750    6.1490   14.4800 C   0  0  0  0  0  0  0  0  0  0  0  0
   18.2553   13.0662    9.3358 H   0  0  0  0  0  0  0  0  0  0  0  0
   17.9838   12.3155    7.7403 H   0  0  0  0  0  0  0  0  0  0  0  0
   19.9179    6.8732    8.4567 H   0  0  0  0  0  0  0  0  0  0  0  0
   19.2345    7.7899    7.0873 H   0  0  0  0  0  0  0  0  0  0  0  0
   21.0652    8.8981   13.8145 H   0  0  0  0  0  0  0  0  0  0  0  0
   22.5157    6.4374   12.3155 H   0  0  0  0  0  0  0  0  0  0  0  0
   20.9674    5.5781   12.0133 H   0  0  0  0  0  0  0  0  0  0  0  0
   25.5126    4.5481   16.6275 H   0  0  0  0  0  0  0  0  0  0  0  0
   25.0578    3.7531   14.3341 H   0  0  0  0  0  0  0  0  0  0  0  0
   17.0913    5.0439   13.3118 H   0  0  0  0  0  0  0  0  0  0  0  0
   23.9728    6.1547   17.7331 H   0  0  0  0  0  0  0  0  0  0  0  0
   23.0240    4.5294   13.1158 H   0  0  0  0  0  0  0  0  0  0  0  0
   19.4784    5.1578   12.6588 H   0  0  0  0  0  0  0  0  0  0  0  0
   22.3767    7.7085   17.5385 H   0  0  0  0  0  0  0  0  0  0  0  0
   20.0068    7.9518   17.3361 H   0  0  0  0  0  0  0  0  0  0  0  0
   18.0190    6.9789   17.0277 H   0  0  0  0  0  0  0  0  0  0  0  0
   14.2934    7.4221   17.5342 H   0  0  0  0  0  0  0  0  0  0  0  0
   15.6732    8.1571   16.6496 H   0  0  0  0  0  0  0  0  0  0  0  0
   15.1006    5.3048   17.3077 H   0  0  0  0  0  0  0  0  0  0  0  0
   16.8078    5.8206   17.5228 H   0  0  0  0  0  0  0  0  0  0  0  0
   16.8801    8.5099   18.5703 H   0  0  0  0  0  0  0  0  0  0  0  0
   16.3561    6.9573   19.3062 H   0  0  0  0  0  0  0  0  0  0  0  0
  1  2  2  0  0  0  0
  2  3  1  0  0  0  0
  3 36  1  0  0  0  0
  3 37  1  0  0  0  0
  4  2  1  0  0  0  0
  5  4  2  0  0  0  0
  5  6  1  0  0  0  0
  6 38  1  0  0  0  0
  6 39  1  0  0  0  0
  7 13  1  0  0  0  0
  8  7  2  0  0  0  0
  8  9  1  0  0  0  0
  9 10  2  0  0  0  0
  9 40  1  0  0  0  0
 10 14  1  0  0  0  0
 11  8  1  0  0  0  0
 11 41  1  0  0  0  0
 11 42  1  0  0  0  0
 12 11  1  0  0  0  0
 12 34  1  0  0  0  0
 13  5  1  0  0  0  0
 13 14  2  0  0  0  0
 14  1  1  0  0  0  0
 17 18  2  0  0  0  0
 17 43  1  0  0  0  0
 18 44  1  0  0  0  0
 19 22  2  0  0  0  0
 19 45  1  0  0  0  0
 20 17  1  0  0  0  0
 20 46  1  0  0  0  0
 21 18  1  0  0  0  0
 21 47  1  0  0  0  0
 22 35  1  0  0  0  0
 22 48  1  0  0  0  0
 23 32  1  0  0  0  0
 23 49  1  0  0  0  0
 24 23  2  0  0  0  0
 24 50  1  0  0  0  0
 25 33  1  0  0  0  0
 25 51  1  0  0  0  0
 26 28  1  0  0  0  0
 26 52  1  0  0  0  0
 26 53  1  0  0  0  0
 27 26  1  0  0  0  0
 27 54  1  0  0  0  0
 27 55  1  0  0  0  0
 28 30  1  0  0  0  0
 28 56  1  0  0  0  0
 28 57  1  0  0  0  0
 29 27  1  0  0  0  0
 29 31  1  0  0  0  0
 30 15  1  0  0  0  0
 30 16  2  0  0  0  0
 31 19  1  0  0  0  0
 31 25  2  0  0  0  0
 32 20  2  0  0  0  0
 32 34  1  0  0  0  0
 33 24  1  0  0  0  0
 33 35  2  0  0  0  0
 34 21  2  0  0  0  0
 35 12  1  0  0  0  0
M  CHG  1  15  -1
M  END
