3s7m_ligand
 OpenBabel08222323353D

 42 45  0  0  1  0  0  0  0  0999 V2000
   15.5560   -4.1120   17.5410 C   0  0  0  0  0  0  0  0  0  0  0  0
   15.0710   -5.3190   16.9310 N   0  0  0  0  0  0  0  0  0  0  0  0
   13.9150   -6.1080   18.7490 O   0  0  0  0  0  0  0  0  0  0  0  0
   15.2890  -10.6870   18.3600 S   0  0  0  0  0  0  0  0  0  0  0  0
   14.3030   -6.2060   17.5860 C   0  0  0  0  0  0  0  0  0  0  0  0
   14.6860   -6.8160   15.3110 N   0  0  0  0  0  0  0  0  0  0  0  0
   13.9990   -7.2910   16.5540 C   0  0  2  0  0  0  0  0  0  0  0  0
   16.1010   -5.0640   14.8780 N   0  0  0  0  0  0  0  0  0  0  0  0
   15.2620   -5.7300   15.6720 C   0  0  2  0  0  3  0  0  0  0  0  0
    9.9950   -2.9650   13.7620 N   0  0  0  0  0  0  0  0  0  0  0  0
   12.4820   -7.3790   16.4460 C   0  0  0  0  0  0  0  0  0  0  0  0
   11.7020   -8.4890   16.7850 C   0  0  0  0  0  0  0  0  0  0  0  0
   10.3130   -8.4160   16.6350 C   0  0  0  0  0  0  0  0  0  0  0  0
    9.6840   -7.2650   16.1690 C   0  0  0  0  0  0  0  0  0  0  0  0
   10.4520   -6.1410   15.8180 C   0  0  0  0  0  0  0  0  0  0  0  0
   11.8330   -6.2500   15.9830 C   0  0  0  0  0  0  0  0  0  0  0  0
    9.8930   -4.8580   15.3290 C   0  0  0  0  0  0  0  0  0  0  0  0
    8.7570   -4.2710   15.9140 C   0  0  0  0  0  0  0  0  0  0  0  0
    8.2640   -3.0640   15.4250 C   0  0  0  0  0  0  0  0  0  0  0  0
    8.9110   -2.4470   14.3530 C   0  0  0  0  0  0  0  0  0  0  0  0
   10.4520   -4.1450   14.2640 C   0  0  0  0  0  0  0  0  0  0  0  0
   14.5210   -8.6400   16.9570 C   0  0  0  0  0  0  0  0  0  0  0  0
   14.9500   -9.6310   16.0280 C   0  0  0  0  0  0  0  0  0  0  0  0
   15.3830  -10.7720   16.6590 C   0  0  0  0  0  0  0  0  0  0  0  0
   14.6620   -9.0950   18.2500 C   0  0  0  0  0  0  0  0  0  0  0  0
   15.2240   -4.0718   18.5889 H   0  0  0  0  0  0  0  0  0  0  0  0
   15.1600   -3.2416   16.9973 H   0  0  0  0  0  0  0  0  0  0  0  0
   16.6553   -4.0985   17.5039 H   0  0  0  0  0  0  0  0  0  0  0  0
   14.6937   -7.2595   14.3814 H   0  0  0  0  0  0  0  0  0  0  0  0
   16.5423   -4.1942   15.2090 H   0  0  0  0  0  0  0  0  0  0  0  0
   16.3078   -5.4193   13.9336 H   0  0  0  0  0  0  0  0  0  0  0  0
   12.1673   -9.3938   17.1590 H   0  0  0  0  0  0  0  0  0  0  0  0
    9.7096   -9.2800   16.8888 H   0  0  0  0  0  0  0  0  0  0  0  0
    8.6043   -7.2354   16.0769 H   0  0  0  0  0  0  0  0  0  0  0  0
   12.4400   -5.3882   15.7302 H   0  0  0  0  0  0  0  0  0  0  0  0
    8.2642   -4.7590   16.7471 H   0  0  0  0  0  0  0  0  0  0  0  0
    7.3876   -2.6086   15.8718 H   0  0  0  0  0  0  0  0  0  0  0  0
    8.5185   -1.5069   13.9826 H   0  0  0  0  0  0  0  0  0  0  0  0
   11.3310   -4.5715   13.7944 H   0  0  0  0  0  0  0  0  0  0  0  0
   14.9364   -9.4999   14.9470 H   0  0  0  0  0  0  0  0  0  0  0  0
   15.7509  -11.6466   16.1245 H   0  0  0  0  0  0  0  0  0  0  0  0
   14.3993   -8.4981   19.1221 H   0  0  0  0  0  0  0  0  0  0  0  0
  1 26  1  0  0  0  0
  1 27  1  0  0  0  0
  1 28  1  0  0  0  0
  2  1  1  0  0  0  0
  4 24  1  0  0  0  0
  5  2  1  0  0  0  0
  5  3  2  0  0  0  0
  6  9  1  0  0  0  0
  6 29  1  0  0  0  0
  7  5  1  0  0  0  0
  7  6  1  0  0  0  0
  7 11  1  6  0  0  0
  8 30  1  0  0  0  0
  8 31  1  0  0  0  0
  9  2  1  0  0  0  0
  9  8  1  1  0  0  0
 10 20  2  0  0  0  0
 11 12  2  0  0  0  0
 11 16  1  0  0  0  0
 12 13  1  0  0  0  0
 12 32  1  0  0  0  0
 13 14  2  0  0  0  0
 13 33  1  0  0  0  0
 14 34  1  0  0  0  0
 15 14  1  0  0  0  0
 15 17  1  0  0  0  0
 16 15  2  0  0  0  0
 16 35  1  0  0  0  0
 17 18  1  0  0  0  0
 17 21  2  0  0  0  0
 18 19  2  0  0  0  0
 18 36  1  0  0  0  0
 19 20  1  0  0  0  0
 19 37  1  0  0  0  0
 20 38  1  0  0  0  0
 21 10  1  0  0  0  0
 21 39  1  0  0  0  0
 22  7  1  0  0  0  0
 22 23  1  0  0  0  0
 22 25  2  0  0  0  0
 23 24  2  0  0  0  0
 23 40  1  0  0  0  0
 24 41  1  0  0  0  0
 25  4  1  0  0  0  0
 25 42  1  0  0  0  0
M  END
