3sfi_ligand
 OpenBabel08222323353D

 42 44  0  0  0  0  0  0  0  0999 V2000
   30.3770  -16.7380   -7.5340 C   0  0  0  0  0  0  0  0  0  0  0  0
   30.9880  -16.1930   -8.5540 F   0  0  0  0  0  0  0  0  0  0  0  0
   27.6800  -11.7420   -5.5940 N   0  0  0  0  0  0  0  0  0  0  0  0
   27.8130  -12.8650   -7.4260 O   0  0  0  0  0  0  0  0  0  0  0  0
   27.3750   -3.3250   -3.2040 S   0  0  0  0  0  0  0  0  0  0  0  0
   30.2630  -15.7730   -6.3940 C   0  0  0  0  0  0  0  0  0  0  0  0
   31.0810  -17.7350   -7.0670 F   0  0  0  0  0  0  0  0  0  0  0  0
   26.9720   -6.3700   -2.6320 N   0  0  0  0  0  0  0  0  0  0  0  0
   26.7870   -7.7040   -2.7920 O   0  0  0  0  0  0  0  0  0  0  0  0
   29.1210  -14.8470   -6.7100 C   0  0  0  0  0  0  0  0  0  0  0  0
   29.1990  -17.1750   -7.9360 F   0  0  0  0  0  0  0  0  0  0  0  0
   26.9490   -6.9290   -4.7970 N   0  0  0  0  0  0  0  0  0  0  0  0
   28.9790  -13.8040   -5.6260 C   0  0  0  0  0  0  0  0  0  0  0  0
   27.3060   -4.1520   -5.5870 N   0  0  0  0  0  0  0  0  0  0  0  0
   28.1340  -12.7520   -6.2760 C   0  0  0  0  0  0  0  0  0  0  0  0
   28.1250  -11.5100   -4.1950 C   0  0  0  0  0  0  0  0  0  0  0  0
   27.8190  -10.1100   -3.6630 C   0  0  0  0  0  0  0  0  0  0  0  0
   26.6580   -9.4290   -4.3560 C   0  0  0  0  0  0  0  0  0  0  0  0
   26.9090   -9.5000   -5.8530 C   0  0  0  0  0  0  0  0  0  0  0  0
   26.6780  -10.9240   -6.2720 C   0  0  0  0  0  0  0  0  0  0  0  0
   26.7850   -8.0180   -4.0090 C   0  0  0  0  0  0  0  0  0  0  0  0
   27.0540   -5.9320   -3.9120 C   0  0  0  0  0  0  0  0  0  0  0  0
   27.2310   -4.6070   -4.3150 C   0  0  0  0  0  0  0  0  0  0  0  0
   27.4850   -2.7770   -5.6310 C   0  0  0  0  0  0  0  0  0  0  0  0
   27.5520   -2.0900   -4.4220 C   0  0  0  0  0  0  0  0  0  0  0  0
   31.1960  -15.1995   -6.2905 H   0  0  0  0  0  0  0  0  0  0  0  0
   30.0606  -16.3160   -5.4590 H   0  0  0  0  0  0  0  0  0  0  0  0
   28.1899  -15.4287   -6.7786 H   0  0  0  0  0  0  0  0  0  0  0  0
   29.3132  -14.3480   -7.6712 H   0  0  0  0  0  0  0  0  0  0  0  0
   29.9600  -13.3993   -5.3363 H   0  0  0  0  0  0  0  0  0  0  0  0
   28.4782  -14.2210   -4.7399 H   0  0  0  0  0  0  0  0  0  0  0  0
   29.2129  -11.6661   -4.1488 H   0  0  0  0  0  0  0  0  0  0  0  0
   27.6216  -12.2426   -3.5471 H   0  0  0  0  0  0  0  0  0  0  0  0
   28.7152   -9.4860   -3.7953 H   0  0  0  0  0  0  0  0  0  0  0  0
   27.5833  -10.1908   -2.5916 H   0  0  0  0  0  0  0  0  0  0  0  0
   25.6856   -9.8570   -4.0709 H   0  0  0  0  0  0  0  0  0  0  0  0
   27.9446   -9.2041   -6.0765 H   0  0  0  0  0  0  0  0  0  0  0  0
   26.2142   -8.8329   -6.3843 H   0  0  0  0  0  0  0  0  0  0  0  0
   25.6678  -11.2443   -5.9772 H   0  0  0  0  0  0  0  0  0  0  0  0
   26.7892  -11.0187   -7.3623 H   0  0  0  0  0  0  0  0  0  0  0  0
   27.5704   -2.2517   -6.5811 H   0  0  0  0  0  0  0  0  0  0  0  0
   27.6853   -1.0198   -4.2707 H   0  0  0  0  0  0  0  0  0  0  0  0
  1  2  1  0  0  0  0
  1  7  1  0  0  0  0
  1 11  1  0  0  0  0
  3 15  1  0  0  0  0
  5 25  1  0  0  0  0
  6  1  1  0  0  0  0
  6 26  1  0  0  0  0
  6 27  1  0  0  0  0
  8  9  1  0  0  0  0
 10  6  1  0  0  0  0
 10 28  1  0  0  0  0
 10 29  1  0  0  0  0
 12 21  2  0  0  0  0
 13 10  1  0  0  0  0
 13 30  1  0  0  0  0
 13 31  1  0  0  0  0
 14 24  1  0  0  0  0
 15  4  2  0  0  0  0
 15 13  1  0  0  0  0
 16  3  1  0  0  0  0
 16 32  1  0  0  0  0
 16 33  1  0  0  0  0
 17 16  1  0  0  0  0
 17 34  1  0  0  0  0
 17 35  1  0  0  0  0
 18 17  1  0  0  0  0
 18 19  1  0  0  0  0
 18 36  1  0  0  0  0
 19 20  1  0  0  0  0
 19 37  1  0  0  0  0
 19 38  1  0  0  0  0
 20  3  1  0  0  0  0
 20 39  1  0  0  0  0
 20 40  1  0  0  0  0
 21  9  1  0  0  0  0
 21 18  1  0  0  0  0
 22  8  2  0  0  0  0
 22 12  1  0  0  0  0
 22 23  1  0  0  0  0
 23  5  1  0  0  0  0
 23 14  2  0  0  0  0
 24 25  2  0  0  0  0
 24 41  1  0  0  0  0
 25 42  1  0  0  0  0
M  END
