3skh_ligand
 OpenBabel08222323353D

 41 44  0  0  0  0  0  0  0  0999 V2000
   25.3360   42.9830   49.1900 C   0  0  0  0  0  0  0  0  0  0  0  0
   21.6070   45.8780   45.1850 F   0  0  0  0  0  0  0  0  0  0  0  0
   25.2380   43.7040   45.0960 N   0  0  0  0  0  0  0  0  0  0  0  0
   24.5230   46.9150   43.8280 O   0  5  0  0  0  0  0  0  0  0  0  0
   25.3050   42.8100   50.9080 Cl  0  0  0  0  0  0  0  0  0  0  0  0
   25.9900   42.0370   48.4000 C   0  0  0  0  0  0  0  0  0  0  0  0
   23.7210   45.1040   42.7440 O   0  0  0  0  0  0  0  0  0  0  0  0
   26.0190   42.1820   47.0050 C   0  0  0  0  0  0  0  0  0  0  0  0
   24.6860   44.0870   48.6070 C   0  0  0  0  0  0  0  0  0  0  0  0
   24.5070   44.8850   45.0050 C   0  0  0  0  0  0  0  0  0  0  0  0
   24.1630   45.2300   46.3190 C   0  0  0  0  0  0  0  0  0  0  0  0
   24.7030   44.2490   47.1970 C   0  0  0  0  0  0  0  0  0  0  0  0
   25.3690   43.3000   46.4180 C   0  0  0  0  0  0  0  0  0  0  0  0
   25.8040   43.0000   43.9530 C   0  0  0  0  0  0  0  0  0  0  0  0
   24.1850   45.5980   43.7660 C   0  0  0  0  0  0  0  0  0  0  0  0
   23.3800   46.4020   46.7080 C   0  0  0  0  0  0  0  0  0  0  0  0
   23.8750   47.2680   47.7010 C   0  0  0  0  0  0  0  0  0  0  0  0
   23.1280   48.3880   48.0920 C   0  0  0  0  0  0  0  0  0  0  0  0
   21.8830   48.6560   47.5000 C   0  0  0  0  0  0  0  0  0  0  0  0
   21.3830   47.8030   46.5180 C   0  0  0  0  0  0  0  0  0  0  0  0
   22.1230   46.6840   46.1280 C   0  0  0  0  0  0  0  0  0  0  0  0
   27.1050   43.6310   43.5300 C   0  0  0  0  0  0  0  0  0  0  0  0
   27.8010   43.1360   42.4150 C   0  0  0  0  0  0  0  0  0  0  0  0
   29.0100   43.7240   42.0150 C   0  0  0  0  0  0  0  0  0  0  0  0
   29.5430   44.8050   42.7300 C   0  0  0  0  0  0  0  0  0  0  0  0
   28.8670   45.3050   43.8470 C   0  0  0  0  0  0  0  0  0  0  0  0
   27.6560   44.7240   44.2410 C   0  0  0  0  0  0  0  0  0  0  0  0
   26.4770   41.1877   48.8654 H   0  0  0  0  0  0  0  0  0  0  0  0
   26.5289   41.4531   46.3856 H   0  0  0  0  0  0  0  0  0  0  0  0
   24.1748   44.8102   49.2320 H   0  0  0  0  0  0  0  0  0  0  0  0
   25.0930   43.0420   43.1147 H   0  0  0  0  0  0  0  0  0  0  0  0
   25.9845   41.9505   44.2285 H   0  0  0  0  0  0  0  0  0  0  0  0
   24.8347   47.0687   48.1639 H   0  0  0  0  0  0  0  0  0  0  0  0
   23.5142   49.0520   48.8569 H   0  0  0  0  0  0  0  0  0  0  0  0
   21.3119   49.5249   47.8064 H   0  0  0  0  0  0  0  0  0  0  0  0
   20.4228   48.0071   46.0581 H   0  0  0  0  0  0  0  0  0  0  0  0
   27.4015   42.2947   41.8604 H   0  0  0  0  0  0  0  0  0  0  0  0
   29.5351   43.3400   41.1478 H   0  0  0  0  0  0  0  0  0  0  0  0
   30.4790   45.2533   42.4171 H   0  0  0  0  0  0  0  0  0  0  0  0
   29.2785   46.1383   44.4050 H   0  0  0  0  0  0  0  0  0  0  0  0
   27.1317   45.1174   45.1044 H   0  0  0  0  0  0  0  0  0  0  0  0
  1  5  1  0  0  0  0
  1  6  2  0  0  0  0
  3 14  1  0  0  0  0
  6 28  1  0  0  0  0
  8  6  1  0  0  0  0
  8 29  1  0  0  0  0
  9  1  1  0  0  0  0
  9 30  1  0  0  0  0
 10  3  1  0  0  0  0
 10 15  1  0  0  0  0
 11 10  2  0  0  0  0
 11 12  1  0  0  0  0
 12  9  2  0  0  0  0
 12 13  1  0  0  0  0
 13  3  1  0  0  0  0
 13  8  2  0  0  0  0
 14 22  1  0  0  0  0
 14 31  1  0  0  0  0
 14 32  1  0  0  0  0
 15  4  1  0  0  0  0
 15  7  2  0  0  0  0
 16 11  1  0  0  0  0
 16 17  2  0  0  0  0
 16 21  1  0  0  0  0
 17 18  1  0  0  0  0
 17 33  1  0  0  0  0
 18 19  2  0  0  0  0
 18 34  1  0  0  0  0
 19 20  1  0  0  0  0
 19 35  1  0  0  0  0
 20 21  2  0  0  0  0
 20 36  1  0  0  0  0
 21  2  1  0  0  0  0
 22 23  2  0  0  0  0
 22 27  1  0  0  0  0
 23 24  1  0  0  0  0
 23 37  1  0  0  0  0
 24 25  2  0  0  0  0
 24 38  1  0  0  0  0
 25 26  1  0  0  0  0
 25 39  1  0  0  0  0
 26 27  2  0  0  0  0
 26 40  1  0  0  0  0
 27 41  1  0  0  0  0
M  CHG  1   4  -1
M  END
