3sl0_ligand
 OpenBabel08222323353D

 29 28  0  0  1  0  0  0  0  0999 V2000
   41.8240  -15.1340   23.7720 B   0  0  0  0  0  0  0  0  0  0  0  0
   34.6200  -17.6850   26.4660 F   0  0  0  0  0  0  0  0  0  0  0  0
   35.6040  -17.4330   22.9480 N   0  3  0  0  0  0  0  0  0  0  0  0
   42.1290  -15.2100   22.4360 O   0  0  0  0  0  0  0  0  0  0  0  0
   35.1620  -15.9690   24.5850 C   0  0  0  0  0  0  0  0  0  0  0  0
   34.8060  -19.4450   25.1140 F   0  0  0  0  0  0  0  0  0  0  0  0
   42.8030  -15.1530   24.7270 O   0  0  0  0  0  0  0  0  0  0  0  0
   35.7480  -17.3960   24.3990 C   0  0  2  0  0  0  0  0  0  0  0  0
   35.3050  -15.3590   25.6370 O   0  5  0  0  0  0  0  0  0  0  0  0
   39.5310  -16.2560   24.4210 C   0  0  0  0  0  0  0  0  0  0  0  0
   34.4630  -15.3830   23.5470 O   0  0  0  0  0  0  0  0  0  0  0  0
   40.3070  -14.9810   24.2320 C   0  0  0  0  0  0  0  0  0  0  0  0
   37.1500  -17.1320   24.9780 C   0  0  0  0  0  0  0  0  0  0  0  0
   34.6980  -18.1200   25.2120 C   0  0  0  0  0  0  0  0  0  0  0  0
   38.0330  -16.1840   24.1860 C   0  0  0  0  0  0  0  0  0  0  0  0
   34.6294  -17.6154   22.7088 H   0  0  0  0  0  0  0  0  0  0  0  0
   35.8893  -16.5355   22.5562 H   0  0  0  0  0  0  0  0  0  0  0  0
   36.1930  -18.1739   22.5679 H   0  0  0  0  0  0  0  0  0  0  0  0
   42.6883  -14.4683   22.1939 H   0  0  0  0  0  0  0  0  0  0  0  0
   43.3941  -14.4086   24.5926 H   0  0  0  0  0  0  0  0  0  0  0  0
   39.6576  -16.5320   25.4678 H   0  0  0  0  0  0  0  0  0  0  0  0
   39.9178  -16.9554   23.6798 H   0  0  0  0  0  0  0  0  0  0  0  0
   39.8030  -14.4364   23.4336 H   0  0  0  0  0  0  0  0  0  0  0  0
   40.3350  -14.4971   25.2083 H   0  0  0  0  0  0  0  0  0  0  0  0
   37.6634  -18.0935   24.9842 H   0  0  0  0  0  0  0  0  0  0  0  0
   36.9953  -16.6641   25.9502 H   0  0  0  0  0  0  0  0  0  0  0  0
   33.7360  -17.8674   24.7661 H   0  0  0  0  0  0  0  0  0  0  0  0
   37.8878  -16.4542   23.1401 H   0  0  0  0  0  0  0  0  0  0  0  0
   37.7365  -15.1816   24.4947 H   0  0  0  0  0  0  0  0  0  0  0  0
  1  4  1  0  0  0  0
  1  7  1  0  0  0  0
  3 16  1  0  0  0  0
  3 17  1  0  0  0  0
  3 18  1  0  0  0  0
  4 19  1  0  0  0  0
  5  9  1  0  0  0  0
  5 11  2  0  0  0  0
  7 20  1  0  0  0  0
  8  3  1  0  0  0  0
  8  5  1  1  0  0  0
  8 14  1  0  0  0  0
 10 12  1  0  0  0  0
 10 21  1  0  0  0  0
 10 22  1  0  0  0  0
 12  1  1  0  0  0  0
 12 23  1  0  0  0  0
 12 24  1  0  0  0  0
 13  8  1  0  0  0  0
 13 15  1  0  0  0  0
 13 25  1  0  0  0  0
 13 26  1  0  0  0  0
 14  2  1  0  0  0  0
 14  6  1  0  0  0  0
 14 27  1  0  0  0  0
 15 10  1  0  0  0  0
 15 28  1  0  0  0  0
 15 29  1  0  0  0  0
M  CHG  2   3   1   9  -1
M  END
