3sl8_ligand
 OpenBabel08222323353D

 57 60  0  0  0  0  0  0  0  0999 V2000
   72.0580   -9.3670   29.6650 C   0  0  0  0  0  0  0  0  0  0  0  0
   71.7730  -10.0400   28.2930 C   0  0  0  0  0  0  0  0  0  0  0  0
   72.0160   -9.1480   27.1720 N   0  0  0  0  0  0  0  0  0  0  0  0
   71.2150   -7.9180   27.0990 C   0  0  0  0  0  0  0  0  0  0  0  0
   71.3320   -7.1430   28.4070 C   0  0  0  0  0  0  0  0  0  0  0  0
   71.7610   -7.8480   29.6770 C   0  0  0  0  0  0  0  0  0  0  0  0
   71.1130   -5.5850   28.7230 S   0  0  0  0  0  0  0  0  0  0  0  0
   71.4400   -5.3840   30.3680 C   0  0  0  0  0  0  0  0  0  0  0  0
   71.8260   -6.7130   30.9490 C   0  0  0  0  0  0  0  0  0  0  0  0
   73.2510   -9.0580   26.4110 C   0  0  0  0  0  0  0  0  0  0  0  0
   73.5880   -7.9720   25.8530 O   0  0  0  0  0  0  0  0  0  0  0  0
   74.0860  -10.0170   26.5060 O   0  0  0  0  0  0  0  0  0  0  0  0
   75.2290  -10.1000   25.7260 C   0  0  0  0  0  0  0  0  0  0  0  0
   76.3030  -11.0340   26.1880 C   0  0  0  0  0  0  0  0  0  0  0  0
   72.2140   -6.9000   32.4040 C   0  0  0  0  0  0  0  0  0  0  0  0
   71.4180   -4.1500   31.1270 N   0  0  0  0  0  0  0  0  0  0  0  0
   71.4240   -2.8130   30.5780 C   0  0  0  0  0  0  0  0  0  0  0  0
   71.4890   -1.7000   31.5820 C   0  0  0  0  0  0  0  0  0  0  0  0
   71.7690   -2.1030   33.0110 C   0  0  0  0  0  0  0  0  0  0  0  0
   73.1950   -2.6440   33.6470 S   0  0  0  0  0  0  0  0  0  0  0  0
   72.9270   -2.9530   35.2140 C   0  0  0  0  0  0  0  0  0  0  0  0
   71.4600   -2.6310   35.5340 C   0  0  0  0  0  0  0  0  0  0  0  0
   70.7260   -2.0990   34.1610 C   0  0  0  0  0  0  0  0  0  0  0  0
   71.0760   -2.5890   29.4310 O   0  0  0  0  0  0  0  0  0  0  0  0
   72.0200   -7.9490   33.1080 O   0  0  0  0  0  0  0  0  0  0  0  0
   72.5510   -5.8680   33.0380 O   0  0  0  0  0  0  0  0  0  0  0  0
   71.8820   -9.2350   32.6060 C   0  0  0  0  0  0  0  0  0  0  0  0
   70.7440  -10.1180   33.1510 C   0  0  0  0  0  0  0  0  0  0  0  0
   71.3820  -11.4670   33.5570 C   0  0  0  0  0  0  0  0  0  0  0  0
   72.6660  -11.5620   32.7340 C   0  0  0  0  0  0  0  0  0  0  0  0
   73.1220  -10.1240   32.5270 C   0  0  0  0  0  0  0  0  0  0  0  0
   73.1190   -9.5169   29.9134 H   0  0  0  0  0  0  0  0  0  0  0  0
   71.4308   -9.8511   30.4280 H   0  0  0  0  0  0  0  0  0  0  0  0
   70.7202  -10.3579   28.2684 H   0  0  0  0  0  0  0  0  0  0  0  0
   72.4244  -10.9204   28.1903 H   0  0  0  0  0  0  0  0  0  0  0  0
   70.1610   -8.1792   26.9231 H   0  0  0  0  0  0  0  0  0  0  0  0
   71.5811   -7.2931   26.2711 H   0  0  0  0  0  0  0  0  0  0  0  0
   75.6670   -9.0924   25.6716 H   0  0  0  0  0  0  0  0  0  0  0  0
   74.9211  -10.4209   24.7199 H   0  0  0  0  0  0  0  0  0  0  0  0
   77.1459  -11.0015   25.4819 H   0  0  0  0  0  0  0  0  0  0  0  0
   75.9034  -12.0578   26.2350 H   0  0  0  0  0  0  0  0  0  0  0  0
   76.6493  -10.7293   27.1866 H   0  0  0  0  0  0  0  0  0  0  0  0
   71.3967   -4.2309   32.1235 H   0  0  0  0  0  0  0  0  0  0  0  0
   70.5218   -1.1763   31.5649 H   0  0  0  0  0  0  0  0  0  0  0  0
   72.2853   -1.0099   31.2663 H   0  0  0  0  0  0  0  0  0  0  0  0
   73.6644   -3.3269   35.9228 H   0  0  0  0  0  0  0  0  0  0  0  0
   70.9845   -2.7372   36.5079 H   0  0  0  0  0  0  0  0  0  0  0  0
   69.6839   -1.7952   34.0736 H   0  0  0  0  0  0  0  0  0  0  0  0
   71.6087   -9.0485   31.5569 H   0  0  0  0  0  0  0  0  0  0  0  0
   69.9828  -10.2778   32.3732 H   0  0  0  0  0  0  0  0  0  0  0  0
   70.2795   -9.6400   34.0261 H   0  0  0  0  0  0  0  0  0  0  0  0
   70.7067  -12.3016   33.3172 H   0  0  0  0  0  0  0  0  0  0  0  0
   71.6109  -11.4780   34.6328 H   0  0  0  0  0  0  0  0  0  0  0  0
   72.4677  -12.0458   31.7662 H   0  0  0  0  0  0  0  0  0  0  0  0
   73.4313  -12.1334   33.2796 H   0  0  0  0  0  0  0  0  0  0  0  0
   73.8386   -9.8403   33.3119 H   0  0  0  0  0  0  0  0  0  0  0  0
   73.5977  -10.0189   31.5408 H   0  0  0  0  0  0  0  0  0  0  0  0
  1  2  1  0  0  0  0
  1  6  1  0  0  0  0
  1 32  1  0  0  0  0
  1 33  1  0  0  0  0
  2  3  1  0  0  0  0
  2 34  1  0  0  0  0
  2 35  1  0  0  0  0
  3  4  1  0  0  0  0
  3 10  1  0  0  0  0
  4  5  1  0  0  0  0
  4 36  1  0  0  0  0
  4 37  1  0  0  0  0
  5  6  2  0  0  0  0
  5  7  1  0  0  0  0
  6  9  1  0  0  0  0
  7  8  1  0  0  0  0
  8  9  2  0  0  0  0
  8 16  1  0  0  0  0
  9 15  1  0  0  0  0
 10 11  2  0  0  0  0
 10 12  1  0  0  0  0
 12 13  1  0  0  0  0
 13 14  1  0  0  0  0
 13 38  1  0  0  0  0
 13 39  1  0  0  0  0
 14 40  1  0  0  0  0
 14 41  1  0  0  0  0
 14 42  1  0  0  0  0
 15 25  1  0  0  0  0
 15 26  2  0  0  0  0
 16 17  1  0  0  0  0
 16 43  1  0  0  0  0
 17 18  1  0  0  0  0
 17 24  2  0  0  0  0
 18 19  1  0  0  0  0
 18 44  1  0  0  0  0
 18 45  1  0  0  0  0
 19 20  1  0  0  0  0
 19 23  2  0  0  0  0
 20 21  1  0  0  0  0
 21 22  2  0  0  0  0
 21 46  1  0  0  0  0
 22 23  1  0  0  0  0
 22 47  1  0  0  0  0
 23 48  1  0  0  0  0
 25 27  1  0  0  0  0
 27 28  1  0  0  0  0
 27 31  1  0  0  0  0
 27 49  1  0  0  0  0
 28 29  1  0  0  0  0
 28 50  1  0  0  0  0
 28 51  1  0  0  0  0
 29 30  1  0  0  0  0
 29 52  1  0  0  0  0
 29 53  1  0  0  0  0
 30 31  1  0  0  0  0
 30 54  1  0  0  0  0
 30 55  1  0  0  0  0
 31 56  1  0  0  0  0
 31 57  1  0  0  0  0
M  END
