3smq_ligand
 OpenBabel08222323353D

 39 41  0  0  1  0  0  0  0  0999 V2000
    3.0980   -4.5800   12.0230 O   0  0  0  0  0  0  0  0  0  0  0  0
    5.0630   -6.2080    6.9110 C   0  0  0  0  0  0  0  0  0  0  0  0
   -0.8350   -4.8290   13.5660 C   0  0  0  0  0  0  0  0  0  0  0  0
   -1.2720   -5.2010   14.8350 C   0  0  0  0  0  0  0  0  0  0  0  0
    1.3850   -5.5820   14.0960 C   0  0  0  0  0  0  0  0  0  0  0  0
    6.2640   -6.4890    6.2600 C   0  0  0  0  0  0  0  0  0  0  0  0
    7.3630   -5.4440    6.5670 C   0  0  0  0  0  0  0  0  0  0  0  0
    6.8700   -3.9940    6.7030 C   0  0  0  0  0  0  0  0  0  0  0  0
    3.2780   -3.9240    9.3750 C   0  0  0  0  0  0  0  0  0  0  0  0
    5.7460   -3.8830    7.7470 C   0  0  0  0  0  0  0  0  0  0  0  0
    3.3460   -4.9480    8.2400 C   0  0  0  0  0  0  0  0  0  0  0  0
    0.3250   -6.6670   17.6510 N   0  0  0  0  0  0  0  0  0  0  0  0
   -0.6260   -6.1840   17.0100 N   0  0  0  0  0  0  0  0  0  0  0  0
    2.0290   -4.1700   10.1110 N   0  0  0  0  0  0  0  0  0  0  0  0
    0.8270   -4.6470   11.9500 N   0  0  0  0  0  0  0  0  0  0  0  0
    1.6630   -6.6310   16.7100 S   0  0  0  0  0  0  0  0  0  0  0  0
    4.7380   -5.0380    7.6110 C   0  0  2  0  0  0  0  0  0  0  0  0
    2.0390   -4.4890   11.3990 C   0  0  0  0  0  0  0  0  0  0  0  0
    0.4960   -5.0080   13.1920 C   0  0  0  0  0  0  0  0  0  0  0  0
   -0.3900   -5.7680   15.7440 C   0  0  0  0  0  0  0  0  0  0  0  0
    0.9350   -5.9420   15.3610 C   0  0  0  0  0  0  0  0  0  0  0  0
    4.2959   -6.9800    6.8712 H   0  0  0  0  0  0  0  0  0  0  0  0
   -1.5367   -4.3960   12.8622 H   0  0  0  0  0  0  0  0  0  0  0  0
   -2.3079   -5.0466   15.1145 H   0  0  0  0  0  0  0  0  0  0  0  0
    2.4192   -5.7469   13.8161 H   0  0  0  0  0  0  0  0  0  0  0  0
    6.4119   -7.3486    5.6079 H   0  0  0  0  0  0  0  0  0  0  0  0
    8.1009   -5.4771    5.7519 H   0  0  0  0  0  0  0  0  0  0  0  0
    7.8479   -5.7283    7.5125 H   0  0  0  0  0  0  0  0  0  0  0  0
    6.4899   -3.6516    5.7292 H   0  0  0  0  0  0  0  0  0  0  0  0
    7.7114   -3.3568    7.0129 H   0  0  0  0  0  0  0  0  0  0  0  0
    3.2773   -2.9043    8.9626 H   0  0  0  0  0  0  0  0  0  0  0  0
    4.1409   -4.0477   10.0459 H   0  0  0  0  0  0  0  0  0  0  0  0
    5.2181   -2.9285    7.6046 H   0  0  0  0  0  0  0  0  0  0  0  0
    6.1884   -3.9107    8.7537 H   0  0  0  0  0  0  0  0  0  0  0  0
    2.6255   -4.6587    7.4608 H   0  0  0  0  0  0  0  0  0  0  0  0
    3.0759   -5.9362    8.6405 H   0  0  0  0  0  0  0  0  0  0  0  0
    1.1547   -4.0954    9.6314 H   0  0  0  0  0  0  0  0  0  0  0  0
    0.0556   -4.4676   11.3394 H   0  0  0  0  0  0  0  0  0  0  0  0
    4.3552   -4.5844    6.6849 H   0  0  0  0  0  0  0  0  0  0  0  0
  2  6  2  0  0  0  0
  2 22  1  0  0  0  0
  3  4  2  0  0  0  0
  3 23  1  0  0  0  0
  4 20  1  0  0  0  0
  4 24  1  0  0  0  0
  5 21  1  0  0  0  0
  5 25  1  0  0  0  0
  6  7  1  0  0  0  0
  6 26  1  0  0  0  0
  7 27  1  0  0  0  0
  7 28  1  0  0  0  0
  8  7  1  0  0  0  0
  8 29  1  0  0  0  0
  8 30  1  0  0  0  0
  9 11  1  0  0  0  0
  9 31  1  0  0  0  0
  9 32  1  0  0  0  0
 10  8  1  0  0  0  0
 10 33  1  0  0  0  0
 10 34  1  0  0  0  0
 11 17  1  0  0  0  0
 11 35  1  0  0  0  0
 11 36  1  0  0  0  0
 12 16  1  0  0  0  0
 13 12  2  0  0  0  0
 14  9  1  0  0  0  0
 14 37  1  0  0  0  0
 15 18  1  0  0  0  0
 15 19  1  0  0  0  0
 15 38  1  0  0  0  0
 16 21  1  0  0  0  0
 17  2  1  0  0  0  0
 17 10  1  0  0  0  0
 17 39  1  6  0  0  0
 18  1  2  0  0  0  0
 18 14  1  0  0  0  0
 19  3  1  0  0  0  0
 19  5  2  0  0  0  0
 20 13  1  0  0  0  0
 20 21  2  0  0  0  0
M  END
