3sn7_ligand
 OpenBabel08222323353D

 42 45  0  0  0  0  0  0  0  0999 V2000
   17.4080  -11.0410  -35.1670 C   0  0  0  0  0  0  0  0  0  0  0  0
   20.4070  -10.0460  -38.9650 F   0  0  0  0  0  0  0  0  0  0  0  0
   17.7320   -7.2280  -34.9590 N   0  0  0  0  0  0  0  0  0  0  0  0
   22.7030  -14.2690  -37.9940 O   0  0  0  0  0  0  0  0  0  0  0  0
   18.0160   -9.6870  -34.8110 C   0  0  0  0  0  0  0  0  0  0  0  0
   20.1100  -10.8650  -32.3660 N   0  0  0  0  0  0  0  0  0  0  0  0
   17.2700   -8.5170  -35.2270 C   0  0  0  0  0  0  0  0  0  0  0  0
   20.6080  -11.5370  -34.3870 N   0  0  0  0  0  0  0  0  0  0  0  0
   18.9230   -7.0220  -34.2070 C   0  0  0  0  0  0  0  0  0  0  0  0
   22.0960  -13.9040  -35.2640 N   0  0  0  0  0  0  0  0  0  0  0  0
   19.7460   -8.0930  -33.7210 C   0  0  0  0  0  0  0  0  0  0  0  0
   19.2770   -9.4380  -34.0550 C   0  0  0  0  0  0  0  0  0  0  0  0
   20.0080  -10.6190  -33.6240 C   0  0  0  0  0  0  0  0  0  0  0  0
   20.7930  -12.0610  -32.1760 C   0  0  0  0  0  0  0  0  0  0  0  0
   21.1330  -12.5230  -33.4480 C   0  0  0  0  0  0  0  0  0  0  0  0
   20.8610  -11.7240  -35.8030 C   0  0  0  0  0  0  0  0  0  0  0  0
   20.4660  -10.8150  -36.7750 C   0  0  0  0  0  0  0  0  0  0  0  0
   20.7930  -11.0110  -38.1280 C   0  0  0  0  0  0  0  0  0  0  0  0
   21.5180  -12.1570  -38.6050 C   0  0  0  0  0  0  0  0  0  0  0  0
   21.9580  -13.1630  -37.6350 C   0  0  0  0  0  0  0  0  0  0  0  0
   21.6410  -12.9440  -36.2170 C   0  0  0  0  0  0  0  0  0  0  0  0
   21.8860  -13.7030  -33.9740 C   0  0  0  0  0  0  0  0  0  0  0  0
   22.4060  -14.7110  -33.0680 C   0  0  0  0  0  0  0  0  0  0  0  0
   23.1510  -14.3620  -39.3610 C   0  0  0  0  0  0  0  0  0  0  0  0
   21.1010  -12.5790  -30.7960 C   0  0  0  0  0  0  0  0  0  0  0  0
   16.4748  -10.8876  -35.7288 H   0  0  0  0  0  0  0  0  0  0  0  0
   17.1929  -11.6003  -34.2446 H   0  0  0  0  0  0  0  0  0  0  0  0
   18.1180  -11.6109  -35.7843 H   0  0  0  0  0  0  0  0  0  0  0  0
   16.3335   -8.6456  -35.7575 H   0  0  0  0  0  0  0  0  0  0  0  0
   19.2241   -6.0035  -33.9901 H   0  0  0  0  0  0  0  0  0  0  0  0
   20.6494   -7.9179  -33.1481 H   0  0  0  0  0  0  0  0  0  0  0  0
   19.8959   -9.9395  -36.4858 H   0  0  0  0  0  0  0  0  0  0  0  0
   21.7347  -12.2744  -39.6606 H   0  0  0  0  0  0  0  0  0  0  0  0
   22.1679  -14.4301  -32.0314 H   0  0  0  0  0  0  0  0  0  0  0  0
   23.4972  -14.7831  -33.1869 H   0  0  0  0  0  0  0  0  0  0  0  0
   21.9469  -15.6835  -33.2990 H   0  0  0  0  0  0  0  0  0  0  0  0
   23.7275  -15.2891  -39.4956 H   0  0  0  0  0  0  0  0  0  0  0  0
   23.7875  -13.4967  -39.5980 H   0  0  0  0  0  0  0  0  0  0  0  0
   22.2799  -14.3712  -40.0326 H   0  0  0  0  0  0  0  0  0  0  0  0
   21.6435  -13.5327  -30.8750 H   0  0  0  0  0  0  0  0  0  0  0  0
   20.1619  -12.7359  -30.2452 H   0  0  0  0  0  0  0  0  0  0  0  0
   21.7227  -11.8469  -30.2598 H   0  0  0  0  0  0  0  0  0  0  0  0
  1 26  1  0  0  0  0
  1 27  1  0  0  0  0
  1 28  1  0  0  0  0
  4 24  1  0  0  0  0
  5  1  1  0  0  0  0
  5  7  1  0  0  0  0
  7  3  2  0  0  0  0
  7 29  1  0  0  0  0
  8 13  1  0  0  0  0
  8 15  1  0  0  0  0
  9  3  1  0  0  0  0
  9 30  1  0  0  0  0
 10 22  2  0  0  0  0
 11  9  2  0  0  0  0
 11 31  1  0  0  0  0
 12  5  2  0  0  0  0
 12 11  1  0  0  0  0
 13  6  2  0  0  0  0
 13 12  1  0  0  0  0
 14  6  1  0  0  0  0
 14 25  1  0  0  0  0
 15 14  2  0  0  0  0
 15 22  1  0  0  0  0
 16  8  1  0  0  0  0
 16 21  1  0  0  0  0
 17 16  2  0  0  0  0
 17 32  1  0  0  0  0
 18  2  1  0  0  0  0
 18 17  1  0  0  0  0
 19 18  2  0  0  0  0
 19 20  1  0  0  0  0
 19 33  1  0  0  0  0
 20  4  1  0  0  0  0
 20 21  2  0  0  0  0
 21 10  1  0  0  0  0
 22 23  1  0  0  0  0
 23 34  1  0  0  0  0
 23 35  1  0  0  0  0
 23 36  1  0  0  0  0
 24 37  1  0  0  0  0
 24 38  1  0  0  0  0
 24 39  1  0  0  0  0
 25 40  1  0  0  0  0
 25 41  1  0  0  0  0
 25 42  1  0  0  0  0
M  END
