3soq_ligand
 OpenBabel08222323353D

113112  0  0  1  0  0  0  0  0999 V2000
  -22.8760   18.9420   -6.9650 C   0  0  0  0  0  0  0  0  0  0  0  0
  -22.0440   18.7400   -6.0820 O   0  0  0  0  0  0  0  0  0  0  0  0
  -23.8490   20.1150   -6.8680 C   0  0  0  0  0  0  0  0  0  0  0  0
  -22.9870   18.1800   -8.0500 N   0  0  0  0  0  0  0  0  0  0  0  0
  -22.1550   16.9970   -8.2890 C   0  0  2  0  0  0  0  0  0  0  0  0
  -20.7250   17.0290   -7.7290 C   0  0  0  0  0  0  0  0  0  0  0  0
  -19.9670   17.9720   -7.9670 O   0  0  0  0  0  0  0  0  0  0  0  0
  -22.0980   16.6920   -9.7930 C   0  0  0  0  0  0  0  0  0  0  0  0
  -23.2940   15.8890  -10.2800 C   0  0  0  0  0  0  0  0  0  0  0  0
  -23.2970   15.5670  -11.5680 O   0  0  0  0  0  0  0  0  0  0  0  0
  -24.2030   15.5660   -9.5130 N   0  0  0  0  0  0  0  0  0  0  0  0
  -20.3690   15.9900   -6.9800 N   0  0  0  0  0  0  0  0  0  0  0  0
  -18.9760   15.7380   -6.6350 C   0  0  2  0  0  0  0  0  0  0  0  0
  -18.5130   14.5160   -7.4130 C   0  0  0  0  0  0  0  0  0  0  0  0
  -19.2640   13.5500   -7.5620 O   0  0  0  0  0  0  0  0  0  0  0  0
  -18.8070   15.4910   -5.1390 C   0  0  0  0  0  0  0  0  0  0  0  0
  -17.4820   15.0650   -4.8470 O   0  0  0  0  0  0  0  0  0  0  0  0
  -17.2790   14.5520   -7.9020 N   0  0  0  0  0  0  0  0  0  0  0  0
  -16.7800   13.4670   -8.7420 C   0  0  2  0  0  0  0  0  0  0  0  0
  -15.9030   12.4630   -8.0030 C   0  0  0  0  0  0  0  0  0  0  0  0
  -15.3940   11.5190   -8.6100 O   0  0  0  0  0  0  0  0  0  0  0  0
  -16.0260   14.0120   -9.9570 C   0  0  0  0  0  0  0  0  0  0  0  0
  -15.9400   13.0020  -11.0850 C   0  0  0  0  0  0  0  0  0  0  0  0
  -16.9140   12.3070  -11.3840 O   0  0  0  0  0  0  0  0  0  0  0  0
  -14.7710   12.9050  -11.7100 N   0  0  0  0  0  0  0  0  0  0  0  0
  -15.7310   12.6640   -6.6980 N   0  0  0  0  0  0  0  0  0  0  0  0
  -14.9120   11.7650   -5.8880 C   0  0  2  0  0  0  0  0  0  0  0  0
  -15.6450   10.4550   -5.6030 C   0  0  0  0  0  0  0  0  0  0  0  0
  -16.8570   10.4460   -5.3870 O   0  0  0  0  0  0  0  0  0  0  0  0
  -14.5030   12.4390   -4.5800 C   0  0  0  0  0  0  0  0  0  0  0  0
  -14.9070    9.3500   -5.5990 N   0  0  0  0  0  0  0  0  0  0  0  0
  -15.5110    8.0510   -5.3240 C   0  0  2  0  0  0  0  0  0  0  0  0
  -15.9140    7.8980   -3.8560 C   0  0  0  0  0  0  0  0  0  0  0  0
  -16.9490    7.3050   -3.5500 O   0  0  0  0  0  0  0  0  0  0  0  0
  -14.5830    6.8870   -5.7180 C   0  0  2  0  0  0  0  0  0  0  0  0
  -14.5590    6.7110   -7.2340 C   0  0  0  0  0  0  0  0  0  0  0  0
  -15.0580    5.5870   -5.0780 C   0  0  0  0  0  0  0  0  0  0  0  0
  -13.8260    5.4620   -7.6860 C   0  0  0  0  0  0  0  0  0  0  0  0
  -15.1040    8.4390   -2.9500 N   0  0  0  0  0  0  0  0  0  0  0  0
  -15.3450    8.2400   -1.5220 C   0  0  2  0  0  0  0  0  0  0  0  0
  -16.4420    9.1340   -0.9420 C   0  0  0  0  0  0  0  0  0  0  0  0
  -17.3280    8.6470   -0.2360 O   0  0  0  0  0  0  0  0  0  0  0  0
  -14.0460    8.3770   -0.7200 C   0  0  0  0  0  0  0  0  0  0  0  0
  -13.0630    7.2360   -0.9600 C   0  0  0  0  0  0  0  0  0  0  0  0
  -11.8780    7.2890   -0.0040 C   0  0  0  0  0  0  0  0  0  0  0  0
  -10.9360    6.1120   -0.2400 C   0  0  0  0  0  0  0  0  0  0  0  0
   -9.7480    6.1240    0.6680 N   0  3  0  0  0  0  0  0  0  0  0  0
  -16.3790   10.4290   -1.2410 N   0  0  0  0  0  0  0  0  0  0  0  0
  -17.3400   11.4050   -0.7180 C   0  0  2  0  0  0  0  0  0  0  0  0
  -17.0320   11.8330    0.7190 C   0  0  0  0  0  0  0  0  0  0  0  0
  -17.1360   11.0350    1.6530 O   0  0  0  0  0  0  0  0  0  0  0  0
  -18.7800   10.8810   -0.8160 C   0  0  0  0  0  0  0  0  0  0  0  0
  -19.2210   10.6400   -2.2490 C   0  0  0  0  0  0  0  0  0  0  0  0
  -19.0250   11.4870   -3.1220 O   0  0  0  0  0  0  0  0  0  0  0  0
  -19.8200    9.4790   -2.4980 N   0  0  0  0  0  0  0  0  0  0  0  0
  -16.6560   13.0970    0.8870 N   0  0  0  0  0  0  0  0  0  0  0  0
  -24.5057   20.1206   -7.7505 H   0  0  0  0  0  0  0  0  0  0  0  0
  -23.2838   21.0577   -6.8256 H   0  0  0  0  0  0  0  0  0  0  0  0
  -24.4585   20.0116   -5.9581 H   0  0  0  0  0  0  0  0  0  0  0  0
  -23.6716   18.4264   -8.7361 H   0  0  0  0  0  0  0  0  0  0  0  0
  -22.6643   16.1569   -7.7942 H   0  0  0  0  0  0  0  0  0  0  0  0
  -21.1825   16.1186  -10.0004 H   0  0  0  0  0  0  0  0  0  0  0  0
  -22.0670   17.6440  -10.3432 H   0  0  0  0  0  0  0  0  0  0  0  0
  -24.9807   15.0378   -9.8537 H   0  0  0  0  0  0  0  0  0  0  0  0
  -24.1628   15.8322   -8.5499 H   0  0  0  0  0  0  0  0  0  0  0  0
  -21.0748   15.3658   -6.6450 H   0  0  0  0  0  0  0  0  0  0  0  0
  -18.3688   16.6091   -6.9223 H   0  0  0  0  0  0  0  0  0  0  0  0
  -19.5154   14.7126   -4.8191 H   0  0  0  0  0  0  0  0  0  0  0  0
  -19.0152   16.4231   -4.5932 H   0  0  0  0  0  0  0  0  0  0  0  0
  -16.8674   15.7363   -5.1195 H   0  0  0  0  0  0  0  0  0  0  0  0
  -16.6859   15.3295   -7.6930 H   0  0  0  0  0  0  0  0  0  0  0  0
  -17.6594   12.9193   -9.1116 H   0  0  0  0  0  0  0  0  0  0  0  0
  -15.0060   14.2832   -9.6473 H   0  0  0  0  0  0  0  0  0  0  0  0
  -16.5482   14.9078  -10.3241 H   0  0  0  0  0  0  0  0  0  0  0  0
  -14.6582   12.2550  -12.4615 H   0  0  0  0  0  0  0  0  0  0  0  0
  -14.0042   13.4820  -11.4287 H   0  0  0  0  0  0  0  0  0  0  0  0
  -16.1725   13.4483   -6.2622 H   0  0  0  0  0  0  0  0  0  0  0  0
  -13.9991   11.5307   -6.4552 H   0  0  0  0  0  0  0  0  0  0  0  0
  -13.8883   11.7458   -3.9869 H   0  0  0  0  0  0  0  0  0  0  0  0
  -15.4038   12.7099   -4.0098 H   0  0  0  0  0  0  0  0  0  0  0  0
  -13.9222   13.3466   -4.8011 H   0  0  0  0  0  0  0  0  0  0  0  0
  -13.9266    9.4096   -5.7866 H   0  0  0  0  0  0  0  0  0  0  0  0
  -16.4233    7.9781   -5.9342 H   0  0  0  0  0  0  0  0  0  0  0  0
  -13.5653    7.1108   -5.3657 H   0  0  0  0  0  0  0  0  0  0  0  0
  -14.0626    7.5862   -7.6785 H   0  0  0  0  0  0  0  0  0  0  0  0
  -15.5967    6.6556   -7.5947 H   0  0  0  0  0  0  0  0  0  0  0  0
  -15.0790    5.7030   -3.9843 H   0  0  0  0  0  0  0  0  0  0  0  0
  -14.3692    4.7727   -5.3471 H   0  0  0  0  0  0  0  0  0  0  0  0
  -16.0685    5.3475   -5.4407 H   0  0  0  0  0  0  0  0  0  0  0  0
  -13.8488    5.4007   -8.7841 H   0  0  0  0  0  0  0  0  0  0  0  0
  -14.3160    4.5745   -7.2590 H   0  0  0  0  0  0  0  0  0  0  0  0
  -12.7818    5.5052   -7.3428 H   0  0  0  0  0  0  0  0  0  0  0  0
  -14.3227    8.9871   -3.2487 H   0  0  0  0  0  0  0  0  0  0  0  0
  -15.6913    7.2026   -1.4045 H   0  0  0  0  0  0  0  0  0  0  0  0
  -14.2979    8.4008    0.3505 H   0  0  0  0  0  0  0  0  0  0  0  0
  -13.5593    9.3219   -1.0033 H   0  0  0  0  0  0  0  0  0  0  0  0
  -12.6889    7.3015   -1.9923 H   0  0  0  0  0  0  0  0  0  0  0  0
  -13.5886    6.2799   -0.8204 H   0  0  0  0  0  0  0  0  0  0  0  0
  -12.2482    7.2522    1.0312 H   0  0  0  0  0  0  0  0  0  0  0  0
  -11.3280    8.2282   -0.1636 H   0  0  0  0  0  0  0  0  0  0  0  0
  -10.5821    6.1493   -1.2808 H   0  0  0  0  0  0  0  0  0  0  0  0
  -11.4936    5.1782   -0.0755 H   0  0  0  0  0  0  0  0  0  0  0  0
   -9.1640    5.3272    0.4677 H   0  0  0  0  0  0  0  0  0  0  0  0
  -10.0572    6.0814    1.6265 H   0  0  0  0  0  0  0  0  0  0  0  0
   -9.2220    6.9713    0.5219 H   0  0  0  0  0  0  0  0  0  0  0  0
  -15.6489   10.7485   -1.8450 H   0  0  0  0  0  0  0  0  0  0  0  0
  -17.2674   12.3020   -1.3505 H   0  0  0  0  0  0  0  0  0  0  0  0
  -19.4550   11.6201   -0.3599 H   0  0  0  0  0  0  0  0  0  0  0  0
  -18.8475    9.9325   -0.2631 H   0  0  0  0  0  0  0  0  0  0  0  0
  -20.1318    9.2657   -3.4239 H   0  0  0  0  0  0  0  0  0  0  0  0
  -19.9586    8.8193   -1.7593 H   0  0  0  0  0  0  0  0  0  0  0  0
  -16.4409   13.4372    1.8024 H   0  0  0  0  0  0  0  0  0  0  0  0
  -16.5883   13.7076    0.0980 H   0  0  0  0  0  0  0  0  0  0  0  0
  1  2  2  0  0  0  0
  1  3  1  0  0  0  0
  1  4  1  0  0  0  0
  3 57  1  0  0  0  0
  3 58  1  0  0  0  0
  3 59  1  0  0  0  0
  4  5  1  0  0  0  0
  4 60  1  0  0  0  0
  5  6  1  0  0  0  0
  5  8  1  0  0  0  0
  5 61  1  1  0  0  0
  6  7  2  0  0  0  0
  6 12  1  0  0  0  0
  8  9  1  0  0  0  0
  8 62  1  0  0  0  0
  8 63  1  0  0  0  0
  9 10  2  0  0  0  0
  9 11  1  0  0  0  0
 11 64  1  0  0  0  0
 11 65  1  0  0  0  0
 12 13  1  0  0  0  0
 12 66  1  0  0  0  0
 13 14  1  0  0  0  0
 13 16  1  0  0  0  0
 13 67  1  6  0  0  0
 14 15  2  0  0  0  0
 14 18  1  0  0  0  0
 16 17  1  0  0  0  0
 16 68  1  0  0  0  0
 16 69  1  0  0  0  0
 17 70  1  0  0  0  0
 18 19  1  0  0  0  0
 18 71  1  0  0  0  0
 19 20  1  0  0  0  0
 19 22  1  0  0  0  0
 19 72  1  6  0  0  0
 20 21  2  0  0  0  0
 20 26  1  0  0  0  0
 22 23  1  0  0  0  0
 22 73  1  0  0  0  0
 22 74  1  0  0  0  0
 23 24  2  0  0  0  0
 23 25  1  0  0  0  0
 25 75  1  0  0  0  0
 25 76  1  0  0  0  0
 26 27  1  0  0  0  0
 26 77  1  0  0  0  0
 27 28  1  0  0  0  0
 27 30  1  0  0  0  0
 27 78  1  6  0  0  0
 28 29  2  0  0  0  0
 28 31  1  0  0  0  0
 30 79  1  0  0  0  0
 30 80  1  0  0  0  0
 30 81  1  0  0  0  0
 31 32  1  0  0  0  0
 31 82  1  0  0  0  0
 32 33  1  0  0  0  0
 32 35  1  0  0  0  0
 32 83  1  6  0  0  0
 33 34  2  0  0  0  0
 33 39  1  0  0  0  0
 35 36  1  0  0  0  0
 35 37  1  0  0  0  0
 35 84  1  1  0  0  0
 36 38  1  0  0  0  0
 36 85  1  0  0  0  0
 36 86  1  0  0  0  0
 37 87  1  0  0  0  0
 37 88  1  0  0  0  0
 37 89  1  0  0  0  0
 38 90  1  0  0  0  0
 38 91  1  0  0  0  0
 38 92  1  0  0  0  0
 39 40  1  0  0  0  0
 39 93  1  0  0  0  0
 40 41  1  0  0  0  0
 40 43  1  0  0  0  0
 40 94  1  1  0  0  0
 41 42  2  0  0  0  0
 41 48  1  0  0  0  0
 43 44  1  0  0  0  0
 43 95  1  0  0  0  0
 43 96  1  0  0  0  0
 44 45  1  0  0  0  0
 44 97  1  0  0  0  0
 44 98  1  0  0  0  0
 45 46  1  0  0  0  0
 45 99  1  0  0  0  0
 45100  1  0  0  0  0
 46 47  1  0  0  0  0
 46101  1  0  0  0  0
 46102  1  0  0  0  0
 47103  1  0  0  0  0
 47104  1  0  0  0  0
 47105  1  0  0  0  0
 48 49  1  0  0  0  0
 48106  1  0  0  0  0
 49 50  1  0  0  0  0
 49 52  1  0  0  0  0
 49107  1  6  0  0  0
 50 51  2  0  0  0  0
 50 56  1  0  0  0  0
 52 53  1  0  0  0  0
 52108  1  0  0  0  0
 52109  1  0  0  0  0
 53 54  2  0  0  0  0
 53 55  1  0  0  0  0
 55110  1  0  0  0  0
 55111  1  0  0  0  0
 56112  1  0  0  0  0
 56113  1  0  0  0  0
M  CHG  1  47   1
M  END
