3srb_ligand
 OpenBabel08222323353D

 25 26  0  0  0  0  0  0  0  0999 V2000
   34.9610   46.4870   60.1070 C   0  0  0  0  0  0  0  0  0  0  0  0
   37.0600   48.3210   56.1930 N   0  0  0  0  0  0  0  0  0  0  0  0
   34.0400   46.7350   61.7510 Br  0  0  0  0  0  0  0  0  0  0  0  0
   35.3660   45.2090   59.7050 C   0  0  0  0  0  0  0  0  0  0  0  0
   37.1340   46.0150   56.5930 N   0  0  0  0  0  0  0  0  0  0  0  0
   36.0860   45.0470   58.5120 C   0  0  0  0  0  0  0  0  0  0  0  0
   35.9420   49.7950   57.6430 N   0  0  0  0  0  0  0  0  0  0  0  0
   36.4080   46.1630   57.7320 C   0  0  0  0  0  0  0  0  0  0  0  0
   36.0040   47.4400   58.1300 C   0  0  0  0  0  0  0  0  0  0  0  0
   35.2760   47.5950   59.3150 C   0  0  0  0  0  0  0  0  0  0  0  0
   36.3310   48.5360   57.3180 C   0  0  0  0  0  0  0  0  0  0  0  0
   37.4340   47.0800   55.8330 C   0  0  0  0  0  0  0  0  0  0  0  0
   36.0790   50.8980   56.6970 C   0  0  0  0  0  0  0  0  0  0  0  0
   35.2440   52.0950   57.0960 C   0  0  0  0  0  0  0  0  0  0  0  0
   34.6960   52.8660   56.1770 C   0  0  0  0  0  0  0  0  0  0  0  0
   35.1237   44.3459   60.3144 H   0  0  0  0  0  0  0  0  0  0  0  0
   36.3929   44.0571   58.1944 H   0  0  0  0  0  0  0  0  0  0  0  0
   35.5425   49.9755   58.5750 H   0  0  0  0  0  0  0  0  0  0  0  0
   34.9533   48.5834   59.6216 H   0  0  0  0  0  0  0  0  0  0  0  0
   37.9879   46.9374   54.9122 H   0  0  0  0  0  0  0  0  0  0  0  0
   35.7559   50.5553   55.7029 H   0  0  0  0  0  0  0  0  0  0  0  0
   37.1357   51.2005   56.6550 H   0  0  0  0  0  0  0  0  0  0  0  0
   35.0943   52.3217   58.1506 H   0  0  0  0  0  0  0  0  0  0  0  0
   34.0966   53.7254   56.4740 H   0  0  0  0  0  0  0  0  0  0  0  0
   34.8429   52.6433   55.1212 H   0  0  0  0  0  0  0  0  0  0  0  0
  1  3  1  0  0  0  0
  1 10  1  0  0  0  0
  2 11  2  0  0  0  0
  4  1  2  0  0  0  0
  4 16  1  0  0  0  0
  5 12  2  0  0  0  0
  6  4  1  0  0  0  0
  6  8  2  0  0  0  0
  6 17  1  0  0  0  0
  7 13  1  0  0  0  0
  7 18  1  0  0  0  0
  8  5  1  0  0  0  0
  8  9  1  0  0  0  0
  9 10  2  0  0  0  0
  9 11  1  0  0  0  0
 10 19  1  0  0  0  0
 11  7  1  0  0  0  0
 12  2  1  0  0  0  0
 12 20  1  0  0  0  0
 13 14  1  0  0  0  0
 13 21  1  0  0  0  0
 13 22  1  0  0  0  0
 14 15  2  0  0  0  0
 14 23  1  0  0  0  0
 15 24  1  0  0  0  0
 15 25  1  0  0  0  0
M  END
