3srg_ligand
 OpenBabel08222323353D

 18 19  0  0  0  0  0  0  0  0999 V2000
   -5.2940  -23.4870   29.3260 O   0  0  0  0  0  0  0  0  0  0  0  0
   -6.8670  -21.9580   28.7200 N   0  0  0  0  0  0  0  0  0  0  0  0
   -7.7100  -20.9320   28.9720 C   0  0  0  0  0  0  0  0  0  0  0  0
   -8.4900  -20.3990   27.9500 C   0  0  0  0  0  0  0  0  0  0  0  0
   -9.3660  -19.3280   28.2060 C   0  0  0  0  0  0  0  0  0  0  0  0
   -9.4950  -18.8220   29.5090 C   0  0  0  0  0  0  0  0  0  0  0  0
   -8.7250  -19.3730   30.5430 C   0  0  0  0  0  0  0  0  0  0  0  0
   -7.8190  -20.4190   30.2880 C   0  0  0  0  0  0  0  0  0  0  0  0
   -7.0170  -20.9890   31.3150 C   0  0  0  0  0  0  0  0  0  0  0  0
   -6.1650  -22.0720   31.0040 C   0  0  0  0  0  0  0  0  0  0  0  0
   -6.1180  -22.5180   29.6840 C   0  0  0  0  0  0  0  0  0  0  0  0
   -6.7989  -22.3111   27.7869 H   0  0  0  0  0  0  0  0  0  0  0  0
   -8.4222  -20.8117   26.9499 H   0  0  0  0  0  0  0  0  0  0  0  0
   -9.9415  -18.8935   27.3966 H   0  0  0  0  0  0  0  0  0  0  0  0
  -10.1848  -18.0113   29.7142 H   0  0  0  0  0  0  0  0  0  0  0  0
   -8.8289  -18.9885   31.5512 H   0  0  0  0  0  0  0  0  0  0  0  0
   -7.0592  -20.5951   32.3294 H   0  0  0  0  0  0  0  0  0  0  0  0
   -5.5604  -22.5463   31.7756 H   0  0  0  0  0  0  0  0  0  0  0  0
  2  3  1  0  0  0  0
  2 11  1  0  0  0  0
  2 12  1  0  0  0  0
  3  4  2  0  0  0  0
  3  8  1  0  0  0  0
  4  5  1  0  0  0  0
  4 13  1  0  0  0  0
  5  6  2  0  0  0  0
  5 14  1  0  0  0  0
  6  7  1  0  0  0  0
  6 15  1  0  0  0  0
  7  8  2  0  0  0  0
  7 16  1  0  0  0  0
  8  9  1  0  0  0  0
  9 10  2  0  0  0  0
  9 17  1  0  0  0  0
 10 11  1  0  0  0  0
 10 18  1  0  0  0  0
 11  1  2  0  0  0  0
M  END
