3t0m_ligand
 OpenBabel08222323353D

 41 42  0  0  0  0  0  0  0  0999 V2000
   21.1890    7.2430   -5.2040 C   0  0  0  0  0  0  0  0  0  0  0  0
   21.3420    6.9050  -11.4640 C   0  0  0  0  0  0  0  0  0  0  0  0
   25.2550    9.4420   -8.5610 O   0  0  0  0  0  0  0  0  0  0  0  0
   21.8320   12.5200   -9.2150 O   0  0  0  0  0  1  0  0  0  0  0  0
   20.8760   14.7540   -9.6380 O   0  0  0  0  0  1  0  0  0  0  0  0
   21.7290   13.1780  -11.6870 O   0  0  0  0  0  0  0  0  0  0  0  0
   26.1210   15.6270  -10.3040 C   0  0  0  0  0  0  0  0  0  0  0  0
   24.9960   16.4440  -10.1750 C   0  0  0  0  0  0  0  0  0  0  0  0
   25.9910   14.2230  -10.3950 C   0  0  0  0  0  0  0  0  0  0  0  0
   21.0850    7.1970   -7.9000 C   0  0  0  0  0  0  0  0  0  0  0  0
   23.7070   15.8770  -10.1770 C   0  0  0  0  0  0  0  0  0  0  0  0
   21.3030    7.0790   -9.2690 C   0  0  0  0  0  0  0  0  0  0  0  0
   22.4050    9.1920   -7.8540 C   0  0  0  0  0  0  0  0  0  0  0  0
   25.4280   11.3100  -10.0330 C   0  0  0  0  0  0  0  0  0  0  0  0
   23.4040    9.9960   -9.8000 N   0  0  0  0  0  0  0  0  0  0  0  0
   21.4360    8.4560   -5.8570 O   0  0  0  0  0  0  0  0  0  0  0  0
   22.3290    7.9170  -11.2110 O   0  0  0  0  0  0  0  0  0  0  0  0
   24.4460   12.3170  -10.4440 O   0  0  0  0  0  0  0  0  0  0  0  0
   24.6680   10.1710   -9.3820 C   0  0  0  0  0  0  0  0  0  0  0  0
   21.6280    8.2680   -7.1960 C   0  0  0  0  0  0  0  0  0  0  0  0
   22.6550    9.0680   -9.2110 C   0  0  0  0  0  0  0  0  0  0  0  0
   22.1040    8.0260   -9.9070 C   0  0  0  0  0  0  0  0  0  0  0  0
   24.6950   13.6730  -10.3660 C   0  0  0  0  0  0  0  0  0  0  0  0
   23.5780   14.4960  -10.2240 C   0  0  0  0  0  0  0  0  0  0  0  0
   21.8790   13.6880  -10.2030 P   0  0  0  0  0  0  0  0  0  0  0  0
   21.0391    7.4286   -4.1302 H   0  0  0  0  0  0  0  0  0  0  0  0
   22.0478    6.5700   -5.3434 H   0  0  0  0  0  0  0  0  0  0  0  0
   20.2859    6.7771   -5.6251 H   0  0  0  0  0  0  0  0  0  0  0  0
   21.3490    6.6451  -12.5328 H   0  0  0  0  0  0  0  0  0  0  0  0
   20.3479    7.2846  -11.1855 H   0  0  0  0  0  0  0  0  0  0  0  0
   21.5731    6.0101  -10.8676 H   0  0  0  0  0  0  0  0  0  0  0  0
   27.1072   16.0759  -10.3347 H   0  0  0  0  0  0  0  0  0  0  0  0
   25.1151   17.5166  -10.0731 H   0  0  0  0  0  0  0  0  0  0  0  0
   26.8643   13.5871  -10.4846 H   0  0  0  0  0  0  0  0  0  0  0  0
   20.4912    6.4535   -7.3807 H   0  0  0  0  0  0  0  0  0  0  0  0
   22.8279   16.5103  -10.1423 H   0  0  0  0  0  0  0  0  0  0  0  0
   20.8581    6.2652   -9.8301 H   0  0  0  0  0  0  0  0  0  0  0  0
   22.8265   10.0264   -7.3051 H   0  0  0  0  0  0  0  0  0  0  0  0
   26.1365   11.7477   -9.3144 H   0  0  0  0  0  0  0  0  0  0  0  0
   25.9776   10.9410  -10.9115 H   0  0  0  0  0  0  0  0  0  0  0  0
   23.0320   10.5541  -10.5417 H   0  0  0  0  0  0  0  0  0  0  0  0
  1 26  1  0  0  0  0
  1 27  1  0  0  0  0
  1 28  1  0  0  0  0
  2 29  1  0  0  0  0
  2 30  1  0  0  0  0
  2 31  1  0  0  0  0
  7 32  1  0  0  0  0
  8  7  2  0  0  0  0
  8 33  1  0  0  0  0
  9  7  1  0  0  0  0
  9 34  1  0  0  0  0
 10 35  1  0  0  0  0
 11  8  1  0  0  0  0
 11 36  1  0  0  0  0
 12 10  2  0  0  0  0
 12 37  1  0  0  0  0
 13 20  2  0  0  0  0
 13 38  1  0  0  0  0
 14 19  1  0  0  0  0
 14 39  1  0  0  0  0
 14 40  1  0  0  0  0
 15 21  1  0  0  0  0
 15 41  1  0  0  0  0
 16  1  1  0  0  0  0
 17  2  1  0  0  0  0
 18 14  1  0  0  0  0
 19  3  2  0  0  0  0
 19 15  1  0  0  0  0
 20 10  1  0  0  0  0
 20 16  1  0  0  0  0
 21 13  1  0  0  0  0
 21 22  2  0  0  0  0
 22 12  1  0  0  0  0
 22 17  1  0  0  0  0
 23  9  2  0  0  0  0
 23 18  1  0  0  0  0
 24 11  2  0  0  0  0
 24 23  1  0  0  0  0
 24 25  1  0  0  0  0
 25  4  1  0  0  0  0
 25  5  1  0  0  0  0
 25  6  2  0  0  0  0
M  END
