3t3e_ligand
 OpenBabel08222323353D

 33 34  0  0  1  0  0  0  0  0999 V2000
   34.0910   23.4150   28.7620 N   0  0  0  0  0  0  0  0  0  0  0  0
   37.9410   23.9470   29.6410 Cl  0  0  0  0  0  0  0  0  0  0  0  0
   33.4180   24.1410   29.7510 C   0  0  0  0  0  0  0  0  0  0  0  0
   32.1990   24.1990   29.7530 O   0  0  0  0  0  0  0  0  0  0  0  0
   34.1320   24.8450   30.6820 N   0  0  0  0  0  0  0  0  0  0  0  0
   35.5290   24.8180   30.6560 C   0  0  0  0  0  0  0  0  0  0  0  0
   36.0900   25.4830   31.5090 O   0  0  0  0  0  0  0  0  0  0  0  0
   36.2170   24.0770   29.6870 C   0  0  0  0  0  0  0  0  0  0  0  0
   35.4960   23.3800   28.7350 C   0  0  0  0  0  0  0  0  0  0  0  0
   33.2680   22.7260   27.8040 C   0  0  1  0  0  0  0  0  0  0  0  0
   33.6950   23.0390   26.3370 C   0  0  2  0  0  0  0  0  0  0  0  0
   33.8200   24.4520   26.1690 O   0  0  0  0  0  0  0  0  0  0  0  0
   32.6370   22.4050   25.3900 C   0  0  1  0  0  0  0  0  0  0  0  0
   33.0680   22.3430   24.0410 O   0  0  0  0  0  0  0  0  0  0  0  0
   32.3680   20.9530   25.8460 C   0  0  2  0  0  0  0  0  0  0  0  0
   31.2900   20.4790   25.0900 O   0  0  0  0  0  0  0  0  0  0  0  0
   32.0650   20.7990   27.3690 C   0  0  2  0  0  0  0  0  0  0  0  0
   33.1990   21.2880   28.0890 O   0  0  0  0  0  0  0  0  0  0  0  0
   32.0500   19.3520   27.8050 C   0  0  0  0  0  0  0  0  0  0  0  0
   33.2080   18.6560   27.3040 O   0  0  0  0  0  0  0  0  0  0  0  0
   33.6546   25.3783   31.3804 H   0  0  0  0  0  0  0  0  0  0  0  0
   36.0142   22.8066   27.9678 H   0  0  0  0  0  0  0  0  0  0  0  0
   32.2471   23.1182   27.9221 H   0  0  0  0  0  0  0  0  0  0  0  0
   34.6726   22.5775   26.1336 H   0  0  0  0  0  0  0  0  0  0  0  0
   34.0801   24.6417   25.2753 H   0  0  0  0  0  0  0  0  0  0  0  0
   31.7106   22.9954   25.4466 H   0  0  0  0  0  0  0  0  0  0  0  0
   33.2482   23.2212   23.7266 H   0  0  0  0  0  0  0  0  0  0  0  0
   33.2598   20.3499   25.6205 H   0  0  0  0  0  0  0  0  0  0  0  0
   30.5297   21.0266   25.2467 H   0  0  0  0  0  0  0  0  0  0  0  0
   31.1322   21.3184   27.6338 H   0  0  0  0  0  0  0  0  0  0  0  0
   31.1419   18.8675   27.4169 H   0  0  0  0  0  0  0  0  0  0  0  0
   32.0490   19.3062   28.9040 H   0  0  0  0  0  0  0  0  0  0  0  0
   33.9945   19.0698   27.6395 H   0  0  0  0  0  0  0  0  0  0  0  0
  1  9  1  0  0  0  0
  1 10  1  0  0  0  0
  3  1  1  0  0  0  0
  3  4  2  0  0  0  0
  5  3  1  0  0  0  0
  5 21  1  0  0  0  0
  6  5  1  0  0  0  0
  6  7  2  0  0  0  0
  6  8  1  0  0  0  0
  8  2  1  0  0  0  0
  8  9  2  0  0  0  0
  9 22  1  0  0  0  0
 10 11  1  0  0  0  0
 10 18  1  0  0  0  0
 10 23  1  1  0  0  0
 11 12  1  0  0  0  0
 11 13  1  0  0  0  0
 11 24  1  6  0  0  0
 12 25  1  0  0  0  0
 13 14  1  0  0  0  0
 13 15  1  0  0  0  0
 13 26  1  1  0  0  0
 14 27  1  0  0  0  0
 15 16  1  0  0  0  0
 15 17  1  0  0  0  0
 15 28  1  6  0  0  0
 16 29  1  0  0  0  0
 17 18  1  0  0  0  0
 17 19  1  0  0  0  0
 17 30  1  1  0  0  0
 19 20  1  0  0  0  0
 19 31  1  0  0  0  0
 19 32  1  0  0  0  0
 20 33  1  0  0  0  0
M  END
