3t4h_ligand
 OpenBabel08222323353D

 32 32  0  0  1  0  0  0  0  0999 V2000
   -4.1580    1.3920   -0.8140 C   0  0  0  0  0  0  0  0  0  0  0  0
   -3.2520    0.3820    1.1900 N   0  0  0  0  0  0  0  0  0  0  0  0
   -4.4760    2.3710   -1.5030 O   0  5  0  0  0  0  0  0  0  0  0  0
   -3.7560    1.6610    0.6620 C   0  0  1  0  0  0  0  0  0  0  0  0
   -2.5490    2.6300    0.6760 C   0  0  0  0  0  0  0  0  0  0  0  0
   -2.8990   -1.2870    2.8840 C   0  0  0  0  0  0  0  0  0  0  0  0
   -3.4690    0.0420    2.4750 C   0  0  0  0  0  0  0  0  0  0  0  0
   -4.0980    0.7110    3.2780 O   0  0  0  0  0  0  0  0  0  0  0  0
   -3.0490   -1.6930    4.0630 O   0  5  0  0  0  0  0  0  0  0  0  0
   -2.3020   -1.9900    2.0410 O   0  0  0  0  0  0  0  0  0  0  0  0
   -1.6770    2.9870    2.2780 S   0  0  0  0  0  0  0  0  0  0  0  0
   -2.7150    4.0820    3.2620 C   0  0  0  0  0  0  0  0  0  0  0  0
   -2.2250    4.2980    4.5690 C   0  0  0  0  0  0  0  0  0  0  0  0
   -1.1060    3.6620    5.1100 C   0  0  0  0  0  0  0  0  0  0  0  0
   -0.7140    3.9290    6.4330 C   0  0  0  0  0  0  0  0  0  0  0  0
   -1.4410    4.8210    7.2370 C   0  0  0  0  0  0  0  0  0  0  0  0
   -2.5620    5.4530    6.6850 C   0  0  0  0  0  0  0  0  0  0  0  0
   -2.9330    5.1740    5.3790 C   0  0  0  0  0  0  0  0  0  0  0  0
   -3.3610    6.3270    7.3040 N   0  0  0  0  0  0  0  0  0  0  0  0
   -3.1520    6.6820    8.5050 O   0  0  0  0  0  0  0  0  0  0  0  0
   -4.4630    6.8510    6.5510 O   0  0  0  0  0  0  0  0  0  0  0  0
   -4.1060    0.2190   -1.2520 O   0  0  0  0  0  0  0  0  0  0  0  0
   -2.7455   -0.2379    0.5907 H   0  0  0  0  0  0  0  0  0  0  0  0
   -4.6001    2.0514    1.2495 H   0  0  0  0  0  0  0  0  0  0  0  0
   -2.9085    3.5938    0.2863 H   0  0  0  0  0  0  0  0  0  0  0  0
   -1.7974    2.2141   -0.0110 H   0  0  0  0  0  0  0  0  0  0  0  0
   -3.7186    3.6377    3.3354 H   0  0  0  0  0  0  0  0  0  0  0  0
   -2.7805    5.0532    2.7497 H   0  0  0  0  0  0  0  0  0  0  0  0
   -0.5386    2.9610    4.5086 H   0  0  0  0  0  0  0  0  0  0  0  0
    0.1634    3.4385    6.8389 H   0  0  0  0  0  0  0  0  0  0  0  0
   -1.1418    5.0159    8.2605 H   0  0  0  0  0  0  0  0  0  0  0  0
   -3.8129    5.6604    4.9737 H   0  0  0  0  0  0  0  0  0  0  0  0
  1  3  1  0  0  0  0
  1  4  1  0  0  0  0
  1 22  2  0  0  0  0
  2  7  1  0  0  0  0
  2 23  1  0  0  0  0
  4  2  1  0  0  0  0
  4  5  1  0  0  0  0
  4 24  1  1  0  0  0
  5 11  1  0  0  0  0
  5 25  1  0  0  0  0
  5 26  1  0  0  0  0
  6  9  1  0  0  0  0
  6 10  2  0  0  0  0
  7  6  1  0  0  0  0
  7  8  2  0  0  0  0
 11 12  1  0  0  0  0
 12 13  1  0  0  0  0
 12 27  1  0  0  0  0
 12 28  1  0  0  0  0
 13 14  2  0  0  0  0
 13 18  1  0  0  0  0
 14 15  1  0  0  0  0
 14 29  1  0  0  0  0
 15 16  2  0  0  0  0
 15 30  1  0  0  0  0
 16 17  1  0  0  0  0
 16 31  1  0  0  0  0
 17 18  2  0  0  0  0
 17 19  1  0  0  0  0
 18 32  1  0  0  0  0
 19 20  2  0  0  0  0
 19 21  2  0  0  0  0
M  CHG  2   3  -1   9  -1
M  END
