3tcy_ligand
 OpenBabel08222323353D

 23 23  0  0  1  0  0  0  0  0999 V2000
    5.0730   -7.9540  -16.9720 N   0  3  0  0  0  0  0  0  0  0  0  0
    6.2070   -7.6850  -16.0830 C   0  0  2  0  0  0  0  0  0  0  0  0
    7.4870   -8.2940  -16.5950 C   0  0  0  0  0  0  0  0  0  0  0  0
    7.5980   -8.5970  -17.7850 O   0  5  0  0  0  0  0  0  0  0  0  0
    5.9630   -8.2370  -14.6730 C   0  0  0  0  0  0  0  0  0  0  0  0
    5.0310   -7.3600  -13.8790 C   0  0  0  0  0  0  0  0  0  0  0  0
    5.5010   -6.1680  -13.3070 C   0  0  0  0  0  0  0  0  0  0  0  0
    3.7100   -7.7690  -13.7040 C   0  0  0  0  0  0  0  0  0  0  0  0
    4.6080   -5.3690  -12.5750 C   0  0  0  0  0  0  0  0  0  0  0  0
    2.8330   -6.9680  -12.9740 C   0  0  0  0  0  0  0  0  0  0  0  0
    3.2870   -5.7720  -12.4230 C   0  0  0  0  0  0  0  0  0  0  0  0
    8.4280   -8.4480  -15.7940 O   0  0  0  0  0  0  0  0  0  0  0  0
    4.2408   -7.5301  -16.5927 H   0  0  0  0  0  0  0  0  0  0  0  0
    4.9368   -8.9496  -17.0510 H   0  0  0  0  0  0  0  0  0  0  0  0
    5.2615   -7.5672  -17.8835 H   0  0  0  0  0  0  0  0  0  0  0  0
    6.3359   -6.5944  -16.0195 H   0  0  0  0  0  0  0  0  0  0  0  0
    6.9259   -8.3019  -14.1451 H   0  0  0  0  0  0  0  0  0  0  0  0
    5.5218   -9.2412  -14.7558 H   0  0  0  0  0  0  0  0  0  0  0  0
    6.5359   -5.8690  -13.4282 H   0  0  0  0  0  0  0  0  0  0  0  0
    3.3669   -8.7037  -14.1327 H   0  0  0  0  0  0  0  0  0  0  0  0
    4.9481   -4.4409  -12.1300 H   0  0  0  0  0  0  0  0  0  0  0  0
    1.8025   -7.2746  -12.8358 H   0  0  0  0  0  0  0  0  0  0  0  0
    2.5989   -5.1457  -11.8668 H   0  0  0  0  0  0  0  0  0  0  0  0
  1  2  1  0  0  0  0
  1 13  1  0  0  0  0
  1 14  1  0  0  0  0
  1 15  1  0  0  0  0
  2  3  1  0  0  0  0
  2  5  1  0  0  0  0
  2 16  1  1  0  0  0
  3  4  1  0  0  0  0
  3 12  2  0  0  0  0
  5  6  1  0  0  0  0
  5 17  1  0  0  0  0
  5 18  1  0  0  0  0
  6  7  2  0  0  0  0
  6  8  1  0  0  0  0
  7  9  1  0  0  0  0
  7 19  1  0  0  0  0
  8 10  2  0  0  0  0
  8 20  1  0  0  0  0
  9 11  2  0  0  0  0
  9 21  1  0  0  0  0
 10 11  1  0  0  0  0
 10 22  1  0  0  0  0
 11 23  1  0  0  0  0
M  CHG  2   1   1   4  -1
M  END
