3tei_ligand
 OpenBabel08222323353D

 44 46  0  0  1  0  0  0  0  0999 V2000
   -2.3020   -2.9870    9.5740 P   0  0  0  0  0  0  0  0  0  0  0  0
   -0.8990   -2.8640    9.0150 O   0  0  0  0  0  1  0  0  0  0  0  0
   -2.4550   -2.1780   10.9140 O   0  0  0  0  0  1  0  0  0  0  0  0
   -2.6850   -4.5270    9.8750 O   0  0  0  0  0  0  0  0  0  0  0  0
   -2.9440   -2.9560    6.9120 P   0  0  2  0  0  0  0  0  0  0  0  0
   -4.4030   -2.9170    6.2540 O   0  0  0  0  0  1  0  0  0  0  0  0
   -2.0420   -4.2560    6.8030 O   0  0  0  0  0  0  0  0  0  0  0  0
   -3.4100   -2.3940    8.5000 N   0  0  0  0  0  0  0  0  0  0  0  0
   -2.7510   -0.2190    6.9770 P   0  0  2  0  0  0  0  0  0  0  0  0
   -4.0980   -0.2000    7.7450 O   0  0  0  0  0  1  0  0  0  0  0  0
   -2.8270    0.7410    5.8380 O   0  0  0  0  0  0  0  0  0  0  0  0
   -2.4290   -1.5940    6.2960 O   0  0  0  0  0  0  0  0  0  0  0  0
   -1.5430    0.2260    7.8840 O   0  0  0  0  0  0  0  0  0  0  0  0
   -0.2850    0.5260    7.2910 C   0  0  0  0  0  0  0  0  0  0  0  0
    0.3670    1.8040    7.5960 C   0  0  1  0  0  0  0  0  0  0  0  0
   -0.4530    2.8530    7.2160 O   0  0  0  0  0  0  0  0  0  0  0  0
    0.5890    1.9180    9.0640 C   0  0  1  0  0  0  0  0  0  0  0  0
    1.8620    2.4190    9.3220 O   0  0  0  0  0  0  0  0  0  0  0  0
   -0.4340    2.7890    9.5410 C   0  0  1  0  0  0  0  0  0  0  0  0
    0.0110    3.5730   10.5860 O   0  0  0  0  0  0  0  0  0  0  0  0
   -0.7490    3.6230    8.3770 C   0  0  2  0  0  0  0  0  0  0  0  0
   -2.1010    4.2230    8.2810 N   0  0  0  0  0  0  0  0  0  0  0  0
   -3.2330    3.5880    7.9170 C   0  0  0  0  0  0  0  0  0  0  0  0
   -4.2390    4.4650    7.9380 N   0  0  0  0  0  0  0  0  0  0  0  0
   -3.7600    5.6790    8.3210 C   0  0  0  0  0  0  0  0  0  0  0  0
   -4.3230    6.9520    8.5170 C   0  0  0  0  0  0  0  0  0  0  0  0
   -5.7300    7.1590    8.3020 N   0  0  0  0  0  0  0  0  0  0  0  0
   -3.5550    7.9790    8.9050 N   0  0  0  0  0  0  0  0  0  0  0  0
   -2.2450    7.7980    9.0970 C   0  0  0  0  0  0  0  0  0  0  0  0
   -1.6600    6.6020    8.9220 N   0  0  0  0  0  0  0  0  0  0  0  0
   -2.3910    5.5300    8.5360 C   0  0  0  0  0  0  0  0  0  0  0  0
   -4.1997   -1.8206    8.7182 H   0  0  0  0  0  0  0  0  0  0  0  0
   -0.4278    0.4910    6.2009 H   0  0  0  0  0  0  0  0  0  0  0  0
    0.4109   -0.2696    7.5954 H   0  0  0  0  0  0  0  0  0  0  0  0
    1.3275    1.8644    7.0634 H   0  0  0  0  0  0  0  0  0  0  0  0
    0.4908    0.9313    9.5403 H   0  0  0  0  0  0  0  0  0  0  0  0
    1.9902    2.4865   10.2609 H   0  0  0  0  0  0  0  0  0  0  0  0
   -1.3147    2.2146    9.8642 H   0  0  0  0  0  0  0  0  0  0  0  0
    0.7435    4.1025   10.2936 H   0  0  0  0  0  0  0  0  0  0  0  0
   -0.0498    4.4716    8.4066 H   0  0  0  0  0  0  0  0  0  0  0  0
   -3.3133    2.5352    7.6503 H   0  0  0  0  0  0  0  0  0  0  0  0
   -6.1411    8.0923    8.4460 H   0  0  0  0  0  0  0  0  0  0  0  0
   -6.3264    6.3739    8.0040 H   0  0  0  0  0  0  0  0  0  0  0  0
   -1.6367    8.6414    9.4030 H   0  0  0  0  0  0  0  0  0  0  0  0
  1  2  1  0  0  0  0
  1  3  1  0  0  0  0
  1  4  2  0  0  0  0
  5  6  1  6  0  0  0
  5  7  2  0  0  0  0
  5  8  1  0  0  0  0
  8  1  1  0  0  0  0
  8 32  1  0  0  0  0
  9 10  1  1  0  0  0
  9 11  2  0  0  0  0
  9 12  1  0  0  0  0
  9 13  1  0  0  0  0
 12  5  1  0  0  0  0
 13 14  1  0  0  0  0
 14 15  1  0  0  0  0
 14 33  1  0  0  0  0
 14 34  1  0  0  0  0
 15 16  1  0  0  0  0
 15 17  1  0  0  0  0
 15 35  1  6  0  0  0
 16 21  1  0  0  0  0
 17 18  1  0  0  0  0
 17 19  1  0  0  0  0
 17 36  1  1  0  0  0
 18 37  1  0  0  0  0
 19 20  1  0  0  0  0
 19 21  1  0  0  0  0
 19 38  1  1  0  0  0
 20 39  1  0  0  0  0
 21 22  1  0  0  0  0
 21 40  1  1  0  0  0
 22 23  1  0  0  0  0
 22 31  1  0  0  0  0
 23 24  2  0  0  0  0
 23 41  1  0  0  0  0
 24 25  1  0  0  0  0
 25 26  2  0  0  0  0
 25 31  1  0  0  0  0
 26 27  1  0  0  0  0
 26 28  1  0  0  0  0
 27 42  1  0  0  0  0
 27 43  1  0  0  0  0
 28 29  2  0  0  0  0
 29 30  1  0  0  0  0
 29 44  1  0  0  0  0
 30 31  2  0  0  0  0
M  END
