3tia_ligand
 OpenBabel08222323353D

 48 48  0  0  1  0  0  0  0  0999 V2000
   45.9820   28.4600   22.1320 C   0  0  2  0  0  0  0  0  0  0  0  0
   45.4350   27.0640   22.3060 C   0  0  0  0  0  0  0  0  0  0  0  0
   45.5370   26.0690   21.1460 C   0  0  1  0  0  0  0  0  0  0  0  0
   46.5390   26.4790   20.0440 C   0  0  2  0  0  0  0  0  0  0  0  0
   46.6910   28.0330   19.8570 C   0  0  1  0  0  0  0  0  0  0  0  0
   46.7590   28.7320   21.0600 O   0  0  0  0  0  0  0  0  0  0  0  0
   45.9250   29.4930   23.2420 C   0  0  0  0  0  0  0  0  0  0  0  0
   45.1980   29.1880   24.2990 O   0  5  0  0  0  0  0  0  0  0  0  0
   46.3090   30.5710   22.9650 O   0  0  0  0  0  0  0  0  0  0  0  0
   47.9320   28.4150   19.0310 C   0  0  1  0  0  0  0  0  0  0  0  0
   47.9020   29.8630   18.6880 C   0  0  1  0  0  0  0  0  0  0  0  0
   49.0970   30.3550   17.9340 C   0  0  0  0  0  0  0  0  0  0  0  0
   49.2700   29.7280   16.7390 O   0  0  0  0  0  0  0  0  0  0  0  0
   49.0290   28.1790   19.7770 O   0  0  0  0  0  0  0  0  0  0  0  0
   49.9620   27.3380   19.3710 C   0  0  0  0  0  0  0  0  0  0  0  0
   46.8070   30.2580   18.1040 O   0  0  0  0  0  0  0  0  0  0  0  0
   45.5420   24.6850   21.5230 N   0  0  0  0  0  0  0  0  0  0  0  0
   44.9480   23.6490   20.7690 C   0  0  0  0  0  3  0  0  0  0  0  0
   45.1460   22.4130   21.1240 N   0  0  0  0  0  0  0  0  0  0  0  0
   44.2680   23.9640   19.7100 N   0  0  0  0  0  0  0  0  0  0  0  0
   47.3260   24.6090   18.6610 C   0  0  0  0  0  0  0  0  0  0  0  0
   46.9880   23.9670   17.3560 C   0  0  0  0  0  0  0  0  0  0  0  0
   48.1420   24.2210   19.3800 O   0  0  0  0  0  0  0  0  0  0  0  0
   46.5570   25.7380   18.8480 N   0  0  0  0  0  0  0  0  0  0  0  0
   45.0612   28.8264   21.6546 H   0  0  0  0  0  0  0  0  0  0  0  0
   44.3669   27.1657   22.5485 H   0  0  0  0  0  0  0  0  0  0  0  0
   45.9639   26.6162   23.1602 H   0  0  0  0  0  0  0  0  0  0  0  0
   44.5647   26.1765   20.6430 H   0  0  0  0  0  0  0  0  0  0  0  0
   47.5010   26.1971   20.4968 H   0  0  0  0  0  0  0  0  0  0  0  0
   45.7993   28.3789   19.3137 H   0  0  0  0  0  0  0  0  0  0  0  0
   47.9640   27.8152   18.1095 H   0  0  0  0  0  0  0  0  0  0  0  0
   47.9273   30.3828   19.6571 H   0  0  0  0  0  0  0  0  0  0  0  0
   49.9928   30.1875   18.5500 H   0  0  0  0  0  0  0  0  0  0  0  0
   48.9751   31.4325   17.7494 H   0  0  0  0  0  0  0  0  0  0  0  0
   48.5057   29.8721   16.1935 H   0  0  0  0  0  0  0  0  0  0  0  0
   50.7649   27.2910   20.1214 H   0  0  0  0  0  0  0  0  0  0  0  0
   50.3758   27.6843   18.4124 H   0  0  0  0  0  0  0  0  0  0  0  0
   49.5228   26.3379   19.2409 H   0  0  0  0  0  0  0  0  0  0  0  0
   46.7798   29.9142   17.2188 H   0  0  0  0  0  0  0  0  0  0  0  0
   46.0108   24.4293   22.4038 H   0  0  0  0  0  0  0  0  0  0  0  0
   44.7191   21.6472   20.5834 H   0  0  0  0  0  0  0  0  0  0  0  0
   45.7297   22.2003   21.9456 H   0  0  0  0  0  0  0  0  0  0  0  0
   44.1322   24.9541   19.4608 H   0  0  0  0  0  0  0  0  0  0  0  0
   43.8639   23.2240   19.1184 H   0  0  0  0  0  0  0  0  0  0  0  0
   46.1792   24.5311   16.8685 H   0  0  0  0  0  0  0  0  0  0  0  0
   46.6594   22.9319   17.5308 H   0  0  0  0  0  0  0  0  0  0  0  0
   47.8763   23.9652   16.7073 H   0  0  0  0  0  0  0  0  0  0  0  0
   45.9802   26.0473   18.0919 H   0  0  0  0  0  0  0  0  0  0  0  0
  1  7  1  0  0  0  0
  1 25  1  6  0  0  0
  2  1  1  0  0  0  0
  2 26  1  0  0  0  0
  2 27  1  0  0  0  0
  3  2  1  0  0  0  0
  3 17  1  0  0  0  0
  3 28  1  6  0  0  0
  4  3  1  0  0  0  0
  4  5  1  0  0  0  0
  4 29  1  1  0  0  0
  5  6  1  0  0  0  0
  5 10  1  0  0  0  0
  5 30  1  6  0  0  0
  6  1  1  0  0  0  0
  7  8  1  0  0  0  0
  7  9  2  0  0  0  0
 10 11  1  0  0  0  0
 10 14  1  0  0  0  0
 10 31  1  6  0  0  0
 11 12  1  0  0  0  0
 11 16  1  0  0  0  0
 11 32  1  1  0  0  0
 12 13  1  0  0  0  0
 12 33  1  0  0  0  0
 12 34  1  0  0  0  0
 13 35  1  0  0  0  0
 14 15  1  0  0  0  0
 15 36  1  0  0  0  0
 15 37  1  0  0  0  0
 15 38  1  0  0  0  0
 16 39  1  0  0  0  0
 17 18  1  0  0  0  0
 17 40  1  0  0  0  0
 18 19  1  0  0  0  0
 18 20  1  0  0  0  0
 19 41  1  0  0  0  0
 19 42  1  0  0  0  0
 20 43  1  0  0  0  0
 20 44  1  0  0  0  0
 21 22  1  0  0  0  0
 21 23  2  0  0  0  0
 21 24  1  0  0  0  0
 22 45  1  0  0  0  0
 22 46  1  0  0  0  0
 22 47  1  0  0  0  0
 24  4  1  0  0  0  0
 24 48  1  0  0  0  0
M  CHG  1   8  -1
M  END
