3tic_ligand
 OpenBabel08222323353D

 45 45  0  0  1  0  0  0  0  0999 V2000
   13.8540  -29.1530   49.8070 C   0  0  0  0  0  0  0  0  0  0  0  0
   13.6200  -30.2020   50.2090 O   0  5  0  0  0  0  0  0  0  0  0  0
   15.0610  -28.7400   49.3930 O   0  0  0  0  0  0  0  0  0  0  0  0
   12.7930  -28.0930   49.9100 C   0  0  1  0  0  0  0  0  0  0  0  0
   13.0170  -26.7640   49.1270 C   0  0  0  0  0  0  0  0  0  0  0  0
   11.8780  -25.7830   49.1020 C   0  0  1  0  0  0  0  0  0  0  0  0
   10.6100  -26.2220   49.7770 C   0  0  1  0  0  0  0  0  0  0  0  0
    9.4490  -25.4420   49.6310 N   0  0  0  0  0  0  0  0  0  0  0  0
    9.1020  -24.2530   50.2530 C   0  0  0  0  0  0  0  0  0  0  0  0
    9.6850  -23.7680   51.1120 O   0  0  0  0  0  0  0  0  0  0  0  0
    7.8780  -23.6110   49.6690 C   0  0  0  0  0  0  0  0  0  0  0  0
   10.3910  -27.6860   50.1150 C   0  0  1  0  0  0  0  0  0  0  0  0
   11.4340  -28.5830   50.0200 O   0  0  0  0  0  0  0  0  0  0  0  0
    9.3310  -28.1210   51.1180 C   0  0  2  0  0  0  0  0  0  0  0  0
    9.7350  -27.8390   52.3520 O   0  0  0  0  0  0  0  0  0  0  0  0
    8.9220  -29.5600   50.9640 C   0  0  2  0  0  0  0  0  0  0  0  0
    8.7140  -29.9360   49.7230 O   0  0  0  0  0  0  0  0  0  0  0  0
    7.8680  -29.9990   51.9340 C   0  0  0  0  0  0  0  0  0  0  0  0
    6.7540  -29.3200   51.8070 O   0  0  0  0  0  0  0  0  0  0  0  0
   12.2010  -24.4090   49.0650 N   0  0  0  0  0  0  0  0  0  0  0  0
   11.5470  -23.4410   48.2690 C   0  0  0  0  0  3  0  0  0  0  0  0
   10.6250  -23.7260   47.3880 N   0  0  0  0  0  0  0  0  0  0  0  0
   11.9530  -22.2250   48.4580 N   0  0  0  0  0  0  0  0  0  0  0  0
   12.9625  -27.7406   50.9381 H   0  0  0  0  0  0  0  0  0  0  0  0
   13.2492  -27.0286   48.0849 H   0  0  0  0  0  0  0  0  0  0  0  0
   13.8821  -26.2557   49.5778 H   0  0  0  0  0  0  0  0  0  0  0  0
   11.5634  -25.9059   48.0551 H   0  0  0  0  0  0  0  0  0  0  0  0
   10.8815  -25.8854   50.7884 H   0  0  0  0  0  0  0  0  0  0  0  0
    8.7749  -25.7973   48.9834 H   0  0  0  0  0  0  0  0  0  0  0  0
    7.6616  -22.6767   50.2077 H   0  0  0  0  0  0  0  0  0  0  0  0
    7.0230  -24.2963   49.7655 H   0  0  0  0  0  0  0  0  0  0  0  0
    8.0521  -23.3893   48.6057 H   0  0  0  0  0  0  0  0  0  0  0  0
    9.8573  -27.9565   49.1920 H   0  0  0  0  0  0  0  0  0  0  0  0
    8.4331  -27.5165   50.9222 H   0  0  0  0  0  0  0  0  0  0  0  0
   10.5459  -28.3002   52.5317 H   0  0  0  0  0  0  0  0  0  0  0  0
    9.8154  -30.1260   51.2663 H   0  0  0  0  0  0  0  0  0  0  0  0
    8.4609  -30.8515   49.7089 H   0  0  0  0  0  0  0  0  0  0  0  0
    8.2502  -29.8614   52.9562 H   0  0  0  0  0  0  0  0  0  0  0  0
    7.6531  -31.0642   51.7631 H   0  0  0  0  0  0  0  0  0  0  0  0
    6.4111  -29.4376   50.9289 H   0  0  0  0  0  0  0  0  0  0  0  0
   12.9737  -24.0867   49.6650 H   0  0  0  0  0  0  0  0  0  0  0  0
   10.1867  -22.9726   46.8392 H   0  0  0  0  0  0  0  0  0  0  0  0
   10.3366  -24.7040   47.2424 H   0  0  0  0  0  0  0  0  0  0  0  0
   12.6814  -22.0284   49.1592 H   0  0  0  0  0  0  0  0  0  0  0  0
   11.5473  -21.4551   47.9070 H   0  0  0  0  0  0  0  0  0  0  0  0
  1  2  1  0  0  0  0
  1  3  2  0  0  0  0
  1  4  1  0  0  0  0
  4  5  1  0  0  0  0
  4 13  1  0  0  0  0
  4 24  1  1  0  0  0
  5  6  1  0  0  0  0
  5 25  1  0  0  0  0
  5 26  1  0  0  0  0
  6  7  1  0  0  0  0
  6 20  1  0  0  0  0
  6 27  1  6  0  0  0
  7  8  1  0  0  0  0
  7 12  1  0  0  0  0
  7 28  1  1  0  0  0
  8  9  1  0  0  0  0
  8 29  1  0  0  0  0
  9 10  2  0  0  0  0
  9 11  1  0  0  0  0
 11 30  1  0  0  0  0
 11 31  1  0  0  0  0
 11 32  1  0  0  0  0
 12 13  1  0  0  0  0
 12 14  1  0  0  0  0
 12 33  1  6  0  0  0
 14 15  1  0  0  0  0
 14 16  1  0  0  0  0
 14 34  1  6  0  0  0
 15 35  1  0  0  0  0
 16 17  1  0  0  0  0
 16 18  1  0  0  0  0
 16 36  1  1  0  0  0
 17 37  1  0  0  0  0
 18 19  1  0  0  0  0
 18 38  1  0  0  0  0
 18 39  1  0  0  0  0
 19 40  1  0  0  0  0
 20 21  1  0  0  0  0
 20 41  1  0  0  0  0
 21 22  1  0  0  0  0
 21 23  1  0  0  0  0
 22 42  1  0  0  0  0
 22 43  1  0  0  0  0
 23 44  1  0  0  0  0
 23 45  1  0  0  0  0
M  CHG  1   2  -1
M  END
