3tiz_ligand
 OpenBabel08222323353D

 35 37  0  0  0  0  0  0  0  0999 V2000
  -90.1190  -10.2350  -84.3970 N   0  0  0  0  0  0  0  0  0  0  0  0
  -89.1210  -10.5340  -83.3710 C   0  0  0  0  0  0  0  0  0  0  0  0
  -88.6360  -11.8450  -83.2180 C   0  0  0  0  0  0  0  0  0  0  0  0
  -87.6730  -12.1390  -82.2230 C   0  0  0  0  0  0  0  0  0  0  0  0
  -87.1990  -11.1400  -81.4000 C   0  0  0  0  0  0  0  0  0  0  0  0
  -87.6850   -9.8340  -81.5470 C   0  0  0  0  0  0  0  0  0  0  0  0
  -88.6550   -9.5360  -82.5440 C   0  0  0  0  0  0  0  0  0  0  0  0
  -91.1510   -9.2220  -84.2110 C   0  0  0  0  0  0  0  0  0  0  0  0
  -92.1190   -8.9200  -85.3990 C   0  0  0  0  0  0  0  0  0  0  0  0
  -92.0300   -9.6690  -86.5900 C   0  0  0  0  0  0  0  0  0  0  0  0
  -92.8840   -9.4130  -87.6640 C   0  0  0  0  0  0  0  0  0  0  0  0
  -93.8680   -8.3930  -87.5520 C   0  0  0  0  0  0  0  0  0  0  0  0
  -93.9740   -7.6180  -86.3390 C   0  0  0  0  0  0  0  0  0  0  0  0
  -93.1240   -7.8700  -85.2750 C   0  0  0  0  0  0  0  0  0  0  0  0
  -93.2350   -7.0970  -84.0800 C   0  0  0  0  0  0  0  0  0  0  0  0
  -94.2140   -6.0710  -83.9710 C   0  0  0  0  0  0  0  0  0  0  0  0
  -95.0830   -5.8230  -85.0550 C   0  0  0  0  0  0  0  0  0  0  0  0
  -94.9750   -6.5710  -86.2230 C   0  0  0  0  0  0  0  0  0  0  0  0
  -86.2690  -11.4330  -80.4370 O   0  0  0  0  0  0  0  0  0  0  0  0
  -91.0750  -10.6610  -86.7050 O   0  0  0  0  0  0  0  0  0  0  0  0
  -90.0920  -10.7590  -85.2833 H   0  0  0  0  0  0  0  0  0  0  0  0
  -89.0013  -12.6342  -83.8651 H   0  0  0  0  0  0  0  0  0  0  0  0
  -87.3072  -13.1529  -82.1079 H   0  0  0  0  0  0  0  0  0  0  0  0
  -87.3199   -9.0466  -80.8976 H   0  0  0  0  0  0  0  0  0  0  0  0
  -89.0273   -8.5238  -82.6528 H   0  0  0  0  0  0  0  0  0  0  0  0
  -90.6408   -8.2804  -83.9600 H   0  0  0  0  0  0  0  0  0  0  0  0
  -91.7705   -9.5415  -83.3601 H   0  0  0  0  0  0  0  0  0  0  0  0
  -92.7974   -9.9887  -88.5784 H   0  0  0  0  0  0  0  0  0  0  0  0
  -94.5402   -8.1969  -88.3795 H   0  0  0  0  0  0  0  0  0  0  0  0
  -92.5676   -7.2936  -83.2487 H   0  0  0  0  0  0  0  0  0  0  0  0
  -94.2920   -5.4844  -83.0628 H   0  0  0  0  0  0  0  0  0  0  0  0
  -95.8366   -5.0477  -84.9773 H   0  0  0  0  0  0  0  0  0  0  0  0
  -95.6428   -6.3712  -87.0531 H   0  0  0  0  0  0  0  0  0  0  0  0
  -85.4858  -10.9166  -80.5871 H   0  0  0  0  0  0  0  0  0  0  0  0
  -90.5764  -10.7141  -85.8981 H   0  0  0  0  0  0  0  0  0  0  0  0
  1  2  1  0  0  0  0
  1  8  1  0  0  0  0
  1 21  1  0  0  0  0
  2  3  2  0  0  0  0
  2  7  1  0  0  0  0
  3  4  1  0  0  0  0
  3 22  1  0  0  0  0
  4  5  2  0  0  0  0
  4 23  1  0  0  0  0
  5  6  1  0  0  0  0
  5 19  1  0  0  0  0
  6  7  2  0  0  0  0
  6 24  1  0  0  0  0
  7 25  1  0  0  0  0
  8  9  1  0  0  0  0
  8 26  1  0  0  0  0
  8 27  1  0  0  0  0
  9 10  2  0  0  0  0
  9 14  1  0  0  0  0
 10 11  1  0  0  0  0
 10 20  1  0  0  0  0
 11 12  2  0  0  0  0
 11 28  1  0  0  0  0
 12 13  1  0  0  0  0
 12 29  1  0  0  0  0
 13 14  2  0  0  0  0
 13 18  1  0  0  0  0
 14 15  1  0  0  0  0
 15 16  2  0  0  0  0
 15 30  1  0  0  0  0
 16 17  1  0  0  0  0
 16 31  1  0  0  0  0
 17 18  2  0  0  0  0
 17 32  1  0  0  0  0
 18 33  1  0  0  0  0
 19 34  1  0  0  0  0
 20 35  1  0  0  0  0
M  END
