3tki_ligand
 OpenBabel08222323353D

 54 57  0  0  0  0  0  0  0  0999 V2000
   23.5040   -2.7800    8.0990 C   0  0  0  0  0  0  0  0  0  0  0  0
   22.5550   -1.6670    8.0230 N   0  0  0  0  0  0  0  0  0  0  0  0
   23.7560   -2.5540    5.7210 O   0  0  0  0  0  0  0  0  0  0  0  0
   15.9950   -1.5420   10.1210 S   0  0  0  0  0  0  0  0  0  0  0  0
   23.5330   -3.5060    6.7670 C   0  0  0  0  0  0  0  0  0  0  0  0
   22.6500   -1.6520    5.6010 C   0  0  0  0  0  0  0  0  0  0  0  0
   22.5820   -0.7910    6.8510 C   0  0  0  0  0  0  0  0  0  0  0  0
   13.3620   -1.1200   10.9120 C   0  0  0  0  0  0  0  0  0  0  0  0
   13.3150   -2.3430   11.5720 C   0  0  0  0  0  0  0  0  0  0  0  0
   12.2170   -2.5940   12.3860 C   0  0  0  0  0  0  0  0  0  0  0  0
   11.2350   -1.6320   12.4890 C   0  0  0  0  0  0  0  0  0  0  0  0
   11.2400   -0.4490   11.8520 N   0  0  0  0  0  0  0  0  0  0  0  0
   12.3260   -0.2260   11.1010 C   0  0  0  0  0  0  0  0  0  0  0  0
   16.7370   -0.2540    9.2330 C   0  0  0  0  0  0  0  0  0  0  0  0
   14.5080   -0.6780   10.1340 C   0  0  0  0  0  0  0  0  0  0  0  0
   14.6770    0.5110    9.4520 C   0  0  0  0  0  0  0  0  0  0  0  0
   15.9260    0.7410    8.9430 N   0  0  0  0  0  0  0  0  0  0  0  0
   21.0320   -3.0120    9.3910 C   0  0  0  0  0  0  0  0  0  0  0  0
   19.7940   -3.1500    9.9780 C   0  0  0  0  0  0  0  0  0  0  0  0
   18.7930   -2.2740    9.8470 N   0  0  0  0  0  0  0  0  0  0  0  0
   19.0090   -1.2020    9.0760 C   0  0  0  0  0  0  0  0  0  0  0  0
   20.2350   -0.9920    8.4730 C   0  0  0  0  0  0  0  0  0  0  0  0
   21.2750   -1.8990    8.6070 C   0  0  0  0  0  0  0  0  0  0  0  0
   18.0420   -0.2130    8.8430 N   0  0  0  0  0  0  0  0  0  0  0  0
   12.0230   -3.8400   13.1550 C   0  0  0  0  0  0  0  0  0  0  0  0
   10.9660   -3.9920   13.7680 O   0  0  0  0  0  0  0  0  0  0  0  0
   13.0790   -4.7220   13.1570 N   0  0  0  0  0  0  0  0  0  0  0  0
   13.0040   -5.9670   13.8920 C   0  0  0  0  0  0  0  0  0  0  0  0
   14.1020   -6.0830   14.9330 C   0  0  0  0  0  0  0  0  0  0  0  0
   14.1750   -4.8330   15.7470 N   0  3  0  0  0  0  0  0  0  0  0  0
   23.1907   -3.4767    8.8904 H   0  0  0  0  0  0  0  0  0  0  0  0
   24.5076   -2.3922    8.3280 H   0  0  0  0  0  0  0  0  0  0  0  0
   22.5716   -4.0148    6.6035 H   0  0  0  0  0  0  0  0  0  0  0  0
   24.3449   -4.2481    6.7692 H   0  0  0  0  0  0  0  0  0  0  0  0
   21.7164   -2.2239    5.4949 H   0  0  0  0  0  0  0  0  0  0  0  0
   22.7898   -1.0111    4.7180 H   0  0  0  0  0  0  0  0  0  0  0  0
   23.4649   -0.1366    6.8982 H   0  0  0  0  0  0  0  0  0  0  0  0
   21.6704   -0.1758    6.8276 H   0  0  0  0  0  0  0  0  0  0  0  0
   14.1065   -3.0745   11.4557 H   0  0  0  0  0  0  0  0  0  0  0  0
   10.3917   -1.8471   13.1353 H   0  0  0  0  0  0  0  0  0  0  0  0
   12.3980    0.7332   10.6012 H   0  0  0  0  0  0  0  0  0  0  0  0
   13.8635    1.2240    9.3267 H   0  0  0  0  0  0  0  0  0  0  0  0
   21.8011   -3.7612    9.5405 H   0  0  0  0  0  0  0  0  0  0  0  0
   19.6194   -4.0290   10.5879 H   0  0  0  0  0  0  0  0  0  0  0  0
   20.3869   -0.0966    7.8811 H   0  0  0  0  0  0  0  0  0  0  0  0
   18.3477    0.6247    8.3276 H   0  0  0  0  0  0  0  0  0  0  0  0
   13.9085   -4.5003   12.6444 H   0  0  0  0  0  0  0  0  0  0  0  0
   13.0974   -6.8032   13.1835 H   0  0  0  0  0  0  0  0  0  0  0  0
   12.0287   -6.0220   14.3977 H   0  0  0  0  0  0  0  0  0  0  0  0
   15.0658   -6.2446   14.4281 H   0  0  0  0  0  0  0  0  0  0  0  0
   13.8871   -6.9352   15.5944 H   0  0  0  0  0  0  0  0  0  0  0  0
   14.9070   -4.9219   16.4342 H   0  0  0  0  0  0  0  0  0  0  0  0
   13.2936   -4.6832   16.2125 H   0  0  0  0  0  0  0  0  0  0  0  0
   14.3737   -4.0503   15.1437 H   0  0  0  0  0  0  0  0  0  0  0  0
  1  5  1  0  0  0  0
  1 31  1  0  0  0  0
  1 32  1  0  0  0  0
  2  1  1  0  0  0  0
  2  7  1  0  0  0  0
  4 15  1  0  0  0  0
  5  3  1  0  0  0  0
  5 33  1  0  0  0  0
  5 34  1  0  0  0  0
  6  3  1  0  0  0  0
  6 35  1  0  0  0  0
  6 36  1  0  0  0  0
  7  6  1  0  0  0  0
  7 37  1  0  0  0  0
  7 38  1  0  0  0  0
  8  9  2  0  0  0  0
  8 13  1  0  0  0  0
  9 10  1  0  0  0  0
  9 39  1  0  0  0  0
 10 11  2  0  0  0  0
 10 25  1  0  0  0  0
 11 40  1  0  0  0  0
 12 11  1  0  0  0  0
 13 12  2  0  0  0  0
 13 41  1  0  0  0  0
 14  4  1  0  0  0  0
 14 17  2  0  0  0  0
 15  8  1  0  0  0  0
 16 15  2  0  0  0  0
 16 42  1  0  0  0  0
 17 16  1  0  0  0  0
 18 23  1  0  0  0  0
 18 43  1  0  0  0  0
 19 18  2  0  0  0  0
 19 44  1  0  0  0  0
 20 19  1  0  0  0  0
 21 20  2  0  0  0  0
 21 22  1  0  0  0  0
 21 24  1  0  0  0  0
 22 23  2  0  0  0  0
 22 45  1  0  0  0  0
 23  2  1  0  0  0  0
 24 14  1  0  0  0  0
 24 46  1  0  0  0  0
 25 26  2  0  0  0  0
 25 27  1  0  0  0  0
 27 28  1  0  0  0  0
 27 47  1  0  0  0  0
 28 29  1  0  0  0  0
 28 48  1  0  0  0  0
 28 49  1  0  0  0  0
 29 30  1  0  0  0  0
 29 50  1  0  0  0  0
 29 51  1  0  0  0  0
 30 52  1  0  0  0  0
 30 53  1  0  0  0  0
 30 54  1  0  0  0  0
M  CHG  1  30   1
M  END
