3tn8_ligand
 OpenBabel08222323353D

 26 27  0  0  0  0  0  0  0  0999 V2000
   47.4620  -14.9800  -13.2600 C   0  0  0  0  0  0  0  0  0  0  0  0
   47.9050  -13.6720  -13.0960 C   0  0  0  0  0  0  0  0  0  0  0  0
   49.2430  -13.3680  -13.2230 C   0  0  0  0  0  0  0  0  0  0  0  0
   46.1400  -15.2670  -13.1260 O   0  0  0  0  0  0  0  0  0  0  0  0
   50.1510  -14.3890  -13.5140 C   0  0  0  0  0  0  0  0  0  0  0  0
   49.7020  -15.7030  -13.6730 C   0  0  0  0  0  0  0  0  0  0  0  0
   48.3630  -15.9950  -13.5480 C   0  0  0  0  0  0  0  0  0  0  0  0
   51.4830  -14.1110  -13.6370 N   0  0  0  0  0  0  0  0  0  0  0  0
   52.3450  -15.0700  -13.5740 N   0  0  0  0  0  0  0  0  0  0  0  0
   53.6620  -14.8120  -13.7830 C   0  0  0  0  0  0  0  0  0  0  0  0
   54.6660  -15.7650  -13.9190 C   0  0  0  0  0  0  0  0  0  0  0  0
   54.5010  -17.1370  -13.8550 N   0  0  0  0  0  0  0  0  0  0  0  0
   55.8250  -15.1030  -14.1190 N   0  0  0  0  0  0  0  0  0  0  0  0
   55.5620  -13.7280  -14.1090 N   0  0  0  0  0  0  0  0  0  0  0  0
   54.2840  -13.5380  -13.9100 C   0  0  0  0  0  0  0  0  0  0  0  0
   53.6600  -12.2940  -13.8350 N   0  0  0  0  0  0  0  0  0  0  0  0
   47.1896  -12.8826  -12.8656 H   0  0  0  0  0  0  0  0  0  0  0  0
   49.5892  -12.3420  -13.0978 H   0  0  0  0  0  0  0  0  0  0  0  0
   45.6378  -14.7664  -13.7732 H   0  0  0  0  0  0  0  0  0  0  0  0
   50.4136  -16.4978  -13.8964 H   0  0  0  0  0  0  0  0  0  0  0  0
   48.0119  -17.0191  -13.6747 H   0  0  0  0  0  0  0  0  0  0  0  0
   53.5745  -17.5323  -13.6948 H   0  0  0  0  0  0  0  0  0  0  0  0
   55.3059  -17.7533  -13.9680 H   0  0  0  0  0  0  0  0  0  0  0  0
   56.7400  -15.5328  -14.2548 H   0  0  0  0  0  0  0  0  0  0  0  0
   54.2093  -11.4408  -13.9385 H   0  0  0  0  0  0  0  0  0  0  0  0
   52.6540  -12.2368  -13.6766 H   0  0  0  0  0  0  0  0  0  0  0  0
  1  2  2  0  0  0  0
  1  4  1  0  0  0  0
  1  7  1  0  0  0  0
  2  3  1  0  0  0  0
  2 17  1  0  0  0  0
  3  5  2  0  0  0  0
  3 18  1  0  0  0  0
  4 19  1  0  0  0  0
  5  6  1  0  0  0  0
  5  8  1  0  0  0  0
  6  7  2  0  0  0  0
  6 20  1  0  0  0  0
  7 21  1  0  0  0  0
  8  9  2  0  0  0  0
  9 10  1  0  0  0  0
 10 11  2  0  0  0  0
 10 15  1  0  0  0  0
 11 12  1  0  0  0  0
 11 13  1  0  0  0  0
 12 22  1  0  0  0  0
 12 23  1  0  0  0  0
 13 14  1  0  0  0  0
 13 24  1  0  0  0  0
 14 15  2  0  0  0  0
 15 16  1  0  0  0  0
 16 25  1  0  0  0  0
 16 26  1  0  0  0  0
M  END
