3ttn_ligand
 OpenBabel08222323353D

 32 31  0  0  0  0  0  0  0  0999 V2000
   26.0240   27.2880   31.8790 N   0  3  0  0  0  0  0  0  0  0  0  0
   25.6740   28.6610   32.2050 C   0  0  0  0  0  0  0  0  0  0  0  0
   24.2020   28.7490   32.5890 C   0  0  0  0  0  0  0  0  0  0  0  0
   23.9270   30.0630   33.3210 C   0  0  0  0  0  0  0  0  0  0  0  0
   22.4580   30.3970   33.1780 C   0  0  0  0  0  0  0  0  0  0  0  0
   21.6720   30.0550   34.3210 N   0  3  0  0  0  0  0  0  0  0  0  0
   20.4990   30.8570   34.6400 C   0  0  0  0  0  0  0  0  0  0  0  0
   19.2470   29.9820   34.6890 C   0  0  0  0  0  0  0  0  0  0  0  0
   18.0790   30.6230   35.4490 C   0  0  0  0  0  0  0  0  0  0  0  0
   16.8560   30.0850   34.8730 N   0  3  0  0  0  0  0  0  0  0  0  0
   26.9987   27.2406   31.6266 H   0  0  0  0  0  0  0  0  0  0  0  0
   25.4608   26.9724   31.1049 H   0  0  0  0  0  0  0  0  0  0  0  0
   25.8552   26.6991   32.6795 H   0  0  0  0  0  0  0  0  0  0  0  0
   25.8607   29.3016   31.3305 H   0  0  0  0  0  0  0  0  0  0  0  0
   26.2912   29.0033   33.0488 H   0  0  0  0  0  0  0  0  0  0  0  0
   23.9468   27.9056   33.2474 H   0  0  0  0  0  0  0  0  0  0  0  0
   23.5854   28.7036   31.6792 H   0  0  0  0  0  0  0  0  0  0  0  0
   24.5344   30.8671   32.8800 H   0  0  0  0  0  0  0  0  0  0  0  0
   24.1803   29.9540   34.3859 H   0  0  0  0  0  0  0  0  0  0  0  0
   22.0617   29.8508   32.3093 H   0  0  0  0  0  0  0  0  0  0  0  0
   22.3643   31.4792   33.0046 H   0  0  0  0  0  0  0  0  0  0  0  0
   22.2830   30.0948   35.1217 H   0  0  0  0  0  0  0  0  0  0  0  0
   21.3541   29.1078   34.1876 H   0  0  0  0  0  0  0  0  0  0  0  0
   20.3694   31.6308   33.8690 H   0  0  0  0  0  0  0  0  0  0  0  0
   20.6439   31.3360   35.6196 H   0  0  0  0  0  0  0  0  0  0  0  0
   19.5047   29.0336   35.1832 H   0  0  0  0  0  0  0  0  0  0  0  0
   18.9223   29.7815   33.6573 H   0  0  0  0  0  0  0  0  0  0  0  0
   18.1044   31.7162   35.3300 H   0  0  0  0  0  0  0  0  0  0  0  0
   18.1378   30.3689   36.5176 H   0  0  0  0  0  0  0  0  0  0  0  0
   16.0591   30.4819   35.3457 H   0  0  0  0  0  0  0  0  0  0  0  0
   16.8461   29.0829   34.9813 H   0  0  0  0  0  0  0  0  0  0  0  0
   16.8155   30.3175   33.8930 H   0  0  0  0  0  0  0  0  0  0  0  0
  1  2  1  0  0  0  0
  1 11  1  0  0  0  0
  1 12  1  0  0  0  0
  1 13  1  0  0  0  0
  2  3  1  0  0  0  0
  2 14  1  0  0  0  0
  2 15  1  0  0  0  0
  3  4  1  0  0  0  0
  3 16  1  0  0  0  0
  3 17  1  0  0  0  0
  4  5  1  0  0  0  0
  4 18  1  0  0  0  0
  4 19  1  0  0  0  0
  5  6  1  0  0  0  0
  5 20  1  0  0  0  0
  5 21  1  0  0  0  0
  6  7  1  0  0  0  0
  6 22  1  0  0  0  0
  6 23  1  0  0  0  0
  7  8  1  0  0  0  0
  7 24  1  0  0  0  0
  7 25  1  0  0  0  0
  8  9  1  0  0  0  0
  8 26  1  0  0  0  0
  8 27  1  0  0  0  0
  9 10  1  0  0  0  0
  9 28  1  0  0  0  0
  9 29  1  0  0  0  0
 10 30  1  0  0  0  0
 10 31  1  0  0  0  0
 10 32  1  0  0  0  0
M  CHG  3   1   1   6   1  10   1
M  END
