3twj_ligand
 OpenBabel08222323353D

 37 39  0  0  0  0  0  0  0  0999 V2000
   18.1410   33.9910   17.4340 O   0  0  0  0  0  0  0  0  0  0  0  0
   17.0810   34.6940   17.1920 C   0  0  0  0  0  0  0  0  0  0  0  0
   16.7840   35.2250   15.8200 N   0  0  0  0  0  0  0  0  0  0  0  0
   15.7660   34.5490   14.9280 C   0  0  0  0  0  0  0  0  0  0  0  0
   16.4980   33.8560   13.7670 C   0  0  0  0  0  0  0  0  0  0  0  0
   17.5530   34.6580   13.0850 C   0  0  0  0  0  0  0  0  0  0  0  0
   18.2700   34.0950   12.0560 C   0  0  0  0  0  0  0  0  0  0  0  0
   19.2520   34.8570   11.3830 O   0  0  0  0  0  0  0  0  0  0  0  0
   17.9950   32.7690   11.6720 C   0  0  0  0  0  0  0  0  0  0  0  0
   16.9630   31.9720   12.3300 C   0  0  0  0  0  0  0  0  0  0  0  0
   16.2180   32.5300   13.3890 C   0  0  0  0  0  0  0  0  0  0  0  0
   16.1300   34.9920   18.2600 N   0  0  0  0  0  0  0  0  0  0  0  0
   16.3900   34.1760   19.4700 C   0  0  0  0  0  0  0  0  0  0  0  0
   15.5060   33.2670   20.1570 N   0  0  0  0  0  0  0  0  0  0  0  0
   16.1340   32.5800   21.3290 C   0  0  0  0  0  0  0  0  0  0  0  0
   15.3800   31.5700   22.1710 C   0  0  0  0  0  0  0  0  0  0  0  0
   14.0660   31.1100   21.6840 C   0  0  0  0  0  0  0  0  0  0  0  0
   13.2520   30.1420   22.4060 C   0  0  0  0  0  0  0  0  0  0  0  0
   13.7090   29.6190   23.5810 N   0  0  0  0  0  0  0  0  0  0  0  0
   14.9640   30.0280   24.0520 C   0  0  0  0  0  0  0  0  0  0  0  0
   15.8490   30.9900   23.3790 C   0  0  0  0  0  0  0  0  0  0  0  0
   17.5050   33.0770   21.4160 C   0  0  0  0  0  0  0  0  0  0  0  0
   17.8690   34.1450   20.1850 S   0  0  0  0  0  0  0  0  0  0  0  0
   17.2658   36.0371   15.4908 H   0  0  0  0  0  0  0  0  0  0  0  0
   15.0693   35.3006   14.5282 H   0  0  0  0  0  0  0  0  0  0  0  0
   15.2055   33.8017   15.5088 H   0  0  0  0  0  0  0  0  0  0  0  0
   17.7532   35.6764   13.3977 H   0  0  0  0  0  0  0  0  0  0  0  0
   19.6527   34.3266   10.7043 H   0  0  0  0  0  0  0  0  0  0  0  0
   18.5661   32.3262   10.8640 H   0  0  0  0  0  0  0  0  0  0  0  0
   16.7707   30.9557   12.0055 H   0  0  0  0  0  0  0  0  0  0  0  0
   15.4524   31.9546   13.8968 H   0  0  0  0  0  0  0  0  0  0  0  0
   15.3936   35.6643   18.1842 H   0  0  0  0  0  0  0  0  0  0  0  0
   13.6902   31.5094   20.7490 H   0  0  0  0  0  0  0  0  0  0  0  0
   12.2886   29.8386   22.0125 H   0  0  0  0  0  0  0  0  0  0  0  0
   15.3096   29.6012   24.9866 H   0  0  0  0  0  0  0  0  0  0  0  0
   16.8196   31.2459   23.7883 H   0  0  0  0  0  0  0  0  0  0  0  0
   18.2086   32.7846   22.1941 H   0  0  0  0  0  0  0  0  0  0  0  0
  1  2  2  0  0  0  0
  2  3  1  0  0  0  0
  2 12  1  0  0  0  0
  3  4  1  0  0  0  0
  3 24  1  0  0  0  0
  4  5  1  0  0  0  0
  4 25  1  0  0  0  0
  4 26  1  0  0  0  0
  5  6  2  0  0  0  0
  5 11  1  0  0  0  0
  6  7  1  0  0  0  0
  6 27  1  0  0  0  0
  7  8  1  0  0  0  0
  7  9  2  0  0  0  0
  8 28  1  0  0  0  0
  9 10  1  0  0  0  0
  9 29  1  0  0  0  0
 10 11  2  0  0  0  0
 10 30  1  0  0  0  0
 11 31  1  0  0  0  0
 12 13  1  0  0  0  0
 12 32  1  0  0  0  0
 13 14  2  0  0  0  0
 13 23  1  0  0  0  0
 14 15  1  0  0  0  0
 15 16  1  0  0  0  0
 15 22  2  0  0  0  0
 16 17  2  0  0  0  0
 16 21  1  0  0  0  0
 17 18  1  0  0  0  0
 17 33  1  0  0  0  0
 18 19  2  0  0  0  0
 18 34  1  0  0  0  0
 19 20  1  0  0  0  0
 20 21  2  0  0  0  0
 20 35  1  0  0  0  0
 21 36  1  0  0  0  0
 22 23  1  0  0  0  0
 22 37  1  0  0  0  0
M  END
