3tyq_ligand
 OpenBabel08222323353D

 49 52  0  0  0  0  0  0  0  0999 V2000
   26.9250   43.0110   42.9140 C   0  0  0  0  0  0  0  0  0  0  0  0
   25.1150   43.1700   44.6140 N   0  0  0  0  0  0  0  0  0  0  0  0
   24.0600   46.1750   42.9430 O   0  5  0  0  0  0  0  0  0  0  0  0
   26.7260   44.0590   41.9870 C   0  0  0  0  0  0  0  0  0  0  0  0
   21.0940   47.2500   45.4970 N   0  0  0  0  0  0  0  0  0  0  0  0
   21.4810   45.3170   44.3130 O   0  0  0  0  0  0  0  0  0  0  0  0
   27.8410   44.6940   41.3950 C   0  0  0  0  0  0  0  0  0  0  0  0
   27.6490   45.7790   40.4410 N   0  0  0  0  0  0  0  0  0  0  0  0
   23.7670   44.0790   42.1630 O   0  0  0  0  0  0  0  0  0  0  0  0
   29.1470   44.2970   41.7020 C   0  0  0  0  0  0  0  0  0  0  0  0
   28.6360   46.4920   40.1830 O   0  0  0  0  0  0  0  0  0  0  0  0
   29.3440   43.2630   42.6210 C   0  0  0  0  0  0  0  0  0  0  0  0
   26.5290   45.8980   39.9120 O   0  0  0  0  0  0  0  0  0  0  0  0
   28.2460   42.6390   43.2230 C   0  0  0  0  0  0  0  0  0  0  0  0
   23.1530   45.9410   45.9300 C   0  0  0  0  0  0  0  0  0  0  0  0
   24.4370   43.8550   48.0520 C   0  0  0  0  0  0  0  0  0  0  0  0
   25.0650   42.8140   48.7580 C   0  0  0  0  0  0  0  0  0  0  0  0
   24.4980   43.8980   46.6410 C   0  0  0  0  0  0  0  0  0  0  0  0
   25.2020   42.8920   45.9610 C   0  0  0  0  0  0  0  0  0  0  0  0
   24.3800   44.3280   44.3990 C   0  0  0  0  0  0  0  0  0  0  0  0
   23.9730   44.7820   45.6580 C   0  0  0  0  0  0  0  0  0  0  0  0
   25.7540   41.8200   48.0550 C   0  0  0  0  0  0  0  0  0  0  0  0
   25.8360   41.8450   46.6510 C   0  0  0  0  0  0  0  0  0  0  0  0
   24.0830   44.9700   43.1320 C   0  0  0  0  0  0  0  0  0  0  0  0
   25.7460   42.3260   43.5730 C   0  0  0  0  0  0  0  0  0  0  0  0
   21.8470   46.1290   45.1750 C   0  0  0  0  0  0  0  0  0  0  0  0
   21.4760   48.1670   46.4540 C   0  0  0  0  0  0  0  0  0  0  0  0
   22.6190   47.9980   47.1370 C   0  0  0  0  0  0  0  0  0  0  0  0
   23.4710   46.8560   46.8660 C   0  0  0  0  0  0  0  0  0  0  0  0
   24.9970   42.7670   50.2720 C   0  0  0  0  0  0  0  0  0  0  0  0
   23.9360   41.7910   50.7480 C   0  0  0  0  0  0  0  0  0  0  0  0
   25.7211   44.3748   41.7309 H   0  0  0  0  0  0  0  0  0  0  0  0
   20.2327   47.4000   45.0115 H   0  0  0  0  0  0  0  0  0  0  0  0
   29.9942   44.7847   41.2335 H   0  0  0  0  0  0  0  0  0  0  0  0
   30.3500   42.9436   42.8681 H   0  0  0  0  0  0  0  0  0  0  0  0
   28.4175   41.8493   43.9455 H   0  0  0  0  0  0  0  0  0  0  0  0
   23.9035   44.6283   48.5927 H   0  0  0  0  0  0  0  0  0  0  0  0
   26.2333   41.0162   48.6020 H   0  0  0  0  0  0  0  0  0  0  0  0
   26.3761   41.0740   46.1135 H   0  0  0  0  0  0  0  0  0  0  0  0
   26.0943   41.3920   44.0382 H   0  0  0  0  0  0  0  0  0  0  0  0
   24.9956   42.0944   42.8027 H   0  0  0  0  0  0  0  0  0  0  0  0
   20.8469   49.0326   46.6564 H   0  0  0  0  0  0  0  0  0  0  0  0
   22.9079   48.7215   47.8979 H   0  0  0  0  0  0  0  0  0  0  0  0
   24.3921   46.7351   47.4342 H   0  0  0  0  0  0  0  0  0  0  0  0
   24.7556   43.7711   50.6509 H   0  0  0  0  0  0  0  0  0  0  0  0
   25.9751   42.4522   50.6648 H   0  0  0  0  0  0  0  0  0  0  0  0
   23.9134   41.7816   51.8477 H   0  0  0  0  0  0  0  0  0  0  0  0
   24.1727   40.7827   50.3776 H   0  0  0  0  0  0  0  0  0  0  0  0
   22.9532   42.1016   50.3637 H   0  0  0  0  0  0  0  0  0  0  0  0
  1  4  2  0  0  0  0
  1 14  1  0  0  0  0
  2 19  1  0  0  0  0
  2 25  1  0  0  0  0
  4  7  1  0  0  0  0
  4 32  1  0  0  0  0
  5 27  1  0  0  0  0
  5 33  1  0  0  0  0
  7  8  1  0  0  0  0
  7 10  2  0  0  0  0
  8 11  2  0  0  0  0
  8 13  2  0  0  0  0
 10 34  1  0  0  0  0
 12 10  1  0  0  0  0
 12 35  1  0  0  0  0
 14 12  2  0  0  0  0
 14 36  1  0  0  0  0
 15 26  1  0  0  0  0
 15 29  2  0  0  0  0
 16 17  2  0  0  0  0
 16 37  1  0  0  0  0
 17 22  1  0  0  0  0
 17 30  1  0  0  0  0
 18 16  1  0  0  0  0
 18 19  2  0  0  0  0
 19 23  1  0  0  0  0
 20  2  1  0  0  0  0
 20 21  2  0  0  0  0
 20 24  1  0  0  0  0
 21 15  1  0  0  0  0
 21 18  1  0  0  0  0
 22 23  2  0  0  0  0
 22 38  1  0  0  0  0
 23 39  1  0  0  0  0
 24  3  1  0  0  0  0
 24  9  2  0  0  0  0
 25  1  1  0  0  0  0
 25 40  1  0  0  0  0
 25 41  1  0  0  0  0
 26  5  1  0  0  0  0
 26  6  2  0  0  0  0
 27 28  2  0  0  0  0
 27 42  1  0  0  0  0
 28 29  1  0  0  0  0
 28 43  1  0  0  0  0
 29 44  1  0  0  0  0
 30 31  1  0  0  0  0
 30 45  1  0  0  0  0
 30 46  1  0  0  0  0
 31 47  1  0  0  0  0
 31 48  1  0  0  0  0
 31 49  1  0  0  0  0
M  CHG  1   3  -1
M  END
