3tyv_ligand
 OpenBabel08222323353D

 56 60  0  0  1  0  0  0  0  0999 V2000
   29.6190   45.0430   42.6510 C   0  0  0  0  0  0  0  0  0  0  0  0
   29.2330   46.3300   44.6090 F   0  0  0  0  0  0  0  0  0  0  0  0
   25.1840   43.5020   44.4850 N   0  0  0  0  0  0  0  0  0  0  0  0
   21.5600   45.6500   44.1330 O   0  0  0  0  0  0  0  0  0  0  0  0
   24.2650   45.2990   40.4500 S   0  0  0  0  0  0  0  0  0  0  0  0
   29.1940   44.0230   41.7920 C   0  0  0  0  0  0  0  0  0  0  0  0
   27.5940   42.3560   41.2550 F   0  0  0  0  0  0  0  0  0  0  0  0
   21.0890   47.4830   45.4480 N   0  0  0  0  0  0  0  0  0  0  0  0
   24.3540   46.6540   43.0750 O   0  0  0  0  0  0  0  0  0  0  0  0
   24.3420   43.9590   47.9310 C   0  0  0  0  0  0  0  0  0  0  0  0
   26.2940   40.9330   48.3990 F   0  0  0  0  0  0  0  0  0  0  0  0
   24.0850   44.6680   41.9920 N   0  0  0  0  0  0  0  0  0  0  0  0
   23.8690   44.2510   39.5310 O   0  0  0  0  0  0  0  0  0  0  0  0
   27.6930   44.6440   44.0650 C   0  0  0  0  0  0  0  0  0  0  0  0
   23.6720   46.5930   40.3360 O   0  0  0  0  0  0  0  0  0  0  0  0
   25.8050   42.0410   46.4200 C   0  0  0  0  0  0  0  0  0  0  0  0
   24.4530   44.0760   46.5210 C   0  0  0  0  0  0  0  0  0  0  0  0
   23.9650   45.0180   45.5880 C   0  0  0  0  0  0  0  0  0  0  0  0
   24.9840   42.8910   48.5780 C   0  0  0  0  0  0  0  0  0  0  0  0
   27.2460   43.6000   43.2150 C   0  0  0  0  0  0  0  0  0  0  0  0
   25.1900   43.1230   45.8030 C   0  0  0  0  0  0  0  0  0  0  0  0
   28.8650   45.3460   43.7740 C   0  0  0  0  0  0  0  0  0  0  0  0
   28.0140   43.3160   42.0780 C   0  0  0  0  0  0  0  0  0  0  0  0
   25.6770   41.9510   47.8070 C   0  0  0  0  0  0  0  0  0  0  0  0
   24.4630   44.6690   44.3290 C   0  0  0  0  0  0  0  0  0  0  0  0
   22.5050   48.1260   47.2370 C   0  0  0  0  0  0  0  0  0  0  0  0
   23.3870   47.0160   46.9370 C   0  0  0  0  0  0  0  0  0  0  0  0
   21.3990   48.3320   46.4930 C   0  0  0  0  0  0  0  0  0  0  0  0
   23.1320   46.1590   45.9050 C   0  0  2  0  0  0  0  0  0  0  0  0
   21.8670   46.3970   45.0920 C   0  0  0  0  0  0  0  0  0  0  0  0
   24.3030   45.4280   43.1210 C   0  0  0  0  0  0  0  0  0  0  0  0
   26.6340   46.7300   40.5350 C   0  0  0  0  0  0  0  0  0  0  0  0
   26.4440   46.3480   39.0890 C   0  0  0  0  0  0  0  0  0  0  0  0
   26.0540   45.4010   40.1820 C   0  0  0  0  0  0  0  0  0  0  0  0
   24.9070   42.7410   50.0810 C   0  0  0  0  0  0  0  0  0  0  0  0
   25.9820   42.8120   43.4670 C   0  0  0  0  0  0  0  0  0  0  0  0
   30.5300   45.5913   42.4399 H   0  0  0  0  0  0  0  0  0  0  0  0
   29.7734   43.7793   40.9089 H   0  0  0  0  0  0  0  0  0  0  0  0
   23.7702   44.6832   48.4999 H   0  0  0  0  0  0  0  0  0  0  0  0
   23.8113   43.7118   42.0961 H   0  0  0  0  0  0  0  0  0  0  0  0
   27.1196   44.8994   44.9488 H   0  0  0  0  0  0  0  0  0  0  0  0
   26.3579   41.3019   45.8515 H   0  0  0  0  0  0  0  0  0  0  0  0
   22.7356   48.7951   48.0647 H   0  0  0  0  0  0  0  0  0  0  0  0
   24.2743   46.8617   47.5492 H   0  0  0  0  0  0  0  0  0  0  0  0
   20.7455   49.1737   46.7176 H   0  0  0  0  0  0  0  0  0  0  0  0
   23.7236   46.7870   45.2227 H   0  0  0  0  0  0  0  0  0  0  0  0
   25.9981   47.5052   40.9875 H   0  0  0  0  0  0  0  0  0  0  0  0
   27.6471   46.7932   40.9589 H   0  0  0  0  0  0  0  0  0  0  0  0
   27.3176   46.1305   38.4569 H   0  0  0  0  0  0  0  0  0  0  0  0
   25.6687   46.8426   38.4855 H   0  0  0  0  0  0  0  0  0  0  0  0
   26.5766   44.4507   40.3660 H   0  0  0  0  0  0  0  0  0  0  0  0
   24.3238   43.5727   50.5031 H   0  0  0  0  0  0  0  0  0  0  0  0
   25.9226   42.7539   50.5033 H   0  0  0  0  0  0  0  0  0  0  0  0
   24.4185   41.7874   50.3298 H   0  0  0  0  0  0  0  0  0  0  0  0
   25.4035   42.7350   42.5346 H   0  0  0  0  0  0  0  0  0  0  0  0
   26.2408   41.8037   43.8223 H   0  0  0  0  0  0  0  0  0  0  0  0
  1 37  1  0  0  0  0
  3 21  1  0  0  0  0
  3 36  1  0  0  0  0
  5 12  1  0  0  0  0
  5 13  2  0  0  0  0
  5 15  2  0  0  0  0
  6  1  2  0  0  0  0
  6 38  1  0  0  0  0
  8 28  2  0  0  0  0
 10 19  1  0  0  0  0
 10 39  1  0  0  0  0
 12 31  1  0  0  0  0
 12 40  1  0  0  0  0
 14 22  2  0  0  0  0
 14 41  1  0  0  0  0
 16 24  1  0  0  0  0
 16 42  1  0  0  0  0
 17 10  2  0  0  0  0
 17 21  1  0  0  0  0
 18 17  1  0  0  0  0
 18 29  1  0  0  0  0
 19 24  2  0  0  0  0
 19 35  1  0  0  0  0
 20 14  1  0  0  0  0
 20 23  2  0  0  0  0
 21 16  2  0  0  0  0
 22  1  1  0  0  0  0
 22  2  1  0  0  0  0
 23  6  1  0  0  0  0
 23  7  1  0  0  0  0
 24 11  1  0  0  0  0
 25  3  1  0  0  0  0
 25 18  2  0  0  0  0
 26 28  1  0  0  0  0
 26 43  1  0  0  0  0
 27 26  2  0  0  0  0
 27 44  1  0  0  0  0
 28 45  1  0  0  0  0
 29 27  1  0  0  0  0
 29 30  1  0  0  0  0
 29 46  1  6  0  0  0
 30  4  2  0  0  0  0
 30  8  1  0  0  0  0
 31  9  2  0  0  0  0
 31 25  1  0  0  0  0
 32 33  1  0  0  0  0
 32 34  1  0  0  0  0
 32 47  1  0  0  0  0
 32 48  1  0  0  0  0
 33 34  1  0  0  0  0
 33 49  1  0  0  0  0
 33 50  1  0  0  0  0
 34  5  1  0  0  0  0
 34 51  1  0  0  0  0
 35 52  1  0  0  0  0
 35 53  1  0  0  0  0
 35 54  1  0  0  0  0
 36 20  1  0  0  0  0
 36 55  1  0  0  0  0
 36 56  1  0  0  0  0
M  END
