3tz2_ligand
 OpenBabel08222323353D

 23 23  0  0  0  0  0  0  0  0999 V2000
   -8.6830  -30.5350   13.8320 C   0  0  0  0  0  0  0  0  0  0  0  0
   -8.6110  -30.7960   15.3300 C   0  0  0  0  0  0  0  0  0  0  0  0
   -9.6020  -31.8570   15.8270 C   0  0  0  0  0  0  0  0  0  0  0  0
   -9.1840  -32.0500   17.2600 C   0  0  0  0  0  0  0  0  0  0  0  0
   -8.3560  -33.1120   17.6030 C   0  0  0  0  0  0  0  0  0  0  0  0
   -9.5810  -31.1320   18.2230 C   0  0  0  0  0  0  0  0  0  0  0  0
   -7.9520  -33.2580   18.9230 C   0  0  0  0  0  0  0  0  0  0  0  0
   -9.1740  -31.2800   19.5440 C   0  0  0  0  0  0  0  0  0  0  0  0
   -8.3550  -32.3430   19.8960 C   0  0  0  0  0  0  0  0  0  0  0  0
   -7.8670  -31.5690   13.0930 C   0  0  0  0  0  0  0  0  0  0  0  0
   -8.0970  -31.7600   11.8760 O   0  5  0  0  0  0  0  0  0  0  0  0
   -6.9920  -32.1990   13.7260 O   0  0  0  0  0  0  0  0  0  0  0  0
   -8.2843  -29.5328   13.6163 H   0  0  0  0  0  0  0  0  0  0  0  0
   -9.7305  -30.5919   13.5013 H   0  0  0  0  0  0  0  0  0  0  0  0
   -8.8213  -29.8530   15.8559 H   0  0  0  0  0  0  0  0  0  0  0  0
   -7.5926  -31.1327   15.5739 H   0  0  0  0  0  0  0  0  0  0  0  0
   -9.5033  -32.7915   15.2552 H   0  0  0  0  0  0  0  0  0  0  0  0
  -10.6384  -31.4944   15.7610 H   0  0  0  0  0  0  0  0  0  0  0  0
   -8.0293  -33.8183   16.8484 H   0  0  0  0  0  0  0  0  0  0  0  0
  -10.2115  -30.2957   17.9434 H   0  0  0  0  0  0  0  0  0  0  0  0
   -7.3169  -34.0915   19.2006 H   0  0  0  0  0  0  0  0  0  0  0  0
   -9.4951  -30.5680   20.2957 H   0  0  0  0  0  0  0  0  0  0  0  0
   -8.0295  -32.4622   20.9231 H   0  0  0  0  0  0  0  0  0  0  0  0
  1  2  1  0  0  0  0
  1 10  1  0  0  0  0
  1 13  1  0  0  0  0
  1 14  1  0  0  0  0
  2  3  1  0  0  0  0
  2 15  1  0  0  0  0
  2 16  1  0  0  0  0
  3  4  1  0  0  0  0
  3 17  1  0  0  0  0
  3 18  1  0  0  0  0
  4  5  2  0  0  0  0
  4  6  1  0  0  0  0
  5  7  1  0  0  0  0
  5 19  1  0  0  0  0
  6  8  2  0  0  0  0
  6 20  1  0  0  0  0
  7  9  2  0  0  0  0
  7 21  1  0  0  0  0
  8  9  1  0  0  0  0
  8 22  1  0  0  0  0
  9 23  1  0  0  0  0
 10 11  1  0  0  0  0
 10 12  2  0  0  0  0
M  CHG  1  11  -1
M  END
