3tz4_ligand
 OpenBabel08222323353D

 19 18  0  0  1  0  0  0  0  0999 V2000
   -8.1750  -29.2420   14.7770 Cl  0  0  0  0  0  0  0  0  0  0  0  0
   -7.6730  -31.6310   13.6490 C   0  0  0  0  0  0  0  0  0  0  0  0
   -7.0450  -32.6690   13.6390 O   0  5  0  0  0  0  0  0  0  0  0  0
   -7.9570  -31.0180   14.9910 C   0  0  2  0  0  0  0  0  0  0  0  0
   -8.4250  -31.3380   12.5780 O   0  0  0  0  0  0  0  0  0  0  0  0
   -9.1900  -31.7190   15.5760 C   0  0  0  0  0  0  0  0  0  0  0  0
   -9.4970  -31.3490   17.0250 C   0  0  0  0  0  0  0  0  0  0  0  0
  -10.9950  -31.4060   17.2580 C   0  0  0  0  0  0  0  0  0  0  0  0
   -8.7860  -32.2460   18.0300 C   0  0  0  0  0  0  0  0  0  0  0  0
   -7.1032  -31.1871   15.6636 H   0  0  0  0  0  0  0  0  0  0  0  0
   -9.0244  -32.8053   15.5259 H   0  0  0  0  0  0  0  0  0  0  0  0
  -10.0619  -31.4522   14.9606 H   0  0  0  0  0  0  0  0  0  0  0  0
   -9.1551  -30.3168   17.1912 H   0  0  0  0  0  0  0  0  0  0  0  0
  -11.2140  -31.1391   18.3024 H   0  0  0  0  0  0  0  0  0  0  0  0
  -11.3591  -32.4241   17.0557 H   0  0  0  0  0  0  0  0  0  0  0  0
  -11.4981  -30.6961   16.5850 H   0  0  0  0  0  0  0  0  0  0  0  0
   -7.7005  -32.2016   17.8574 H   0  0  0  0  0  0  0  0  0  0  0  0
   -9.1346  -33.2821   17.9076 H   0  0  0  0  0  0  0  0  0  0  0  0
   -9.0093  -31.9021   19.0507 H   0  0  0  0  0  0  0  0  0  0  0  0
  2  3  1  0  0  0  0
  2  4  1  0  0  0  0
  2  5  2  0  0  0  0
  4  1  1  0  0  0  0
  4  6  1  0  0  0  0
  4 10  1  1  0  0  0
  6  7  1  0  0  0  0
  6 11  1  0  0  0  0
  6 12  1  0  0  0  0
  7  8  1  0  0  0  0
  7  9  1  0  0  0  0
  7 13  1  0  0  0  0
  8 14  1  0  0  0  0
  8 15  1  0  0  0  0
  8 16  1  0  0  0  0
  9 17  1  0  0  0  0
  9 18  1  0  0  0  0
  9 19  1  0  0  0  0
M  CHG  1   3  -1
M  END
