3tzd_ligand
 OpenBabel08222323353D

210211  0  0  1  0  0  0  0  0999 V2000
   22.8790   40.6680   -2.9270 N   0  3  0  0  0  0  0  0  0  0  0  0
   23.1200   39.1910   -2.8790 C   0  0  2  0  0  0  0  0  0  0  0  0
   23.8210   38.7800   -4.1760 C   0  0  0  0  0  0  0  0  0  0  0  0
   23.4800   39.2880   -5.2240 O   0  0  0  0  0  0  0  0  0  0  0  0
   21.7950   38.4220   -2.8020 C   0  0  0  0  0  0  0  0  0  0  0  0
   21.9660   36.9420   -2.4540 C   0  0  0  0  0  0  0  0  0  0  0  0
   22.1190   36.5400   -1.1300 C   0  0  0  0  0  0  0  0  0  0  0  0
   21.9790   35.9490   -3.4560 C   0  0  0  0  0  0  0  0  0  0  0  0
   22.2900   35.1840   -0.7630 C   0  0  0  0  0  0  0  0  0  0  0  0
   22.1330   34.5510   -3.0730 C   0  0  0  0  0  0  0  0  0  0  0  0
   22.3050   34.2170   -1.7310 C   0  0  0  0  0  0  0  0  0  0  0  0
   22.4360   32.8950   -1.3380 O   0  0  0  0  0  0  0  0  0  0  0  0
   24.8190   37.8810   -4.1030 N   0  0  0  0  0  0  0  0  0  0  0  0
   25.6090   37.7630   -5.3610 C   0  0  2  0  0  0  0  0  0  0  0  0
   24.9090   36.9970   -6.4680 C   0  0  0  0  0  0  0  0  0  0  0  0
   24.1650   36.0440   -6.2010 O   0  0  0  0  0  0  0  0  0  0  0  0
   26.8740   36.9870   -4.9370 C   0  0  0  0  0  0  0  0  0  0  0  0
   26.5520   36.3420   -3.6610 C   0  0  0  0  0  0  0  0  0  0  0  0
   25.3670   37.0630   -3.0020 C   0  0  0  0  0  0  0  0  0  0  0  0
   25.1710   37.4160   -7.6970 N   0  0  0  0  0  0  0  0  0  0  0  0
   24.6380   36.7260   -8.8610 C   0  0  2  0  0  0  0  0  0  0  0  0
   25.7210   36.1170   -9.7570 C   0  0  0  0  0  0  0  0  0  0  0  0
   25.3950   35.4590  -10.7530 O   0  0  0  0  0  0  0  0  0  0  0  0
   23.7150   37.6610   -9.7040 C   0  0  0  0  0  0  0  0  0  0  0  0
   22.6140   38.2170   -8.8350 C   0  0  0  0  0  0  0  0  0  0  0  0
   24.5050   38.7790  -10.3620 C   0  0  0  0  0  0  0  0  0  0  0  0
   26.9900   36.3600   -9.4160 N   0  0  0  0  0  0  0  0  0  0  0  0
   28.1410   35.8560  -10.1670 C   0  0  2  0  0  0  0  0  0  0  0  0
   29.3260   35.8450   -9.2220 C   0  0  0  0  0  0  0  0  0  0  0  0
   29.2170   36.4310   -8.1340 O   0  0  0  0  0  0  0  0  0  0  0  0
   28.4590   36.7610  -11.3670 C   0  0  0  0  0  0  0  0  0  0  0  0
   28.6630   38.2110  -10.9980 C   0  0  0  0  0  0  0  0  0  0  0  0
   28.7710   39.1170  -12.2250 C   0  0  0  0  0  0  0  0  0  0  0  0
   29.1330   40.5520  -11.8030 C   0  0  0  0  0  0  0  0  0  0  0  0
   29.3090   41.4800  -12.9690 N   0  3  0  0  0  0  0  0  0  0  0  0
   30.4500   35.2430   -9.6410 N   0  0  0  0  0  0  0  0  0  0  0  0
   31.7250   35.2560   -8.8080 C   0  0  2  0  0  0  0  0  0  0  0  0
   31.4010   34.8870   -7.3490 C   0  0  0  0  0  0  0  0  0  0  0  0
   31.6930   35.6260   -6.3810 O   0  0  0  0  0  0  0  0  0  0  0  0
   32.4380   36.6230   -8.8820 C   0  0  0  0  0  0  0  0  0  0  0  0
   33.9310   36.5810   -8.4500 C   0  0  0  0  0  0  0  0  0  0  0  0
   34.5680   37.9550   -8.5860 C   0  0  0  0  0  0  0  0  0  0  0  0
   34.3020   38.8280   -7.3230 C   0  0  0  0  0  0  0  0  0  0  0  0
   35.0440   40.1220   -7.5260 N   0  3  0  0  0  0  0  0  0  0  0  0
   30.7730   33.7260   -7.1970 N   0  0  0  0  0  0  0  0  0  0  0  0
   30.2010   33.3230   -5.9050 C   0  0  2  0  0  0  0  0  0  0  0  0
   30.3460   31.8100   -5.6610 C   0  0  0  0  0  0  0  0  0  0  0  0
   30.6490   31.0720   -6.5830 O   0  0  0  0  0  0  0  0  0  0  0  0
   28.7120   33.7030   -5.8320 C   0  0  0  0  0  0  0  0  0  0  0  0
   27.8410   32.9940   -6.8670 C   0  0  0  0  0  0  0  0  0  0  0  0
   26.3450   33.4340   -6.7360 C   0  0  0  0  0  0  0  0  0  0  0  0
   25.4850   33.1070   -7.9720 C   0  0  0  0  0  0  0  0  0  0  0  0
   25.3990   31.6410   -8.2100 N   0  3  0  0  0  0  0  0  0  0  0  0
   30.1410   31.3890   -4.4200 N   0  0  0  0  0  0  0  0  0  0  0  0
   30.1650   29.9730   -4.0540 C   0  0  2  0  0  0  0  0  0  0  0  0
   29.3610   29.7500   -2.7830 C   0  0  0  0  0  0  0  0  0  0  0  0
   29.1320   30.6700   -1.9690 O   0  0  0  0  0  0  0  0  0  0  0  0
   31.6320   29.4910   -3.8680 C   0  0  0  0  0  0  0  0  0  0  0  0
   28.9340   28.5090   -2.6300 N   0  0  0  0  0  0  0  0  0  0  0  0
   28.2750   28.0280   -1.4380 C   0  0  2  0  0  0  0  0  0  0  0  0
   29.3650   27.3660   -0.5910 C   0  0  0  0  0  0  0  0  0  0  0  0
   30.4910   27.1550   -1.0470 O   0  0  0  0  0  0  0  0  0  0  0  0
   27.1880   27.0520   -1.8860 C   0  0  0  0  0  0  0  0  0  0  0  0
   26.6630   26.0150   -0.9460 C   0  0  0  0  0  0  0  0  0  0  0  0
   25.4410   25.3160   -1.6100 C   0  0  0  0  0  0  0  0  0  0  0  0
   25.3110   25.5920   -3.0490 N   0  0  0  0  0  0  0  0  0  0  0  0
   25.6110   24.7250   -4.0280 C   0  0  0  0  0  3  0  0  0  0  0  0
   26.0520   23.4860   -3.7430 N   0  0  0  0  0  0  0  0  0  0  0  0
   25.4520   25.0980   -5.3040 N   0  0  0  0  0  0  0  0  0  0  0  0
   29.1870   27.5090    0.8700 N   0  0  0  0  0  0  0  0  0  0  0  0
   30.1230   26.9390    1.8480 C   0  0  1  0  0  0  0  0  0  0  0  0
   30.1440   27.8460    3.0630 C   0  0  0  0  0  0  0  0  0  0  0  0
   30.9780   29.0870    2.7420 C   0  0  0  0  0  0  0  0  0  0  0  0
   31.0720   30.0010    3.9780 C   0  0  0  0  0  0  0  0  0  0  0  0
   31.9720   31.1880    3.6110 C   0  0  0  0  0  0  0  0  0  0  0  0
   32.1180   32.0740    4.7950 N   0  3  0  0  0  0  0  0  0  0  0  0
   33.2620   33.0000    4.5930 C   0  0  0  0  0  0  0  0  0  0  0  0
   30.8760   32.8570    5.0740 C   0  0  0  0  0  0  0  0  0  0  0  0
   29.6650   25.5180    2.2470 C   0  0  0  0  0  0  0  0  0  0  0  0
   28.5160   25.2240    2.6410 O   0  0  0  0  0  0  0  0  0  0  0  0
   30.6760   24.4780    2.2320 N   0  0  0  0  0  0  0  0  0  0  0  0
   30.6200   23.1710    2.9450 C   0  0  2  0  0  0  0  0  0  0  0  0
   30.0870   23.3130    4.3660 C   0  0  0  0  0  0  0  0  0  0  0  0
   29.2750   22.4800    4.7990 O   0  0  0  0  0  0  0  0  0  0  0  0
   31.9970   22.5340    2.9320 C   0  0  0  0  0  0  0  0  0  0  0  0
   32.3540   22.3170    1.6000 O   0  0  0  0  0  0  0  0  0  0  0  0
   30.4900   24.3930    5.0400 N   0  0  0  0  0  0  0  0  0  0  0  0
   29.9750   24.7890    6.3850 C   0  0  2  0  0  0  0  0  0  0  0  0
   28.4470   24.9490    6.5120 C   0  0  0  0  0  0  0  0  0  0  0  0
   27.9100   24.8090    7.6150 O   0  0  0  0  0  0  0  0  0  0  0  0
   30.6850   26.0860    6.8830 C   0  0  0  0  0  0  0  0  0  0  0  0
   27.7670   25.2850    5.4100 N   0  0  0  0  0  0  0  0  0  0  0  0
   26.3030   25.3400    5.3630 C   0  0  0  0  0  0  0  0  0  0  0  0
   25.6420   23.9870    5.0910 C   0  0  0  0  0  0  0  0  0  0  0  0
   26.3220   22.9620    4.8410 O   0  5  0  0  0  0  0  0  0  0  0  0
   24.3940   23.8500    5.1070 O   0  0  0  0  0  0  0  0  0  0  0  0
   22.4170   40.9607   -2.0803 H   0  0  0  0  0  0  0  0  0  0  0  0
   22.2974   40.8880   -3.7203 H   0  0  0  0  0  0  0  0  0  0  0  0
   23.7603   41.1497   -3.0126 H   0  0  0  0  0  0  0  0  0  0  0  0
   23.7464   38.9442   -2.0091 H   0  0  0  0  0  0  0  0  0  0  0  0
   21.2936   38.4941   -3.7784 H   0  0  0  0  0  0  0  0  0  0  0  0
   21.1653   38.8901   -2.0310 H   0  0  0  0  0  0  0  0  0  0  0  0
   22.1067   37.2938   -0.3511 H   0  0  0  0  0  0  0  0  0  0  0  0
   21.8756   36.2227   -4.4998 H   0  0  0  0  0  0  0  0  0  0  0  0
   22.4085   34.9127    0.2798 H   0  0  0  0  0  0  0  0  0  0  0  0
   22.1138   33.7743   -3.8290 H   0  0  0  0  0  0  0  0  0  0  0  0
   21.6572   32.4125   -1.5892 H   0  0  0  0  0  0  0  0  0  0  0  0
   25.8696   38.7651   -5.7324 H   0  0  0  0  0  0  0  0  0  0  0  0
   27.7206   37.6780   -4.8116 H   0  0  0  0  0  0  0  0  0  0  0  0
   27.1277   36.2296   -5.6933 H   0  0  0  0  0  0  0  0  0  0  0  0
   27.4263   36.3914   -2.9953 H   0  0  0  0  0  0  0  0  0  0  0  0
   26.2862   35.2897   -3.8398 H   0  0  0  0  0  0  0  0  0  0  0  0
   24.6206   36.3427   -2.6357 H   0  0  0  0  0  0  0  0  0  0  0  0
   25.7043   37.6971   -2.1689 H   0  0  0  0  0  0  0  0  0  0  0  0
   25.7469   38.2231   -7.8271 H   0  0  0  0  0  0  0  0  0  0  0  0
   24.0199   35.8965   -8.4869 H   0  0  0  0  0  0  0  0  0  0  0  0
   23.2538   37.0586  -10.5005 H   0  0  0  0  0  0  0  0  0  0  0  0
   21.9688   38.8742   -9.4364 H   0  0  0  0  0  0  0  0  0  0  0  0
   23.0550   38.7930   -8.0081 H   0  0  0  0  0  0  0  0  0  0  0  0
   22.0155   37.3892   -8.4270 H   0  0  0  0  0  0  0  0  0  0  0  0
   25.2994   38.3471  -10.9883 H   0  0  0  0  0  0  0  0  0  0  0  0
   24.9552   39.4157   -9.5862 H   0  0  0  0  0  0  0  0  0  0  0  0
   23.8326   39.3838  -10.9881 H   0  0  0  0  0  0  0  0  0  0  0  0
   27.1628   36.9166   -8.6034 H   0  0  0  0  0  0  0  0  0  0  0  0
   27.9332   34.8367  -10.5247 H   0  0  0  0  0  0  0  0  0  0  0  0
   27.6236   36.6986  -12.0798 H   0  0  0  0  0  0  0  0  0  0  0  0
   29.3780   36.3922  -11.8459 H   0  0  0  0  0  0  0  0  0  0  0  0
   29.5896   38.2990  -10.4117 H   0  0  0  0  0  0  0  0  0  0  0  0
   27.8101   38.5433  -10.3880 H   0  0  0  0  0  0  0  0  0  0  0  0
   27.8065   39.1273  -12.7538 H   0  0  0  0  0  0  0  0  0  0  0  0
   29.5523   38.7284  -12.8947 H   0  0  0  0  0  0  0  0  0  0  0  0
   30.0735   40.5230  -11.2332 H   0  0  0  0  0  0  0  0  0  0  0  0
   28.3283   40.9425  -11.1628 H   0  0  0  0  0  0  0  0  0  0  0  0
   29.5439   42.4009  -12.6330 H   0  0  0  0  0  0  0  0  0  0  0  0
   28.4510   41.5235  -13.4963 H   0  0  0  0  0  0  0  0  0  0  0  0
   30.0503   41.1391  -13.5609 H   0  0  0  0  0  0  0  0  0  0  0  0
   30.4503   34.7733  -10.5238 H   0  0  0  0  0  0  0  0  0  0  0  0
   32.4075   34.4947   -9.2138 H   0  0  0  0  0  0  0  0  0  0  0  0
   31.9070   37.3263   -8.2237 H   0  0  0  0  0  0  0  0  0  0  0  0
   32.3882   36.9835   -9.9200 H   0  0  0  0  0  0  0  0  0  0  0  0
   34.4719   35.8673   -9.0887 H   0  0  0  0  0  0  0  0  0  0  0  0
   33.9946   36.2557   -7.4011 H   0  0  0  0  0  0  0  0  0  0  0  0
   34.1455   38.4606   -9.4668 H   0  0  0  0  0  0  0  0  0  0  0  0
   35.6536   37.8356   -8.7172 H   0  0  0  0  0  0  0  0  0  0  0  0
   34.6732   38.3156   -6.4232 H   0  0  0  0  0  0  0  0  0  0  0  0
   33.2245   39.0219   -7.2164 H   0  0  0  0  0  0  0  0  0  0  0  0
   34.8992   40.7210   -6.7283 H   0  0  0  0  0  0  0  0  0  0  0  0
   34.7010   40.5793   -8.3562 H   0  0  0  0  0  0  0  0  0  0  0  0
   36.0285   39.9322   -7.6293 H   0  0  0  0  0  0  0  0  0  0  0  0
   30.6876   33.1114   -7.9812 H   0  0  0  0  0  0  0  0  0  0  0  0
   30.7410   33.8573   -5.1094 H   0  0  0  0  0  0  0  0  0  0  0  0
   28.6233   34.7880   -5.9896 H   0  0  0  0  0  0  0  0  0  0  0  0
   28.3377   33.4462   -4.8301 H   0  0  0  0  0  0  0  0  0  0  0  0
   27.9112   31.9072   -6.7126 H   0  0  0  0  0  0  0  0  0  0  0  0
   28.2030   33.2453   -7.8748 H   0  0  0  0  0  0  0  0  0  0  0  0
   26.3173   34.5215   -6.5733 H   0  0  0  0  0  0  0  0  0  0  0  0
   25.9087   32.9218   -5.8658 H   0  0  0  0  0  0  0  0  0  0  0  0
   25.9333   33.5858   -8.8551 H   0  0  0  0  0  0  0  0  0  0  0  0
   24.4707   33.5028   -7.8155 H   0  0  0  0  0  0  0  0  0  0  0  0
   24.8306   31.4655   -9.0237 H   0  0  0  0  0  0  0  0  0  0  0  0
   24.9839   31.1941   -7.4075 H   0  0  0  0  0  0  0  0  0  0  0  0
   26.3242   31.2701   -8.3601 H   0  0  0  0  0  0  0  0  0  0  0  0
   29.9630   32.0665   -3.7063 H   0  0  0  0  0  0  0  0  0  0  0  0
   29.7055   29.3909   -4.8665 H   0  0  0  0  0  0  0  0  0  0  0  0
   31.6359   28.4259   -3.5933 H   0  0  0  0  0  0  0  0  0  0  0  0
   32.1122   30.0771   -3.0706 H   0  0  0  0  0  0  0  0  0  0  0  0
   32.1854   29.6291   -4.8086 H   0  0  0  0  0  0  0  0  0  0  0  0
   29.0752   27.8658   -3.3826 H   0  0  0  0  0  0  0  0  0  0  0  0
   27.8184   28.8568   -0.8772 H   0  0  0  0  0  0  0  0  0  0  0  0
   27.5884   26.5132   -2.7574 H   0  0  0  0  0  0  0  0  0  0  0  0
   26.3261   27.6612   -2.1958 H   0  0  0  0  0  0  0  0  0  0  0  0
   26.3510   26.4917   -0.0050 H   0  0  0  0  0  0  0  0  0  0  0  0
   27.4471   25.2720   -0.7383 H   0  0  0  0  0  0  0  0  0  0  0  0
   24.5267   25.6626   -1.1061 H   0  0  0  0  0  0  0  0  0  0  0  0
   25.5458   24.2296   -1.4730 H   0  0  0  0  0  0  0  0  0  0  0  0
   24.9634   26.5212   -3.3260 H   0  0  0  0  0  0  0  0  0  0  0  0
   26.2782   22.8317   -4.5057 H   0  0  0  0  0  0  0  0  0  0  0  0
   26.1633   23.1919   -2.7622 H   0  0  0  0  0  0  0  0  0  0  0  0
   25.1146   26.0457   -5.5253 H   0  0  0  0  0  0  0  0  0  0  0  0
   25.6671   24.4373   -6.0643 H   0  0  0  0  0  0  0  0  0  0  0  0
   28.3940   28.0164    1.2072 H   0  0  0  0  0  0  0  0  0  0  0  0
   31.1305   26.8856    1.4097 H   0  0  0  0  0  0  0  0  0  0  0  0
   30.5903   27.3117    3.9147 H   0  0  0  0  0  0  0  0  0  0  0  0
   29.1169   28.1472    3.3165 H   0  0  0  0  0  0  0  0  0  0  0  0
   30.5042   29.6395    1.9172 H   0  0  0  0  0  0  0  0  0  0  0  0
   31.9898   28.7768    2.4421 H   0  0  0  0  0  0  0  0  0  0  0  0
   31.5083   29.4466    4.8220 H   0  0  0  0  0  0  0  0  0  0  0  0
   30.0703   30.3616    4.2547 H   0  0  0  0  0  0  0  0  0  0  0  0
   31.5178   31.7521    2.7831 H   0  0  0  0  0  0  0  0  0  0  0  0
   32.9614   30.8185    3.3037 H   0  0  0  0  0  0  0  0  0  0  0  0
   32.3104   31.4953    5.5976 H   0  0  0  0  0  0  0  0  0  0  0  0
   33.3649   33.6529    5.4723 H   0  0  0  0  0  0  0  0  0  0  0  0
   33.0826   33.6149    3.6988 H   0  0  0  0  0  0  0  0  0  0  0  0
   34.1856   32.4179    4.4585 H   0  0  0  0  0  0  0  0  0  0  0  0
   30.0328   32.1664    5.2226 H   0  0  0  0  0  0  0  0  0  0  0  0
   30.6614   33.5198    4.2228 H   0  0  0  0  0  0  0  0  0  0  0  0
   31.0196   33.4611    5.9820 H   0  0  0  0  0  0  0  0  0  0  0  0
   31.4951   24.6567    1.6869 H   0  0  0  0  0  0  0  0  0  0  0  0
   29.9316   22.5123    2.3953 H   0  0  0  0  0  0  0  0  0  0  0  0
   31.9717   21.5768    3.4733 H   0  0  0  0  0  0  0  0  0  0  0  0
   32.7249   23.2063    3.4097 H   0  0  0  0  0  0  0  0  0  0  0  0
   32.3698   23.1472    1.1383 H   0  0  0  0  0  0  0  0  0  0  0  0
   31.1831   24.9758    4.6158 H   0  0  0  0  0  0  0  0  0  0  0  0
   30.2569   23.9763    7.0706 H   0  0  0  0  0  0  0  0  0  0  0  0
   30.2931   26.3613    7.8733 H   0  0  0  0  0  0  0  0  0  0  0  0
   30.4944   26.9041    6.1729 H   0  0  0  0  0  0  0  0  0  0  0  0
   31.7680   25.9070    6.9541 H   0  0  0  0  0  0  0  0  0  0  0  0
   28.2803   25.5086    4.5814 H   0  0  0  0  0  0  0  0  0  0  0  0
   26.0077   26.0368    4.5648 H   0  0  0  0  0  0  0  0  0  0  0  0
   25.9389   25.7154    6.3307 H   0  0  0  0  0  0  0  0  0  0  0  0
  1  2  1  0  0  0  0
  1 97  1  0  0  0  0
  1 98  1  0  0  0  0
  1 99  1  0  0  0  0
  2  3  1  0  0  0  0
  2  5  1  0  0  0  0
  2100  1  1  0  0  0
  3  4  2  0  0  0  0
  3 13  1  0  0  0  0
  5  6  1  0  0  0  0
  5101  1  0  0  0  0
  5102  1  0  0  0  0
  6  7  2  0  0  0  0
  6  8  1  0  0  0  0
  7  9  1  0  0  0  0
  7103  1  0  0  0  0
  8 10  2  0  0  0  0
  8104  1  0  0  0  0
  9 11  2  0  0  0  0
  9105  1  0  0  0  0
 10 11  1  0  0  0  0
 10106  1  0  0  0  0
 11 12  1  0  0  0  0
 12107  1  0  0  0  0
 13 14  1  0  0  0  0
 13 19  1  0  0  0  0
 14 15  1  0  0  0  0
 14 17  1  0  0  0  0
 14108  1  6  0  0  0
 15 16  2  0  0  0  0
 15 20  1  0  0  0  0
 17 18  1  0  0  0  0
 17109  1  0  0  0  0
 17110  1  0  0  0  0
 18 19  1  0  0  0  0
 18111  1  0  0  0  0
 18112  1  0  0  0  0
 19113  1  0  0  0  0
 19114  1  0  0  0  0
 20 21  1  0  0  0  0
 20115  1  0  0  0  0
 21 22  1  0  0  0  0
 21 24  1  0  0  0  0
 21116  1  1  0  0  0
 22 23  2  0  0  0  0
 22 27  1  0  0  0  0
 24 25  1  0  0  0  0
 24 26  1  0  0  0  0
 24117  1  0  0  0  0
 25118  1  0  0  0  0
 25119  1  0  0  0  0
 25120  1  0  0  0  0
 26121  1  0  0  0  0
 26122  1  0  0  0  0
 26123  1  0  0  0  0
 27 28  1  0  0  0  0
 27124  1  0  0  0  0
 28 29  1  0  0  0  0
 28 31  1  0  0  0  0
 28125  1  6  0  0  0
 29 30  2  0  0  0  0
 29 36  1  0  0  0  0
 31 32  1  0  0  0  0
 31126  1  0  0  0  0
 31127  1  0  0  0  0
 32 33  1  0  0  0  0
 32128  1  0  0  0  0
 32129  1  0  0  0  0
 33 34  1  0  0  0  0
 33130  1  0  0  0  0
 33131  1  0  0  0  0
 34 35  1  0  0  0  0
 34132  1  0  0  0  0
 34133  1  0  0  0  0
 35134  1  0  0  0  0
 35135  1  0  0  0  0
 35136  1  0  0  0  0
 36 37  1  0  0  0  0
 36137  1  0  0  0  0
 37 38  1  0  0  0  0
 37 40  1  0  0  0  0
 37138  1  6  0  0  0
 38 39  2  0  0  0  0
 38 45  1  0  0  0  0
 40 41  1  0  0  0  0
 40139  1  0  0  0  0
 40140  1  0  0  0  0
 41 42  1  0  0  0  0
 41141  1  0  0  0  0
 41142  1  0  0  0  0
 42 43  1  0  0  0  0
 42143  1  0  0  0  0
 42144  1  0  0  0  0
 43 44  1  0  0  0  0
 43145  1  0  0  0  0
 43146  1  0  0  0  0
 44147  1  0  0  0  0
 44148  1  0  0  0  0
 44149  1  0  0  0  0
 45 46  1  0  0  0  0
 45150  1  0  0  0  0
 46 47  1  0  0  0  0
 46 49  1  0  0  0  0
 46151  1  1  0  0  0
 47 48  2  0  0  0  0
 47 54  1  0  0  0  0
 49 50  1  0  0  0  0
 49152  1  0  0  0  0
 49153  1  0  0  0  0
 50 51  1  0  0  0  0
 50154  1  0  0  0  0
 50155  1  0  0  0  0
 51 52  1  0  0  0  0
 51156  1  0  0  0  0
 51157  1  0  0  0  0
 52 53  1  0  0  0  0
 52158  1  0  0  0  0
 52159  1  0  0  0  0
 53160  1  0  0  0  0
 53161  1  0  0  0  0
 53162  1  0  0  0  0
 54 55  1  0  0  0  0
 54163  1  0  0  0  0
 55 56  1  0  0  0  0
 55 58  1  0  0  0  0
 55164  1  6  0  0  0
 56 57  2  0  0  0  0
 56 59  1  0  0  0  0
 58165  1  0  0  0  0
 58166  1  0  0  0  0
 58167  1  0  0  0  0
 59 60  1  0  0  0  0
 59168  1  0  0  0  0
 60 61  1  0  0  0  0
 60 63  1  0  0  0  0
 60169  1  1  0  0  0
 61 62  2  0  0  0  0
 61 70  1  0  0  0  0
 63 64  1  0  0  0  0
 63170  1  0  0  0  0
 63171  1  0  0  0  0
 64 65  1  0  0  0  0
 64172  1  0  0  0  0
 64173  1  0  0  0  0
 65 66  1  0  0  0  0
 65174  1  0  0  0  0
 65175  1  0  0  0  0
 66 67  1  0  0  0  0
 66176  1  0  0  0  0
 67 68  1  0  0  0  0
 67 69  1  0  0  0  0
 68177  1  0  0  0  0
 68178  1  0  0  0  0
 69179  1  0  0  0  0
 69180  1  0  0  0  0
 70 71  1  0  0  0  0
 70181  1  0  0  0  0
 71 72  1  0  0  0  0
 71 79  1  0  0  0  0
 71182  1  6  0  0  0
 72 73  1  0  0  0  0
 72183  1  0  0  0  0
 72184  1  0  0  0  0
 73 74  1  0  0  0  0
 73185  1  0  0  0  0
 73186  1  0  0  0  0
 74 75  1  0  0  0  0
 74187  1  0  0  0  0
 74188  1  0  0  0  0
 75 76  1  0  0  0  0
 75189  1  0  0  0  0
 75190  1  0  0  0  0
 76 77  1  0  0  0  0
 76 78  1  0  0  0  0
 76191  1  0  0  0  0
 77192  1  0  0  0  0
 77193  1  0  0  0  0
 77194  1  0  0  0  0
 78195  1  0  0  0  0
 78196  1  0  0  0  0
 78197  1  0  0  0  0
 79 80  2  0  0  0  0
 79 81  1  0  0  0  0
 81 82  1  0  0  0  0
 81198  1  0  0  0  0
 82 83  1  0  0  0  0
 82 85  1  0  0  0  0
 82199  1  6  0  0  0
 83 84  2  0  0  0  0
 83 87  1  0  0  0  0
 85 86  1  0  0  0  0
 85200  1  0  0  0  0
 85201  1  0  0  0  0
 86202  1  0  0  0  0
 87 88  1  0  0  0  0
 87203  1  0  0  0  0
 88 89  1  0  0  0  0
 88 91  1  0  0  0  0
 88204  1  1  0  0  0
 89 90  2  0  0  0  0
 89 92  1  0  0  0  0
 91205  1  0  0  0  0
 91206  1  0  0  0  0
 91207  1  0  0  0  0
 92 93  1  0  0  0  0
 92208  1  0  0  0  0
 93 94  1  0  0  0  0
 93209  1  0  0  0  0
 93210  1  0  0  0  0
 94 95  1  0  0  0  0
 94 96  2  0  0  0  0
M  CHG  6   1   1  35   1  44   1  53   1  76   1  95  -1
M  END
