3u18_ligand
 OpenBabel08222323353D

 86 91  0  0  0  0  0  0  0  0999 V2000
  -34.9150    7.9880    2.2260 S   0  0  0  0  0  0  0  0  0  0  0  0
  -35.1060    6.6260    2.7450 O   0  0  0  0  0  1  0  0  0  0  0  0
  -35.9840    8.2880    1.2400 O   0  0  0  0  0  1  0  0  0  0  0  0
  -34.8890    9.0840    3.2090 O   0  0  0  0  0  1  0  0  0  0  0  0
  -23.7840    7.5630    1.6510 C   0  0  0  0  0  0  0  0  0  0  0  0
  -22.6250    1.5400    7.2840 C   0  0  0  0  0  0  0  0  0  0  0  0
  -29.8410    7.9750   -0.8050 N   0  0  0  0  0  0  0  0  0  0  0  0
  -16.7680   -0.2180   10.0630 N   0  0  0  0  0  0  0  0  0  0  0  0
  -33.8300    8.2280   -2.6890 O   0  0  0  0  0  1  0  0  0  0  0  0
  -31.7450    7.1240   -3.1250 O   0  0  0  0  0  1  0  0  0  0  0  0
  -11.6080    3.1020    7.7000 O   0  0  0  0  0  1  0  0  0  0  0  0
  -10.7460    1.8580    9.5370 O   0  0  0  0  0  1  0  0  0  0  0  0
  -12.8610   -1.9380   10.8700 O   0  0  0  0  0  1  0  0  0  0  0  0
  -15.0560   -2.4850   10.1030 O   0  0  0  0  0  1  0  0  0  0  0  0
  -28.6480    7.6530    1.4620 O   0  0  0  0  0  0  0  0  0  0  0  0
  -18.1460    1.8380    9.0150 O   0  0  0  0  0  0  0  0  0  0  0  0
  -31.7550    9.6500   -2.5930 O   0  0  0  0  0  1  0  0  0  0  0  0
  -11.8040    4.0170    9.8800 O   0  0  0  0  0  1  0  0  0  0  0  0
  -14.7850   -1.5080   12.2200 O   0  0  0  0  0  1  0  0  0  0  0  0
  -23.8760    6.6770    4.4590 C   0  0  0  0  0  0  0  0  0  0  0  0
  -21.5270    6.4290    6.4360 C   0  0  0  0  0  0  0  0  0  0  0  0
  -25.0580    7.0370    3.7540 C   0  0  0  0  0  0  0  0  0  0  0  0
  -20.3940    5.8330    7.0200 C   0  0  0  0  0  0  0  0  0  0  0  0
  -31.0900    7.4390    4.2380 C   0  0  0  0  0  0  0  0  0  0  0  0
  -15.6870    4.4940    8.0800 C   0  0  0  0  0  0  0  0  0  0  0  0
  -33.4760    8.1280   -0.0080 C   0  0  0  0  0  0  0  0  0  0  0  0
  -32.2640    7.6360    3.5320 C   0  0  0  0  0  0  0  0  0  0  0  0
  -33.5020    7.9790    1.3860 C   0  0  0  0  0  0  0  0  0  0  0  0
  -14.5080    3.8620    8.4880 C   0  0  0  0  0  0  0  0  0  0  0  0
  -25.2720    5.8700    6.3350 C   0  0  0  0  0  0  0  0  0  0  0  0
  -22.7500    4.3170    6.7800 C   0  0  0  0  0  0  0  0  0  0  0  0
  -13.1690    0.7060    9.9840 C   0  0  0  0  0  0  0  0  0  0  0  0
  -28.6650    7.2450    4.2570 N   0  0  0  0  0  0  0  0  0  0  0  0
  -18.0460    4.4590    7.8970 N   0  0  0  0  0  0  0  0  0  0  0  0
  -27.4950    7.2020    3.6540 N   0  0  0  0  0  0  0  0  0  0  0  0
  -19.2850    3.8540    7.8900 N   0  0  0  0  0  0  0  0  0  0  0  0
  -24.9910    7.5450    2.4660 O   0  0  0  0  0  0  0  0  0  0  0  0
  -21.5270    2.3850    7.6860 O   0  0  0  0  0  0  0  0  0  0  0  0
  -30.9990    7.9720   -0.0760 C   0  0  0  0  0  0  0  0  0  0  0  0
  -15.6040    0.5300    9.8480 C   0  0  0  0  0  0  0  0  0  0  0  0
  -24.0100    6.1250    5.7620 C   0  0  0  0  0  0  0  0  0  0  0  0
  -22.7100    5.6660    6.3730 C   0  0  0  0  0  0  0  0  0  0  0  0
  -29.8340    7.6230    2.1460 C   0  0  0  0  0  0  0  0  0  0  0  0
  -16.9420    2.4660    8.8680 C   0  0  0  0  0  0  0  0  0  0  0  0
  -29.8620    7.4630    3.5450 C   0  0  0  0  0  0  0  0  0  0  0  0
  -16.9150    3.8440    8.2490 C   0  0  0  0  0  0  0  0  0  0  0  0
  -26.3110    6.8800    4.3740 C   0  0  0  0  0  0  0  0  0  0  0  0
  -20.4130    4.4970    7.4010 C   0  0  0  0  0  0  0  0  0  0  0  0
  -26.4390    6.2570    5.6340 C   0  0  0  0  0  0  0  0  0  0  0  0
  -21.5550    3.7340    7.2930 C   0  0  0  0  0  0  0  0  0  0  0  0
  -32.2920    8.1200   -0.7770 C   0  0  0  0  0  0  0  0  0  0  0  0
  -14.3740   -0.0450   10.1840 C   0  0  0  0  0  0  0  0  0  0  0  0
  -13.1980    1.9920    9.4000 C   0  0  0  0  0  0  0  0  0  0  0  0
  -32.2250    7.8060    2.1310 C   0  0  0  0  0  0  0  0  0  0  0  0
  -14.4710    2.5650    9.0500 C   0  0  0  0  0  0  0  0  0  0  0  0
  -31.0210    7.7940    1.4210 C   0  0  0  0  0  0  0  0  0  0  0  0
  -15.6760    1.8320    9.2460 C   0  0  0  0  0  0  0  0  0  0  0  0
  -32.3580    8.2920   -2.4010 S   0  0  0  0  0  0  0  0  0  0  0  0
  -11.7360    2.7920    9.1260 S   0  0  0  0  0  0  0  0  0  0  0  0
  -14.2660   -1.5610   10.8550 S   0  0  0  0  0  0  0  0  0  0  0  0
  -24.0072    8.0192    0.6753 H   0  0  0  0  0  0  0  0  0  0  0  0
  -23.4273    6.5333    1.5012 H   0  0  0  0  0  0  0  0  0  0  0  0
  -23.0060    8.1501    2.1609 H   0  0  0  0  0  0  0  0  0  0  0  0
  -22.4613    0.5207    7.6638 H   0  0  0  0  0  0  0  0  0  0  0  0
  -22.6868    1.5166    6.1860 H   0  0  0  0  0  0  0  0  0  0  0  0
  -23.5640    1.9383    7.6958 H   0  0  0  0  0  0  0  0  0  0  0  0
  -29.8760    8.1001   -1.8268 H   0  0  0  0  0  0  0  0  0  0  0  0
  -28.9343    7.8521   -0.3320 H   0  0  0  0  0  0  0  0  0  0  0  0
  -16.7081   -1.1510   10.4953 H   0  0  0  0  0  0  0  0  0  0  0  0
  -17.6841    0.1648    9.7889 H   0  0  0  0  0  0  0  0  0  0  0  0
  -28.1831    6.8361    1.6004 H   0  0  0  0  0  0  0  0  0  0  0  0
  -18.0112    0.9867    9.4146 H   0  0  0  0  0  0  0  0  0  0  0  0
  -22.8980    6.8200    4.0138 H   0  0  0  0  0  0  0  0  0  0  0  0
  -21.4910    7.4405    6.0478 H   0  0  0  0  0  0  0  0  0  0  0  0
  -19.4973    6.4222    7.1742 H   0  0  0  0  0  0  0  0  0  0  0  0
  -31.1141    7.2687    5.3083 H   0  0  0  0  0  0  0  0  0  0  0  0
  -15.6500    5.4819    7.6353 H   0  0  0  0  0  0  0  0  0  0  0  0
  -34.4198    8.2568   -0.5253 H   0  0  0  0  0  0  0  0  0  0  0  0
  -33.2134    7.6598    4.0547 H   0  0  0  0  0  0  0  0  0  0  0  0
  -13.5720    4.3952    8.3669 H   0  0  0  0  0  0  0  0  0  0  0  0
  -25.3480    5.3835    7.3007 H   0  0  0  0  0  0  0  0  0  0  0  0
  -23.6641    3.7392    6.7049 H   0  0  0  0  0  0  0  0  0  0  0  0
  -12.2193    0.2796   10.2862 H   0  0  0  0  0  0  0  0  0  0  0  0
  -17.9898    5.4474    7.6128 H   0  0  0  0  0  0  0  0  0  0  0  0
  -19.3758    2.8965    8.2586 H   0  0  0  0  0  0  0  0  0  0  0  0
  -27.4195    6.0771    6.0598 H   0  0  0  0  0  0  0  0  0  0  0  0
  1  2  1  0  0  0  0
  1  3  1  0  0  0  0
  1  4  1  0  0  0  0
  5 61  1  0  0  0  0
  5 62  1  0  0  0  0
  5 63  1  0  0  0  0
  6 64  1  0  0  0  0
  6 65  1  0  0  0  0
  6 66  1  0  0  0  0
  7 67  1  0  0  0  0
  7 68  1  0  0  0  0
  8 69  1  0  0  0  0
  8 70  1  0  0  0  0
 15 71  1  0  0  0  0
 16 72  1  0  0  0  0
 20 22  2  0  0  0  0
 20 73  1  0  0  0  0
 21 42  1  0  0  0  0
 21 74  1  0  0  0  0
 22 37  1  0  0  0  0
 22 47  1  0  0  0  0
 23 21  2  0  0  0  0
 23 75  1  0  0  0  0
 24 27  2  0  0  0  0
 24 76  1  0  0  0  0
 25 46  1  0  0  0  0
 25 77  1  0  0  0  0
 26 78  1  0  0  0  0
 27 54  1  0  0  0  0
 27 79  1  0  0  0  0
 28  1  1  0  0  0  0
 28 26  2  0  0  0  0
 29 25  2  0  0  0  0
 29 80  1  0  0  0  0
 30 49  1  0  0  0  0
 30 81  1  0  0  0  0
 31 42  2  0  0  0  0
 31 82  1  0  0  0  0
 32 52  2  0  0  0  0
 32 83  1  0  0  0  0
 33 45  1  0  0  0  0
 34 36  1  0  0  0  0
 34 84  1  0  0  0  0
 35 33  2  0  0  0  0
 36 48  1  0  0  0  0
 36 85  1  0  0  0  0
 37  5  1  0  0  0  0
 38  6  1  0  0  0  0
 39  7  1  0  0  0  0
 39 51  2  0  0  0  0
 40  8  1  0  0  0  0
 40 57  2  0  0  0  0
 41 20  1  0  0  0  0
 41 30  2  0  0  0  0
 42 41  1  0  0  0  0
 43 15  1  0  0  0  0
 43 56  1  0  0  0  0
 44 16  1  0  0  0  0
 45 24  1  0  0  0  0
 45 43  2  0  0  0  0
 46 34  1  0  0  0  0
 46 44  2  0  0  0  0
 47 35  1  0  0  0  0
 48 23  1  0  0  0  0
 48 50  2  0  0  0  0
 49 47  2  0  0  0  0
 49 86  1  0  0  0  0
 50 31  1  0  0  0  0
 50 38  1  0  0  0  0
 51 26  1  0  0  0  0
 51 58  1  0  0  0  0
 52 40  1  0  0  0  0
 52 60  1  0  0  0  0
 53 32  1  0  0  0  0
 53 55  2  0  0  0  0
 53 59  1  0  0  0  0
 54 28  1  0  0  0  0
 54 56  2  0  0  0  0
 55 29  1  0  0  0  0
 55 57  1  0  0  0  0
 56 39  1  0  0  0  0
 57 44  1  0  0  0  0
 58  9  1  0  0  0  0
 58 10  1  0  0  0  0
 58 17  1  0  0  0  0
 59 11  1  0  0  0  0
 59 12  1  0  0  0  0
 59 18  1  0  0  0  0
 60 13  1  0  0  0  0
 60 14  1  0  0  0  0
 60 19  1  0  0  0  0
M  END
