3u1y_ligand
 OpenBabel08222323353D

 69 71  0  0  1  0  0  0  0  0999 V2000
   14.5690    6.0630   24.7380 C   0  0  0  0  0  0  0  0  0  0  0  0
   14.1150    5.6760   23.4910 C   0  0  0  0  0  0  0  0  0  0  0  0
   14.8900    5.8570   22.3610 C   0  0  0  0  0  0  0  0  0  0  0  0
   16.1370    6.4290   22.4730 C   0  0  0  0  0  0  0  0  0  0  0  0
   16.6210    6.8230   23.7090 C   0  0  0  0  0  0  0  0  0  0  0  0
   15.8230    6.6460   24.8280 C   0  0  0  0  0  0  0  0  0  0  0  0
   16.8400    6.5550   21.2890 O   0  0  0  0  0  0  0  0  0  0  0  0
   13.7510    5.8400   25.9300 C   0  0  0  0  0  0  0  0  0  0  0  0
   12.3760    6.0350   25.9320 C   0  0  0  0  0  0  0  0  0  0  0  0
   11.6160    5.8180   27.0740 C   0  0  0  0  0  0  0  0  0  0  0  0
   12.2180    5.3990   28.2450 C   0  0  0  0  0  0  0  0  0  0  0  0
   13.5900    5.2080   28.2470 C   0  0  0  0  0  0  0  0  0  0  0  0
   14.3490    5.4200   27.1090 C   0  0  0  0  0  0  0  0  0  0  0  0
   11.4350    5.1600   29.5060 C   0  0  0  0  0  0  0  0  0  0  0  0
   11.0380    3.6930   29.5920 C   0  0  0  0  0  0  0  0  0  0  0  0
   10.1750    3.2340   30.7720 C   0  0  2  0  0  0  0  0  0  0  0  0
   10.8300    3.5970   32.1130 C   0  0  0  0  0  0  0  0  0  0  0  0
    9.9210    1.4550   30.6810 S   0  0  0  0  0  0  0  0  0  0  0  0
   11.5450    0.7500   30.6840 C   0  0  0  0  0  0  0  0  0  0  0  0
    9.2140    1.0090   31.8680 O   0  0  0  0  0  0  0  0  0  0  0  0
    9.3380    1.1040   29.3990 O   0  0  0  0  0  0  0  0  0  0  0  0
    8.7920    3.8430   30.6170 C   0  0  0  0  0  0  0  0  0  0  0  0
   10.0560    4.3430   32.9700 N   0  0  0  0  0  0  0  0  0  0  0  0
   11.9660    3.2690   32.4310 O   0  0  0  0  0  0  0  0  0  0  0  0
   17.7830    7.6130   21.3410 C   0  0  0  0  0  0  0  0  0  0  0  0
   18.2620    7.8010   19.9200 C   0  0  0  0  0  0  0  0  0  0  0  0
   19.7190    8.1470   19.9610 C   0  0  0  0  0  0  0  0  0  0  0  0
   10.7370    4.5440   34.1910 O   0  0  0  0  0  0  0  0  0  0  0  0
   20.2750    8.1200   18.5900 N   0  3  0  0  0  0  0  0  0  0  0  0
   20.8750    6.7930   18.2450 C   0  0  0  0  0  0  0  0  0  0  0  0
   21.3620    6.8880   16.8140 C   0  0  0  0  0  0  0  0  0  0  0  0
   22.3310    7.9440   16.7580 O   0  0  0  0  0  0  0  0  0  0  0  0
   21.7390    9.2250   17.0040 C   0  0  0  0  0  0  0  0  0  0  0  0
   21.2220    9.2620   18.4290 C   0  0  0  0  0  0  0  0  0  0  0  0
   13.1346    5.2229   23.3978 H   0  0  0  0  0  0  0  0  0  0  0  0
   14.5173    5.5498   21.3905 H   0  0  0  0  0  0  0  0  0  0  0  0
   17.6077    7.2626   23.7998 H   0  0  0  0  0  0  0  0  0  0  0  0
   16.1879    6.9709   25.7956 H   0  0  0  0  0  0  0  0  0  0  0  0
   11.8855    6.3636   25.0229 H   0  0  0  0  0  0  0  0  0  0  0  0
   10.5443    5.9783   27.0465 H   0  0  0  0  0  0  0  0  0  0  0  0
   14.0795    4.8857   29.1589 H   0  0  0  0  0  0  0  0  0  0  0  0
   15.4201    5.2564   27.1395 H   0  0  0  0  0  0  0  0  0  0  0  0
   10.5293    5.7842   29.4981 H   0  0  0  0  0  0  0  0  0  0  0  0
   12.0540    5.4230   30.3764 H   0  0  0  0  0  0  0  0  0  0  0  0
   11.9682    3.1068   29.6235 H   0  0  0  0  0  0  0  0  0  0  0  0
   10.4840    3.4527   28.6726 H   0  0  0  0  0  0  0  0  0  0  0  0
   11.4690   -0.3460   30.6298 H   0  0  0  0  0  0  0  0  0  0  0  0
   12.0672    1.0360   31.6089 H   0  0  0  0  0  0  0  0  0  0  0  0
   12.1078    1.1219   29.8152 H   0  0  0  0  0  0  0  0  0  0  0  0
    8.8670    4.9395   30.6628 H   0  0  0  0  0  0  0  0  0  0  0  0
    8.1410    3.4859   31.4286 H   0  0  0  0  0  0  0  0  0  0  0  0
    8.3666    3.5448   29.6474 H   0  0  0  0  0  0  0  0  0  0  0  0
    9.1431    4.6927   32.7594 H   0  0  0  0  0  0  0  0  0  0  0  0
   18.6242    7.3457   21.9975 H   0  0  0  0  0  0  0  0  0  0  0  0
   17.3074    8.5334   21.7107 H   0  0  0  0  0  0  0  0  0  0  0  0
   17.6988    8.6158   19.4416 H   0  0  0  0  0  0  0  0  0  0  0  0
   18.1157    6.8709   19.3512 H   0  0  0  0  0  0  0  0  0  0  0  0
   20.2515    7.4153   20.5863 H   0  0  0  0  0  0  0  0  0  0  0  0
   19.8443    9.1534   20.3869 H   0  0  0  0  0  0  0  0  0  0  0  0
   10.1931    5.0600   34.7744 H   0  0  0  0  0  0  0  0  0  0  0  0
   19.5120    8.2688   17.9483 H   0  0  0  0  0  0  0  0  0  0  0  0
   20.1173    6.0006   18.3347 H   0  0  0  0  0  0  0  0  0  0  0  0
   21.7174    6.5726   18.9172 H   0  0  0  0  0  0  0  0  0  0  0  0
   20.5193    7.1157   16.1447 H   0  0  0  0  0  0  0  0  0  0  0  0
   21.8247    5.9372   16.5107 H   0  0  0  0  0  0  0  0  0  0  0  0
   20.9056    9.3870   16.3046 H   0  0  0  0  0  0  0  0  0  0  0  0
   22.4934   10.0133   16.8644 H   0  0  0  0  0  0  0  0  0  0  0  0
   22.0589    9.1589   19.1353 H   0  0  0  0  0  0  0  0  0  0  0  0
   20.7001   10.2123   18.6150 H   0  0  0  0  0  0  0  0  0  0  0  0
  1  2  2  0  0  0  0
  1  6  1  0  0  0  0
  1  8  1  0  0  0  0
  2  3  1  0  0  0  0
  2 35  1  0  0  0  0
  3  4  2  0  0  0  0
  3 36  1  0  0  0  0
  4  5  1  0  0  0  0
  4  7  1  0  0  0  0
  5  6  2  0  0  0  0
  5 37  1  0  0  0  0
  6 38  1  0  0  0  0
  7 25  1  0  0  0  0
  8  9  2  0  0  0  0
  8 13  1  0  0  0  0
  9 10  1  0  0  0  0
  9 39  1  0  0  0  0
 10 11  2  0  0  0  0
 10 40  1  0  0  0  0
 11 12  1  0  0  0  0
 11 14  1  0  0  0  0
 12 13  2  0  0  0  0
 12 41  1  0  0  0  0
 13 42  1  0  0  0  0
 14 15  1  0  0  0  0
 14 43  1  0  0  0  0
 14 44  1  0  0  0  0
 15 16  1  0  0  0  0
 15 45  1  0  0  0  0
 15 46  1  0  0  0  0
 16 17  1  1  0  0  0
 16 18  1  0  0  0  0
 16 22  1  0  0  0  0
 17 23  1  0  0  0  0
 17 24  2  0  0  0  0
 18 19  1  0  0  0  0
 18 20  2  0  0  0  0
 18 21  2  0  0  0  0
 19 47  1  0  0  0  0
 19 48  1  0  0  0  0
 19 49  1  0  0  0  0
 22 50  1  0  0  0  0
 22 51  1  0  0  0  0
 22 52  1  0  0  0  0
 23 28  1  0  0  0  0
 23 53  1  0  0  0  0
 25 26  1  0  0  0  0
 25 54  1  0  0  0  0
 25 55  1  0  0  0  0
 26 27  1  0  0  0  0
 26 56  1  0  0  0  0
 26 57  1  0  0  0  0
 27 29  1  0  0  0  0
 27 58  1  0  0  0  0
 27 59  1  0  0  0  0
 28 60  1  0  0  0  0
 29 30  1  0  0  0  0
 29 34  1  0  0  0  0
 29 61  1  0  0  0  0
 30 31  1  0  0  0  0
 30 62  1  0  0  0  0
 30 63  1  0  0  0  0
 31 32  1  0  0  0  0
 31 64  1  0  0  0  0
 31 65  1  0  0  0  0
 32 33  1  0  0  0  0
 33 34  1  0  0  0  0
 33 66  1  0  0  0  0
 33 67  1  0  0  0  0
 34 68  1  0  0  0  0
 34 69  1  0  0  0  0
M  CHG  1  29   1
M  END
