3u3f_ligand
 OpenBabel08222323353D

174173  0  0  1  0  0  0  0  0999 V2000
   -7.9210   -1.0240   42.6220 N   0  3  0  0  0  0  0  0  0  0  0  0
   -8.7440    0.1510   42.8940 C   0  0  2  0  0  0  0  0  0  0  0  0
  -10.2070   -0.0560   42.5270 C   0  0  0  0  0  0  0  0  0  0  0  0
  -11.0410   -0.2030   43.4120 O   0  0  0  0  0  0  0  0  0  0  0  0
   -8.1910    1.3820   42.1880 C   0  0  0  0  0  0  0  0  0  0  0  0
  -10.5020   -0.0720   41.2230 N   0  0  0  0  0  0  0  0  0  0  0  0
  -11.8800   -0.0760   40.7020 C   0  0  2  0  0  0  0  0  0  0  0  0
  -12.8630   -0.9770   41.4590 C   0  0  0  0  0  0  0  0  0  0  0  0
  -13.9640   -0.5500   41.8120 O   0  0  0  0  0  0  0  0  0  0  0  0
  -11.8850   -0.4080   39.2260 C   0  0  0  0  0  0  0  0  0  0  0  0
  -12.4570   -2.2210   41.6970 N   0  0  0  0  0  0  0  0  0  0  0  0
  -13.2440   -3.1580   42.4950 C   0  0  2  0  0  0  0  0  0  0  0  0
  -13.7080   -2.5050   43.8010 C   0  0  0  0  0  0  0  0  0  0  0  0
  -14.8860   -2.6110   44.1510 O   0  0  0  0  0  0  0  0  0  0  0  0
  -12.4300   -4.4080   42.8420 C   0  0  2  0  0  0  0  0  0  0  0  0
  -11.2160   -4.0060   43.4890 O   0  0  0  0  0  0  0  0  0  0  0  0
  -12.0410   -5.1720   41.5450 C   0  0  0  0  0  0  0  0  0  0  0  0
  -12.8120   -1.7830   44.4830 N   0  0  0  0  0  0  0  0  0  0  0  0
  -13.1150   -1.2020   45.7950 C   0  0  2  0  0  0  0  0  0  0  0  0
  -14.3830   -0.3680   45.7910 C   0  0  0  0  0  0  0  0  0  0  0  0
  -15.3110   -0.6980   46.5020 O   0  0  0  0  0  0  0  0  0  0  0  0
  -11.9630   -0.3970   46.2920 C   0  0  0  0  0  0  0  0  0  0  0  0
  -14.4630    0.6810   44.9790 N   0  0  0  0  0  0  0  0  0  0  0  0
  -15.6630    1.5150   44.9390 C   0  0  2  0  0  0  0  0  0  0  0  0
  -16.8900    0.6840   44.5390 C   0  0  0  0  0  0  0  0  0  0  0  0
  -18.0320    1.0300   44.8740 O   0  0  0  0  0  0  0  0  0  0  0  0
  -15.4580    2.6310   43.9480 C   0  0  0  0  0  0  0  0  0  0  0  0
  -16.6350   -0.4500   43.8850 N   0  0  0  0  0  0  0  0  0  0  0  0
  -17.7010   -1.3580   43.4480 C   0  0  2  0  0  0  0  0  0  0  0  0
  -18.2110   -2.2030   44.6110 C   0  0  0  0  0  0  0  0  0  0  0  0
  -19.4190   -2.2800   44.8490 O   0  0  0  0  0  0  0  0  0  0  0  0
  -17.2190   -2.2610   42.3010 C   0  0  0  0  0  0  0  0  0  0  0  0
  -18.2250   -3.2160   41.6720 C   0  0  0  0  0  0  0  0  0  0  0  0
  -19.1240   -2.4500   40.7360 C   0  0  0  0  0  0  0  0  0  0  0  0
  -17.4990   -4.2920   40.9110 C   0  0  0  0  0  0  0  0  0  0  0  0
  -17.2900   -2.8470   45.3270 N   0  0  0  0  0  0  0  0  0  0  0  0
  -17.6700   -3.6520   46.4840 C   0  0  2  0  0  0  0  0  0  0  0  0
  -18.4600   -2.7960   47.4500 C   0  0  0  0  0  0  0  0  0  0  0  0
  -19.3700   -3.2870   48.1140 O   0  0  0  0  0  0  0  0  0  0  0  0
  -16.4560   -4.1820   47.2420 C   0  0  0  0  0  0  0  0  0  0  0  0
  -15.5500   -5.0250   46.3930 C   0  0  0  0  0  0  0  0  0  0  0  0
  -15.9270   -6.1680   46.0610 O   0  5  0  0  0  0  0  0  0  0  0  0
  -14.4360   -4.5510   46.0960 O   0  0  0  0  0  0  0  0  0  0  0  0
  -18.0690   -1.5270   47.5570 N   0  0  0  0  0  0  0  0  0  0  0  0
  -18.7900   -0.5550   48.3610 C   0  0  2  0  0  0  0  0  0  0  0  0
  -20.1780   -0.3670   47.7720 C   0  0  0  0  0  0  0  0  0  0  0  0
  -21.1840   -0.4100   48.4860 O   0  0  0  0  0  0  0  0  0  0  0  0
  -18.0420    0.7670   48.3860 C   0  0  0  0  0  0  0  0  0  0  0  0
  -20.2260   -0.1630   46.4600 N   0  0  0  0  0  0  0  0  0  0  0  0
  -21.4920   -0.0490   45.7620 C   0  0  2  0  0  0  0  0  0  0  0  0
  -22.3460   -1.2850   46.0390 C   0  0  0  0  0  0  0  0  0  0  0  0
  -23.5640   -1.1970   46.1510 O   0  0  0  0  0  0  0  0  0  0  0  0
  -21.2430    0.1060   44.2670 C   0  0  0  0  0  0  0  0  0  0  0  0
  -21.7850    1.3650   43.6060 C   0  0  0  0  0  0  0  0  0  0  0  0
  -21.3310    1.4310   42.1620 C   0  0  0  0  0  0  0  0  0  0  0  0
  -23.2890    1.3810   43.6820 C   0  0  0  0  0  0  0  0  0  0  0  0
  -21.6750   -2.4270   46.1770 N   0  0  0  0  0  0  0  0  0  0  0  0
  -22.3020   -3.7390   46.3420 C   0  0  2  0  0  0  0  0  0  0  0  0
  -22.9620   -3.8910   47.7010 C   0  0  0  0  0  0  0  0  0  0  0  0
  -24.0920   -4.3600   47.8020 O   0  0  0  0  0  0  0  0  0  0  0  0
  -21.2360   -4.8310   46.2090 C   0  0  0  0  0  0  0  0  0  0  0  0
  -21.6650   -6.0480   45.4120 C   0  0  0  0  0  0  0  0  0  0  0  0
  -21.7060   -5.6730   43.6470 S   0  0  0  0  0  0  0  0  0  0  0  0
  -23.1350   -6.6500   43.1540 C   0  0  0  0  0  0  0  0  0  0  0  0
  -22.2260   -3.5110   48.7420 N   0  0  0  0  0  0  0  0  0  0  0  0
  -22.7080   -3.5960   50.1100 C   0  0  2  0  0  0  0  0  0  0  0  0
  -24.1080   -3.0040   50.2100 C   0  0  0  0  0  0  0  0  0  0  0  0
  -25.0130   -3.6530   50.7230 O   0  0  0  0  0  0  0  0  0  0  0  0
  -21.7530   -2.8830   51.0510 C   0  0  0  0  0  0  0  0  0  0  0  0
  -24.3070   -1.7940   49.6900 N   0  0  0  0  0  0  0  0  0  0  0  0
  -25.6210   -1.1440   49.8360 C   0  0  2  0  0  0  0  0  0  0  0  0
  -26.8050   -2.0780   49.4790 C   0  0  0  0  0  0  0  0  0  0  0  0
  -27.9250   -1.9030   49.9710 O   0  0  0  0  0  0  0  0  0  0  0  0
  -25.6990    0.2130   49.1020 C   0  0  0  0  0  0  0  0  0  0  0  0
  -25.6660    0.0760   47.6940 O   0  0  0  0  0  0  0  0  0  0  0  0
  -26.5390   -3.0940   48.6570 N   0  0  0  0  0  0  0  0  0  0  0  0
  -27.5450   -4.1120   48.3150 C   0  0  2  0  0  0  0  0  0  0  0  0
  -27.9880   -4.9200   49.5460 C   0  0  0  0  0  0  0  0  0  0  0  0
  -27.6390   -6.0970   49.6980 O   0  5  0  0  0  0  0  0  0  0  0  0
  -27.0210   -5.0570   47.2190 C   0  0  0  0  0  0  0  0  0  0  0  0
  -27.5710   -4.9410   45.7890 C   0  0  0  0  0  0  0  0  0  0  0  0
  -28.4340   -3.7050   45.6040 C   0  0  0  0  0  0  0  0  0  0  0  0
  -26.4360   -4.9710   44.7710 C   0  0  0  0  0  0  0  0  0  0  0  0
   -6.9661   -0.8329   42.8823 H   0  0  0  0  0  0  0  0  0  0  0  0
   -7.9637   -1.2440   41.6392 H   0  0  0  0  0  0  0  0  0  0  0  0
   -8.2649   -1.8062   43.1567 H   0  0  0  0  0  0  0  0  0  0  0  0
   -8.6995    0.3372   43.9772 H   0  0  0  0  0  0  0  0  0  0  0  0
   -8.8293    2.2498   42.4102 H   0  0  0  0  0  0  0  0  0  0  0  0
   -8.1761    1.2063   41.1022 H   0  0  0  0  0  0  0  0  0  0  0  0
   -7.1682    1.5790   42.5416 H   0  0  0  0  0  0  0  0  0  0  0  0
   -9.7475   -0.0818   40.5668 H   0  0  0  0  0  0  0  0  0  0  0  0
  -12.2559    0.9523   40.8085 H   0  0  0  0  0  0  0  0  0  0  0  0
  -12.9200   -0.4068   38.8534 H   0  0  0  0  0  0  0  0  0  0  0  0
  -11.4412   -1.4027   39.0724 H   0  0  0  0  0  0  0  0  0  0  0  0
  -11.2975    0.3441   38.6790 H   0  0  0  0  0  0  0  0  0  0  0  0
  -11.5835   -2.5252   41.3169 H   0  0  0  0  0  0  0  0  0  0  0  0
  -14.1266   -3.4575   41.9108 H   0  0  0  0  0  0  0  0  0  0  0  0
  -13.0165   -5.0626   43.5035 H   0  0  0  0  0  0  0  0  0  0  0  0
  -10.7049   -4.7764   43.7077 H   0  0  0  0  0  0  0  0  0  0  0  0
  -11.4574   -6.0667   41.8076 H   0  0  0  0  0  0  0  0  0  0  0  0
  -11.4371   -4.5164   40.9004 H   0  0  0  0  0  0  0  0  0  0  0  0
  -12.9533   -5.4735   41.0094 H   0  0  0  0  0  0  0  0  0  0  0  0
  -11.9065   -1.6346   44.0855 H   0  0  0  0  0  0  0  0  0  0  0  0
  -13.2712   -2.0355   46.4956 H   0  0  0  0  0  0  0  0  0  0  0  0
  -12.2106    0.0291   47.2755 H   0  0  0  0  0  0  0  0  0  0  0  0
  -11.7511    0.4167   45.5828 H   0  0  0  0  0  0  0  0  0  0  0  0
  -11.0773   -1.0427   46.3846 H   0  0  0  0  0  0  0  0  0  0  0  0
  -13.6895    0.9035   44.3855 H   0  0  0  0  0  0  0  0  0  0  0  0
  -15.8340    1.9446   45.9371 H   0  0  0  0  0  0  0  0  0  0  0  0
  -16.3587    3.2615   43.9144 H   0  0  0  0  0  0  0  0  0  0  0  0
  -15.2705    2.2061   42.9509 H   0  0  0  0  0  0  0  0  0  0  0  0
  -14.5952    3.2403   44.2552 H   0  0  0  0  0  0  0  0  0  0  0  0
  -15.6847   -0.6894   43.6858 H   0  0  0  0  0  0  0  0  0  0  0  0
  -18.5369   -0.7476   43.0756 H   0  0  0  0  0  0  0  0  0  0  0  0
  -16.3895   -2.8696   42.6902 H   0  0  0  0  0  0  0  0  0  0  0  0
  -16.8477   -1.6036   41.5010 H   0  0  0  0  0  0  0  0  0  0  0  0
  -18.8325   -3.6784   42.4639 H   0  0  0  0  0  0  0  0  0  0  0  0
  -19.8513   -3.1384   40.2808 H   0  0  0  0  0  0  0  0  0  0  0  0
  -18.5179   -1.9823   39.9462 H   0  0  0  0  0  0  0  0  0  0  0  0
  -19.6592   -1.6702   41.2977 H   0  0  0  0  0  0  0  0  0  0  0  0
  -16.8442   -4.8485   41.5977 H   0  0  0  0  0  0  0  0  0  0  0  0
  -16.8920   -3.8333   40.1165 H   0  0  0  0  0  0  0  0  0  0  0  0
  -18.2300   -4.9808   40.4626 H   0  0  0  0  0  0  0  0  0  0  0  0
  -16.3264   -2.7780   45.0685 H   0  0  0  0  0  0  0  0  0  0  0  0
  -18.2847   -4.4982   46.1435 H   0  0  0  0  0  0  0  0  0  0  0  0
  -16.8100   -4.7911   48.0868 H   0  0  0  0  0  0  0  0  0  0  0  0
  -15.8807   -3.3255   47.6232 H   0  0  0  0  0  0  0  0  0  0  0  0
  -17.2491   -1.2326   47.0659 H   0  0  0  0  0  0  0  0  0  0  0  0
  -18.8815   -0.9323   49.3902 H   0  0  0  0  0  0  0  0  0  0  0  0
  -18.5991    1.4920   48.9976 H   0  0  0  0  0  0  0  0  0  0  0  0
  -17.9433    1.1519   47.3603 H   0  0  0  0  0  0  0  0  0  0  0  0
  -17.0421    0.6144   48.8183 H   0  0  0  0  0  0  0  0  0  0  0  0
  -19.3728   -0.0866   45.9440 H   0  0  0  0  0  0  0  0  0  0  0  0
  -22.0248    0.8410   46.1280 H   0  0  0  0  0  0  0  0  0  0  0  0
  -21.7008   -0.7576   43.7625 H   0  0  0  0  0  0  0  0  0  0  0  0
  -20.1547    0.0892   44.1078 H   0  0  0  0  0  0  0  0  0  0  0  0
  -21.3940    2.2432   44.1406 H   0  0  0  0  0  0  0  0  0  0  0  0
  -21.7280    2.3440   41.6942 H   0  0  0  0  0  0  0  0  0  0  0  0
  -21.7036    0.5494   41.6198 H   0  0  0  0  0  0  0  0  0  0  0  0
  -20.2318    1.4476   42.1236 H   0  0  0  0  0  0  0  0  0  0  0  0
  -23.6034    1.3327   44.7350 H   0  0  0  0  0  0  0  0  0  0  0  0
  -23.6929    0.5141   43.1386 H   0  0  0  0  0  0  0  0  0  0  0  0
  -23.6693    2.3080   43.2280 H   0  0  0  0  0  0  0  0  0  0  0  0
  -20.6759   -2.3852   46.1672 H   0  0  0  0  0  0  0  0  0  0  0  0
  -23.0624   -3.8687   45.5578 H   0  0  0  0  0  0  0  0  0  0  0  0
  -20.9604   -5.1646   47.2203 H   0  0  0  0  0  0  0  0  0  0  0  0
  -20.3566   -4.3918   45.7153 H   0  0  0  0  0  0  0  0  0  0  0  0
  -22.6686   -6.3581   45.7386 H   0  0  0  0  0  0  0  0  0  0  0  0
  -20.9520   -6.8664   45.5907 H   0  0  0  0  0  0  0  0  0  0  0  0
  -23.3053   -6.5313   42.0738 H   0  0  0  0  0  0  0  0  0  0  0  0
  -24.0225   -6.3056   43.7051 H   0  0  0  0  0  0  0  0  0  0  0  0
  -22.9506   -7.7102   43.3817 H   0  0  0  0  0  0  0  0  0  0  0  0
  -21.3068   -3.1535   48.5768 H   0  0  0  0  0  0  0  0  0  0  0  0
  -22.7558   -4.6561   50.3998 H   0  0  0  0  0  0  0  0  0  0  0  0
  -22.1309   -2.9559   52.0815 H   0  0  0  0  0  0  0  0  0  0  0  0
  -21.6763   -1.8242   50.7627 H   0  0  0  0  0  0  0  0  0  0  0  0
  -20.7600   -3.3523   50.9906 H   0  0  0  0  0  0  0  0  0  0  0  0
  -23.5679   -1.3289   49.2027 H   0  0  0  0  0  0  0  0  0  0  0  0
  -25.7275   -0.9167   50.9070 H   0  0  0  0  0  0  0  0  0  0  0  0
  -24.8453    0.8319   49.4152 H   0  0  0  0  0  0  0  0  0  0  0  0
  -26.6374    0.7125   49.3848 H   0  0  0  0  0  0  0  0  0  0  0  0
  -24.8556   -0.3479   47.4371 H   0  0  0  0  0  0  0  0  0  0  0  0
  -25.6243   -3.1665   48.2593 H   0  0  0  0  0  0  0  0  0  0  0  0
  -28.4284   -3.5891   47.9198 H   0  0  0  0  0  0  0  0  0  0  0  0
  -28.7191   -4.3738   50.4148 O   0  0  0  0  0  0  0  0  0  0  0  0
  -27.2259   -6.0833   47.5576 H   0  0  0  0  0  0  0  0  0  0  0  0
  -25.9338   -4.9017   47.1565 H   0  0  0  0  0  0  0  0  0  0  0  0
  -28.2083   -5.8189   45.6071 H   0  0  0  0  0  0  0  0  0  0  0  0
  -28.8026   -3.6669   44.5683 H   0  0  0  0  0  0  0  0  0  0  0  0
  -27.8363   -2.8057   45.8138 H   0  0  0  0  0  0  0  0  0  0  0  0
  -29.2882   -3.7473   46.2958 H   0  0  0  0  0  0  0  0  0  0  0  0
  -25.8277   -5.8742   44.9266 H   0  0  0  0  0  0  0  0  0  0  0  0
  -25.8060   -4.0783   44.8978 H   0  0  0  0  0  0  0  0  0  0  0  0
  -26.8556   -4.9823   43.7542 H   0  0  0  0  0  0  0  0  0  0  0  0
  1  2  1  0  0  0  0
  1 84  1  0  0  0  0
  1 85  1  0  0  0  0
  1 86  1  0  0  0  0
  2  3  1  0  0  0  0
  2  5  1  0  0  0  0
  2 87  1  1  0  0  0
  3  4  2  0  0  0  0
  3  6  1  0  0  0  0
  5 88  1  0  0  0  0
  5 89  1  0  0  0  0
  5 90  1  0  0  0  0
  6  7  1  0  0  0  0
  6 91  1  0  0  0  0
  7  8  1  0  0  0  0
  7 10  1  0  0  0  0
  7 92  1  1  0  0  0
  8  9  2  0  0  0  0
  8 11  1  0  0  0  0
 10 93  1  0  0  0  0
 10 94  1  0  0  0  0
 10 95  1  0  0  0  0
 11 12  1  0  0  0  0
 11 96  1  0  0  0  0
 12 13  1  0  0  0  0
 12 15  1  0  0  0  0
 12 97  1  6  0  0  0
 13 14  2  0  0  0  0
 13 18  1  0  0  0  0
 15 16  1  0  0  0  0
 15 17  1  0  0  0  0
 15 98  1  1  0  0  0
 16 99  1  0  0  0  0
 17100  1  0  0  0  0
 17101  1  0  0  0  0
 17102  1  0  0  0  0
 18 19  1  0  0  0  0
 18103  1  0  0  0  0
 19 20  1  0  0  0  0
 19 22  1  0  0  0  0
 19104  1  1  0  0  0
 20 21  2  0  0  0  0
 20 23  1  0  0  0  0
 22105  1  0  0  0  0
 22106  1  0  0  0  0
 22107  1  0  0  0  0
 23 24  1  0  0  0  0
 23108  1  0  0  0  0
 24 25  1  0  0  0  0
 24 27  1  0  0  0  0
 24109  1  1  0  0  0
 25 26  2  0  0  0  0
 25 28  1  0  0  0  0
 27110  1  0  0  0  0
 27111  1  0  0  0  0
 27112  1  0  0  0  0
 28 29  1  0  0  0  0
 28113  1  0  0  0  0
 29 30  1  0  0  0  0
 29 32  1  0  0  0  0
 29114  1  6  0  0  0
 30 31  2  0  0  0  0
 30 36  1  0  0  0  0
 32 33  1  0  0  0  0
 32115  1  0  0  0  0
 32116  1  0  0  0  0
 33 34  1  0  0  0  0
 33 35  1  0  0  0  0
 33117  1  0  0  0  0
 34118  1  0  0  0  0
 34119  1  0  0  0  0
 34120  1  0  0  0  0
 35121  1  0  0  0  0
 35122  1  0  0  0  0
 35123  1  0  0  0  0
 36 37  1  0  0  0  0
 36124  1  0  0  0  0
 37 38  1  0  0  0  0
 37 40  1  0  0  0  0
 37125  1  6  0  0  0
 38 39  2  0  0  0  0
 38 44  1  0  0  0  0
 40 41  1  0  0  0  0
 40126  1  0  0  0  0
 40127  1  0  0  0  0
 41 42  1  0  0  0  0
 41 43  2  0  0  0  0
 44 45  1  0  0  0  0
 44128  1  0  0  0  0
 45 46  1  0  0  0  0
 45 48  1  0  0  0  0
 45129  1  1  0  0  0
 46 47  2  0  0  0  0
 46 49  1  0  0  0  0
 48130  1  0  0  0  0
 48131  1  0  0  0  0
 48132  1  0  0  0  0
 49 50  1  0  0  0  0
 49133  1  0  0  0  0
 50 51  1  0  0  0  0
 50 53  1  0  0  0  0
 50134  1  1  0  0  0
 51 52  2  0  0  0  0
 51 57  1  0  0  0  0
 53 54  1  0  0  0  0
 53135  1  0  0  0  0
 53136  1  0  0  0  0
 54 55  1  0  0  0  0
 54 56  1  0  0  0  0
 54137  1  0  0  0  0
 55138  1  0  0  0  0
 55139  1  0  0  0  0
 55140  1  0  0  0  0
 56141  1  0  0  0  0
 56142  1  0  0  0  0
 56143  1  0  0  0  0
 57 58  1  0  0  0  0
 57144  1  0  0  0  0
 58 59  1  0  0  0  0
 58 61  1  0  0  0  0
 58145  1  6  0  0  0
 59 60  2  0  0  0  0
 59 65  1  0  0  0  0
 61 62  1  0  0  0  0
 61146  1  0  0  0  0
 61147  1  0  0  0  0
 62 63  1  0  0  0  0
 62148  1  0  0  0  0
 62149  1  0  0  0  0
 63 64  1  0  0  0  0
 64150  1  0  0  0  0
 64151  1  0  0  0  0
 64152  1  0  0  0  0
 65 66  1  0  0  0  0
 65153  1  0  0  0  0
 66 67  1  0  0  0  0
 66 69  1  0  0  0  0
 66154  1  1  0  0  0
 67 68  2  0  0  0  0
 67 70  1  0  0  0  0
 69155  1  0  0  0  0
 69156  1  0  0  0  0
 69157  1  0  0  0  0
 70 71  1  0  0  0  0
 70158  1  0  0  0  0
 71 72  1  0  0  0  0
 71 74  1  0  0  0  0
 71159  1  1  0  0  0
 72 73  2  0  0  0  0
 72 76  1  0  0  0  0
 74 75  1  0  0  0  0
 74160  1  0  0  0  0
 74161  1  0  0  0  0
 75162  1  0  0  0  0
 76 77  1  0  0  0  0
 76163  1  0  0  0  0
 77 78  1  0  0  0  0
 77 80  1  0  0  0  0
 77164  1  6  0  0  0
 78 79  1  0  0  0  0
 78165  2  0  0  0  0
 80 81  1  0  0  0  0
 80166  1  0  0  0  0
 80167  1  0  0  0  0
 81 82  1  0  0  0  0
 81 83  1  0  0  0  0
 81168  1  0  0  0  0
 82169  1  0  0  0  0
 82170  1  0  0  0  0
 82171  1  0  0  0  0
 83172  1  0  0  0  0
 83173  1  0  0  0  0
 83174  1  0  0  0  0
M  CHG  3   1   1  42  -1  79  -1
M  END
