3u3u_ligand
 OpenBabel08222323353D

 54 53  0  0  1  0  0  0  0  0999 V2000
   23.6920  -16.9320   16.1770 O   0  5  0  0  0  0  0  0  0  0  0  0
   23.0880  -15.9740   16.6820 C   0  0  0  0  0  0  0  0  0  0  0  0
   21.8460  -15.9580   16.8070 O   0  0  0  0  0  0  0  0  0  0  0  0
   23.9030  -14.7990   17.1620 C   0  0  0  0  0  0  0  0  0  0  0  0
   25.1420  -14.6560   16.2850 C   0  0  0  0  0  0  0  0  0  0  0  0
   25.4400  -13.1950   15.9650 C   0  0  0  0  0  0  0  0  0  0  0  0
   26.1010  -12.4020   17.1010 C   0  0  2  0  0  0  0  0  0  0  0  0
   26.7600  -13.2660   18.0400 O   0  0  0  0  0  0  0  0  0  0  0  0
   25.1250  -11.4870   17.8400 C   0  0  0  0  0  0  0  0  0  0  0  0
   24.0660  -10.9500   16.9120 C   0  0  0  0  0  0  0  0  0  0  0  0
   24.3310  -10.3380   15.7380 C   0  0  0  0  0  0  0  0  0  0  0  0
   23.1750   -9.8790   14.9760 C   0  0  0  0  0  0  0  0  0  0  0  0
   23.1430   -9.3560   13.7450 C   0  0  0  0  0  0  0  0  0  0  0  0
   21.7610   -9.0410   13.4020 C   0  0  0  0  0  0  0  0  0  0  0  0
   21.1890   -8.4960   12.3340 C   0  0  0  0  0  0  0  0  0  0  0  0
   21.7570   -7.9760   11.0440 C   0  0  0  0  0  0  0  0  0  0  0  0
   20.5040   -7.8790   10.1890 C   0  0  0  0  0  0  0  0  0  0  0  0
   20.1770   -6.8680    9.3780 C   0  0  0  0  0  0  0  0  0  0  0  0
   21.0650   -5.6600    9.1920 C   0  0  0  0  0  0  0  0  0  0  0  0
   20.6380   -4.5580   10.1420 C   0  0  0  0  0  0  0  0  0  0  0  0
   21.5200   -3.3260    9.9590 C   0  0  0  0  0  0  0  0  0  0  0  0
   21.4470   -2.4540   11.2090 C   0  0  0  0  0  0  0  0  0  0  0  0
   21.8640   -1.0330   10.9310 C   0  0  0  0  0  0  0  0  0  0  0  0
   24.2083  -14.9649   18.2057 H   0  0  0  0  0  0  0  0  0  0  0  0
   23.2992  -13.8818   17.0979 H   0  0  0  0  0  0  0  0  0  0  0  0
   24.9775  -15.2008   15.3437 H   0  0  0  0  0  0  0  0  0  0  0  0
   26.0046  -15.0885   16.8131 H   0  0  0  0  0  0  0  0  0  0  0  0
   24.4904  -12.7008   15.7121 H   0  0  0  0  0  0  0  0  0  0  0  0
   26.1114  -13.1668   15.0941 H   0  0  0  0  0  0  0  0  0  0  0  0
   26.8683  -11.7615   16.6417 H   0  0  0  0  0  0  0  0  0  0  0  0
   27.1561  -12.7423   18.7265 H   0  0  0  0  0  0  0  0  0  0  0  0
   25.6828  -10.6435   18.2729 H   0  0  0  0  0  0  0  0  0  0  0  0
   24.6394  -12.0574   18.6454 H   0  0  0  0  0  0  0  0  0  0  0  0
   23.0235  -11.0624   17.2062 H   0  0  0  0  0  0  0  0  0  0  0  0
   25.3497  -10.1952   15.3804 H   0  0  0  0  0  0  0  0  0  0  0  0
   22.2115   -9.9746   15.4745 H   0  0  0  0  0  0  0  0  0  0  0  0
   24.0078   -9.1922   13.1038 H   0  0  0  0  0  0  0  0  0  0  0  0
   21.0508   -9.3078   14.1832 H   0  0  0  0  0  0  0  0  0  0  0  0
   20.1059   -8.4101   12.4073 H   0  0  0  0  0  0  0  0  0  0  0  0
   22.4863   -8.6775   10.6126 H   0  0  0  0  0  0  0  0  0  0  0  0
   22.2301   -6.9922   11.1792 H   0  0  0  0  0  0  0  0  0  0  0  0
   19.8058   -8.7131   10.2423 H   0  0  0  0  0  0  0  0  0  0  0  0
   19.2363   -6.9169    8.8315 H   0  0  0  0  0  0  0  0  0  0  0  0
   20.9814   -5.3013    8.1555 H   0  0  0  0  0  0  0  0  0  0  0  0
   22.1086   -5.9381    9.4008 H   0  0  0  0  0  0  0  0  0  0  0  0
   20.7279   -4.9174   11.1777 H   0  0  0  0  0  0  0  0  0  0  0  0
   19.5915   -4.2881    9.9370 H   0  0  0  0  0  0  0  0  0  0  0  0
   21.1689   -2.7502    9.0900 H   0  0  0  0  0  0  0  0  0  0  0  0
   22.5605   -3.6420    9.7934 H   0  0  0  0  0  0  0  0  0  0  0  0
   22.1132   -2.8760   11.9758 H   0  0  0  0  0  0  0  0  0  0  0  0
   20.4122   -2.4539   11.5820 H   0  0  0  0  0  0  0  0  0  0  0  0
   21.7960   -0.4431   11.8570 H   0  0  0  0  0  0  0  0  0  0  0  0
   21.1997   -0.5982   10.1697 H   0  0  0  0  0  0  0  0  0  0  0  0
   22.9007   -1.0203   10.5635 H   0  0  0  0  0  0  0  0  0  0  0  0
  1  2  1  0  0  0  0
  2  3  2  0  0  0  0
  2  4  1  0  0  0  0
  4  5  1  0  0  0  0
  4 24  1  0  0  0  0
  4 25  1  0  0  0  0
  5  6  1  0  0  0  0
  5 26  1  0  0  0  0
  5 27  1  0  0  0  0
  6  7  1  0  0  0  0
  6 28  1  0  0  0  0
  6 29  1  0  0  0  0
  7  8  1  0  0  0  0
  7  9  1  0  0  0  0
  7 30  1  6  0  0  0
  8 31  1  0  0  0  0
  9 10  1  0  0  0  0
  9 32  1  0  0  0  0
  9 33  1  0  0  0  0
 10 11  2  0  0  0  0
 10 34  1  0  0  0  0
 11 12  1  0  0  0  0
 11 35  1  0  0  0  0
 12 13  2  0  0  0  0
 12 36  1  0  0  0  0
 13 14  1  0  0  0  0
 13 37  1  0  0  0  0
 14 15  2  0  0  0  0
 14 38  1  0  0  0  0
 15 16  1  0  0  0  0
 15 39  1  0  0  0  0
 16 17  1  0  0  0  0
 16 40  1  0  0  0  0
 16 41  1  0  0  0  0
 17 18  2  0  0  0  0
 17 42  1  0  0  0  0
 18 19  1  0  0  0  0
 18 43  1  0  0  0  0
 19 20  1  0  0  0  0
 19 44  1  0  0  0  0
 19 45  1  0  0  0  0
 20 21  1  0  0  0  0
 20 46  1  0  0  0  0
 20 47  1  0  0  0  0
 21 22  1  0  0  0  0
 21 48  1  0  0  0  0
 21 49  1  0  0  0  0
 22 23  1  0  0  0  0
 22 50  1  0  0  0  0
 22 51  1  0  0  0  0
 23 52  1  0  0  0  0
 23 53  1  0  0  0  0
 23 54  1  0  0  0  0
M  CHG  1   1  -1
M  END
