3u4o_ligand
 OpenBabel08222323353D

 42 45  0  0  1  0  0  0  0  0999 V2000
   25.8760   41.9110   46.3980 C   0  0  0  0  0  0  0  0  0  0  0  0
   25.7760   41.8360   47.7910 C   0  0  0  0  0  0  0  0  0  0  0  0
   27.4090   42.7130   41.5880 C   0  0  0  0  0  0  0  0  0  0  0  0
   24.4570   43.8860   47.8680 C   0  0  0  0  0  0  0  0  0  0  0  0
   27.6690   44.2720   43.4290 C   0  0  0  0  0  0  0  0  0  0  0  0
   28.5100   43.3100   41.0180 C   0  0  0  0  0  0  0  0  0  0  0  0
   24.5380   43.9790   46.4570 C   0  0  0  0  0  0  0  0  0  0  0  0
   24.0330   44.8860   45.4860 C   0  0  0  0  0  0  0  0  0  0  0  0
   26.9790   43.2020   42.8200 C   0  0  0  0  0  0  0  0  0  0  0  0
   25.2480   42.9950   45.7660 C   0  0  0  0  0  0  0  0  0  0  0  0
   25.0850   42.8110   48.5130 C   0  0  0  0  0  0  0  0  0  0  0  0
   24.4430   44.4640   44.2190 C   0  0  0  0  0  0  0  0  0  0  0  0
   28.7710   44.8190   42.7730 C   0  0  0  0  0  0  0  0  0  0  0  0
   22.6090   48.0220   47.0800 C   0  0  0  0  0  0  0  0  0  0  0  0
   23.4820   46.8970   46.7950 C   0  0  0  0  0  0  0  0  0  0  0  0
   21.5080   48.2100   46.3300 C   0  0  0  0  0  0  0  0  0  0  0  0
   23.2150   46.0250   45.7950 C   0  0  2  0  0  0  0  0  0  0  0  0
   21.9460   46.2330   44.9860 C   0  0  0  0  0  0  0  0  0  0  0  0
   24.2290   44.9900   42.8740 C   0  0  0  0  0  0  0  0  0  0  0  0
   25.7840   42.5140   43.4020 C   0  0  0  0  0  0  0  0  0  0  0  0
   29.1940   44.3460   41.5710 N   0  0  0  0  0  0  0  0  0  0  0  0
   25.1660   43.3180   44.4430 N   0  0  0  0  0  0  0  0  0  0  0  0
   21.1880   47.3310   45.3190 N   0  0  0  0  0  0  0  0  0  0  0  0
   29.4780   45.8700   43.3530 N   0  0  0  0  0  0  0  0  0  0  0  0
   21.6130   45.4410   44.0750 O   0  0  0  0  0  0  0  0  0  0  0  0
   23.9820   44.3320   41.8760 O   0  5  0  0  0  0  0  0  0  0  0  0
   24.1920   46.3310   42.8370 O   0  0  0  0  0  0  0  0  0  0  0  0
   24.9680   42.6760   50.2400 Cl  0  0  0  0  0  0  0  0  0  0  0  0
   26.4164   41.1625   45.8299 H   0  0  0  0  0  0  0  0  0  0  0  0
   26.2411   41.0101   48.3170 H   0  0  0  0  0  0  0  0  0  0  0  0
   26.8959   41.8938   41.0975 H   0  0  0  0  0  0  0  0  0  0  0  0
   23.9186   44.6333   48.4396 H   0  0  0  0  0  0  0  0  0  0  0  0
   27.3483   44.6612   44.3886 H   0  0  0  0  0  0  0  0  0  0  0  0
   28.8549   42.9283   40.0638 H   0  0  0  0  0  0  0  0  0  0  0  0
   22.8434   48.7072   47.8933 H   0  0  0  0  0  0  0  0  0  0  0  0
   24.3746   46.7513   47.4016 H   0  0  0  0  0  0  0  0  0  0  0  0
   20.8632   49.0659   46.5242 H   0  0  0  0  0  0  0  0  0  0  0  0
   23.7975   46.6411   45.0942 H   0  0  0  0  0  0  0  0  0  0  0  0
   26.0988   41.5517   43.8321 H   0  0  0  0  0  0  0  0  0  0  0  0
   25.0490   42.3358   42.6033 H   0  0  0  0  0  0  0  0  0  0  0  0
   30.2919   46.2732   42.8673 H   0  0  0  0  0  0  0  0  0  0  0  0
   29.1868   46.2439   44.2675 H   0  0  0  0  0  0  0  0  0  0  0  0
  1  2  2  0  0  0  0
  1 29  1  0  0  0  0
  2 11  1  0  0  0  0
  2 30  1  0  0  0  0
  3  6  2  0  0  0  0
  3 31  1  0  0  0  0
  4 11  2  0  0  0  0
  4 32  1  0  0  0  0
  5 13  1  0  0  0  0
  5 33  1  0  0  0  0
  6 21  1  0  0  0  0
  6 34  1  0  0  0  0
  7  4  1  0  0  0  0
  8  7  1  0  0  0  0
  8 17  1  0  0  0  0
  9  3  1  0  0  0  0
  9  5  2  0  0  0  0
 10  1  1  0  0  0  0
 10  7  2  0  0  0  0
 11 28  1  0  0  0  0
 12  8  2  0  0  0  0
 12 19  1  0  0  0  0
 13 21  2  0  0  0  0
 13 24  1  0  0  0  0
 14 16  1  0  0  0  0
 14 35  1  0  0  0  0
 15 14  2  0  0  0  0
 15 36  1  0  0  0  0
 16 37  1  0  0  0  0
 17 15  1  0  0  0  0
 17 18  1  0  0  0  0
 17 38  1  6  0  0  0
 18 23  1  0  0  0  0
 18 25  2  0  0  0  0
 19 26  1  0  0  0  0
 19 27  2  0  0  0  0
 20  9  1  0  0  0  0
 20 22  1  0  0  0  0
 20 39  1  0  0  0  0
 20 40  1  0  0  0  0
 22 10  1  0  0  0  0
 22 12  1  0  0  0  0
 23 16  2  0  0  0  0
 24 41  1  0  0  0  0
 24 42  1  0  0  0  0
M  CHG  1  26  -1
M  END
