3u4u_ligand
 OpenBabel08222323353D

 53 57  0  0  0  0  0  0  0  0999 V2000
   24.4270   27.2100    8.7880 C   0  0  0  0  0  0  0  0  0  0  0  0
   24.2900   26.5880   10.1560 C   0  0  0  0  0  0  0  0  0  0  0  0
   24.1080   25.3830   10.2330 O   0  0  0  0  0  0  0  0  0  0  0  0
   24.4130   27.4150   11.2770 N   0  0  0  0  0  0  0  0  0  0  0  0
   24.3410   28.8320   11.3030 C   0  0  0  0  0  0  0  0  0  0  0  0
   25.1970   29.5240   12.1540 C   0  0  0  0  0  0  0  0  0  0  0  0
   25.1920   30.9010   12.2550 C   0  0  0  0  0  0  0  0  0  0  0  0
   24.2710   31.5230   11.4240 C   0  0  0  0  0  0  0  0  0  0  0  0
   23.4030   30.8720   10.5590 C   0  0  0  0  0  0  0  0  0  0  0  0
   23.4330   29.4900   10.4960 C   0  0  0  0  0  0  0  0  0  0  0  0
   22.6180   31.8540    9.8790 C   0  0  0  0  0  0  0  0  0  0  0  0
   23.0170   33.0900   10.3310 C   0  0  0  0  0  0  0  0  0  0  0  0
   24.0110   32.8590   11.2510 N   0  0  0  0  0  0  0  0  0  0  0  0
   24.6960   33.9120   11.9990 C   0  0  0  0  0  0  0  0  0  0  0  0
   24.1660   33.7880   13.4260 C   0  0  0  0  0  0  0  0  0  0  0  0
   25.0390   34.6680   14.3140 C   0  0  0  0  0  0  0  0  0  0  0  0
   26.2520   34.8770   14.0050 O   0  5  0  0  0  0  0  0  0  0  0  0
   24.4150   35.0480   15.3460 O   0  0  0  0  0  0  0  0  0  0  0  0
   21.5680   31.6050    8.8670 C   0  0  0  0  0  0  0  0  0  0  0  0
   20.7250   32.6890    8.2800 C   0  0  0  0  0  0  0  0  0  0  0  0
   19.7940   32.4470    7.3510 C   0  0  0  0  0  0  0  0  0  0  0  0
   19.6210   31.1540    6.9200 N   0  0  0  0  0  0  0  0  0  0  0  0
   20.3580   30.1280    7.4220 C   0  0  0  0  0  0  0  0  0  0  0  0
   21.3280   30.2550    8.3920 N   0  0  0  0  0  0  0  0  0  0  0  0
   19.9730   28.9640    6.7960 C   0  0  0  0  0  0  0  0  0  0  0  0
   18.9510   29.3530    5.9090 C   0  0  0  0  0  0  0  0  0  0  0  0
   18.7580   30.6820    5.9920 N   0  0  0  0  0  0  0  0  0  0  0  0
   20.5280   27.6680    7.0230 C   0  0  0  0  0  0  0  0  0  0  0  0
   21.0470   26.6420    7.1670 N   0  0  0  0  0  0  0  0  0  0  0  0
   18.9840   33.3990    6.7670 N   0  0  0  0  0  0  0  0  0  0  0  0
   19.1790   34.8150    7.1370 C   0  0  0  0  0  0  0  0  0  0  0  0
   18.6430   35.8920    6.2280 C   0  0  0  0  0  0  0  0  0  0  0  0
   20.1210   35.6780    6.3340 C   0  0  0  0  0  0  0  0  0  0  0  0
   24.5850   28.2936    8.8921 H   0  0  0  0  0  0  0  0  0  0  0  0
   23.5100   27.0272    8.2086 H   0  0  0  0  0  0  0  0  0  0  0  0
   25.2858   26.7627    8.2661 H   0  0  0  0  0  0  0  0  0  0  0  0
   24.5682   26.9593   12.1535 H   0  0  0  0  0  0  0  0  0  0  0  0
   25.8953   28.9599   12.7616 H   0  0  0  0  0  0  0  0  0  0  0  0
   25.8483   31.4469   12.9231 H   0  0  0  0  0  0  0  0  0  0  0  0
   22.7680   28.9434    9.8372 H   0  0  0  0  0  0  0  0  0  0  0  0
   22.6241   34.0575   10.0219 H   0  0  0  0  0  0  0  0  0  0  0  0
   24.4569   34.9014   11.5819 H   0  0  0  0  0  0  0  0  0  0  0  0
   25.7849   33.7577   11.9758 H   0  0  0  0  0  0  0  0  0  0  0  0
   24.2249   32.7414   13.7595 H   0  0  0  0  0  0  0  0  0  0  0  0
   23.1210   34.1286   13.4700 H   0  0  0  0  0  0  0  0  0  0  0  0
   20.8737   33.7127    8.6205 H   0  0  0  0  0  0  0  0  0  0  0  0
   18.3998   28.6796    5.2543 H   0  0  0  0  0  0  0  0  0  0  0  0
   18.2589   33.1278    6.0876 H   0  0  0  0  0  0  0  0  0  0  0  0
   19.1202   34.9267    8.2297 H   0  0  0  0  0  0  0  0  0  0  0  0
   18.1868   36.7962    6.6573 H   0  0  0  0  0  0  0  0  0  0  0  0
   18.1132   35.6173    5.3040 H   0  0  0  0  0  0  0  0  0  0  0  0
   20.6756   35.2460    5.4880 H   0  0  0  0  0  0  0  0  0  0  0  0
   20.7493   36.4249    6.8413 H   0  0  0  0  0  0  0  0  0  0  0  0
  1  2  1  0  0  0  0
  1 34  1  0  0  0  0
  1 35  1  0  0  0  0
  1 36  1  0  0  0  0
  2  3  2  0  0  0  0
  2  4  1  0  0  0  0
  4  5  1  0  0  0  0
  4 37  1  0  0  0  0
  5  6  2  0  0  0  0
  5 10  1  0  0  0  0
  6  7  1  0  0  0  0
  6 38  1  0  0  0  0
  7  8  2  0  0  0  0
  7 39  1  0  0  0  0
  8  9  1  0  0  0  0
  8 13  1  0  0  0  0
  9 10  2  0  0  0  0
  9 11  1  0  0  0  0
 10 40  1  0  0  0  0
 11 12  2  0  0  0  0
 11 19  1  0  0  0  0
 12 13  1  0  0  0  0
 12 41  1  0  0  0  0
 13 14  1  0  0  0  0
 14 15  1  0  0  0  0
 14 42  1  0  0  0  0
 14 43  1  0  0  0  0
 15 16  1  0  0  0  0
 15 44  1  0  0  0  0
 15 45  1  0  0  0  0
 16 17  1  0  0  0  0
 16 18  2  0  0  0  0
 19 20  1  0  0  0  0
 19 24  2  0  0  0  0
 20 21  2  0  0  0  0
 20 46  1  0  0  0  0
 21 22  1  0  0  0  0
 21 30  1  0  0  0  0
 22 23  1  0  0  0  0
 22 27  1  0  0  0  0
 23 24  1  0  0  0  0
 23 25  2  0  0  0  0
 25 26  1  0  0  0  0
 25 28  1  0  0  0  0
 26 27  2  0  0  0  0
 26 47  1  0  0  0  0
 28 29  3  0  0  0  0
 30 31  1  0  0  0  0
 30 48  1  0  0  0  0
 31 32  1  0  0  0  0
 31 33  1  0  0  0  0
 31 49  1  0  0  0  0
 32 33  1  0  0  0  0
 32 50  1  0  0  0  0
 32 51  1  0  0  0  0
 33 52  1  0  0  0  0
 33 53  1  0  0  0  0
M  CHG  1  17  -1
M  END
