3u6j_ligand
 OpenBabel08222323353D

 65 69  0  0  1  0  0  0  0  0999 V2000
    8.7040   -5.3390   21.7270 N   0  0  0  0  0  0  0  0  0  0  0  0
    4.7040   -0.1390   11.1590 N   0  0  0  0  0  4  0  0  0  0  0  0
    7.9670   -8.4990   20.0460 C   0  0  0  0  0  0  0  0  0  0  0  0
    8.2380   -7.1400   20.2290 C   0  0  0  0  0  0  0  0  0  0  0  0
    8.4370   -6.6410   21.5230 C   0  0  0  0  0  0  0  0  0  0  0  0
    8.7830   -4.4850   20.7170 C   0  0  0  0  0  0  0  0  0  0  0  0
    8.5960   -4.9180   19.4070 C   0  0  0  0  0  0  0  0  0  0  0  0
    7.7050   -5.7920   16.9630 C   0  0  0  0  0  0  0  0  0  0  0  0
    8.6170   -5.1250   16.1360 C   0  0  0  0  0  0  0  0  0  0  0  0
    6.7990   -3.8860   15.1380 C   0  0  0  0  0  0  0  0  0  0  0  0
    6.3430   -5.5110   16.8720 C   0  0  0  0  0  0  0  0  0  0  0  0
    5.7480   -0.9840   11.2170 C   0  0  0  0  0  0  0  0  0  0  0  0
    4.6560   -0.9750   13.1010 C   0  0  0  0  0  0  0  0  0  0  0  0
    6.7600   -1.2750   10.1050 C   0  0  0  0  0  0  0  0  0  0  0  0
    2.9630    0.5680   12.5450 C   0  0  0  0  0  0  0  0  0  0  0  0
    1.7710    2.2650   13.7950 C   0  0  0  0  0  0  0  0  0  0  0  0
    0.5730    0.9050   12.2130 C   0  0  0  0  0  0  0  0  0  0  0  0
    8.6620   -9.3220   24.7240 C   0  0  0  0  0  0  0  0  0  0  0  0
    7.9970   -9.7220   23.5030 O   0  0  0  0  0  0  0  0  0  0  0  0
    8.0880   -8.8570   22.4410 C   0  0  0  0  0  0  0  0  0  0  0  0
    8.3570   -7.4960   22.6170 C   0  0  0  0  0  0  0  0  0  0  0  0
    7.8850   -9.3560   21.1530 C   0  0  0  0  0  0  0  0  0  0  0  0
    7.6210  -10.6950   21.0240 O   0  0  0  0  0  0  0  0  0  0  0  0
    7.1340  -11.1160   19.7370 C   0  0  0  0  0  0  0  0  0  0  0  0
    8.3200   -6.2640   19.1450 C   0  0  0  0  0  0  0  0  0  0  0  0
    8.1400   -6.7250   17.8600 O   0  0  0  0  0  0  0  0  0  0  0  0
    8.1670   -4.1640   15.2240 C   0  0  0  0  0  0  0  0  0  0  0  0
    9.9350   -5.4020   16.2350 F   0  0  0  0  0  0  0  0  0  0  0  0
    5.8980   -4.5610   15.9610 C   0  0  0  0  0  0  0  0  0  0  0  0
    6.2690   -2.9880   14.3090 N   0  0  0  0  0  0  0  0  0  0  0  0
    6.7000   -2.5790   13.1130 C   0  0  0  0  0  0  0  0  0  0  0  0
    7.7170   -2.9820   12.5480 O   0  0  0  0  0  0  0  0  0  0  0  0
    5.7570   -1.5400   12.4820 C   0  0  1  0  0  0  0  0  0  0  0  0
    4.3030   -1.2040   14.2560 O   0  0  0  0  0  0  0  0  0  0  0  0
    4.3580    0.6650    9.9540 C   0  0  0  0  0  0  0  0  0  0  0  0
    4.0800   -0.1270   12.2420 N   0  0  0  0  0  0  0  0  0  0  0  0
    2.9570    1.5890   13.4950 C   0  0  0  0  0  0  0  0  0  0  0  0
    0.5780    1.9290   13.1570 C   0  0  0  0  0  0  0  0  0  0  0  0
    1.7590    0.2280   11.9190 C   0  0  0  0  0  0  0  0  0  0  0  0
    7.8199   -8.8913   19.0462 H   0  0  0  0  0  0  0  0  0  0  0  0
    8.9951   -3.4400   20.9123 H   0  0  0  0  0  0  0  0  0  0  0  0
    8.6644   -4.2106   18.5885 H   0  0  0  0  0  0  0  0  0  0  0  0
    5.6353   -6.0303   17.5080 H   0  0  0  0  0  0  0  0  0  0  0  0
    7.4945   -2.0122   10.4614 H   0  0  0  0  0  0  0  0  0  0  0  0
    7.2784   -0.3451    9.8285 H   0  0  0  0  0  0  0  0  0  0  0  0
    6.2340   -1.6768    9.2264 H   0  0  0  0  0  0  0  0  0  0  0  0
    1.7790    3.0597   14.5322 H   0  0  0  0  0  0  0  0  0  0  0  0
   -0.3475    0.6344   11.7085 H   0  0  0  0  0  0  0  0  0  0  0  0
    8.5146  -10.0955   25.4921 H   0  0  0  0  0  0  0  0  0  0  0  0
    8.2393   -8.3697   25.0768 H   0  0  0  0  0  0  0  0  0  0  0  0
    9.7378   -9.1967   24.5316 H   0  0  0  0  0  0  0  0  0  0  0  0
    8.5047   -7.1033   23.6165 H   0  0  0  0  0  0  0  0  0  0  0  0
    6.9577  -12.2017   19.7489 H   0  0  0  0  0  0  0  0  0  0  0  0
    7.8799  -10.8741   18.9656 H   0  0  0  0  0  0  0  0  0  0  0  0
    6.1921  -10.5941   19.5127 H   0  0  0  0  0  0  0  0  0  0  0  0
    8.8725   -3.6396   14.5897 H   0  0  0  0  0  0  0  0  0  0  0  0
    4.8388   -4.3421   15.8892 H   0  0  0  0  0  0  0  0  0  0  0  0
    5.4252   -2.5572   14.6290 H   0  0  0  0  0  0  0  0  0  0  0  0
    6.4375   -0.7613   12.8568 H   0  0  0  0  0  0  0  0  0  0  0  0
    5.0798    0.4522    9.1516 H   0  0  0  0  0  0  0  0  0  0  0  0
    4.3936    1.7354   10.2048 H   0  0  0  0  0  0  0  0  0  0  0  0
    3.3452    0.4011    9.6155 H   0  0  0  0  0  0  0  0  0  0  0  0
    3.8758    1.8594   14.0027 H   0  0  0  0  0  0  0  0  0  0  0  0
   -0.3372    2.4597   13.3934 H   0  0  0  0  0  0  0  0  0  0  0  0
    1.7462   -0.5760   11.1920 H   0  0  0  0  0  0  0  0  0  0  0  0
  2 35  1  0  0  0  0
  3 22  2  0  0  0  0
  3 40  1  0  0  0  0
  4  3  1  0  0  0  0
  4  5  1  0  0  0  0
  5  1  2  0  0  0  0
  5 21  1  0  0  0  0
  6  1  1  0  0  0  0
  6 41  1  0  0  0  0
  7  6  2  0  0  0  0
  7 42  1  0  0  0  0
  8 26  1  0  0  0  0
  9  8  2  0  0  0  0
  9 28  1  0  0  0  0
 10 27  2  0  0  0  0
 10 29  1  0  0  0  0
 11  8  1  0  0  0  0
 11 43  1  0  0  0  0
 12  2  2  0  0  0  0
 12 14  1  0  0  0  0
 13 34  2  0  0  0  0
 13 36  1  0  0  0  0
 14 44  1  0  0  0  0
 14 45  1  0  0  0  0
 14 46  1  0  0  0  0
 15 37  2  0  0  0  0
 15 39  1  0  0  0  0
 16 38  2  0  0  0  0
 16 47  1  0  0  0  0
 17 38  1  0  0  0  0
 17 48  1  0  0  0  0
 18 49  1  0  0  0  0
 18 50  1  0  0  0  0
 18 51  1  0  0  0  0
 19 18  1  0  0  0  0
 20 19  1  0  0  0  0
 21 20  2  0  0  0  0
 21 52  1  0  0  0  0
 22 20  1  0  0  0  0
 22 23  1  0  0  0  0
 23 24  1  0  0  0  0
 24 53  1  0  0  0  0
 24 54  1  0  0  0  0
 24 55  1  0  0  0  0
 25  4  2  0  0  0  0
 25  7  1  0  0  0  0
 26 25  1  0  0  0  0
 27  9  1  0  0  0  0
 27 56  1  0  0  0  0
 29 11  2  0  0  0  0
 29 57  1  0  0  0  0
 30 10  1  0  0  0  0
 30 58  1  0  0  0  0
 31 30  1  0  0  0  0
 31 32  2  0  0  0  0
 31 33  1  0  0  0  0
 33 12  1  0  0  0  0
 33 13  1  0  0  0  0
 33 59  1  1  0  0  0
 35 60  1  0  0  0  0
 35 61  1  0  0  0  0
 35 62  1  0  0  0  0
 36  2  1  0  0  0  0
 36 15  1  0  0  0  0
 37 16  1  0  0  0  0
 37 63  1  0  0  0  0
 38 64  1  0  0  0  0
 39 17  2  0  0  0  0
 39 65  1  0  0  0  0
M  END
