3u9n_ligand
 OpenBabel08222323353D

 50 54  0  0  0  0  0  0  0  0999 V2000
    6.9320   -5.2320   12.2840 C   0  0  0  0  0  0  0  0  0  0  0  0
    6.2820   -4.2660   11.5650 C   0  0  0  0  0  0  0  0  0  0  0  0
    6.9910   -3.3430   10.8120 C   0  0  0  0  0  0  0  0  0  0  0  0
    8.3760   -3.3890   10.7940 C   0  0  0  0  0  0  0  0  0  0  0  0
    9.0640   -4.3920   11.5330 C   0  0  0  0  0  0  0  0  0  0  0  0
    8.3210   -5.2890   12.2890 C   0  0  0  0  0  0  0  0  0  0  0  0
   10.4640   -4.3870   11.5550 N   0  0  0  0  0  0  0  0  0  0  0  0
   11.1250   -5.7050   11.6860 C   0  0  0  0  0  0  0  0  0  0  0  0
   12.6620   -5.5330   11.5820 C   0  0  0  0  0  0  0  0  0  0  0  0
   13.2360   -4.5610   12.5610 N   0  3  0  0  0  0  0  0  0  0  0  0
   12.5700   -3.2700   12.3650 C   0  0  0  0  0  0  0  0  0  0  0  0
   11.0380   -3.3510   12.4970 C   0  0  0  0  0  0  0  0  0  0  0  0
    9.1760   -2.5070   10.0470 N   0  0  0  0  0  0  0  0  0  0  0  0
    8.8850   -1.3130    9.4330 C   0  0  0  0  0  0  0  0  0  0  0  0
    7.8710   -0.6450    9.5370 O   0  0  0  0  0  0  0  0  0  0  0  0
    9.9930   -0.8610    8.6120 C   0  0  0  0  0  0  0  0  0  0  0  0
   11.2310   -1.5580    8.5830 N   0  0  0  0  0  0  0  0  0  0  0  0
   12.0840   -0.9650    7.7620 C   0  0  0  0  0  0  0  0  0  0  0  0
   11.4740    0.4520    7.0280 S   0  0  0  0  0  0  0  0  0  0  0  0
    9.9560    0.2610    7.8200 C   0  0  0  0  0  0  0  0  0  0  0  0
   13.4760   -1.4020    7.5370 C   0  0  0  0  0  0  0  0  0  0  0  0
   14.3930   -0.6580    6.7390 C   0  0  0  0  0  0  0  0  0  0  0  0
   15.7190   -1.0600    6.5750 C   0  0  0  0  0  0  0  0  0  0  0  0
   16.1210   -2.2040    7.2350 C   0  0  0  0  0  0  0  0  0  0  0  0
   15.2590   -2.9390    8.0320 C   0  0  0  0  0  0  0  0  0  0  0  0
   13.9330   -2.5450    8.1980 C   0  0  0  0  0  0  0  0  0  0  0  0
   17.3950   -2.7290    7.1650 O   0  0  0  0  0  0  0  0  0  0  0  0
   17.4150   -3.7600    8.2100 C   0  0  0  0  0  0  0  0  0  0  0  0
   15.9730   -4.1190    8.5910 C   0  0  0  0  0  0  0  0  0  0  0  0
    6.3607   -5.9567   12.8528 H   0  0  0  0  0  0  0  0  0  0  0  0
    5.1991   -4.2220   11.5845 H   0  0  0  0  0  0  0  0  0  0  0  0
    6.4642   -2.5882   10.2395 H   0  0  0  0  0  0  0  0  0  0  0  0
    8.8272   -6.0383   12.8868 H   0  0  0  0  0  0  0  0  0  0  0  0
   10.7766   -6.3700   10.8821 H   0  0  0  0  0  0  0  0  0  0  0  0
   10.8719   -6.1454   12.6617 H   0  0  0  0  0  0  0  0  0  0  0  0
   12.9024   -5.1833   10.5671 H   0  0  0  0  0  0  0  0  0  0  0  0
   13.1314   -6.5130   11.7530 H   0  0  0  0  0  0  0  0  0  0  0  0
   14.2266   -4.4618   12.4032 H   0  0  0  0  0  0  0  0  0  0  0  0
   13.0766   -4.8884   13.5009 H   0  0  0  0  0  0  0  0  0  0  0  0
   12.8149   -2.8996   11.3586 H   0  0  0  0  0  0  0  0  0  0  0  0
   12.9488   -2.5634   13.1181 H   0  0  0  0  0  0  0  0  0  0  0  0
   10.7805   -3.6238   13.5311 H   0  0  0  0  0  0  0  0  0  0  0  0
   10.6044   -2.3687   12.2580 H   0  0  0  0  0  0  0  0  0  0  0  0
   10.1262   -2.8011    9.9442 H   0  0  0  0  0  0  0  0  0  0  0  0
    9.1006    0.9259    7.7100 H   0  0  0  0  0  0  0  0  0  0  0  0
   14.0510    0.2448    6.2460 H   0  0  0  0  0  0  0  0  0  0  0  0
   16.4061   -0.4966    5.9541 H   0  0  0  0  0  0  0  0  0  0  0  0
   13.2650   -3.1174    8.8313 H   0  0  0  0  0  0  0  0  0  0  0  0
   18.3110   -4.1999    8.6454 H   0  0  0  0  0  0  0  0  0  0  0  0
   15.5835   -4.9881    9.1191 H   0  0  0  0  0  0  0  0  0  0  0  0
  1  2  2  0  0  0  0
  1  6  1  0  0  0  0
  1 30  1  0  0  0  0
  2  3  1  0  0  0  0
  2 31  1  0  0  0  0
  3  4  2  0  0  0  0
  3 32  1  0  0  0  0
  4  5  1  0  0  0  0
  4 13  1  0  0  0  0
  5  6  2  0  0  0  0
  5  7  1  0  0  0  0
  6 33  1  0  0  0  0
  7  8  1  0  0  0  0
  7 12  1  0  0  0  0
  8  9  1  0  0  0  0
  8 34  1  0  0  0  0
  8 35  1  0  0  0  0
  9 10  1  0  0  0  0
  9 36  1  0  0  0  0
  9 37  1  0  0  0  0
 10 11  1  0  0  0  0
 10 38  1  0  0  0  0
 10 39  1  0  0  0  0
 11 12  1  0  0  0  0
 11 40  1  0  0  0  0
 11 41  1  0  0  0  0
 12 42  1  0  0  0  0
 12 43  1  0  0  0  0
 13 14  1  0  0  0  0
 13 44  1  0  0  0  0
 14 15  2  0  0  0  0
 14 16  1  0  0  0  0
 16 17  1  0  0  0  0
 16 20  2  0  0  0  0
 17 18  2  0  0  0  0
 18 19  1  0  0  0  0
 18 21  1  0  0  0  0
 19 20  1  0  0  0  0
 20 45  1  0  0  0  0
 21 22  2  0  0  0  0
 21 26  1  0  0  0  0
 22 23  1  0  0  0  0
 22 46  1  0  0  0  0
 23 24  2  0  0  0  0
 23 47  1  0  0  0  0
 24 25  1  0  0  0  0
 24 27  1  0  0  0  0
 25 26  2  0  0  0  0
 25 29  1  0  0  0  0
 26 48  1  0  0  0  0
 27 28  1  0  0  0  0
 28 29  2  0  0  0  0
 28 49  1  0  0  0  0
 29 50  1  0  0  0  0
M  CHG  1  10   1
M  END
