3ua9_ligand
 OpenBabel08222323353D

 52 57  0  0  1  0  0  0  0  0999 V2000
    5.9360   -1.8780    5.3260 C   0  0  0  0  0  0  0  0  0  0  0  0
    6.2830   -3.0610    4.7580 N   0  0  0  0  0  0  0  0  0  0  0  0
    6.7880   -3.1290    3.5290 C   0  0  0  0  0  0  0  0  0  0  0  0
    6.9990   -1.9520    2.7920 C   0  0  0  0  0  0  0  0  0  0  0  0
    6.6600   -0.7070    3.3360 C   0  0  0  0  0  0  0  0  0  0  0  0
    6.1190   -0.6700    4.6220 C   0  0  0  0  0  0  0  0  0  0  0  0
    5.7730    0.5450    5.2010 C   0  0  0  0  0  0  0  0  0  0  0  0
    5.2350    0.5790    6.4760 C   0  0  0  0  0  0  0  0  0  0  0  0
    5.0690   -0.6160    7.1760 C   0  0  0  0  0  0  0  0  0  0  0  0
    5.4270   -1.8550    6.6230 C   0  0  0  0  0  0  0  0  0  0  0  0
    5.2340   -3.0360    7.2450 N   0  0  0  0  0  0  0  0  0  0  0  0
    4.4890   -3.2080    8.3470 C   0  0  0  0  0  0  0  0  0  0  0  0
    3.9460   -2.3050    8.9480 O   0  0  0  0  0  0  0  0  0  0  0  0
    4.2950   -4.6510    8.7750 C   0  0  0  0  0  0  0  0  0  0  0  0
    5.3730   -5.5170    8.8170 C   0  0  0  0  0  0  0  0  0  0  0  0
    5.2170   -6.8560    9.1690 C   0  0  0  0  0  0  0  0  0  0  0  0
    3.0400   -5.1480    9.0690 C   0  0  0  0  0  0  0  0  0  0  0  0
    2.8700   -6.4870    9.4340 C   0  0  0  0  0  0  0  0  0  0  0  0
    3.9580   -7.3380    9.4890 C   0  0  0  0  0  0  0  0  0  0  0  0
    3.8030   -8.6110    9.8060 N   0  0  0  0  0  0  0  0  0  0  0  0
    3.7340   -9.1130   11.0270 C   0  0  0  0  0  0  0  0  0  0  0  0
    3.7980   -8.4520   12.0440 O   0  0  0  0  0  0  0  0  0  0  0  0
    3.5570  -10.6140   11.0050 C   0  0  2  0  0  0  0  0  0  0  0  0
    4.8260  -11.3500   11.4390 C   0  0  1  0  0  0  0  0  0  0  0  0
    4.6380  -12.6430   10.6500 C   0  0  0  0  0  0  0  0  0  0  0  0
    6.1000  -10.8200   10.7610 C   0  0  0  0  0  0  0  0  0  0  0  0
    5.9750  -11.3140    9.3150 C   0  0  0  0  0  0  0  0  0  0  0  0
    4.6120  -11.9850    9.2970 C   0  0  2  0  0  0  0  0  0  0  0  0
    3.4870  -10.9520    9.5200 C   0  0  2  0  0  0  0  0  0  0  0  0
    3.7610   -9.5900    8.8850 C   0  0  0  0  0  0  0  0  0  0  0  0
    3.7980   -9.4200    7.6710 O   0  0  0  0  0  0  0  0  0  0  0  0
    7.0363   -4.0916    3.0969 H   0  0  0  0  0  0  0  0  0  0  0  0
    7.4263   -2.0077    1.7973 H   0  0  0  0  0  0  0  0  0  0  0  0
    6.8140    0.2058    2.7720 H   0  0  0  0  0  0  0  0  0  0  0  0
    5.9247    1.4680    4.6531 H   0  0  0  0  0  0  0  0  0  0  0  0
    4.9463    1.5225    6.9248 H   0  0  0  0  0  0  0  0  0  0  0  0
    4.6514   -0.5867    8.1759 H   0  0  0  0  0  0  0  0  0  0  0  0
    5.6790   -3.8427    6.8560 H   0  0  0  0  0  0  0  0  0  0  0  0
    6.3611   -5.1455    8.5705 H   0  0  0  0  0  0  0  0  0  0  0  0
    6.0758   -7.5170    9.1924 H   0  0  0  0  0  0  0  0  0  0  0  0
    2.1779   -4.4930    9.0162 H   0  0  0  0  0  0  0  0  0  0  0  0
    1.8809   -6.8593    9.6749 H   0  0  0  0  0  0  0  0  0  0  0  0
    2.6739  -10.9316   11.5787 H   0  0  0  0  0  0  0  0  0  0  0  0
    4.9221  -11.4510   12.5301 H   0  0  0  0  0  0  0  0  0  0  0  0
    3.6967  -13.1579   10.8923 H   0  0  0  0  0  0  0  0  0  0  0  0
    5.4793  -13.3417   10.7687 H   0  0  0  0  0  0  0  0  0  0  0  0
    7.0000  -11.2329   11.2400 H   0  0  0  0  0  0  0  0  0  0  0  0
    6.1360   -9.7212   10.7983 H   0  0  0  0  0  0  0  0  0  0  0  0
    6.7720  -12.0324    9.0728 H   0  0  0  0  0  0  0  0  0  0  0  0
    6.0108  -10.4737    8.6061 H   0  0  0  0  0  0  0  0  0  0  0  0
    4.4479  -12.6462    8.4334 H   0  0  0  0  0  0  0  0  0  0  0  0
    2.5133  -11.3565    9.2066 H   0  0  0  0  0  0  0  0  0  0  0  0
  1  2  2  0  0  0  0
  1  6  1  0  0  0  0
  1 10  1  0  0  0  0
  2  3  1  0  0  0  0
  3  4  2  0  0  0  0
  3 32  1  0  0  0  0
  4  5  1  0  0  0  0
  4 33  1  0  0  0  0
  5  6  2  0  0  0  0
  5 34  1  0  0  0  0
  6  7  1  0  0  0  0
  7  8  2  0  0  0  0
  7 35  1  0  0  0  0
  8  9  1  0  0  0  0
  8 36  1  0  0  0  0
  9 10  2  0  0  0  0
  9 37  1  0  0  0  0
 10 11  1  0  0  0  0
 11 12  1  0  0  0  0
 11 38  1  0  0  0  0
 12 13  2  0  0  0  0
 12 14  1  0  0  0  0
 14 15  2  0  0  0  0
 14 17  1  0  0  0  0
 15 16  1  0  0  0  0
 15 39  1  0  0  0  0
 16 19  2  0  0  0  0
 16 40  1  0  0  0  0
 17 18  2  0  0  0  0
 17 41  1  0  0  0  0
 18 19  1  0  0  0  0
 18 42  1  0  0  0  0
 19 20  1  0  0  0  0
 20 21  1  0  0  0  0
 20 30  1  0  0  0  0
 21 22  2  0  0  0  0
 21 23  1  0  0  0  0
 23 24  1  0  0  0  0
 23 29  1  0  0  0  0
 23 43  1  1  0  0  0
 24 25  1  0  0  0  0
 24 26  1  0  0  0  0
 24 44  1  1  0  0  0
 25 28  1  0  0  0  0
 25 45  1  0  0  0  0
 25 46  1  0  0  0  0
 26 27  1  0  0  0  0
 26 47  1  0  0  0  0
 26 48  1  0  0  0  0
 27 28  1  0  0  0  0
 27 49  1  0  0  0  0
 27 50  1  0  0  0  0
 28 29  1  0  0  0  0
 28 51  1  6  0  0  0
 29 30  1  0  0  0  0
 29 52  1  6  0  0  0
 30 31  2  0  0  0  0
M  END
