3ud5_ligand
 OpenBabel08222323353D

 76 81  0  0  1  0  0  0  0  0999 V2000
   20.7030    5.8660    2.4850 C   0  0  1  0  0  0  0  0  0  0  0  0
   22.6820    5.2950    5.2710 N   0  0  0  0  0  0  0  0  0  0  0  0
   20.9620    5.6960    3.8640 O   0  0  0  0  0  0  0  0  0  0  0  0
   18.3160    4.2010    2.4150 S   0  0  0  0  0  0  0  0  0  0  0  0
   21.7210    4.9290    1.7760 C   0  0  1  0  0  0  0  0  0  0  0  0
   23.3740    5.4700    7.3970 N   0  0  0  0  0  0  0  0  0  0  0  0
   22.1950    5.4360    0.5820 O   0  0  0  0  0  0  0  0  0  0  0  0
   22.9240    4.8700    2.7810 C   0  0  1  0  0  0  0  0  0  0  0  0
   23.3330    3.2540    9.2810 N   0  0  0  0  0  0  0  0  0  0  0  0
   24.1230    5.3520    2.2800 O   0  0  0  0  0  0  0  0  0  0  0  0
   22.3720    5.7400    3.9590 C   0  0  2  0  0  0  0  0  0  0  0  0
   22.4010    1.8920    7.5190 N   0  0  0  0  0  0  0  0  0  0  0  0
   11.0710   -1.1910    9.5700 O   0  0  0  0  0  0  0  0  0  0  0  0
   23.2020    6.1100    6.2580 C   0  0  0  0  0  0  0  0  0  0  0  0
   22.0050    2.8810    5.2990 N   0  0  0  0  0  0  0  0  0  0  0  0
   22.9390    4.1990    7.1650 C   0  0  0  0  0  0  0  0  0  0  0  0
   15.1400    3.7430    5.8120 N   0  3  2  0  0  0  0  0  0  0  0  0
   22.8830    3.0980    8.0160 C   0  0  0  0  0  0  0  0  0  0  0  0
   21.9960    1.8780    6.2100 C   0  0  0  0  0  0  0  0  0  0  0  0
    7.5570    0.9370   10.0510 N   0  0  0  0  0  0  0  0  0  0  0  0
   22.4920    4.0320    5.8300 C   0  0  0  0  0  0  0  0  0  0  0  0
    6.8520   -0.7580   11.4980 N   0  0  0  0  0  0  0  0  0  0  0  0
   19.2000    5.7580    2.1580 C   0  0  0  0  0  0  0  0  0  0  0  0
    9.0230   -0.9820   10.5180 N   0  0  0  0  0  0  0  0  0  0  0  0
   17.0630    4.5250    3.7320 C   0  0  1  0  0  0  0  0  0  0  0  0
   10.7660    1.2710    8.1450 N   0  0  0  0  0  0  0  0  0  0  0  0
   15.7050    3.9590    3.3030 C   0  0  0  0  0  0  0  0  0  0  0  0
    8.2540    2.6470    8.5870 N   0  0  0  0  0  0  0  0  0  0  0  0
   14.6870    4.1590    4.4450 C   0  0  0  0  0  0  0  0  0  0  0  0
   16.5380    4.1460    6.1430 C   0  0  0  0  0  0  0  0  0  0  0  0
   17.5400    3.8580    5.0330 C   0  0  0  0  0  0  0  0  0  0  0  0
   14.8570    2.3250    6.1510 C   0  0  0  0  0  0  0  0  0  0  0  0
   11.3590    3.2130    6.6130 C   0  0  0  0  0  0  0  0  0  0  0  0
    7.8330   -0.2550   10.6690 C   0  0  2  0  0  3  0  0  0  0  0  0
   10.0720   -0.5120    9.6630 C   0  0  0  0  0  0  0  0  0  0  0  0
   10.4390    2.4710    7.5640 C   0  0  0  0  0  0  0  0  0  0  0  0
    9.1960    3.1240    7.7840 C   0  0  0  0  0  0  0  0  0  0  0  0
    8.5550    1.4280    9.2140 C   0  0  0  0  0  0  0  0  0  0  0  0
    9.7960    0.7610    8.9850 C   0  0  0  0  0  0  0  0  0  0  0  0
   13.5910    2.3440    7.0300 C   0  0  0  0  0  0  0  0  0  0  0  0
   12.4520    2.4250    6.0770 N   0  3  0  0  0  0  0  0  0  0  0  0
   20.9819    6.8939    2.2099 H   0  0  0  0  0  0  0  0  0  0  0  0
   21.2801    3.9352    1.6088 H   0  0  0  0  0  0  0  0  0  0  0  0
   22.6325    6.2639    0.7422 H   0  0  0  0  0  0  0  0  0  0  0  0
   23.0892    3.8339    3.1114 H   0  0  0  0  0  0  0  0  0  0  0  0
   23.6791    4.1719    9.5950 H   0  0  0  0  0  0  0  0  0  0  0  0
   23.3298    2.4550    9.9310 H   0  0  0  0  0  0  0  0  0  0  0  0
   24.3751    4.8416    1.5194 H   0  0  0  0  0  0  0  0  0  0  0  0
   22.7401    6.7695    3.8379 H   0  0  0  0  0  0  0  0  0  0  0  0
   23.4425    7.1620    6.1113 H   0  0  0  0  0  0  0  0  0  0  0  0
   14.5621    4.2773    6.4417 H   0  0  0  0  0  0  0  0  0  0  0  0
   21.6138    0.9288    5.8521 H   0  0  0  0  0  0  0  0  0  0  0  0
    6.6684    1.4371   10.1966 H   0  0  0  0  0  0  0  0  0  0  0  0
    7.0014   -1.6503   11.9903 H   0  0  0  0  0  0  0  0  0  0  0  0
    5.9701   -0.2413   11.6248 H   0  0  0  0  0  0  0  0  0  0  0  0
   19.0898    6.0112    1.0932 H   0  0  0  0  0  0  0  0  0  0  0  0
   18.6888    6.5157    2.7700 H   0  0  0  0  0  0  0  0  0  0  0  0
    9.1410   -1.8418   11.0149 H   0  0  0  0  0  0  0  0  0  0  0  0
   16.9679    5.6092    3.8912 H   0  0  0  0  0  0  0  0  0  0  0  0
   15.8064    2.8857    3.0846 H   0  0  0  0  0  0  0  0  0  0  0  0
   15.3553    4.4850    2.4024 H   0  0  0  0  0  0  0  0  0  0  0  0
   14.4335    5.2286    4.4858 H   0  0  0  0  0  0  0  0  0  0  0  0
   13.7863    3.5779    4.1980 H   0  0  0  0  0  0  0  0  0  0  0  0
   16.8523    3.5993    7.0443 H   0  0  0  0  0  0  0  0  0  0  0  0
   16.5482    5.2268    6.3475 H   0  0  0  0  0  0  0  0  0  0  0  0
   18.5244    4.2610    5.3131 H   0  0  0  0  0  0  0  0  0  0  0  0
   17.6182    2.7713    4.8815 H   0  0  0  0  0  0  0  0  0  0  0  0
   15.7009    1.8886    6.7054 H   0  0  0  0  0  0  0  0  0  0  0  0
   14.6784    1.7413    5.2359 H   0  0  0  0  0  0  0  0  0  0  0  0
   11.7888    4.0696    7.1529 H   0  0  0  0  0  0  0  0  0  0  0  0
   10.7551    3.5772    5.7688 H   0  0  0  0  0  0  0  0  0  0  0  0
    9.0081    4.0594    7.2694 H   0  0  0  0  0  0  0  0  0  0  0  0
   13.5982    3.2188    7.6969 H   0  0  0  0  0  0  0  0  0  0  0  0
   13.5256    1.4251    7.6311 H   0  0  0  0  0  0  0  0  0  0  0  0
   12.7721    2.8501    5.2209 H   0  0  0  0  0  0  0  0  0  0  0  0
   12.1195    1.4929    5.8855 H   0  0  0  0  0  0  0  0  0  0  0  0
  1  3  1  0  0  0  0
  1  5  1  0  0  0  0
  1 42  1  6  0  0  0
  2 14  1  0  0  0  0
  2 21  1  0  0  0  0
  3 11  1  0  0  0  0
  4 23  1  0  0  0  0
  5  7  1  0  0  0  0
  5  8  1  0  0  0  0
  5 43  1  6  0  0  0
  7 44  1  0  0  0  0
  8 10  1  0  0  0  0
  8 11  1  0  0  0  0
  8 45  1  1  0  0  0
  9 46  1  0  0  0  0
  9 47  1  0  0  0  0
 10 48  1  0  0  0  0
 11  2  1  0  0  0  0
 11 49  1  6  0  0  0
 14  6  2  0  0  0  0
 14 50  1  0  0  0  0
 15 19  2  0  0  0  0
 16  6  1  0  0  0  0
 16 18  1  0  0  0  0
 17 29  1  0  0  0  0
 17 30  1  0  0  0  0
 17 51  1  1  0  0  0
 18  9  1  0  0  0  0
 18 12  2  0  0  0  0
 19 12  1  0  0  0  0
 19 52  1  0  0  0  0
 20 34  1  0  0  0  0
 20 53  1  0  0  0  0
 21 15  1  0  0  0  0
 21 16  2  0  0  0  0
 22 54  1  0  0  0  0
 22 55  1  0  0  0  0
 23  1  1  0  0  0  0
 23 56  1  0  0  0  0
 23 57  1  0  0  0  0
 24 34  1  0  0  0  0
 24 58  1  0  0  0  0
 25  4  1  0  0  0  0
 25 59  1  1  0  0  0
 26 39  1  0  0  0  0
 27 25  1  0  0  0  0
 27 60  1  0  0  0  0
 27 61  1  0  0  0  0
 28 38  1  0  0  0  0
 29 27  1  0  0  0  0
 29 62  1  0  0  0  0
 29 63  1  0  0  0  0
 30 31  1  0  0  0  0
 30 64  1  0  0  0  0
 30 65  1  0  0  0  0
 31 25  1  0  0  0  0
 31 66  1  0  0  0  0
 31 67  1  0  0  0  0
 32 17  1  0  0  0  0
 32 68  1  0  0  0  0
 32 69  1  0  0  0  0
 33 36  1  0  0  0  0
 33 70  1  0  0  0  0
 33 71  1  0  0  0  0
 34 22  1  1  0  0  0
 35 13  2  0  0  0  0
 35 24  1  0  0  0  0
 36 26  2  0  0  0  0
 36 37  1  0  0  0  0
 37 28  2  0  0  0  0
 37 72  1  0  0  0  0
 38 20  1  0  0  0  0
 39 35  1  0  0  0  0
 39 38  2  0  0  0  0
 40 32  1  0  0  0  0
 40 41  1  0  0  0  0
 40 73  1  0  0  0  0
 40 74  1  0  0  0  0
 41 33  1  0  0  0  0
 41 75  1  0  0  0  0
 41 76  1  0  0  0  0
M  CHG  2  17   1  41   1
M  END
