3udm_ligand
 OpenBabel08222323353D

 43 46  0  0  1  0  0  0  0  0999 V2000
   16.8290   41.7660   43.1790 C   0  0  0  0  0  0  0  0  0  0  0  0
   26.5550   37.4100   40.1960 C   0  0  0  0  0  0  0  0  0  0  0  0
   17.3590   41.0580   44.2530 C   0  0  0  0  0  0  0  0  0  0  0  0
   16.6240   41.1110   41.9540 C   0  0  0  0  0  0  0  0  0  0  0  0
   27.0940   37.5700   41.4730 C   0  0  0  0  0  0  0  0  0  0  0  0
   25.2340   36.9890   40.0620 C   0  0  0  0  0  0  0  0  0  0  0  0
   17.7450   39.7210   44.0880 C   0  0  0  0  0  0  0  0  0  0  0  0
   16.9880   39.7670   41.7980 C   0  0  0  0  0  0  0  0  0  0  0  0
   26.3380   37.3120   42.5990 C   0  0  0  0  0  0  0  0  0  0  0  0
   24.4650   36.7690   41.1950 C   0  0  0  0  0  0  0  0  0  0  0  0
   17.5490   39.0570   42.8720 C   0  0  0  0  0  0  0  0  0  0  0  0
   25.0190   36.9060   42.4660 C   0  0  0  0  0  0  0  0  0  0  0  0
   23.0040   36.1210   42.7310 C   0  0  0  0  0  0  0  0  0  0  0  0
   19.8050   36.4910   41.2360 C   0  0  0  0  0  0  0  0  0  0  0  0
   22.0600   37.4630   40.9000 C   0  0  0  0  0  0  0  0  0  0  0  0
   22.7270   35.1310   40.4290 C   0  0  0  0  0  0  0  0  0  0  0  0
   20.9150   36.7330   40.2390 C   0  0  1  0  0  0  0  0  0  0  0  0
   23.0460   36.3690   41.2550 C   0  0  1  0  0  0  0  0  0  0  0  0
   18.0070   37.6090   42.6950 C   0  0  0  0  0  0  0  0  0  0  0  0
   24.0630   36.6240   43.3840 N   0  0  0  0  0  0  0  0  0  0  0  0
   21.5010   35.4910   39.7780 N   0  3  0  0  0  0  0  0  0  0  0  0
   21.8840   36.1080   43.3340 O   0  0  0  0  0  0  0  0  0  0  0  0
   19.3780   35.3660   41.4160 O   0  0  0  0  0  0  0  0  0  0  0  0
   19.1120   37.6330   41.7830 O   0  0  0  0  0  0  0  0  0  0  0  0
   16.5764   42.8146   43.2870 H   0  0  0  0  0  0  0  0  0  0  0  0
   27.1577   37.6111   39.3177 H   0  0  0  0  0  0  0  0  0  0  0  0
   17.4733   41.5404   45.2170 H   0  0  0  0  0  0  0  0  0  0  0  0
   16.1812   41.6487   41.1235 H   0  0  0  0  0  0  0  0  0  0  0  0
   28.1203   37.9014   41.5825 H   0  0  0  0  0  0  0  0  0  0  0  0
   24.8091   36.8341   39.0769 H   0  0  0  0  0  0  0  0  0  0  0  0
   18.2030   39.1924   44.9162 H   0  0  0  0  0  0  0  0  0  0  0  0
   16.8360   39.2735   40.8449 H   0  0  0  0  0  0  0  0  0  0  0  0
   26.7745   37.4266   43.5846 H   0  0  0  0  0  0  0  0  0  0  0  0
   21.7176   37.9874   41.8043 H   0  0  0  0  0  0  0  0  0  0  0  0
   22.5135   38.1862   40.2062 H   0  0  0  0  0  0  0  0  0  0  0  0
   22.5898   34.2496   41.0727 H   0  0  0  0  0  0  0  0  0  0  0  0
   23.5209   34.9290   39.6949 H   0  0  0  0  0  0  0  0  0  0  0  0
   20.5217   37.3112   39.3899 H   0  0  0  0  0  0  0  0  0  0  0  0
   17.1887   37.0007   42.2824 H   0  0  0  0  0  0  0  0  0  0  0  0
   18.3232   37.1909   43.6620 H   0  0  0  0  0  0  0  0  0  0  0  0
   24.1339   36.7654   44.3714 H   0  0  0  0  0  0  0  0  0  0  0  0
   20.8336   34.7518   39.9336 H   0  0  0  0  0  0  0  0  0  0  0  0
   21.6830   35.5769   38.7903 H   0  0  0  0  0  0  0  0  0  0  0  0
  1 25  1  0  0  0  0
  2  5  2  0  0  0  0
  2 26  1  0  0  0  0
  3  1  2  0  0  0  0
  3 27  1  0  0  0  0
  4  1  1  0  0  0  0
  4 28  1  0  0  0  0
  5 29  1  0  0  0  0
  6  2  1  0  0  0  0
  6 30  1  0  0  0  0
  7  3  1  0  0  0  0
  7 31  1  0  0  0  0
  8  4  2  0  0  0  0
  8 32  1  0  0  0  0
  9  5  1  0  0  0  0
  9 33  1  0  0  0  0
 10  6  2  0  0  0  0
 10 12  1  0  0  0  0
 11  7  2  0  0  0  0
 11  8  1  0  0  0  0
 12  9  2  0  0  0  0
 13 20  1  0  0  0  0
 13 22  2  0  0  0  0
 14 17  1  0  0  0  0
 14 23  2  0  0  0  0
 15 18  1  0  0  0  0
 15 34  1  0  0  0  0
 15 35  1  0  0  0  0
 16 18  1  0  0  0  0
 16 36  1  0  0  0  0
 16 37  1  0  0  0  0
 17 15  1  0  0  0  0
 17 21  1  0  0  0  0
 17 38  1  6  0  0  0
 18 10  1  6  0  0  0
 18 13  1  0  0  0  0
 19 11  1  0  0  0  0
 19 24  1  0  0  0  0
 19 39  1  0  0  0  0
 19 40  1  0  0  0  0
 20 12  1  0  0  0  0
 20 41  1  0  0  0  0
 21 16  1  0  0  0  0
 21 42  1  0  0  0  0
 21 43  1  0  0  0  0
 24 14  1  0  0  0  0
M  CHG  1  21   1
M  END
