3uef_ligand
 OpenBabel08222323353D

 83 82  0  0  1  0  0  0  0  0999 V2000
  -61.5350  -75.4700   29.8300 N   0  3  0  0  0  0  0  0  0  0  0  0
  -60.6410  -74.7520   30.7720 C   0  0  2  0  0  0  0  0  0  0  0  0
  -61.4520  -73.8370   31.6800 C   0  0  0  0  0  0  0  0  0  0  0  0
  -62.6860  -73.6720   31.5110 O   0  0  0  0  0  0  0  0  0  0  0  0
  -59.6060  -73.9410   30.0180 C   0  0  0  0  0  0  0  0  0  0  0  0
  -60.7500  -73.2440   32.6460 N   0  0  0  0  0  0  0  0  0  0  0  0
  -61.4000  -72.3930   33.6230 C   0  0  2  0  0  0  0  0  0  0  0  0
  -60.4540  -71.2910   34.0510 C   0  0  0  0  0  0  0  0  0  0  0  0
  -59.2340  -71.4020   33.9430 O   0  0  0  0  0  0  0  0  0  0  0  0
  -61.8260  -73.1950   34.8730 C   0  0  0  0  0  0  0  0  0  0  0  0
  -60.7100  -74.0970   35.4000 C   0  0  0  0  0  0  0  0  0  0  0  0
  -60.9180  -74.6090   36.8190 C   0  0  0  0  0  0  0  0  0  0  0  0
  -59.9090  -75.6290   37.1490 N   0  0  0  0  0  0  0  0  0  0  0  0
  -58.6290  -75.3730   37.4200 C   0  0  0  0  0  3  0  0  0  0  0  0
  -58.1790  -74.1230   37.4030 N   0  0  0  0  0  0  0  0  0  0  0  0
  -57.7850  -76.3680   37.6960 N   0  0  0  0  0  0  0  0  0  0  0  0
  -61.0540  -70.2620   34.6270 N   0  0  0  0  0  0  0  0  0  0  0  0
  -60.3400  -69.1090   35.1640 C   0  0  2  0  0  0  0  0  0  0  0  0
  -59.3370  -69.4280   36.3140 C   0  0  0  0  0  0  0  0  0  0  0  0
  -59.3600  -70.5210   36.8960 O   0  0  0  0  0  0  0  0  0  0  0  0
  -61.3710  -68.0440   35.5680 C   0  0  2  0  0  0  0  0  0  0  0  0
  -60.6970  -66.7980   35.6340 O   0  0  0  0  0  0  0  0  0  0  0  0
  -62.1200  -68.4070   36.9210 C   0  0  0  0  0  0  0  0  0  0  0  0
  -58.4560  -68.4760   36.6140 N   0  0  0  0  0  0  0  0  0  0  0  0
  -57.3100  -68.6960   37.5340 C   0  0  2  0  0  0  0  0  0  0  0  0
  -57.6060  -68.8310   39.0680 C   0  0  0  0  0  0  0  0  0  0  0  0
  -58.4510  -68.1210   39.6120 O   0  0  0  0  0  0  0  0  0  0  0  0
  -56.2810  -67.5650   37.3240 C   0  0  0  0  0  0  0  0  0  0  0  0
  -54.8830  -67.9790   37.7260 C   0  0  0  0  0  0  0  0  0  0  0  0
  -53.9360  -66.8350   37.9690 C   0  0  0  0  0  0  0  0  0  0  0  0
  -52.6210  -67.4190   38.4760 C   0  0  0  0  0  0  0  0  0  0  0  0
  -51.5110  -66.4610   38.2430 N   0  3  0  0  0  0  0  0  0  0  0  0
  -56.8740  -69.7330   39.7450 N   0  0  0  0  0  0  0  0  0  0  0  0
  -56.8630  -69.8730   41.2290 C   0  0  2  0  0  0  0  0  0  0  0  0
  -55.5780  -69.2950   41.8430 C   0  0  0  0  0  0  0  0  0  0  0  0
  -55.4850  -68.1030   42.1550 O   0  5  0  0  0  0  0  0  0  0  0  0
  -56.9800  -71.3490   41.6480 C   0  0  0  0  0  0  0  0  0  0  0  0
  -54.5830  -69.9980   42.0510 O   0  0  0  0  0  0  0  0  0  0  0  0
  -60.9847  -76.0708   29.2365 H   0  0  0  0  0  0  0  0  0  0  0  0
  -62.0321  -74.8013   29.2628 H   0  0  0  0  0  0  0  0  0  0  0  0
  -62.1953  -76.0257   30.3508 H   0  0  0  0  0  0  0  0  0  0  0  0
  -60.1202  -75.4948   31.3941 H   0  0  0  0  0  0  0  0  0  0  0  0
  -58.9559  -73.4186   30.7353 H   0  0  0  0  0  0  0  0  0  0  0  0
  -60.1129  -73.2037   29.3781 H   0  0  0  0  0  0  0  0  0  0  0  0
  -58.9980  -74.6121   29.3935 H   0  0  0  0  0  0  0  0  0  0  0  0
  -59.7618  -73.3882   32.6972 H   0  0  0  0  0  0  0  0  0  0  0  0
  -62.2940  -71.9461   33.1637 H   0  0  0  0  0  0  0  0  0  0  0  0
  -62.6917  -73.8214   34.6118 H   0  0  0  0  0  0  0  0  0  0  0  0
  -62.1111  -72.4875   35.6655 H   0  0  0  0  0  0  0  0  0  0  0  0
  -59.7696  -73.5269   35.3766 H   0  0  0  0  0  0  0  0  0  0  0  0
  -60.6284  -74.9665   34.7312 H   0  0  0  0  0  0  0  0  0  0  0  0
  -61.9215  -75.0519   36.9012 H   0  0  0  0  0  0  0  0  0  0  0  0
  -60.8288  -73.7694   37.5241 H   0  0  0  0  0  0  0  0  0  0  0  0
  -60.2143  -76.6124   37.1722 H   0  0  0  0  0  0  0  0  0  0  0  0
  -57.1895  -73.9290   37.6129 H   0  0  0  0  0  0  0  0  0  0  0  0
  -58.8197  -73.3480   37.1799 H   0  0  0  0  0  0  0  0  0  0  0  0
  -58.1232  -77.3408   37.7118 H   0  0  0  0  0  0  0  0  0  0  0  0
  -56.7949  -76.1637   37.8933 H   0  0  0  0  0  0  0  0  0  0  0  0
  -62.0514  -70.2755   34.6981 H   0  0  0  0  0  0  0  0  0  0  0  0
  -59.7402  -68.6926   34.3413 H   0  0  0  0  0  0  0  0  0  0  0  0
  -62.1333  -67.9828   34.7774 H   0  0  0  0  0  0  0  0  0  0  0  0
  -61.3130  -66.1188   35.8827 H   0  0  0  0  0  0  0  0  0  0  0  0
  -62.8438  -67.6149   37.1633 H   0  0  0  0  0  0  0  0  0  0  0  0
  -61.3853  -68.4937   37.7350 H   0  0  0  0  0  0  0  0  0  0  0  0
  -62.6497  -69.3637   36.8017 H   0  0  0  0  0  0  0  0  0  0  0  0
  -58.5706  -67.5722   36.2017 H   0  0  0  0  0  0  0  0  0  0  0  0
  -56.8450  -69.6440   37.2256 H   0  0  0  0  0  0  0  0  0  0  0  0
  -56.5808  -66.6971   37.9296 H   0  0  0  0  0  0  0  0  0  0  0  0
  -56.2749  -67.2853   36.2602 H   0  0  0  0  0  0  0  0  0  0  0  0
  -54.4662  -68.6046   36.9230 H   0  0  0  0  0  0  0  0  0  0  0  0
  -54.9528  -68.5690   38.6517 H   0  0  0  0  0  0  0  0  0  0  0  0
  -54.3579  -66.1533   38.7222 H   0  0  0  0  0  0  0  0  0  0  0  0
  -53.7647  -66.2852   37.0318 H   0  0  0  0  0  0  0  0  0  0  0  0
  -52.4098  -68.3568   37.9413 H   0  0  0  0  0  0  0  0  0  0  0  0
  -52.7052  -67.6223   39.5538 H   0  0  0  0  0  0  0  0  0  0  0  0
  -50.6484  -66.8575   38.5817 H   0  0  0  0  0  0  0  0  0  0  0  0
  -51.7008  -65.6010   38.7334 H   0  0  0  0  0  0  0  0  0  0  0  0
  -51.4301  -66.2741   37.2558 H   0  0  0  0  0  0  0  0  0  0  0  0
  -56.2960  -70.3539   39.2155 H   0  0  0  0  0  0  0  0  0  0  0  0
  -57.7252  -69.3211   41.6316 H   0  0  0  0  0  0  0  0  0  0  0  0
  -56.9692  -71.4205   42.7456 H   0  0  0  0  0  0  0  0  0  0  0  0
  -56.1323  -71.9156   41.2353 H   0  0  0  0  0  0  0  0  0  0  0  0
  -57.9221  -71.7660   41.2627 H   0  0  0  0  0  0  0  0  0  0  0  0
  1  2  1  0  0  0  0
  1 39  1  0  0  0  0
  1 40  1  0  0  0  0
  1 41  1  0  0  0  0
  2  3  1  0  0  0  0
  2  5  1  0  0  0  0
  2 42  1  1  0  0  0
  3  4  2  0  0  0  0
  3  6  1  0  0  0  0
  5 43  1  0  0  0  0
  5 44  1  0  0  0  0
  5 45  1  0  0  0  0
  6  7  1  0  0  0  0
  6 46  1  0  0  0  0
  7  8  1  0  0  0  0
  7 10  1  0  0  0  0
  7 47  1  6  0  0  0
  8  9  2  0  0  0  0
  8 17  1  0  0  0  0
 10 11  1  0  0  0  0
 10 48  1  0  0  0  0
 10 49  1  0  0  0  0
 11 12  1  0  0  0  0
 11 50  1  0  0  0  0
 11 51  1  0  0  0  0
 12 13  1  0  0  0  0
 12 52  1  0  0  0  0
 12 53  1  0  0  0  0
 13 14  1  0  0  0  0
 13 54  1  0  0  0  0
 14 15  1  0  0  0  0
 14 16  1  0  0  0  0
 15 55  1  0  0  0  0
 15 56  1  0  0  0  0
 16 57  1  0  0  0  0
 16 58  1  0  0  0  0
 17 18  1  0  0  0  0
 17 59  1  0  0  0  0
 18 19  1  0  0  0  0
 18 21  1  0  0  0  0
 18 60  1  6  0  0  0
 19 20  2  0  0  0  0
 19 24  1  0  0  0  0
 21 22  1  0  0  0  0
 21 23  1  0  0  0  0
 21 61  1  6  0  0  0
 22 62  1  0  0  0  0
 23 63  1  0  0  0  0
 23 64  1  0  0  0  0
 23 65  1  0  0  0  0
 24 25  1  0  0  0  0
 24 66  1  0  0  0  0
 25 26  1  0  0  0  0
 25 28  1  0  0  0  0
 25 67  1  6  0  0  0
 26 27  2  0  0  0  0
 26 33  1  0  0  0  0
 28 29  1  0  0  0  0
 28 68  1  0  0  0  0
 28 69  1  0  0  0  0
 29 30  1  0  0  0  0
 29 70  1  0  0  0  0
 29 71  1  0  0  0  0
 30 31  1  0  0  0  0
 30 72  1  0  0  0  0
 30 73  1  0  0  0  0
 31 32  1  0  0  0  0
 31 74  1  0  0  0  0
 31 75  1  0  0  0  0
 32 76  1  0  0  0  0
 32 77  1  0  0  0  0
 32 78  1  0  0  0  0
 33 34  1  0  0  0  0
 33 79  1  0  0  0  0
 34 35  1  0  0  0  0
 34 37  1  0  0  0  0
 34 80  1  1  0  0  0
 35 36  1  0  0  0  0
 35 38  2  0  0  0  0
 37 81  1  0  0  0  0
 37 82  1  0  0  0  0
 37 83  1  0  0  0  0
M  CHG  3   1   1  32   1  36  -1
M  END
