3uf9_ligand
 OpenBabel08222323353D

 36 36  0  0  0  0  0  0  0  0999 V2000
  -18.3200   17.9700  -20.7360 C   0  0  0  0  0  0  0  0  0  0  0  0
  -17.6280   16.8530  -21.7610 S   0  0  1  0  0  3  0  0  0  0  0  0
  -18.6440   16.5500  -23.0210 O   0  0  0  0  0  0  0  0  0  0  0  0
  -16.2010   17.3940  -22.2530 C   0  0  0  0  0  0  0  0  0  0  0  0
  -15.0300   16.8190  -21.7650 C   0  0  0  0  0  0  0  0  0  0  0  0
  -13.7830   17.2810  -22.1830 C   0  0  0  0  0  0  0  0  0  0  0  0
  -13.7000   18.3310  -23.0900 C   0  0  0  0  0  0  0  0  0  0  0  0
  -14.8690   18.9040  -23.5790 C   0  0  0  0  0  0  0  0  0  0  0  0
  -16.1150   18.4430  -23.1610 C   0  0  0  0  0  0  0  0  0  0  0  0
  -12.4840   18.7980  -23.5250 O   0  0  0  0  0  0  0  0  0  0  0  0
  -11.2830   19.2100  -22.5330 P   0  0  0  0  0  0  0  0  0  0  0  0
  -10.1630   20.6180  -23.2840 S   0  0  0  0  0  0  0  0  0  0  0  0
  -11.9660   19.6200  -21.1340 O   0  0  0  0  0  0  0  0  0  0  0  0
  -12.8650   20.7220  -21.0570 C   0  0  0  0  0  0  0  0  0  0  0  0
  -12.6250   21.6490  -22.2280 C   0  0  0  0  0  0  0  0  0  0  0  0
  -10.4590   17.8580  -22.2420 O   0  0  0  0  0  0  0  0  0  0  0  0
   -9.7980   17.6580  -20.9930 C   0  0  0  0  0  0  0  0  0  0  0  0
  -10.0990   16.2680  -20.4750 C   0  0  0  0  0  0  0  0  0  0  0  0
  -17.6379   18.1690  -19.8963 H   0  0  0  0  0  0  0  0  0  0  0  0
  -19.2708   17.5738  -20.3500 H   0  0  0  0  0  0  0  0  0  0  0  0
  -18.5080   18.9044  -21.2850 H   0  0  0  0  0  0  0  0  0  0  0  0
  -18.2450   15.9130  -23.6020 H   0  0  0  0  0  0  0  0  0  0  0  0
  -15.0890   16.0039  -21.0529 H   0  0  0  0  0  0  0  0  0  0  0  0
  -12.8785   16.8217  -21.8009 H   0  0  0  0  0  0  0  0  0  0  0  0
  -14.8098   19.7177  -24.2928 H   0  0  0  0  0  0  0  0  0  0  0  0
  -17.0188   18.9028  -23.5442 H   0  0  0  0  0  0  0  0  0  0  0  0
  -12.6971   21.2676  -20.1167 H   0  0  0  0  0  0  0  0  0  0  0  0
  -13.9009   20.3533  -21.0872 H   0  0  0  0  0  0  0  0  0  0  0  0
  -13.3188   22.5006  -22.1696 H   0  0  0  0  0  0  0  0  0  0  0  0
  -12.7928   21.1032  -23.1682 H   0  0  0  0  0  0  0  0  0  0  0  0
  -11.5890   22.0174  -22.1977 H   0  0  0  0  0  0  0  0  0  0  0  0
  -10.1538   18.4040  -20.2671 H   0  0  0  0  0  0  0  0  0  0  0  0
   -8.7125   17.7697  -21.1314 H   0  0  0  0  0  0  0  0  0  0  0  0
   -9.5883   16.1169  -19.5125 H   0  0  0  0  0  0  0  0  0  0  0  0
   -9.7430   15.5214  -21.2001 H   0  0  0  0  0  0  0  0  0  0  0  0
  -11.1843   16.1556  -20.3358 H   0  0  0  0  0  0  0  0  0  0  0  0
  1  2  1  0  0  0  0
  1 19  1  0  0  0  0
  1 20  1  0  0  0  0
  1 21  1  0  0  0  0
  2  3  1  6  0  0  0
  2  4  1  0  0  0  0
  3 22  1  0  0  0  0
  4  5  2  0  0  0  0
  4  9  1  0  0  0  0
  5  6  1  0  0  0  0
  5 23  1  0  0  0  0
  6  7  2  0  0  0  0
  6 24  1  0  0  0  0
  7  8  1  0  0  0  0
  7 10  1  0  0  0  0
  8  9  2  0  0  0  0
  8 25  1  0  0  0  0
  9 26  1  0  0  0  0
 10 11  1  0  0  0  0
 11 12  2  0  0  0  0
 11 13  1  0  0  0  0
 11 16  1  0  0  0  0
 13 14  1  0  0  0  0
 14 15  1  0  0  0  0
 14 27  1  0  0  0  0
 14 28  1  0  0  0  0
 15 29  1  0  0  0  0
 15 30  1  0  0  0  0
 15 31  1  0  0  0  0
 16 17  1  0  0  0  0
 17 18  1  0  0  0  0
 17 32  1  0  0  0  0
 17 33  1  0  0  0  0
 18 34  1  0  0  0  0
 18 35  1  0  0  0  0
 18 36  1  0  0  0  0
M  END
