3uig_ligand
 OpenBabel08222323353D

 93 92  0  0  1  0  0  0  0  0999 V2000
   35.3190  -14.4840    1.4450 N   0  3  0  0  0  0  0  0  0  0  0  0
   34.3910  -13.5750    0.7770 C   0  0  2  0  0  0  0  0  0  0  0  0
   35.1470  -12.5500   -0.0650 C   0  0  0  0  0  0  0  0  0  0  0  0
   36.3380  -12.3090    0.1520 O   0  0  0  0  0  0  0  0  0  0  0  0
   33.5120  -12.8810    1.7960 C   0  0  0  0  0  0  0  0  0  0  0  0
   34.4520  -11.9340   -1.0150 N   0  0  0  0  0  0  0  0  0  0  0  0
   35.1140  -11.0570   -1.9690 C   0  0  2  0  0  0  0  0  0  0  0  0
   34.2320   -9.8670   -2.3260 C   0  0  0  0  0  0  0  0  0  0  0  0
   32.9980   -9.9710   -2.3150 O   0  0  0  0  0  0  0  0  0  0  0  0
   35.4560  -11.8370   -3.2510 C   0  0  0  0  0  0  0  0  0  0  0  0
   34.2470  -12.0000   -4.1790 C   0  0  0  0  0  0  0  0  0  0  0  0
   34.3960  -13.0960   -5.2260 C   0  0  0  0  0  0  0  0  0  0  0  0
   33.1280  -13.3150   -5.9270 N   0  0  0  0  0  0  0  0  0  0  0  0
   32.2950  -14.3260   -5.6810 C   0  0  0  0  0  3  0  0  0  0  0  0
   31.1600  -14.4440   -6.3620 N   0  0  0  0  0  0  0  0  0  0  0  0
   32.6020  -15.2260   -4.7570 N   0  0  0  0  0  0  0  0  0  0  0  0
   34.8720   -8.7460   -2.6600 N   0  0  0  0  0  0  0  0  0  0  0  0
   34.1770   -7.5350   -3.1090 C   0  0  1  0  0  0  0  0  0  0  0  0
   35.1870   -6.5270   -3.6690 C   0  0  1  0  0  0  0  0  0  0  0  0
   34.4820   -5.2350   -4.0840 C   0  0  0  0  0  0  0  0  0  0  0  0
   36.1050   -6.2640   -2.6060 O   0  0  0  0  0  0  0  0  0  0  0  0
   37.4110   -5.5100   -3.1470 P   0  0  0  0  0  0  0  0  0  0  0  0
   37.9430   -6.2720   -4.2970 O   0  0  0  0  0  1  0  0  0  0  0  0
   37.0070   -4.0240   -3.6130 O   0  0  0  0  0  1  0  0  0  0  0  0
   38.4920   -5.4140   -1.9500 O   0  0  0  0  0  0  0  0  0  0  0  0
   33.1110   -7.8730   -4.1370 C   0  0  0  0  0  0  0  0  0  0  0  0
   33.2670   -8.8150   -4.9020 O   0  0  0  0  0  0  0  0  0  0  0  0
   32.0170   -7.1270   -4.1450 N   0  0  0  0  0  0  0  0  0  0  0  0
   30.8930   -7.4650   -5.0140 C   0  0  2  0  0  0  0  0  0  0  0  0
   31.2640   -7.3870   -6.4940 C   0  0  0  0  0  0  0  0  0  0  0  0
   32.2990   -6.8260   -6.8450 O   0  0  0  0  0  0  0  0  0  0  0  0
   29.6940   -6.5530   -4.7370 C   0  0  0  0  0  0  0  0  0  0  0  0
   28.4390   -6.9500   -5.5000 C   0  0  0  0  0  0  0  0  0  0  0  0
   27.4330   -5.8210   -5.6210 C   0  0  0  0  0  0  0  0  0  0  0  0
   26.1910   -6.2900   -6.3720 C   0  0  0  0  0  0  0  0  0  0  0  0
   25.3320   -5.1600   -6.8380 N   0  3  0  0  0  0  0  0  0  0  0  0
   30.4130   -7.9730   -7.3390 N   0  0  0  0  0  0  0  0  0  0  0  0
   30.4940   -7.8690   -8.7950 C   0  0  2  0  0  0  0  0  0  0  0  0
   31.3780   -6.7200   -9.2710 C   0  0  0  0  0  0  0  0  0  0  0  0
   32.4570   -6.9380   -9.8260 O   0  5  0  0  0  0  0  0  0  0  0  0
   29.0840   -7.7160   -9.3760 C   0  0  0  0  0  0  0  0  0  0  0  0
   29.0370   -7.2800  -10.8400 C   0  0  0  0  0  0  0  0  0  0  0  0
   29.0650   -5.7630  -11.0250 C   0  0  0  0  0  0  0  0  0  0  0  0
   28.0900   -5.0670  -10.7260 O   0  0  0  0  0  0  0  0  0  0  0  0
   30.1840   -5.2490  -11.5310 N   0  0  0  0  0  0  0  0  0  0  0  0
   31.0340   -5.5470   -9.1120 O   0  0  0  0  0  0  0  0  0  0  0  0
   34.7994  -15.1508    1.9941 H   0  0  0  0  0  0  0  0  0  0  0  0
   35.9308  -13.9564    2.0478 H   0  0  0  0  0  0  0  0  0  0  0  0
   35.8671  -14.9722    0.7541 H   0  0  0  0  0  0  0  0  0  0  0  0
   33.7481  -14.1657    0.1079 H   0  0  0  0  0  0  0  0  0  0  0  0
   32.8191  -12.2005    1.2796 H   0  0  0  0  0  0  0  0  0  0  0  0
   34.1408  -12.3056    2.4914 H   0  0  0  0  0  0  0  0  0  0  0  0
   32.9375  -13.6326    2.3572 H   0  0  0  0  0  0  0  0  0  0  0  0
   33.4637  -12.0745   -1.0751 H   0  0  0  0  0  0  0  0  0  0  0  0
   36.0451  -10.6847   -1.5168 H   0  0  0  0  0  0  0  0  0  0  0  0
   35.8217  -12.8355   -2.9695 H   0  0  0  0  0  0  0  0  0  0  0  0
   36.2461  -11.2964   -3.7927 H   0  0  0  0  0  0  0  0  0  0  0  0
   34.0842  -11.0459   -4.7016 H   0  0  0  0  0  0  0  0  0  0  0  0
   33.3682  -12.2337   -3.5601 H   0  0  0  0  0  0  0  0  0  0  0  0
   34.7014  -14.0297   -4.7311 H   0  0  0  0  0  0  0  0  0  0  0  0
   35.1649  -12.7984   -5.9541 H   0  0  0  0  0  0  0  0  0  0  0  0
   32.8623  -12.6417   -6.6598 H   0  0  0  0  0  0  0  0  0  0  0  0
   30.5212  -15.2279   -6.1664 H   0  0  0  0  0  0  0  0  0  0  0  0
   30.9191  -13.7515   -7.0854 H   0  0  0  0  0  0  0  0  0  0  0  0
   33.4803  -15.1399   -4.2259 H   0  0  0  0  0  0  0  0  0  0  0  0
   31.9622  -16.0113   -4.5703 H   0  0  0  0  0  0  0  0  0  0  0  0
   35.8702   -8.7302   -2.6018 H   0  0  0  0  0  0  0  0  0  0  0  0
   33.6807   -7.0788   -2.2398 H   0  0  0  0  0  0  0  0  0  0  0  0
   35.7135   -6.9535   -4.5355 H   0  0  0  0  0  0  0  0  0  0  0  0
   35.2219   -4.5253   -4.4826 H   0  0  0  0  0  0  0  0  0  0  0  0
   33.9834   -4.7921   -3.2093 H   0  0  0  0  0  0  0  0  0  0  0  0
   33.7336   -5.4582   -4.8587 H   0  0  0  0  0  0  0  0  0  0  0  0
   31.9599   -6.3249   -3.5506 H   0  0  0  0  0  0  0  0  0  0  0  0
   30.5969   -8.5008   -4.7917 H   0  0  0  0  0  0  0  0  0  0  0  0
   29.9647   -5.5259   -5.0229 H   0  0  0  0  0  0  0  0  0  0  0  0
   29.4720   -6.5875   -3.6602 H   0  0  0  0  0  0  0  0  0  0  0  0
   27.9609   -7.7898   -4.9745 H   0  0  0  0  0  0  0  0  0  0  0  0
   28.7306   -7.2687   -6.5116 H   0  0  0  0  0  0  0  0  0  0  0  0
   27.8921   -4.9842   -6.1678 H   0  0  0  0  0  0  0  0  0  0  0  0
   27.1423   -5.4858   -4.6145 H   0  0  0  0  0  0  0  0  0  0  0  0
   25.5968   -6.9296   -5.7028 H   0  0  0  0  0  0  0  0  0  0  0  0
   26.5101   -6.8729   -7.2486 H   0  0  0  0  0  0  0  0  0  0  0  0
   24.5296   -5.5268   -7.3255 H   0  0  0  0  0  0  0  0  0  0  0  0
   25.8618   -4.5694   -7.4597 H   0  0  0  0  0  0  0  0  0  0  0  0
   25.0249   -4.6214   -6.0432 H   0  0  0  0  0  0  0  0  0  0  0  0
   29.6710   -8.5193   -6.9504 H   0  0  0  0  0  0  0  0  0  0  0  0
   30.9283   -8.8054   -9.1753 H   0  0  0  0  0  0  0  0  0  0  0  0
   28.5473   -6.9647   -8.7780 H   0  0  0  0  0  0  0  0  0  0  0  0
   28.5721   -8.6859   -9.2914 H   0  0  0  0  0  0  0  0  0  0  0  0
   28.1114   -7.6686  -11.2896 H   0  0  0  0  0  0  0  0  0  0  0  0
   29.9058   -7.7103  -11.3596 H   0  0  0  0  0  0  0  0  0  0  0  0
   30.2607   -4.2624  -11.6747 H   0  0  0  0  0  0  0  0  0  0  0  0
   30.9478   -5.8496  -11.7674 H   0  0  0  0  0  0  0  0  0  0  0  0
  1  2  1  0  0  0  0
  1 47  1  0  0  0  0
  1 48  1  0  0  0  0
  1 49  1  0  0  0  0
  2  3  1  0  0  0  0
  2  5  1  0  0  0  0
  2 50  1  6  0  0  0
  3  4  2  0  0  0  0
  3  6  1  0  0  0  0
  5 51  1  0  0  0  0
  5 52  1  0  0  0  0
  5 53  1  0  0  0  0
  6  7  1  0  0  0  0
  6 54  1  0  0  0  0
  7  8  1  0  0  0  0
  7 10  1  0  0  0  0
  7 55  1  1  0  0  0
  8  9  2  0  0  0  0
  8 17  1  0  0  0  0
 10 11  1  0  0  0  0
 10 56  1  0  0  0  0
 10 57  1  0  0  0  0
 11 12  1  0  0  0  0
 11 58  1  0  0  0  0
 11 59  1  0  0  0  0
 12 13  1  0  0  0  0
 12 60  1  0  0  0  0
 12 61  1  0  0  0  0
 13 14  1  0  0  0  0
 13 62  1  0  0  0  0
 14 15  1  0  0  0  0
 14 16  1  0  0  0  0
 15 63  1  0  0  0  0
 15 64  1  0  0  0  0
 16 65  1  0  0  0  0
 16 66  1  0  0  0  0
 17 18  1  0  0  0  0
 17 67  1  0  0  0  0
 18 19  1  0  0  0  0
 18 26  1  0  0  0  0
 18 68  1  1  0  0  0
 19 20  1  0  0  0  0
 19 21  1  0  0  0  0
 19 69  1  6  0  0  0
 20 70  1  0  0  0  0
 20 71  1  0  0  0  0
 20 72  1  0  0  0  0
 21 22  1  0  0  0  0
 22 23  1  0  0  0  0
 22 24  1  0  0  0  0
 22 25  2  0  0  0  0
 26 27  2  0  0  0  0
 26 28  1  0  0  0  0
 28 29  1  0  0  0  0
 28 73  1  0  0  0  0
 29 30  1  0  0  0  0
 29 32  1  0  0  0  0
 29 74  1  1  0  0  0
 30 31  2  0  0  0  0
 30 37  1  0  0  0  0
 32 33  1  0  0  0  0
 32 75  1  0  0  0  0
 32 76  1  0  0  0  0
 33 34  1  0  0  0  0
 33 77  1  0  0  0  0
 33 78  1  0  0  0  0
 34 35  1  0  0  0  0
 34 79  1  0  0  0  0
 34 80  1  0  0  0  0
 35 36  1  0  0  0  0
 35 81  1  0  0  0  0
 35 82  1  0  0  0  0
 36 83  1  0  0  0  0
 36 84  1  0  0  0  0
 36 85  1  0  0  0  0
 37 38  1  0  0  0  0
 37 86  1  0  0  0  0
 38 39  1  0  0  0  0
 38 41  1  0  0  0  0
 38 87  1  6  0  0  0
 39 40  1  0  0  0  0
 39 46  2  0  0  0  0
 41 42  1  0  0  0  0
 41 88  1  0  0  0  0
 41 89  1  0  0  0  0
 42 43  1  0  0  0  0
 42 90  1  0  0  0  0
 42 91  1  0  0  0  0
 43 44  2  0  0  0  0
 43 45  1  0  0  0  0
 45 92  1  0  0  0  0
 45 93  1  0  0  0  0
M  CHG  3   1   1  36   1  40  -1
M  END
