3uix_ligand
 OpenBabel08222323353D

 41 43  0  0  0  0  0  0  0  0999 V2000
  -37.4550   -3.1150   -1.3480 C   0  0  0  0  0  0  0  0  0  0  0  0
  -36.5150   -3.2090   -0.3120 C   0  0  0  0  0  0  0  0  0  0  0  0
  -36.8740   -2.9870    1.0160 C   0  0  0  0  0  0  0  0  0  0  0  0
  -38.1790   -2.6320    1.3710 C   0  0  0  0  0  0  0  0  0  0  0  0
  -39.1330   -2.5080    0.3790 C   0  0  0  0  0  0  0  0  0  0  0  0
  -38.7640   -2.7790   -1.0450 C   0  0  0  0  0  0  0  0  0  0  0  0
  -39.6830   -2.7010   -2.0510 O   0  0  0  0  0  0  0  0  0  0  0  0
  -40.5100   -2.1630    0.7890 C   0  0  0  0  0  0  0  0  0  0  0  0
  -40.7860   -1.9700    2.1120 N   0  0  0  0  0  0  0  0  0  0  0  0
  -42.0400   -1.6660    2.5060 C   0  0  0  0  0  0  0  0  0  0  0  0
  -43.0530   -1.5460    1.5450 C   0  0  0  0  0  0  0  0  0  0  0  0
  -42.7440   -1.7500    0.2090 C   0  0  0  0  0  0  0  0  0  0  0  0
  -41.4710   -2.0500   -0.1390 N   0  0  0  0  0  0  0  0  0  0  0  0
  -43.7180   -1.6550   -0.7890 C   0  0  0  0  0  0  0  0  0  0  0  0
  -45.0330   -1.3350   -0.4340 C   0  0  0  0  0  0  0  0  0  0  0  0
  -45.3430   -1.1430    0.9070 C   0  0  0  0  0  0  0  0  0  0  0  0
  -44.3680   -1.2390    1.9050 C   0  0  0  0  0  0  0  0  0  0  0  0
  -42.2930   -1.5040    3.8230 N   0  0  0  0  0  0  0  0  0  0  0  0
  -41.2300   -1.3240    4.8130 C   0  0  0  0  0  0  0  0  0  0  0  0
  -40.2580   -2.5000    5.0540 C   0  0  0  0  0  0  0  0  0  0  0  0
  -40.8770   -3.8170    5.4820 C   0  0  0  0  0  0  0  0  0  0  0  0
  -39.9600   -4.5710    6.3510 N   0  3  0  0  0  0  0  0  0  0  0  0
  -37.1607   -3.3031   -2.3742 H   0  0  0  0  0  0  0  0  0  0  0  0
  -35.4874   -3.4596   -0.5491 H   0  0  0  0  0  0  0  0  0  0  0  0
  -36.1242   -3.0919    1.7918 H   0  0  0  0  0  0  0  0  0  0  0  0
  -38.4385   -2.4567    2.4088 H   0  0  0  0  0  0  0  0  0  0  0  0
  -39.2633   -2.9054   -2.8784 H   0  0  0  0  0  0  0  0  0  0  0  0
  -43.4573   -1.8274   -1.8270 H   0  0  0  0  0  0  0  0  0  0  0  0
  -45.7994   -1.2382   -1.1945 H   0  0  0  0  0  0  0  0  0  0  0  0
  -46.3650   -0.9133    1.1861 H   0  0  0  0  0  0  0  0  0  0  0  0
  -44.6290   -1.0773    2.9446 H   0  0  0  0  0  0  0  0  0  0  0  0
  -43.2720   -1.5073    4.1430 H   0  0  0  0  0  0  0  0  0  0  0  0
  -41.7134   -1.0967    5.7746 H   0  0  0  0  0  0  0  0  0  0  0  0
  -40.6271   -0.4615    4.4927 H   0  0  0  0  0  0  0  0  0  0  0  0
  -39.5511   -2.1930    5.8389 H   0  0  0  0  0  0  0  0  0  0  0  0
  -39.7106   -2.6778    4.1166 H   0  0  0  0  0  0  0  0  0  0  0  0
  -41.1006   -4.4172    4.5877 H   0  0  0  0  0  0  0  0  0  0  0  0
  -41.8088   -3.6154    6.0307 H   0  0  0  0  0  0  0  0  0  0  0  0
  -40.3924   -5.4403    6.6218 H   0  0  0  0  0  0  0  0  0  0  0  0
  -39.7542   -4.0273    7.1744 H   0  0  0  0  0  0  0  0  0  0  0  0
  -39.1052   -4.7620    5.8521 H   0  0  0  0  0  0  0  0  0  0  0  0
  1  2  2  0  0  0  0
  1  6  1  0  0  0  0
  1 23  1  0  0  0  0
  2  3  1  0  0  0  0
  2 24  1  0  0  0  0
  3  4  2  0  0  0  0
  3 25  1  0  0  0  0
  4  5  1  0  0  0  0
  4 26  1  0  0  0  0
  5  6  2  0  0  0  0
  5  8  1  0  0  0  0
  6  7  1  0  0  0  0
  7 27  1  0  0  0  0
  8  9  2  0  0  0  0
  8 13  1  0  0  0  0
  9 10  1  0  0  0  0
 10 11  2  0  0  0  0
 10 18  1  0  0  0  0
 11 12  1  0  0  0  0
 11 17  1  0  0  0  0
 12 13  2  0  0  0  0
 12 14  1  0  0  0  0
 14 15  2  0  0  0  0
 14 28  1  0  0  0  0
 15 16  1  0  0  0  0
 15 29  1  0  0  0  0
 16 17  2  0  0  0  0
 16 30  1  0  0  0  0
 17 31  1  0  0  0  0
 18 19  1  0  0  0  0
 18 32  1  0  0  0  0
 19 20  1  0  0  0  0
 19 33  1  0  0  0  0
 19 34  1  0  0  0  0
 20 21  1  0  0  0  0
 20 35  1  0  0  0  0
 20 36  1  0  0  0  0
 21 22  1  0  0  0  0
 21 37  1  0  0  0  0
 21 38  1  0  0  0  0
 22 39  1  0  0  0  0
 22 40  1  0  0  0  0
 22 41  1  0  0  0  0
M  CHG  1  22   1
M  END
