3uli_ligand
 OpenBabel08222323353D

 54 57  0  0  1  0  0  0  0  0999 V2000
    6.9650   23.3700    8.1180 C   0  0  0  0  0  0  0  0  0  0  0  0
    7.2100   24.4700    7.2180 O   0  0  0  0  0  0  0  0  0  0  0  0
    6.1640   25.4070    7.2250 C   0  0  0  0  0  0  0  0  0  0  0  0
    5.1780   25.3830    8.1940 C   0  0  0  0  0  0  0  0  0  0  0  0
    4.1820   26.3340    8.1570 C   0  0  0  0  0  0  0  0  0  0  0  0
    4.1530   27.2980    7.1590 C   0  0  0  0  0  0  0  0  0  0  0  0
    5.1350   27.3240    6.1870 C   0  0  0  0  0  0  0  0  0  0  0  0
    6.1320   26.3690    6.2250 C   0  0  0  0  0  0  0  0  0  0  0  0
    3.0720   28.3190    7.2490 C   0  0  0  0  0  0  0  0  0  0  0  0
    3.2070   29.6280    6.7870 N   0  0  0  0  0  0  0  0  0  0  0  0
    2.0920   30.2330    7.1780 C   0  0  0  0  0  0  0  0  0  0  0  0
    1.2730   29.1820    7.8690 C   0  0  0  0  0  0  0  0  0  0  0  0
    1.9460   28.0750    7.8650 N   0  0  0  0  0  0  0  0  0  0  0  0
    0.0400   29.5240    8.4050 C   0  0  0  0  0  0  0  0  0  0  0  0
   -0.3170   30.8580    8.2090 C   0  0  0  0  0  0  0  0  0  0  0  0
    0.4780   31.7790    7.5620 C   0  0  0  0  0  0  0  0  0  0  0  0
    1.6600   31.4580    7.0610 N   0  0  0  0  0  0  0  0  0  0  0  0
   -1.9660   31.5260    8.8450 Br  0  0  0  0  0  0  0  0  0  0  0  0
   -0.8850   28.7000    9.0950 N   0  0  0  0  0  0  0  0  0  0  0  0
   -0.4680   27.3420    9.4370 C   0  0  0  0  0  0  0  0  0  0  0  0
    0.3930   27.3810   10.6910 C   0  0  0  0  0  0  0  0  0  0  0  0
   -0.2860   28.0970   11.8380 C   0  0  0  0  0  0  0  0  0  0  0  0
   -1.4080   27.3320   12.3190 N   0  0  0  0  0  0  0  0  0  0  0  0
   -2.7010   27.6520   11.9640 C   0  0  0  0  0  0  0  0  0  0  0  0
   -3.0000   28.6480   11.3080 O   0  0  0  0  0  0  0  0  0  0  0  0
   -3.7700   26.7090   12.4100 C   0  0  2  0  0  0  0  0  0  0  0  0
   -4.8350   26.3890   11.3950 C   0  0  0  0  0  0  0  0  0  0  0  0
   -5.1620   27.2760   12.5370 C   0  0  0  0  0  0  0  0  0  0  0  0
   -3.5020   25.6130   13.4010 C   0  0  0  0  0  0  0  0  0  0  0  0
   -3.2490   26.0590   14.7910 N   0  3  0  0  0  0  0  0  0  0  0  0
    7.8098   22.6667    8.0759 H   0  0  0  0  0  0  0  0  0  0  0  0
    6.0414   22.8518    7.8208 H   0  0  0  0  0  0  0  0  0  0  0  0
    6.8571   23.7525    9.1437 H   0  0  0  0  0  0  0  0  0  0  0  0
    5.1885   24.6273    8.9711 H   0  0  0  0  0  0  0  0  0  0  0  0
    3.4101   26.3293    8.9181 H   0  0  0  0  0  0  0  0  0  0  0  0
    5.1230   28.0794    5.4097 H   0  0  0  0  0  0  0  0  0  0  0  0
    6.9017   26.3708    5.4617 H   0  0  0  0  0  0  0  0  0  0  0  0
    3.9942   30.0337    6.2611 H   0  0  0  0  0  0  0  0  0  0  0  0
    0.1240   32.7985    7.4602 H   0  0  0  0  0  0  0  0  0  0  0  0
   -1.8212   29.0477    9.3471 H   0  0  0  0  0  0  0  0  0  0  0  0
    0.1127   26.9156    8.6058 H   0  0  0  0  0  0  0  0  0  0  0  0
   -1.3565   26.7200    9.6206 H   0  0  0  0  0  0  0  0  0  0  0  0
    1.3333   27.9018   10.4573 H   0  0  0  0  0  0  0  0  0  0  0  0
    0.6127   26.3485   11.0003 H   0  0  0  0  0  0  0  0  0  0  0  0
   -0.6397   29.0795   11.4924 H   0  0  0  0  0  0  0  0  0  0  0  0
    0.4357   28.2343   12.6567 H   0  0  0  0  0  0  0  0  0  0  0  0
   -1.2453   26.5521   12.9234 H   0  0  0  0  0  0  0  0  0  0  0  0
   -5.1420   25.8776   10.4839 H   0  0  0  0  0  0  0  0  0  0  0  0
   -5.8825   27.8899   13.0755 H   0  0  0  0  0  0  0  0  0  0  0  0
   -2.6186   25.0543   13.0581 H   0  0  0  0  0  0  0  0  0  0  0  0
   -4.3762   24.9454   13.4130 H   0  0  0  0  0  0  0  0  0  0  0  0
   -3.0811   25.2557   15.3763 H   0  0  0  0  0  0  0  0  0  0  0  0
   -4.0522   26.5624   15.1338 H   0  0  0  0  0  0  0  0  0  0  0  0
   -2.4416   26.6622   14.8087 H   0  0  0  0  0  0  0  0  0  0  0  0
  1  2  1  0  0  0  0
  1 31  1  0  0  0  0
  1 32  1  0  0  0  0
  1 33  1  0  0  0  0
  2  3  1  0  0  0  0
  3  4  2  0  0  0  0
  3  8  1  0  0  0  0
  4  5  1  0  0  0  0
  4 34  1  0  0  0  0
  5  6  2  0  0  0  0
  5 35  1  0  0  0  0
  6  7  1  0  0  0  0
  6  9  1  0  0  0  0
  7  8  2  0  0  0  0
  7 36  1  0  0  0  0
  8 37  1  0  0  0  0
  9 10  1  0  0  0  0
  9 13  2  0  0  0  0
 10 11  1  0  0  0  0
 10 38  1  0  0  0  0
 11 12  2  0  0  0  0
 11 17  1  0  0  0  0
 12 13  1  0  0  0  0
 12 14  1  0  0  0  0
 14 15  2  0  0  0  0
 14 19  1  0  0  0  0
 15 16  1  0  0  0  0
 15 18  1  0  0  0  0
 16 17  2  0  0  0  0
 16 39  1  0  0  0  0
 19 20  1  0  0  0  0
 19 40  1  0  0  0  0
 20 21  1  0  0  0  0
 20 41  1  0  0  0  0
 20 42  1  0  0  0  0
 21 22  1  0  0  0  0
 21 43  1  0  0  0  0
 21 44  1  0  0  0  0
 22 23  1  0  0  0  0
 22 45  1  0  0  0  0
 22 46  1  0  0  0  0
 23 24  1  0  0  0  0
 23 47  1  0  0  0  0
 24 25  2  0  0  0  0
 26 24  1  6  0  0  0
 26 27  1  0  0  0  0
 26 28  1  0  0  0  0
 26 29  1  0  0  0  0
 27 28  2  0  0  0  0
 27 48  1  0  0  0  0
 28 49  1  0  0  0  0
 29 30  1  0  0  0  0
 29 50  1  0  0  0  0
 29 51  1  0  0  0  0
 30 52  1  0  0  0  0
 30 53  1  0  0  0  0
 30 54  1  0  0  0  0
M  CHG  1  30   1
M  END
