3umo_ligand
 OpenBabel08222323353D

 43 45  0  0  1  0  0  0  0  0999 V2000
    8.5350  -15.7940   16.2410 P   0  0  0  0  0  0  0  0  0  0  0  0
    9.3870  -15.6450   17.4520 O   0  0  0  0  0  1  0  0  0  0  0  0
    7.1210  -15.4710   16.7160 O   0  0  0  0  0  1  0  0  0  0  0  0
    8.9430  -14.9080   15.1150 O   0  0  0  0  0  0  0  0  0  0  0  0
    9.7960  -18.1030   15.4680 P   0  0  1  0  0  0  0  0  0  0  0  0
   10.5590  -17.4840   14.2570 O   0  0  0  0  0  1  0  0  0  0  0  0
   10.6700  -18.3090   16.7230 O   0  0  0  0  0  0  0  0  0  0  0  0
    8.4680  -17.2890   15.8110 O   0  0  0  0  0  0  0  0  0  0  0  0
    8.5400  -20.1130   13.8340 P   0  0  1  0  0  0  0  0  0  0  0  0
    8.4220  -19.0650   12.7670 O   0  0  0  0  0  1  0  0  0  0  0  0
    9.2260  -21.3940   13.3550 O   0  0  0  0  0  0  0  0  0  0  0  0
    9.2820  -19.5560   15.0790 O   0  0  0  0  0  0  0  0  0  0  0  0
    7.0550  -20.4120   14.3760 O   0  0  0  0  0  0  0  0  0  0  0  0
    6.8500  -21.4700   15.2490 C   0  0  0  0  0  0  0  0  0  0  0  0
    5.8050  -22.4310   14.9010 C   0  0  1  0  0  0  0  0  0  0  0  0
    4.6290  -21.6910   14.5070 O   0  0  0  0  0  0  0  0  0  0  0  0
    6.1360  -23.2160   13.7010 C   0  0  1  0  0  0  0  0  0  0  0  0
    6.9130  -24.3120   14.0060 O   0  0  0  0  0  0  0  0  0  0  0  0
    4.8090  -23.5720   13.1700 C   0  0  1  0  0  0  0  0  0  0  0  0
    4.2390  -24.5510   13.9390 O   0  0  0  0  0  0  0  0  0  0  0  0
    4.0510  -22.3190   13.3860 C   0  0  2  0  0  0  0  0  0  0  0  0
    4.1210  -21.4380   12.2220 N   0  0  0  0  0  0  0  0  0  0  0  0
    4.9450  -20.3850   12.0690 C   0  0  0  0  0  0  0  0  0  0  0  0
    4.6950  -19.8410   10.8520 N   0  0  0  0  0  0  0  0  0  0  0  0
    3.7200  -20.5480   10.2440 C   0  0  0  0  0  0  0  0  0  0  0  0
    3.0700  -20.4410    9.0100 C   0  0  0  0  0  0  0  0  0  0  0  0
    3.4270  -19.3580    8.0340 N   0  0  0  0  0  0  0  0  0  0  0  0
    2.1150  -21.3380    8.7090 N   0  0  0  0  0  0  0  0  0  0  0  0
    1.7810  -22.3180    9.5660 C   0  0  0  0  0  0  0  0  0  0  0  0
    2.3840  -22.4390   10.7520 N   0  0  0  0  0  0  0  0  0  0  0  0
    3.3470  -21.5740   11.1160 C   0  0  0  0  0  0  0  0  0  0  0  0
    6.5943  -21.0443   16.2305 H   0  0  0  0  0  0  0  0  0  0  0  0
    7.7970  -22.0243   15.3252 H   0  0  0  0  0  0  0  0  0  0  0  0
    5.6032  -23.0918   15.7569 H   0  0  0  0  0  0  0  0  0  0  0  0
    6.6809  -22.5959   12.9740 H   0  0  0  0  0  0  0  0  0  0  0  0
    7.1062  -24.7931   13.2101 H   0  0  0  0  0  0  0  0  0  0  0  0
    4.8475  -23.8707   12.1120 H   0  0  0  0  0  0  0  0  0  0  0  0
    3.3847  -24.7716   13.5868 H   0  0  0  0  0  0  0  0  0  0  0  0
    2.9965  -22.5556   13.5908 H   0  0  0  0  0  0  0  0  0  0  0  0
    5.6797  -20.0333   12.7918 H   0  0  0  0  0  0  0  0  0  0  0  0
    2.9362  -19.2967    7.1305 H   0  0  0  0  0  0  0  0  0  0  0  0
    4.1627  -18.6761    8.2677 H   0  0  0  0  0  0  0  0  0  0  0  0
    1.0068  -23.0244    9.2893 H   0  0  0  0  0  0  0  0  0  0  0  0
  1  2  1  0  0  0  0
  1  3  1  0  0  0  0
  1  4  2  0  0  0  0
  5  6  1  6  0  0  0
  5  7  2  0  0  0  0
  5  8  1  0  0  0  0
  8  1  1  0  0  0  0
  9 10  1  6  0  0  0
  9 11  2  0  0  0  0
  9 12  1  0  0  0  0
  9 13  1  0  0  0  0
 12  5  1  0  0  0  0
 13 14  1  0  0  0  0
 14 15  1  0  0  0  0
 14 32  1  0  0  0  0
 14 33  1  0  0  0  0
 15 16  1  0  0  0  0
 15 17  1  0  0  0  0
 15 34  1  1  0  0  0
 16 21  1  0  0  0  0
 17 18  1  0  0  0  0
 17 19  1  0  0  0  0
 17 35  1  6  0  0  0
 18 36  1  0  0  0  0
 19 20  1  0  0  0  0
 19 21  1  0  0  0  0
 19 37  1  6  0  0  0
 20 38  1  0  0  0  0
 21 22  1  0  0  0  0
 21 39  1  1  0  0  0
 22 23  1  0  0  0  0
 22 31  1  0  0  0  0
 23 24  2  0  0  0  0
 23 40  1  0  0  0  0
 24 25  1  0  0  0  0
 25 26  2  0  0  0  0
 25 31  1  0  0  0  0
 26 27  1  0  0  0  0
 26 28  1  0  0  0  0
 27 41  1  0  0  0  0
 27 42  1  0  0  0  0
 28 29  2  0  0  0  0
 29 30  1  0  0  0  0
 29 43  1  0  0  0  0
 30 31  2  0  0  0  0
M  END
