3ump_ligand
 OpenBabel08222323353D

 43 45  0  0  1  0  0  0  0  0999 V2000
   13.3670   60.2200   16.2880 P   0  0  0  0  0  0  0  0  0  0  0  0
   12.4950   60.0390   17.4880 O   0  0  0  0  0  1  0  0  0  0  0  0
   14.7860   59.8980   16.7680 O   0  0  0  0  0  1  0  0  0  0  0  0
   13.0250   59.3730   15.1190 O   0  0  0  0  0  0  0  0  0  0  0  0
   12.1060   62.5210   15.5120 P   0  0  1  0  0  0  0  0  0  0  0  0
   11.4130   61.8610   14.2830 O   0  0  0  0  0  1  0  0  0  0  0  0
   11.2240   62.6970   16.7810 O   0  0  0  0  0  0  0  0  0  0  0  0
   13.4210   61.7130   15.8940 O   0  0  0  0  0  0  0  0  0  0  0  0
   13.4030   64.4790   13.8650 P   0  0  1  0  0  0  0  0  0  0  0  0
   13.5420   63.4080   12.8100 O   0  0  0  0  0  1  0  0  0  0  0  0
   12.7340   65.7450   13.3720 O   0  0  0  0  0  0  0  0  0  0  0  0
   12.6380   63.9660   15.1140 O   0  0  0  0  0  0  0  0  0  0  0  0
   14.8880   64.8000   14.4230 O   0  0  0  0  0  0  0  0  0  0  0  0
   15.1090   65.8300   15.3330 C   0  0  0  0  0  0  0  0  0  0  0  0
   16.1180   66.8310   14.9610 C   0  0  1  0  0  0  0  0  0  0  0  0
   17.3000   66.1000   14.5460 O   0  0  0  0  0  0  0  0  0  0  0  0
   15.7720   67.5840   13.7500 C   0  0  1  0  0  0  0  0  0  0  0  0
   15.0070   68.6860   14.0450 O   0  0  0  0  0  0  0  0  0  0  0  0
   17.0920   67.9610   13.2040 C   0  0  1  0  0  0  0  0  0  0  0  0
   17.6720   68.9340   13.9720 O   0  0  0  0  0  0  0  0  0  0  0  0
   17.8680   66.7320   13.4100 C   0  0  2  0  0  0  0  0  0  0  0  0
   17.8010   65.8570   12.2520 N   0  0  0  0  0  0  0  0  0  0  0  0
   16.9900   64.7860   12.1160 C   0  0  0  0  0  0  0  0  0  0  0  0
   17.2490   64.2500   10.9010 N   0  0  0  0  0  0  0  0  0  0  0  0
   18.2110   64.9900   10.2870 C   0  0  0  0  0  0  0  0  0  0  0  0
   18.8670   64.9170    9.0550 C   0  0  0  0  0  0  0  0  0  0  0  0
   18.5260   63.8380    8.0820 N   0  0  0  0  0  0  0  0  0  0  0  0
   19.8070   65.8350    8.7600 N   0  0  0  0  0  0  0  0  0  0  0  0
   20.1240   66.8140    9.6200 C   0  0  0  0  0  0  0  0  0  0  0  0
   19.5190   66.9130   10.8080 N   0  0  0  0  0  0  0  0  0  0  0  0
   18.5720   66.0190   11.1530 C   0  0  0  0  0  0  0  0  0  0  0  0
   15.4255   65.3741   16.2827 H   0  0  0  0  0  0  0  0  0  0  0  0
   14.1545   66.3567   15.4792 H   0  0  0  0  0  0  0  0  0  0  0  0
   16.3150   67.5070   15.8061 H   0  0  0  0  0  0  0  0  0  0  0  0
   15.2249   66.9480   13.0386 H   0  0  0  0  0  0  0  0  0  0  0  0
   14.8004   69.1507   13.2426 H   0  0  0  0  0  0  0  0  0  0  0  0
   17.0365   68.2646   12.1482 H   0  0  0  0  0  0  0  0  0  0  0  0
   18.5181   69.1626   13.6057 H   0  0  0  0  0  0  0  0  0  0  0  0
   18.9207   66.9839   13.6058 H   0  0  0  0  0  0  0  0  0  0  0  0
   16.2663   64.4233   12.8445 H   0  0  0  0  0  0  0  0  0  0  0  0
   19.0128   63.7892    7.1756 H   0  0  0  0  0  0  0  0  0  0  0  0
   17.8039   63.1421    8.3169 H   0  0  0  0  0  0  0  0  0  0  0  0
   20.8838   67.5374    9.3472 H   0  0  0  0  0  0  0  0  0  0  0  0
  1  2  1  0  0  0  0
  1  3  1  0  0  0  0
  1  4  2  0  0  0  0
  5  6  1  6  0  0  0
  5  7  2  0  0  0  0
  5  8  1  0  0  0  0
  8  1  1  0  0  0  0
  9 10  1  6  0  0  0
  9 11  2  0  0  0  0
  9 12  1  0  0  0  0
  9 13  1  0  0  0  0
 12  5  1  0  0  0  0
 13 14  1  0  0  0  0
 14 15  1  0  0  0  0
 14 32  1  0  0  0  0
 14 33  1  0  0  0  0
 15 16  1  0  0  0  0
 15 17  1  0  0  0  0
 15 34  1  1  0  0  0
 16 21  1  0  0  0  0
 17 18  1  0  0  0  0
 17 19  1  0  0  0  0
 17 35  1  6  0  0  0
 18 36  1  0  0  0  0
 19 20  1  0  0  0  0
 19 21  1  0  0  0  0
 19 37  1  6  0  0  0
 20 38  1  0  0  0  0
 21 22  1  0  0  0  0
 21 39  1  1  0  0  0
 22 23  1  0  0  0  0
 22 31  1  0  0  0  0
 23 24  2  0  0  0  0
 23 40  1  0  0  0  0
 24 25  1  0  0  0  0
 25 26  2  0  0  0  0
 25 31  1  0  0  0  0
 26 27  1  0  0  0  0
 26 28  1  0  0  0  0
 27 41  1  0  0  0  0
 27 42  1  0  0  0  0
 28 29  2  0  0  0  0
 29 30  1  0  0  0  0
 29 43  1  0  0  0  0
 30 31  2  0  0  0  0
M  END
