3uol_ligand
 OpenBabel08222323353D

 39 42  0  0  0  0  0  0  0  0999 V2000
  -24.4250   17.2340   -9.0830 Cl  0  0  0  0  0  0  0  0  0  0  0  0
  -24.9580   18.8030   -8.6080 C   0  0  0  0  0  0  0  0  0  0  0  0
  -26.3020   19.0950   -8.5030 C   0  0  0  0  0  0  0  0  0  0  0  0
  -26.6900   20.3730   -8.1320 C   0  0  0  0  0  0  0  0  0  0  0  0
  -25.7300   21.3420   -7.8670 C   0  0  0  0  0  0  0  0  0  0  0  0
  -24.3830   21.0460   -7.9760 C   0  0  0  0  0  0  0  0  0  0  0  0
  -24.0020   19.7700   -8.3440 C   0  0  0  0  0  0  0  0  0  0  0  0
  -22.6210   19.3980   -8.4570 N   0  0  0  0  0  0  0  0  0  0  0  0
  -21.8860   19.8680   -9.5780 C   0  0  0  0  0  0  0  0  0  0  0  0
  -20.6740   19.2670   -9.9180 C   0  0  0  0  0  0  0  0  0  0  0  0
  -19.9800   19.7570  -11.0260 C   0  0  0  0  0  0  0  0  0  0  0  0
  -20.5260   20.7730  -11.7040 N   0  0  0  0  0  0  0  0  0  0  0  0
  -21.6760   21.3330  -11.3360 C   0  0  0  0  0  0  0  0  0  0  0  0
  -22.1470   22.3930  -12.1440 N   0  0  0  0  0  0  0  0  0  0  0  0
  -23.2700   23.2240  -11.8730 C   0  0  0  0  0  0  0  0  0  0  0  0
  -23.3740   24.3800  -12.6480 C   0  0  0  0  0  0  0  0  0  0  0  0
  -24.4280   25.2530  -12.4650 C   0  0  0  0  0  0  0  0  0  0  0  0
  -25.3800   24.9470  -11.5070 C   0  0  0  0  0  0  0  0  0  0  0  0
  -26.5050   25.9020  -11.3360 C   0  0  0  0  0  0  0  0  0  0  0  0
  -26.4570   27.0650  -10.6360 N   0  0  0  0  0  0  0  0  0  0  0  0
  -27.6840   27.6490  -10.7360 N   0  0  0  0  0  0  0  0  0  0  0  0
  -28.4760   26.8510  -11.4910 N   0  0  0  0  0  0  0  0  0  0  0  0
  -27.7400   25.7620  -11.8690 N   0  0  0  0  0  0  0  0  0  0  0  0
  -25.2880   23.7910  -10.7360 C   0  0  0  0  0  0  0  0  0  0  0  0
  -24.2230   22.9180  -10.9200 C   0  0  0  0  0  0  0  0  0  0  0  0
  -22.3740   20.9010  -10.2930 N   0  0  0  0  0  0  0  0  0  0  0  0
  -27.0461   18.3339   -8.7082 H   0  0  0  0  0  0  0  0  0  0  0  0
  -27.7430   20.6166   -8.0486 H   0  0  0  0  0  0  0  0  0  0  0  0
  -26.0392   22.3383   -7.5724 H   0  0  0  0  0  0  0  0  0  0  0  0
  -23.6361   21.8055   -7.7752 H   0  0  0  0  0  0  0  0  0  0  0  0
  -22.1738   18.8051   -7.7433 H   0  0  0  0  0  0  0  0  0  0  0  0
  -20.2810   18.4406   -9.3368 H   0  0  0  0  0  0  0  0  0  0  0  0
  -19.0307   19.3287  -11.3268 H   0  0  0  0  0  0  0  0  0  0  0  0
  -21.6271   22.5822  -13.0128 H   0  0  0  0  0  0  0  0  0  0  0  0
  -22.6220   24.5940  -13.3989 H   0  0  0  0  0  0  0  0  0  0  0  0
  -24.5084   26.1571  -13.0576 H   0  0  0  0  0  0  0  0  0  0  0  0
  -25.6439   27.4366  -10.1245 H   0  0  0  0  0  0  0  0  0  0  0  0
  -26.0465   23.5725   -9.9931 H   0  0  0  0  0  0  0  0  0  0  0  0
  -24.1411   22.0140  -10.3274 H   0  0  0  0  0  0  0  0  0  0  0  0
  1  2  1  0  0  0  0
  2  3  2  0  0  0  0
  2  7  1  0  0  0  0
  3  4  1  0  0  0  0
  3 27  1  0  0  0  0
  4  5  2  0  0  0  0
  4 28  1  0  0  0  0
  5  6  1  0  0  0  0
  5 29  1  0  0  0  0
  6  7  2  0  0  0  0
  6 30  1  0  0  0  0
  7  8  1  0  0  0  0
  8  9  1  0  0  0  0
  8 31  1  0  0  0  0
  9 10  2  0  0  0  0
  9 26  1  0  0  0  0
 10 11  1  0  0  0  0
 10 32  1  0  0  0  0
 11 12  2  0  0  0  0
 11 33  1  0  0  0  0
 12 13  1  0  0  0  0
 13 14  1  0  0  0  0
 13 26  2  0  0  0  0
 14 15  1  0  0  0  0
 14 34  1  0  0  0  0
 15 16  2  0  0  0  0
 15 25  1  0  0  0  0
 16 17  1  0  0  0  0
 16 35  1  0  0  0  0
 17 18  2  0  0  0  0
 17 36  1  0  0  0  0
 18 19  1  0  0  0  0
 18 24  1  0  0  0  0
 19 20  1  0  0  0  0
 19 23  2  0  0  0  0
 20 21  1  0  0  0  0
 20 37  1  0  0  0  0
 21 22  2  0  0  0  0
 22 23  1  0  0  0  0
 24 25  2  0  0  0  0
 24 38  1  0  0  0  0
 25 39  1  0  0  0  0
M  END
