3uqg_ligand
 OpenBabel08222323353D

 34 36  0  0  0  0  0  0  0  0999 V2000
   -8.7940  -41.1780    2.9130 C   0  0  0  0  0  0  0  0  0  0  0  0
   -8.5290  -41.0960    1.3970 C   0  0  0  0  0  0  0  0  0  0  0  0
   -7.0710  -41.0770    1.1530 N   0  3  0  0  0  0  0  0  0  0  0  0
   -6.4380  -39.8910    1.7700 C   0  0  0  0  0  0  0  0  0  0  0  0
   -6.6370  -39.9010    3.2960 C   0  0  0  0  0  0  0  0  0  0  0  0
   -8.1370  -39.9980    3.6580 C   0  0  0  0  0  0  0  0  0  0  0  0
   -8.3260  -40.1380    5.1780 C   0  0  0  0  0  0  0  0  0  0  0  0
   -8.3680  -38.8230    5.8540 N   0  0  0  0  0  0  0  0  0  0  0  0
   -7.3750  -38.2650    6.3230 N   0  0  0  0  0  0  0  0  0  0  0  0
   -7.7190  -37.1010    6.8770 C   0  0  0  0  0  0  0  0  0  0  0  0
   -9.0310  -36.9500    6.7140 C   0  0  0  0  0  0  0  0  0  0  0  0
   -9.4620  -38.0850    6.0380 C   0  0  0  0  0  0  0  0  0  0  0  0
  -10.7680  -38.2120    5.7150 N   0  0  0  0  0  0  0  0  0  0  0  0
  -11.6340  -37.2560    6.0540 C   0  0  0  0  0  0  0  0  0  0  0  0
  -11.2580  -36.1520    6.7010 N   0  0  0  0  0  0  0  0  0  0  0  0
   -9.9650  -35.9600    7.0480 C   0  0  0  0  0  0  0  0  0  0  0  0
   -9.5920  -34.8450    7.6890 N   0  0  0  0  0  0  0  0  0  0  0  0
   -8.3803  -42.1212    3.2992 H   0  0  0  0  0  0  0  0  0  0  0  0
   -9.8795  -41.1541    3.0895 H   0  0  0  0  0  0  0  0  0  0  0  0
   -8.9802  -40.1770    0.9949 H   0  0  0  0  0  0  0  0  0  0  0  0
   -8.9729  -41.9707    0.8991 H   0  0  0  0  0  0  0  0  0  0  0  0
   -6.9047  -41.0581    0.1590 H   0  0  0  0  0  0  0  0  0  0  0  0
   -6.6614  -41.9097    1.5465 H   0  0  0  0  0  0  0  0  0  0  0  0
   -6.8927  -38.9806    1.3525 H   0  0  0  0  0  0  0  0  0  0  0  0
   -5.3611  -39.8988    1.5462 H   0  0  0  0  0  0  0  0  0  0  0  0
   -6.2241  -38.9732    3.7188 H   0  0  0  0  0  0  0  0  0  0  0  0
   -6.1074  -40.7657    3.7223 H   0  0  0  0  0  0  0  0  0  0  0  0
   -8.6300  -39.0691    3.3353 H   0  0  0  0  0  0  0  0  0  0  0  0
   -7.4885  -40.7215    5.5879 H   0  0  0  0  0  0  0  0  0  0  0  0
   -9.2708  -40.6671    5.3713 H   0  0  0  0  0  0  0  0  0  0  0  0
   -7.0477  -36.4013    7.3727 H   0  0  0  0  0  0  0  0  0  0  0  0
  -12.6792  -37.3805    5.7948 H   0  0  0  0  0  0  0  0  0  0  0  0
  -10.2928  -34.1284    7.9262 H   0  0  0  0  0  0  0  0  0  0  0  0
   -8.6043  -34.7040    7.9449 H   0  0  0  0  0  0  0  0  0  0  0  0
  1  2  1  0  0  0  0
  1  6  1  0  0  0  0
  1 18  1  0  0  0  0
  1 19  1  0  0  0  0
  2  3  1  0  0  0  0
  2 20  1  0  0  0  0
  2 21  1  0  0  0  0
  3  4  1  0  0  0  0
  3 22  1  0  0  0  0
  3 23  1  0  0  0  0
  4  5  1  0  0  0  0
  4 24  1  0  0  0  0
  4 25  1  0  0  0  0
  5  6  1  0  0  0  0
  5 26  1  0  0  0  0
  5 27  1  0  0  0  0
  6  7  1  0  0  0  0
  6 28  1  0  0  0  0
  7  8  1  0  0  0  0
  7 29  1  0  0  0  0
  7 30  1  0  0  0  0
  8  9  1  0  0  0  0
  8 12  1  0  0  0  0
  9 10  2  0  0  0  0
 10 11  1  0  0  0  0
 10 31  1  0  0  0  0
 11 12  2  0  0  0  0
 11 16  1  0  0  0  0
 12 13  1  0  0  0  0
 13 14  2  0  0  0  0
 14 15  1  0  0  0  0
 14 32  1  0  0  0  0
 15 16  2  0  0  0  0
 16 17  1  0  0  0  0
 17 33  1  0  0  0  0
 17 34  1  0  0  0  0
M  CHG  1   3   1
M  END
