3ur9_ligand
 OpenBabel08222323353D

 50 50  0  0  1  0  0  0  0  0999 V2000
  -23.0180  -20.6780   36.1800 C   0  0  0  0  0  0  0  0  0  0  0  0
  -22.3290  -21.5920   35.3260 O   0  0  0  0  0  0  0  0  0  0  0  0
  -21.2430  -21.1160   34.5040 C   0  0  0  0  0  0  0  0  0  0  0  0
  -21.1030  -19.8990   34.3600 O   0  0  0  0  0  0  0  0  0  0  0  0
  -20.4240  -22.0460   33.9220 N   0  0  0  0  0  0  0  0  0  0  0  0
  -19.2690  -21.6330   33.1050 C   0  0  2  0  0  0  0  0  0  0  0  0
  -19.7460  -21.0130   31.8260 C   0  0  0  0  0  0  0  0  0  0  0  0
  -20.7350  -21.4520   31.2460 O   0  0  0  0  0  0  0  0  0  0  0  0
  -18.3920  -22.8180   32.7030 C   0  0  0  0  0  0  0  0  0  0  0  0
  -17.8300  -23.5600   33.9060 C   0  0  0  0  0  0  0  0  0  0  0  0
  -17.1830  -24.8510   33.4220 C   0  0  0  0  0  0  0  0  0  0  0  0
  -16.8190  -22.7220   34.6610 C   0  0  0  0  0  0  0  0  0  0  0  0
  -19.0370  -19.9270   31.3240 N   0  0  0  0  0  0  0  0  0  0  0  0
  -19.4460  -19.2110   30.1160 C   0  0  2  0  0  0  0  0  0  0  0  0
  -18.2490  -19.0270   29.1660 C   0  0  0  0  0  0  0  0  0  0  0  0
  -17.8140  -20.2860   28.6450 O   0  0  0  0  0  0  0  0  0  0  0  0
  -20.0190  -17.8420   30.4270 C   0  0  0  0  0  0  0  0  0  0  0  0
  -21.2120  -17.9050   31.3670 C   0  0  2  0  0  0  0  0  0  0  0  0
  -22.4150  -18.6230   30.7400 C   0  0  0  0  0  0  0  0  0  0  0  0
  -23.6280  -17.8360   31.2290 C   0  0  0  0  0  0  0  0  0  0  0  0
  -23.1600  -16.4850   31.6250 N   0  0  0  0  0  0  0  0  0  0  0  0
  -21.7830  -16.5490   31.5740 C   0  0  0  0  0  0  0  0  0  0  0  0
  -21.1070  -15.5430   31.6970 O   0  0  0  0  0  0  0  0  0  0  0  0
  -23.8087  -21.2124   36.7271 H   0  0  0  0  0  0  0  0  0  0  0  0
  -23.4680  -19.8780   35.5739 H   0  0  0  0  0  0  0  0  0  0  0  0
  -22.3081  -20.2397   36.8969 H   0  0  0  0  0  0  0  0  0  0  0  0
  -20.6122  -23.0194   34.0531 H   0  0  0  0  0  0  0  0  0  0  0  0
  -18.6703  -20.9080   33.6759 H   0  0  0  0  0  0  0  0  0  0  0  0
  -17.5543  -22.4467   32.0944 H   0  0  0  0  0  0  0  0  0  0  0  0
  -18.9960  -23.5181   32.1072 H   0  0  0  0  0  0  0  0  0  0  0  0
  -18.6573  -23.8059   34.5880 H   0  0  0  0  0  0  0  0  0  0  0  0
  -16.7713  -25.3996   34.2820 H   0  0  0  0  0  0  0  0  0  0  0  0
  -16.3729  -24.6133   32.7169 H   0  0  0  0  0  0  0  0  0  0  0  0
  -17.9375  -25.4726   32.9177 H   0  0  0  0  0  0  0  0  0  0  0  0
  -17.2969  -21.7931   35.0055 H   0  0  0  0  0  0  0  0  0  0  0  0
  -15.9770  -22.4767   33.9970 H   0  0  0  0  0  0  0  0  0  0  0  0
  -16.4489  -23.2875   35.5289 H   0  0  0  0  0  0  0  0  0  0  0  0
  -18.2159  -19.6239   31.8076 H   0  0  0  0  0  0  0  0  0  0  0  0
  -20.2177  -19.8079   29.6078 H   0  0  0  0  0  0  0  0  0  0  0  0
  -17.4199  -18.5594   29.7173 H   0  0  0  0  0  0  0  0  0  0  0  0
  -18.5480  -18.3757   28.3315 H   0  0  0  0  0  0  0  0  0  0  0  0
  -17.5516  -20.8507   29.3624 H   0  0  0  0  0  0  0  0  0  0  0  0
  -20.3377  -17.3716   29.4851 H   0  0  0  0  0  0  0  0  0  0  0  0
  -19.2340  -17.2300   30.8953 H   0  0  0  0  0  0  0  0  0  0  0  0
  -20.9106  -18.3739   32.3153 H   0  0  0  0  0  0  0  0  0  0  0  0
  -22.4658  -19.6673   31.0817 H   0  0  0  0  0  0  0  0  0  0  0  0
  -22.3530  -18.5990   29.6420 H   0  0  0  0  0  0  0  0  0  0  0  0
  -24.0804  -18.3439   32.0935 H   0  0  0  0  0  0  0  0  0  0  0  0
  -24.3710  -17.7534   30.4221 H   0  0  0  0  0  0  0  0  0  0  0  0
  -23.7223  -15.6968   31.8753 H   0  0  0  0  0  0  0  0  0  0  0  0
  1  2  1  0  0  0  0
  1 24  1  0  0  0  0
  1 25  1  0  0  0  0
  1 26  1  0  0  0  0
  2  3  1  0  0  0  0
  3  4  2  0  0  0  0
  3  5  1  0  0  0  0
  5  6  1  0  0  0  0
  5 27  1  0  0  0  0
  6  7  1  0  0  0  0
  6  9  1  0  0  0  0
  6 28  1  1  0  0  0
  7  8  2  0  0  0  0
  7 13  1  0  0  0  0
  9 10  1  0  0  0  0
  9 29  1  0  0  0  0
  9 30  1  0  0  0  0
 10 11  1  0  0  0  0
 10 12  1  0  0  0  0
 10 31  1  0  0  0  0
 11 32  1  0  0  0  0
 11 33  1  0  0  0  0
 11 34  1  0  0  0  0
 12 35  1  0  0  0  0
 12 36  1  0  0  0  0
 12 37  1  0  0  0  0
 13 14  1  0  0  0  0
 13 38  1  0  0  0  0
 14 15  1  0  0  0  0
 14 17  1  0  0  0  0
 14 39  1  6  0  0  0
 15 16  1  0  0  0  0
 15 40  1  0  0  0  0
 15 41  1  0  0  0  0
 16 42  1  0  0  0  0
 17 18  1  0  0  0  0
 17 43  1  0  0  0  0
 17 44  1  0  0  0  0
 18 19  1  0  0  0  0
 18 22  1  0  0  0  0
 18 45  1  1  0  0  0
 19 20  1  0  0  0  0
 19 46  1  0  0  0  0
 19 47  1  0  0  0  0
 20 21  1  0  0  0  0
 20 48  1  0  0  0  0
 20 49  1  0  0  0  0
 21 22  1  0  0  0  0
 21 50  1  0  0  0  0
 22 23  2  0  0  0  0
M  END
