3uwl_ligand
 OpenBabel08222323353D

 55 57  0  0  1  0  0  0  0  0999 V2000
   51.3140  -17.4710   26.6290 C   0  0  0  0  0  0  0  0  0  0  0  0
   51.6600  -17.4060   25.3430 N   0  0  0  0  0  0  0  0  0  0  0  0
   51.8750  -16.7650   27.4480 O   0  0  0  0  0  0  0  0  0  0  0  0
   45.4100  -17.8730   31.9970 N   0  0  0  0  0  0  0  0  0  0  0  0
   52.8830  -15.0680   22.8810 O   0  5  0  0  0  0  0  0  0  0  0  0
   45.2120  -16.8120   31.1920 C   0  0  0  0  0  0  0  0  0  0  0  0
   51.5120  -16.7110   22.7690 O   0  0  0  0  0  0  0  0  0  0  0  0
   44.8970  -16.9290   29.8710 N   0  0  0  0  0  0  0  0  0  0  0  0
   43.7070  -21.8460   28.0480 O   0  0  0  0  0  0  0  0  0  0  0  0
   44.7510  -18.1420   29.2730 C   0  0  0  0  0  0  0  0  0  0  0  0
   44.4580  -18.2730   28.0510 O   0  0  0  0  0  0  0  0  0  0  0  0
   44.8840  -20.6340   29.5410 N   0  0  0  0  0  0  0  0  0  0  0  0
   45.6680  -21.6510   30.2810 C   0  0  2  0  0  0  0  0  0  0  0  0
   45.4660  -21.5660   31.8000 C   0  0  0  0  0  0  0  0  0  0  0  0
   45.4890  -20.2040   32.3350 N   0  0  0  0  0  0  0  0  0  0  0  0
   47.1690  -21.4350   29.9490 C   0  0  0  0  0  0  0  0  0  0  0  0
   52.6280  -16.4260   24.8270 C   0  0  1  0  0  0  0  0  0  0  0  0
   54.0860  -16.8590   24.9330 C   0  0  0  0  0  0  0  0  0  0  0  0
   55.7090  -18.7150   24.5840 C   0  0  0  0  0  0  0  0  0  0  0  0
   54.2850  -18.2550   24.3430 C   0  0  0  0  0  0  0  0  0  0  0  0
   52.3420  -16.0540   23.3920 C   0  0  0  0  0  0  0  0  0  0  0  0
   47.4250  -21.1540   28.5280 N   0  0  0  0  0  0  0  0  0  0  0  0
   50.2490  -18.4380   27.1150 C   0  0  0  0  0  0  0  0  0  0  0  0
   49.4330  -19.1510   26.2200 C   0  0  0  0  0  0  0  0  0  0  0  0
   48.4750  -20.0620   26.6930 C   0  0  0  0  0  0  0  0  0  0  0  0
   48.3560  -20.2760   28.0740 C   0  0  0  0  0  0  0  0  0  0  0  0
   49.1820  -19.5750   28.9750 C   0  0  0  0  0  0  0  0  0  0  0  0
   50.1250  -18.6670   28.5000 C   0  0  0  0  0  0  0  0  0  0  0  0
   44.9270  -19.3470   30.1210 C   0  0  0  0  0  0  0  0  0  0  0  0
   45.2770  -19.1310   31.5440 C   0  0  0  0  0  0  0  0  0  0  0  0
   45.3440  -15.5780   31.7110 N   0  0  0  0  0  0  0  0  0  0  0  0
   55.9310  -19.3600   25.6330 O   0  5  0  0  0  0  0  0  0  0  0  0
   56.6000  -18.4560   23.7390 O   0  0  0  0  0  0  0  0  0  0  0  0
   43.6550  -21.0310   28.9640 C   0  0  0  0  0  0  0  0  0  0  0  0
   51.2437  -18.0509   24.7020 H   0  0  0  0  0  0  0  0  0  0  0  0
   44.7697  -16.1001   29.3263 H   0  0  0  0  0  0  0  0  0  0  0  0
   45.3585  -22.6510   29.9431 H   0  0  0  0  0  0  0  0  0  0  0  0
   46.2674  -22.1410   32.2869 H   0  0  0  0  0  0  0  0  0  0  0  0
   44.4921  -22.0155   32.0438 H   0  0  0  0  0  0  0  0  0  0  0  0
   45.6712  -20.0609   33.3386 H   0  0  0  0  0  0  0  0  0  0  0  0
   47.7210  -22.3446   30.2282 H   0  0  0  0  0  0  0  0  0  0  0  0
   47.5375  -20.5856   30.5429 H   0  0  0  0  0  0  0  0  0  0  0  0
   52.5123  -15.5189   25.4383 H   0  0  0  0  0  0  0  0  0  0  0  0
   54.3822  -16.8702   25.9923 H   0  0  0  0  0  0  0  0  0  0  0  0
   54.7151  -16.1430   24.3839 H   0  0  0  0  0  0  0  0  0  0  0  0
   54.0887  -18.2258   23.2611 H   0  0  0  0  0  0  0  0  0  0  0  0
   53.5880  -18.9574   24.8233 H   0  0  0  0  0  0  0  0  0  0  0  0
   46.8595  -21.6576   27.8298 H   0  0  0  0  0  0  0  0  0  0  0  0
   49.5445  -18.9959   25.1530 H   0  0  0  0  0  0  0  0  0  0  0  0
   47.8346  -20.5939   25.9987 H   0  0  0  0  0  0  0  0  0  0  0  0
   49.0831  -19.7430   30.0413 H   0  0  0  0  0  0  0  0  0  0  0  0
   50.7641  -18.1360   29.1961 H   0  0  0  0  0  0  0  0  0  0  0  0
   45.5815  -15.4606   32.7063 H   0  0  0  0  0  0  0  0  0  0  0  0
   45.2075  -14.7505   31.1131 H   0  0  0  0  0  0  0  0  0  0  0  0
   42.7054  -20.6314   29.3168 H   0  0  0  0  0  0  0  0  0  0  0  0
  1  2  1  0  0  0  0
  1  3  2  0  0  0  0
  2 17  1  0  0  0  0
  2 35  1  0  0  0  0
  4  6  2  0  0  0  0
  6 31  1  0  0  0  0
  8  6  1  0  0  0  0
  8 36  1  0  0  0  0
 10  8  1  0  0  0  0
 10 11  2  0  0  0  0
 12 29  1  0  0  0  0
 12 34  1  0  0  0  0
 13 12  1  0  0  0  0
 13 14  1  0  0  0  0
 13 37  1  6  0  0  0
 14 15  1  0  0  0  0
 14 38  1  0  0  0  0
 14 39  1  0  0  0  0
 15 30  1  0  0  0  0
 15 40  1  0  0  0  0
 16 13  1  0  0  0  0
 16 41  1  0  0  0  0
 16 42  1  0  0  0  0
 17 18  1  0  0  0  0
 17 21  1  0  0  0  0
 17 43  1  1  0  0  0
 18 20  1  0  0  0  0
 18 44  1  0  0  0  0
 18 45  1  0  0  0  0
 19 32  1  0  0  0  0
 19 33  2  0  0  0  0
 20 19  1  0  0  0  0
 20 46  1  0  0  0  0
 20 47  1  0  0  0  0
 21  5  1  0  0  0  0
 21  7  2  0  0  0  0
 22 16  1  0  0  0  0
 22 48  1  0  0  0  0
 23  1  1  0  0  0  0
 23 28  1  0  0  0  0
 24 23  2  0  0  0  0
 24 49  1  0  0  0  0
 25 24  1  0  0  0  0
 25 26  2  0  0  0  0
 25 50  1  0  0  0  0
 26 22  1  0  0  0  0
 26 27  1  0  0  0  0
 27 28  2  0  0  0  0
 27 51  1  0  0  0  0
 28 52  1  0  0  0  0
 29 10  1  0  0  0  0
 29 30  2  0  0  0  0
 30  4  1  0  0  0  0
 31 53  1  0  0  0  0
 31 54  1  0  0  0  0
 34  9  2  0  0  0  0
 34 55  1  0  0  0  0
M  CHG  2   5  -1  32  -1
M  END
