3uxg_ligand
 OpenBabel08222323353D

246250  0  0  1  0  0  0  0  0999 V2000
    4.1880   40.5910   24.0660 N   0  3  0  0  0  0  0  0  0  0  0  0
    4.0240   41.1060   22.6860 C   0  0  2  0  0  0  0  0  0  0  0  0
    3.9280   39.9790   21.6530 C   0  0  0  0  0  0  0  0  0  0  0  0
    4.9560   39.3950   21.3100 O   0  0  0  0  0  0  0  0  0  0  0  0
    5.3140   41.9250   22.4650 C   0  0  0  0  0  0  0  0  0  0  0  0
    6.3620   41.3090   23.4460 C   0  0  0  0  0  0  0  0  0  0  0  0
    5.6080   40.4210   24.4460 C   0  0  0  0  0  0  0  0  0  0  0  0
    2.7120   39.6590   21.1980 N   0  0  0  0  0  0  0  0  0  0  0  0
    2.5010   38.6040   20.1860 C   0  0  2  0  0  0  0  0  0  0  0  0
    1.9180   39.2000   18.8990 C   0  0  0  0  0  0  0  0  0  0  0  0
    0.8110   39.7330   18.8660 O   0  0  0  0  0  0  0  0  0  0  0  0
    1.5810   37.4790   20.6830 C   0  0  0  0  0  0  0  0  0  0  0  0
    2.1420   36.4990   21.7190 C   0  0  0  0  0  0  0  0  0  0  0  0
    1.0200   35.6410   22.3310 C   0  0  0  0  0  0  0  0  0  0  0  0
    3.2400   35.6280   21.1070 C   0  0  0  0  0  0  0  0  0  0  0  0
    2.6760   39.1040   17.8310 N   0  0  0  0  0  0  0  0  0  0  0  0
    2.2380   39.6230   16.5480 C   0  0  2  0  0  0  0  0  0  0  0  0
    1.2320   38.6540   15.9090 C   0  0  0  0  0  0  0  0  0  0  0  0
    1.3730   37.4240   16.0250 O   0  0  0  0  0  0  0  0  0  0  0  0
    3.4520   39.8360   15.6200 C   0  0  0  0  0  0  0  0  0  0  0  0
    4.2630   41.0860   15.9050 C   0  0  0  0  0  0  0  0  0  0  0  0
    4.3050   41.6670   17.1870 C   0  0  0  0  0  0  0  0  0  0  0  0
    5.0030   41.6840   14.8880 C   0  0  0  0  0  0  0  0  0  0  0  0
    5.0420   42.8150   17.4190 C   0  0  0  0  0  0  0  0  0  0  0  0
    5.7470   42.8350   15.1150 C   0  0  0  0  0  0  0  0  0  0  0  0
    5.7460   43.3920   16.3770 C   0  0  0  0  0  0  0  0  0  0  0  0
    6.4780   44.4960   16.5850 O   0  0  0  0  0  0  0  0  0  0  0  0
    0.2320   39.2240   15.2310 N   0  0  0  0  0  0  0  0  0  0  0  0
   -0.8190   38.4670   14.5400 C   0  0  2  0  0  0  0  0  0  0  0  0
   -0.2720   37.6480   13.3790 C   0  0  0  0  0  0  0  0  0  0  0  0
    0.7780   37.9780   12.8250 O   0  0  0  0  0  0  0  0  0  0  0  0
   -1.9130   39.4310   13.9910 C   0  0  2  0  0  0  0  0  0  0  0  0
   -1.2860   40.4500   13.1650 O   0  0  0  0  0  0  0  0  0  0  0  0
   -2.6560   40.0530   15.1450 C   0  0  0  0  0  0  0  0  0  0  0  0
   -0.9540   36.5550   13.0200 N   0  0  0  0  0  0  0  0  0  0  0  0
   -0.4430   35.6820   11.9550 C   0  0  2  0  0  0  0  0  0  0  0  0
   -0.3070   36.3350   10.5890 C   0  0  0  0  0  0  0  0  0  0  0  0
   -1.0640   37.2640   10.2130 O   0  0  0  0  0  0  0  0  0  0  0  0
   -1.2910   34.4040   11.7930 C   0  0  0  0  0  0  0  0  0  0  0  0
   -1.2490   33.6110   12.9650 O   0  0  0  0  0  0  0  0  0  0  0  0
    0.6530   35.8510    9.8060 N   0  0  0  0  0  0  0  0  0  0  0  0
    0.6640   36.2100    8.3770 C   0  0  2  0  0  0  0  0  0  0  0  0
   -0.7290   35.9770    7.7700 C   0  0  0  0  0  0  0  0  0  0  0  0
   -1.3720   34.9540    8.0410 O   0  0  0  0  0  0  0  0  0  0  0  0
    1.6770   35.2460    7.7810 C   0  0  0  0  0  0  0  0  0  0  0  0
    2.5450   34.8430    8.9190 C   0  0  0  0  0  0  0  0  0  0  0  0
    1.7020   34.8910   10.1550 C   0  0  0  0  0  0  0  0  0  0  0  0
   -1.2140   36.9590    7.0320 N   0  0  0  0  0  0  0  0  0  0  0  0
   -2.5460   36.9120    6.4720 C   0  0  2  0  0  0  0  0  0  0  0  0
   -2.5110   37.4000    5.0270 C   0  0  0  0  0  0  0  0  0  0  0  0
   -1.7110   38.2590    4.6780 O   0  0  0  0  0  0  0  0  0  0  0  0
   -3.4740   37.8030    7.2900 C   0  0  0  0  0  0  0  0  0  0  0  0
   -3.0230   39.1350    7.2220 O   0  0  0  0  0  0  0  0  0  0  0  0
   -3.3550   36.8010    4.1900 N   0  0  0  0  0  0  0  0  0  0  0  0
   -3.5330   37.2200    2.7770 C   0  0  2  0  0  0  0  0  0  0  0  0
   -4.9450   37.7610    2.6470 C   0  0  0  0  0  0  0  0  0  0  0  0
   -5.9130   37.1330    3.1390 O   0  0  0  0  0  0  0  0  0  0  0  0
   -3.2640   36.0520    1.7950 C   0  0  0  0  0  0  0  0  0  0  0  0
   -1.8040   35.5550    1.7490 C   0  0  0  0  0  0  0  0  0  0  0  0
   -1.6510   34.2890    0.8920 C   0  0  0  0  0  0  0  0  0  0  0  0
   -0.7960   36.6200    1.2610 C   0  0  0  0  0  0  0  0  0  0  0  0
   -5.0950   38.9440    2.0220 N   0  0  0  0  0  0  0  0  0  0  0  0
   -6.3950   39.5820    1.9970 C   0  0  2  0  0  0  0  0  0  0  0  0
   -7.3350   38.9890    0.9620 C   0  0  0  0  0  0  0  0  0  0  0  0
   -6.8890   38.2890    0.0550 O   0  0  0  0  0  0  0  0  0  0  0  0
   -6.0440   41.0100    1.6050 C   0  0  0  0  0  0  0  0  0  0  0  0
   -4.8270   40.8340    0.7510 C   0  0  0  0  0  0  0  0  0  0  0  0
   -4.0550   39.8510    1.5010 C   0  0  0  0  0  0  0  0  0  0  0  0
   -8.6300   39.2890    1.1030 N   0  0  0  0  0  0  0  0  0  0  0  0
   -9.6240   38.8900    0.1040 C   0  0  2  0  0  0  0  0  0  0  0  0
   -9.5430   39.9090   -1.0350 C   0  0  0  0  0  0  0  0  0  0  0  0
   -9.9960   41.0410   -0.8990 O   0  0  0  0  0  0  0  0  0  0  0  0
  -11.0340   38.8880    0.6890 C   0  0  0  0  0  0  0  0  0  0  0  0
  -12.1170   38.5780   -0.3790 C   0  0  0  0  0  0  0  0  0  0  0  0
  -11.8230   38.4510   -1.5770 O   0  0  0  0  0  0  0  0  0  0  0  0
  -13.3480   38.4580    0.0550 N   0  0  0  0  0  0  0  0  0  0  0  0
   -8.9720   39.5110   -2.1550 N   0  0  0  0  0  0  0  0  0  0  0  0
   -8.5700   40.4980   -3.1690 C   0  0  2  0  0  0  0  0  0  0  0  0
   -9.7490   41.0360   -4.0090 C   0  0  0  0  0  0  0  0  0  0  0  0
   -9.6310   42.0860   -4.6580 O   0  0  0  0  0  0  0  0  0  0  0  0
   -7.4960   39.9460   -4.0960 C   0  0  2  0  0  0  0  0  0  0  0  0
   -8.0250   38.7550   -4.8900 C   0  0  0  0  0  0  0  0  0  0  0  0
   -6.1910   39.5840   -3.3070 C   0  0  0  0  0  0  0  0  0  0  0  0
   -6.9440   38.1590   -5.8440 C   0  0  0  0  0  0  0  0  0  0  0  0
  -10.8860   40.3530   -3.9710 N   0  0  0  0  0  0  0  0  0  0  0  0
  -12.0710   40.8250   -4.7030 C   0  0  2  0  0  0  0  0  0  0  0  0
  -13.1690   41.3470   -3.7770 C   0  0  0  0  0  0  0  0  0  0  0  0
  -14.3070   41.5540   -4.2070 O   0  0  0  0  0  0  0  0  0  0  0  0
  -12.6100   39.7140   -5.6160 C   0  0  2  0  0  0  0  0  0  0  0  0
  -12.8750   38.5410   -4.8230 O   0  0  0  0  0  0  0  0  0  0  0  0
  -11.5580   39.4100   -6.7160 C   0  0  0  0  0  0  0  0  0  0  0  0
  -12.8150   41.6130   -2.5190 N   0  0  0  0  0  0  0  0  0  0  0  0
  -13.7660   42.1970   -1.5670 C   0  0  2  0  0  0  0  0  0  0  0  0
  -14.3560   43.4830   -2.1390 C   0  0  0  0  0  0  0  0  0  0  0  0
  -13.6170   44.3720   -2.5760 O   0  0  0  0  0  0  0  0  0  0  0  0
  -13.0830   42.5010   -0.2480 C   0  0  0  0  0  0  0  0  0  0  0  0
  -13.9860   43.0740    0.8460 C   0  0  0  0  0  0  0  0  0  0  0  0
  -15.0520   42.0420    1.2270 C   0  0  0  0  0  0  0  0  0  0  0  0
  -13.1360   43.5070    2.0470 C   0  0  0  0  0  0  0  0  0  0  0  0
  -15.6840   43.5620   -2.1420 N   0  0  0  0  0  0  0  0  0  0  0  0
  -16.4000   44.7150   -2.6810 C   0  0  0  0  0  0  0  0  0  0  0  0
  -16.4920   44.7750   -4.1990 C   0  0  0  0  0  0  0  0  0  0  0  0
  -17.1110   45.6820   -4.7320 O   0  0  0  0  0  0  0  0  0  0  0  0
  -15.8880   43.8210   -4.9060 N   0  0  0  0  0  0  0  0  0  0  0  0
  -15.9290   43.8460   -6.3680 C   0  0  2  0  0  0  0  0  0  0  0  0
  -16.9990   42.9110   -6.9310 C   0  0  0  0  0  0  0  0  0  0  0  0
  -17.3590   41.9290   -6.2790 O   0  0  0  0  0  0  0  0  0  0  0  0
  -14.5570   43.4920   -6.9620 C   0  0  0  0  0  0  0  0  0  0  0  0
  -13.4460   44.5290   -6.7860 C   0  0  0  0  0  0  0  0  0  0  0  0
  -12.2030   44.0440   -7.5230 C   0  0  0  0  0  0  0  0  0  0  0  0
  -13.8810   45.9450   -7.2710 C   0  0  0  0  0  0  0  0  0  0  0  0
  -17.5110   43.2220   -8.1460 N   0  0  0  0  0  0  0  0  0  0  0  0
  -18.3670   42.2860   -8.8930 C   0  0  2  0  0  0  0  0  0  0  0  0
  -17.7930   40.8580   -8.9960 C   0  0  0  0  0  0  0  0  0  0  0  0
  -18.5690   39.9050   -9.0090 O   0  5  0  0  0  0  0  0  0  0  0  0
  -18.4850   42.9410  -10.2760 C   0  0  0  0  0  0  0  0  0  0  0  0
  -18.3600   44.4220   -9.9910 C   0  0  0  0  0  0  0  0  0  0  0  0
  -17.4780   44.5640   -8.7740 C   0  0  0  0  0  0  0  0  0  0  0  0
  -16.5710   40.5920   -9.0270 O   0  0  0  0  0  0  0  0  0  0  0  0
    3.7267   39.6974   24.1339 H   0  0  0  0  0  0  0  0  0  0  0  0
    3.7583   41.2405   24.7060 H   0  0  0  0  0  0  0  0  0  0  0  0
    3.1311   41.7442   22.6121 H   0  0  0  0  0  0  0  0  0  0  0  0
    5.1426   42.9859   22.6998 H   0  0  0  0  0  0  0  0  0  0  0  0
    5.6575   41.8306   21.4243 H   0  0  0  0  0  0  0  0  0  0  0  0
    6.8887   42.1119   23.9825 H   0  0  0  0  0  0  0  0  0  0  0  0
    7.0895   40.7047   22.8843 H   0  0  0  0  0  0  0  0  0  0  0  0
    5.9171   39.3699   24.3477 H   0  0  0  0  0  0  0  0  0  0  0  0
    5.7808   40.7590   25.4784 H   0  0  0  0  0  0  0  0  0  0  0  0
    1.9180   40.1510   21.5552 H   0  0  0  0  0  0  0  0  0  0  0  0
    3.4813   38.1631   19.9523 H   0  0  0  0  0  0  0  0  0  0  0  0
    1.2798   36.8898   19.8043 H   0  0  0  0  0  0  0  0  0  0  0  0
    0.6940   37.9536   21.1278 H   0  0  0  0  0  0  0  0  0  0  0  0
    2.5941   37.0882   22.5304 H   0  0  0  0  0  0  0  0  0  0  0  0
    1.4496   34.9481   23.0695 H   0  0  0  0  0  0  0  0  0  0  0  0
    0.5222   35.0668   21.5357 H   0  0  0  0  0  0  0  0  0  0  0  0
    0.2864   36.2949   22.8252 H   0  0  0  0  0  0  0  0  0  0  0  0
    4.0233   36.2716   20.6801 H   0  0  0  0  0  0  0  0  0  0  0  0
    2.8097   34.9990   20.3138 H   0  0  0  0  0  0  0  0  0  0  0  0
    3.6769   34.9870   21.8868 H   0  0  0  0  0  0  0  0  0  0  0  0
    3.5717   38.6652   17.9029 H   0  0  0  0  0  0  0  0  0  0  0  0
    1.7424   40.5920   16.7075 H   0  0  0  0  0  0  0  0  0  0  0  0
    3.0844   39.8960   14.5850 H   0  0  0  0  0  0  0  0  0  0  0  0
    4.1175   38.9662   15.7230 H   0  0  0  0  0  0  0  0  0  0  0  0
    3.7540   41.2100   18.0010 H   0  0  0  0  0  0  0  0  0  0  0  0
    4.9983   41.2419   13.8982 H   0  0  0  0  0  0  0  0  0  0  0  0
    5.0675   43.2581   18.4080 H   0  0  0  0  0  0  0  0  0  0  0  0
    6.3191   43.2881   14.3134 H   0  0  0  0  0  0  0  0  0  0  0  0
    7.3909   44.3087   16.4007 H   0  0  0  0  0  0  0  0  0  0  0  0
    0.1974   40.2226   15.1920 H   0  0  0  0  0  0  0  0  0  0  0  0
   -1.2802   37.7807   15.2655 H   0  0  0  0  0  0  0  0  0  0  0  0
   -2.6237   38.8602   13.3754 H   0  0  0  0  0  0  0  0  0  0  0  0
   -0.6628   40.9406   13.6879 H   0  0  0  0  0  0  0  0  0  0  0  0
   -3.4289   40.7340   14.7591 H   0  0  0  0  0  0  0  0  0  0  0  0
   -1.9512   40.6169   15.7736 H   0  0  0  0  0  0  0  0  0  0  0  0
   -3.1304   39.2622   15.7446 H   0  0  0  0  0  0  0  0  0  0  0  0
   -1.8144   36.3314   13.4780 H   0  0  0  0  0  0  0  0  0  0  0  0
    0.5662   35.3750   12.2668 H   0  0  0  0  0  0  0  0  0  0  0  0
   -0.8992   33.8178   10.9487 H   0  0  0  0  0  0  0  0  0  0  0  0
   -2.3338   34.6885   11.5893 H   0  0  0  0  0  0  0  0  0  0  0  0
   -1.5901   34.1114   13.6970 H   0  0  0  0  0  0  0  0  0  0  0  0
    0.9705   37.2556    8.2265 H   0  0  0  0  0  0  0  0  0  0  0  0
    2.2706   35.7438    7.0001 H   0  0  0  0  0  0  0  0  0  0  0  0
    1.1698   34.3688    7.3529 H   0  0  0  0  0  0  0  0  0  0  0  0
    3.3916   35.5391    9.0126 H   0  0  0  0  0  0  0  0  0  0  0  0
    2.9248   33.8228    8.7609 H   0  0  0  0  0  0  0  0  0  0  0  0
    1.2739   33.9029   10.3793 H   0  0  0  0  0  0  0  0  0  0  0  0
    2.2868   35.2418   11.0181 H   0  0  0  0  0  0  0  0  0  0  0  0
   -0.6421   37.7600    6.8550 H   0  0  0  0  0  0  0  0  0  0  0  0
   -2.9169   35.8768    6.4985 H   0  0  0  0  0  0  0  0  0  0  0  0
   -3.4742   37.4687    8.3380 H   0  0  0  0  0  0  0  0  0  0  0  0
   -4.4947   37.7400    6.8848 H   0  0  0  0  0  0  0  0  0  0  0  0
   -3.0231   39.4223    6.3165 H   0  0  0  0  0  0  0  0  0  0  0  0
   -3.8955   36.0312    4.5295 H   0  0  0  0  0  0  0  0  0  0  0  0
   -2.8199   38.0262    2.5500 H   0  0  0  0  0  0  0  0  0  0  0  0
   -3.5416   36.3863    0.7845 H   0  0  0  0  0  0  0  0  0  0  0  0
   -3.9022   35.2059    2.0896 H   0  0  0  0  0  0  0  0  0  0  0  0
   -1.5275   35.2933    2.7810 H   0  0  0  0  0  0  0  0  0  0  0  0
   -0.5973   33.9734    0.8891 H   0  0  0  0  0  0  0  0  0  0  0  0
   -1.9727   34.5024   -0.1380 H   0  0  0  0  0  0  0  0  0  0  0  0
   -2.2734   33.4848    1.3114 H   0  0  0  0  0  0  0  0  0  0  0  0
   -0.9000   37.5298    1.8705 H   0  0  0  0  0  0  0  0  0  0  0  0
   -0.9978   36.8600    0.2067 H   0  0  0  0  0  0  0  0  0  0  0  0
    0.2273   36.2283    1.3585 H   0  0  0  0  0  0  0  0  0  0  0  0
   -6.8700   39.5395    2.9882 H   0  0  0  0  0  0  0  0  0  0  0  0
   -5.8196   41.6200    2.4924 H   0  0  0  0  0  0  0  0  0  0  0  0
   -6.8620   41.4766    1.0365 H   0  0  0  0  0  0  0  0  0  0  0  0
   -4.2737   41.7791    0.6477 H   0  0  0  0  0  0  0  0  0  0  0  0
   -5.0928   40.4537   -0.2464 H   0  0  0  0  0  0  0  0  0  0  0  0
   -3.3540   39.3141    0.8450 H   0  0  0  0  0  0  0  0  0  0  0  0
   -3.4980   40.3273    2.3213 H   0  0  0  0  0  0  0  0  0  0  0  0
   -8.9275   39.7984    1.9105 H   0  0  0  0  0  0  0  0  0  0  0  0
   -9.3880   37.8837   -0.2723 H   0  0  0  0  0  0  0  0  0  0  0  0
  -11.2382   39.8783    1.1221 H   0  0  0  0  0  0  0  0  0  0  0  0
  -11.0878   38.1242    1.4787 H   0  0  0  0  0  0  0  0  0  0  0  0
  -14.0876   38.2585   -0.5878 H   0  0  0  0  0  0  0  0  0  0  0  0
  -13.5476   38.5660    1.0289 H   0  0  0  0  0  0  0  0  0  0  0  0
   -8.8121   38.5370   -2.3153 H   0  0  0  0  0  0  0  0  0  0  0  0
   -8.1372   41.3526   -2.6284 H   0  0  0  0  0  0  0  0  0  0  0  0
   -7.2380   40.7369   -4.8157 H   0  0  0  0  0  0  0  0  0  0  0  0
   -8.8859   39.0834   -5.4908 H   0  0  0  0  0  0  0  0  0  0  0  0
   -8.3461   37.9735   -4.1856 H   0  0  0  0  0  0  0  0  0  0  0  0
   -5.8429   40.4662   -2.7496 H   0  0  0  0  0  0  0  0  0  0  0  0
   -5.4110   39.2661   -4.0145 H   0  0  0  0  0  0  0  0  0  0  0  0
   -6.4031   38.7658   -2.6031 H   0  0  0  0  0  0  0  0  0  0  0  0
   -7.3697   37.3062   -6.3931 H   0  0  0  0  0  0  0  0  0  0  0  0
   -6.0802   37.8203   -5.2532 H   0  0  0  0  0  0  0  0  0  0  0  0
   -6.6200   38.9302   -6.5584 H   0  0  0  0  0  0  0  0  0  0  0  0
  -10.9377   39.5080   -3.4387 H   0  0  0  0  0  0  0  0  0  0  0  0
  -11.7535   41.6626   -5.3414 H   0  0  0  0  0  0  0  0  0  0  0  0
  -13.5442   40.0482   -6.0910 H   0  0  0  0  0  0  0  0  0  0  0  0
  -13.2088   37.8502   -5.3832 H   0  0  0  0  0  0  0  0  0  0  0  0
  -11.9361   38.6146   -7.3751 H   0  0  0  0  0  0  0  0  0  0  0  0
  -10.6198   39.0810   -6.2453 H   0  0  0  0  0  0  0  0  0  0  0  0
  -11.3726   40.3189   -7.3072 H   0  0  0  0  0  0  0  0  0  0  0  0
  -11.8829   41.4103   -2.2188 H   0  0  0  0  0  0  0  0  0  0  0  0
  -14.5784   41.4767   -1.3905 H   0  0  0  0  0  0  0  0  0  0  0  0
  -12.2816   43.2293   -0.4415 H   0  0  0  0  0  0  0  0  0  0  0  0
  -12.6449   41.5655    0.1301 H   0  0  0  0  0  0  0  0  0  0  0  0
  -14.4970   43.9640    0.4502 H   0  0  0  0  0  0  0  0  0  0  0  0
  -15.6994   42.4569    2.0136 H   0  0  0  0  0  0  0  0  0  0  0  0
  -14.5628   41.1295    1.5984 H   0  0  0  0  0  0  0  0  0  0  0  0
  -15.6593   41.7986    0.3428 H   0  0  0  0  0  0  0  0  0  0  0  0
  -12.3891   44.2455    1.7203 H   0  0  0  0  0  0  0  0  0  0  0  0
  -12.6239   42.6298    2.4691 H   0  0  0  0  0  0  0  0  0  0  0  0
  -13.7853   43.9563    2.8128 H   0  0  0  0  0  0  0  0  0  0  0  0
  -16.2119   42.8031   -1.7607 H   0  0  0  0  0  0  0  0  0  0  0  0
  -15.8870   45.6248   -2.3359 H   0  0  0  0  0  0  0  0  0  0  0  0
  -17.4239   44.6967   -2.2795 H   0  0  0  0  0  0  0  0  0  0  0  0
  -15.4039   43.0838   -4.4347 H   0  0  0  0  0  0  0  0  0  0  0  0
  -16.1807   44.8712   -6.6772 H   0  0  0  0  0  0  0  0  0  0  0  0
  -14.6928   43.3284   -8.0412 H   0  0  0  0  0  0  0  0  0  0  0  0
  -14.2195   42.5580   -6.4891 H   0  0  0  0  0  0  0  0  0  0  0  0
  -13.2082   44.6008   -5.7144 H   0  0  0  0  0  0  0  0  0  0  0  0
  -11.3954   44.7814   -7.4044 H   0  0  0  0  0  0  0  0  0  0  0  0
  -12.4343   43.9223   -8.5915 H   0  0  0  0  0  0  0  0  0  0  0  0
  -11.8822   43.0784   -7.1049 H   0  0  0  0  0  0  0  0  0  0  0  0
  -14.7783   46.2619   -6.7192 H   0  0  0  0  0  0  0  0  0  0  0  0
  -14.1054   45.9111   -8.3473 H   0  0  0  0  0  0  0  0  0  0  0  0
  -13.0664   46.6613   -7.0887 H   0  0  0  0  0  0  0  0  0  0  0  0
  -19.3557   42.2247   -8.4147 H   0  0  0  0  0  0  0  0  0  0  0  0
  -19.4578   42.7120  -10.7355 H   0  0  0  0  0  0  0  0  0  0  0  0
  -17.6767   42.6010  -10.9400 H   0  0  0  0  0  0  0  0  0  0  0  0
  -19.3519   44.8534   -9.7911 H   0  0  0  0  0  0  0  0  0  0  0  0
  -17.9035   44.9349  -10.8503 H   0  0  0  0  0  0  0  0  0  0  0  0
  -16.4521   44.8342   -9.0646 H   0  0  0  0  0  0  0  0  0  0  0  0
  -17.8778   45.3259   -8.0887 H   0  0  0  0  0  0  0  0  0  0  0  0
  1  2  1  0  0  0  0
  1  7  1  0  0  0  0
  1120  1  0  0  0  0
  1121  1  0  0  0  0
  2  3  1  0  0  0  0
  2  5  1  0  0  0  0
  2122  1  6  0  0  0
  3  4  2  0  0  0  0
  3  8  1  0  0  0  0
  5  6  1  0  0  0  0
  5123  1  0  0  0  0
  5124  1  0  0  0  0
  6  7  1  0  0  0  0
  6125  1  0  0  0  0
  6126  1  0  0  0  0
  7127  1  0  0  0  0
  7128  1  0  0  0  0
  8  9  1  0  0  0  0
  8129  1  0  0  0  0
  9 10  1  0  0  0  0
  9 12  1  0  0  0  0
  9130  1  6  0  0  0
 10 11  2  0  0  0  0
 10 16  1  0  0  0  0
 12 13  1  0  0  0  0
 12131  1  0  0  0  0
 12132  1  0  0  0  0
 13 14  1  0  0  0  0
 13 15  1  0  0  0  0
 13133  1  0  0  0  0
 14134  1  0  0  0  0
 14135  1  0  0  0  0
 14136  1  0  0  0  0
 15137  1  0  0  0  0
 15138  1  0  0  0  0
 15139  1  0  0  0  0
 16 17  1  0  0  0  0
 16140  1  0  0  0  0
 17 18  1  0  0  0  0
 17 20  1  0  0  0  0
 17141  1  1  0  0  0
 18 19  2  0  0  0  0
 18 28  1  0  0  0  0
 20 21  1  0  0  0  0
 20142  1  0  0  0  0
 20143  1  0  0  0  0
 21 22  2  0  0  0  0
 21 23  1  0  0  0  0
 22 24  1  0  0  0  0
 22144  1  0  0  0  0
 23 25  2  0  0  0  0
 23145  1  0  0  0  0
 24 26  2  0  0  0  0
 24146  1  0  0  0  0
 25 26  1  0  0  0  0
 25147  1  0  0  0  0
 26 27  1  0  0  0  0
 27148  1  0  0  0  0
 28 29  1  0  0  0  0
 28149  1  0  0  0  0
 29 30  1  0  0  0  0
 29 32  1  0  0  0  0
 29150  1  1  0  0  0
 30 31  2  0  0  0  0
 30 35  1  0  0  0  0
 32 33  1  0  0  0  0
 32 34  1  0  0  0  0
 32151  1  6  0  0  0
 33152  1  0  0  0  0
 34153  1  0  0  0  0
 34154  1  0  0  0  0
 34155  1  0  0  0  0
 35 36  1  0  0  0  0
 35156  1  0  0  0  0
 36 37  1  0  0  0  0
 36 39  1  0  0  0  0
 36157  1  1  0  0  0
 37 38  2  0  0  0  0
 37 41  1  0  0  0  0
 39 40  1  0  0  0  0
 39158  1  0  0  0  0
 39159  1  0  0  0  0
 40160  1  0  0  0  0
 41 42  1  0  0  0  0
 41 47  1  0  0  0  0
 42 43  1  0  0  0  0
 42 45  1  0  0  0  0
 42161  1  6  0  0  0
 43 44  2  0  0  0  0
 43 48  1  0  0  0  0
 45 46  1  0  0  0  0
 45162  1  0  0  0  0
 45163  1  0  0  0  0
 46 47  1  0  0  0  0
 46164  1  0  0  0  0
 46165  1  0  0  0  0
 47166  1  0  0  0  0
 47167  1  0  0  0  0
 48 49  1  0  0  0  0
 48168  1  0  0  0  0
 49 50  1  0  0  0  0
 49 52  1  0  0  0  0
 49169  1  1  0  0  0
 50 51  2  0  0  0  0
 50 54  1  0  0  0  0
 52 53  1  0  0  0  0
 52170  1  0  0  0  0
 52171  1  0  0  0  0
 53172  1  0  0  0  0
 54 55  1  0  0  0  0
 54173  1  0  0  0  0
 55 56  1  0  0  0  0
 55 58  1  0  0  0  0
 55174  1  6  0  0  0
 56 57  2  0  0  0  0
 56 62  1  0  0  0  0
 58 59  1  0  0  0  0
 58175  1  0  0  0  0
 58176  1  0  0  0  0
 59 60  1  0  0  0  0
 59 61  1  0  0  0  0
 59177  1  0  0  0  0
 60178  1  0  0  0  0
 60179  1  0  0  0  0
 60180  1  0  0  0  0
 61181  1  0  0  0  0
 61182  1  0  0  0  0
 61183  1  0  0  0  0
 62 63  1  0  0  0  0
 62 68  1  0  0  0  0
 63 64  1  0  0  0  0
 63 66  1  0  0  0  0
 63184  1  1  0  0  0
 64 65  2  0  0  0  0
 64 69  1  0  0  0  0
 66 67  1  0  0  0  0
 66185  1  0  0  0  0
 66186  1  0  0  0  0
 67 68  1  0  0  0  0
 67187  1  0  0  0  0
 67188  1  0  0  0  0
 68189  1  0  0  0  0
 68190  1  0  0  0  0
 69 70  1  0  0  0  0
 69191  1  0  0  0  0
 70 71  1  0  0  0  0
 70 73  1  0  0  0  0
 70192  1  6  0  0  0
 71 72  2  0  0  0  0
 71 77  1  0  0  0  0
 73 74  1  0  0  0  0
 73193  1  0  0  0  0
 73194  1  0  0  0  0
 74 75  2  0  0  0  0
 74 76  1  0  0  0  0
 76195  1  0  0  0  0
 76196  1  0  0  0  0
 77 78  1  0  0  0  0
 77197  1  0  0  0  0
 78 79  1  0  0  0  0
 78 81  1  0  0  0  0
 78198  1  1  0  0  0
 79 80  2  0  0  0  0
 79 85  1  0  0  0  0
 81 82  1  0  0  0  0
 81 83  1  0  0  0  0
 81199  1  6  0  0  0
 82 84  1  0  0  0  0
 82200  1  0  0  0  0
 82201  1  0  0  0  0
 83202  1  0  0  0  0
 83203  1  0  0  0  0
 83204  1  0  0  0  0
 84205  1  0  0  0  0
 84206  1  0  0  0  0
 84207  1  0  0  0  0
 85 86  1  0  0  0  0
 85208  1  0  0  0  0
 86 87  1  0  0  0  0
 86 89  1  0  0  0  0
 86209  1  6  0  0  0
 87 88  2  0  0  0  0
 87 92  1  0  0  0  0
 89 90  1  0  0  0  0
 89 91  1  0  0  0  0
 89210  1  6  0  0  0
 90211  1  0  0  0  0
 91212  1  0  0  0  0
 91213  1  0  0  0  0
 91214  1  0  0  0  0
 92 93  1  0  0  0  0
 92215  1  0  0  0  0
 93 94  1  0  0  0  0
 93 96  1  0  0  0  0
 93216  1  1  0  0  0
 94 95  2  0  0  0  0
 94100  1  0  0  0  0
 96 97  1  0  0  0  0
 96217  1  0  0  0  0
 96218  1  0  0  0  0
 97 98  1  0  0  0  0
 97 99  1  0  0  0  0
 97219  1  0  0  0  0
 98220  1  0  0  0  0
 98221  1  0  0  0  0
 98222  1  0  0  0  0
 99223  1  0  0  0  0
 99224  1  0  0  0  0
 99225  1  0  0  0  0
100101  1  0  0  0  0
100226  1  0  0  0  0
101102  1  0  0  0  0
101227  1  0  0  0  0
101228  1  0  0  0  0
102103  2  0  0  0  0
102104  1  0  0  0  0
104105  1  0  0  0  0
104229  1  0  0  0  0
105106  1  0  0  0  0
105108  1  0  0  0  0
105230  1  6  0  0  0
106107  2  0  0  0  0
106112  1  0  0  0  0
108109  1  0  0  0  0
108231  1  0  0  0  0
108232  1  0  0  0  0
109110  1  0  0  0  0
109111  1  0  0  0  0
109233  1  0  0  0  0
110234  1  0  0  0  0
110235  1  0  0  0  0
110236  1  0  0  0  0
111237  1  0  0  0  0
111238  1  0  0  0  0
111239  1  0  0  0  0
112113  1  0  0  0  0
112118  1  0  0  0  0
113114  1  0  0  0  0
113116  1  0  0  0  0
113240  1  1  0  0  0
114115  1  0  0  0  0
114119  2  0  0  0  0
116117  1  0  0  0  0
116241  1  0  0  0  0
116242  1  0  0  0  0
117118  1  0  0  0  0
117243  1  0  0  0  0
117244  1  0  0  0  0
118245  1  0  0  0  0
118246  1  0  0  0  0
M  CHG  2   1   1 115  -1
M  END
