3uxm_ligand
 OpenBabel08222323353D

 30 31  0  0  1  0  0  0  0  0999 V2000
    7.3710    2.2970   16.4310 O   0  0  0  0  0  0  0  0  0  0  0  0
    6.7330    1.3690   16.9880 C   0  0  0  0  0  0  0  0  0  0  0  0
    5.9540    0.5230   16.2800 N   0  0  0  0  0  0  0  0  0  0  0  0
    5.3060   -0.5000   16.8920 C   0  0  0  0  0  0  0  0  0  0  0  0
    4.5900   -1.2910   16.2430 O   0  0  0  0  0  0  0  0  0  0  0  0
    5.4230   -0.6690   18.3660 C   0  0  0  0  0  0  0  0  0  0  0  0
    4.7370   -1.7810   19.1170 C   0  0  0  0  0  0  0  0  0  0  0  0
    6.2230    0.2190   19.0510 C   0  0  0  0  0  0  0  0  0  0  0  0
    6.8420    1.2320   18.3980 N   0  0  0  0  0  0  0  0  0  0  0  0
    7.7090    2.1650   19.1190 C   0  0  1  0  0  0  0  0  0  0  0  0
    7.0890    3.0570   20.2140 C   0  0  0  0  0  0  0  0  0  0  0  0
    8.2150    3.1800   21.2330 C   0  0  2  0  0  0  0  0  0  0  0  0
    8.9960    4.3460   20.9050 O   0  0  0  0  0  0  0  0  0  0  0  0
    8.7000    1.3810   19.7470 O   0  0  0  0  0  0  0  0  0  0  0  0
    9.0880    1.9450   20.9910 C   0  0  2  0  0  0  0  0  0  0  0  0
    9.0310    0.8580   22.0660 C   0  0  0  0  0  0  0  0  0  0  0  0
    7.7270    0.5670   22.3690 F   0  0  0  0  0  0  0  0  0  0  0  0
    5.8536    0.6520   15.2934 H   0  0  0  0  0  0  0  0  0  0  0  0
    4.9712   -1.6986   20.1886 H   0  0  0  0  0  0  0  0  0  0  0  0
    5.0899   -2.7515   18.7381 H   0  0  0  0  0  0  0  0  0  0  0  0
    3.6492   -1.7045   18.9725 H   0  0  0  0  0  0  0  0  0  0  0  0
    6.3589    0.1059   20.1256 H   0  0  0  0  0  0  0  0  0  0  0  0
    8.1717    2.8298   18.3747 H   0  0  0  0  0  0  0  0  0  0  0  0
    6.2036    2.5794   20.6588 H   0  0  0  0  0  0  0  0  0  0  0  0
    6.8109    4.0421   19.8112 H   0  0  0  0  0  0  0  0  0  0  0  0
    7.8370    3.2263   22.2650 H   0  0  0  0  0  0  0  0  0  0  0  0
    9.7040    4.4381   21.5317 H   0  0  0  0  0  0  0  0  0  0  0  0
   10.1322    2.2841   20.9220 H   0  0  0  0  0  0  0  0  0  0  0  0
    9.5447    1.2136   22.9713 H   0  0  0  0  0  0  0  0  0  0  0  0
    9.5296   -0.0491   21.6938 H   0  0  0  0  0  0  0  0  0  0  0  0
  1  2  2  0  0  0  0
  2  3  1  0  0  0  0
  2  9  1  0  0  0  0
  3  4  1  0  0  0  0
  3 18  1  0  0  0  0
  4  5  2  0  0  0  0
  4  6  1  0  0  0  0
  6  7  1  0  0  0  0
  6  8  2  0  0  0  0
  7 19  1  0  0  0  0
  7 20  1  0  0  0  0
  7 21  1  0  0  0  0
  8  9  1  0  0  0  0
  8 22  1  0  0  0  0
  9 10  1  0  0  0  0
 10 11  1  0  0  0  0
 10 14  1  0  0  0  0
 10 23  1  6  0  0  0
 11 12  1  0  0  0  0
 11 24  1  0  0  0  0
 11 25  1  0  0  0  0
 12 13  1  0  0  0  0
 12 15  1  0  0  0  0
 12 26  1  1  0  0  0
 13 27  1  0  0  0  0
 14 15  1  0  0  0  0
 15 16  1  0  0  0  0
 15 28  1  6  0  0  0
 16 17  1  0  0  0  0
 16 29  1  0  0  0  0
 16 30  1  0  0  0  0
M  END
