3uzd_ligand
 OpenBabel08222323353D

138139  0  0  1  0  0  0  0  0999 V2000
   10.5090   12.8850   11.2850 N   0  3  0  0  0  0  0  0  0  0  0  0
   11.6690   12.0970   10.7930 C   0  0  2  0  0  0  0  0  0  0  0  0
   11.8530   10.8360   11.6950 C   0  0  0  0  0  0  0  0  0  0  0  0
   10.9190   10.0140   11.8590 O   0  0  0  0  0  0  0  0  0  0  0  0
   12.9350   13.0010   10.6520 C   0  0  0  0  0  0  0  0  0  0  0  0
   13.0220   14.0790   11.6120 O   0  0  0  0  0  0  0  0  0  0  0  0
   12.9590   10.8290   12.4140 N   0  0  0  0  0  0  0  0  0  0  0  0
   13.0130   10.0880   13.6610 C   0  0  2  0  0  0  0  0  0  0  0  0
   12.3500   10.9260   14.7630 C   0  0  0  0  0  0  0  0  0  0  0  0
   12.6070   10.6270   15.9300 O   0  0  0  0  0  0  0  0  0  0  0  0
   14.5140    9.9610   13.9220 C   0  0  0  0  0  0  0  0  0  0  0  0
   15.1240    9.9710   12.5700 C   0  0  0  0  0  0  0  0  0  0  0  0
   14.2700   10.8890   11.7430 C   0  0  0  0  0  0  0  0  0  0  0  0
   11.5350   11.9430   14.4420 N   0  0  0  0  0  0  0  0  0  0  0  0
   10.9810   12.7620   15.5750 C   0  0  1  0  0  0  0  0  0  0  0  0
   11.1380   14.2710   15.3380 C   0  0  0  0  0  0  0  0  0  0  0  0
   10.3840   14.6750   14.1360 O   0  0  0  0  0  0  0  0  0  0  0  0
    9.4980   12.4790   15.7950 C   0  0  0  0  0  0  0  0  0  0  0  0
    8.9230   11.6710   15.0250 O   0  0  0  0  0  0  0  0  0  0  0  0
   10.4860   16.1970   13.6410 P   0  0  0  0  0  0  0  0  0  0  0  0
   10.1700   17.1320   14.7440 O   0  0  0  0  0  1  0  0  0  0  0  0
   11.8980   16.3460   13.1080 O   0  0  0  0  0  1  0  0  0  0  0  0
    9.4740   16.3590   12.4670 O   0  0  0  0  0  0  0  0  0  0  0  0
    8.8770   13.1170   16.7720 N   0  0  0  0  0  0  0  0  0  0  0  0
    7.4790   12.8150   17.1100 C   0  0  2  0  0  0  0  0  0  0  0  0
    6.5460   13.1800   15.9650 C   0  0  0  0  0  0  0  0  0  0  0  0
    6.5990   14.2930   15.4600 O   0  0  0  0  0  0  0  0  0  0  0  0
    7.0660   13.5950   18.3580 C   0  0  0  0  0  0  0  0  0  0  0  0
    5.7260   13.2600   19.0120 C   0  0  0  0  0  0  0  0  0  0  0  0
    5.6930   11.8970   19.6870 C   0  0  0  0  0  0  0  0  0  0  0  0
    5.4420   14.3330   20.0470 C   0  0  0  0  0  0  0  0  0  0  0  0
    5.7430   12.1730   15.6380 N   0  0  0  0  0  0  0  0  0  0  0  0
    4.5550   12.2840   14.8120 C   0  0  2  0  0  0  0  0  0  0  0  0
    3.6730   13.3800   15.3590 C   0  0  0  0  0  0  0  0  0  0  0  0
    3.4550   13.5530   16.5580 O   0  0  0  0  0  0  0  0  0  0  0  0
    3.8800   10.9250   14.9920 C   0  0  0  0  0  0  0  0  0  0  0  0
    4.2890   10.4900   16.3560 C   0  0  0  0  0  0  0  0  0  0  0  0
    5.6850   11.0140   16.5470 C   0  0  0  0  0  0  0  0  0  0  0  0
    3.1720   14.1230   14.4000 N   0  0  0  0  0  0  0  0  0  0  0  0
    2.3610   15.3180   14.5580 C   0  0  2  0  0  0  0  0  0  0  0  0
    1.0570   14.9230   15.2720 C   0  0  0  0  0  0  0  0  0  0  0  0
    0.5620   13.8100   15.1060 O   0  0  0  0  0  0  0  0  0  0  0  0
    2.1090   15.9100   13.1630 C   0  0  0  0  0  0  0  0  0  0  0  0
    1.5260   17.3020   13.2020 C   0  0  0  0  0  0  0  0  0  0  0  0
    1.7990   18.0720   14.1250 O   0  0  0  0  0  0  0  0  0  0  0  0
    0.7790   17.6570   12.1850 N   0  0  0  0  0  0  0  0  0  0  0  0
    0.4790   15.7420   16.1380 N   0  0  0  0  0  0  0  0  0  0  0  0
   -0.6590   15.2250   16.9340 C   0  0  2  0  0  0  0  0  0  0  0  0
   -1.9010   14.7790   16.1260 C   0  0  0  0  0  0  0  0  0  0  0  0
   -2.2870   15.4760   15.1870 O   0  0  0  0  0  0  0  0  0  0  0  0
   -1.1040   16.2450   18.0010 C   0  0  2  0  0  0  0  0  0  0  0  0
   -0.0830   16.3050   19.1390 C   0  0  0  0  0  0  0  0  0  0  0  0
   -2.4840   15.8910   18.5340 C   0  0  0  0  0  0  0  0  0  0  0  0
    0.2990   17.7130   19.5420 C   0  0  0  0  0  0  0  0  0  0  0  0
   -2.5440   13.6510   16.4780 N   0  0  0  0  0  0  0  0  0  0  0  0
   -3.8250   13.3500   15.8370 C   0  0  2  0  0  0  0  0  0  0  0  0
   -4.9800   14.0790   16.5660 C   0  0  0  0  0  0  0  0  0  0  0  0
   -5.1130   14.0040   17.7980 O   0  0  0  0  0  0  0  0  0  0  0  0
   -4.0560   11.8090   15.7220 C   0  0  2  0  0  0  0  0  0  0  0  0
   -3.5930   11.1780   16.9210 O   0  0  0  0  0  0  0  0  0  0  0  0
   -3.2520   11.2110   14.5120 C   0  0  0  0  0  0  0  0  0  0  0  0
   -5.7550   14.8540   15.8060 N   0  0  0  0  0  0  0  0  0  0  0  0
   -6.8210   15.6930   16.3790 C   0  0  2  0  0  0  0  0  0  0  0  0
   -8.1560   14.9440   16.5460 C   0  0  0  0  0  0  0  0  0  0  0  0
   -8.3270   13.8420   16.0220 O   0  5  0  0  0  0  0  0  0  0  0  0
   -7.0130   16.9720   15.5470 C   0  0  0  0  0  0  0  0  0  0  0  0
   -5.8360   17.9580   15.5520 C   0  0  0  0  0  0  0  0  0  0  0  0
   -5.6700   18.6570   16.9270 C   0  0  0  0  0  0  0  0  0  0  0  0
   -9.0730   15.4360   17.2060 O   0  0  0  0  0  0  0  0  0  0  0  0
   10.3866   13.7004   10.7052 H   0  0  0  0  0  0  0  0  0  0  0  0
   10.6768   13.1716   12.2367 H   0  0  0  0  0  0  0  0  0  0  0  0
    9.6768   12.3175   11.2467 H   0  0  0  0  0  0  0  0  0  0  0  0
   11.4260   11.7359    9.7828 H   0  0  0  0  0  0  0  0  0  0  0  0
   12.9307   13.4407    9.6437 H   0  0  0  0  0  0  0  0  0  0  0  0
   13.8244   12.3648   10.7708 H   0  0  0  0  0  0  0  0  0  0  0  0
   12.2672   14.6479   11.5169 H   0  0  0  0  0  0  0  0  0  0  0  0
   12.5288    9.1038   13.5785 H   0  0  0  0  0  0  0  0  0  0  0  0
   14.7403    9.0198   14.4444 H   0  0  0  0  0  0  0  0  0  0  0  0
   14.8785   10.8092   14.5200 H   0  0  0  0  0  0  0  0  0  0  0  0
   15.1232    8.9578   12.1418 H   0  0  0  0  0  0  0  0  0  0  0  0
   16.1563   10.3479   12.6182 H   0  0  0  0  0  0  0  0  0  0  0  0
   14.6704   11.9135   11.7513 H   0  0  0  0  0  0  0  0  0  0  0  0
   14.1982   10.5318   10.7051 H   0  0  0  0  0  0  0  0  0  0  0  0
   11.3060   12.1473   13.4902 H   0  0  0  0  0  0  0  0  0  0  0  0
   11.5322   12.4913   16.4876 H   0  0  0  0  0  0  0  0  0  0  0  0
   12.2027   14.5086   15.1968 H   0  0  0  0  0  0  0  0  0  0  0  0
   10.7526   14.8187   16.2106 H   0  0  0  0  0  0  0  0  0  0  0  0
    9.3672   13.8177   17.2904 H   0  0  0  0  0  0  0  0  0  0  0  0
    7.3896   11.7375   17.3123 H   0  0  0  0  0  0  0  0  0  0  0  0
    7.0363   14.6593   18.0818 H   0  0  0  0  0  0  0  0  0  0  0  0
    7.8471   13.4344   19.1156 H   0  0  0  0  0  0  0  0  0  0  0  0
    4.9445   13.2799   18.2382 H   0  0  0  0  0  0  0  0  0  0  0  0
    4.7003   11.7318   20.1312 H   0  0  0  0  0  0  0  0  0  0  0  0
    6.4585   11.8599   20.4761 H   0  0  0  0  0  0  0  0  0  0  0  0
    5.8962   11.1138   18.9419 H   0  0  0  0  0  0  0  0  0  0  0  0
    5.4643   15.3218   19.5656 H   0  0  0  0  0  0  0  0  0  0  0  0
    6.2067   14.2924   20.8367 H   0  0  0  0  0  0  0  0  0  0  0  0
    4.4492   14.1627   20.4889 H   0  0  0  0  0  0  0  0  0  0  0  0
    4.8036   12.4787   13.7583 H   0  0  0  0  0  0  0  0  0  0  0  0
    4.2325   10.2110   14.2331 H   0  0  0  0  0  0  0  0  0  0  0  0
    2.7863   11.0210   14.9251 H   0  0  0  0  0  0  0  0  0  0  0  0
    4.2779    9.3924   16.4283 H   0  0  0  0  0  0  0  0  0  0  0  0
    3.6130   10.9142   17.1130 H   0  0  0  0  0  0  0  0  0  0  0  0
    5.8500   11.3231   17.5897 H   0  0  0  0  0  0  0  0  0  0  0  0
    6.4315   10.2563   16.2666 H   0  0  0  0  0  0  0  0  0  0  0  0
    3.3692   13.8366   13.4624 H   0  0  0  0  0  0  0  0  0  0  0  0
    2.8970   16.0572   15.1714 H   0  0  0  0  0  0  0  0  0  0  0  0
    1.4089   15.2531   12.6261 H   0  0  0  0  0  0  0  0  0  0  0  0
    3.0657   15.9471   12.6213 H   0  0  0  0  0  0  0  0  0  0  0  0
    0.3681   18.5684   12.1605 H   0  0  0  0  0  0  0  0  0  0  0  0
    0.6200   17.0165   11.4337 H   0  0  0  0  0  0  0  0  0  0  0  0
    0.8013   16.6819   16.2513 H   0  0  0  0  0  0  0  0  0  0  0  0
   -0.2866   14.3335   17.4598 H   0  0  0  0  0  0  0  0  0  0  0  0
   -1.1585   17.2381   17.5312 H   0  0  0  0  0  0  0  0  0  0  0  0
    0.8269   15.7773   18.8171 H   0  0  0  0  0  0  0  0  0  0  0  0
   -0.5106   15.7970   20.0160 H   0  0  0  0  0  0  0  0  0  0  0  0
   -3.2005   15.8535   17.7002 H   0  0  0  0  0  0  0  0  0  0  0  0
   -2.8042   16.6542   19.2585 H   0  0  0  0  0  0  0  0  0  0  0  0
   -2.4453   14.9092   19.0286 H   0  0  0  0  0  0  0  0  0  0  0  0
    1.0324   17.6738   20.3608 H   0  0  0  0  0  0  0  0  0  0  0  0
   -0.5976   18.2541   19.8785 H   0  0  0  0  0  0  0  0  0  0  0  0
    0.7399   18.2344   18.6796 H   0  0  0  0  0  0  0  0  0  0  0  0
   -2.1559   13.0327   17.1615 H   0  0  0  0  0  0  0  0  0  0  0  0
   -3.7842   13.7475   14.8121 H   0  0  0  0  0  0  0  0  0  0  0  0
   -5.1291   11.6103   15.5844 H   0  0  0  0  0  0  0  0  0  0  0  0
   -3.7307   10.2401   16.8575 H   0  0  0  0  0  0  0  0  0  0  0  0
   -3.4310   10.1273   14.4527 H   0  0  0  0  0  0  0  0  0  0  0  0
   -2.1778   11.3978   14.6574 H   0  0  0  0  0  0  0  0  0  0  0  0
   -3.5843   11.6891   13.5788 H   0  0  0  0  0  0  0  0  0  0  0  0
   -5.6077   14.8657   14.8170 H   0  0  0  0  0  0  0  0  0  0  0  0
   -6.4911   15.9957   17.3837 H   0  0  0  0  0  0  0  0  0  0  0  0
   -7.8958   17.4991   15.9379 H   0  0  0  0  0  0  0  0  0  0  0  0
   -7.1967   16.6718   14.5048 H   0  0  0  0  0  0  0  0  0  0  0  0
   -6.0114   18.7245   14.7828 H   0  0  0  0  0  0  0  0  0  0  0  0
   -4.9117   17.4091   15.3187 H   0  0  0  0  0  0  0  0  0  0  0  0
   -4.8183   19.3518   16.8846 H   0  0  0  0  0  0  0  0  0  0  0  0
   -5.4871   17.8998   17.7036 H   0  0  0  0  0  0  0  0  0  0  0  0
   -6.5868   19.2151   17.1677 H   0  0  0  0  0  0  0  0  0  0  0  0
  1  2  1  0  0  0  0
  1 70  1  0  0  0  0
  1 71  1  0  0  0  0
  1 72  1  0  0  0  0
  2  3  1  0  0  0  0
  2  5  1  0  0  0  0
  2 73  1  6  0  0  0
  3  4  2  0  0  0  0
  3  7  1  0  0  0  0
  5  6  1  0  0  0  0
  5 74  1  0  0  0  0
  5 75  1  0  0  0  0
  6 76  1  0  0  0  0
  7  8  1  0  0  0  0
  7 13  1  0  0  0  0
  8  9  1  0  0  0  0
  8 11  1  0  0  0  0
  8 77  1  6  0  0  0
  9 10  2  0  0  0  0
  9 14  1  0  0  0  0
 11 12  1  0  0  0  0
 11 78  1  0  0  0  0
 11 79  1  0  0  0  0
 12 13  1  0  0  0  0
 12 80  1  0  0  0  0
 12 81  1  0  0  0  0
 13 82  1  0  0  0  0
 13 83  1  0  0  0  0
 14 15  1  0  0  0  0
 14 84  1  0  0  0  0
 15 16  1  0  0  0  0
 15 18  1  0  0  0  0
 15 85  1  1  0  0  0
 16 17  1  0  0  0  0
 16 86  1  0  0  0  0
 16 87  1  0  0  0  0
 17 20  1  0  0  0  0
 18 19  2  0  0  0  0
 18 24  1  0  0  0  0
 20 21  1  0  0  0  0
 20 22  1  0  0  0  0
 20 23  2  0  0  0  0
 24 25  1  0  0  0  0
 24 88  1  0  0  0  0
 25 26  1  0  0  0  0
 25 28  1  0  0  0  0
 25 89  1  1  0  0  0
 26 27  2  0  0  0  0
 26 32  1  0  0  0  0
 28 29  1  0  0  0  0
 28 90  1  0  0  0  0
 28 91  1  0  0  0  0
 29 30  1  0  0  0  0
 29 31  1  0  0  0  0
 29 92  1  0  0  0  0
 30 93  1  0  0  0  0
 30 94  1  0  0  0  0
 30 95  1  0  0  0  0
 31 96  1  0  0  0  0
 31 97  1  0  0  0  0
 31 98  1  0  0  0  0
 32 33  1  0  0  0  0
 32 38  1  0  0  0  0
 33 34  1  0  0  0  0
 33 36  1  0  0  0  0
 33 99  1  6  0  0  0
 34 35  2  0  0  0  0
 34 39  1  0  0  0  0
 36 37  1  0  0  0  0
 36100  1  0  0  0  0
 36101  1  0  0  0  0
 37 38  1  0  0  0  0
 37102  1  0  0  0  0
 37103  1  0  0  0  0
 38104  1  0  0  0  0
 38105  1  0  0  0  0
 39 40  1  0  0  0  0
 39106  1  0  0  0  0
 40 41  1  0  0  0  0
 40 43  1  0  0  0  0
 40107  1  1  0  0  0
 41 42  2  0  0  0  0
 41 47  1  0  0  0  0
 43 44  1  0  0  0  0
 43108  1  0  0  0  0
 43109  1  0  0  0  0
 44 45  2  0  0  0  0
 44 46  1  0  0  0  0
 46110  1  0  0  0  0
 46111  1  0  0  0  0
 47 48  1  0  0  0  0
 47112  1  0  0  0  0
 48 49  1  0  0  0  0
 48 51  1  0  0  0  0
 48113  1  1  0  0  0
 49 50  2  0  0  0  0
 49 55  1  0  0  0  0
 51 52  1  0  0  0  0
 51 53  1  0  0  0  0
 51114  1  6  0  0  0
 52 54  1  0  0  0  0
 52115  1  0  0  0  0
 52116  1  0  0  0  0
 53117  1  0  0  0  0
 53118  1  0  0  0  0
 53119  1  0  0  0  0
 54120  1  0  0  0  0
 54121  1  0  0  0  0
 54122  1  0  0  0  0
 55 56  1  0  0  0  0
 55123  1  0  0  0  0
 56 57  1  0  0  0  0
 56 59  1  0  0  0  0
 56124  1  6  0  0  0
 57 58  2  0  0  0  0
 57 62  1  0  0  0  0
 59 60  1  0  0  0  0
 59 61  1  0  0  0  0
 59125  1  6  0  0  0
 60126  1  0  0  0  0
 61127  1  0  0  0  0
 61128  1  0  0  0  0
 61129  1  0  0  0  0
 62 63  1  0  0  0  0
 62130  1  0  0  0  0
 63 64  1  0  0  0  0
 63 66  1  0  0  0  0
 63131  1  1  0  0  0
 64 65  1  0  0  0  0
 64 69  2  0  0  0  0
 66 67  1  0  0  0  0
 66132  1  0  0  0  0
 66133  1  0  0  0  0
 67 68  1  0  0  0  0
 67134  1  0  0  0  0
 67135  1  0  0  0  0
 68136  1  0  0  0  0
 68137  1  0  0  0  0
 68138  1  0  0  0  0
M  CHG  2   1   1  65  -1
M  END
