3uzp_ligand
 OpenBabel08222323353D

 45 48  0  0  0  0  0  0  0  0999 V2000
    4.2350    2.7510   18.7610 C   0  0  0  0  0  0  0  0  0  0  0  0
    3.6650    3.8490   19.3530 N   0  0  0  0  0  0  0  0  0  0  0  0
    4.4660    4.1520   20.4120 C   0  0  0  0  0  0  0  0  0  0  0  0
    5.5410    3.3780   20.6080 N   0  0  0  0  0  0  0  0  0  0  0  0
    5.4780    2.4730   19.5950 C   0  0  0  0  0  0  0  0  0  0  0  0
    3.8380    0.5620   17.3830 C   0  0  0  0  0  0  0  0  0  0  0  0
    3.2220   -0.1050   16.2870 C   0  0  0  0  0  0  0  0  0  0  0  0
    2.4410    0.5960   15.4070 N   0  0  0  0  0  0  0  0  0  0  0  0
    2.2390    1.9590   15.5630 C   0  0  0  0  0  0  0  0  0  0  0  0
    2.8200    2.6520   16.6030 N   0  0  0  0  0  0  0  0  0  0  0  0
    3.6460    1.9910   17.5690 C   0  0  0  0  0  0  0  0  0  0  0  0
    1.3910    2.6110   14.6780 N   0  0  0  0  0  0  0  0  0  0  0  0
    1.6820    5.1370   20.1410 C   0  0  0  0  0  0  0  0  0  0  0  0
    2.4880    4.5850   18.9700 C   0  0  0  0  0  0  0  0  0  0  0  0
    2.8850    5.6790   17.9820 C   0  0  0  0  0  0  0  0  0  0  0  0
    1.7040    6.5010   17.5040 C   0  0  0  0  0  0  0  0  0  0  0  0
    0.8640    7.0540   18.6800 C   0  0  0  0  0  0  0  0  0  0  0  0
    0.4980    5.9860   19.7310 C   0  0  0  0  0  0  0  0  0  0  0  0
    8.1890    0.4310   17.6950 C   0  0  0  0  0  0  0  0  0  0  0  0
    8.6690   -0.4200   18.7430 C   0  0  0  0  0  0  0  0  0  0  0  0
    8.1340   -0.3660   20.1180 C   0  0  0  0  0  0  0  0  0  0  0  0
    7.0790    0.5840   20.4270 C   0  0  0  0  0  0  0  0  0  0  0  0
    6.5790    1.4530   19.3820 C   0  0  0  0  0  0  0  0  0  0  0  0
    7.1410    1.3710   18.0190 C   0  0  0  0  0  0  0  0  0  0  0  0
    9.6400   -1.2630   18.3980 F   0  0  0  0  0  0  0  0  0  0  0  0
    4.2416    4.9888   21.0718 H   0  0  0  0  0  0  0  0  0  0  0  0
    4.4516    0.0034   18.0805 H   0  0  0  0  0  0  0  0  0  0  0  0
    3.3712   -1.1697   16.1485 H   0  0  0  0  0  0  0  0  0  0  0  0
    0.9581    2.0907   13.9016 H   0  0  0  0  0  0  0  0  0  0  0  0
    1.1948    3.6150   14.7978 H   0  0  0  0  0  0  0  0  0  0  0  0
    2.3504    5.7528   20.7606 H   0  0  0  0  0  0  0  0  0  0  0  0
    1.3098    4.2889   20.7344 H   0  0  0  0  0  0  0  0  0  0  0  0
    1.8272    3.8836   18.4396 H   0  0  0  0  0  0  0  0  0  0  0  0
    3.3605    5.2077   17.1092 H   0  0  0  0  0  0  0  0  0  0  0  0
    3.6042    6.3510   18.4731 H   0  0  0  0  0  0  0  0  0  0  0  0
    1.0609    5.8662   16.8768 H   0  0  0  0  0  0  0  0  0  0  0  0
    2.0785    7.3461   16.9077 H   0  0  0  0  0  0  0  0  0  0  0  0
   -0.0671    7.4765   18.2743 H   0  0  0  0  0  0  0  0  0  0  0  0
    1.4410    7.8479   19.1769 H   0  0  0  0  0  0  0  0  0  0  0  0
    0.1027    6.4925   20.6238 H   0  0  0  0  0  0  0  0  0  0  0  0
   -0.2766    5.3287   19.3091 H   0  0  0  0  0  0  0  0  0  0  0  0
    8.5983    0.3715   16.6930 H   0  0  0  0  0  0  0  0  0  0  0  0
    8.5226   -1.0254   20.8857 H   0  0  0  0  0  0  0  0  0  0  0  0
    6.6704    0.6417   21.4294 H   0  0  0  0  0  0  0  0  0  0  0  0
    6.7598    2.0290   17.2465 H   0  0  0  0  0  0  0  0  0  0  0  0
  1  2  1  0  0  0  0
  1 11  1  0  0  0  0
  2 14  1  0  0  0  0
  3  2  1  0  0  0  0
  3 26  1  0  0  0  0
  4  3  2  0  0  0  0
  5  1  2  0  0  0  0
  5  4  1  0  0  0  0
  6  7  2  0  0  0  0
  6 27  1  0  0  0  0
  7  8  1  0  0  0  0
  7 28  1  0  0  0  0
  9  8  2  0  0  0  0
  9 12  1  0  0  0  0
 10  9  1  0  0  0  0
 11  6  1  0  0  0  0
 11 10  2  0  0  0  0
 12 29  1  0  0  0  0
 12 30  1  0  0  0  0
 13 18  1  0  0  0  0
 13 31  1  0  0  0  0
 13 32  1  0  0  0  0
 14 13  1  0  0  0  0
 14 15  1  0  0  0  0
 14 33  1  0  0  0  0
 15 16  1  0  0  0  0
 15 34  1  0  0  0  0
 15 35  1  0  0  0  0
 16 17  1  0  0  0  0
 16 36  1  0  0  0  0
 16 37  1  0  0  0  0
 17 38  1  0  0  0  0
 17 39  1  0  0  0  0
 18 17  1  0  0  0  0
 18 40  1  0  0  0  0
 18 41  1  0  0  0  0
 19 24  1  0  0  0  0
 19 42  1  0  0  0  0
 20 19  2  0  0  0  0
 20 25  1  0  0  0  0
 21 20  1  0  0  0  0
 21 43  1  0  0  0  0
 22 21  2  0  0  0  0
 22 23  1  0  0  0  0
 22 44  1  0  0  0  0
 23  5  1  0  0  0  0
 23 24  2  0  0  0  0
 24 45  1  0  0  0  0
M  END
