3v2w_ligand
 OpenBabel08222323353D

 49 49  0  0  1  0  0  0  0  0999 V2000
    3.0190   17.2820  -14.2220 O   0  0  0  0  0  1  0  0  0  0  0  0
    3.2070   15.7980  -14.4260 P   0  0  0  0  0  0  0  0  0  0  0  0
    1.9090   15.0400  -14.6140 O   0  0  0  0  0  1  0  0  0  0  0  0
    4.2630   15.4650  -15.4540 O   0  0  0  0  0  0  0  0  0  0  0  0
    3.8960   15.1750  -12.8640 C   0  0  0  0  0  0  0  0  0  0  0  0
    4.1710   16.3090  -11.8720 C   0  0  0  0  0  0  0  0  0  0  0  0
    3.1820   16.3580  -10.7010 C   0  0  1  0  0  0  0  0  0  0  0  0
    2.0350   15.4190  -10.8710 N   0  3  0  0  0  0  0  0  0  0  0  0
    3.8860   16.1340   -9.3930 C   0  0  0  0  0  0  0  0  0  0  0  0
    4.2760   15.0170   -9.1070 O   0  0  0  0  0  0  0  0  0  0  0  0
    3.9960   17.1980   -8.5890 N   0  0  0  0  0  0  0  0  0  0  0  0
    4.8580   17.2990   -7.5430 C   0  0  0  0  0  0  0  0  0  0  0  0
    4.9610   16.2860   -6.5810 C   0  0  0  0  0  0  0  0  0  0  0  0
    5.8340   16.4280   -5.5010 C   0  0  0  0  0  0  0  0  0  0  0  0
    6.5690   17.6060   -5.3420 C   0  0  0  0  0  0  0  0  0  0  0  0
    5.5870   18.4810   -7.3710 C   0  0  0  0  0  0  0  0  0  0  0  0
    6.4580   18.6300   -6.2860 C   0  0  0  0  0  0  0  0  0  0  0  0
    7.2400   19.9170   -6.1180 C   0  0  0  0  0  0  0  0  0  0  0  0
    8.7180   19.6340   -5.8640 C   0  0  0  0  0  0  0  0  0  0  0  0
    9.4560   20.9070   -5.4600 C   0  0  0  0  0  0  0  0  0  0  0  0
   10.9480   20.7850   -5.7430 C   0  0  0  0  0  0  0  0  0  0  0  0
   11.6390   22.1390   -5.6410 C   0  0  0  0  0  0  0  0  0  0  0  0
   13.1090   22.0440   -5.9860 C   0  0  0  0  0  0  0  0  0  0  0  0
    4.8393   14.6499  -13.0751 H   0  0  0  0  0  0  0  0  0  0  0  0
    3.1788   14.4735  -12.4130 H   0  0  0  0  0  0  0  0  0  0  0  0
    4.1155   17.2649  -12.4134 H   0  0  0  0  0  0  0  0  0  0  0  0
    5.1843   16.1762  -11.4652 H   0  0  0  0  0  0  0  0  0  0  0  0
    2.7625   17.3745  -10.6765 H   0  0  0  0  0  0  0  0  0  0  0  0
    1.4197   15.4928  -10.0760 H   0  0  0  0  0  0  0  0  0  0  0  0
    2.3812   14.4749  -10.9414 H   0  0  0  0  0  0  0  0  0  0  0  0
    1.5292   15.6549  -11.7104 H   0  0  0  0  0  0  0  0  0  0  0  0
    3.3982   17.9786   -8.7717 H   0  0  0  0  0  0  0  0  0  0  0  0
    4.3605   15.3885   -6.6756 H   0  0  0  0  0  0  0  0  0  0  0  0
    5.9421   15.6224   -4.7838 H   0  0  0  0  0  0  0  0  0  0  0  0
    7.2246   17.7251   -4.4870 H   0  0  0  0  0  0  0  0  0  0  0  0
    5.4759   19.2889   -8.0851 H   0  0  0  0  0  0  0  0  0  0  0  0
    6.8300   20.4775   -5.2649 H   0  0  0  0  0  0  0  0  0  0  0  0
    7.1419   20.5189   -7.0335 H   0  0  0  0  0  0  0  0  0  0  0  0
    9.1705   19.2318   -6.7824 H   0  0  0  0  0  0  0  0  0  0  0  0
    8.8089   18.8934   -5.0557 H   0  0  0  0  0  0  0  0  0  0  0  0
    9.3070   21.0835   -4.3845 H   0  0  0  0  0  0  0  0  0  0  0  0
    9.0497   21.7551   -6.0306 H   0  0  0  0  0  0  0  0  0  0  0  0
   11.0895   20.3852   -6.7580 H   0  0  0  0  0  0  0  0  0  0  0  0
   11.3971   20.0967   -5.0119 H   0  0  0  0  0  0  0  0  0  0  0  0
   11.5378   22.5143   -4.6120 H   0  0  0  0  0  0  0  0  0  0  0  0
   11.1542   22.8400   -6.3363 H   0  0  0  0  0  0  0  0  0  0  0  0
   13.5706   23.0388   -5.9008 H   0  0  0  0  0  0  0  0  0  0  0  0
   13.2208   21.6750   -7.0162 H   0  0  0  0  0  0  0  0  0  0  0  0
   13.6044   21.3493   -5.2918 H   0  0  0  0  0  0  0  0  0  0  0  0
  1  2  1  0  0  0  0
  2  3  1  0  0  0  0
  2  4  2  0  0  0  0
  2  5  1  0  0  0  0
  5  6  1  0  0  0  0
  5 24  1  0  0  0  0
  5 25  1  0  0  0  0
  6  7  1  0  0  0  0
  6 26  1  0  0  0  0
  6 27  1  0  0  0  0
  7  8  1  0  0  0  0
  7  9  1  0  0  0  0
  7 28  1  1  0  0  0
  8 29  1  0  0  0  0
  8 30  1  0  0  0  0
  8 31  1  0  0  0  0
  9 10  2  0  0  0  0
  9 11  1  0  0  0  0
 11 12  1  0  0  0  0
 11 32  1  0  0  0  0
 12 13  2  0  0  0  0
 12 16  1  0  0  0  0
 13 14  1  0  0  0  0
 13 33  1  0  0  0  0
 14 15  2  0  0  0  0
 14 34  1  0  0  0  0
 15 17  1  0  0  0  0
 15 35  1  0  0  0  0
 16 17  2  0  0  0  0
 16 36  1  0  0  0  0
 17 18  1  0  0  0  0
 18 19  1  0  0  0  0
 18 37  1  0  0  0  0
 18 38  1  0  0  0  0
 19 20  1  0  0  0  0
 19 39  1  0  0  0  0
 19 40  1  0  0  0  0
 20 21  1  0  0  0  0
 20 41  1  0  0  0  0
 20 42  1  0  0  0  0
 21 22  1  0  0  0  0
 21 43  1  0  0  0  0
 21 44  1  0  0  0  0
 22 23  1  0  0  0  0
 22 45  1  0  0  0  0
 22 46  1  0  0  0  0
 23 47  1  0  0  0  0
 23 48  1  0  0  0  0
 23 49  1  0  0  0  0
M  CHG  1   8   1
M  END
