3v2x_ligand
 OpenBabel08222323353D

187189  0  0  1  0  0  0  0  0999 V2000
   -5.6400   -5.6870  -21.5470 N   0  3  0  0  0  0  0  0  0  0  0  0
   -4.2260   -5.2580  -21.2830 C   0  0  2  0  0  0  0  0  0  0  0  0
   -4.0810   -3.8750  -20.6240 C   0  0  0  0  0  0  0  0  0  0  0  0
   -2.9610   -3.4580  -20.3090 O   0  0  0  0  0  0  0  0  0  0  0  0
   -3.3800   -5.3310  -22.5580 C   0  0  0  0  0  0  0  0  0  0  0  0
   -3.2490   -6.6870  -23.2580 C   0  0  0  0  0  0  0  0  0  0  0  0
   -2.2990   -6.5800  -24.4470 C   0  0  0  0  0  0  0  0  0  0  0  0
   -2.7920   -7.7890  -22.3100 C   0  0  0  0  0  0  0  0  0  0  0  0
   -5.1970   -3.1670  -20.4300 N   0  0  0  0  0  0  0  0  0  0  0  0
   -5.2070   -1.9240  -19.6440 C   0  0  2  0  0  0  0  0  0  0  0  0
   -5.1920   -2.2810  -18.1630 C   0  0  0  0  0  0  0  0  0  0  0  0
   -5.6840   -3.3450  -17.7820 O   0  0  0  0  0  0  0  0  0  0  0  0
   -6.4470   -1.0680  -19.9470 C   0  0  0  0  0  0  0  0  0  0  0  0
   -6.6030   -0.3420  -21.2890 C   0  0  0  0  0  0  0  0  0  0  0  0
   -8.0110    0.2560  -21.3770 C   0  0  0  0  0  0  0  0  0  0  0  0
   -5.5410    0.7560  -21.4780 C   0  0  0  0  0  0  0  0  0  0  0  0
   -4.6370   -1.3880  -17.3150 N   0  0  0  0  0  0  0  0  0  0  0  0
   -4.5890   -1.6900  -15.8910 C   0  0  2  0  0  0  0  0  0  0  0  0
   -5.9740   -1.9870  -15.3360 C   0  0  0  0  0  0  0  0  0  0  0  0
   -6.9370   -1.2740  -15.6320 O   0  0  0  0  0  0  0  0  0  0  0  0
   -4.0390   -0.4010  -15.2690 C   0  0  0  0  0  0  0  0  0  0  0  0
   -4.2520    0.6500  -16.2960 C   0  0  0  0  0  0  0  0  0  0  0  0
   -4.1140   -0.0420  -17.6050 C   0  0  0  0  0  0  0  0  0  0  0  0
   -6.0500   -3.0450  -14.5390 N   0  0  0  0  0  0  0  0  0  0  0  0
   -7.2890   -3.4590  -13.8970 C   0  0  2  0  0  0  0  0  0  0  0  0
   -7.5850   -2.5710  -12.6840 C   0  0  0  0  0  0  0  0  0  0  0  0
   -6.6740   -1.9630  -12.1200 O   0  0  0  0  0  0  0  0  0  0  0  0
   -7.1880   -4.9190  -13.4240 C   0  0  2  0  0  0  0  0  0  0  0  0
   -5.9700   -5.0730  -12.6780 O   0  0  0  0  0  0  0  0  0  0  0  0
   -7.1720   -5.8760  -14.6180 C   0  0  0  0  0  0  0  0  0  0  0  0
   -8.8620   -2.5010  -12.3090 N   0  0  0  0  0  0  0  0  0  0  0  0
   -9.3100   -1.8230  -11.0850 C   0  0  2  0  0  0  0  0  0  0  0  0
   -8.5090   -2.3110   -9.8660 C   0  0  0  0  0  0  0  0  0  0  0  0
   -8.3150   -3.5230   -9.6920 O   0  0  0  0  0  0  0  0  0  0  0  0
  -10.8040   -2.1190  -10.8760 C   0  0  0  0  0  0  0  0  0  0  0  0
  -11.6530   -1.4630   -9.7850 C   0  0  0  0  0  0  0  0  0  0  0  0
  -11.8080    0.0530  -10.0050 C   0  0  0  0  0  0  0  0  0  0  0  0
  -13.0180   -2.1530   -9.7330 C   0  0  0  0  0  0  0  0  0  0  0  0
   -8.0300   -1.3770   -9.0220 N   0  0  0  0  0  0  0  0  0  0  0  0
   -7.3420   -1.8490   -7.8230 C   0  0  2  0  0  0  0  0  0  0  0  0
   -8.2770   -2.7250   -7.0020 C   0  0  0  0  0  0  0  0  0  0  0  0
   -9.4680   -2.4290   -6.8700 O   0  0  0  0  0  0  0  0  0  0  0  0
   -7.0120   -0.5550   -7.0680 C   0  0  0  0  0  0  0  0  0  0  0  0
   -6.9170    0.4800   -8.1310 C   0  0  0  0  0  0  0  0  0  0  0  0
   -8.0070    0.0920   -9.1200 C   0  0  0  0  0  0  0  0  0  0  0  0
   -7.7400   -3.8180   -6.4780 N   0  0  0  0  0  0  0  0  0  0  0  0
   -8.5250   -4.7370   -5.6690 C   0  0  2  0  0  0  0  0  0  0  0  0
   -7.6290   -5.3270   -4.5950 C   0  0  0  0  0  0  0  0  0  0  0  0
   -6.5450   -5.8270   -4.8870 O   0  0  0  0  0  0  0  0  0  0  0  0
   -9.1280   -5.8630   -6.5260 C   0  0  0  0  0  0  0  0  0  0  0  0
  -10.2300   -6.6550   -5.8190 C   0  0  0  0  0  0  0  0  0  0  0  0
  -10.8710   -7.7120   -6.7210 C   0  0  0  0  0  0  0  0  0  0  0  0
  -12.1810   -8.2130   -6.1070 C   0  0  0  0  0  0  0  0  0  0  0  0
  -13.0620   -8.9390   -7.0850 N   0  3  0  0  0  0  0  0  0  0  0  0
   -8.0650   -5.2390   -3.3480 N   0  0  0  0  0  0  0  0  0  0  0  0
   -7.3720   -5.9660   -2.2880 C   0  0  2  0  0  0  0  0  0  0  0  0
   -7.8160   -7.4260   -2.3250 C   0  0  0  0  0  0  0  0  0  0  0  0
   -9.0010   -7.7080   -2.5390 O   0  0  0  0  0  0  0  0  0  0  0  0
   -7.6390   -5.3420   -0.9220 C   0  0  0  0  0  0  0  0  0  0  0  0
   -6.9570   -3.9990   -0.6580 C   0  0  0  0  0  0  0  0  0  0  0  0
   -7.5250   -3.3840    0.6140 C   0  0  0  0  0  0  0  0  0  0  0  0
   -5.4490   -4.1620   -0.5750 C   0  0  0  0  0  0  0  0  0  0  0  0
   -6.8660   -8.3550   -2.1070 N   0  0  0  0  0  0  0  0  0  0  0  0
   -7.1730   -9.7870   -2.1180 C   0  0  2  0  0  0  0  0  0  0  0  0
   -7.8940  -10.2100   -0.8560 C   0  0  0  0  0  0  0  0  0  0  0  0
   -7.7500   -9.5610    0.1810 O   0  0  0  0  0  0  0  0  0  0  0  0
   -5.7900  -10.4420   -2.1490 C   0  0  0  0  0  0  0  0  0  0  0  0
   -4.8840   -9.4300   -1.4420 C   0  0  0  0  0  0  0  0  0  0  0  0
   -5.4280   -8.0910   -1.8830 C   0  0  0  0  0  0  0  0  0  0  0  0
   -8.6450  -11.3010   -0.9340 N   0  0  0  0  0  0  0  0  0  0  0  0
   -9.2540  -11.8850    0.2580 C   0  0  2  0  0  0  0  0  0  0  0  0
   -8.1710  -12.4250    1.1640 C   0  0  0  0  0  0  0  0  0  0  0  0
   -7.1110  -12.8490    0.6920 O   0  0  0  0  0  0  0  0  0  0  0  0
  -10.2150  -13.0190   -0.0960 C   0  0  0  0  0  0  0  0  0  0  0  0
  -11.4220  -12.4990   -0.6150 O   0  0  0  0  0  0  0  0  0  0  0  0
   -8.4520  -12.4240    2.4660 N   0  0  0  0  0  0  0  0  0  0  0  0
   -7.4810  -12.8810    3.4600 C   0  0  2  0  0  0  0  0  0  0  0  0
   -7.8840  -14.2020    4.0920 C   0  0  0  0  0  0  0  0  0  0  0  0
   -9.0190  -14.6690    3.9550 O   0  5  0  0  0  0  0  0  0  0  0  0
   -7.2780  -11.8120    4.5420 C   0  0  0  0  0  0  0  0  0  0  0  0
   -6.6170  -10.5110    4.0760 C   0  0  0  0  0  0  0  0  0  0  0  0
   -6.7050   -9.4770    5.1700 C   0  0  0  0  0  0  0  0  0  0  0  0
   -5.1780  -10.7300    3.6790 C   0  0  0  0  0  0  0  0  0  0  0  0
   -7.0670  -14.8260    4.7600 O   0  0  0  0  0  0  0  0  0  0  0  0
   -5.6398   -6.5986  -21.9772 H   0  0  0  0  0  0  0  0  0  0  0  0
   -6.0825   -5.0243  -22.1643 H   0  0  0  0  0  0  0  0  0  0  0  0
   -6.1473   -5.7263  -20.6768 H   0  0  0  0  0  0  0  0  0  0  0  0
   -3.8089   -5.9873  -20.5730 H   0  0  0  0  0  0  0  0  0  0  0  0
   -2.3646   -4.9988  -22.2962 H   0  0  0  0  0  0  0  0  0  0  0  0
   -3.8197   -4.6300  -23.2828 H   0  0  0  0  0  0  0  0  0  0  0  0
   -4.2431   -6.9645  -23.6385 H   0  0  0  0  0  0  0  0  0  0  0  0
   -2.2153   -7.5604  -24.9388 H   0  0  0  0  0  0  0  0  0  0  0  0
   -1.3068   -6.2600  -24.0960 H   0  0  0  0  0  0  0  0  0  0  0  0
   -2.6899   -5.8426  -25.1635 H   0  0  0  0  0  0  0  0  0  0  0  0
   -3.4869   -7.8526  -21.4596 H   0  0  0  0  0  0  0  0  0  0  0  0
   -1.7813   -7.5597  -21.9413 H   0  0  0  0  0  0  0  0  0  0  0  0
   -2.7780   -8.7502  -22.8447 H   0  0  0  0  0  0  0  0  0  0  0  0
   -6.0528   -3.4925  -20.8320 H   0  0  0  0  0  0  0  0  0  0  0  0
   -4.3065   -1.3413  -19.8881 H   0  0  0  0  0  0  0  0  0  0  0  0
   -6.4894   -0.2936  -19.1669 H   0  0  0  0  0  0  0  0  0  0  0  0
   -7.3169   -1.7342  -19.8501 H   0  0  0  0  0  0  0  0  0  0  0  0
   -6.4816   -1.0781  -22.0974 H   0  0  0  0  0  0  0  0  0  0  0  0
   -8.1282    0.7781  -22.3381 H   0  0  0  0  0  0  0  0  0  0  0  0
   -8.1589    0.9686  -20.5522 H   0  0  0  0  0  0  0  0  0  0  0  0
   -8.7567   -0.5494  -21.3040 H   0  0  0  0  0  0  0  0  0  0  0  0
   -4.5374    0.3106  -21.4121 H   0  0  0  0  0  0  0  0  0  0  0  0
   -5.6566    1.5171  -20.6923 H   0  0  0  0  0  0  0  0  0  0  0  0
   -5.6699    1.2249  -22.4646 H   0  0  0  0  0  0  0  0  0  0  0  0
   -3.9222   -2.5423  -15.6936 H   0  0  0  0  0  0  0  0  0  0  0  0
   -2.9677   -0.5083  -15.0436 H   0  0  0  0  0  0  0  0  0  0  0  0
   -4.5849   -0.1547  -14.3464 H   0  0  0  0  0  0  0  0  0  0  0  0
   -3.4954    1.4424  -16.1982 H   0  0  0  0  0  0  0  0  0  0  0  0
   -5.2563    1.0875  -16.1962 H   0  0  0  0  0  0  0  0  0  0  0  0
   -4.7112    0.4568  -18.3825 H   0  0  0  0  0  0  0  0  0  0  0  0
   -3.0616   -0.0850  -17.9221 H   0  0  0  0  0  0  0  0  0  0  0  0
   -5.2218   -3.5801  -14.3725 H   0  0  0  0  0  0  0  0  0  0  0  0
   -8.1121   -3.3692  -14.6212 H   0  0  0  0  0  0  0  0  0  0  0  0
   -8.0489   -5.1553  -12.7814 H   0  0  0  0  0  0  0  0  0  0  0  0
   -5.8945   -5.9716  -12.3792 H   0  0  0  0  0  0  0  0  0  0  0  0
   -7.0994   -6.9123  -14.2563 H   0  0  0  0  0  0  0  0  0  0  0  0
   -6.3064   -5.6496  -15.2579 H   0  0  0  0  0  0  0  0  0  0  0  0
   -8.0986   -5.7542  -15.1980 H   0  0  0  0  0  0  0  0  0  0  0  0
   -9.5512   -2.9325  -12.8911 H   0  0  0  0  0  0  0  0  0  0  0  0
   -9.1645   -0.7386  -11.1983 H   0  0  0  0  0  0  0  0  0  0  0  0
  -10.8734   -3.2025  -10.6993 H   0  0  0  0  0  0  0  0  0  0  0  0
  -11.2952   -1.8706  -11.8284 H   0  0  0  0  0  0  0  0  0  0  0  0
  -11.1493   -1.6140   -8.8189 H   0  0  0  0  0  0  0  0  0  0  0  0
  -12.4236    0.4794   -9.1992 H   0  0  0  0  0  0  0  0  0  0  0  0
  -12.2955    0.2349  -10.9741 H   0  0  0  0  0  0  0  0  0  0  0  0
  -10.8158    0.5278   -9.9987 H   0  0  0  0  0  0  0  0  0  0  0  0
  -12.8774   -3.2325   -9.5753 H   0  0  0  0  0  0  0  0  0  0  0  0
  -13.5491   -1.9872  -10.6819 H   0  0  0  0  0  0  0  0  0  0  0  0
  -13.6087   -1.7353   -8.9044 H   0  0  0  0  0  0  0  0  0  0  0  0
   -6.4288   -2.4072   -8.0767 H   0  0  0  0  0  0  0  0  0  0  0  0
   -6.0566   -0.6504   -6.5313 H   0  0  0  0  0  0  0  0  0  0  0  0
   -7.8107   -0.3068   -6.3535 H   0  0  0  0  0  0  0  0  0  0  0  0
   -5.9275    0.4580   -8.6110 H   0  0  0  0  0  0  0  0  0  0  0  0
   -7.1022    1.4827   -7.7183 H   0  0  0  0  0  0  0  0  0  0  0  0
   -8.9765    0.5235   -8.8303 H   0  0  0  0  0  0  0  0  0  0  0  0
   -7.7509    0.4170  -10.1392 H   0  0  0  0  0  0  0  0  0  0  0  0
   -6.7735   -4.0150   -6.6427 H   0  0  0  0  0  0  0  0  0  0  0  0
   -9.3448   -4.1806   -5.1910 H   0  0  0  0  0  0  0  0  0  0  0  0
   -8.3220   -6.5595   -6.8004 H   0  0  0  0  0  0  0  0  0  0  0  0
   -9.5524   -5.4160   -7.4371 H   0  0  0  0  0  0  0  0  0  0  0  0
  -11.0108   -5.9538   -5.4894 H   0  0  0  0  0  0  0  0  0  0  0  0
   -9.7948   -7.1577   -4.9427 H   0  0  0  0  0  0  0  0  0  0  0  0
  -10.1780   -8.5583   -6.8370 H   0  0  0  0  0  0  0  0  0  0  0  0
  -11.0783   -7.2701   -7.7067 H   0  0  0  0  0  0  0  0  0  0  0  0
  -12.7353   -7.3475   -5.7149 H   0  0  0  0  0  0  0  0  0  0  0  0
  -11.9390   -8.8982   -5.2812 H   0  0  0  0  0  0  0  0  0  0  0  0
  -13.9035   -9.2409   -6.6193 H   0  0  0  0  0  0  0  0  0  0  0  0
  -12.5718   -9.7420   -7.4470 H   0  0  0  0  0  0  0  0  0  0  0  0
  -13.3015   -8.3210   -7.8444 H   0  0  0  0  0  0  0  0  0  0  0  0
   -8.8644   -4.6778   -3.1332 H   0  0  0  0  0  0  0  0  0  0  0  0
   -6.2898   -5.9217   -2.4798 H   0  0  0  0  0  0  0  0  0  0  0  0
   -7.2959   -6.0512   -0.1543 H   0  0  0  0  0  0  0  0  0  0  0  0
   -8.7246   -5.1937   -0.8253 H   0  0  0  0  0  0  0  0  0  0  0  0
   -7.1803   -3.3244   -1.4977 H   0  0  0  0  0  0  0  0  0  0  0  0
   -7.0349   -2.4178    0.8046 H   0  0  0  0  0  0  0  0  0  0  0  0
   -7.3429   -4.0610    1.4616 H   0  0  0  0  0  0  0  0  0  0  0  0
   -8.6074   -3.2288    0.4946 H   0  0  0  0  0  0  0  0  0  0  0  0
   -5.0764   -4.6078   -1.5091 H   0  0  0  0  0  0  0  0  0  0  0  0
   -5.1972   -4.8188    0.2706 H   0  0  0  0  0  0  0  0  0  0  0  0
   -4.9814   -3.1775   -0.4266 H   0  0  0  0  0  0  0  0  0  0  0  0
   -7.7702  -10.0581   -3.0011 H   0  0  0  0  0  0  0  0  0  0  0  0
   -5.4585  -10.6064   -3.1849 H   0  0  0  0  0  0  0  0  0  0  0  0
   -5.7996  -11.4011   -1.6104 H   0  0  0  0  0  0  0  0  0  0  0  0
   -3.8378   -9.5518   -1.7592 H   0  0  0  0  0  0  0  0  0  0  0  0
   -4.9511   -9.5398   -0.3496 H   0  0  0  0  0  0  0  0  0  0  0  0
   -5.2856   -7.3322   -1.0995 H   0  0  0  0  0  0  0  0  0  0  0  0
   -4.9412   -7.7559   -2.8108 H   0  0  0  0  0  0  0  0  0  0  0  0
   -8.7966  -11.7307   -1.8242 H   0  0  0  0  0  0  0  0  0  0  0  0
   -9.8126  -11.1001    0.7888 H   0  0  0  0  0  0  0  0  0  0  0  0
  -10.4326  -13.6052    0.8089 H   0  0  0  0  0  0  0  0  0  0  0  0
   -9.7466  -13.6687   -0.8500 H   0  0  0  0  0  0  0  0  0  0  0  0
  -12.0077  -13.2154   -0.8298 H   0  0  0  0  0  0  0  0  0  0  0  0
   -9.3485  -12.1030    2.7714 H   0  0  0  0  0  0  0  0  0  0  0  0
   -6.5208  -13.0339    2.9455 H   0  0  0  0  0  0  0  0  0  0  0  0
   -6.6482  -12.2466    5.3323 H   0  0  0  0  0  0  0  0  0  0  0  0
   -8.2650  -11.5596    4.9569 H   0  0  0  0  0  0  0  0  0  0  0  0
   -7.1641  -10.1399    3.1968 H   0  0  0  0  0  0  0  0  0  0  0  0
   -6.2296   -8.5444    4.8321 H   0  0  0  0  0  0  0  0  0  0  0  0
   -6.1882   -9.8478    6.0674 H   0  0  0  0  0  0  0  0  0  0  0  0
   -7.7614   -9.2845    5.4085 H   0  0  0  0  0  0  0  0  0  0  0  0
   -5.1287  -11.4857    2.8812 H   0  0  0  0  0  0  0  0  0  0  0  0
   -4.6062  -11.0798    4.5511 H   0  0  0  0  0  0  0  0  0  0  0  0
   -4.7500   -9.7843    3.3151 H   0  0  0  0  0  0  0  0  0  0  0  0
  1  2  1  0  0  0  0
  1 85  1  0  0  0  0
  1 86  1  0  0  0  0
  1 87  1  0  0  0  0
  2  3  1  0  0  0  0
  2  5  1  0  0  0  0
  2 88  1  1  0  0  0
  3  4  2  0  0  0  0
  3  9  1  0  0  0  0
  5  6  1  0  0  0  0
  5 89  1  0  0  0  0
  5 90  1  0  0  0  0
  6  7  1  0  0  0  0
  6  8  1  0  0  0  0
  6 91  1  0  0  0  0
  7 92  1  0  0  0  0
  7 93  1  0  0  0  0
  7 94  1  0  0  0  0
  8 95  1  0  0  0  0
  8 96  1  0  0  0  0
  8 97  1  0  0  0  0
  9 10  1  0  0  0  0
  9 98  1  0  0  0  0
 10 11  1  0  0  0  0
 10 13  1  0  0  0  0
 10 99  1  6  0  0  0
 11 12  2  0  0  0  0
 11 17  1  0  0  0  0
 13 14  1  0  0  0  0
 13100  1  0  0  0  0
 13101  1  0  0  0  0
 14 15  1  0  0  0  0
 14 16  1  0  0  0  0
 14102  1  0  0  0  0
 15103  1  0  0  0  0
 15104  1  0  0  0  0
 15105  1  0  0  0  0
 16106  1  0  0  0  0
 16107  1  0  0  0  0
 16108  1  0  0  0  0
 17 18  1  0  0  0  0
 17 23  1  0  0  0  0
 18 19  1  0  0  0  0
 18 21  1  0  0  0  0
 18109  1  1  0  0  0
 19 20  2  0  0  0  0
 19 24  1  0  0  0  0
 21 22  1  0  0  0  0
 21110  1  0  0  0  0
 21111  1  0  0  0  0
 22 23  1  0  0  0  0
 22112  1  0  0  0  0
 22113  1  0  0  0  0
 23114  1  0  0  0  0
 23115  1  0  0  0  0
 24 25  1  0  0  0  0
 24116  1  0  0  0  0
 25 26  1  0  0  0  0
 25 28  1  0  0  0  0
 25117  1  6  0  0  0
 26 27  2  0  0  0  0
 26 31  1  0  0  0  0
 28 29  1  0  0  0  0
 28 30  1  0  0  0  0
 28118  1  1  0  0  0
 29119  1  0  0  0  0
 30120  1  0  0  0  0
 30121  1  0  0  0  0
 30122  1  0  0  0  0
 31 32  1  0  0  0  0
 31123  1  0  0  0  0
 32 33  1  0  0  0  0
 32 35  1  0  0  0  0
 32124  1  6  0  0  0
 33 34  2  0  0  0  0
 33 39  1  0  0  0  0
 35 36  1  0  0  0  0
 35125  1  0  0  0  0
 35126  1  0  0  0  0
 36 37  1  0  0  0  0
 36 38  1  0  0  0  0
 36127  1  0  0  0  0
 37128  1  0  0  0  0
 37129  1  0  0  0  0
 37130  1  0  0  0  0
 38131  1  0  0  0  0
 38132  1  0  0  0  0
 38133  1  0  0  0  0
 39 40  1  0  0  0  0
 39 45  1  0  0  0  0
 40 41  1  0  0  0  0
 40 43  1  0  0  0  0
 40134  1  6  0  0  0
 41 42  2  0  0  0  0
 41 46  1  0  0  0  0
 43 44  1  0  0  0  0
 43135  1  0  0  0  0
 43136  1  0  0  0  0
 44 45  1  0  0  0  0
 44137  1  0  0  0  0
 44138  1  0  0  0  0
 45139  1  0  0  0  0
 45140  1  0  0  0  0
 46 47  1  0  0  0  0
 46141  1  0  0  0  0
 47 48  1  0  0  0  0
 47 50  1  0  0  0  0
 47142  1  1  0  0  0
 48 49  2  0  0  0  0
 48 55  1  0  0  0  0
 50 51  1  0  0  0  0
 50143  1  0  0  0  0
 50144  1  0  0  0  0
 51 52  1  0  0  0  0
 51145  1  0  0  0  0
 51146  1  0  0  0  0
 52 53  1  0  0  0  0
 52147  1  0  0  0  0
 52148  1  0  0  0  0
 53 54  1  0  0  0  0
 53149  1  0  0  0  0
 53150  1  0  0  0  0
 54151  1  0  0  0  0
 54152  1  0  0  0  0
 54153  1  0  0  0  0
 55 56  1  0  0  0  0
 55154  1  0  0  0  0
 56 57  1  0  0  0  0
 56 59  1  0  0  0  0
 56155  1  6  0  0  0
 57 58  2  0  0  0  0
 57 63  1  0  0  0  0
 59 60  1  0  0  0  0
 59156  1  0  0  0  0
 59157  1  0  0  0  0
 60 61  1  0  0  0  0
 60 62  1  0  0  0  0
 60158  1  0  0  0  0
 61159  1  0  0  0  0
 61160  1  0  0  0  0
 61161  1  0  0  0  0
 62162  1  0  0  0  0
 62163  1  0  0  0  0
 62164  1  0  0  0  0
 63 64  1  0  0  0  0
 63 69  1  0  0  0  0
 64 65  1  0  0  0  0
 64 67  1  0  0  0  0
 64165  1  6  0  0  0
 65 66  2  0  0  0  0
 65 70  1  0  0  0  0
 67 68  1  0  0  0  0
 67166  1  0  0  0  0
 67167  1  0  0  0  0
 68 69  1  0  0  0  0
 68168  1  0  0  0  0
 68169  1  0  0  0  0
 69170  1  0  0  0  0
 69171  1  0  0  0  0
 70 71  1  0  0  0  0
 70172  1  0  0  0  0
 71 72  1  0  0  0  0
 71 74  1  0  0  0  0
 71173  1  1  0  0  0
 72 73  2  0  0  0  0
 72 76  1  0  0  0  0
 74 75  1  0  0  0  0
 74174  1  0  0  0  0
 74175  1  0  0  0  0
 75176  1  0  0  0  0
 76 77  1  0  0  0  0
 76177  1  0  0  0  0
 77 78  1  0  0  0  0
 77 80  1  0  0  0  0
 77178  1  6  0  0  0
 78 79  1  0  0  0  0
 78 84  2  0  0  0  0
 80 81  1  0  0  0  0
 80179  1  0  0  0  0
 80180  1  0  0  0  0
 81 82  1  0  0  0  0
 81 83  1  0  0  0  0
 81181  1  0  0  0  0
 82182  1  0  0  0  0
 82183  1  0  0  0  0
 82184  1  0  0  0  0
 83185  1  0  0  0  0
 83186  1  0  0  0  0
 83187  1  0  0  0  0
M  CHG  3   1   1  54   1  79  -1
M  END
