3v31_ligand
 OpenBabel08222323353D

269273  0  0  1  0  0  0  0  0999 V2000
  -16.6370    3.5410   35.1700 C   0  0  0  0  0  0  0  0  0  0  0  0
  -16.1370    2.4830   35.5330 O   0  0  0  0  0  0  0  0  0  0  0  0
  -16.1690    4.8860   35.6840 C   0  0  0  0  0  0  0  0  0  0  0  0
  -17.5510    3.5420   34.2200 N   0  0  0  0  0  0  0  0  0  0  0  0
  -18.0490    2.2710   33.6860 C   0  0  2  0  0  0  0  0  0  0  0  0
  -17.1990    1.8140   32.4970 C   0  0  0  0  0  0  0  0  0  0  0  0
  -16.4350    2.6050   31.9730 O   0  0  0  0  0  0  0  0  0  0  0  0
  -19.5070    2.4170   33.2640 C   0  0  0  0  0  0  0  0  0  0  0  0
  -20.4730    2.7710   34.3970 C   0  0  0  0  0  0  0  0  0  0  0  0
  -21.8470    2.9740   33.8030 C   0  0  0  0  0  0  0  0  0  0  0  0
  -20.5010    1.6440   35.4200 C   0  0  0  0  0  0  0  0  0  0  0  0
  -17.3490    0.5430   32.0630 N   0  0  0  0  0  0  0  0  0  0  0  0
  -16.5610    0.1280   30.8870 C   0  0  2  0  0  0  0  0  0  0  0  0
  -16.9030    0.9050   29.6220 C   0  0  0  0  0  0  0  0  0  0  0  0
  -18.0480    1.3300   29.4410 O   0  0  0  0  0  0  0  0  0  0  0  0
  -16.9630   -1.3410   30.6990 C   0  0  0  0  0  0  0  0  0  0  0  0
  -17.3790   -1.7640   32.0770 C   0  0  0  0  0  0  0  0  0  0  0  0
  -18.1030   -0.5910   32.6330 C   0  0  0  0  0  0  0  0  0  0  0  0
  -15.9070    1.0780   28.7690 N   0  0  0  0  0  0  0  0  0  0  0  0
  -16.1200    1.5110   27.3870 C   0  0  2  0  0  0  0  0  0  0  0  0
  -16.6210    0.3390   26.5700 C   0  0  0  0  0  0  0  0  0  0  0  0
  -16.0650   -0.7630   26.6490 O   0  0  0  0  0  0  0  0  0  0  0  0
  -14.8090    2.0330   26.7920 C   0  0  0  0  0  0  0  0  0  0  0  0
  -14.0740    3.1380   27.5450 C   0  0  0  0  0  0  0  0  0  0  0  0
  -12.7960    3.5270   26.8330 C   0  0  0  0  0  0  0  0  0  0  0  0
  -14.9390    4.3690   27.7360 C   0  0  0  0  0  0  0  0  0  0  0  0
  -17.6400    0.5860   25.7590 N   0  0  0  0  0  0  0  0  0  0  0  0
  -18.1620   -0.4360   24.8420 C   0  0  2  0  0  0  0  0  0  0  0  0
  -17.5030   -0.3980   23.4600 C   0  0  0  0  0  0  0  0  0  0  0  0
  -17.8520   -1.1940   22.6030 O   0  0  0  0  0  0  0  0  0  0  0  0
  -19.6930   -0.3400   24.6960 C   0  0  0  0  0  0  0  0  0  0  0  0
  -20.1510    1.0570   24.3530 C   0  0  0  0  0  0  0  0  0  0  0  0
  -20.0720    1.5360   23.0410 C   0  0  0  0  0  0  0  0  0  0  0  0
  -20.6110    1.9130   25.3480 C   0  0  0  0  0  0  0  0  0  0  0  0
  -20.4410    2.8300   22.7340 C   0  0  0  0  0  0  0  0  0  0  0  0
  -21.0000    3.2060   25.0430 C   0  0  0  0  0  0  0  0  0  0  0  0
  -20.9030    3.6530   23.7440 C   0  0  0  0  0  0  0  0  0  0  0  0
  -21.2710    4.9400   23.4300 O   0  0  0  0  0  0  0  0  0  0  0  0
  -16.5630    0.5260   23.2500 N   0  0  0  0  0  0  0  0  0  0  0  0
  -15.8430    0.6640   21.9770 C   0  0  2  0  0  0  0  0  0  0  0  0
  -14.6970   -0.3510   21.8640 C   0  0  0  0  0  0  0  0  0  0  0  0
  -13.5150    0.0160   21.9320 O   0  0  0  0  0  0  0  0  0  0  0  0
  -15.2950    2.1130   21.8200 C   0  0  2  0  0  0  0  0  0  0  0  0
  -14.7350    2.5460   23.0660 O   0  0  0  0  0  0  0  0  0  0  0  0
  -16.4270    3.0730   21.4410 C   0  0  0  0  0  0  0  0  0  0  0  0
  -15.0370   -1.6320   21.6980 N   0  0  0  0  0  0  0  0  0  0  0  0
  -13.9910   -2.6520   21.5940 C   0  0  2  0  0  0  0  0  0  0  0  0
  -13.1450   -2.4190   20.3460 C   0  0  0  0  0  0  0  0  0  0  0  0
  -13.6510   -1.9420   19.3260 O   0  0  0  0  0  0  0  0  0  0  0  0
  -14.5630   -4.0770   21.6120 C   0  0  0  0  0  0  0  0  0  0  0  0
  -15.6350   -4.2110   20.7250 O   0  0  0  0  0  0  0  0  0  0  0  0
  -11.8490   -2.7340   20.4260 N   0  0  0  0  0  0  0  0  0  0  0  0
  -10.9820   -2.6180   19.2660 C   0  0  2  0  0  0  0  0  0  0  0  0
  -11.5630   -3.2780   18.0150 C   0  0  0  0  0  0  0  0  0  0  0  0
  -12.1210   -4.3820   18.0720 O   0  0  0  0  0  0  0  0  0  0  0  0
   -9.6980   -3.3110   19.7200 C   0  0  0  0  0  0  0  0  0  0  0  0
   -9.6670   -3.0580   21.2270 C   0  0  0  0  0  0  0  0  0  0  0  0
  -11.1240   -3.1760   21.6350 C   0  0  0  0  0  0  0  0  0  0  0  0
  -11.4330   -2.5820   16.8840 N   0  0  0  0  0  0  0  0  0  0  0  0
  -11.9820   -3.0620   15.6380 C   0  0  2  0  0  0  0  0  0  0  0  0
  -11.2160   -2.4670   14.4880 C   0  0  0  0  0  0  0  0  0  0  0  0
  -10.7640   -1.3220   14.5610 O   0  0  0  0  0  0  0  0  0  0  0  0
  -13.4600   -2.6670   15.5290 C   0  0  0  0  0  0  0  0  0  0  0  0
  -14.0100   -3.1590   14.3250 O   0  0  0  0  0  0  0  0  0  0  0  0
  -11.0570   -3.2620   13.4340 N   0  0  0  0  0  0  0  0  0  0  0  0
  -10.4950   -2.7580   12.1740 C   0  0  2  0  0  0  0  0  0  0  0  0
  -11.6160   -2.6570   11.1470 C   0  0  0  0  0  0  0  0  0  0  0  0
  -12.5070   -3.5280   11.1120 O   0  0  0  0  0  0  0  0  0  0  0  0
   -9.3980   -3.6810   11.6680 C   0  0  0  0  0  0  0  0  0  0  0  0
   -8.1510   -3.7800   12.5410 C   0  0  0  0  0  0  0  0  0  0  0  0
   -7.3130   -4.9770   12.1460 C   0  0  0  0  0  0  0  0  0  0  0  0
   -7.3300   -2.4740   12.4730 C   0  0  0  0  0  0  0  0  0  0  0  0
  -11.6000   -1.5840   10.3330 N   0  0  0  0  0  0  0  0  0  0  0  0
  -12.6940   -1.3610    9.3960 C   0  0  2  0  0  0  0  0  0  0  0  0
  -12.6450   -2.2750    8.1870 C   0  0  0  0  0  0  0  0  0  0  0  0
  -11.6190   -2.9250    7.9160 O   0  0  0  0  0  0  0  0  0  0  0  0
  -12.4740    0.0860    8.9580 C   0  0  0  0  0  0  0  0  0  0  0  0
  -10.9740    0.2290    9.0160 C   0  0  0  0  0  0  0  0  0  0  0  0
  -10.6270   -0.4750   10.2980 C   0  0  0  0  0  0  0  0  0  0  0  0
  -13.7770   -2.3140    7.4840 N   0  0  0  0  0  0  0  0  0  0  0  0
  -13.8870   -2.9100    6.1650 C   0  0  2  0  0  0  0  0  0  0  0  0
  -13.1980   -2.0180    5.1300 C   0  0  0  0  0  0  0  0  0  0  0  0
  -13.5780   -0.8530    4.9330 O   0  0  0  0  0  0  0  0  0  0  0  0
  -15.3640   -3.1020    5.8170 C   0  0  0  0  0  0  0  0  0  0  0  0
  -15.5760   -3.7610    4.4640 C   0  0  0  0  0  0  0  0  0  0  0  0
  -14.6620   -3.8530    3.6370 O   0  0  0  0  0  0  0  0  0  0  0  0
  -16.7980   -4.2310    4.2350 N   0  0  0  0  0  0  0  0  0  0  0  0
  -12.1800   -2.5690    4.4720 N   0  0  0  0  0  0  0  0  0  0  0  0
  -11.3860   -1.7770    3.5320 C   0  0  2  0  0  0  0  0  0  0  0  0
  -11.5410   -2.1900    2.0690 C   0  0  0  0  0  0  0  0  0  0  0  0
  -10.7490   -1.7800    1.2190 O   0  0  0  0  0  0  0  0  0  0  0  0
   -9.8900   -1.7170    3.9250 C   0  0  2  0  0  0  0  0  0  0  0  0
   -9.2770   -3.1140    4.0660 C   0  0  0  0  0  0  0  0  0  0  0  0
   -9.7110   -0.9230    5.2040 C   0  0  0  0  0  0  0  0  0  0  0  0
   -7.7320   -3.1080    4.1960 C   0  0  0  0  0  0  0  0  0  0  0  0
  -12.5660   -2.9810    1.7830 N   0  0  0  0  0  0  0  0  0  0  0  0
  -12.7730   -3.5280    0.4450 C   0  0  2  0  0  0  0  0  0  0  0  0
  -13.2870   -2.4880   -0.5630 C   0  0  0  0  0  0  0  0  0  0  0  0
  -13.9130   -1.4840   -0.1960 O   0  0  0  0  0  0  0  0  0  0  0  0
  -13.7580   -4.7340    0.4670 C   0  0  2  0  0  0  0  0  0  0  0  0
  -15.0820   -4.2690    0.7420 O   0  0  0  0  0  0  0  0  0  0  0  0
  -13.3560   -5.7860    1.5170 C   0  0  0  0  0  0  0  0  0  0  0  0
  -13.0020   -2.7380   -1.8350 N   0  0  0  0  0  0  0  0  0  0  0  0
  -13.5720   -1.9600   -2.9280 C   0  0  2  0  0  0  0  0  0  0  0  0
  -14.4330   -2.8780   -3.7770 C   0  0  0  0  0  0  0  0  0  0  0  0
  -14.3530   -4.1110   -3.6560 O   0  0  0  0  0  0  0  0  0  0  0  0
  -12.4700   -1.3330   -3.7840 C   0  0  0  0  0  0  0  0  0  0  0  0
  -11.5190   -0.3310   -3.1130 C   0  0  0  0  0  0  0  0  0  0  0  0
  -10.3440   -0.0410   -4.0300 C   0  0  0  0  0  0  0  0  0  0  0  0
  -12.2500    0.9710   -2.6970 C   0  0  0  0  0  0  0  0  0  0  0  0
  -15.2580   -2.2780   -4.6340 N   0  0  0  0  0  0  0  0  0  0  0  0
  -16.2440   -3.0270   -5.4080 C   0  0  0  0  0  0  0  0  0  0  0  0
  -17.4020   -3.4340   -4.5200 C   0  0  0  0  0  0  0  0  0  0  0  0
  -17.4580   -3.0590   -3.3480 O   0  0  0  0  0  0  0  0  0  0  0  0
  -18.3280   -4.2100   -5.0670 N   0  0  0  0  0  0  0  0  0  0  0  0
  -19.4730   -4.6450   -4.2790 C   0  0  2  0  0  0  0  0  0  0  0  0
  -19.0560   -5.7240   -3.2910 C   0  0  0  0  0  0  0  0  0  0  0  0
  -18.1730   -6.5340   -3.6000 O   0  0  0  0  0  0  0  0  0  0  0  0
  -20.6020   -5.1480   -5.1820 C   0  0  0  0  0  0  0  0  0  0  0  0
  -21.1800   -4.0830   -6.1140 C   0  0  0  0  0  0  0  0  0  0  0  0
  -22.1600   -4.7040   -7.0800 C   0  0  0  0  0  0  0  0  0  0  0  0
  -21.8310   -2.9490   -5.3220 C   0  0  0  0  0  0  0  0  0  0  0  0
  -19.6670   -5.7250   -2.0860 N   0  0  0  0  0  0  0  0  0  0  0  0
  -19.4680   -6.8440   -1.1660 C   0  0  2  0  0  0  0  0  0  0  0  0
  -19.8700   -8.1600   -1.8410 C   0  0  0  0  0  0  0  0  0  0  0  0
  -19.0570   -9.0720   -2.0210 O   0  5  0  0  0  0  0  0  0  0  0  0
  -20.4210   -6.5160   -0.0130 C   0  0  0  0  0  0  0  0  0  0  0  0
  -20.5140   -5.0230   -0.0240 C   0  0  0  0  0  0  0  0  0  0  0  0
  -20.4800   -4.6510   -1.4800 C   0  0  0  0  0  0  0  0  0  0  0  0
  -21.0140   -8.3370   -2.2570 O   0  0  0  0  0  0  0  0  0  0  0  0
  -16.7646    5.6843   35.2172 H   0  0  0  0  0  0  0  0  0  0  0  0
  -15.1074    5.0256   35.4322 H   0  0  0  0  0  0  0  0  0  0  0  0
  -16.2951    4.9253   36.7760 H   0  0  0  0  0  0  0  0  0  0  0  0
  -17.9037    4.4076   33.8646 H   0  0  0  0  0  0  0  0  0  0  0  0
  -17.9850    1.5088   34.4765 H   0  0  0  0  0  0  0  0  0  0  0  0
  -19.8323    1.4632   32.8230 H   0  0  0  0  0  0  0  0  0  0  0  0
  -19.5652    3.2108   32.5048 H   0  0  0  0  0  0  0  0  0  0  0  0
  -20.1436    3.6986   34.8880 H   0  0  0  0  0  0  0  0  0  0  0  0
  -22.5579    3.2298   34.6025 H   0  0  0  0  0  0  0  0  0  0  0  0
  -22.1720    2.0482   33.3058 H   0  0  0  0  0  0  0  0  0  0  0  0
  -21.8117    3.7918   33.0682 H   0  0  0  0  0  0  0  0  0  0  0  0
  -19.4949    1.5080   35.8433 H   0  0  0  0  0  0  0  0  0  0  0  0
  -20.8218    0.7125   34.9307 H   0  0  0  0  0  0  0  0  0  0  0  0
  -21.2064    1.8971   36.2252 H   0  0  0  0  0  0  0  0  0  0  0  0
  -15.4848    0.2251   31.0925 H   0  0  0  0  0  0  0  0  0  0  0  0
  -16.1119   -1.9400   30.3431 H   0  0  0  0  0  0  0  0  0  0  0  0
  -17.7985   -1.4332   29.9895 H   0  0  0  0  0  0  0  0  0  0  0  0
  -16.4983   -2.0024   32.6914 H   0  0  0  0  0  0  0  0  0  0  0  0
  -18.0413   -2.6410   32.0296 H   0  0  0  0  0  0  0  0  0  0  0  0
  -19.1523   -0.5777   32.3033 H   0  0  0  0  0  0  0  0  0  0  0  0
  -18.0639   -0.5831   33.7323 H   0  0  0  0  0  0  0  0  0  0  0  0
  -14.9723    0.9063   29.0803 H   0  0  0  0  0  0  0  0  0  0  0  0
  -16.8704    2.3151   27.3695 H   0  0  0  0  0  0  0  0  0  0  0  0
  -15.0354    2.4165   25.7862 H   0  0  0  0  0  0  0  0  0  0  0  0
  -14.1218    1.1778   26.7123 H   0  0  0  0  0  0  0  0  0  0  0  0
  -13.8101    2.7483   28.5392 H   0  0  0  0  0  0  0  0  0  0  0  0
  -12.2894    4.3234   27.3979 H   0  0  0  0  0  0  0  0  0  0  0  0
  -13.0350    3.8895   25.8224 H   0  0  0  0  0  0  0  0  0  0  0  0
  -12.1348    2.6508   26.7614 H   0  0  0  0  0  0  0  0  0  0  0  0
  -15.8681    4.0876   28.2533 H   0  0  0  0  0  0  0  0  0  0  0  0
  -15.1826    4.8019   26.7546 H   0  0  0  0  0  0  0  0  0  0  0  0
  -14.3939    5.1103   28.3387 H   0  0  0  0  0  0  0  0  0  0  0  0
  -18.0643    1.4914   25.7718 H   0  0  0  0  0  0  0  0  0  0  0  0
  -17.9312   -1.4149   25.2876 H   0  0  0  0  0  0  0  0  0  0  0  0
  -20.1582   -0.6411   25.6462 H   0  0  0  0  0  0  0  0  0  0  0  0
  -20.0154   -1.0238   23.8969 H   0  0  0  0  0  0  0  0  0  0  0  0
  -19.7157    0.8812   22.2540 H   0  0  0  0  0  0  0  0  0  0  0  0
  -20.6655    1.5641   26.3729 H   0  0  0  0  0  0  0  0  0  0  0  0
  -20.3696    3.1955   21.7160 H   0  0  0  0  0  0  0  0  0  0  0  0
  -21.3777    3.8610   25.8198 H   0  0  0  0  0  0  0  0  0  0  0  0
  -21.1440    5.0865   22.5000 H   0  0  0  0  0  0  0  0  0  0  0  0
  -16.3381    1.1543   23.9948 H   0  0  0  0  0  0  0  0  0  0  0  0
  -16.5533    0.4711   21.1595 H   0  0  0  0  0  0  0  0  0  0  0  0
  -14.5212    2.1282   21.0383 H   0  0  0  0  0  0  0  0  0  0  0  0
  -14.0269    1.9630   23.3133 H   0  0  0  0  0  0  0  0  0  0  0  0
  -16.0241    4.0909   21.3340 H   0  0  0  0  0  0  0  0  0  0  0  0
  -17.1949    3.0636   22.2285 H   0  0  0  0  0  0  0  0  0  0  0  0
  -16.8748    2.7540   20.4883 H   0  0  0  0  0  0  0  0  0  0  0  0
  -16.0008   -1.8933   21.6450 H   0  0  0  0  0  0  0  0  0  0  0  0
  -13.3354   -2.5475   22.4711 H   0  0  0  0  0  0  0  0  0  0  0  0
  -14.9101   -4.3098   22.6295 H   0  0  0  0  0  0  0  0  0  0  0  0
  -13.7707   -4.7837   21.3241 H   0  0  0  0  0  0  0  0  0  0  0  0
  -15.3410   -4.0159   19.8429 H   0  0  0  0  0  0  0  0  0  0  0  0
  -10.7883   -1.5584   19.0432 H   0  0  0  0  0  0  0  0  0  0  0  0
   -8.8184   -2.8688   19.2293 H   0  0  0  0  0  0  0  0  0  0  0  0
   -9.7356   -4.3888   19.5034 H   0  0  0  0  0  0  0  0  0  0  0  0
   -9.2764   -2.0541   21.4494 H   0  0  0  0  0  0  0  0  0  0  0  0
   -9.0526   -3.8125   21.7400 H   0  0  0  0  0  0  0  0  0  0  0  0
  -11.3793   -4.2150   21.8905 H   0  0  0  0  0  0  0  0  0  0  0  0
  -11.3483   -2.5223   22.4907 H   0  0  0  0  0  0  0  0  0  0  0  0
  -10.9449   -1.7093   16.8998 H   0  0  0  0  0  0  0  0  0  0  0  0
  -11.8968   -4.1581   15.6033 H   0  0  0  0  0  0  0  0  0  0  0  0
  -13.5450   -1.5704   15.5456 H   0  0  0  0  0  0  0  0  0  0  0  0
  -14.0128   -3.0906   16.3804 H   0  0  0  0  0  0  0  0  0  0  0  0
  -14.9245   -2.9078   14.2700 H   0  0  0  0  0  0  0  0  0  0  0  0
  -11.3256   -4.2229   13.5006 H   0  0  0  0  0  0  0  0  0  0  0  0
  -10.0678   -1.7587   12.3436 H   0  0  0  0  0  0  0  0  0  0  0  0
   -9.0866   -3.3213   10.6762 H   0  0  0  0  0  0  0  0  0  0  0  0
   -9.8243   -4.6907   11.5747 H   0  0  0  0  0  0  0  0  0  0  0  0
   -8.4750   -3.9223   13.5825 H   0  0  0  0  0  0  0  0  0  0  0  0
   -6.4210   -5.0279   12.7877 H   0  0  0  0  0  0  0  0  0  0  0  0
   -7.0034   -4.8772   11.0952 H   0  0  0  0  0  0  0  0  0  0  0  0
   -7.9054   -5.8957   12.2681 H   0  0  0  0  0  0  0  0  0  0  0  0
   -7.9661   -1.6254   12.7651 H   0  0  0  0  0  0  0  0  0  0  0  0
   -6.9659   -2.3228   11.4461 H   0  0  0  0  0  0  0  0  0  0  0  0
   -6.4732   -2.5433   13.1594 H   0  0  0  0  0  0  0  0  0  0  0  0
  -13.6640   -1.4818    9.9005 H   0  0  0  0  0  0  0  0  0  0  0  0
  -12.9657    0.7878    9.6477 H   0  0  0  0  0  0  0  0  0  0  0  0
  -12.8485    0.2522    7.9372 H   0  0  0  0  0  0  0  0  0  0  0  0
  -10.6771    1.2876    9.0514 H   0  0  0  0  0  0  0  0  0  0  0  0
  -10.4950   -0.2576    8.1536 H   0  0  0  0  0  0  0  0  0  0  0  0
   -9.5945   -0.8538   10.2755 H   0  0  0  0  0  0  0  0  0  0  0  0
  -10.7542    0.1918   11.1636 H   0  0  0  0  0  0  0  0  0  0  0  0
  -14.5973   -1.9095    7.8884 H   0  0  0  0  0  0  0  0  0  0  0  0
  -13.3919   -3.8922    6.1720 H   0  0  0  0  0  0  0  0  0  0  0  0
  -15.8525   -2.1165    5.8069 H   0  0  0  0  0  0  0  0  0  0  0  0
  -15.8269   -3.7328    6.5902 H   0  0  0  0  0  0  0  0  0  0  0  0
  -17.0072   -4.6769    3.3647 H   0  0  0  0  0  0  0  0  0  0  0  0
  -17.5081   -4.1387    4.9330 H   0  0  0  0  0  0  0  0  0  0  0  0
  -11.9562   -3.5321    4.6214 H   0  0  0  0  0  0  0  0  0  0  0  0
  -11.7716   -0.7493    3.6039 H   0  0  0  0  0  0  0  0  0  0  0  0
   -9.3517   -1.1942    3.1207 H   0  0  0  0  0  0  0  0  0  0  0  0
   -9.5481   -3.7032    3.1776 H   0  0  0  0  0  0  0  0  0  0  0  0
   -9.6989   -3.5891    4.9639 H   0  0  0  0  0  0  0  0  0  0  0  0
  -10.1573    0.0749    5.0815 H   0  0  0  0  0  0  0  0  0  0  0  0
   -8.6383   -0.8203    5.4248 H   0  0  0  0  0  0  0  0  0  0  0  0
  -10.2076   -1.4474    6.0337 H   0  0  0  0  0  0  0  0  0  0  0  0
   -7.3682   -4.1416    4.2927 H   0  0  0  0  0  0  0  0  0  0  0  0
   -7.4412   -2.5321    5.0869 H   0  0  0  0  0  0  0  0  0  0  0  0
   -7.2905   -2.6462    3.3006 H   0  0  0  0  0  0  0  0  0  0  0  0
  -13.2176   -3.2101    2.5061 H   0  0  0  0  0  0  0  0  0  0  0  0
  -11.7979   -3.8895    0.0864 H   0  0  0  0  0  0  0  0  0  0  0  0
  -13.7463   -5.2100   -0.5246 H   0  0  0  0  0  0  0  0  0  0  0  0
  -15.0950   -3.8353    1.5871 H   0  0  0  0  0  0  0  0  0  0  0  0
  -14.0765   -6.6170    1.4980 H   0  0  0  0  0  0  0  0  0  0  0  0
  -13.3542   -5.3251    2.5158 H   0  0  0  0  0  0  0  0  0  0  0  0
  -12.3502   -6.1676    1.2874 H   0  0  0  0  0  0  0  0  0  0  0  0
  -12.3745   -3.4860   -2.0510 H   0  0  0  0  0  0  0  0  0  0  0  0
  -14.1979   -1.1572   -2.5112 H   0  0  0  0  0  0  0  0  0  0  0  0
  -12.9610   -0.8100   -4.6179 H   0  0  0  0  0  0  0  0  0  0  0  0
  -11.8543   -2.1549   -4.1782 H   0  0  0  0  0  0  0  0  0  0  0  0
  -11.1273   -0.7984   -2.1975 H   0  0  0  0  0  0  0  0  0  0  0  0
   -9.6675    0.6769   -3.5432 H   0  0  0  0  0  0  0  0  0  0  0  0
  -10.7126    0.3851   -4.9747 H   0  0  0  0  0  0  0  0  0  0  0  0
   -9.8006   -0.9749   -4.2363 H   0  0  0  0  0  0  0  0  0  0  0  0
  -13.0928    0.7228   -2.0351 H   0  0  0  0  0  0  0  0  0  0  0  0
  -12.6272    1.4826   -3.5947 H   0  0  0  0  0  0  0  0  0  0  0  0
  -11.5489    1.6315   -2.1659 H   0  0  0  0  0  0  0  0  0  0  0  0
  -15.2003   -1.2865   -4.7505 H   0  0  0  0  0  0  0  0  0  0  0  0
  -15.7710   -3.9283   -5.8250 H   0  0  0  0  0  0  0  0  0  0  0  0
  -16.6183   -2.3965   -6.2279 H   0  0  0  0  0  0  0  0  0  0  0  0
  -18.2400   -4.4966   -6.0210 H   0  0  0  0  0  0  0  0  0  0  0  0
  -19.8475   -3.7813   -3.7100 H   0  0  0  0  0  0  0  0  0  0  0  0
  -21.4140   -5.5241   -4.5423 H   0  0  0  0  0  0  0  0  0  0  0  0
  -20.2102   -5.9703   -5.7987 H   0  0  0  0  0  0  0  0  0  0  0  0
  -20.3513   -3.6552   -6.6973 H   0  0  0  0  0  0  0  0  0  0  0  0
  -22.5657   -3.9250   -7.7422 H   0  0  0  0  0  0  0  0  0  0  0  0
  -22.9818   -5.1723   -6.5184 H   0  0  0  0  0  0  0  0  0  0  0  0
  -21.6466   -5.4671   -7.6833 H   0  0  0  0  0  0  0  0  0  0  0  0
  -21.0949   -2.5168   -4.6282 H   0  0  0  0  0  0  0  0  0  0  0  0
  -22.6850   -3.3432   -4.7517 H   0  0  0  0  0  0  0  0  0  0  0  0
  -22.1814   -2.1710   -6.0162 H   0  0  0  0  0  0  0  0  0  0  0  0
  -18.4252   -6.9017   -0.8207 H   0  0  0  0  0  0  0  0  0  0  0  0
  -20.0130   -6.8740    0.9437 H   0  0  0  0  0  0  0  0  0  0  0  0
  -21.4088   -6.9692   -0.1829 H   0  0  0  0  0  0  0  0  0  0  0  0
  -19.6623   -4.5770    0.5106 H   0  0  0  0  0  0  0  0  0  0  0  0
  -21.4538   -4.6891    0.4401 H   0  0  0  0  0  0  0  0  0  0  0  0
  -21.4938   -4.6357   -1.9066 H   0  0  0  0  0  0  0  0  0  0  0  0
  -20.0064   -3.6688   -1.6248 H   0  0  0  0  0  0  0  0  0  0  0  0
  1  2  2  0  0  0  0
  1  3  1  0  0  0  0
  1  4  1  0  0  0  0
  3131  1  0  0  0  0
  3132  1  0  0  0  0
  3133  1  0  0  0  0
  4  5  1  0  0  0  0
  4134  1  0  0  0  0
  5  6  1  0  0  0  0
  5  8  1  0  0  0  0
  5135  1  1  0  0  0
  6  7  2  0  0  0  0
  6 12  1  0  0  0  0
  8  9  1  0  0  0  0
  8136  1  0  0  0  0
  8137  1  0  0  0  0
  9 10  1  0  0  0  0
  9 11  1  0  0  0  0
  9138  1  0  0  0  0
 10139  1  0  0  0  0
 10140  1  0  0  0  0
 10141  1  0  0  0  0
 11142  1  0  0  0  0
 11143  1  0  0  0  0
 11144  1  0  0  0  0
 12 13  1  0  0  0  0
 12 18  1  0  0  0  0
 13 14  1  0  0  0  0
 13 16  1  0  0  0  0
 13145  1  1  0  0  0
 14 15  2  0  0  0  0
 14 19  1  0  0  0  0
 16 17  1  0  0  0  0
 16146  1  0  0  0  0
 16147  1  0  0  0  0
 17 18  1  0  0  0  0
 17148  1  0  0  0  0
 17149  1  0  0  0  0
 18150  1  0  0  0  0
 18151  1  0  0  0  0
 19 20  1  0  0  0  0
 19152  1  0  0  0  0
 20 21  1  0  0  0  0
 20 23  1  0  0  0  0
 20153  1  6  0  0  0
 21 22  2  0  0  0  0
 21 27  1  0  0  0  0
 23 24  1  0  0  0  0
 23154  1  0  0  0  0
 23155  1  0  0  0  0
 24 25  1  0  0  0  0
 24 26  1  0  0  0  0
 24156  1  0  0  0  0
 25157  1  0  0  0  0
 25158  1  0  0  0  0
 25159  1  0  0  0  0
 26160  1  0  0  0  0
 26161  1  0  0  0  0
 26162  1  0  0  0  0
 27 28  1  0  0  0  0
 27163  1  0  0  0  0
 28 29  1  0  0  0  0
 28 31  1  0  0  0  0
 28164  1  1  0  0  0
 29 30  2  0  0  0  0
 29 39  1  0  0  0  0
 31 32  1  0  0  0  0
 31165  1  0  0  0  0
 31166  1  0  0  0  0
 32 33  2  0  0  0  0
 32 34  1  0  0  0  0
 33 35  1  0  0  0  0
 33167  1  0  0  0  0
 34 36  2  0  0  0  0
 34168  1  0  0  0  0
 35 37  2  0  0  0  0
 35169  1  0  0  0  0
 36 37  1  0  0  0  0
 36170  1  0  0  0  0
 37 38  1  0  0  0  0
 38171  1  0  0  0  0
 39 40  1  0  0  0  0
 39172  1  0  0  0  0
 40 41  1  0  0  0  0
 40 43  1  0  0  0  0
 40173  1  6  0  0  0
 41 42  2  0  0  0  0
 41 46  1  0  0  0  0
 43 44  1  0  0  0  0
 43 45  1  0  0  0  0
 43174  1  6  0  0  0
 44175  1  0  0  0  0
 45176  1  0  0  0  0
 45177  1  0  0  0  0
 45178  1  0  0  0  0
 46 47  1  0  0  0  0
 46179  1  0  0  0  0
 47 48  1  0  0  0  0
 47 50  1  0  0  0  0
 47180  1  1  0  0  0
 48 49  2  0  0  0  0
 48 52  1  0  0  0  0
 50 51  1  0  0  0  0
 50181  1  0  0  0  0
 50182  1  0  0  0  0
 51183  1  0  0  0  0
 52 53  1  0  0  0  0
 52 58  1  0  0  0  0
 53 54  1  0  0  0  0
 53 56  1  0  0  0  0
 53184  1  6  0  0  0
 54 55  2  0  0  0  0
 54 59  1  0  0  0  0
 56 57  1  0  0  0  0
 56185  1  0  0  0  0
 56186  1  0  0  0  0
 57 58  1  0  0  0  0
 57187  1  0  0  0  0
 57188  1  0  0  0  0
 58189  1  0  0  0  0
 58190  1  0  0  0  0
 59 60  1  0  0  0  0
 59191  1  0  0  0  0
 60 61  1  0  0  0  0
 60 63  1  0  0  0  0
 60192  1  6  0  0  0
 61 62  2  0  0  0  0
 61 65  1  0  0  0  0
 63 64  1  0  0  0  0
 63193  1  0  0  0  0
 63194  1  0  0  0  0
 64195  1  0  0  0  0
 65 66  1  0  0  0  0
 65196  1  0  0  0  0
 66 67  1  0  0  0  0
 66 69  1  0  0  0  0
 66197  1  1  0  0  0
 67 68  2  0  0  0  0
 67 73  1  0  0  0  0
 69 70  1  0  0  0  0
 69198  1  0  0  0  0
 69199  1  0  0  0  0
 70 71  1  0  0  0  0
 70 72  1  0  0  0  0
 70200  1  0  0  0  0
 71201  1  0  0  0  0
 71202  1  0  0  0  0
 71203  1  0  0  0  0
 72204  1  0  0  0  0
 72205  1  0  0  0  0
 72206  1  0  0  0  0
 73 74  1  0  0  0  0
 73 79  1  0  0  0  0
 74 75  1  0  0  0  0
 74 77  1  0  0  0  0
 74207  1  1  0  0  0
 75 76  2  0  0  0  0
 75 80  1  0  0  0  0
 77 78  1  0  0  0  0
 77208  1  0  0  0  0
 77209  1  0  0  0  0
 78 79  1  0  0  0  0
 78210  1  0  0  0  0
 78211  1  0  0  0  0
 79212  1  0  0  0  0
 79213  1  0  0  0  0
 80 81  1  0  0  0  0
 80214  1  0  0  0  0
 81 82  1  0  0  0  0
 81 84  1  0  0  0  0
 81215  1  1  0  0  0
 82 83  2  0  0  0  0
 82 88  1  0  0  0  0
 84 85  1  0  0  0  0
 84216  1  0  0  0  0
 84217  1  0  0  0  0
 85 86  2  0  0  0  0
 85 87  1  0  0  0  0
 87218  1  0  0  0  0
 87219  1  0  0  0  0
 88 89  1  0  0  0  0
 88220  1  0  0  0  0
 89 90  1  0  0  0  0
 89 92  1  0  0  0  0
 89221  1  1  0  0  0
 90 91  2  0  0  0  0
 90 96  1  0  0  0  0
 92 93  1  0  0  0  0
 92 94  1  0  0  0  0
 92222  1  6  0  0  0
 93 95  1  0  0  0  0
 93223  1  0  0  0  0
 93224  1  0  0  0  0
 94225  1  0  0  0  0
 94226  1  0  0  0  0
 94227  1  0  0  0  0
 95228  1  0  0  0  0
 95229  1  0  0  0  0
 95230  1  0  0  0  0
 96 97  1  0  0  0  0
 96231  1  0  0  0  0
 97 98  1  0  0  0  0
 97100  1  0  0  0  0
 97232  1  6  0  0  0
 98 99  2  0  0  0  0
 98103  1  0  0  0  0
100101  1  0  0  0  0
100102  1  0  0  0  0
100233  1  6  0  0  0
101234  1  0  0  0  0
102235  1  0  0  0  0
102236  1  0  0  0  0
102237  1  0  0  0  0
103104  1  0  0  0  0
103238  1  0  0  0  0
104105  1  0  0  0  0
104107  1  0  0  0  0
104239  1  1  0  0  0
105106  2  0  0  0  0
105111  1  0  0  0  0
107108  1  0  0  0  0
107240  1  0  0  0  0
107241  1  0  0  0  0
108109  1  0  0  0  0
108110  1  0  0  0  0
108242  1  0  0  0  0
109243  1  0  0  0  0
109244  1  0  0  0  0
109245  1  0  0  0  0
110246  1  0  0  0  0
110247  1  0  0  0  0
110248  1  0  0  0  0
111112  1  0  0  0  0
111249  1  0  0  0  0
112113  1  0  0  0  0
112250  1  0  0  0  0
112251  1  0  0  0  0
113114  2  0  0  0  0
113115  1  0  0  0  0
115116  1  0  0  0  0
115252  1  0  0  0  0
116117  1  0  0  0  0
116119  1  0  0  0  0
116253  1  1  0  0  0
117118  2  0  0  0  0
117123  1  0  0  0  0
119120  1  0  0  0  0
119254  1  0  0  0  0
119255  1  0  0  0  0
120121  1  0  0  0  0
120122  1  0  0  0  0
120256  1  0  0  0  0
121257  1  0  0  0  0
121258  1  0  0  0  0
121259  1  0  0  0  0
122260  1  0  0  0  0
122261  1  0  0  0  0
122262  1  0  0  0  0
123124  1  0  0  0  0
123129  1  0  0  0  0
124125  1  0  0  0  0
124127  1  0  0  0  0
124263  1  1  0  0  0
125126  1  0  0  0  0
125130  2  0  0  0  0
127128  1  0  0  0  0
127264  1  0  0  0  0
127265  1  0  0  0  0
128129  1  0  0  0  0
128266  1  0  0  0  0
128267  1  0  0  0  0
129268  1  0  0  0  0
129269  1  0  0  0  0
M  CHG  1 126  -1
M  END
