3v49_ligand
 OpenBabel08222323353D

 44 46  0  0  1  0  0  0  0  0999 V2000
   28.8800   -0.1250    3.4150 N   0  0  0  0  0  0  0  0  0  0  0  0
   31.0210    0.8540    3.7490 C   0  0  0  0  0  0  0  0  0  0  0  0
   29.0160   -1.4320    2.7480 C   0  0  0  0  0  0  0  0  0  0  0  0
   29.7270    2.6550    5.3940 O   0  0  0  0  0  0  0  0  0  0  0  0
   29.2620    1.8410    4.6850 C   0  0  0  0  0  0  0  0  0  0  0  0
   26.9340    0.6940    2.3810 O   0  0  0  0  0  0  0  0  0  0  0  0
   27.8920    0.8500    3.0940 C   0  0  0  0  0  0  0  0  0  0  0  0
   29.7090    0.4640    4.4360 C   0  0  1  0  0  0  0  0  0  0  0  0
   29.7180   -0.2290    5.7660 C   0  0  0  0  0  0  0  0  0  0  0  0
   30.7980   -0.1350    6.6420 C   0  0  0  0  0  0  0  0  0  0  0  0
   30.7290   -0.8260    7.8520 C   0  0  0  0  0  0  0  0  0  0  0  0
   29.6280   -1.5550    8.2690 C   0  0  0  0  0  0  0  0  0  0  0  0
   28.5580   -1.6410    7.3670 C   0  0  0  0  0  0  0  0  0  0  0  0
   28.6120   -0.9800    6.1510 C   0  0  0  0  0  0  0  0  0  0  0  0
   29.6210   -2.2520    9.4890 O   0  0  0  0  0  0  0  0  0  0  0  0
   28.3030    2.0430    3.7420 N   0  0  0  0  0  0  0  0  0  0  0  0
   27.4050    3.1250    3.7130 C   0  0  0  0  0  0  0  0  0  0  0  0
   27.9180    4.4260    3.5800 C   0  0  0  0  0  0  0  0  0  0  0  0
   27.1080    5.5460    3.5580 C   0  0  0  0  0  0  0  0  0  0  0  0
   25.7240    5.3740    3.6490 C   0  0  0  0  0  0  0  0  0  0  0  0
   25.1930    4.1120    3.7780 C   0  0  0  0  0  0  0  0  0  0  0  0
   26.0170    2.9880    3.8080 C   0  0  0  0  0  0  0  0  0  0  0  0
   24.8800    6.6060    3.5210 C   0  0  0  0  0  0  0  0  0  0  0  0
   24.3950    7.7410    3.5160 N   0  0  0  0  0  0  0  0  0  0  0  0
   23.7290    3.9800    3.9090 C   0  0  0  0  0  0  0  0  0  0  0  0
   23.0130    4.6640    3.1690 F   0  0  0  0  0  0  0  0  0  0  0  0
   23.2030    4.2520    4.9990 F   0  0  0  0  0  0  0  0  0  0  0  0
   23.2040    2.8810    3.6770 F   0  0  0  0  0  0  0  0  0  0  0  0
   31.6982    1.3120    4.4850 H   0  0  0  0  0  0  0  0  0  0  0  0
   30.8134    1.5741    2.9439 H   0  0  0  0  0  0  0  0  0  0  0  0
   31.4939   -0.0440    3.3248 H   0  0  0  0  0  0  0  0  0  0  0  0
   28.2038   -1.5567    2.0167 H   0  0  0  0  0  0  0  0  0  0  0  0
   28.9599   -2.2343    3.4985 H   0  0  0  0  0  0  0  0  0  0  0  0
   29.9856   -1.4807    2.2309 H   0  0  0  0  0  0  0  0  0  0  0  0
   31.6687    0.4594    6.3898 H   0  0  0  0  0  0  0  0  0  0  0  0
   31.5918   -0.7900    8.5072 H   0  0  0  0  0  0  0  0  0  0  0  0
   27.6834   -2.2282    7.6228 H   0  0  0  0  0  0  0  0  0  0  0  0
   27.7653   -1.0501    5.4777 H   0  0  0  0  0  0  0  0  0  0  0  0
   28.8772   -1.9709   10.0088 H   0  0  0  0  0  0  0  0  0  0  0  0
   28.9904    4.5567    3.4912 H   0  0  0  0  0  0  0  0  0  0  0  0
   27.5376    6.5375    3.4719 H   0  0  0  0  0  0  0  0  0  0  0  0
   25.5787    2.0014    3.9056 H   0  0  0  0  0  0  0  0  0  0  0  0
   24.0074    6.1055    3.1038 H   0  0  0  0  0  0  0  0  0  0  0  0
   23.4569    7.8867    3.1773 H   0  0  0  0  0  0  0  0  0  0  0  0
  1  3  1  0  0  0  0
  1  7  1  0  0  0  0
  2 29  1  0  0  0  0
  2 30  1  0  0  0  0
  2 31  1  0  0  0  0
  3 32  1  0  0  0  0
  3 33  1  0  0  0  0
  3 34  1  0  0  0  0
  5  4  2  0  0  0  0
  5  8  1  0  0  0  0
  5 16  1  0  0  0  0
  7  6  2  0  0  0  0
  7 16  1  0  0  0  0
  8  1  1  0  0  0  0
  8  2  1  6  0  0  0
  8  9  1  0  0  0  0
  9 10  2  0  0  0  0
  9 14  1  0  0  0  0
 10 11  1  0  0  0  0
 10 35  1  0  0  0  0
 11 12  2  0  0  0  0
 11 36  1  0  0  0  0
 12 13  1  0  0  0  0
 12 15  1  0  0  0  0
 13 14  2  0  0  0  0
 13 37  1  0  0  0  0
 14 38  1  0  0  0  0
 15 39  1  0  0  0  0
 16 17  1  0  0  0  0
 17 18  2  0  0  0  0
 17 22  1  0  0  0  0
 18 19  1  0  0  0  0
 18 40  1  0  0  0  0
 19 20  2  0  0  0  0
 19 41  1  0  0  0  0
 20 21  1  0  0  0  0
 20 23  1  0  0  0  0
 21 22  2  0  0  0  0
 21 25  1  0  0  0  0
 22 42  1  0  0  0  0
 23 24  2  0  0  0  0
 23 43  1  0  0  0  0
 24 44  1  0  0  0  0
 25 26  1  0  0  0  0
 25 27  1  0  0  0  0
 25 28  1  0  0  0  0
M  END
