3v7d_ligand
 OpenBabel08222323353D

160161  0  0  1  0  0  0  0  0999 V2000
   28.5500   46.8350  -31.0490 N   0  3  0  0  0  0  0  0  0  0  0  0
   27.8930   46.3090  -29.8570 C   0  0  2  0  0  0  0  0  0  0  0  0
   26.3880   46.5620  -29.9140 C   0  0  0  0  0  0  0  0  0  0  0  0
   25.9500   47.7060  -30.0410 O   0  0  0  0  0  0  0  0  0  0  0  0
   28.4950   46.9360  -28.5970 C   0  0  0  0  0  0  0  0  0  0  0  0
   27.9270   46.3920  -27.3140 C   0  0  0  0  0  0  0  0  0  0  0  0
   27.8980   45.0270  -27.0770 C   0  0  0  0  0  0  0  0  0  0  0  0
   27.4410   47.2480  -26.3360 C   0  0  0  0  0  0  0  0  0  0  0  0
   27.3820   44.5230  -25.8950 C   0  0  0  0  0  0  0  0  0  0  0  0
   26.9270   46.7520  -25.1490 C   0  0  0  0  0  0  0  0  0  0  0  0
   26.8960   45.3880  -24.9300 C   0  0  0  0  0  0  0  0  0  0  0  0
   25.6050   45.4900  -29.8190 N   0  0  0  0  0  0  0  0  0  0  0  0
   24.1480   45.5820  -29.9200 C   0  0  2  0  0  0  0  0  0  0  0  0
   23.4380   45.7950  -28.5790 C   0  0  0  0  0  0  0  0  0  0  0  0
   22.2070   45.7870  -28.5110 O   0  0  0  0  0  0  0  0  0  0  0  0
   23.5750   44.3500  -30.6330 C   0  0  0  0  0  0  0  0  0  0  0  0
   23.9440   43.0440  -29.9420 C   0  0  0  0  0  0  0  0  0  0  0  0
   24.4100   43.0360  -28.8010 O   0  0  0  0  0  0  0  0  0  0  0  0
   23.7320   41.9310  -30.6350 N   0  0  0  0  0  0  0  0  0  0  0  0
   24.2210   45.9720  -27.5180 N   0  0  0  0  0  0  0  0  0  0  0  0
   23.6770   46.2570  -26.2010 C   0  0  0  0  0  0  0  0  0  0  0  0
   23.3750   45.0320  -25.3590 C   0  0  0  0  0  0  0  0  0  0  0  0
   23.1250   45.1420  -24.1570 O   0  0  0  0  0  0  0  0  0  0  0  0
   23.4010   43.8600  -25.9840 N   0  0  0  0  0  0  0  0  0  0  0  0
   23.0310   42.6280  -25.2990 C   0  0  2  0  0  0  0  0  0  0  0  0
   24.2210   41.6780  -25.1760 C   0  0  0  0  0  0  0  0  0  0  0  0
   24.6190   41.0400  -26.1520 O   0  0  0  0  0  0  0  0  0  0  0  0
   21.8840   41.9480  -26.0470 C   0  0  0  0  0  0  0  0  0  0  0  0
   20.7800   42.8950  -26.5290 C   0  0  0  0  0  0  0  0  0  0  0  0
   19.8230   42.1690  -27.4460 C   0  0  0  0  0  0  0  0  0  0  0  0
   20.0290   43.5210  -25.3570 C   0  0  0  0  0  0  0  0  0  0  0  0
   24.7920   41.5910  -23.9790 N   0  0  0  0  0  0  0  0  0  0  0  0
   25.9140   40.6920  -23.7390 C   0  0  2  0  0  0  0  0  0  0  0  0
   25.4540   39.2490  -23.9100 C   0  0  0  0  0  0  0  0  0  0  0  0
   24.3250   38.9050  -23.5600 O   0  0  0  0  0  0  0  0  0  0  0  0
   26.4930   40.8550  -22.3160 C   0  0  2  0  0  0  0  0  0  0  0  0
   26.5850   42.2440  -21.9760 O   0  0  0  0  0  0  0  0  0  0  0  0
   27.8750   40.2270  -22.2270 C   0  0  0  0  0  0  0  0  0  0  0  0
   26.3260   38.4100  -24.4560 N   0  0  0  0  0  0  0  0  0  0  0  0
   26.0200   36.9940  -24.6220 C   0  0  1  0  0  0  0  0  0  0  0  0
   25.7470   36.6760  -26.0950 C   0  0  0  0  0  0  0  0  0  0  0  0
   25.2630   35.3550  -26.2510 O   0  0  0  0  0  0  0  0  0  0  0  0
   27.1600   36.1300  -24.0980 C   0  0  0  0  0  0  0  0  0  0  0  0
   28.3290   36.5060  -24.1920 O   0  0  0  0  0  0  0  0  0  0  0  0
   23.7760   35.4290  -26.8590 P   0  0  0  0  0  0  0  0  0  0  0  0
   23.0400   36.7730  -26.3450 O   0  0  0  0  0  1  0  0  0  0  0  0
   23.8930   35.4440  -28.4640 O   0  0  0  0  0  1  0  0  0  0  0  0
   22.9580   34.1300  -26.3750 O   0  0  0  0  0  0  0  0  0  0  0  0
   26.8180   34.9750  -23.5170 N   0  0  0  0  0  0  0  0  0  0  0  0
   27.8350   33.9940  -23.1300 C   0  0  2  0  0  0  0  0  0  0  0  0
   28.6850   33.5950  -24.3230 C   0  0  0  0  0  0  0  0  0  0  0  0
   28.2350   33.7260  -25.4590 O   0  0  0  0  0  0  0  0  0  0  0  0
   27.0040   32.7870  -22.7040 C   0  0  0  0  0  0  0  0  0  0  0  0
   25.7030   33.3500  -22.2790 C   0  0  0  0  0  0  0  0  0  0  0  0
   25.4600   34.5500  -23.1370 C   0  0  0  0  0  0  0  0  0  0  0  0
   29.8950   33.1110  -24.0830 N   0  0  0  0  0  0  0  0  0  0  0  0
   30.7070   32.6280  -25.1900 C   0  0  2  0  0  0  0  0  0  0  0  0
   30.3710   31.1760  -25.5110 C   0  0  0  0  0  0  0  0  0  0  0  0
   29.7660   30.4770  -24.6990 O   0  0  0  0  0  0  0  0  0  0  0  0
   32.2000   32.8030  -24.9040 C   0  0  0  0  0  0  0  0  0  0  0  0
   32.6600   34.2550  -24.9410 C   0  0  0  0  0  0  0  0  0  0  0  0
   34.1680   34.3960  -24.9140 C   0  0  0  0  0  0  0  0  0  0  0  0
   34.8870   33.4570  -24.5700 O   0  0  0  0  0  0  0  0  0  0  0  0
   34.6570   35.5750  -25.2840 N   0  0  0  0  0  0  0  0  0  0  0  0
   30.7500   30.7430  -26.7080 N   0  0  0  0  0  0  0  0  0  0  0  0
   30.5210   29.3730  -27.1530 C   0  0  2  0  0  0  0  0  0  0  0  0
   31.1600   28.3620  -26.1990 C   0  0  0  0  0  0  0  0  0  0  0  0
   32.1970   28.6330  -25.5940 O   0  0  0  0  0  0  0  0  0  0  0  0
   31.0620   29.1970  -28.5760 C   0  0  0  0  0  0  0  0  0  0  0  0
   30.9050   27.8000  -29.1780 C   0  0  0  0  0  0  0  0  0  0  0  0
   29.4520   27.3280  -29.1700 C   0  0  0  0  0  0  0  0  0  0  0  0
   29.2850   26.0570  -29.8780 N   0  0  0  0  0  0  0  0  0  0  0  0
   29.5060   24.8600  -29.3400 C   0  0  0  0  0  3  0  0  0  0  0  0
   29.9050   24.7590  -28.0810 N   0  0  0  0  0  0  0  0  0  0  0  0
   29.3320   23.7600  -30.0620 N   0  0  0  0  0  0  0  0  0  0  0  0
   30.5180   27.2070  -26.0540 N   0  0  0  0  0  0  0  0  0  0  0  0
   31.0190   26.1300  -25.2090 C   0  0  1  0  0  0  0  0  0  0  0  0
   29.8690   25.1980  -24.8200 C   0  0  0  0  0  0  0  0  0  0  0  0
   28.8210   25.9080  -24.1820 O   0  0  0  0  0  0  0  0  0  0  0  0
   32.0980   25.3370  -25.9430 C   0  0  0  0  0  0  0  0  0  0  0  0
   33.1610   25.0400  -25.3940 O   0  5  0  0  0  0  0  0  0  0  0  0
   27.5780   26.0850  -25.1890 P   0  0  0  0  0  0  0  0  0  0  0  0
   27.7780   27.4340  -26.0440 O   0  0  0  0  0  1  0  0  0  0  0  0
   27.5060   24.8220  -26.1830 O   0  0  0  0  0  1  0  0  0  0  0  0
   26.2140   26.1860  -24.3440 O   0  0  0  0  0  0  0  0  0  0  0  0
   31.9420   24.9680  -27.1090 O   0  0  0  0  0  0  0  0  0  0  0  0
   29.5408   46.6583  -30.9921 H   0  0  0  0  0  0  0  0  0  0  0  0
   28.3888   47.8281  -31.1110 H   0  0  0  0  0  0  0  0  0  0  0  0
   28.1744   46.3819  -31.8673 H   0  0  0  0  0  0  0  0  0  0  0  0
   28.0606   45.2225  -29.8190 H   0  0  0  0  0  0  0  0  0  0  0  0
   28.3084   48.0196  -28.6263 H   0  0  0  0  0  0  0  0  0  0  0  0
   29.5792   46.7504  -28.6019 H   0  0  0  0  0  0  0  0  0  0  0  0
   28.2840   44.3453  -27.8262 H   0  0  0  0  0  0  0  0  0  0  0  0
   27.4638   48.3188  -26.5030 H   0  0  0  0  0  0  0  0  0  0  0  0
   27.3587   43.4525  -25.7257 H   0  0  0  0  0  0  0  0  0  0  0  0
   26.5501   47.4322  -24.3939 H   0  0  0  0  0  0  0  0  0  0  0  0
   26.4916   44.9960  -24.0038 H   0  0  0  0  0  0  0  0  0  0  0  0
   26.0252   44.5942  -29.6742 H   0  0  0  0  0  0  0  0  0  0  0  0
   23.9264   46.4609  -30.5433 H   0  0  0  0  0  0  0  0  0  0  0  0
   23.9648   44.3259  -31.6613 H   0  0  0  0  0  0  0  0  0  0  0  0
   22.4787   44.4367  -30.6584 H   0  0  0  0  0  0  0  0  0  0  0  0
   23.9546   41.0423  -30.2341 H   0  0  0  0  0  0  0  0  0  0  0  0
   23.3498   41.9817  -31.5577 H   0  0  0  0  0  0  0  0  0  0  0  0
   25.2126   45.9070  -27.6301 H   0  0  0  0  0  0  0  0  0  0  0  0
   22.7419   46.8214  -26.3317 H   0  0  0  0  0  0  0  0  0  0  0  0
   24.4055   46.8755  -25.6563 H   0  0  0  0  0  0  0  0  0  0  0  0
   23.6800   43.8224  -26.9436 H   0  0  0  0  0  0  0  0  0  0  0  0
   22.6873   42.8836  -24.2858 H   0  0  0  0  0  0  0  0  0  0  0  0
   21.4288   41.2063  -25.3742 H   0  0  0  0  0  0  0  0  0  0  0  0
   22.3040   41.4369  -26.9258 H   0  0  0  0  0  0  0  0  0  0  0  0
   21.2540   43.7064  -27.1007 H   0  0  0  0  0  0  0  0  0  0  0  0
   19.0386   42.8635  -27.7815 H   0  0  0  0  0  0  0  0  0  0  0  0
   19.3624   41.3294  -26.9049 H   0  0  0  0  0  0  0  0  0  0  0  0
   20.3713   41.7858  -28.3192 H   0  0  0  0  0  0  0  0  0  0  0  0
   20.7416   44.0439  -24.7022 H   0  0  0  0  0  0  0  0  0  0  0  0
   19.5172   42.7322  -24.7861 H   0  0  0  0  0  0  0  0  0  0  0  0
   19.2870   44.2381  -25.7380 H   0  0  0  0  0  0  0  0  0  0  0  0
   24.4451   42.1533  -23.2283 H   0  0  0  0  0  0  0  0  0  0  0  0
   26.7043   40.9123  -24.4717 H   0  0  0  0  0  0  0  0  0  0  0  0
   25.8244   40.3530  -21.6012 H   0  0  0  0  0  0  0  0  0  0  0  0
   26.9419   42.3315  -21.0999 H   0  0  0  0  0  0  0  0  0  0  0  0
   28.2700   40.3530  -21.2081 H   0  0  0  0  0  0  0  0  0  0  0  0
   28.5482   40.7188  -22.9446 H   0  0  0  0  0  0  0  0  0  0  0  0
   27.8066   39.1550  -22.4637 H   0  0  0  0  0  0  0  0  0  0  0  0
   27.2131   38.7571  -24.7604 H   0  0  0  0  0  0  0  0  0  0  0  0
   25.1143   36.7640  -24.0416 H   0  0  0  0  0  0  0  0  0  0  0  0
   26.6813   36.7857  -26.6652 H   0  0  0  0  0  0  0  0  0  0  0  0
   24.9966   37.3813  -26.4815 H   0  0  0  0  0  0  0  0  0  0  0  0
   28.4690   34.3691  -22.3131 H   0  0  0  0  0  0  0  0  0  0  0  0
   27.4882   32.2591  -21.8692 H   0  0  0  0  0  0  0  0  0  0  0  0
   26.8685   32.0936  -23.5471 H   0  0  0  0  0  0  0  0  0  0  0  0
   25.7432   33.6423  -21.2193 H   0  0  0  0  0  0  0  0  0  0  0  0
   24.9025   32.6098  -22.4252 H   0  0  0  0  0  0  0  0  0  0  0  0
   24.8667   34.2860  -24.0249 H   0  0  0  0  0  0  0  0  0  0  0  0
   24.9433   35.3400  -22.5723 H   0  0  0  0  0  0  0  0  0  0  0  0
   30.2477   33.0779  -23.1478 H   0  0  0  0  0  0  0  0  0  0  0  0
   30.4632   33.2336  -26.0753 H   0  0  0  0  0  0  0  0  0  0  0  0
   32.7675   32.2387  -25.6587 H   0  0  0  0  0  0  0  0  0  0  0  0
   32.4131   32.3957  -23.9047 H   0  0  0  0  0  0  0  0  0  0  0  0
   32.2429   34.7778  -24.0677 H   0  0  0  0  0  0  0  0  0  0  0  0
   32.2804   34.7202  -25.8627 H   0  0  0  0  0  0  0  0  0  0  0  0
   35.6452   35.7279  -25.2865 H   0  0  0  0  0  0  0  0  0  0  0  0
   34.0367   36.3093  -25.5599 H   0  0  0  0  0  0  0  0  0  0  0  0
   31.2094   31.3799  -27.3271 H   0  0  0  0  0  0  0  0  0  0  0  0
   29.4363   29.1906  -27.1679 H   0  0  0  0  0  0  0  0  0  0  0  0
   32.1347   29.4402  -28.5621 H   0  0  0  0  0  0  0  0  0  0  0  0
   30.5334   29.9074  -29.2286 H   0  0  0  0  0  0  0  0  0  0  0  0
   31.5106   27.0921  -28.5931 H   0  0  0  0  0  0  0  0  0  0  0  0
   31.2653   27.8195  -30.2171 H   0  0  0  0  0  0  0  0  0  0  0  0
   28.8278   28.0911  -29.6579 H   0  0  0  0  0  0  0  0  0  0  0  0
   29.1259   27.1994  -28.1274 H   0  0  0  0  0  0  0  0  0  0  0  0
   28.9752   26.0919  -30.8597 H   0  0  0  0  0  0  0  0  0  0  0  0
   30.0752   23.8311  -27.6676 H   0  0  0  0  0  0  0  0  0  0  0  0
   30.0451   25.6084  -27.5154 H   0  0  0  0  0  0  0  0  0  0  0  0
   29.0219   23.8307  -31.0417 H   0  0  0  0  0  0  0  0  0  0  0  0
   29.5071   22.8357  -29.6426 H   0  0  0  0  0  0  0  0  0  0  0  0
   29.6570   27.0716  -26.5442 H   0  0  0  0  0  0  0  0  0  0  0  0
   31.4534   26.5648  -24.2967 H   0  0  0  0  0  0  0  0  0  0  0  0
   30.2493   24.4277  -24.1330 H   0  0  0  0  0  0  0  0  0  0  0  0
   29.4750   24.7176  -25.7277 H   0  0  0  0  0  0  0  0  0  0  0  0
  1  2  1  0  0  0  0
  1 87  1  0  0  0  0
  1 88  1  0  0  0  0
  1 89  1  0  0  0  0
  2  3  1  0  0  0  0
  2  5  1  0  0  0  0
  2 90  1  1  0  0  0
  3  4  2  0  0  0  0
  3 12  1  0  0  0  0
  5  6  1  0  0  0  0
  5 91  1  0  0  0  0
  5 92  1  0  0  0  0
  6  7  2  0  0  0  0
  6  8  1  0  0  0  0
  7  9  1  0  0  0  0
  7 93  1  0  0  0  0
  8 10  2  0  0  0  0
  8 94  1  0  0  0  0
  9 11  2  0  0  0  0
  9 95  1  0  0  0  0
 10 11  1  0  0  0  0
 10 96  1  0  0  0  0
 11 97  1  0  0  0  0
 12 13  1  0  0  0  0
 12 98  1  0  0  0  0
 13 14  1  0  0  0  0
 13 16  1  0  0  0  0
 13 99  1  6  0  0  0
 14 15  2  0  0  0  0
 14 20  1  0  0  0  0
 16 17  1  0  0  0  0
 16100  1  0  0  0  0
 16101  1  0  0  0  0
 17 18  2  0  0  0  0
 17 19  1  0  0  0  0
 19102  1  0  0  0  0
 19103  1  0  0  0  0
 20 21  1  0  0  0  0
 20104  1  0  0  0  0
 21 22  1  0  0  0  0
 21105  1  0  0  0  0
 21106  1  0  0  0  0
 22 23  2  0  0  0  0
 22 24  1  0  0  0  0
 24 25  1  0  0  0  0
 24107  1  0  0  0  0
 25 26  1  0  0  0  0
 25 28  1  0  0  0  0
 25108  1  1  0  0  0
 26 27  2  0  0  0  0
 26 32  1  0  0  0  0
 28 29  1  0  0  0  0
 28109  1  0  0  0  0
 28110  1  0  0  0  0
 29 30  1  0  0  0  0
 29 31  1  0  0  0  0
 29111  1  0  0  0  0
 30112  1  0  0  0  0
 30113  1  0  0  0  0
 30114  1  0  0  0  0
 31115  1  0  0  0  0
 31116  1  0  0  0  0
 31117  1  0  0  0  0
 32 33  1  0  0  0  0
 32118  1  0  0  0  0
 33 34  1  0  0  0  0
 33 36  1  0  0  0  0
 33119  1  6  0  0  0
 34 35  2  0  0  0  0
 34 39  1  0  0  0  0
 36 37  1  0  0  0  0
 36 38  1  0  0  0  0
 36120  1  1  0  0  0
 37121  1  0  0  0  0
 38122  1  0  0  0  0
 38123  1  0  0  0  0
 38124  1  0  0  0  0
 39 40  1  0  0  0  0
 39125  1  0  0  0  0
 40 41  1  0  0  0  0
 40 43  1  0  0  0  0
 40126  1  1  0  0  0
 41 42  1  0  0  0  0
 41127  1  0  0  0  0
 41128  1  0  0  0  0
 42 45  1  0  0  0  0
 43 44  2  0  0  0  0
 43 49  1  0  0  0  0
 45 46  1  0  0  0  0
 45 47  1  0  0  0  0
 45 48  2  0  0  0  0
 49 50  1  0  0  0  0
 49 55  1  0  0  0  0
 50 51  1  0  0  0  0
 50 53  1  0  0  0  0
 50129  1  1  0  0  0
 51 52  2  0  0  0  0
 51 56  1  0  0  0  0
 53 54  1  0  0  0  0
 53130  1  0  0  0  0
 53131  1  0  0  0  0
 54 55  1  0  0  0  0
 54132  1  0  0  0  0
 54133  1  0  0  0  0
 55134  1  0  0  0  0
 55135  1  0  0  0  0
 56 57  1  0  0  0  0
 56136  1  0  0  0  0
 57 58  1  0  0  0  0
 57 60  1  0  0  0  0
 57137  1  6  0  0  0
 58 59  2  0  0  0  0
 58 65  1  0  0  0  0
 60 61  1  0  0  0  0
 60138  1  0  0  0  0
 60139  1  0  0  0  0
 61 62  1  0  0  0  0
 61140  1  0  0  0  0
 61141  1  0  0  0  0
 62 63  2  0  0  0  0
 62 64  1  0  0  0  0
 64142  1  0  0  0  0
 64143  1  0  0  0  0
 65 66  1  0  0  0  0
 65144  1  0  0  0  0
 66 67  1  0  0  0  0
 66 69  1  0  0  0  0
 66145  1  6  0  0  0
 67 68  2  0  0  0  0
 67 76  1  0  0  0  0
 69 70  1  0  0  0  0
 69146  1  0  0  0  0
 69147  1  0  0  0  0
 70 71  1  0  0  0  0
 70148  1  0  0  0  0
 70149  1  0  0  0  0
 71 72  1  0  0  0  0
 71150  1  0  0  0  0
 71151  1  0  0  0  0
 72 73  1  0  0  0  0
 72152  1  0  0  0  0
 73 74  1  0  0  0  0
 73 75  1  0  0  0  0
 74153  1  0  0  0  0
 74154  1  0  0  0  0
 75155  1  0  0  0  0
 75156  1  0  0  0  0
 76 77  1  0  0  0  0
 76157  1  0  0  0  0
 77 78  1  0  0  0  0
 77 80  1  0  0  0  0
 77158  1  1  0  0  0
 78 79  1  0  0  0  0
 78159  1  0  0  0  0
 78160  1  0  0  0  0
 79 82  1  0  0  0  0
 80 81  1  0  0  0  0
 80 86  2  0  0  0  0
 82 83  1  0  0  0  0
 82 84  1  0  0  0  0
 82 85  2  0  0  0  0
M  CHG  2   1   1  81  -1
M  END
