3v8s_ligand
 OpenBabel08222323353D

 37 39  0  0  0  0  0  0  0  0999 V2000
  -43.7130    0.2100   35.5230 C   0  0  0  0  0  0  0  0  0  0  0  0
  -46.4180    3.1460   30.6340 N   0  0  0  0  0  0  0  0  0  0  0  0
  -46.3030    3.1620   29.2010 C   0  0  0  0  0  0  0  0  0  0  0  0
  -45.5000    4.0420   27.0780 C   0  0  0  0  0  0  0  0  0  0  0  0
  -47.0350    2.1300   27.1010 C   0  0  0  0  0  0  0  0  0  0  0  0
  -47.0610    2.1930   28.4960 C   0  0  0  0  0  0  0  0  0  0  0  0
  -44.5190    4.3300   31.3050 O   0  0  0  0  0  0  0  0  0  0  0  0
  -45.5500    3.7450   31.5960 C   0  0  0  0  0  0  0  0  0  0  0  0
  -45.8990    3.6130   32.9650 N   0  0  0  0  0  0  0  0  0  0  0  0
  -45.0380    4.1810   33.9540 C   0  0  0  0  0  0  0  0  0  0  0  0
  -45.1920    3.6770   35.3450 C   0  0  0  0  0  0  0  0  0  0  0  0
  -45.0400    2.2120   35.5930 C   0  0  0  0  0  0  0  0  0  0  0  0
  -46.0920    1.4910   36.1420 C   0  0  0  0  0  0  0  0  0  0  0  0
  -45.9540    0.1280   36.3790 C   0  0  0  0  0  0  0  0  0  0  0  0
  -44.7630   -0.5140   36.0710 C   0  0  0  0  0  0  0  0  0  0  0  0
  -43.8470    1.5700   35.2820 C   0  0  0  0  0  0  0  0  0  0  0  0
  -45.5270    4.1080   28.4900 C   0  0  0  0  0  0  0  0  0  0  0  0
  -46.2530    3.0700   26.3880 C   0  0  0  0  0  0  0  0  0  0  0  0
  -46.0510    3.2760   25.0540 N   0  0  0  0  0  0  0  0  0  0  0  0
  -45.2200    4.2860   24.8570 N   0  0  0  0  0  0  0  0  0  0  0  0
  -44.8350    4.8030   26.0210 C   0  0  0  0  0  0  0  0  0  0  0  0
  -42.7822   -0.2904   35.2817 H   0  0  0  0  0  0  0  0  0  0  0  0
  -47.2056    2.6529   31.0035 H   0  0  0  0  0  0  0  0  0  0  0  0
  -47.6044    1.3736   26.5730 H   0  0  0  0  0  0  0  0  0  0  0  0
  -47.6714    1.4887   29.0495 H   0  0  0  0  0  0  0  0  0  0  0  0
  -46.7331    3.1308   33.2331 H   0  0  0  0  0  0  0  0  0  0  0  0
  -45.2201    5.2657   33.9708 H   0  0  0  0  0  0  0  0  0  0  0  0
  -44.0007    3.9881   33.6429 H   0  0  0  0  0  0  0  0  0  0  0  0
  -46.1994    3.9608   35.6836 H   0  0  0  0  0  0  0  0  0  0  0  0
  -44.4396    4.1905   35.9616 H   0  0  0  0  0  0  0  0  0  0  0  0
  -47.0221    1.9915   36.3861 H   0  0  0  0  0  0  0  0  0  0  0  0
  -46.7776   -0.4337   36.8048 H   0  0  0  0  0  0  0  0  0  0  0  0
  -44.6530   -1.5762   36.2575 H   0  0  0  0  0  0  0  0  0  0  0  0
  -43.0240    2.1299   34.8526 H   0  0  0  0  0  0  0  0  0  0  0  0
  -44.9639    4.8690   29.0181 H   0  0  0  0  0  0  0  0  0  0  0  0
  -44.9143    4.6243   23.9334 H   0  0  0  0  0  0  0  0  0  0  0  0
  -44.1509    5.6387   26.1608 H   0  0  0  0  0  0  0  0  0  0  0  0
  1 15  2  0  0  0  0
  1 22  1  0  0  0  0
  2  3  1  0  0  0  0
  2 23  1  0  0  0  0
  3  6  1  0  0  0  0
  3 17  2  0  0  0  0
  4 18  1  0  0  0  0
  4 21  2  0  0  0  0
  5 18  1  0  0  0  0
  5 24  1  0  0  0  0
  6  5  2  0  0  0  0
  6 25  1  0  0  0  0
  8  2  1  0  0  0  0
  8  7  2  0  0  0  0
  9  8  1  0  0  0  0
  9 26  1  0  0  0  0
 10  9  1  0  0  0  0
 10 27  1  0  0  0  0
 10 28  1  0  0  0  0
 11 10  1  0  0  0  0
 11 29  1  0  0  0  0
 11 30  1  0  0  0  0
 12 11  1  0  0  0  0
 12 13  1  0  0  0  0
 12 16  2  0  0  0  0
 13 14  2  0  0  0  0
 13 31  1  0  0  0  0
 14 15  1  0  0  0  0
 14 32  1  0  0  0  0
 15 33  1  0  0  0  0
 16  1  1  0  0  0  0
 16 34  1  0  0  0  0
 17  4  1  0  0  0  0
 17 35  1  0  0  0  0
 18 19  2  0  0  0  0
 19 20  1  0  0  0  0
 20 21  1  0  0  0  0
 20 36  1  0  0  0  0
 21 37  1  0  0  0  0
M  END
