3v9b_ligand
 OpenBabel08222323353D

 67 71  0  0  1  0  0  0  0  0999 V2000
   22.0370   -4.2780   32.7590 C   0  0  0  0  0  0  0  0  0  0  0  0
   21.7330   -3.0170   32.0400 C   0  0  0  0  0  0  0  0  0  0  0  0
   21.4470   -3.0270   30.6450 C   0  0  0  0  0  0  0  0  0  0  0  0
   21.4500   -4.2800   29.9280 C   0  0  0  0  0  0  0  0  0  0  0  0
   21.7360   -5.5000   30.6160 C   0  0  0  0  0  0  0  0  0  0  0  0
   22.0280   -5.5250   32.0140 C   0  0  0  0  0  0  0  0  0  0  0  0
   22.3520   -4.3750   34.1410 O   0  0  0  0  0  0  0  0  0  0  0  0
   22.4370   -3.2780   35.0400 C   0  0  0  0  0  0  0  0  0  0  0  0
   21.2610   -2.5950   35.1890 F   0  0  0  0  0  0  0  0  0  0  0  0
   23.4030   -2.4000   34.5850 F   0  0  0  0  0  0  0  0  0  0  0  0
   22.3230   -6.6530   32.7530 O   0  0  0  0  0  0  0  0  0  0  0  0
   22.9330   -7.7620   32.0400 C   0  0  0  0  0  0  0  0  0  0  0  0
   23.1440   -8.8430   33.0390 C   0  0  0  0  0  0  0  0  0  0  0  0
   21.8400   -9.4940   33.4440 C   0  0  0  0  0  0  0  0  0  0  0  0
   23.0720  -10.2930   33.0350 C   0  0  0  0  0  0  0  0  0  0  0  0
   21.1720   -4.3070   28.4470 C   0  0  1  0  0  0  0  0  0  0  0  0
   19.0310   -4.2710   22.5600 O   0  0  0  0  0  0  0  0  0  0  0  0
   22.9210   -5.6760   27.1440 C   0  0  0  0  0  0  0  0  0  0  0  0
   22.9780   -6.9990   26.6710 C   0  0  0  0  0  0  0  0  0  0  0  0
   21.7090   -7.5970   27.0760 C   0  0  0  0  0  0  0  0  0  0  0  0
   20.9700   -6.6710   27.7470 N   0  0  0  0  0  0  0  0  0  0  0  0
   21.6750   -5.5350   27.7910 N   0  0  0  0  0  0  0  0  0  0  0  0
   21.2320   -8.9660   26.8300 C   0  0  0  0  0  0  0  0  0  0  0  0
   19.9250   -9.3210   27.3240 C   0  0  0  0  0  0  0  0  0  0  0  0
   19.3710  -10.6550   27.1110 C   0  0  0  0  0  0  0  0  0  0  0  0
   20.1710  -11.6430   26.3800 C   0  0  0  0  0  0  0  0  0  0  0  0
   21.4890  -11.2840   25.8860 C   0  0  0  0  0  0  0  0  0  0  0  0
   22.0260   -9.9540   26.1020 C   0  0  0  0  0  0  0  0  0  0  0  0
   18.0770  -10.9240   27.6210 N   0  0  0  0  0  0  0  0  0  0  0  0
   16.8890  -10.1890   27.4710 C   0  0  0  0  0  0  0  0  0  0  0  0
   16.8000   -9.1150   26.8220 O   0  0  0  0  0  0  0  0  0  0  0  0
   19.6310   -4.0670   28.1340 C   0  0  0  0  0  0  0  0  0  0  0  0
   15.6810  -10.7780   28.1600 C   0  0  0  0  0  0  0  0  0  0  0  0
   19.4630   -4.1050   26.6450 C   0  0  0  0  0  0  0  0  0  0  0  0
   20.0870   -3.1000   25.7970 C   0  0  0  0  0  0  0  0  0  0  0  0
   19.9260   -3.1690   24.3920 C   0  0  0  0  0  0  0  0  0  0  0  0
   19.1570   -4.2170   23.7870 N   0  0  0  0  0  0  0  0  0  0  0  0
   18.5390   -5.2070   24.6280 C   0  0  0  0  0  0  0  0  0  0  0  0
   18.6840   -5.1590   26.0370 C   0  0  0  0  0  0  0  0  0  0  0  0
   21.7285   -2.0782   32.5819 H   0  0  0  0  0  0  0  0  0  0  0  0
   21.2287   -2.1009   30.1255 H   0  0  0  0  0  0  0  0  0  0  0  0
   21.7311   -6.4315   30.0617 H   0  0  0  0  0  0  0  0  0  0  0  0
   22.7363   -3.6651   36.0251 H   0  0  0  0  0  0  0  0  0  0  0  0
   23.8955   -7.4518   31.6072 H   0  0  0  0  0  0  0  0  0  0  0  0
   22.2658   -8.1110   31.2381 H   0  0  0  0  0  0  0  0  0  0  0  0
   23.8339   -8.4368   33.7933 H   0  0  0  0  0  0  0  0  0  0  0  0
   20.9626   -9.4442   32.7825 H   0  0  0  0  0  0  0  0  0  0  0  0
   21.5098   -9.4761   34.4931 H   0  0  0  0  0  0  0  0  0  0  0  0
   23.6252  -10.8703   33.7904 H   0  0  0  0  0  0  0  0  0  0  0  0
   23.0780  -10.8384   32.0798 H   0  0  0  0  0  0  0  0  0  0  0  0
   21.7239   -3.4637   28.0062 H   0  0  0  0  0  0  0  0  0  0  0  0
   23.6877   -4.9107   27.0328 H   0  0  0  0  0  0  0  0  0  0  0  0
   23.7905   -7.4736   26.1228 H   0  0  0  0  0  0  0  0  0  0  0  0
   19.3424   -8.5834   27.8639 H   0  0  0  0  0  0  0  0  0  0  0  0
   19.7796  -12.6392   26.2086 H   0  0  0  0  0  0  0  0  0  0  0  0
   22.0783  -12.0188   25.3495 H   0  0  0  0  0  0  0  0  0  0  0  0
   23.0091   -9.6946   25.7262 H   0  0  0  0  0  0  0  0  0  0  0  0
   17.9976  -11.7580   28.1670 H   0  0  0  0  0  0  0  0  0  0  0  0
   19.3169   -3.0870   28.5225 H   0  0  0  0  0  0  0  0  0  0  0  0
   19.0253   -4.8578   28.6006 H   0  0  0  0  0  0  0  0  0  0  0  0
   14.8076  -10.1329   27.9838 H   0  0  0  0  0  0  0  0  0  0  0  0
   15.8731  -10.8479   29.2408 H   0  0  0  0  0  0  0  0  0  0  0  0
   15.4824  -11.7821   27.7572 H   0  0  0  0  0  0  0  0  0  0  0  0
   20.6725   -2.3021   26.2392 H   0  0  0  0  0  0  0  0  0  0  0  0
   20.3913   -2.4179   23.7640 H   0  0  0  0  0  0  0  0  0  0  0  0
   17.9542   -6.0009   24.1777 H   0  0  0  0  0  0  0  0  0  0  0  0
   18.2113   -5.9118   26.6574 H   0  0  0  0  0  0  0  0  0  0  0  0
  1  7  1  0  0  0  0
  2  1  2  0  0  0  0
  2 40  1  0  0  0  0
  3  2  1  0  0  0  0
  3 41  1  0  0  0  0
  4  3  2  0  0  0  0
  4  5  1  0  0  0  0
  5  6  2  0  0  0  0
  5 42  1  0  0  0  0
  6  1  1  0  0  0  0
  6 11  1  0  0  0  0
  7  8  1  0  0  0  0
  8  9  1  0  0  0  0
  8 10  1  0  0  0  0
  8 43  1  0  0  0  0
 11 12  1  0  0  0  0
 12 13  1  0  0  0  0
 12 44  1  0  0  0  0
 12 45  1  0  0  0  0
 13 14  1  0  0  0  0
 13 15  1  0  0  0  0
 13 46  1  0  0  0  0
 14 47  1  0  0  0  0
 14 48  1  0  0  0  0
 15 14  1  0  0  0  0
 15 49  1  0  0  0  0
 15 50  1  0  0  0  0
 16  4  1  0  0  0  0
 16 22  1  0  0  0  0
 16 51  1  6  0  0  0
 18 19  2  0  0  0  0
 18 52  1  0  0  0  0
 19 53  1  0  0  0  0
 20 19  1  0  0  0  0
 20 23  1  0  0  0  0
 21 20  2  0  0  0  0
 22 18  1  0  0  0  0
 22 21  1  0  0  0  0
 23 24  2  0  0  0  0
 23 28  1  0  0  0  0
 24 25  1  0  0  0  0
 24 54  1  0  0  0  0
 25 26  2  0  0  0  0
 25 29  1  0  0  0  0
 26 55  1  0  0  0  0
 27 26  1  0  0  0  0
 27 56  1  0  0  0  0
 28 27  2  0  0  0  0
 28 57  1  0  0  0  0
 29 30  1  0  0  0  0
 29 58  1  0  0  0  0
 30 31  2  0  0  0  0
 30 33  1  0  0  0  0
 32 16  1  0  0  0  0
 32 59  1  0  0  0  0
 32 60  1  0  0  0  0
 33 61  1  0  0  0  0
 33 62  1  0  0  0  0
 33 63  1  0  0  0  0
 34 32  1  0  0  0  0
 34 39  1  0  0  0  0
 35 34  2  0  0  0  0
 35 64  1  0  0  0  0
 36 35  1  0  0  0  0
 36 37  2  0  0  0  0
 36 65  1  0  0  0  0
 37 17  2  0  0  0  0
 37 38  1  0  0  0  0
 38 39  2  0  0  0  0
 38 66  1  0  0  0  0
 39 67  1  0  0  0  0
M  END
