3vbq_ligand
 OpenBabel08222323353D

 50 53  0  0  1  0  0  0  0  0999 V2000
  -23.7340  -36.8950    2.6490 C   0  0  0  0  0  0  0  0  0  0  0  0
  -23.3650  -34.4490    2.5990 C   0  0  0  0  0  0  0  0  0  0  0  0
  -22.6470  -32.1290    2.8120 C   0  0  0  0  0  0  0  0  0  0  0  0
  -21.4800  -31.3880    1.0980 C   0  0  0  0  0  0  0  0  0  0  0  0
  -22.4730  -33.5340   -3.4880 C   0  0  1  0  0  0  0  0  0  0  0  0
  -21.2850  -32.7990   -4.1430 C   0  0  0  0  0  0  0  0  0  0  0  0
  -22.4380  -30.6290   -3.2610 C   0  0  2  0  0  0  0  0  0  0  0  0
  -23.7140  -32.6230   -3.5420 C   0  0  0  0  0  0  0  0  0  0  0  0
  -23.2080  -31.9970    3.9200 O   0  0  0  0  0  0  0  0  0  0  0  0
  -22.0150  -31.0440    2.2900 N   0  0  0  0  0  0  0  0  0  0  0  0
  -20.8640  -30.6360    0.3570 O   0  0  0  0  0  0  0  0  0  0  0  0
  -21.8560  -33.0740    0.6120 S   0  0  0  0  0  0  0  0  0  0  0  0
  -22.6580  -33.3370    2.0960 C   0  0  0  0  0  0  0  0  0  0  0  0
  -23.4990  -35.7170    1.8790 C   0  0  0  0  0  0  0  0  0  0  0  0
  -23.4200  -35.7650    0.4940 C   0  0  0  0  0  0  0  0  0  0  0  0
  -23.9150  -38.0910    1.9400 C   0  0  0  0  0  0  0  0  0  0  0  0
  -23.8370  -38.1350    0.5240 C   0  0  0  0  0  0  0  0  0  0  0  0
  -23.5760  -36.9990   -0.2370 C   0  0  0  0  0  0  0  0  0  0  0  0
  -23.5750  -36.9990   -1.6770 C   0  0  0  0  0  0  0  0  0  0  0  0
  -23.2190  -35.8760   -2.3550 N   0  0  0  0  0  0  0  0  0  0  0  0
  -23.8960  -38.1150   -2.4630 C   0  0  0  0  0  0  0  0  0  0  0  0
  -23.8870  -38.0650   -3.8300 N   0  0  0  0  0  0  0  0  0  0  0  0
  -23.5090  -36.9050   -4.5460 C   0  0  0  0  0  0  0  0  0  0  0  0
  -23.1810  -35.8300   -3.7130 C   0  0  0  0  0  0  0  0  0  0  0  0
  -22.8310  -34.7090   -4.2780 N   0  0  0  0  0  0  0  0  0  0  0  0
  -21.1210  -31.4780   -3.3340 C   0  0  0  0  0  0  0  0  0  0  0  0
  -22.3060  -29.3900   -2.4670 N   0  3  0  0  0  0  0  0  0  0  0  0
  -23.3730  -31.4830   -2.5650 C   0  0  0  0  0  0  0  0  0  0  0  0
  -23.7709  -36.8666    3.7320 H   0  0  0  0  0  0  0  0  0  0  0  0
  -23.8370  -34.3597    3.5763 H   0  0  0  0  0  0  0  0  0  0  0  0
  -22.2261  -33.8130   -2.4530 H   0  0  0  0  0  0  0  0  0  0  0  0
  -21.5026  -32.5795   -5.1987 H   0  0  0  0  0  0  0  0  0  0  0  0
  -20.3712  -33.4076   -4.0758 H   0  0  0  0  0  0  0  0  0  0  0  0
  -22.7894  -30.3840   -4.2741 H   0  0  0  0  0  0  0  0  0  0  0  0
  -24.6131  -33.1651   -3.2137 H   0  0  0  0  0  0  0  0  0  0  0  0
  -23.8712  -32.2341   -4.5589 H   0  0  0  0  0  0  0  0  0  0  0  0
  -21.9560  -30.1418    2.7172 H   0  0  0  0  0  0  0  0  0  0  0  0
  -23.2357  -34.8483   -0.0545 H   0  0  0  0  0  0  0  0  0  0  0  0
  -24.1195  -39.0043    2.4870 H   0  0  0  0  0  0  0  0  0  0  0  0
  -23.9853  -39.0827    0.0191 H   0  0  0  0  0  0  0  0  0  0  0  0
  -24.1592  -39.0452   -1.9727 H   0  0  0  0  0  0  0  0  0  0  0  0
  -23.4768  -36.8543   -5.6283 H   0  0  0  0  0  0  0  0  0  0  0  0
  -22.8063  -34.6503   -5.3060 H   0  0  0  0  0  0  0  0  0  0  0  0
  -20.3394  -30.8698   -3.8128 H   0  0  0  0  0  0  0  0  0  0  0  0
  -20.8118  -31.7319   -2.3093 H   0  0  0  0  0  0  0  0  0  0  0  0
  -23.1857  -28.8978   -2.4636 H   0  0  0  0  0  0  0  0  0  0  0  0
  -21.5946  -28.8038   -2.8748 H   0  0  0  0  0  0  0  0  0  0  0  0
  -22.0478  -29.6231   -1.5209 H   0  0  0  0  0  0  0  0  0  0  0  0
  -24.2811  -30.9209   -2.3015 H   0  0  0  0  0  0  0  0  0  0  0  0
  -22.9139  -31.8875   -1.6509 H   0  0  0  0  0  0  0  0  0  0  0  0
  1 29  1  0  0  0  0
  2 13  2  0  0  0  0
  2 30  1  0  0  0  0
  3  9  2  0  0  0  0
  3 10  1  0  0  0  0
  4 10  1  0  0  0  0
  4 11  2  0  0  0  0
  5  6  1  0  0  0  0
  5  8  1  0  0  0  0
  5 31  1  1  0  0  0
  6 26  1  0  0  0  0
  6 32  1  0  0  0  0
  6 33  1  0  0  0  0
  7 27  1  0  0  0  0
  7 34  1  6  0  0  0
  8 28  1  0  0  0  0
  8 35  1  0  0  0  0
  8 36  1  0  0  0  0
 10 37  1  0  0  0  0
 12  4  1  0  0  0  0
 13  3  1  0  0  0  0
 13 12  1  0  0  0  0
 14  1  2  0  0  0  0
 14  2  1  0  0  0  0
 15 14  1  0  0  0  0
 15 38  1  0  0  0  0
 16  1  1  0  0  0  0
 16 39  1  0  0  0  0
 17 16  2  0  0  0  0
 17 40  1  0  0  0  0
 18 15  2  0  0  0  0
 18 17  1  0  0  0  0
 19 18  1  0  0  0  0
 19 21  1  0  0  0  0
 20 19  2  0  0  0  0
 21 41  1  0  0  0  0
 22 21  2  0  0  0  0
 23 22  1  0  0  0  0
 23 42  1  0  0  0  0
 24 20  1  0  0  0  0
 24 23  2  0  0  0  0
 24 25  1  0  0  0  0
 25  5  1  0  0  0  0
 25 43  1  0  0  0  0
 26  7  1  0  0  0  0
 26 44  1  0  0  0  0
 26 45  1  0  0  0  0
 27 46  1  0  0  0  0
 27 47  1  0  0  0  0
 27 48  1  0  0  0  0
 28  7  1  0  0  0  0
 28 49  1  0  0  0  0
 28 50  1  0  0  0  0
M  CHG  1  27   1
M  END
