3vbv_ligand
 OpenBabel08222323353D

 22 23  0  0  0  0  0  0  0  0999 V2000
   22.9780   34.2020    3.2010 C   0  0  0  0  0  0  0  0  0  0  0  0
   23.1880   35.5360    2.7380 C   0  0  0  0  0  0  0  0  0  0  0  0
   22.9520   35.8130    1.3880 C   0  0  0  0  0  0  0  0  0  0  0  0
   23.2350   37.1210    0.9450 C   0  0  0  0  0  0  0  0  0  0  0  0
   23.0140   37.4260   -0.4040 C   0  0  0  0  0  0  0  0  0  0  0  0
   22.5770   36.4410   -1.3450 C   0  0  0  0  0  0  0  0  0  0  0  0
   22.3240   35.1640   -0.8460 C   0  0  0  0  0  0  0  0  0  0  0  0
   21.8780   34.2070   -1.7450 O   0  0  0  0  0  0  0  0  0  0  0  0
   22.5210   34.8030    0.5250 C   0  0  0  0  0  0  0  0  0  0  0  0
   22.2800   33.5110    1.0240 N   0  0  0  0  0  0  0  0  0  0  0  0
   22.4810   33.1810    2.3390 C   0  0  0  0  0  0  0  0  0  0  0  0
   22.3070   31.8460    2.7830 C   0  0  0  0  0  0  0  0  0  0  0  0
   21.7370   31.1420    1.9420 O   0  0  0  0  0  0  0  0  0  0  0  0
   23.0390   31.3140    3.9720 N   0  0  0  0  0  0  0  0  0  0  0  0
   23.2020   33.9594    4.2335 H   0  0  0  0  0  0  0  0  0  0  0  0
   23.5217   36.3138    3.4153 H   0  0  0  0  0  0  0  0  0  0  0  0
   23.6136   37.8708    1.6302 H   0  0  0  0  0  0  0  0  0  0  0  0
   23.1794   38.4412   -0.7461 H   0  0  0  0  0  0  0  0  0  0  0  0
   22.4488   36.6762   -2.3954 H   0  0  0  0  0  0  0  0  0  0  0  0
   21.7422   33.3847   -1.2890 H   0  0  0  0  0  0  0  0  0  0  0  0
   22.8978   30.3681    4.2640 H   0  0  0  0  0  0  0  0  0  0  0  0
   23.6701   31.9039    4.4758 H   0  0  0  0  0  0  0  0  0  0  0  0
  1  2  2  0  0  0  0
  1 11  1  0  0  0  0
  1 15  1  0  0  0  0
  2  3  1  0  0  0  0
  2 16  1  0  0  0  0
  3  4  2  0  0  0  0
  3  9  1  0  0  0  0
  4  5  1  0  0  0  0
  4 17  1  0  0  0  0
  5  6  2  0  0  0  0
  5 18  1  0  0  0  0
  6  7  1  0  0  0  0
  6 19  1  0  0  0  0
  7  8  1  0  0  0  0
  7  9  2  0  0  0  0
  8 20  1  0  0  0  0
  9 10  1  0  0  0  0
 10 11  2  0  0  0  0
 11 12  1  0  0  0  0
 12 13  2  0  0  0  0
 12 14  1  0  0  0  0
 14 21  1  0  0  0  0
 14 22  1  0  0  0  0
M  END
