3vby_ligand
 OpenBabel08222323353D

 25 27  0  0  0  0  0  0  0  0999 V2000
   23.3150   37.4160   -0.4510 C   0  0  0  0  0  0  0  0  0  0  0  0
   23.7980   38.0080    0.7360 C   0  0  0  0  0  0  0  0  0  0  0  0
   23.7920   37.2510    1.9390 C   0  0  0  0  0  0  0  0  0  0  0  0
   23.3160   35.9400    1.8280 C   0  0  0  0  0  0  0  0  0  0  0  0
   22.9110   35.3980    0.6860 C   0  0  0  0  0  0  0  0  0  0  0  0
   22.8760   36.1430   -0.4620 C   0  0  0  0  0  0  0  0  0  0  0  0
   22.4340   35.3380   -1.4750 N   0  0  0  0  0  0  0  0  0  0  0  0
   22.1260   34.1030   -0.9470 C   0  0  0  0  0  0  0  0  0  0  0  0
   22.4320   34.1500    0.3820 C   0  0  0  0  0  0  0  0  0  0  0  0
   22.3170   33.1010    1.2610 C   0  0  0  0  0  0  0  0  0  0  0  0
   22.5970   33.1890    2.4790 O   0  0  0  0  0  0  0  0  0  0  0  0
   21.9290   31.9020    0.7690 C   0  0  0  0  0  0  0  0  0  0  0  0
   21.4780   30.8270    1.5990 O   0  0  0  0  0  0  0  0  0  0  0  0
   21.1770   29.8260    0.6640 C   0  0  0  0  0  0  0  0  0  0  0  0
   21.4200   30.3130   -0.5610 C   0  0  0  0  0  0  0  0  0  0  0  0
   21.8510   31.5640   -0.5090 C   0  0  0  0  0  0  0  0  0  0  0  0
   23.2972   37.9948   -1.3674 H   0  0  0  0  0  0  0  0  0  0  0  0
   24.1686   39.0267    0.7301 H   0  0  0  0  0  0  0  0  0  0  0  0
   24.1341   37.6628    2.8816 H   0  0  0  0  0  0  0  0  0  0  0  0
   23.2757   35.3328    2.7251 H   0  0  0  0  0  0  0  0  0  0  0  0
   22.3462   35.6088   -2.4649 H   0  0  0  0  0  0  0  0  0  0  0  0
   21.7162   33.2512   -1.4877 H   0  0  0  0  0  0  0  0  0  0  0  0
   20.8097   28.8268    0.8933 H   0  0  0  0  0  0  0  0  0  0  0  0
   21.2805   29.7506   -1.4830 H   0  0  0  0  0  0  0  0  0  0  0  0
   22.0960   32.1978   -1.3600 H   0  0  0  0  0  0  0  0  0  0  0  0
  1  2  2  0  0  0  0
  1  6  1  0  0  0  0
  1 17  1  0  0  0  0
  2  3  1  0  0  0  0
  2 18  1  0  0  0  0
  3  4  2  0  0  0  0
  3 19  1  0  0  0  0
  4  5  1  0  0  0  0
  4 20  1  0  0  0  0
  5  6  2  0  0  0  0
  5  9  1  0  0  0  0
  6  7  1  0  0  0  0
  7  8  1  0  0  0  0
  7 21  1  0  0  0  0
  8  9  2  0  0  0  0
  8 22  1  0  0  0  0
  9 10  1  0  0  0  0
 10 11  2  0  0  0  0
 10 12  1  0  0  0  0
 12 13  1  0  0  0  0
 12 16  2  0  0  0  0
 13 14  1  0  0  0  0
 14 15  2  0  0  0  0
 14 23  1  0  0  0  0
 15 16  1  0  0  0  0
 15 24  1  0  0  0  0
 16 25  1  0  0  0  0
M  END
