3vdb_ligand
 OpenBabel08222323353D

 22 22  0  0  1  0  0  0  0  0999 V2000
  -11.2710  -26.9760  -25.6780 C   0  0  0  0  0  0  0  0  0  0  0  0
  -10.3110  -28.0180  -25.1710 C   0  0  1  0  0  0  0  0  0  0  0  0
   -9.5880  -28.6570  -26.3420 C   0  0  2  0  0  0  0  0  0  0  0  0
  -10.5840  -29.0700  -27.4300 C   0  0  2  0  0  0  0  0  0  0  0  0
  -11.2610  -27.8410  -28.0290 C   0  0  1  0  0  0  0  0  0  0  0  0
  -12.4080  -28.2360  -28.9500 C   0  0  0  0  0  0  0  0  0  0  0  0
  -11.6400  -26.0740  -24.9510 O   0  0  0  0  0  0  0  0  0  0  0  0
   -9.3310  -27.4540  -24.2930 O   0  0  0  0  0  0  0  0  0  0  0  0
   -8.8410  -29.7750  -25.8490 O   0  0  0  0  0  0  0  0  0  0  0  0
  -11.6060  -29.9330  -26.9200 O   0  0  0  0  0  0  0  0  0  0  0  0
  -11.8230  -26.9900  -27.0270 O   0  0  0  0  0  0  0  0  0  0  0  0
  -11.9010  -28.7990  -30.1630 O   0  0  0  0  0  0  0  0  0  0  0  0
  -10.8789  -28.7873  -24.6273 H   0  0  0  0  0  0  0  0  0  0  0  0
   -8.8882  -27.9263  -26.7737 H   0  0  0  0  0  0  0  0  0  0  0  0
  -10.0332  -29.6000  -28.2210 H   0  0  0  0  0  0  0  0  0  0  0  0
  -10.5092  -27.2782  -28.6018 H   0  0  0  0  0  0  0  0  0  0  0  0
  -13.0066  -27.3441  -29.1867 H   0  0  0  0  0  0  0  0  0  0  0  0
  -13.0413  -28.9786  -28.4426 H   0  0  0  0  0  0  0  0  0  0  0  0
   -8.7517  -28.1406  -23.9840 H   0  0  0  0  0  0  0  0  0  0  0  0
   -8.2364  -29.4795  -25.1784 H   0  0  0  0  0  0  0  0  0  0  0  0
  -11.2056  -30.7068  -26.5413 H   0  0  0  0  0  0  0  0  0  0  0  0
  -12.6268  -29.0402  -30.7265 H   0  0  0  0  0  0  0  0  0  0  0  0
  1  2  1  0  0  0  0
  1  7  2  0  0  0  0
  1 11  1  0  0  0  0
  2  3  1  0  0  0  0
  2  8  1  0  0  0  0
  2 13  1  1  0  0  0
  3  4  1  0  0  0  0
  3  9  1  0  0  0  0
  3 14  1  6  0  0  0
  4  5  1  0  0  0  0
  4 10  1  0  0  0  0
  4 15  1  6  0  0  0
  5  6  1  0  0  0  0
  5 11  1  0  0  0  0
  5 16  1  6  0  0  0
  6 12  1  0  0  0  0
  6 17  1  0  0  0  0
  6 18  1  0  0  0  0
  8 19  1  0  0  0  0
  9 20  1  0  0  0  0
 10 21  1  0  0  0  0
 12 22  1  0  0  0  0
M  END
