3veu_ligand
 OpenBabel08222323353D

 90 93  0  0  1  0  0  0  0  0999 V2000
   30.1300   78.7340   15.8710 N   0  3  2  0  0  0  0  0  0  0  0  0
   31.1620   77.6620   15.6870 C   0  0  1  0  0  0  0  0  0  0  0  0
   32.1880   78.3420   14.7440 C   0  0  0  0  0  0  0  0  0  0  0  0
   32.2210   79.7750   15.3040 C   0  0  0  0  0  0  0  0  0  0  0  0
   30.7020   80.0210   15.3990 C   0  0  0  0  0  0  0  0  0  0  0  0
   31.8200   77.1910   17.0200 C   0  0  0  0  0  0  0  0  0  0  0  0
   32.1030   75.6830   16.8590 C   0  0  0  0  0  0  0  0  0  0  0  0
   31.2120   75.3110   15.7650 N   0  0  0  0  0  0  0  0  0  0  0  0
   30.6500   76.3590   15.1230 C   0  0  0  0  0  0  0  0  0  0  0  0
   29.8430   76.3140   14.2030 O   0  0  0  0  0  0  0  0  0  0  0  0
   30.9320   73.9250   15.3620 C   0  0  2  0  0  0  0  0  0  0  0  0
   30.7840   73.0020   16.5540 C   0  0  0  0  0  0  0  0  0  0  0  0
   29.6150   73.0780   17.2590 N   0  0  0  0  0  0  0  0  0  0  0  0
   31.6990   72.2320   16.8410 O   0  0  0  0  0  0  0  0  0  0  0  0
   29.2280   78.8160   17.0510 C   0  0  0  0  0  0  0  0  0  0  0  0
   27.8750   78.1100   16.7750 C   0  0  0  0  0  0  0  0  0  0  0  0
   26.9240   78.2220   17.9920 C   0  0  0  0  0  0  0  0  0  0  0  0
   31.9530   73.4350   14.2950 C   0  0  0  0  0  0  0  0  0  0  0  0
   29.3280   72.2530   18.4470 C   0  0  2  0  0  0  0  0  0  0  0  0
   28.3840   71.0680   18.0730 C   0  0  1  0  0  0  0  0  0  0  0  0
   28.9700   70.1470   16.9750 C   0  0  0  0  0  0  0  0  0  0  0  0
   28.1370   68.9400   16.7910 N   0  3  0  0  0  0  0  0  0  0  0  0
   28.8240   67.7810   16.1650 C   0  0  0  0  0  0  0  0  0  0  0  0
   28.7310   73.1270   19.5920 C   0  0  0  0  0  0  0  0  0  0  0  0
   29.5700   74.3480   20.0040 C   0  0  0  0  0  0  0  0  0  0  0  0
   28.9050   75.5810   20.2180 C   0  0  0  0  0  0  0  0  0  0  0  0
   29.6320   76.7340   20.6030 C   0  0  0  0  0  0  0  0  0  0  0  0
   31.0350   76.6590   20.7760 C   0  0  0  0  0  0  0  0  0  0  0  0
   31.7070   75.4310   20.5630 C   0  0  0  0  0  0  0  0  0  0  0  0
   30.9800   74.2780   20.1780 C   0  0  0  0  0  0  0  0  0  0  0  0
   28.0190   70.2770   19.2180 O   0  0  0  0  0  0  0  0  0  0  0  0
   29.9550   67.2260   17.0540 C   0  0  0  0  0  0  0  0  0  0  0  0
   31.2870   67.2340   16.5700 C   0  0  0  0  0  0  0  0  0  0  0  0
   32.3330   66.7300   17.3790 C   0  0  0  0  0  0  0  0  0  0  0  0
   32.0590   66.2150   18.6670 C   0  0  0  0  0  0  0  0  0  0  0  0
   30.7320   66.1940   19.1700 C   0  0  0  0  0  0  0  0  0  0  0  0
   29.6880   66.7070   18.3490 C   0  0  0  0  0  0  0  0  0  0  0  0
   30.4660   65.6170   20.5820 C   0  0  0  0  0  0  0  0  0  0  0  0
   30.3680   66.7230   21.6600 C   0  0  0  0  0  0  0  0  0  0  0  0
   29.2500   64.6500   20.6440 C   0  0  0  0  0  0  0  0  0  0  0  0
   29.4636   78.5007   15.1516 H   0  0  0  0  0  0  0  0  0  0  0  0
   31.8441   78.3272   13.6992 H   0  0  0  0  0  0  0  0  0  0  0  0
   33.1753   77.8618   14.8119 H   0  0  0  0  0  0  0  0  0  0  0  0
   32.7119   80.4777   14.6147 H   0  0  0  0  0  0  0  0  0  0  0  0
   32.7106   79.8239   16.2878 H   0  0  0  0  0  0  0  0  0  0  0  0
   30.4854   80.8261   16.1166 H   0  0  0  0  0  0  0  0  0  0  0  0
   30.2917   80.2877   14.4138 H   0  0  0  0  0  0  0  0  0  0  0  0
   31.1345   77.3612   17.8632 H   0  0  0  0  0  0  0  0  0  0  0  0
   32.7586   77.7374   17.1945 H   0  0  0  0  0  0  0  0  0  0  0  0
   31.8560   75.1316   17.7782 H   0  0  0  0  0  0  0  0  0  0  0  0
   33.1551   75.5018   16.5942 H   0  0  0  0  0  0  0  0  0  0  0  0
   29.9510   73.9352   14.8644 H   0  0  0  0  0  0  0  0  0  0  0  0
   28.9183   73.7269   16.9530 H   0  0  0  0  0  0  0  0  0  0  0  0
   29.0390   79.8741   17.2850 H   0  0  0  0  0  0  0  0  0  0  0  0
   29.7162   78.3321   17.9098 H   0  0  0  0  0  0  0  0  0  0  0  0
   28.0621   77.0470   16.5630 H   0  0  0  0  0  0  0  0  0  0  0  0
   27.3972   78.5794   15.9024 H   0  0  0  0  0  0  0  0  0  0  0  0
   25.9759   77.7126   17.7646 H   0  0  0  0  0  0  0  0  0  0  0  0
   26.7278   79.2826   18.2077 H   0  0  0  0  0  0  0  0  0  0  0  0
   27.3926   77.7502   18.8682 H   0  0  0  0  0  0  0  0  0  0  0  0
   31.7194   72.3977   14.0132 H   0  0  0  0  0  0  0  0  0  0  0  0
   32.9699   73.4816   14.7119 H   0  0  0  0  0  0  0  0  0  0  0  0
   31.8915   74.0792   13.4055 H   0  0  0  0  0  0  0  0  0  0  0  0
   30.2772   71.8288   18.8063 H   0  0  0  0  0  0  0  0  0  0  0  0
   27.4616   71.5119   17.6704 H   0  0  0  0  0  0  0  0  0  0  0  0
   29.9855   69.8413   17.2671 H   0  0  0  0  0  0  0  0  0  0  0  0
   29.0127   70.7018   16.0261 H   0  0  0  0  0  0  0  0  0  0  0  0
   27.3533   69.1889   16.2080 H   0  0  0  0  0  0  0  0  0  0  0  0
   27.8033   68.6513   17.6973 H   0  0  0  0  0  0  0  0  0  0  0  0
   29.2531   68.1002   15.2037 H   0  0  0  0  0  0  0  0  0  0  0  0
   28.0866   66.9836   15.9907 H   0  0  0  0  0  0  0  0  0  0  0  0
   28.6087   72.4864   20.4778 H   0  0  0  0  0  0  0  0  0  0  0  0
   27.7460   73.4892   19.2625 H   0  0  0  0  0  0  0  0  0  0  0  0
   27.8308   75.6422   20.0859 H   0  0  0  0  0  0  0  0  0  0  0  0
   29.1147   77.6727   20.7650 H   0  0  0  0  0  0  0  0  0  0  0  0
   31.5937   77.5399   21.0709 H   0  0  0  0  0  0  0  0  0  0  0  0
   32.7814   75.3731   20.6950 H   0  0  0  0  0  0  0  0  0  0  0  0
   31.4992   73.3404   20.0156 H   0  0  0  0  0  0  0  0  0  0  0  0
   27.6596   70.8430   19.8910 H   0  0  0  0  0  0  0  0  0  0  0  0
   31.5040   67.6252   15.5826 H   0  0  0  0  0  0  0  0  0  0  0  0
   33.3517   66.7388   17.0086 H   0  0  0  0  0  0  0  0  0  0  0  0
   32.8701   65.8326   19.2760 H   0  0  0  0  0  0  0  0  0  0  0  0
   28.6693   66.7014   18.7195 H   0  0  0  0  0  0  0  0  0  0  0  0
   31.3502   65.0135   20.8347 H   0  0  0  0  0  0  0  0  0  0  0  0
   30.1791   66.2629   22.6412 H   0  0  0  0  0  0  0  0  0  0  0  0
   29.5428   67.4062   21.4105 H   0  0  0  0  0  0  0  0  0  0  0  0
   31.3124   67.2859   21.6947 H   0  0  0  0  0  0  0  0  0  0  0  0
   29.3540   63.8797   19.8656 H   0  0  0  0  0  0  0  0  0  0  0  0
   28.3220   65.2166   20.4774 H   0  0  0  0  0  0  0  0  0  0  0  0
   29.2137   64.1694   21.6328 H   0  0  0  0  0  0  0  0  0  0  0  0
  1  2  1  0  0  0  0
  1  5  1  0  0  0  0
  1 15  1  0  0  0  0
  1 41  1  6  0  0  0
  2  3  1  0  0  0  0
  2  6  1  0  0  0  0
  2  9  1  6  0  0  0
  3  4  1  0  0  0  0
  3 42  1  0  0  0  0
  3 43  1  0  0  0  0
  4  5  1  0  0  0  0
  4 44  1  0  0  0  0
  4 45  1  0  0  0  0
  5 46  1  0  0  0  0
  5 47  1  0  0  0  0
  6  7  1  0  0  0  0
  6 48  1  0  0  0  0
  6 49  1  0  0  0  0
  7  8  1  0  0  0  0
  7 50  1  0  0  0  0
  7 51  1  0  0  0  0
  8  9  1  0  0  0  0
  8 11  1  0  0  0  0
  9 10  2  0  0  0  0
 11 12  1  0  0  0  0
 11 18  1  0  0  0  0
 11 52  1  6  0  0  0
 12 13  1  0  0  0  0
 12 14  2  0  0  0  0
 13 19  1  0  0  0  0
 13 53  1  0  0  0  0
 15 16  1  0  0  0  0
 15 54  1  0  0  0  0
 15 55  1  0  0  0  0
 16 17  1  0  0  0  0
 16 56  1  0  0  0  0
 16 57  1  0  0  0  0
 17 58  1  0  0  0  0
 17 59  1  0  0  0  0
 17 60  1  0  0  0  0
 18 61  1  0  0  0  0
 18 62  1  0  0  0  0
 18 63  1  0  0  0  0
 19 20  1  0  0  0  0
 19 24  1  0  0  0  0
 19 64  1  1  0  0  0
 20 21  1  0  0  0  0
 20 31  1  0  0  0  0
 20 65  1  6  0  0  0
 21 22  1  0  0  0  0
 21 66  1  0  0  0  0
 21 67  1  0  0  0  0
 22 23  1  0  0  0  0
 22 68  1  0  0  0  0
 22 69  1  0  0  0  0
 23 32  1  0  0  0  0
 23 70  1  0  0  0  0
 23 71  1  0  0  0  0
 24 25  1  0  0  0  0
 24 72  1  0  0  0  0
 24 73  1  0  0  0  0
 25 26  2  0  0  0  0
 25 30  1  0  0  0  0
 26 27  1  0  0  0  0
 26 74  1  0  0  0  0
 27 28  2  0  0  0  0
 27 75  1  0  0  0  0
 28 29  1  0  0  0  0
 28 76  1  0  0  0  0
 29 30  2  0  0  0  0
 29 77  1  0  0  0  0
 30 78  1  0  0  0  0
 31 79  1  0  0  0  0
 32 33  2  0  0  0  0
 32 37  1  0  0  0  0
 33 34  1  0  0  0  0
 33 80  1  0  0  0  0
 34 35  2  0  0  0  0
 34 81  1  0  0  0  0
 35 36  1  0  0  0  0
 35 82  1  0  0  0  0
 36 37  2  0  0  0  0
 36 38  1  0  0  0  0
 37 83  1  0  0  0  0
 38 39  1  0  0  0  0
 38 40  1  0  0  0  0
 38 84  1  0  0  0  0
 39 85  1  0  0  0  0
 39 86  1  0  0  0  0
 39 87  1  0  0  0  0
 40 88  1  0  0  0  0
 40 89  1  0  0  0  0
 40 90  1  0  0  0  0
M  CHG  2   1   1  22   1
M  END
