3vfj_ligand
 OpenBabel08222323353D

181192  0  0  1  0  0  0  0  0999 V2000
    9.4810   35.2720    9.8570 N   0  3  0  0  0  0  0  0  0  0  0  0
    8.0620   35.6240   10.0230 C   0  0  1  0  0  0  0  0  0  0  0  0
    7.8600   36.8670   10.9260 C   0  0  0  0  0  0  0  0  0  0  0  0
    8.6470   37.8110   10.9110 O   0  0  0  0  0  0  0  0  0  0  0  0
    7.4540   35.8610    8.6460 C   0  0  0  0  0  0  0  0  0  0  0  0
    7.1640   34.7500    7.8600 C   0  0  0  0  0  0  0  0  0  0  0  0
    6.6000   34.9150    6.6060 C   0  0  0  0  0  0  0  0  0  0  0  0
    6.3240   36.1910    6.1390 C   0  0  0  0  0  0  0  0  0  0  0  0
    5.7710   36.3540    4.9070 O   0  0  0  0  0  0  0  0  0  0  0  0
    6.6020   37.3040    6.9230 C   0  0  0  0  0  0  0  0  0  0  0  0
    7.1720   37.1450    8.1860 C   0  0  0  0  0  0  0  0  0  0  0  0
    1.4110   34.9360   14.1580 O   0  0  0  0  0  0  0  0  0  0  0  0
    2.6410   35.5100   14.1410 C   0  0  0  0  0  0  0  0  0  0  0  0
    2.7270   36.8240   14.5890 C   0  0  0  0  0  0  0  0  0  0  0  0
    3.9480   37.4760   14.5730 C   0  0  0  0  0  0  0  0  0  0  0  0
    1.3540   37.6480   15.1550 Cl  0  0  0  0  0  0  0  0  0  0  0  0
    3.7510   34.8310   13.6700 C   0  0  0  0  0  0  0  0  0  0  0  0
    4.9730   35.4890   13.6650 C   0  0  0  0  0  0  0  0  0  0  0  0
    5.0660   36.8040   14.1060 C   0  0  0  0  0  0  0  0  0  0  0  0
    6.2880   37.4570   14.0840 C   0  0  0  0  0  0  0  0  0  0  0  0
    6.5910   37.9760   12.6640 C   0  0  2  0  0  0  0  0  0  0  0  0
    5.5720   38.9930   12.1070 C   0  0  0  0  0  0  0  0  0  0  0  0
    5.6240   40.1640   12.5330 O   0  0  0  0  0  0  0  0  0  0  0  0
    6.7870   36.8730   11.7080 N   0  0  0  0  0  0  0  0  0  0  0  0
    4.7070   38.6070   11.1750 N   0  0  0  0  0  0  0  0  0  0  0  0
    6.3140   38.5340    6.4020 O   0  0  0  0  0  0  0  0  0  0  0  0
    5.6020   39.4510    7.1560 C   0  0  0  0  0  0  0  0  0  0  0  0
    5.0340   39.0780    8.3720 C   0  0  0  0  0  0  0  0  0  0  0  0
    5.5670   40.7840    6.7570 C   0  0  0  0  0  0  0  0  0  0  0  0
    4.9850   41.7440    7.5710 C   0  0  0  0  0  0  0  0  0  0  0  0
    4.9690   43.0400    7.1640 O   0  0  0  0  0  0  0  0  0  0  0  0
    4.4240   41.3760    8.7920 C   0  0  0  0  0  0  0  0  0  0  0  0
    4.4560   40.0360    9.1880 C   0  0  0  0  0  0  0  0  0  0  0  0
    3.8530   39.6210   10.5280 C   0  0  1  0  0  0  0  0  0  0  0  0
    2.3920   39.2120   10.3390 C   0  0  0  0  0  0  0  0  0  0  0  0
    1.5390   40.1220   10.3640 O   0  0  0  0  0  0  0  0  0  0  0  0
    2.0910   37.9340   10.1440 N   0  0  0  0  0  0  0  0  0  0  0  0
    0.6870   37.5270   10.0040 C   0  0  1  0  0  0  0  0  0  0  0  0
    0.3750   37.2120    8.5380 C   0  0  0  0  0  0  0  0  0  0  0  0
    1.1760   36.5130    7.8980 O   0  0  0  0  0  0  0  0  0  0  0  0
    0.3930   36.2980   10.8900 C   0  0  0  0  0  0  0  0  0  0  0  0
    1.0320   36.1660   12.1230 C   0  0  0  0  0  0  0  0  0  0  0  0
    0.7730   35.0620   12.9360 C   0  0  0  0  0  0  0  0  0  0  0  0
   -0.1220   34.0860   12.5180 C   0  0  0  0  0  0  0  0  0  0  0  0
   -0.3810   33.0200   13.3250 O   0  0  0  0  0  0  0  0  0  0  0  0
   -0.7720   34.2060   11.2910 C   0  0  0  0  0  0  0  0  0  0  0  0
   -0.5140   35.3140   10.4780 C   0  0  0  0  0  0  0  0  0  0  0  0
   -0.7290   37.7330    8.0140 N   0  0  0  0  0  0  0  0  0  0  0  0
   -1.3230   37.1810    6.7850 C   0  0  1  0  0  0  0  0  0  0  0  0
   -2.8320   37.1890    6.9840 C   0  0  0  0  0  0  0  0  0  0  0  0
   -3.3200   37.9940    7.8030 O   0  0  0  0  0  0  0  0  0  0  0  0
   -1.0820   37.9630    5.4920 C   0  0  0  0  0  0  0  0  0  0  0  0
   -0.5750   37.2760    4.3930 C   0  0  0  0  0  0  0  0  0  0  0  0
   -0.3860   37.9260    3.1820 C   0  0  0  0  0  0  0  0  0  0  0  0
   -0.6980   39.2800    3.0730 C   0  0  0  0  0  0  0  0  0  0  0  0
   -0.5050   39.9270    1.8970 O   0  0  0  0  0  0  0  0  0  0  0  0
   -1.2160   39.9690    4.1680 C   0  0  0  0  0  0  0  0  0  0  0  0
   -1.4170   39.3110    5.3810 C   0  0  0  0  0  0  0  0  0  0  0  0
   -3.5560   36.3380    6.2710 N   0  0  0  0  0  0  0  0  0  0  0  0
   -2.9550   35.3460    5.3720 C   0  0  2  0  0  0  0  0  0  0  0  0
   -3.2320   35.8200    3.9450 C   0  0  0  0  0  0  0  0  0  0  0  0
   -4.2420   36.5230    3.7230 O   0  0  0  0  0  0  0  0  0  0  0  0
   -3.6010   34.0240    5.7240 C   0  0  2  0  0  0  0  0  0  0  0  0
   -4.9840   34.3380    5.6850 O   0  0  0  0  0  0  0  0  0  0  0  0
   -3.1610   33.8030    7.0320 C   0  0  0  0  0  0  0  0  0  0  0  0
   -1.8990   33.2420    7.2130 C   0  0  0  0  0  0  0  0  0  0  0  0
   -3.9010   34.1810    8.1500 C   0  0  0  0  0  0  0  0  0  0  0  0
   -1.3880   33.0280    8.4900 C   0  0  0  0  0  0  0  0  0  0  0  0
   -3.3930   33.9690    9.4340 C   0  0  0  0  0  0  0  0  0  0  0  0
   -2.1300   33.4000    9.6080 C   0  0  0  0  0  0  0  0  0  0  0  0
   -1.6180   33.1890   10.8620 O   0  0  0  0  0  0  0  0  0  0  0  0
   -2.3560   35.4720    3.0090 N   0  0  0  0  0  0  0  0  0  0  0  0
    2.1150   38.0560    2.3520 O   0  0  0  0  0  0  0  0  0  0  0  0
    1.2810   37.2430    1.6090 C   0  0  0  0  0  0  0  0  0  0  0  0
   -0.0200   37.1830    2.0530 C   0  0  0  0  0  0  0  0  0  0  0  0
    1.8570   36.5820    0.5380 C   0  0  0  0  0  0  0  0  0  0  0  0
    1.0080   35.7410   -0.1700 C   0  0  0  0  0  0  0  0  0  0  0  0
    1.4890   35.0410   -1.2350 O   0  0  0  0  0  0  0  0  0  0  0  0
   -0.3300   35.6190    0.2230 C   0  0  0  0  0  0  0  0  0  0  0  0
   -0.8420   36.3290    1.3150 C   0  0  0  0  0  0  0  0  0  0  0  0
   -2.3100   36.1640    1.7090 C   0  0  1  0  0  0  0  0  0  0  0  0
   -3.0760   35.4080    0.6150 C   0  0  0  0  0  0  0  0  0  0  0  0
   -3.4930   36.0940   -0.3450 O   0  5  0  0  0  0  0  0  0  0  0  0
   -3.2370   34.1760    0.7670 O   0  0  0  0  0  0  0  0  0  0  0  0
    0.5450   32.0010   13.4650 C   0  0  1  0  0  0  0  0  0  0  0  0
    0.1880   31.2040   14.7160 C   0  0  1  0  0  0  0  0  0  0  0  0
    1.2050   30.1000   14.8630 C   0  0  2  0  0  0  0  0  0  0  0  0
    1.1410   29.2260   13.6140 C   0  0  1  0  0  0  0  0  0  0  0  0
    1.4850   30.0810   12.3910 C   0  0  1  0  0  0  0  0  0  0  0  0
    1.4400   29.2300   11.1160 C   0  0  0  0  0  0  0  0  0  0  0  0
    0.3790   32.1960   15.7810 N   0  0  0  0  0  0  0  0  0  0  0  0
    0.8170   29.3110   15.9940 O   0  0  0  0  0  0  0  0  0  0  0  0
    2.0910   28.1710   13.7170 O   0  0  0  0  0  0  0  0  0  0  0  0
    0.5260   31.1760   12.2800 O   0  0  0  0  0  0  0  0  0  0  0  0
    0.1200   28.7020   10.9490 O   0  0  0  0  0  0  0  0  0  0  0  0
   -4.1270   38.4090   11.4850 C   0  0  0  0  0  0  0  0  0  0  0  0
   -3.2310   38.2330   12.7070 C   0  0  0  0  0  0  0  0  0  0  0  0
   -2.8590   36.7670   12.7870 C   0  0  0  0  0  0  0  0  0  0  0  0
   -1.9990   36.4130   14.0110 C   0  0  0  0  0  0  0  0  0  0  0  0
   -2.7350   36.6970   15.3170 C   0  0  0  0  0  0  0  0  0  0  0  0
   -1.8550   36.2220   16.4790 C   0  0  0  0  0  0  0  0  0  0  0  0
   -1.6370   34.7460   16.1880 C   0  0  0  0  0  0  0  0  0  0  0  0
   -0.8190   33.9100   17.1880 C   0  0  0  0  0  0  0  0  0  0  0  0
   -1.9630   39.0360   12.4430 C   0  0  0  0  0  0  0  0  0  0  0  0
   -0.7940   32.5610   16.4530 C   0  0  0  0  0  0  0  0  0  0  0  0
   -1.8490   31.9760   16.2130 O   0  0  0  0  0  0  0  0  0  0  0  0
    9.8956   35.1124   10.7618 H   0  0  0  0  0  0  0  0  0  0  0  0
    9.9628   36.0274    9.3952 H   0  0  0  0  0  0  0  0  0  0  0  0
    9.5567   34.4350    9.3004 H   0  0  0  0  0  0  0  0  0  0  0  0
    7.5475   34.7741   10.4951 H   0  0  0  0  0  0  0  0  0  0  0  0
    7.3798   33.7541    8.2297 H   0  0  0  0  0  0  0  0  0  0  0  0
    6.3753   34.0503    5.9922 H   0  0  0  0  0  0  0  0  0  0  0  0
    5.6455   37.2803    4.7375 H   0  0  0  0  0  0  0  0  0  0  0  0
    7.3927   38.0095    8.8016 H   0  0  0  0  0  0  0  0  0  0  0  0
    4.0284   38.4993   14.9214 H   0  0  0  0  0  0  0  0  0  0  0  0
    3.6681   33.8105   13.3138 H   0  0  0  0  0  0  0  0  0  0  0  0
    5.8605   34.9742   13.3150 H   0  0  0  0  0  0  0  0  0  0  0  0
    7.0791   36.7572   14.3912 H   0  0  0  0  0  0  0  0  0  0  0  0
    6.2583   38.3064   14.7823 H   0  0  0  0  0  0  0  0  0  0  0  0
    7.5500   38.5100   12.7361 H   0  0  0  0  0  0  0  0  0  0  0  0
    6.1164   36.1335   11.6482 H   0  0  0  0  0  0  0  0  0  0  0  0
    4.6361   37.6437   10.9161 H   0  0  0  0  0  0  0  0  0  0  0  0
    5.0444   38.0385    8.6793 H   0  0  0  0  0  0  0  0  0  0  0  0
    5.9970   41.0732    5.8049 H   0  0  0  0  0  0  0  0  0  0  0  0
    4.5399   43.5725    7.8234 H   0  0  0  0  0  0  0  0  0  0  0  0
    3.9662   42.1233    9.4300 H   0  0  0  0  0  0  0  0  0  0  0  0
    3.8539   40.5033   11.1849 H   0  0  0  0  0  0  0  0  0  0  0  0
    2.8186   37.2499   10.0925 H   0  0  0  0  0  0  0  0  0  0  0  0
    0.0446   38.3580   10.3309 H   0  0  0  0  0  0  0  0  0  0  0  0
    1.7332   36.9248   12.4511 H   0  0  0  0  0  0  0  0  0  0  0  0
   -1.0188   35.4117    9.5237 H   0  0  0  0  0  0  0  0  0  0  0  0
   -1.1643   38.5138    8.4621 H   0  0  0  0  0  0  0  0  0  0  0  0
   -0.9527   36.1540    6.6505 H   0  0  0  0  0  0  0  0  0  0  0  0
   -0.3259   36.2249    4.4839 H   0  0  0  0  0  0  0  0  0  0  0  0
   -0.7652   40.8359    1.9905 H   0  0  0  0  0  0  0  0  0  0  0  0
   -1.4636   41.0204    4.0765 H   0  0  0  0  0  0  0  0  0  0  0  0
   -1.8302   39.8435    6.2300 H   0  0  0  0  0  0  0  0  0  0  0  0
   -4.5523   36.3734    6.3488 H   0  0  0  0  0  0  0  0  0  0  0  0
   -1.8684   35.2773    5.5288 H   0  0  0  0  0  0  0  0  0  0  0  0
   -3.3384   33.1970    5.0479 H   0  0  0  0  0  0  0  0  0  0  0  0
   -5.2143   34.6412    4.8147 H   0  0  0  0  0  0  0  0  0  0  0  0
   -1.3066   32.9683    6.3474 H   0  0  0  0  0  0  0  0  0  0  0  0
   -4.8743   34.6412    8.0233 H   0  0  0  0  0  0  0  0  0  0  0  0
   -0.4125   32.5718    8.6141 H   0  0  0  0  0  0  0  0  0  0  0  0
   -3.9826   34.2478   10.2999 H   0  0  0  0  0  0  0  0  0  0  0  0
   -1.7153   34.7259    3.1902 H   0  0  0  0  0  0  0  0  0  0  0  0
    1.7815   38.9455    2.3398 H   0  0  0  0  0  0  0  0  0  0  0  0
    2.8993   36.7118    0.2701 H   0  0  0  0  0  0  0  0  0  0  0  0
    0.7909   34.5164   -1.6091 H   0  0  0  0  0  0  0  0  0  0  0  0
   -0.9858   34.9582   -0.3323 H   0  0  0  0  0  0  0  0  0  0  0  0
   -2.7660   37.1585    1.8229 H   0  0  0  0  0  0  0  0  0  0  0  0
    1.5511   32.4292   13.5853 H   0  0  0  0  0  0  0  0  0  0  0  0
   -0.8368   30.8049   14.6914 H   0  0  0  0  0  0  0  0  0  0  0  0
    2.2162   30.5109   14.9995 H   0  0  0  0  0  0  0  0  0  0  0  0
    0.1299   28.8066   13.5056 H   0  0  0  0  0  0  0  0  0  0  0  0
    2.4970   30.4946   12.5129 H   0  0  0  0  0  0  0  0  0  0  0  0
    2.1594   28.4022   11.2006 H   0  0  0  0  0  0  0  0  0  0  0  0
    1.6992   29.8538   10.2479 H   0  0  0  0  0  0  0  0  0  0  0  0
    1.2740   32.5799   16.0081 H   0  0  0  0  0  0  0  0  0  0  0  0
    1.4104   28.5745   16.0835 H   0  0  0  0  0  0  0  0  0  0  0  0
    2.9615   28.5387   13.8148 H   0  0  0  0  0  0  0  0  0  0  0  0
   -0.4996   29.4184   10.8768 H   0  0  0  0  0  0  0  0  0  0  0  0
   -4.4189   39.4656   11.3935 H   0  0  0  0  0  0  0  0  0  0  0  0
   -5.0280   37.7883   11.5985 H   0  0  0  0  0  0  0  0  0  0  0  0
   -3.5803   38.1002   10.5819 H   0  0  0  0  0  0  0  0  0  0  0  0
   -3.7324   38.5676   13.6271 H   0  0  0  0  0  0  0  0  0  0  0  0
   -2.2971   36.5014   11.8794 H   0  0  0  0  0  0  0  0  0  0  0  0
   -3.7854   36.1756   12.8310 H   0  0  0  0  0  0  0  0  0  0  0  0
   -1.0765   37.0115   13.9840 H   0  0  0  0  0  0  0  0  0  0  0  0
   -1.7438   35.3438   13.9706 H   0  0  0  0  0  0  0  0  0  0  0  0
   -3.6922   36.1552   15.3299 H   0  0  0  0  0  0  0  0  0  0  0  0
   -2.9235   37.7767   15.4105 H   0  0  0  0  0  0  0  0  0  0  0  0
   -2.3689   36.3600   17.4417 H   0  0  0  0  0  0  0  0  0  0  0  0
   -0.8980   36.7642   16.4931 H   0  0  0  0  0  0  0  0  0  0  0  0
   -1.1264   34.6793   15.2160 H   0  0  0  0  0  0  0  0  0  0  0  0
   -2.6307   34.2803   16.1129 H   0  0  0  0  0  0  0  0  0  0  0  0
   -1.3218   33.8338   18.1634 H   0  0  0  0  0  0  0  0  0  0  0  0
    0.1933   34.3170   17.3280 H   0  0  0  0  0  0  0  0  0  0  0  0
   -2.2125   40.1055   12.3814 H   0  0  0  0  0  0  0  0  0  0  0  0
   -1.5130   38.7092   11.4940 H   0  0  0  0  0  0  0  0  0  0  0  0
   -1.2483   38.8729   13.2631 H   0  0  0  0  0  0  0  0  0  0  0  0
  1107  1  0  0  0  0
  1108  1  0  0  0  0
  1109  1  0  0  0  0
  2  1  1  0  0  0  0
  2  5  1  0  0  0  0
  2110  1  1  0  0  0
  3  2  1  0  0  0  0
  3  4  2  0  0  0  0
  5  6  2  0  0  0  0
  5 11  1  0  0  0  0
  6  7  1  0  0  0  0
  6111  1  0  0  0  0
  7112  1  0  0  0  0
  8  7  2  0  0  0  0
  8  9  1  0  0  0  0
  9113  1  0  0  0  0
 10  8  1  0  0  0  0
 10 11  2  0  0  0  0
 11114  1  0  0  0  0
 12 13  1  0  0  0  0
 13 14  2  0  0  0  0
 13 17  1  0  0  0  0
 14 15  1  0  0  0  0
 14 16  1  0  0  0  0
 15 19  2  0  0  0  0
 15115  1  0  0  0  0
 17 18  2  0  0  0  0
 17116  1  0  0  0  0
 18 19  1  0  0  0  0
 18117  1  0  0  0  0
 19 20  1  0  0  0  0
 20 21  1  0  0  0  0
 20118  1  0  0  0  0
 20119  1  0  0  0  0
 21 22  1  0  0  0  0
 21 24  1  0  0  0  0
 21120  1  1  0  0  0
 22 23  2  0  0  0  0
 24  3  1  0  0  0  0
 24121  1  0  0  0  0
 25 22  1  0  0  0  0
 25122  1  0  0  0  0
 26 10  1  0  0  0  0
 27 26  1  0  0  0  0
 27 29  1  0  0  0  0
 28 27  2  0  0  0  0
 28123  1  0  0  0  0
 29124  1  0  0  0  0
 30 29  2  0  0  0  0
 30 31  1  0  0  0  0
 31125  1  0  0  0  0
 32 30  1  0  0  0  0
 32126  1  0  0  0  0
 33 28  1  0  0  0  0
 33 32  2  0  0  0  0
 34 25  1  0  0  0  0
 34 33  1  0  0  0  0
 34127  1  1  0  0  0
 35 34  1  0  0  0  0
 35 36  2  0  0  0  0
 37 35  1  0  0  0  0
 37128  1  0  0  0  0
 38 37  1  0  0  0  0
 38 39  1  0  0  0  0
 38129  1  1  0  0  0
 39 40  2  0  0  0  0
 39 48  1  0  0  0  0
 41 38  1  0  0  0  0
 42 41  2  0  0  0  0
 42130  1  0  0  0  0
 43 12  1  0  0  0  0
 43 42  1  0  0  0  0
 44 43  2  0  0  0  0
 44 46  1  0  0  0  0
 45 44  1  0  0  0  0
 46 47  2  0  0  0  0
 46 71  1  0  0  0  0
 47 41  1  0  0  0  0
 47131  1  0  0  0  0
 48 49  1  0  0  0  0
 48132  1  0  0  0  0
 49 50  1  0  0  0  0
 49 52  1  0  0  0  0
 49133  1  6  0  0  0
 50 51  2  0  0  0  0
 50 59  1  0  0  0  0
 52 53  2  0  0  0  0
 52 58  1  0  0  0  0
 53 54  1  0  0  0  0
 53134  1  0  0  0  0
 54 55  2  0  0  0  0
 54 75  1  0  0  0  0
 55 56  1  0  0  0  0
 56135  1  0  0  0  0
 57 55  1  0  0  0  0
 57136  1  0  0  0  0
 58 57  2  0  0  0  0
 58137  1  0  0  0  0
 59138  1  0  0  0  0
 60 59  1  0  0  0  0
 60 61  1  0  0  0  0
 60139  1  1  0  0  0
 61 62  2  0  0  0  0
 61 72  1  0  0  0  0
 63 60  1  0  0  0  0
 63 64  1  0  0  0  0
 63140  1  6  0  0  0
 64141  1  0  0  0  0
 65 63  1  0  0  0  0
 66 65  2  0  0  0  0
 66142  1  0  0  0  0
 67 65  1  0  0  0  0
 67143  1  0  0  0  0
 68 66  1  0  0  0  0
 68144  1  0  0  0  0
 69 67  2  0  0  0  0
 69145  1  0  0  0  0
 70 68  2  0  0  0  0
 70 69  1  0  0  0  0
 71 70  1  0  0  0  0
 72 81  1  0  0  0  0
 72146  1  0  0  0  0
 73147  1  0  0  0  0
 74 73  1  0  0  0  0
 74 76  1  0  0  0  0
 75 74  2  0  0  0  0
 75 80  1  0  0  0  0
 76 77  2  0  0  0  0
 76148  1  0  0  0  0
 77 78  1  0  0  0  0
 78149  1  0  0  0  0
 79 77  1  0  0  0  0
 79150  1  0  0  0  0
 80 79  2  0  0  0  0
 81 80  1  0  0  0  0
 81 82  1  0  0  0  0
 81151  1  1  0  0  0
 82 83  1  0  0  0  0
 82 84  2  0  0  0  0
 85 45  1  0  0  0  0
 85 94  1  0  0  0  0
 85152  1  1  0  0  0
 86 85  1  0  0  0  0
 86 87  1  0  0  0  0
 86153  1  6  0  0  0
 87 88  1  0  0  0  0
 87 92  1  0  0  0  0
 87154  1  1  0  0  0
 88 89  1  0  0  0  0
 88 93  1  0  0  0  0
 88155  1  6  0  0  0
 89 90  1  0  0  0  0
 89156  1  1  0  0  0
 90 95  1  0  0  0  0
 90157  1  0  0  0  0
 90158  1  0  0  0  0
 91 86  1  0  0  0  0
 91159  1  0  0  0  0
 92160  1  0  0  0  0
 93161  1  0  0  0  0
 94 89  1  0  0  0  0
 95162  1  0  0  0  0
 96163  1  0  0  0  0
 96164  1  0  0  0  0
 96165  1  0  0  0  0
 97 96  1  0  0  0  0
 97104  1  0  0  0  0
 97166  1  0  0  0  0
 98 97  1  0  0  0  0
 98167  1  0  0  0  0
 98168  1  0  0  0  0
 99 98  1  0  0  0  0
 99169  1  0  0  0  0
 99170  1  0  0  0  0
100 99  1  0  0  0  0
100171  1  0  0  0  0
100172  1  0  0  0  0
101100  1  0  0  0  0
101173  1  0  0  0  0
101174  1  0  0  0  0
102101  1  0  0  0  0
102175  1  0  0  0  0
102176  1  0  0  0  0
103102  1  0  0  0  0
103105  1  0  0  0  0
103177  1  0  0  0  0
103178  1  0  0  0  0
104179  1  0  0  0  0
104180  1  0  0  0  0
104181  1  0  0  0  0
105 91  1  0  0  0  0
105106  2  0  0  0  0
M  CHG  2   1   1  83  -1
M  END
