3vgc_ligand
 OpenBabel08222323353D

 35 36  0  0  1  0  0  0  0  0999 V2000
   27.5050    3.0220   40.4200 C   0  0  0  0  0  0  0  0  0  0  0  0
   27.0110    4.1600   41.0780 C   0  0  0  0  0  0  0  0  0  0  0  0
   26.9860    4.2150   42.4930 C   0  0  0  0  0  0  0  0  0  0  0  0
   27.4640    3.1500   43.2360 C   0  0  0  0  0  0  0  0  0  0  0  0
   27.9790    2.0360   42.5990 C   0  0  0  0  0  0  0  0  0  0  0  0
   27.9990    1.9760   41.2020 C   0  0  0  0  0  0  0  0  0  0  0  0
   26.6080    5.2750   40.3570 C   0  0  0  0  0  0  0  0  0  0  0  0
   26.1900    6.4180   41.0140 C   0  0  0  0  0  0  0  0  0  0  0  0
   26.1610    6.4560   42.4090 C   0  0  0  0  0  0  0  0  0  0  0  0
   26.5570    5.3540   43.1400 C   0  0  0  0  0  0  0  0  0  0  0  0
   27.3440    2.8640   38.9210 C   0  0  0  0  0  0  0  0  0  0  0  0
   28.4220    2.0610   38.1990 C   0  0  2  0  0  0  0  0  0  0  0  0
   32.1940    2.7370   38.3240 C   0  0  0  0  0  0  0  0  0  0  0  0
   30.8560    1.9980   38.3990 C   0  0  0  0  0  0  0  0  0  0  0  0
   29.7480    2.6420   38.0490 N   0  0  0  0  0  0  0  0  0  0  0  0
   30.8330    0.8210   38.7730 O   0  0  0  0  0  0  0  0  0  0  0  0
   28.8840    0.9770   35.9940 O   0  0  0  0  0  0  0  0  0  0  0  0
   26.5990    1.0590   36.7460 O   0  0  0  0  0  0  0  0  0  0  0  0
   27.9030    1.7790   36.7410 B   0  0  0  0  0  0  0  0  0  0  0  0
   27.4347    3.1891   44.3189 H   0  0  0  0  0  0  0  0  0  0  0  0
   28.3673    1.2091   43.1826 H   0  0  0  0  0  0  0  0  0  0  0  0
   28.4072    1.0977   40.7152 H   0  0  0  0  0  0  0  0  0  0  0  0
   26.6209    5.2501   39.2734 H   0  0  0  0  0  0  0  0  0  0  0  0
   25.8838    7.2874   40.4436 H   0  0  0  0  0  0  0  0  0  0  0  0
   25.8270    7.3523   42.9191 H   0  0  0  0  0  0  0  0  0  0  0  0
   26.5306    5.3844   44.2233 H   0  0  0  0  0  0  0  0  0  0  0  0
   27.3261    3.8712   38.4792 H   0  0  0  0  0  0  0  0  0  0  0  0
   26.3797    2.3668   38.7395 H   0  0  0  0  0  0  0  0  0  0  0  0
   28.5380    1.1116   38.7423 H   0  0  0  0  0  0  0  0  0  0  0  0
   33.0028    2.0645   38.6459 H   0  0  0  0  0  0  0  0  0  0  0  0
   32.1644    3.6168   38.9835 H   0  0  0  0  0  0  0  0  0  0  0  0
   32.3766    3.0607   37.2887 H   0  0  0  0  0  0  0  0  0  0  0  0
   29.8282    3.5628   37.6672 H   0  0  0  0  0  0  0  0  0  0  0  0
   29.7198    1.4286   35.9853 H   0  0  0  0  0  0  0  0  0  0  0  0
   26.3023    0.9374   35.8518 H   0  0  0  0  0  0  0  0  0  0  0  0
  1  2  2  0  0  0  0
  1  6  1  0  0  0  0
  2  3  1  0  0  0  0
  2  7  1  0  0  0  0
  3  4  2  0  0  0  0
  3 10  1  0  0  0  0
  4 20  1  0  0  0  0
  5  4  1  0  0  0  0
  5 21  1  0  0  0  0
  6  5  2  0  0  0  0
  6 22  1  0  0  0  0
  7  8  2  0  0  0  0
  7 23  1  0  0  0  0
  8  9  1  0  0  0  0
  8 24  1  0  0  0  0
  9 25  1  0  0  0  0
 10  9  2  0  0  0  0
 10 26  1  0  0  0  0
 11  1  1  0  0  0  0
 11 27  1  0  0  0  0
 11 28  1  0  0  0  0
 12 11  1  0  0  0  0
 12 19  1  0  0  0  0
 12 29  1  1  0  0  0
 13 30  1  0  0  0  0
 13 31  1  0  0  0  0
 13 32  1  0  0  0  0
 14 13  1  0  0  0  0
 14 15  1  0  0  0  0
 14 16  2  0  0  0  0
 15 12  1  0  0  0  0
 15 33  1  0  0  0  0
 17 34  1  0  0  0  0
 18 35  1  0  0  0  0
 19 17  1  0  0  0  0
 19 18  1  0  0  0  0
M  END
