3vhu_ligand
 OpenBabel08222323353D

 61 65  0  0  1  0  0  0  0  0999 V2000
   20.4060   11.1410   -0.7490 C   0  0  0  0  0  0  0  0  0  0  0  0
   17.3590   13.2880   -0.1940 C   0  0  0  0  0  0  0  0  0  0  0  0
   18.7590   12.9370   -0.6750 C   0  0  1  0  0  0  0  0  0  0  0  0
   18.3130   16.2810    2.1040 C   0  0  1  0  0  0  0  0  0  0  0  0
   19.6550   12.9910    0.5530 C   0  0  1  0  0  0  0  0  0  0  0  0
   16.9060   16.5190    2.6230 C   0  0  0  0  0  0  0  0  0  0  0  0
   17.3460   14.6820    0.4020 C   0  0  0  0  0  0  0  0  0  0  0  0
   20.9110   12.2480    0.1590 C   0  0  0  0  0  0  0  0  0  0  0  0
   18.9730   11.4990   -1.1290 C   0  0  2  0  0  0  0  0  0  0  0  0
   19.1930   13.8800   -1.8060 C   0  0  0  0  0  0  0  0  0  0  0  0
   18.6600   17.3230    1.0510 C   0  0  0  0  0  0  0  0  0  0  0  0
   16.8240   17.8240    3.3910 C   0  0  0  0  0  0  0  0  0  0  0  0
   17.9430   10.5560   -0.5400 C   0  0  0  0  0  0  0  0  0  0  0  0
   16.9540   10.3230   -1.6410 C   0  0  0  0  0  0  0  0  0  0  0  0
   17.6710   10.8220   -2.8470 C   0  0  0  0  0  0  0  0  0  0  0  0
   21.5980   13.1350    4.7090 C   0  0  0  0  0  0  0  0  0  0  0  0
   21.5090   12.0230    5.7000 C   0  0  0  0  0  0  0  0  0  0  0  0
   17.8070   17.8040    4.5130 C   0  0  0  0  0  0  0  0  0  0  0  0
   19.1280   17.1700    4.3110 C   0  0  0  0  0  0  0  0  0  0  0  0
   19.3290   16.4630    3.1890 C   0  0  0  0  0  0  0  0  0  0  0  0
   20.6780   15.8510    2.9930 C   0  0  0  0  0  0  0  0  0  0  0  0
   20.6810   14.4600    2.3750 C   0  0  2  0  0  0  0  0  0  0  0  0
   19.7570   14.3820    1.1650 C   0  0  2  0  0  0  0  0  0  0  0  0
   18.3460   14.8470    1.5510 C   0  0  1  0  0  0  0  0  0  0  0  0
   17.2450   10.7610   -3.9800 O   0  0  0  0  0  0  0  0  0  0  0  0
   18.8750   11.3500   -2.5300 O   0  0  0  0  0  0  0  0  0  0  0  0
   22.5820   13.8560    4.6720 O   0  0  0  0  0  0  0  0  0  0  0  0
   17.5680   18.3570    5.5730 O   0  0  0  0  0  0  0  0  0  0  0  0
   20.1680   13.3110    3.6740 S   0  0  0  0  0  0  0  0  0  0  0  0
   20.4272   10.1775   -0.2187 H   0  0  0  0  0  0  0  0  0  0  0  0
   21.0318   11.0768   -1.6513 H   0  0  0  0  0  0  0  0  0  0  0  0
   17.0447   12.5626    0.5709 H   0  0  0  0  0  0  0  0  0  0  0  0
   16.6621   13.2496   -1.0442 H   0  0  0  0  0  0  0  0  0  0  0  0
   19.1761   12.3824    1.3342 H   0  0  0  0  0  0  0  0  0  0  0  0
   16.6235   15.6909    3.2897 H   0  0  0  0  0  0  0  0  0  0  0  0
   16.2103   16.5582    1.7718 H   0  0  0  0  0  0  0  0  0  0  0  0
   16.3356   14.8918    0.7829 H   0  0  0  0  0  0  0  0  0  0  0  0
   17.5971   15.4044   -0.3886 H   0  0  0  0  0  0  0  0  0  0  0  0
   21.6056   12.9100   -0.3789 H   0  0  0  0  0  0  0  0  0  0  0  0
   21.4134   11.8305    1.0440 H   0  0  0  0  0  0  0  0  0  0  0  0
   19.0436   14.9233   -1.4911 H   0  0  0  0  0  0  0  0  0  0  0  0
   18.5900   13.6780   -2.7035 H   0  0  0  0  0  0  0  0  0  0  0  0
   20.2564   13.7145   -2.0337 H   0  0  0  0  0  0  0  0  0  0  0  0
   19.6800   17.1440    0.6802 H   0  0  0  0  0  0  0  0  0  0  0  0
   18.6027   18.3273    1.4961 H   0  0  0  0  0  0  0  0  0  0  0  0
   17.9483   17.2511    0.2154 H   0  0  0  0  0  0  0  0  0  0  0  0
   15.8086   17.9481    3.7955 H   0  0  0  0  0  0  0  0  0  0  0  0
   17.0549   18.6615    2.7163 H   0  0  0  0  0  0  0  0  0  0  0  0
   17.4513   11.0155    0.3301 H   0  0  0  0  0  0  0  0  0  0  0  0
   18.4143    9.6093   -0.2373 H   0  0  0  0  0  0  0  0  0  0  0  0
   16.0285   10.8917   -1.4679 H   0  0  0  0  0  0  0  0  0  0  0  0
   16.7147    9.2537   -1.7377 H   0  0  0  0  0  0  0  0  0  0  0  0
   22.4333   11.9876    6.2953 H   0  0  0  0  0  0  0  0  0  0  0  0
   21.3780   11.0685    5.1693 H   0  0  0  0  0  0  0  0  0  0  0  0
   20.6502   12.1932    6.3660 H   0  0  0  0  0  0  0  0  0  0  0  0
   19.9171   17.2745    5.0541 H   0  0  0  0  0  0  0  0  0  0  0  0
   21.1673   15.7865    3.9760 H   0  0  0  0  0  0  0  0  0  0  0  0
   21.2597   16.5150    2.3367 H   0  0  0  0  0  0  0  0  0  0  0  0
   21.7012   14.2091    2.0491 H   0  0  0  0  0  0  0  0  0  0  0  0
   20.1553   15.0616    0.3972 H   0  0  0  0  0  0  0  0  0  0  0  0
   18.0113   14.1860    2.3640 H   0  0  0  0  0  0  0  0  0  0  0  0
  1  9  1  0  0  0  0
  1 30  1  0  0  0  0
  1 31  1  0  0  0  0
  2  7  1  0  0  0  0
  2 32  1  0  0  0  0
  2 33  1  0  0  0  0
  3  2  1  0  0  0  0
  3  9  1  0  0  0  0
  3 10  1  6  0  0  0
  4  6  1  0  0  0  0
  4 11  1  6  0  0  0
  4 24  1  0  0  0  0
  5  3  1  0  0  0  0
  5  8  1  0  0  0  0
  5 34  1  1  0  0  0
  6 12  1  0  0  0  0
  6 35  1  0  0  0  0
  6 36  1  0  0  0  0
  7 37  1  0  0  0  0
  7 38  1  0  0  0  0
  8  1  1  0  0  0  0
  8 39  1  0  0  0  0
  8 40  1  0  0  0  0
  9 13  1  0  0  0  0
  9 26  1  6  0  0  0
 10 41  1  0  0  0  0
 10 42  1  0  0  0  0
 10 43  1  0  0  0  0
 11 44  1  0  0  0  0
 11 45  1  0  0  0  0
 11 46  1  0  0  0  0
 12 47  1  0  0  0  0
 12 48  1  0  0  0  0
 13 14  1  0  0  0  0
 13 49  1  0  0  0  0
 13 50  1  0  0  0  0
 14 51  1  0  0  0  0
 14 52  1  0  0  0  0
 15 14  1  0  0  0  0
 15 25  2  0  0  0  0
 16 17  1  0  0  0  0
 16 27  2  0  0  0  0
 17 53  1  0  0  0  0
 17 54  1  0  0  0  0
 17 55  1  0  0  0  0
 18 12  1  0  0  0  0
 18 28  2  0  0  0  0
 19 18  1  0  0  0  0
 19 56  1  0  0  0  0
 20  4  1  0  0  0  0
 20 19  2  0  0  0  0
 21 20  1  0  0  0  0
 21 57  1  0  0  0  0
 21 58  1  0  0  0  0
 22 21  1  0  0  0  0
 22 23  1  0  0  0  0
 22 29  1  0  0  0  0
 22 59  1  6  0  0  0
 23  5  1  0  0  0  0
 23 24  1  0  0  0  0
 23 60  1  6  0  0  0
 24  7  1  0  0  0  0
 24 61  1  1  0  0  0
 26 15  1  0  0  0  0
 29 16  1  0  0  0  0
M  END
