3vi5_ligand
 OpenBabel08222323353D

 46 49  0  0  0  0  0  0  0  0999 V2000
   25.0190    5.1200   66.3190 C   0  0  0  0  0  0  0  0  0  0  0  0
   25.9850    0.1350   67.5030 N   0  0  0  0  0  0  0  0  0  0  0  0
   25.9130    2.4050   68.5800 O   0  0  0  0  0  0  0  0  0  0  0  0
   25.8480   -1.7480   65.2010 S   0  0  0  0  0  0  0  0  0  0  0  0
   24.7870    6.5040   66.3010 C   0  0  0  0  0  0  0  0  0  0  0  0
   24.7590    2.5920   62.7060 N   0  0  0  0  0  0  0  0  0  0  0  0
   27.0990   -2.1430   65.9470 O   0  0  0  0  0  1  0  0  0  0  0  0
   22.0900    1.1170   57.8430 S   0  0  0  0  0  0  0  0  0  0  0  0
   24.8590    7.2560   67.4740 C   0  0  0  0  0  0  0  0  0  0  0  0
   20.8680    0.2980   58.1250 N   0  0  0  0  0  0  0  0  0  0  0  0
   24.8210   -2.5290   65.9150 O   0  0  0  0  0  1  0  0  0  0  0  0
   25.2220    6.6390   68.6800 C   0  0  0  0  0  0  0  0  0  0  0  0
   25.7960   -2.2800   63.7890 O   0  0  0  0  0  1  0  0  0  0  0  0
   25.4660    5.2520   68.6870 C   0  0  0  0  0  0  0  0  0  0  0  0
   25.3600    4.4820   67.5170 C   0  0  0  0  0  0  0  0  0  0  0  0
   21.6980    2.3950   57.1670 O   0  0  0  0  0  0  0  0  0  0  0  0
   25.6090    3.0030   67.5320 C   0  0  0  0  0  0  0  0  0  0  0  0
   24.6460    5.0120   64.0050 O   0  0  0  0  0  0  0  0  0  0  0  0
   25.4940    2.1730   66.3090 C   0  0  0  0  0  0  0  0  0  0  0  0
   22.9930    0.3690   56.9190 O   0  0  0  0  0  0  0  0  0  0  0  0
   25.6920    0.6910   66.3300 C   0  0  0  0  0  0  0  0  0  0  0  0
   25.5900   -0.1000   65.1800 C   0  0  0  0  0  0  0  0  0  0  0  0
   25.2610    0.5700   63.9840 C   0  0  0  0  0  0  0  0  0  0  0  0
   25.0510    1.9620   63.8710 C   0  0  0  0  0  0  0  0  0  0  0  0
   24.1790    2.1190   61.5880 C   0  0  0  0  0  0  0  0  0  0  0  0
   23.4860    3.0950   60.8640 C   0  0  0  0  0  0  0  0  0  0  0  0
   22.8270    2.7750   59.6870 C   0  0  0  0  0  0  0  0  0  0  0  0
   22.8720    1.4490   59.2220 C   0  0  0  0  0  0  0  0  0  0  0  0
   23.5830    0.4580   59.9550 C   0  0  0  0  0  0  0  0  0  0  0  0
   24.2490    0.7870   61.1530 C   0  0  0  0  0  0  0  0  0  0  0  0
   25.1690    2.8560   65.0520 C   0  0  0  0  0  0  0  0  0  0  0  0
   24.9270    4.3520   65.0520 C   0  0  0  0  0  0  0  0  0  0  0  0
   26.0590    0.7212   68.3467 H   0  0  0  0  0  0  0  0  0  0  0  0
   26.1378   -0.8816   67.5672 H   0  0  0  0  0  0  0  0  0  0  0  0
   24.5489    6.9948   65.3642 H   0  0  0  0  0  0  0  0  0  0  0  0
   25.0222    3.5872   62.6719 H   0  0  0  0  0  0  0  0  0  0  0  0
   24.6345    8.3163   67.4532 H   0  0  0  0  0  0  0  0  0  0  0  0
   20.1560    0.6543   58.7301 H   0  0  0  0  0  0  0  0  0  0  0  0
   20.7642   -0.6051   57.7082 H   0  0  0  0  0  0  0  0  0  0  0  0
   25.3132    7.2196   69.5909 H   0  0  0  0  0  0  0  0  0  0  0  0
   25.7419    4.7675   69.6166 H   0  0  0  0  0  0  0  0  0  0  0  0
   25.1619   -0.0273   63.0848 H   0  0  0  0  0  0  0  0  0  0  0  0
   23.4640    4.1157   61.2284 H   0  0  0  0  0  0  0  0  0  0  0  0
   22.2860    3.5346   59.1344 H   0  0  0  0  0  0  0  0  0  0  0  0
   23.6128   -0.5615   59.5879 H   0  0  0  0  0  0  0  0  0  0  0  0
   24.7946    0.0391   61.7169 H   0  0  0  0  0  0  0  0  0  0  0  0
  1  5  2  0  0  0  0
  1 32  1  0  0  0  0
  2 33  1  0  0  0  0
  2 34  1  0  0  0  0
  4  7  1  0  0  0  0
  4 11  1  0  0  0  0
  4 13  1  0  0  0  0
  5  9  1  0  0  0  0
  5 35  1  0  0  0  0
  6 24  1  0  0  0  0
  6 36  1  0  0  0  0
  8 10  1  0  0  0  0
  8 16  2  0  0  0  0
  8 20  2  0  0  0  0
  9 37  1  0  0  0  0
 10 38  1  0  0  0  0
 10 39  1  0  0  0  0
 12  9  2  0  0  0  0
 12 40  1  0  0  0  0
 14 12  1  0  0  0  0
 14 41  1  0  0  0  0
 15  1  1  0  0  0  0
 15 14  2  0  0  0  0
 17  3  2  0  0  0  0
 17 15  1  0  0  0  0
 19 17  1  0  0  0  0
 19 21  2  0  0  0  0
 21  2  1  0  0  0  0
 22  4  1  0  0  0  0
 22 21  1  0  0  0  0
 23 22  2  0  0  0  0
 23 42  1  0  0  0  0
 24 23  1  0  0  0  0
 24 31  2  0  0  0  0
 25  6  1  0  0  0  0
 25 30  1  0  0  0  0
 26 25  2  0  0  0  0
 26 43  1  0  0  0  0
 27 26  1  0  0  0  0
 27 28  2  0  0  0  0
 27 44  1  0  0  0  0
 28  8  1  0  0  0  0
 28 29  1  0  0  0  0
 29 30  2  0  0  0  0
 29 45  1  0  0  0  0
 30 46  1  0  0  0  0
 31 19  1  0  0  0  0
 31 32  1  0  0  0  0
 32 18  2  0  0  0  0
M  END
