3vid_ligand
 OpenBabel08222323353D

 30 33  0  0  0  0  0  0  0  0999 V2000
   -1.3620   19.9310  -28.5670 C   0  0  0  0  0  0  0  0  0  0  0  0
   -0.1970   17.7050  -29.1820 C   0  0  0  0  0  0  0  0  0  0  0  0
   -2.2100   16.6350  -31.3580 C   0  0  0  0  0  0  0  0  0  0  0  0
   -0.4890   20.4680  -27.6210 C   0  0  0  0  0  0  0  0  0  0  0  0
   -3.0710   16.0200  -32.2650 C   0  0  0  0  0  0  0  0  0  0  0  0
   -2.8150   21.8490  -28.3520 C   0  0  0  0  0  0  0  0  0  0  0  0
   -1.9530   22.3900  -27.3970 C   0  0  0  0  0  0  0  0  0  0  0  0
   -3.1710   19.8810  -29.8720 N   0  0  0  0  0  0  0  0  0  0  0  0
   -2.5240   20.6150  -28.9460 C   0  0  0  0  0  0  0  0  0  0  0  0
   -0.7940   21.6980  -27.0280 C   0  0  0  0  0  0  0  0  0  0  0  0
   -2.4310   18.7850  -30.0720 C   0  0  0  0  0  0  0  0  0  0  0  0
   -2.8660   17.8170  -30.9880 C   0  0  0  0  0  0  0  0  0  0  0  0
   -4.0590   17.9710  -31.5940 N   0  0  0  0  0  0  0  0  0  0  0  0
   -4.1510   16.8190  -32.3890 N   0  0  0  0  0  0  0  0  0  0  0  0
   -1.2860   18.7420  -29.2780 C   0  0  0  0  0  0  0  0  0  0  0  0
    0.1100   17.1470  -30.5570 C   0  0  0  0  0  0  0  0  0  0  0  0
   -0.8870   16.0590  -30.9160 C   0  0  0  0  0  0  0  0  0  0  0  0
   -0.5283   16.8887  -28.5233 H   0  0  0  0  0  0  0  0  0  0  0  0
    0.7103   18.1670  -28.7655 H   0  0  0  0  0  0  0  0  0  0  0  0
    0.4163   19.9379  -27.3481 H   0  0  0  0  0  0  0  0  0  0  0  0
   -2.9037   15.0735  -32.7769 H   0  0  0  0  0  0  0  0  0  0  0  0
   -3.7131   22.3861  -28.6349 H   0  0  0  0  0  0  0  0  0  0  0  0
   -2.1813   23.3465  -26.9409 H   0  0  0  0  0  0  0  0  0  0  0  0
   -4.0603   20.1173  -30.3348 H   0  0  0  0  0  0  0  0  0  0  0  0
   -0.1302   22.1164  -26.2801 H   0  0  0  0  0  0  0  0  0  0  0  0
   -4.7350   18.7422  -31.4977 H   0  0  0  0  0  0  0  0  0  0  0  0
    1.1255   16.7243  -30.5592 H   0  0  0  0  0  0  0  0  0  0  0  0
    0.0480   17.9561  -31.2997 H   0  0  0  0  0  0  0  0  0  0  0  0
   -0.4720   15.4516  -31.7338 H   0  0  0  0  0  0  0  0  0  0  0  0
   -1.0525   15.4227  -30.0341 H   0  0  0  0  0  0  0  0  0  0  0  0
  1  4  2  0  0  0  0
  1 15  1  0  0  0  0
  2 16  1  0  0  0  0
  2 18  1  0  0  0  0
  2 19  1  0  0  0  0
  3  5  1  0  0  0  0
  3 17  1  0  0  0  0
  4 10  1  0  0  0  0
  4 20  1  0  0  0  0
  5 14  2  0  0  0  0
  5 21  1  0  0  0  0
  6  7  1  0  0  0  0
  6 22  1  0  0  0  0
  7 10  2  0  0  0  0
  7 23  1  0  0  0  0
  8  9  1  0  0  0  0
  8 24  1  0  0  0  0
  9  1  1  0  0  0  0
  9  6  2  0  0  0  0
 10 25  1  0  0  0  0
 11  8  1  0  0  0  0
 11 12  1  0  0  0  0
 11 15  2  0  0  0  0
 12  3  2  0  0  0  0
 12 13  1  0  0  0  0
 13 14  1  0  0  0  0
 13 26  1  0  0  0  0
 15  2  1  0  0  0  0
 16 17  1  0  0  0  0
 16 27  1  0  0  0  0
 16 28  1  0  0  0  0
 17 29  1  0  0  0  0
 17 30  1  0  0  0  0
M  END
