3vrt_ligand
 OpenBabel08222323353D

 65 67  0  0  1  0  0  0  0  0999 V2000
   10.5150   -5.7840   27.3870 O   0  0  0  0  0  0  0  0  0  0  0  0
   11.3990   -4.7380   26.9680 C   0  0  0  0  0  0  0  0  0  0  0  0
   12.6790   -4.7920   27.7930 C   0  0  0  0  0  0  0  0  0  0  0  0
   13.0560   -3.4090   28.3090 C   0  0  0  0  0  0  0  0  0  0  0  0
   12.9010   -2.3580   27.2160 C   0  0  1  0  0  0  0  0  0  0  0  0
   11.6970   -1.4630   27.4860 C   0  0  0  0  0  0  0  0  0  0  0  0
   14.1710   -1.5330   27.0690 C   0  0  2  0  0  0  0  0  0  0  0  0
   13.8780   -0.1120   26.6220 C   0  0  1  0  0  0  0  0  0  0  0  0
   12.7160   -0.1280   25.6400 C   0  0  0  0  0  0  0  0  0  0  0  0
   13.6220    0.9070   27.7130 C   0  0  0  0  0  0  0  0  0  0  0  0
   13.2640    2.2420   27.0510 C   0  0  0  0  0  0  0  0  0  0  0  0
   14.1790    2.6790   25.8960 C   0  0  0  0  0  0  0  0  0  0  0  0
   15.1040   -2.1020   26.0000 C   0  0  0  0  0  0  0  0  0  0  0  0
   15.5780   -0.9280   25.1400 C   0  0  0  0  0  0  0  0  0  0  0  0
   15.1460    0.3000   25.9240 C   0  0  1  0  0  0  0  0  0  0  0  0
   14.7900    1.5170   25.1390 C   0  0  0  0  0  0  0  0  0  0  0  0
   15.0020    1.5810   23.8180 C   0  0  0  0  0  0  0  0  0  0  0  0
   14.6430    2.7870   23.0780 C   0  0  0  0  0  0  0  0  0  0  0  0
   14.2220    2.6940   21.8090 C   0  0  0  0  0  0  0  0  0  0  0  0
   13.8500    3.9410   21.0430 C   0  0  0  0  0  0  0  0  0  0  0  0
   14.1190    1.3420   21.1450 C   0  0  0  0  0  0  0  0  0  0  0  0
   14.8550    1.3740   19.8100 C   0  0  1  0  0  0  0  0  0  0  0  0
   14.5020    0.2180   19.0430 O   0  0  0  0  0  0  0  0  0  0  0  0
   14.4680    2.6120   19.0560 C   0  0  0  0  0  0  0  0  0  0  0  0
   14.0220    2.5180   17.8180 C   0  0  0  0  0  0  0  0  0  0  0  0
   14.5880    3.9570   19.7100 C   0  0  2  0  0  0  0  0  0  0  0  0
   15.9700    4.2580   19.9330 O   0  0  0  0  0  0  0  0  0  0  0  0
   10.9385   -6.6249   27.2600 H   0  0  0  0  0  0  0  0  0  0  0  0
   10.9095   -3.7639   27.1145 H   0  0  0  0  0  0  0  0  0  0  0  0
   11.6434   -4.8692   25.9036 H   0  0  0  0  0  0  0  0  0  0  0  0
   13.4959   -5.1762   27.1645 H   0  0  0  0  0  0  0  0  0  0  0  0
   12.5269   -5.4659   28.6490 H   0  0  0  0  0  0  0  0  0  0  0  0
   14.1024   -3.4242   28.6477 H   0  0  0  0  0  0  0  0  0  0  0  0
   12.4009   -3.1491   29.1536 H   0  0  0  0  0  0  0  0  0  0  0  0
   12.7263   -2.8823   26.2649 H   0  0  0  0  0  0  0  0  0  0  0  0
   11.6087   -0.7154   26.6839 H   0  0  0  0  0  0  0  0  0  0  0  0
   11.8292   -0.9516   28.4509 H   0  0  0  0  0  0  0  0  0  0  0  0
   10.7842   -2.0760   27.5179 H   0  0  0  0  0  0  0  0  0  0  0  0
   14.6871   -1.5168   28.0403 H   0  0  0  0  0  0  0  0  0  0  0  0
   12.4988    0.8993   25.3123 H   0  0  0  0  0  0  0  0  0  0  0  0
   11.8273   -0.5520   26.1303 H   0  0  0  0  0  0  0  0  0  0  0  0
   12.9818   -0.7427   24.7674 H   0  0  0  0  0  0  0  0  0  0  0  0
   14.5256    1.0277   28.3285 H   0  0  0  0  0  0  0  0  0  0  0  0
   12.7884    0.5712   28.3473 H   0  0  0  0  0  0  0  0  0  0  0  0
   13.2995    3.0232   27.8245 H   0  0  0  0  0  0  0  0  0  0  0  0
   12.2396    2.1608   26.6586 H   0  0  0  0  0  0  0  0  0  0  0  0
   14.9932    3.2925   26.3092 H   0  0  0  0  0  0  0  0  0  0  0  0
   13.5872    3.2815   25.1912 H   0  0  0  0  0  0  0  0  0  0  0  0
   14.5639   -2.8307   25.3778 H   0  0  0  0  0  0  0  0  0  0  0  0
   15.9661   -2.5931   26.4751 H   0  0  0  0  0  0  0  0  0  0  0  0
   15.0977   -0.9491   24.1506 H   0  0  0  0  0  0  0  0  0  0  0  0
   16.6710   -0.9492   25.0176 H   0  0  0  0  0  0  0  0  0  0  0  0
   15.9349    0.5598   26.6452 H   0  0  0  0  0  0  0  0  0  0  0  0
   15.4424    0.7329   23.2958 H   0  0  0  0  0  0  0  0  0  0  0  0
   14.7173    3.7622   23.5570 H   0  0  0  0  0  0  0  0  0  0  0  0
   14.1313    4.8287   21.6285 H   0  0  0  0  0  0  0  0  0  0  0  0
   12.7651    3.9500   20.8616 H   0  0  0  0  0  0  0  0  0  0  0  0
   13.0603    1.0971   20.9742 H   0  0  0  0  0  0  0  0  0  0  0  0
   14.5717    0.5788   21.7950 H   0  0  0  0  0  0  0  0  0  0  0  0
   15.9403    1.3779   19.9893 H   0  0  0  0  0  0  0  0  0  0  0  0
   13.5646    0.2159   18.8886 H   0  0  0  0  0  0  0  0  0  0  0  0
   13.7411    3.4166   17.2707 H   0  0  0  0  0  0  0  0  0  0  0  0
   13.9347    1.5418   17.3433 H   0  0  0  0  0  0  0  0  0  0  0  0
   14.1469    4.7234   19.0558 H   0  0  0  0  0  0  0  0  0  0  0  0
   16.0446    5.1097   20.3471 H   0  0  0  0  0  0  0  0  0  0  0  0
  1  2  1  0  0  0  0
  1 28  1  0  0  0  0
  2  3  1  0  0  0  0
  2 29  1  0  0  0  0
  2 30  1  0  0  0  0
  3  4  1  0  0  0  0
  3 31  1  0  0  0  0
  3 32  1  0  0  0  0
  4  5  1  0  0  0  0
  4 33  1  0  0  0  0
  4 34  1  0  0  0  0
  5  6  1  0  0  0  0
  5  7  1  0  0  0  0
  5 35  1  6  0  0  0
  6 36  1  0  0  0  0
  6 37  1  0  0  0  0
  6 38  1  0  0  0  0
  7  8  1  0  0  0  0
  7 13  1  0  0  0  0
  7 39  1  1  0  0  0
  8  9  1  6  0  0  0
  8 10  1  0  0  0  0
  8 15  1  0  0  0  0
  9 40  1  0  0  0  0
  9 41  1  0  0  0  0
  9 42  1  0  0  0  0
 10 11  1  0  0  0  0
 10 43  1  0  0  0  0
 10 44  1  0  0  0  0
 11 12  1  0  0  0  0
 11 45  1  0  0  0  0
 11 46  1  0  0  0  0
 12 16  1  0  0  0  0
 12 47  1  0  0  0  0
 12 48  1  0  0  0  0
 13 14  1  0  0  0  0
 13 49  1  0  0  0  0
 13 50  1  0  0  0  0
 14 15  1  0  0  0  0
 14 51  1  0  0  0  0
 14 52  1  0  0  0  0
 15 16  1  0  0  0  0
 15 53  1  1  0  0  0
 16 17  2  0  0  0  0
 17 18  1  0  0  0  0
 17 54  1  0  0  0  0
 18 19  2  0  0  0  0
 18 55  1  0  0  0  0
 19 20  1  0  0  0  0
 19 21  1  0  0  0  0
 20 26  1  0  0  0  0
 20 56  1  0  0  0  0
 20 57  1  0  0  0  0
 21 22  1  0  0  0  0
 21 58  1  0  0  0  0
 21 59  1  0  0  0  0
 22 23  1  0  0  0  0
 22 24  1  0  0  0  0
 22 60  1  1  0  0  0
 23 61  1  0  0  0  0
 24 25  2  0  0  0  0
 24 26  1  0  0  0  0
 25 62  1  0  0  0  0
 25 63  1  0  0  0  0
 26 27  1  0  0  0  0
 26 64  1  6  0  0  0
 27 65  1  0  0  0  0
M  END
