3vru_ligand
 OpenBabel08222323353D

 73 75  0  0  1  0  0  0  0  0999 V2000
  -11.9620   19.4710   -7.4140 O   0  0  0  0  0  0  0  0  0  0  0  0
  -11.4210   20.5210   -6.6390 C   0  0  0  0  0  0  0  0  0  0  0  0
  -10.0270   20.8420   -7.1020 C   0  0  0  0  0  0  0  0  0  0  0  0
  -11.3550   20.0000   -5.1770 C   0  0  0  0  0  0  0  0  0  0  0  0
  -12.3050   21.7910   -6.8870 C   0  0  0  0  0  0  0  0  0  0  0  0
  -13.5710   21.9660   -6.0600 C   0  0  0  0  0  0  0  0  0  0  0  0
  -14.5560   22.8230   -6.8340 C   0  0  1  0  0  0  0  0  0  0  0  0
  -15.2130   22.0500   -7.9950 C   0  0  0  0  0  0  0  0  0  0  0  0
  -15.6920   23.4790   -6.0040 C   0  0  1  0  0  0  0  0  0  0  0  0
  -16.2600   22.6260   -4.8310 C   0  0  0  0  0  0  0  0  0  0  0  0
  -17.0250   23.6570   -3.9660 C   0  0  0  0  0  0  0  0  0  0  0  0
  -16.7790   24.9840   -4.6930 C   0  0  2  0  0  0  0  0  0  0  0  0
  -15.3950   24.8520   -5.3460 C   0  0  1  0  0  0  0  0  0  0  0  0
  -14.1950   24.8090   -4.3840 C   0  0  0  0  0  0  0  0  0  0  0  0
  -15.2570   26.0270   -6.3760 C   0  0  0  0  0  0  0  0  0  0  0  0
  -15.5410   27.4340   -5.7610 C   0  0  0  0  0  0  0  0  0  0  0  0
  -16.8420   27.4790   -4.8990 C   0  0  0  0  0  0  0  0  0  0  0  0
  -16.8910   26.2970   -3.9120 C   0  0  0  0  0  0  0  0  0  0  0  0
  -16.9600   26.4270   -2.5000 C   0  0  0  0  0  0  0  0  0  0  0  0
  -16.5560   27.6190   -1.8820 C   0  0  0  0  0  0  0  0  0  0  0  0
  -16.5950   27.8120   -0.5050 C   0  0  2  0  0  0  0  0  0  0  0  0
  -16.3630   29.2230    0.0510 C   0  0  0  0  0  0  0  0  0  0  0  0
  -16.1530   26.6870    0.4400 C   0  0  0  0  0  0  0  0  0  0  0  0
  -16.9160   26.7950    1.7760 C   0  0  1  0  0  0  0  0  0  0  0  0
  -16.5560   25.7980    2.6850 O   0  0  0  0  0  0  0  0  0  0  0  0
  -16.5550   28.1410    2.3550 C   0  0  0  0  0  0  0  0  0  0  0  0
  -16.0200   28.2940    3.6070 C   0  0  0  0  0  0  0  0  0  0  0  0
  -16.9460   29.3370    1.5010 C   0  0  2  0  0  0  0  0  0  0  0  0
  -18.3770   29.2630    1.4850 O   0  0  0  0  0  0  0  0  0  0  0  0
  -11.9894   19.7340   -8.3265 H   0  0  0  0  0  0  0  0  0  0  0  0
   -9.6172   21.6601   -6.4915 H   0  0  0  0  0  0  0  0  0  0  0  0
  -10.0530   21.1499   -8.1577 H   0  0  0  0  0  0  0  0  0  0  0  0
   -9.3909   19.9509   -6.9955 H   0  0  0  0  0  0  0  0  0  0  0  0
  -10.9383   20.7835   -4.5270 H   0  0  0  0  0  0  0  0  0  0  0  0
  -10.7126   19.1081   -5.1342 H   0  0  0  0  0  0  0  0  0  0  0  0
  -12.3673   19.7395   -4.8345 H   0  0  0  0  0  0  0  0  0  0  0  0
  -12.6073   21.7751   -7.9445 H   0  0  0  0  0  0  0  0  0  0  0  0
  -11.6707   22.6700   -6.7001 H   0  0  0  0  0  0  0  0  0  0  0  0
  -13.3238   22.4581   -5.1078 H   0  0  0  0  0  0  0  0  0  0  0  0
  -14.0184   20.9815   -5.8587 H   0  0  0  0  0  0  0  0  0  0  0  0
  -13.9663   23.6426   -7.2705 H   0  0  0  0  0  0  0  0  0  0  0  0
  -15.9159   22.7105   -8.5239 H   0  0  0  0  0  0  0  0  0  0  0  0
  -15.7563   21.1808   -7.5958 H   0  0  0  0  0  0  0  0  0  0  0  0
  -14.4356   21.7073   -8.6937 H   0  0  0  0  0  0  0  0  0  0  0  0
  -16.5097   23.6352   -6.7230 H   0  0  0  0  0  0  0  0  0  0  0  0
  -15.4470   22.1580   -4.2565 H   0  0  0  0  0  0  0  0  0  0  0  0
  -16.9399   21.8467   -5.2058 H   0  0  0  0  0  0  0  0  0  0  0  0
  -16.6222   23.6883   -2.9429 H   0  0  0  0  0  0  0  0  0  0  0  0
  -18.0988   23.4211   -3.9303 H   0  0  0  0  0  0  0  0  0  0  0  0
  -17.5328   25.0490   -5.4915 H   0  0  0  0  0  0  0  0  0  0  0  0
  -13.2644   24.7137   -4.9627 H   0  0  0  0  0  0  0  0  0  0  0  0
  -14.2969   23.9465   -3.7090 H   0  0  0  0  0  0  0  0  0  0  0  0
  -14.1657   25.7360   -3.7926 H   0  0  0  0  0  0  0  0  0  0  0  0
  -15.9695   25.8558   -7.1964 H   0  0  0  0  0  0  0  0  0  0  0  0
  -14.2315   26.0220   -6.7739 H   0  0  0  0  0  0  0  0  0  0  0  0
  -15.6402   28.1602   -6.5812 H   0  0  0  0  0  0  0  0  0  0  0  0
  -14.6897   27.7149   -5.1235 H   0  0  0  0  0  0  0  0  0  0  0  0
  -17.7164   27.4285   -5.5644 H   0  0  0  0  0  0  0  0  0  0  0  0
  -16.8660   28.4217   -4.3327 H   0  0  0  0  0  0  0  0  0  0  0  0
  -17.3275   25.5991   -1.8955 H   0  0  0  0  0  0  0  0  0  0  0  0
  -17.1820   28.4123   -2.3165 H   0  0  0  0  0  0  0  0  0  0  0  0
  -15.5085   27.7742   -2.1796 H   0  0  0  0  0  0  0  0  0  0  0  0
  -17.6838   27.7405   -0.3658 H   0  0  0  0  0  0  0  0  0  0  0  0
  -16.8619   29.9563   -0.5996 H   0  0  0  0  0  0  0  0  0  0  0  0
  -15.2830   29.4303    0.0765 H   0  0  0  0  0  0  0  0  0  0  0  0
  -15.0727   26.7724    0.6288 H   0  0  0  0  0  0  0  0  0  0  0  0
  -16.3681   25.7138   -0.0254 H   0  0  0  0  0  0  0  0  0  0  0  0
  -17.9984   26.7363    1.5889 H   0  0  0  0  0  0  0  0  0  0  0  0
  -15.6273   25.8635    2.8738 H   0  0  0  0  0  0  0  0  0  0  0  0
  -15.7771   29.2888    3.9775 H   0  0  0  0  0  0  0  0  0  0  0  0
  -15.8377   27.4208    4.2316 H   0  0  0  0  0  0  0  0  0  0  0  0
  -16.6035   30.2765    1.9592 H   0  0  0  0  0  0  0  0  0  0  0  0
  -18.7061   29.3241    2.3741 H   0  0  0  0  0  0  0  0  0  0  0  0
  1  2  1  0  0  0  0
  1 30  1  0  0  0  0
  2  3  1  0  0  0  0
  2  4  1  0  0  0  0
  2  5  1  0  0  0  0
  3 31  1  0  0  0  0
  3 32  1  0  0  0  0
  3 33  1  0  0  0  0
  4 34  1  0  0  0  0
  4 35  1  0  0  0  0
  4 36  1  0  0  0  0
  5  6  1  0  0  0  0
  5 37  1  0  0  0  0
  5 38  1  0  0  0  0
  6  7  1  0  0  0  0
  6 39  1  0  0  0  0
  6 40  1  0  0  0  0
  7  8  1  0  0  0  0
  7  9  1  0  0  0  0
  7 41  1  6  0  0  0
  8 42  1  0  0  0  0
  8 43  1  0  0  0  0
  8 44  1  0  0  0  0
  9 10  1  0  0  0  0
  9 13  1  0  0  0  0
  9 45  1  6  0  0  0
 10 11  1  0  0  0  0
 10 46  1  0  0  0  0
 10 47  1  0  0  0  0
 11 12  1  0  0  0  0
 11 48  1  0  0  0  0
 11 49  1  0  0  0  0
 12 13  1  0  0  0  0
 12 18  1  0  0  0  0
 12 50  1  6  0  0  0
 13 14  1  1  0  0  0
 13 15  1  0  0  0  0
 14 51  1  0  0  0  0
 14 52  1  0  0  0  0
 14 53  1  0  0  0  0
 15 16  1  0  0  0  0
 15 54  1  0  0  0  0
 15 55  1  0  0  0  0
 16 17  1  0  0  0  0
 16 56  1  0  0  0  0
 16 57  1  0  0  0  0
 17 18  1  0  0  0  0
 17 58  1  0  0  0  0
 17 59  1  0  0  0  0
 18 19  2  0  0  0  0
 19 20  1  0  0  0  0
 19 60  1  0  0  0  0
 20 21  1  0  0  0  0
 20 61  1  0  0  0  0
 20 62  1  0  0  0  0
 21 22  1  0  0  0  0
 21 23  1  0  0  0  0
 21 63  1  1  0  0  0
 22 28  1  0  0  0  0
 22 64  1  0  0  0  0
 22 65  1  0  0  0  0
 23 24  1  0  0  0  0
 23 66  1  0  0  0  0
 23 67  1  0  0  0  0
 24 25  1  0  0  0  0
 24 26  1  0  0  0  0
 24 68  1  6  0  0  0
 25 69  1  0  0  0  0
 26 27  2  0  0  0  0
 26 28  1  0  0  0  0
 27 70  1  0  0  0  0
 27 71  1  0  0  0  0
 28 29  1  0  0  0  0
 28 72  1  1  0  0  0
 29 73  1  0  0  0  0
M  END
