3vry_ligand
 OpenBabel08222323353D

 50 54  0  0  0  0  0  0  0  0999 V2000
    3.6810   -7.4130   12.3810 N   0  0  0  0  0  0  0  0  0  0  0  0
    4.4150   -8.4770   11.9780 C   0  0  0  0  0  0  0  0  0  0  0  0
    5.5920   -8.2980   11.3290 N   0  0  0  0  0  0  0  0  0  0  0  0
    6.3330   -9.3380   10.9240 C   0  0  0  0  0  0  0  0  0  0  0  0
    5.9230  -10.5960   11.1660 N   0  0  0  0  0  0  0  0  0  0  0  0
    4.7490  -10.8450   11.8180 C   0  0  0  0  0  0  0  0  0  0  0  0
    3.9680   -9.7610   12.2430 C   0  0  0  0  0  0  0  0  0  0  0  0
    4.1200  -11.9810   12.2030 N   0  0  0  0  0  0  0  0  0  0  0  0
    4.4160  -13.4330   12.0600 C   0  0  0  0  0  0  0  0  0  0  0  0
    4.6650  -13.9460   10.6600 C   0  0  0  0  0  0  0  0  0  0  0  0
    5.1480  -15.3670   10.9410 C   0  0  0  0  0  0  0  0  0  0  0  0
    5.8400  -15.3390   12.3100 C   0  0  0  0  0  0  0  0  0  0  0  0
    5.6010  -13.9490   12.8850 C   0  0  0  0  0  0  0  0  0  0  0  0
    2.9950  -11.6650   12.8200 C   0  0  0  0  0  0  0  0  0  0  0  0
    2.8560  -10.3030   12.9010 C   0  0  0  0  0  0  0  0  0  0  0  0
    1.6070   -9.7830   13.5170 C   0  0  0  0  0  0  0  0  0  0  0  0
    1.1270  -10.3220   14.7160 C   0  0  0  0  0  0  0  0  0  0  0  0
   -0.1050   -9.8910   15.2340 C   0  0  0  0  0  0  0  0  0  0  0  0
   -0.8630   -8.9490   14.5390 C   0  0  0  0  0  0  0  0  0  0  0  0
   -0.3890   -8.4640   13.3200 C   0  0  0  0  0  0  0  0  0  0  0  0
    0.8310   -8.8790   12.7960 C   0  0  0  0  0  0  0  0  0  0  0  0
   -2.0790   -8.4950   15.0140 O   0  0  0  0  0  0  0  0  0  0  0  0
   -2.2930   -8.1540   16.3270 C   0  0  0  0  0  0  0  0  0  0  0  0
   -3.4400   -8.5870   17.0050 C   0  0  0  0  0  0  0  0  0  0  0  0
   -3.6570   -8.2160   18.3380 C   0  0  0  0  0  0  0  0  0  0  0  0
   -2.7250   -7.3950   18.9880 C   0  0  0  0  0  0  0  0  0  0  0  0
   -1.5860   -6.9530   18.3080 C   0  0  0  0  0  0  0  0  0  0  0  0
   -1.3780   -7.3300   16.9820 C   0  0  0  0  0  0  0  0  0  0  0  0
    2.7883   -7.5600   12.8733 H   0  0  0  0  0  0  0  0  0  0  0  0
    4.0154   -6.4566   12.1953 H   0  0  0  0  0  0  0  0  0  0  0  0
    7.2659   -9.1652   10.3997 H   0  0  0  0  0  0  0  0  0  0  0  0
    3.5149  -13.9428   12.4316 H   0  0  0  0  0  0  0  0  0  0  0  0
    5.4359  -13.3535   10.1456 H   0  0  0  0  0  0  0  0  0  0  0  0
    3.7422  -13.9458   10.0614 H   0  0  0  0  0  0  0  0  0  0  0  0
    5.8587  -15.6857   10.1643 H   0  0  0  0  0  0  0  0  0  0  0  0
    4.2938  -16.0597   10.9629 H   0  0  0  0  0  0  0  0  0  0  0  0
    6.9184  -15.5226   12.1949 H   0  0  0  0  0  0  0  0  0  0  0  0
    5.4063  -16.1037   12.9711 H   0  0  0  0  0  0  0  0  0  0  0  0
    5.3455  -14.0019   13.9536 H   0  0  0  0  0  0  0  0  0  0  0  0
    6.4850  -13.3083   12.7506 H   0  0  0  0  0  0  0  0  0  0  0  0
    2.2779  -12.3859   13.2100 H   0  0  0  0  0  0  0  0  0  0  0  0
    1.7055  -11.0713   15.2442 H   0  0  0  0  0  0  0  0  0  0  0  0
   -0.4670  -10.2906   16.1744 H   0  0  0  0  0  0  0  0  0  0  0  0
   -0.9855   -7.7467   12.7679 H   0  0  0  0  0  0  0  0  0  0  0  0
    1.1733   -8.5034   11.8385 H   0  0  0  0  0  0  0  0  0  0  0  0
   -4.1636   -9.2127   16.4950 H   0  0  0  0  0  0  0  0  0  0  0  0
   -4.5399   -8.5615   18.8636 H   0  0  0  0  0  0  0  0  0  0  0  0
   -2.8875   -7.1025   20.0191 H   0  0  0  0  0  0  0  0  0  0  0  0
   -0.8657   -6.3181   18.8111 H   0  0  0  0  0  0  0  0  0  0  0  0
   -0.4975   -6.9797   16.4555 H   0  0  0  0  0  0  0  0  0  0  0  0
  1  2  1  0  0  0  0
  1 29  1  0  0  0  0
  1 30  1  0  0  0  0
  2  3  2  0  0  0  0
  2  7  1  0  0  0  0
  3  4  1  0  0  0  0
  4  5  2  0  0  0  0
  4 31  1  0  0  0  0
  5  6  1  0  0  0  0
  6  7  2  0  0  0  0
  6  8  1  0  0  0  0
  7 15  1  0  0  0  0
  8  9  1  0  0  0  0
  8 14  1  0  0  0  0
  9 10  1  0  0  0  0
  9 13  1  0  0  0  0
  9 32  1  0  0  0  0
 10 11  1  0  0  0  0
 10 33  1  0  0  0  0
 10 34  1  0  0  0  0
 11 12  1  0  0  0  0
 11 35  1  0  0  0  0
 11 36  1  0  0  0  0
 12 13  1  0  0  0  0
 12 37  1  0  0  0  0
 12 38  1  0  0  0  0
 13 39  1  0  0  0  0
 13 40  1  0  0  0  0
 14 15  2  0  0  0  0
 14 41  1  0  0  0  0
 15 16  1  0  0  0  0
 16 17  2  0  0  0  0
 16 21  1  0  0  0  0
 17 18  1  0  0  0  0
 17 42  1  0  0  0  0
 18 19  2  0  0  0  0
 18 43  1  0  0  0  0
 19 20  1  0  0  0  0
 19 22  1  0  0  0  0
 20 21  2  0  0  0  0
 20 44  1  0  0  0  0
 21 45  1  0  0  0  0
 22 23  1  0  0  0  0
 23 24  2  0  0  0  0
 23 28  1  0  0  0  0
 24 25  1  0  0  0  0
 24 46  1  0  0  0  0
 25 26  2  0  0  0  0
 25 47  1  0  0  0  0
 26 27  1  0  0  0  0
 26 48  1  0  0  0  0
 27 28  2  0  0  0  0
 27 49  1  0  0  0  0
 28 50  1  0  0  0  0
M  END
