3vs3_ligand
 OpenBabel08222323353D

 72 77  0  0  1  0  0  0  0  0999 V2000
    0.7620    2.2500   13.0380 N   0  0  0  0  0  0  0  0  0  0  0  0
   -0.0460    3.3260   12.9360 C   0  0  0  0  0  0  0  0  0  0  0  0
    0.4600    4.6200   13.0450 C   0  0  0  0  0  0  0  0  0  0  0  0
    1.7170    5.1730   13.2820 C   0  0  0  0  0  0  0  0  0  0  0  0
    3.0740    4.5740   13.4400 C   0  0  0  0  0  0  0  0  0  0  0  0
    3.9480    5.0830   14.3990 C   0  0  0  0  0  0  0  0  0  0  0  0
    5.2330    4.5610   14.5230 C   0  0  0  0  0  0  0  0  0  0  0  0
    5.6460    3.5430   13.6720 C   0  0  0  0  0  0  0  0  0  0  0  0
    6.9060    3.0120   13.7580 O   0  0  0  0  0  0  0  0  0  0  0  0
    7.4570    2.6040   14.9420 C   0  0  0  0  0  0  0  0  0  0  0  0
    8.7190    3.0670   15.2960 C   0  0  0  0  0  0  0  0  0  0  0  0
    9.3030    2.6540   16.4860 C   0  0  0  0  0  0  0  0  0  0  0  0
    8.6320    1.7690   17.3230 C   0  0  0  0  0  0  0  0  0  0  0  0
    7.3740    1.2990   16.9630 C   0  0  0  0  0  0  0  0  0  0  0  0
    6.7860    1.7110   15.7690 C   0  0  0  0  0  0  0  0  0  0  0  0
    4.7840    3.0640   12.6930 C   0  0  0  0  0  0  0  0  0  0  0  0
    3.5010    3.5860   12.5690 C   0  0  0  0  0  0  0  0  0  0  0  0
    1.5460    6.5380   13.2800 C   0  0  0  0  0  0  0  0  0  0  0  0
    0.2630    6.8350   13.0800 N   0  0  0  0  0  0  0  0  0  0  0  0
   -0.4290    5.6920   12.9480 C   0  0  0  0  0  0  0  0  0  0  0  0
   -1.7440    5.4400   12.7320 N   0  0  0  0  0  0  0  0  0  0  0  0
   -2.1970    4.1830   12.6220 C   0  0  0  0  0  0  0  0  0  0  0  0
   -1.3690    3.1350   12.7240 N   0  0  0  0  0  0  0  0  0  0  0  0
   -0.2030    8.2500   13.0670 C   0  0  2  0  0  0  0  0  0  0  0  0
   -1.3920    8.5180   13.9860 C   0  0  0  0  0  0  0  0  0  0  0  0
   -1.5980   10.0280   14.0670 C   0  0  0  0  0  0  0  0  0  0  0  0
   -1.8750   10.5860   12.6710 C   0  0  2  0  0  0  0  0  0  0  0  0
   -0.7150   10.2600   11.7330 C   0  0  0  0  0  0  0  0  0  0  0  0
   -0.4890    8.7560   11.6600 C   0  0  0  0  0  0  0  0  0  0  0  0
   -1.8870   12.0430   12.7400 N   0  3  2  0  0  0  0  0  0  0  0  0
   -2.8870   12.7020   11.9150 C   0  0  0  0  0  0  0  0  0  0  0  0
   -2.5270   14.1790   11.9520 C   0  0  0  0  0  0  0  0  0  0  0  0
   -2.5090   14.5130   13.3640 N   0  3  2  0  0  0  0  0  0  0  0  0
   -3.4560   15.5050   13.8500 C   0  0  0  0  0  0  0  0  0  0  0  0
   -1.5530   13.8990   14.2810 C   0  0  0  0  0  0  0  0  0  0  0  0
   -0.9040   12.6940   13.5990 C   0  0  0  0  0  0  0  0  0  0  0  0
    0.3694    1.3014   12.9547 H   0  0  0  0  0  0  0  0  0  0  0  0
    1.7713    2.3773   13.1992 H   0  0  0  0  0  0  0  0  0  0  0  0
    3.6265    5.8877   15.0503 H   0  0  0  0  0  0  0  0  0  0  0  0
    5.9073    4.9466   15.2791 H   0  0  0  0  0  0  0  0  0  0  0  0
    9.2477    3.7512   14.6423 H   0  0  0  0  0  0  0  0  0  0  0  0
   10.2841    3.0222   16.7633 H   0  0  0  0  0  0  0  0  0  0  0  0
    9.0879    1.4469   18.2522 H   0  0  0  0  0  0  0  0  0  0  0  0
    6.8487    0.6094   17.6138 H   0  0  0  0  0  0  0  0  0  0  0  0
    5.8089    1.3365   15.4861 H   0  0  0  0  0  0  0  0  0  0  0  0
    5.1135    2.2789   12.0221 H   0  0  0  0  0  0  0  0  0  0  0  0
    2.8377    3.2207   11.7933 H   0  0  0  0  0  0  0  0  0  0  0  0
    2.3419    7.2678   13.4211 H   0  0  0  0  0  0  0  0  0  0  0  0
   -3.2530    4.0115   12.4473 H   0  0  0  0  0  0  0  0  0  0  0  0
    0.6330    8.8500   13.4557 H   0  0  0  0  0  0  0  0  0  0  0  0
   -1.1863    8.1155   14.9888 H   0  0  0  0  0  0  0  0  0  0  0  0
   -2.2944    8.0401   13.5771 H   0  0  0  0  0  0  0  0  0  0  0  0
   -0.6921   10.4992   14.4759 H   0  0  0  0  0  0  0  0  0  0  0  0
   -2.4530   10.2457   14.7240 H   0  0  0  0  0  0  0  0  0  0  0  0
   -2.8256   10.1919   12.2823 H   0  0  0  0  0  0  0  0  0  0  0  0
    0.1989   10.7448   12.1067 H   0  0  0  0  0  0  0  0  0  0  0  0
   -0.9464   10.6397   10.7269 H   0  0  0  0  0  0  0  0  0  0  0  0
   -1.3884    8.2631   11.2625 H   0  0  0  0  0  0  0  0  0  0  0  0
    0.3677    8.5394   11.0049 H   0  0  0  0  0  0  0  0  0  0  0  0
   -2.5359   12.0299   13.5112 H   0  0  0  0  0  0  0  0  0  0  0  0
   -3.8940   12.5404   12.3271 H   0  0  0  0  0  0  0  0  0  0  0  0
   -2.8474   12.3215   10.8837 H   0  0  0  0  0  0  0  0  0  0  0  0
   -3.2822   14.7768   11.4207 H   0  0  0  0  0  0  0  0  0  0  0  0
   -1.5391   14.3499   11.4994 H   0  0  0  0  0  0  0  0  0  0  0  0
   -3.1672   13.7738   13.5547 H   0  0  0  0  0  0  0  0  0  0  0  0
   -3.3168   15.6455   14.9321 H   0  0  0  0  0  0  0  0  0  0  0  0
   -4.4818   15.1595   13.6542 H   0  0  0  0  0  0  0  0  0  0  0  0
   -3.2853   16.4599   13.3313 H   0  0  0  0  0  0  0  0  0  0  0  0
   -2.0758   13.5692   15.1909 H   0  0  0  0  0  0  0  0  0  0  0  0
   -0.7776   14.6317   14.5489 H   0  0  0  0  0  0  0  0  0  0  0  0
   -0.0503   13.0302   12.9923 H   0  0  0  0  0  0  0  0  0  0  0  0
   -0.5542   11.9834   14.3623 H   0  0  0  0  0  0  0  0  0  0  0  0
  1  2  1  0  0  0  0
  1 37  1  0  0  0  0
  1 38  1  0  0  0  0
  2  3  2  0  0  0  0
  2 23  1  0  0  0  0
  3  4  1  0  0  0  0
  3 20  1  0  0  0  0
  4  5  1  0  0  0  0
  4 18  2  0  0  0  0
  5  6  2  0  0  0  0
  5 17  1  0  0  0  0
  6  7  1  0  0  0  0
  6 39  1  0  0  0  0
  7  8  2  0  0  0  0
  7 40  1  0  0  0  0
  8  9  1  0  0  0  0
  8 16  1  0  0  0  0
  9 10  1  0  0  0  0
 10 11  2  0  0  0  0
 10 15  1  0  0  0  0
 11 12  1  0  0  0  0
 11 41  1  0  0  0  0
 12 13  2  0  0  0  0
 12 42  1  0  0  0  0
 13 14  1  0  0  0  0
 13 43  1  0  0  0  0
 14 15  2  0  0  0  0
 14 44  1  0  0  0  0
 15 45  1  0  0  0  0
 16 17  2  0  0  0  0
 16 46  1  0  0  0  0
 17 47  1  0  0  0  0
 18 19  1  0  0  0  0
 18 48  1  0  0  0  0
 19 20  1  0  0  0  0
 19 24  1  0  0  0  0
 20 21  2  0  0  0  0
 21 22  1  0  0  0  0
 22 23  2  0  0  0  0
 22 49  1  0  0  0  0
 24 25  1  0  0  0  0
 24 29  1  0  0  0  0
 24 50  1  1  0  0  0
 25 26  1  0  0  0  0
 25 51  1  0  0  0  0
 25 52  1  0  0  0  0
 26 27  1  0  0  0  0
 26 53  1  0  0  0  0
 26 54  1  0  0  0  0
 27 28  1  0  0  0  0
 27 30  1  0  0  0  0
 27 55  1  6  0  0  0
 28 29  1  0  0  0  0
 28 56  1  0  0  0  0
 28 57  1  0  0  0  0
 29 58  1  0  0  0  0
 29 59  1  0  0  0  0
 30 31  1  0  0  0  0
 30 36  1  0  0  0  0
 30 60  1  1  0  0  0
 31 32  1  0  0  0  0
 31 61  1  0  0  0  0
 31 62  1  0  0  0  0
 32 33  1  0  0  0  0
 32 63  1  0  0  0  0
 32 64  1  0  0  0  0
 33 34  1  0  0  0  0
 33 35  1  0  0  0  0
 33 65  1  1  0  0  0
 34 66  1  0  0  0  0
 34 67  1  0  0  0  0
 34 68  1  0  0  0  0
 35 36  1  0  0  0  0
 35 69  1  0  0  0  0
 35 70  1  0  0  0  0
 36 71  1  0  0  0  0
 36 72  1  0  0  0  0
M  CHG  2  30   1  33   1
M  END
