3vtb_ligand
 OpenBabel08222323353D

 88 93  0  0  1  0  0  0  0  0999 V2000
    9.7720   -1.0620   27.8090 C   0  0  2  0  0  0  0  0  0  0  0  0
    8.7920   -2.2970   27.5990 C   0  0  0  0  0  0  0  0  0  0  0  0
    7.3010   -1.7880   27.3790 C   0  0  1  0  0  0  0  0  0  0  0  0
    6.8400   -1.0030   28.6700 C   0  0  0  0  0  0  0  0  0  0  0  0
    7.7880    0.2660   28.9130 C   0  0  1  0  0  0  0  0  0  0  0  0
    9.2760   -0.2350   29.1370 C   0  0  0  0  0  0  0  0  0  0  0  0
    9.6700   -0.1050   26.5280 C   0  0  0  0  0  0  0  0  0  0  0  0
    7.2270   -0.8330   26.1030 C   0  0  0  0  0  0  0  0  0  0  0  0
    7.7290    1.2260   27.6380 C   0  0  0  0  0  0  0  0  0  0  0  0
    8.1900    0.4200   26.3300 C   0  0  1  0  0  0  0  0  0  0  0  0
   11.1890   -1.6950   27.9480 C   0  0  1  0  0  0  0  0  0  0  0  0
   12.1830   -0.6620   28.1470 C   0  0  0  0  0  0  0  0  0  0  0  0
   11.2480   -2.5810   29.0770 O   0  0  0  0  0  0  0  0  0  0  0  0
   12.9310    0.2400   28.2900 C   0  0  0  0  0  0  0  0  0  0  0  0
   13.7610    1.4000   28.4430 C   0  0  0  0  0  0  0  0  0  0  0  0
   13.0410    2.5410   27.6800 C   0  0  1  0  0  0  0  0  0  0  0  0
   11.9080    3.0980   28.6240 C   0  0  0  0  0  0  0  0  0  0  0  0
   14.1310    3.6060   27.2420 C   0  0  2  0  0  0  0  0  0  0  0  0
   13.6650    4.8330   26.3980 C   0  0  2  0  0  0  0  0  0  0  0  0
   15.1090    5.3820   26.0480 C   0  0  1  0  0  0  0  0  0  0  0  0
   15.8420    4.1320   25.4820 C   0  0  0  0  0  0  0  0  0  0  0  0
   15.3090    3.0080   26.3610 C   0  0  0  0  0  0  0  0  0  0  0  0
   12.9040    5.9720   27.2120 C   0  0  0  0  0  0  0  0  0  0  0  0
   12.7860    7.2870   26.3450 C   0  0  0  0  0  0  0  0  0  0  0  0
   14.2000    7.7590   25.9040 C   0  0  0  0  0  0  0  0  0  0  0  0
   14.8790    6.6100   25.0950 C   0  0  0  0  0  0  0  0  0  0  0  0
   12.7460    4.3610   25.1450 C   0  0  0  0  0  0  0  0  0  0  0  0
   15.2000    6.6250   23.7930 C   0  0  0  0  0  0  0  0  0  0  0  0
   14.9960    7.7190   22.8590 C   0  0  0  0  0  0  0  0  0  0  0  0
   14.6800    7.6570   21.5770 C   0  0  0  0  0  0  0  0  0  0  0  0
   14.5420    8.9940   20.8170 C   0  0  0  0  0  0  0  0  0  0  0  0
   15.1680    8.9610   19.3860 C   0  0  2  0  0  0  0  0  0  0  0  0
   14.6770    7.7290   18.5700 C   0  0  0  0  0  0  0  0  0  0  0  0
   15.0440    6.4000   19.2520 C   0  0  1  0  0  0  0  0  0  0  0  0
   14.4380    6.3890   20.7030 C   0  0  0  0  0  0  0  0  0  0  0  0
   13.9550    7.7990   17.4120 C   0  0  0  0  0  0  0  0  0  0  0  0
   14.4820    5.3100   18.4630 O   0  0  0  0  0  0  0  0  0  0  0  0
   16.6110    8.8940   19.4860 O   0  0  0  0  0  0  0  0  0  0  0  0
    8.8271   -2.9434   28.4883 H   0  0  0  0  0  0  0  0  0  0  0  0
    9.1138   -2.8696   26.7166 H   0  0  0  0  0  0  0  0  0  0  0  0
    6.6395   -2.6525   27.2207 H   0  0  0  0  0  0  0  0  0  0  0  0
    6.8970   -1.6715   29.5417 H   0  0  0  0  0  0  0  0  0  0  0  0
    5.8028   -0.6617   28.5369 H   0  0  0  0  0  0  0  0  0  0  0  0
    7.4471    0.8164   29.8023 H   0  0  0  0  0  0  0  0  0  0  0  0
    9.9352    0.6305   29.2990 H   0  0  0  0  0  0  0  0  0  0  0  0
    9.3137   -0.8944   30.0166 H   0  0  0  0  0  0  0  0  0  0  0  0
    9.9750   -0.6675   25.6333 H   0  0  0  0  0  0  0  0  0  0  0  0
   10.3414    0.7552   26.6669 H   0  0  0  0  0  0  0  0  0  0  0  0
    6.1935   -0.4826   25.9648 H   0  0  0  0  0  0  0  0  0  0  0  0
    7.5488   -1.3874   25.2091 H   0  0  0  0  0  0  0  0  0  0  0  0
    8.4006    2.0830   27.7946 H   0  0  0  0  0  0  0  0  0  0  0  0
    6.6993    1.5875   27.5002 H   0  0  0  0  0  0  0  0  0  0  0  0
    8.1459    1.0843   25.4543 H   0  0  0  0  0  0  0  0  0  0  0  0
   11.4200   -2.2562   27.0306 H   0  0  0  0  0  0  0  0  0  0  0  0
   12.1159   -2.9633   29.1331 H   0  0  0  0  0  0  0  0  0  0  0  0
   14.7558    1.2185   28.0101 H   0  0  0  0  0  0  0  0  0  0  0  0
   13.8657    1.6580   29.5072 H   0  0  0  0  0  0  0  0  0  0  0  0
   12.5683    2.1396   26.7715 H   0  0  0  0  0  0  0  0  0  0  0  0
   11.3733    3.9127   28.1138 H   0  0  0  0  0  0  0  0  0  0  0  0
   12.3587    3.4799   29.5519 H   0  0  0  0  0  0  0  0  0  0  0  0
   11.2014    2.2902   28.8649 H   0  0  0  0  0  0  0  0  0  0  0  0
   14.5584    3.9900   28.1800 H   0  0  0  0  0  0  0  0  0  0  0  0
   15.6389    5.7311   26.9465 H   0  0  0  0  0  0  0  0  0  0  0  0
   16.9328    4.2317   25.5829 H   0  0  0  0  0  0  0  0  0  0  0  0
   15.5852    3.9656   24.4254 H   0  0  0  0  0  0  0  0  0  0  0  0
   14.9292    2.1886   25.7330 H   0  0  0  0  0  0  0  0  0  0  0  0
   16.1101    2.6294   27.0128 H   0  0  0  0  0  0  0  0  0  0  0  0
   13.4636    6.1944   28.1325 H   0  0  0  0  0  0  0  0  0  0  0  0
   11.8954    5.6185   27.4724 H   0  0  0  0  0  0  0  0  0  0  0  0
   12.3081    8.0767   26.9434 H   0  0  0  0  0  0  0  0  0  0  0  0
   12.1753    7.0823   25.4533 H   0  0  0  0  0  0  0  0  0  0  0  0
   14.8054    7.9950   26.7916 H   0  0  0  0  0  0  0  0  0  0  0  0
   14.1112    8.6548   25.2719 H   0  0  0  0  0  0  0  0  0  0  0  0
   13.2699    3.5746   24.5818 H   0  0  0  0  0  0  0  0  0  0  0  0
   12.5566    5.2203   24.4850 H   0  0  0  0  0  0  0  0  0  0  0  0
   11.7892    3.9683   25.5194 H   0  0  0  0  0  0  0  0  0  0  0  0
   15.6618    5.7230   23.3942 H   0  0  0  0  0  0  0  0  0  0  0  0
   15.1195    8.7205   23.2684 H   0  0  0  0  0  0  0  0  0  0  0  0
   15.0449    9.7799   21.3996 H   0  0  0  0  0  0  0  0  0  0  0  0
   13.4725    9.2338   20.7243 H   0  0  0  0  0  0  0  0  0  0  0  0
   14.8810    9.8800   18.8540 H   0  0  0  0  0  0  0  0  0  0  0  0
   16.1375    6.2939   19.3070 H   0  0  0  0  0  0  0  0  0  0  0  0
   13.3506    6.2531   20.6081 H   0  0  0  0  0  0  0  0  0  0  0  0
   14.8697    5.5297   21.2371 H   0  0  0  0  0  0  0  0  0  0  0  0
   13.7235    8.7681   16.9724 H   0  0  0  0  0  0  0  0  0  0  0  0
   13.6111    6.8857   16.9287 H   0  0  0  0  0  0  0  0  0  0  0  0
   13.5393    5.4140   18.4076 H   0  0  0  0  0  0  0  0  0  0  0  0
   16.9887    8.9082   18.6144 H   0  0  0  0  0  0  0  0  0  0  0  0
  1  2  1  0  0  0  0
  1  6  1  0  0  0  0
  1  7  1  0  0  0  0
  1 11  1  1  0  0  0
  2  3  1  0  0  0  0
  2 39  1  0  0  0  0
  2 40  1  0  0  0  0
  3  4  1  0  0  0  0
  3  8  1  0  0  0  0
  3 41  1  6  0  0  0
  4  5  1  0  0  0  0
  4 42  1  0  0  0  0
  4 43  1  0  0  0  0
  5  6  1  0  0  0  0
  5  9  1  0  0  0  0
  5 44  1  1  0  0  0
  6 45  1  0  0  0  0
  6 46  1  0  0  0  0
  7 10  1  0  0  0  0
  7 47  1  0  0  0  0
  7 48  1  0  0  0  0
  8 10  1  0  0  0  0
  8 49  1  0  0  0  0
  8 50  1  0  0  0  0
  9 10  1  0  0  0  0
  9 51  1  0  0  0  0
  9 52  1  0  0  0  0
 10 53  1  6  0  0  0
 11 12  1  0  0  0  0
 11 13  1  0  0  0  0
 11 54  1  6  0  0  0
 12 14  3  0  0  0  0
 13 55  1  0  0  0  0
 14 15  1  0  0  0  0
 15 16  1  0  0  0  0
 15 56  1  0  0  0  0
 15 57  1  0  0  0  0
 16 17  1  0  0  0  0
 16 18  1  0  0  0  0
 16 58  1  6  0  0  0
 17 59  1  0  0  0  0
 17 60  1  0  0  0  0
 17 61  1  0  0  0  0
 18 19  1  0  0  0  0
 18 22  1  0  0  0  0
 18 62  1  1  0  0  0
 19 20  1  0  0  0  0
 19 23  1  0  0  0  0
 19 27  1  6  0  0  0
 20 21  1  0  0  0  0
 20 26  1  0  0  0  0
 20 63  1  1  0  0  0
 21 22  1  0  0  0  0
 21 64  1  0  0  0  0
 21 65  1  0  0  0  0
 22 66  1  0  0  0  0
 22 67  1  0  0  0  0
 23 24  1  0  0  0  0
 23 68  1  0  0  0  0
 23 69  1  0  0  0  0
 24 25  1  0  0  0  0
 24 70  1  0  0  0  0
 24 71  1  0  0  0  0
 25 26  1  0  0  0  0
 25 72  1  0  0  0  0
 25 73  1  0  0  0  0
 26 28  2  0  0  0  0
 27 74  1  0  0  0  0
 27 75  1  0  0  0  0
 27 76  1  0  0  0  0
 28 29  1  0  0  0  0
 28 77  1  0  0  0  0
 29 30  2  0  0  0  0
 29 78  1  0  0  0  0
 30 31  1  0  0  0  0
 30 35  1  0  0  0  0
 31 32  1  0  0  0  0
 31 79  1  0  0  0  0
 31 80  1  0  0  0  0
 32 33  1  0  0  0  0
 32 38  1  0  0  0  0
 32 81  1  6  0  0  0
 33 34  1  0  0  0  0
 33 36  2  0  0  0  0
 34 35  1  0  0  0  0
 34 37  1  0  0  0  0
 34 82  1  1  0  0  0
 35 83  1  0  0  0  0
 35 84  1  0  0  0  0
 36 85  1  0  0  0  0
 36 86  1  0  0  0  0
 37 87  1  0  0  0  0
 38 88  1  0  0  0  0
M  END
