3vuc_ligand
 OpenBabel08222323353D

 86 90  0  0  1  0  0  0  0  0999 V2000
  181.3610  200.6240  104.6390 C   0  0  1  0  0  0  0  0  0  0  0  0
  182.7800  200.1490  104.3010 C   0  0  2  0  0  0  0  0  0  0  0  0
  181.3830  201.1180  106.0820 C   0  0  1  0  0  0  0  0  0  0  0  0
  183.1360  198.9610  105.2020 C   0  0  0  0  0  0  0  0  0  0  0  0
  181.6980  199.9620  107.0290 C   0  0  0  0  0  0  0  0  0  0  0  0
  183.0880  199.3960  106.6890 C   0  0  2  0  0  0  0  0  0  0  0  0
  182.4530  202.2570  106.2670 C   0  0  0  0  0  0  0  0  0  0  0  0
  183.8770  201.7320  106.0050 C   0  0  2  0  0  0  0  0  0  0  0  0
  183.8690  201.2650  104.5360 C   0  0  0  0  0  0  0  0  0  0  0  0
  184.1580  200.5000  106.9130 C   0  0  0  0  0  0  0  0  0  0  0  0
  183.2390  198.2400  107.5260 O   0  0  0  0  0  0  0  0  0  0  0  0
  181.0440  201.7890  103.8030 N   0  0  0  0  0  0  0  0  0  0  0  0
  179.4740  202.0200  100.3570 C   0  0  2  0  0  0  0  0  0  0  0  0
  178.6660  201.8430   99.0580 C   0  0  2  0  0  0  0  0  0  0  0  0
  179.1540  200.6930   98.1580 C   0  0  0  0  0  0  0  0  0  0  0  0
  178.7680  203.1200   98.3150 N   0  3  0  0  0  0  0  0  0  0  0  0
  178.1460  200.3700   97.1090 N   0  3  2  0  0  0  0  0  0  0  0  0
  176.9800  199.6990   97.6980 C   0  0  0  0  0  0  0  0  0  0  0  0
  175.9630  199.2990   96.6590 C   0  0  0  0  0  0  0  0  0  0  0  0
  176.2450  199.2080   95.3400 N   0  0  0  0  0  0  0  0  0  0  0  0
  177.5750  199.5210   94.7950 C   0  0  0  0  0  0  0  0  0  0  0  0
  178.6490  199.5790   95.9080 C   0  0  0  0  0  0  0  0  0  0  0  0
  179.8700  200.2460   95.2570 C   0  0  0  0  0  0  0  0  0  0  0  0
  179.0290  198.1260   96.2900 C   0  0  0  0  0  0  0  0  0  0  0  0
  175.2630  198.8500   94.4160 C   0  0  0  0  0  0  0  0  0  0  0  0
  174.6600  199.8690   93.7030 C   0  0  0  0  0  0  0  0  0  0  0  0
  173.7290  199.5400   92.7430 C   0  0  0  0  0  0  0  0  0  0  0  0
  173.3490  198.2260   92.5060 C   0  0  0  0  0  0  0  0  0  0  0  0
  173.9440  197.1980   93.2340 C   0  0  0  0  0  0  0  0  0  0  0  0
  174.9000  197.5480   94.1600 C   0  0  0  0  0  0  0  0  0  0  0  0
  174.8500  199.0340   97.0370 O   0  0  0  0  0  0  0  0  0  0  0  0
  175.5760  196.2760   95.0430 Cl  0  0  0  0  0  0  0  0  0  0  0  0
  178.7280  203.0250  101.2650 C   0  0  0  0  0  0  0  0  0  0  0  0
  179.4640  203.3230  102.5850 C   0  0  2  0  0  0  0  0  0  0  0  0
  179.7790  202.1090  103.4450 C   0  0  0  0  0  0  0  0  0  0  0  0
  178.8650  201.4320  103.8320 O   0  0  0  0  0  0  0  0  0  0  0  0
  178.6260  204.3300  103.4020 C   0  0  0  0  0  0  0  0  0  0  0  0
  180.8320  202.4490  100.0650 O   0  0  0  0  0  0  0  0  0  0  0  0
  179.3790  204.7090  104.7070 C   0  0  0  0  0  0  0  0  0  0  0  0
  180.6266  199.8175  104.4971 H   0  0  0  0  0  0  0  0  0  0  0  0
  182.8069  199.8380  103.2462 H   0  0  0  0  0  0  0  0  0  0  0  0
  180.3904  201.5216  106.3306 H   0  0  0  0  0  0  0  0  0  0  0  0
  184.1487  198.6079  104.9575 H   0  0  0  0  0  0  0  0  0  0  0  0
  182.4141  198.1478  105.0361 H   0  0  0  0  0  0  0  0  0  0  0  0
  180.9405  199.1731  106.9118 H   0  0  0  0  0  0  0  0  0  0  0  0
  181.6921  200.3246  108.0675 H   0  0  0  0  0  0  0  0  0  0  0  0
  182.3955  202.6394  107.2968 H   0  0  0  0  0  0  0  0  0  0  0  0
  182.2355  203.0717  105.5607 H   0  0  0  0  0  0  0  0  0  0  0  0
  184.6289  202.5168  106.1747 H   0  0  0  0  0  0  0  0  0  0  0  0
  183.6479  202.1251  103.8869 H   0  0  0  0  0  0  0  0  0  0  0  0
  184.8596  200.8594  104.2826 H   0  0  0  0  0  0  0  0  0  0  0  0
  185.1516  200.0937  106.6727 H   0  0  0  0  0  0  0  0  0  0  0  0
  184.1359  200.8156  107.9665 H   0  0  0  0  0  0  0  0  0  0  0  0
  182.5500  197.6161  107.3297 H   0  0  0  0  0  0  0  0  0  0  0  0
  181.7937  202.3695  103.4853 H   0  0  0  0  0  0  0  0  0  0  0  0
  179.5264  201.0519  100.8765 H   0  0  0  0  0  0  0  0  0  0  0  0
  177.6155  201.6503   99.3210 H   0  0  0  0  0  0  0  0  0  0  0  0
  179.3271  199.8005   98.7772 H   0  0  0  0  0  0  0  0  0  0  0  0
  180.0951  200.9908   97.6727 H   0  0  0  0  0  0  0  0  0  0  0  0
  178.4494  203.8759   98.9008 H   0  0  0  0  0  0  0  0  0  0  0  0
  178.1961  203.0732   97.4863 H   0  0  0  0  0  0  0  0  0  0  0  0
  179.7279  203.2802   98.0523 H   0  0  0  0  0  0  0  0  0  0  0  0
  177.8292  201.2559   96.7472 H   0  0  0  0  0  0  0  0  0  0  0  0
  176.5027  200.3836   98.4146 H   0  0  0  0  0  0  0  0  0  0  0  0
  177.3208  198.7957   98.2251 H   0  0  0  0  0  0  0  0  0  0  0  0
  177.5326  200.4968   94.2890 H   0  0  0  0  0  0  0  0  0  0  0  0
  177.8552  198.7434   94.0692 H   0  0  0  0  0  0  0  0  0  0  0  0
  180.2007  199.6454   94.3968 H   0  0  0  0  0  0  0  0  0  0  0  0
  180.6857  200.3144   95.9918 H   0  0  0  0  0  0  0  0  0  0  0  0
  179.5979  201.2558   94.9161 H   0  0  0  0  0  0  0  0  0  0  0  0
  179.3856  197.5932   95.3961 H   0  0  0  0  0  0  0  0  0  0  0  0
  178.1460  197.6107   96.6960 H   0  0  0  0  0  0  0  0  0  0  0  0
  179.8251  198.1426   97.0489 H   0  0  0  0  0  0  0  0  0  0  0  0
  174.9144  200.9050   93.8953 H   0  0  0  0  0  0  0  0  0  0  0  0
  173.2791  200.3313   92.1544 H   0  0  0  0  0  0  0  0  0  0  0  0
  172.5951  198.0016   91.7602 H   0  0  0  0  0  0  0  0  0  0  0  0
  173.6647  196.1624   93.0771 H   0  0  0  0  0  0  0  0  0  0  0  0
  177.7379  202.6098  101.5044 H   0  0  0  0  0  0  0  0  0  0  0  0
  178.6062  203.9689  100.7134 H   0  0  0  0  0  0  0  0  0  0  0  0
  180.4230  203.7954  102.3261 H   0  0  0  0  0  0  0  0  0  0  0  0
  177.6578  203.8753  103.6586 H   0  0  0  0  0  0  0  0  0  0  0  0
  178.4579  205.2363  102.8017 H   0  0  0  0  0  0  0  0  0  0  0  0
  181.2529  201.8059   99.5068 H   0  0  0  0  0  0  0  0  0  0  0  0
  178.7760  205.4262  105.2831 H   0  0  0  0  0  0  0  0  0  0  0  0
  180.3471  205.1651  104.4525 H   0  0  0  0  0  0  0  0  0  0  0  0
  179.5470  203.8041  105.3094 H   0  0  0  0  0  0  0  0  0  0  0  0
  1  2  1  0  0  0  0
  1  3  1  0  0  0  0
  1 40  1  6  0  0  0
  2  4  1  0  0  0  0
  2  9  1  0  0  0  0
  2 41  1  6  0  0  0
  3  5  1  0  0  0  0
  3  7  1  0  0  0  0
  3 42  1  1  0  0  0
  4  6  1  0  0  0  0
  4 43  1  0  0  0  0
  4 44  1  0  0  0  0
  5  6  1  0  0  0  0
  5 45  1  0  0  0  0
  5 46  1  0  0  0  0
  6 10  1  0  0  0  0
  6 11  1  1  0  0  0
  7  8  1  0  0  0  0
  7 47  1  0  0  0  0
  7 48  1  0  0  0  0
  8 10  1  0  0  0  0
  8 49  1  1  0  0  0
  9  8  1  0  0  0  0
  9 50  1  0  0  0  0
  9 51  1  0  0  0  0
 10 52  1  0  0  0  0
 10 53  1  0  0  0  0
 11 54  1  0  0  0  0
 12  1  1  0  0  0  0
 12 55  1  0  0  0  0
 13 14  1  0  0  0  0
 13 38  1  0  0  0  0
 13 56  1  1  0  0  0
 14 15  1  0  0  0  0
 14 16  1  0  0  0  0
 14 57  1  1  0  0  0
 15 17  1  0  0  0  0
 15 58  1  0  0  0  0
 15 59  1  0  0  0  0
 16 60  1  0  0  0  0
 16 61  1  0  0  0  0
 16 62  1  0  0  0  0
 17 18  1  0  0  0  0
 17 22  1  0  0  0  0
 17 63  1  6  0  0  0
 18 19  1  0  0  0  0
 18 64  1  0  0  0  0
 18 65  1  0  0  0  0
 19 20  1  0  0  0  0
 19 31  2  0  0  0  0
 20 25  1  0  0  0  0
 21 20  1  0  0  0  0
 21 66  1  0  0  0  0
 21 67  1  0  0  0  0
 22 21  1  0  0  0  0
 22 23  1  0  0  0  0
 22 24  1  0  0  0  0
 23 68  1  0  0  0  0
 23 69  1  0  0  0  0
 23 70  1  0  0  0  0
 24 71  1  0  0  0  0
 24 72  1  0  0  0  0
 24 73  1  0  0  0  0
 25 26  2  0  0  0  0
 25 30  1  0  0  0  0
 26 27  1  0  0  0  0
 26 74  1  0  0  0  0
 27 28  2  0  0  0  0
 27 75  1  0  0  0  0
 28 76  1  0  0  0  0
 29 28  1  0  0  0  0
 29 77  1  0  0  0  0
 30 29  2  0  0  0  0
 30 32  1  0  0  0  0
 33 13  1  0  0  0  0
 33 78  1  0  0  0  0
 33 79  1  0  0  0  0
 34 33  1  0  0  0  0
 34 35  1  0  0  0  0
 34 37  1  0  0  0  0
 34 80  1  6  0  0  0
 35 12  1  0  0  0  0
 35 36  2  0  0  0  0
 37 39  1  0  0  0  0
 37 81  1  0  0  0  0
 37 82  1  0  0  0  0
 38 83  1  0  0  0  0
 39 84  1  0  0  0  0
 39 85  1  0  0  0  0
 39 86  1  0  0  0  0
M  CHG  2  16   1  17   1
M  END
