3vzv_ligand
 OpenBabel08222323353D

 72 76  0  0  1  0  0  0  0  0999 V2000
   10.1510   -3.5540  -32.2010 O   0  0  0  0  0  0  0  0  0  0  0  0
    9.2080   -3.9500  -31.5020 C   0  0  0  0  0  0  0  0  0  0  0  0
    8.2350   -4.7920  -31.9980 N   0  0  0  0  0  0  0  0  0  0  0  0
    8.1770   -5.2340  -33.3980 C   0  0  2  0  0  0  0  0  0  0  0  0
    7.7870   -3.9400  -34.2390 C   0  0  0  0  0  0  0  0  0  0  0  0
    7.9820   -4.0040  -35.4730 O   0  0  0  0  0  0  0  0  0  0  0  0
    7.2710   -2.7160  -33.6980 N   0  0  0  0  0  0  0  0  0  0  0  0
    5.9070   -2.5370  -33.0190 C   0  0  0  0  0  0  0  0  0  0  0  0
    8.1050   -1.4560  -33.8040 C   0  0  0  0  0  0  0  0  0  0  0  0
    7.0850   -6.2890  -33.3440 C   0  0  0  0  0  0  0  0  0  0  0  0
    6.8330   -6.6030  -31.8580 C   0  0  0  0  0  0  0  0  0  0  0  0
    7.0540   -5.2500  -31.2180 C   0  0  0  0  0  0  0  0  0  0  0  0
    9.1520   -3.3520  -30.1050 C   0  0  1  0  0  0  0  0  0  0  0  0
   10.2610   -3.4980  -29.0450 C   0  0  2  0  0  0  0  0  0  0  0  0
   10.9650   -4.8370  -28.6520 C   0  0  0  0  0  0  0  0  0  0  0  0
   10.5100   -6.1860  -29.2050 C   0  0  0  0  0  0  0  0  0  0  0  0
   12.4810   -4.6530  -28.8210 C   0  0  0  0  0  0  0  0  0  0  0  0
    9.5080   -2.9420  -27.8980 N   0  0  0  0  0  0  0  0  0  0  0  0
    9.9030   -2.7800  -26.5390 C   0  0  2  0  0  0  0  0  0  0  0  0
    9.3540   -3.9140  -25.6910 C   0  0  0  0  0  0  0  0  0  0  0  0
   10.1780   -4.3570  -24.6700 C   0  0  0  0  0  0  0  0  0  0  0  0
    9.7020   -5.3560  -23.8720 C   0  0  0  0  0  0  0  0  0  0  0  0
    8.0940   -4.4820  -25.9540 C   0  0  0  0  0  0  0  0  0  0  0  0
    7.6220   -5.5060  -25.1400 C   0  0  0  0  0  0  0  0  0  0  0  0
    8.4410   -5.9200  -24.1030 C   0  0  0  0  0  0  0  0  0  0  0  0
    7.9610   -7.1870  -22.9740 Cl  0  0  0  0  0  0  0  0  0  0  0  0
    8.0750   -2.1260  -29.7810 S   0  0  0  0  0  0  0  0  0  0  0  0
    8.6840   -1.9040  -28.1970 C   0  0  0  0  0  0  0  0  0  0  0  0
    8.5370   -1.0180  -27.3510 N   0  0  0  0  0  0  0  0  0  0  0  0
    9.3900   -1.3490  -26.1780 C   0  0  2  0  0  0  0  0  0  0  0  0
   10.5900   -0.3800  -26.1020 C   0  0  0  0  0  0  0  0  0  0  0  0
    8.6360   -1.3260  -24.8030 C   0  0  0  0  0  0  0  0  0  0  0  0
    9.4350   -1.2800  -23.6510 C   0  0  0  0  0  0  0  0  0  0  0  0
    8.8800   -1.2840  -22.3890 C   0  0  0  0  0  0  0  0  0  0  0  0
    7.2350   -1.3900  -24.6720 C   0  0  0  0  0  0  0  0  0  0  0  0
    6.6910   -1.3960  -23.4050 C   0  0  0  0  0  0  0  0  0  0  0  0
    7.5130   -1.3420  -22.2760 C   0  0  0  0  0  0  0  0  0  0  0  0
    6.8510   -1.3150  -20.6410 Cl  0  0  0  0  0  0  0  0  0  0  0  0
    9.1262   -5.6580  -33.7574 H   0  0  0  0  0  0  0  0  0  0  0  0
    5.7879   -1.4892  -32.7061 H   0  0  0  0  0  0  0  0  0  0  0  0
    5.8475   -3.1920  -32.1373 H   0  0  0  0  0  0  0  0  0  0  0  0
    5.1075   -2.8014  -33.7268 H   0  0  0  0  0  0  0  0  0  0  0  0
    9.0578   -1.6878  -34.3024 H   0  0  0  0  0  0  0  0  0  0  0  0
    8.3046   -1.0625  -32.7964 H   0  0  0  0  0  0  0  0  0  0  0  0
    7.5584   -0.7027  -34.3902 H   0  0  0  0  0  0  0  0  0  0  0  0
    7.4113   -7.1974  -33.8716 H   0  0  0  0  0  0  0  0  0  0  0  0
    6.1655   -5.9047  -33.8097 H   0  0  0  0  0  0  0  0  0  0  0  0
    7.5480   -7.3478  -31.4785 H   0  0  0  0  0  0  0  0  0  0  0  0
    5.8066   -6.9623  -31.6923 H   0  0  0  0  0  0  0  0  0  0  0  0
    6.1887   -4.5852  -31.3572 H   0  0  0  0  0  0  0  0  0  0  0  0
    7.2808   -5.3369  -30.1452 H   0  0  0  0  0  0  0  0  0  0  0  0
    8.5276   -4.1630  -29.7021 H   0  0  0  0  0  0  0  0  0  0  0  0
   11.0792   -2.8210  -29.3319 H   0  0  0  0  0  0  0  0  0  0  0  0
   10.7839   -4.9271  -27.5708 H   0  0  0  0  0  0  0  0  0  0  0  0
   11.1461   -6.9840  -28.7943 H   0  0  0  0  0  0  0  0  0  0  0  0
   10.5925   -6.1793  -30.3019 H   0  0  0  0  0  0  0  0  0  0  0  0
    9.4638   -6.3663  -28.9170 H   0  0  0  0  0  0  0  0  0  0  0  0
   12.7792   -3.6752  -28.4148 H   0  0  0  0  0  0  0  0  0  0  0  0
   12.7393   -4.7005  -29.8892 H   0  0  0  0  0  0  0  0  0  0  0  0
   13.0099   -5.4515  -28.2799 H   0  0  0  0  0  0  0  0  0  0  0  0
   10.9997   -2.7999  -26.4568 H   0  0  0  0  0  0  0  0  0  0  0  0
   11.1607   -3.9277  -24.5114 H   0  0  0  0  0  0  0  0  0  0  0  0
   10.3074   -5.7178  -23.0488 H   0  0  0  0  0  0  0  0  0  0  0  0
    7.4960   -4.1244  -26.7844 H   0  0  0  0  0  0  0  0  0  0  0  0
    6.6531   -5.9613  -25.3102 H   0  0  0  0  0  0  0  0  0  0  0  0
   10.2314    0.6284  -25.8479 H   0  0  0  0  0  0  0  0  0  0  0  0
   11.1016   -0.3528  -27.0754 H   0  0  0  0  0  0  0  0  0  0  0  0
   11.2917   -0.7253  -25.3285 H   0  0  0  0  0  0  0  0  0  0  0  0
   10.5132   -1.2404  -23.7554 H   0  0  0  0  0  0  0  0  0  0  0  0
    9.5083   -1.2423  -21.5066 H   0  0  0  0  0  0  0  0  0  0  0  0
    6.5983   -1.4336  -25.5482 H   0  0  0  0  0  0  0  0  0  0  0  0
    5.6149   -1.4431  -23.2834 H   0  0  0  0  0  0  0  0  0  0  0  0
  1  2  2  0  0  0  0
  2  3  1  0  0  0  0
  2 13  1  0  0  0  0
  3  4  1  0  0  0  0
  3 12  1  0  0  0  0
  4  5  1  0  0  0  0
  4 10  1  0  0  0  0
  4 39  1  6  0  0  0
  5  6  2  0  0  0  0
  5  7  1  0  0  0  0
  7  8  1  0  0  0  0
  7  9  1  0  0  0  0
  8 40  1  0  0  0  0
  8 41  1  0  0  0  0
  8 42  1  0  0  0  0
  9 43  1  0  0  0  0
  9 44  1  0  0  0  0
  9 45  1  0  0  0  0
 10 11  1  0  0  0  0
 10 46  1  0  0  0  0
 10 47  1  0  0  0  0
 11 12  1  0  0  0  0
 11 48  1  0  0  0  0
 11 49  1  0  0  0  0
 12 50  1  0  0  0  0
 12 51  1  0  0  0  0
 13 14  1  0  0  0  0
 13 27  1  0  0  0  0
 13 52  1  1  0  0  0
 14 15  1  0  0  0  0
 14 18  1  0  0  0  0
 14 53  1  6  0  0  0
 15 16  1  0  0  0  0
 15 17  1  0  0  0  0
 15 54  1  0  0  0  0
 16 55  1  0  0  0  0
 16 56  1  0  0  0  0
 16 57  1  0  0  0  0
 17 58  1  0  0  0  0
 17 59  1  0  0  0  0
 17 60  1  0  0  0  0
 18 19  1  0  0  0  0
 18 28  1  0  0  0  0
 19 20  1  0  0  0  0
 19 30  1  0  0  0  0
 19 61  1  1  0  0  0
 20 21  2  0  0  0  0
 20 23  1  0  0  0  0
 21 22  1  0  0  0  0
 21 62  1  0  0  0  0
 22 25  2  0  0  0  0
 22 63  1  0  0  0  0
 23 24  2  0  0  0  0
 23 64  1  0  0  0  0
 24 25  1  0  0  0  0
 24 65  1  0  0  0  0
 25 26  1  0  0  0  0
 27 28  1  0  0  0  0
 28 29  2  0  0  0  0
 29 30  1  0  0  0  0
 30 31  1  1  0  0  0
 30 32  1  0  0  0  0
 31 66  1  0  0  0  0
 31 67  1  0  0  0  0
 31 68  1  0  0  0  0
 32 33  2  0  0  0  0
 32 35  1  0  0  0  0
 33 34  1  0  0  0  0
 33 69  1  0  0  0  0
 34 37  2  0  0  0  0
 34 70  1  0  0  0  0
 35 36  2  0  0  0  0
 35 71  1  0  0  0  0
 36 37  1  0  0  0  0
 36 72  1  0  0  0  0
 37 38  1  0  0  0  0
M  END
