3w1f_ligand
 OpenBabel08222323353D

 50 53  0  0  0  0  0  0  0  0999 V2000
   -0.2380  -36.0670   -4.4770 O   0  0  0  0  0  0  0  0  0  0  0  0
   -1.1540  -35.1860   -5.1570 S   0  0  0  0  0  0  0  0  0  0  0  0
   -0.8420  -33.7900   -4.8890 O   0  0  0  0  0  0  0  0  0  0  0  0
   -2.6600  -35.3950   -4.6320 N   0  0  0  0  0  0  0  0  0  0  0  0
   -1.0420  -35.5980   -6.7090 C   0  0  0  0  0  0  0  0  0  0  0  0
   -0.6020  -34.6240   -7.5930 C   0  0  0  0  0  0  0  0  0  0  0  0
   -1.3670  -36.9700   -7.2390 C   0  0  0  0  0  0  0  0  0  0  0  0
   -1.8500  -38.1010   -6.3820 C   0  0  0  0  0  0  0  0  0  0  0  0
   -1.2220  -37.2140   -8.5980 C   0  0  0  0  0  0  0  0  0  0  0  0
   -0.7790  -36.1810   -9.4260 C   0  0  0  0  0  0  0  0  0  0  0  0
   -0.4740  -34.9080   -8.9360 C   0  0  0  0  0  0  0  0  0  0  0  0
    0.0110  -33.8120   -9.8210 C   0  0  0  0  0  0  0  0  0  0  0  0
   -0.1880  -32.4770   -9.6510 N   0  0  0  0  0  0  0  0  0  0  0  0
    0.4390  -31.7530  -10.6780 N   0  0  0  0  0  0  0  0  0  0  0  0
    0.8290  -33.9510  -11.0360 C   0  0  0  0  0  0  0  0  0  0  0  0
    1.3270  -35.0650  -11.6880 C   0  0  0  0  0  0  0  0  0  0  0  0
    2.0640  -34.8720  -12.8520 C   0  0  0  0  0  0  0  0  0  0  0  0
    2.5720  -35.9420  -13.5350 O   0  0  0  0  0  0  0  0  0  0  0  0
    2.3340  -37.2800  -13.1130 C   0  0  0  0  0  0  0  0  0  0  0  0
    3.4080  -38.1290  -13.7530 C   0  0  0  0  0  0  0  0  0  0  0  0
    1.0520  -32.5810  -11.5330 C   0  0  0  0  0  0  0  0  0  0  0  0
    1.7870  -32.3900  -12.6940 C   0  0  0  0  0  0  0  0  0  0  0  0
    2.3150  -33.4880  -13.3570 C   0  0  0  0  0  0  0  0  0  0  0  0
    3.0910  -33.2870  -14.6130 C   0  0  0  0  0  0  0  0  0  0  0  0
    4.1290  -34.0860  -15.0820 C   0  0  0  0  0  0  0  0  0  0  0  0
    4.5440  -33.5840  -16.2600 N   0  0  0  0  0  0  0  0  0  0  0  0
    3.7270  -32.4770  -16.5160 N   0  0  0  0  0  0  0  0  0  0  0  0
    4.0100  -31.7590  -17.7810 C   0  0  0  0  0  0  0  0  0  0  0  0
    2.8500  -32.2840  -15.5430 C   0  0  0  0  0  0  0  0  0  0  0  0
   -3.0976  -36.2906   -4.7120 H   0  0  0  0  0  0  0  0  0  0  0  0
   -3.1586  -34.6293   -4.2256 H   0  0  0  0  0  0  0  0  0  0  0  0
   -0.3574  -33.6338   -7.2258 H   0  0  0  0  0  0  0  0  0  0  0  0
   -2.0140  -38.9909   -7.0075 H   0  0  0  0  0  0  0  0  0  0  0  0
   -2.7946  -37.8154   -5.8960 H   0  0  0  0  0  0  0  0  0  0  0  0
   -1.0959  -38.3268   -5.6137 H   0  0  0  0  0  0  0  0  0  0  0  0
   -1.4491  -38.1908   -9.0095 H   0  0  0  0  0  0  0  0  0  0  0  0
   -0.6676  -36.3731  -10.4870 H   0  0  0  0  0  0  0  0  0  0  0  0
   -0.7232  -32.0565   -8.8779 H   0  0  0  0  0  0  0  0  0  0  0  0
    1.1476  -36.0620  -11.3020 H   0  0  0  0  0  0  0  0  0  0  0  0
    1.3392  -37.6119  -13.4448 H   0  0  0  0  0  0  0  0  0  0  0  0
    2.3972  -37.3498  -12.0170 H   0  0  0  0  0  0  0  0  0  0  0  0
    3.2695  -39.1795  -13.4575 H   0  0  0  0  0  0  0  0  0  0  0  0
    4.3971  -37.7817  -13.4197 H   0  0  0  0  0  0  0  0  0  0  0  0
    3.3391  -38.0439  -14.8475 H   0  0  0  0  0  0  0  0  0  0  0  0
    1.9475  -31.3899  -13.0802 H   0  0  0  0  0  0  0  0  0  0  0  0
    4.5350  -34.9646  -14.5829 H   0  0  0  0  0  0  0  0  0  0  0  0
    3.3163  -30.9116  -17.8847 H   0  0  0  0  0  0  0  0  0  0  0  0
    3.8789  -32.4461  -18.6299 H   0  0  0  0  0  0  0  0  0  0  0  0
    5.0448  -31.3862  -17.7675 H   0  0  0  0  0  0  0  0  0  0  0  0
    2.0957  -31.5008  -15.4841 H   0  0  0  0  0  0  0  0  0  0  0  0
  1  2  2  0  0  0  0
  2  3  2  0  0  0  0
  2  4  1  0  0  0  0
  2  5  1  0  0  0  0
  4 30  1  0  0  0  0
  4 31  1  0  0  0  0
  5  6  2  0  0  0  0
  5  7  1  0  0  0  0
  6 11  1  0  0  0  0
  6 32  1  0  0  0  0
  7  8  1  0  0  0  0
  7  9  2  0  0  0  0
  8 33  1  0  0  0  0
  8 34  1  0  0  0  0
  8 35  1  0  0  0  0
  9 10  1  0  0  0  0
  9 36  1  0  0  0  0
 10 11  2  0  0  0  0
 10 37  1  0  0  0  0
 11 12  1  0  0  0  0
 12 13  1  0  0  0  0
 12 15  2  0  0  0  0
 13 14  1  0  0  0  0
 13 38  1  0  0  0  0
 14 21  2  0  0  0  0
 15 16  1  0  0  0  0
 15 21  1  0  0  0  0
 16 17  2  0  0  0  0
 16 39  1  0  0  0  0
 17 18  1  0  0  0  0
 17 23  1  0  0  0  0
 18 19  1  0  0  0  0
 19 20  1  0  0  0  0
 19 40  1  0  0  0  0
 19 41  1  0  0  0  0
 20 42  1  0  0  0  0
 20 43  1  0  0  0  0
 20 44  1  0  0  0  0
 21 22  1  0  0  0  0
 22 23  2  0  0  0  0
 22 45  1  0  0  0  0
 23 24  1  0  0  0  0
 24 25  1  0  0  0  0
 24 29  2  0  0  0  0
 25 26  2  0  0  0  0
 25 46  1  0  0  0  0
 26 27  1  0  0  0  0
 27 28  1  0  0  0  0
 27 29  1  0  0  0  0
 28 47  1  0  0  0  0
 28 48  1  0  0  0  0
 28 49  1  0  0  0  0
 29 50  1  0  0  0  0
M  END
