3w2p_ligand
 OpenBabel08222323353D

 68 71  0  0  0  0  0  0  0  0999 V2000
  146.5290   24.7500   50.2060 C   0  0  0  0  0  0  0  0  0  0  0  0
  147.7900   25.2830   50.3750 C   0  0  0  0  0  0  0  0  0  0  0  0
  148.0040   26.6420   50.3920 C   0  0  0  0  0  0  0  0  0  0  0  0
  146.9420   27.4940   50.2150 C   0  0  0  0  0  0  0  0  0  0  0  0
  145.6670   26.9730   50.0390 C   0  0  0  0  0  0  0  0  0  0  0  0
  145.4530   25.5960   50.0330 C   0  0  0  0  0  0  0  0  0  0  0  0
  147.2810   28.8440   50.2580 O   0  0  0  0  0  0  0  0  0  0  0  0
  146.3570   29.8140   49.8900 C   0  0  0  0  0  0  0  0  0  0  0  0
  149.5950   27.2700   50.6370 Cl  0  0  0  0  0  0  0  0  0  0  0  0
  146.0680   30.8190   50.7800 C   0  0  0  0  0  0  0  0  0  0  0  0
  145.1700   31.8040   50.4360 C   0  0  0  0  0  0  0  0  0  0  0  0
  144.5740   31.7810   49.1950 C   0  0  0  0  0  0  0  0  0  0  0  0
  144.8730   30.7730   48.3000 C   0  0  0  0  0  0  0  0  0  0  0  0
  145.7730   29.7910   48.6470 C   0  0  0  0  0  0  0  0  0  0  0  0
  144.2400   30.7360   46.9430 C   0  0  0  0  0  0  0  0  0  0  0  0
  143.9020   29.4770   46.5120 F   0  0  0  0  0  0  0  0  0  0  0  0
  145.0850   31.2220   45.9920 F   0  0  0  0  0  0  0  0  0  0  0  0
  143.1050   31.4930   46.8770 F   0  0  0  0  0  0  0  0  0  0  0  0
  147.7610   20.9810   53.4790 N   0  0  0  0  0  0  0  0  0  0  0  0
  147.6180   22.3040   53.4810 C   0  0  0  0  0  0  0  0  0  0  0  0
  147.2300   23.0940   52.4790 N   0  0  0  0  0  0  0  0  0  0  0  0
  146.9230   22.5500   51.2910 C   0  0  0  0  0  0  0  0  0  0  0  0
  147.4520   20.4260   52.2930 C   0  0  0  0  0  0  0  0  0  0  0  0
  147.0290   21.1740   51.2090 C   0  0  0  0  0  0  0  0  0  0  0  0
  146.8250   20.2780   50.1850 N   0  0  0  0  0  0  0  0  0  0  0  0
  147.0870   18.9960   50.6020 C   0  0  0  0  0  0  0  0  0  0  0  0
  147.4780   19.0530   51.9210 C   0  0  0  0  0  0  0  0  0  0  0  0
  146.4090   20.6230   48.8210 C   0  0  0  0  0  0  0  0  0  0  0  0
  145.2170   19.8550   48.3060 C   0  0  0  0  0  0  0  0  0  0  0  0
  144.0870   20.3480   49.0240 N   0  0  0  0  0  0  0  0  0  0  0  0
  143.4550   19.5260   49.9110 C   0  0  0  0  0  0  0  0  0  0  0  0
  142.3150   20.2540   50.5470 C   0  0  0  0  0  0  0  0  0  0  0  0
  143.7450   18.3540   50.1450 O   0  0  0  0  0  0  0  0  0  0  0  0
  146.5190   23.3390   50.2010 N   0  0  0  0  0  0  0  0  0  0  0  0
  141.0470   19.5800   50.0640 C   0  0  0  0  0  0  0  0  0  0  0  0
  140.4300   20.2940   48.8810 C   0  0  0  0  0  0  0  0  0  0  0  0
  139.1550   19.6570   48.5670 N   0  3  0  0  0  0  0  0  0  0  0  0
  138.0750   20.5940   48.8800 C   0  0  0  0  0  0  0  0  0  0  0  0
  139.1450   19.4210   47.1290 C   0  0  0  0  0  0  0  0  0  0  0  0
  148.6340   24.6139   50.4976 H   0  0  0  0  0  0  0  0  0  0  0  0
  144.8277   27.6457   49.9046 H   0  0  0  0  0  0  0  0  0  0  0  0
  144.4554   25.1953   49.8944 H   0  0  0  0  0  0  0  0  0  0  0  0
  146.5465   30.8367   51.7525 H   0  0  0  0  0  0  0  0  0  0  0  0
  144.9331   32.5943   51.1391 H   0  0  0  0  0  0  0  0  0  0  0  0
  143.8681   32.5563   48.9199 H   0  0  0  0  0  0  0  0  0  0  0  0
  146.0194   29.0041   47.9434 H   0  0  0  0  0  0  0  0  0  0  0  0
  147.8458   22.8031   54.4159 H   0  0  0  0  0  0  0  0  0  0  0  0
  147.0008   18.0946   49.9970 H   0  0  0  0  0  0  0  0  0  0  0  0
  147.7533   18.2117   52.5554 H   0  0  0  0  0  0  0  0  0  0  0  0
  147.2564   20.4307   48.1466 H   0  0  0  0  0  0  0  0  0  0  0  0
  146.1598   21.6942   48.8006 H   0  0  0  0  0  0  0  0  0  0  0  0
  145.3472   18.7787   48.4919 H   0  0  0  0  0  0  0  0  0  0  0  0
  145.0887   20.0279   47.2273 H   0  0  0  0  0  0  0  0  0  0  0  0
  143.7627   21.2828   48.8792 H   0  0  0  0  0  0  0  0  0  0  0  0
  142.3225   21.3110   50.2424 H   0  0  0  0  0  0  0  0  0  0  0  0
  142.3863   20.1876   51.6427 H   0  0  0  0  0  0  0  0  0  0  0  0
  146.1967   22.8594   49.3484 H   0  0  0  0  0  0  0  0  0  0  0  0
  140.3182   19.5662   50.8878 H   0  0  0  0  0  0  0  0  0  0  0  0
  141.2859   18.5478   49.7684 H   0  0  0  0  0  0  0  0  0  0  0  0
  141.1029   20.2241   48.0136 H   0  0  0  0  0  0  0  0  0  0  0  0
  140.2639   21.3520   49.1319 H   0  0  0  0  0  0  0  0  0  0  0  0
  139.0432   18.7960   49.0791 H   0  0  0  0  0  0  0  0  0  0  0  0
  137.1062   20.1274   48.6483 H   0  0  0  0  0  0  0  0  0  0  0  0
  138.1956   21.5068   48.2782 H   0  0  0  0  0  0  0  0  0  0  0  0
  138.1115   20.8518   49.9487 H   0  0  0  0  0  0  0  0  0  0  0  0
  139.9496   18.7181   46.8672 H   0  0  0  0  0  0  0  0  0  0  0  0
  139.3029   20.3725   46.6001 H   0  0  0  0  0  0  0  0  0  0  0  0
  138.1750   18.9942   46.8342 H   0  0  0  0  0  0  0  0  0  0  0  0
  1  2  2  0  0  0  0
  1  6  1  0  0  0  0
  2  3  1  0  0  0  0
  2 40  1  0  0  0  0
  3  4  2  0  0  0  0
  3  9  1  0  0  0  0
  4  7  1  0  0  0  0
  5  4  1  0  0  0  0
  5 41  1  0  0  0  0
  6  5  2  0  0  0  0
  6 42  1  0  0  0  0
  7  8  1  0  0  0  0
  8 10  2  0  0  0  0
  8 14  1  0  0  0  0
 10 11  1  0  0  0  0
 10 43  1  0  0  0  0
 11 12  2  0  0  0  0
 11 44  1  0  0  0  0
 12 45  1  0  0  0  0
 13 12  1  0  0  0  0
 13 15  1  0  0  0  0
 14 13  2  0  0  0  0
 14 46  1  0  0  0  0
 15 16  1  0  0  0  0
 15 17  1  0  0  0  0
 15 18  1  0  0  0  0
 19 23  1  0  0  0  0
 20 19  2  0  0  0  0
 20 47  1  0  0  0  0
 21 20  1  0  0  0  0
 22 21  2  0  0  0  0
 22 24  1  0  0  0  0
 22 34  1  0  0  0  0
 23 24  2  0  0  0  0
 23 27  1  0  0  0  0
 24 25  1  0  0  0  0
 25 26  1  0  0  0  0
 25 28  1  0  0  0  0
 26 27  2  0  0  0  0
 26 48  1  0  0  0  0
 27 49  1  0  0  0  0
 28 29  1  0  0  0  0
 28 50  1  0  0  0  0
 28 51  1  0  0  0  0
 29 30  1  0  0  0  0
 29 52  1  0  0  0  0
 29 53  1  0  0  0  0
 30 31  1  0  0  0  0
 30 54  1  0  0  0  0
 31 32  1  0  0  0  0
 31 33  2  0  0  0  0
 32 35  1  0  0  0  0
 32 55  1  0  0  0  0
 32 56  1  0  0  0  0
 34  1  1  0  0  0  0
 34 57  1  0  0  0  0
 35 36  1  0  0  0  0
 35 58  1  0  0  0  0
 35 59  1  0  0  0  0
 36 37  1  0  0  0  0
 36 60  1  0  0  0  0
 36 61  1  0  0  0  0
 37 38  1  0  0  0  0
 37 39  1  0  0  0  0
 37 62  1  0  0  0  0
 38 63  1  0  0  0  0
 38 64  1  0  0  0  0
 38 65  1  0  0  0  0
 39 66  1  0  0  0  0
 39 67  1  0  0  0  0
 39 68  1  0  0  0  0
M  CHG  1  37   1
M  END
