3w2t_ligand
 OpenBabel08222323353D

 50 53  0  0  1  0  0  0  0  0999 V2000
   57.1700   63.0460   35.5880 O   0  0  0  0  0  0  0  0  0  0  0  0
   56.7870   64.0630   36.1730 C   0  0  0  0  0  0  0  0  0  0  0  0
   57.1580   64.2780   37.4880 N   0  0  0  0  0  0  0  0  0  0  0  0
   57.1170   65.6730   37.9470 C   0  0  0  0  0  0  0  0  0  0  0  0
   58.0270   65.7030   39.1640 C   0  0  0  0  0  0  0  0  0  0  0  0
   59.0990   64.6710   38.8510 C   0  0  0  0  0  0  0  0  0  0  0  0
   58.4260   63.6620   37.9440 C   0  0  1  0  0  0  0  0  0  0  0  0
   58.0630   62.4880   38.8100 C   0  0  0  0  0  0  0  0  0  0  0  0
   56.8540   62.3750   39.1960 N   0  0  0  0  0  0  0  0  0  0  0  0
   55.8330   65.0430   35.4920 C   0  0  0  0  0  0  0  0  0  0  0  0
   55.1020   64.4610   34.3580 N   0  3  0  0  0  0  0  0  0  0  0  0
   53.8000   63.7760   34.4750 C   0  0  1  0  0  0  0  0  0  0  0  0
   53.8400   62.7430   35.6230 C   0  0  0  0  0  0  0  0  0  0  0  0
   52.4890   62.0350   35.7860 C   0  0  1  0  0  0  0  0  0  0  0  0
   51.3650   63.0660   36.0110 C   0  0  0  0  0  0  0  0  0  0  0  0
   51.2980   64.0550   34.8400 C   0  0  1  0  0  0  0  0  0  0  0  0
   52.6610   64.7690   34.7610 C   0  0  0  0  0  0  0  0  0  0  0  0
   51.0340   63.2850   33.5280 C   0  0  0  0  0  0  0  0  0  0  0  0
   52.2290   61.2820   34.4790 C   0  0  0  0  0  0  0  0  0  0  0  0
   52.1690   62.2640   33.3080 C   0  0  1  0  0  0  0  0  0  0  0  0
   51.9400   61.4640   32.1510 O   0  0  0  0  0  0  0  0  0  0  0  0
   53.4910   63.0300   33.1620 C   0  0  0  0  0  0  0  0  0  0  0  0
   56.0917   65.9615   38.2216 H   0  0  0  0  0  0  0  0  0  0  0  0
   57.4916   66.3502   37.1653 H   0  0  0  0  0  0  0  0  0  0  0  0
   57.4726   65.4267   40.0730 H   0  0  0  0  0  0  0  0  0  0  0  0
   58.4717   66.7006   39.2946 H   0  0  0  0  0  0  0  0  0  0  0  0
   59.4492   64.1864   39.7743 H   0  0  0  0  0  0  0  0  0  0  0  0
   59.9505   65.1425   38.3386 H   0  0  0  0  0  0  0  0  0  0  0  0
   59.0685   63.3696   37.1004 H   0  0  0  0  0  0  0  0  0  0  0  0
   58.8133   61.7538   39.0997 H   0  0  0  0  0  0  0  0  0  0  0  0
   56.5811   61.5982   39.7775 H   0  0  0  0  0  0  0  0  0  0  0  0
   56.4177   65.8998   35.1258 H   0  0  0  0  0  0  0  0  0  0  0  0
   55.1011   65.3898   36.2363 H   0  0  0  0  0  0  0  0  0  0  0  0
   55.7286   63.7868   33.9470 H   0  0  0  0  0  0  0  0  0  0  0  0
   54.9535   65.2197   33.7112 H   0  0  0  0  0  0  0  0  0  0  0  0
   54.0885   63.2602   36.5614 H   0  0  0  0  0  0  0  0  0  0  0  0
   54.6131   61.9923   35.4022 H   0  0  0  0  0  0  0  0  0  0  0  0
   52.5257   61.3346   36.6334 H   0  0  0  0  0  0  0  0  0  0  0  0
   51.5627   63.6194   36.9408 H   0  0  0  0  0  0  0  0  0  0  0  0
   50.4029   62.5395   36.0951 H   0  0  0  0  0  0  0  0  0  0  0  0
   50.4954   64.7883   35.0077 H   0  0  0  0  0  0  0  0  0  0  0  0
   52.6271   65.5164   33.9546 H   0  0  0  0  0  0  0  0  0  0  0  0
   52.8573   65.2722   35.7193 H   0  0  0  0  0  0  0  0  0  0  0  0
   51.0049   63.9913   32.6853 H   0  0  0  0  0  0  0  0  0  0  0  0
   50.0715   62.7571   33.5974 H   0  0  0  0  0  0  0  0  0  0  0  0
   51.2716   60.7454   34.5528 H   0  0  0  0  0  0  0  0  0  0  0  0
   53.0414   60.5606   34.3072 H   0  0  0  0  0  0  0  0  0  0  0  0
   51.8928   62.0235   31.3848 H   0  0  0  0  0  0  0  0  0  0  0  0
   54.3032   62.3212   32.9430 H   0  0  0  0  0  0  0  0  0  0  0  0
   53.4056   63.7553   32.3395 H   0  0  0  0  0  0  0  0  0  0  0  0
  1  2  2  0  0  0  0
  2  3  1  0  0  0  0
  2 10  1  0  0  0  0
  3  4  1  0  0  0  0
  3  7  1  0  0  0  0
  4  5  1  0  0  0  0
  4 23  1  0  0  0  0
  4 24  1  0  0  0  0
  5  6  1  0  0  0  0
  5 25  1  0  0  0  0
  5 26  1  0  0  0  0
  6  7  1  0  0  0  0
  6 27  1  0  0  0  0
  6 28  1  0  0  0  0
  7  8  1  0  0  0  0
  7 29  1  6  0  0  0
  8  9  2  0  0  0  0
  8 30  1  0  0  0  0
  9 31  1  0  0  0  0
 10 11  1  0  0  0  0
 10 32  1  0  0  0  0
 10 33  1  0  0  0  0
 11 34  1  0  0  0  0
 11 35  1  0  0  0  0
 12 11  1  6  0  0  0
 12 13  1  0  0  0  0
 12 17  1  0  0  0  0
 12 22  1  0  0  0  0
 13 14  1  0  0  0  0
 13 36  1  0  0  0  0
 13 37  1  0  0  0  0
 14 15  1  0  0  0  0
 14 19  1  0  0  0  0
 14 38  1  1  0  0  0
 15 16  1  0  0  0  0
 15 39  1  0  0  0  0
 15 40  1  0  0  0  0
 16 17  1  0  0  0  0
 16 18  1  0  0  0  0
 16 41  1  1  0  0  0
 17 42  1  0  0  0  0
 17 43  1  0  0  0  0
 18 20  1  0  0  0  0
 18 44  1  0  0  0  0
 18 45  1  0  0  0  0
 19 20  1  0  0  0  0
 19 46  1  0  0  0  0
 19 47  1  0  0  0  0
 20 21  1  6  0  0  0
 20 22  1  0  0  0  0
 21 48  1  0  0  0  0
 22 49  1  0  0  0  0
 22 50  1  0  0  0  0
M  CHG  1  11   1
M  END
