3w32_ligand
 OpenBabel08222323353D

 62 65  0  0  0  0  0  0  0  0999 V2000
   17.5230   28.9900    5.7980 C   0  0  0  0  0  0  0  0  0  0  0  0
   16.2910   28.4180    6.0800 C   0  0  0  0  0  0  0  0  0  0  0  0
   17.3990   32.4000   11.0690 C   0  0  0  0  0  0  0  0  0  0  0  0
   17.7660   30.2650    6.2690 C   0  0  0  0  0  0  0  0  0  0  0  0
   17.6200   31.9950    9.7720 C   0  0  0  0  0  0  0  0  0  0  0  0
   15.6050   30.4080    7.2680 C   0  0  0  0  0  0  0  0  0  0  0  0
   15.7860   33.9910   10.3130 C   0  0  0  0  0  0  0  0  0  0  0  0
   12.7480   33.5660   13.3790 C   0  0  0  0  0  0  0  0  0  0  0  0
   14.9420   34.4920   14.5740 C   0  0  0  0  0  0  0  0  0  0  0  0
   15.3700   29.1340    6.8090 C   0  0  0  0  0  0  0  0  0  0  0  0
   16.4800   33.3980   11.3520 C   0  0  0  0  0  0  0  0  0  0  0  0
   16.8300   30.9650    6.9940 C   0  0  0  0  0  0  0  0  0  0  0  0
   16.9230   32.5970    8.7430 C   0  0  0  0  0  0  0  0  0  0  0  0
   15.9950   33.5920    9.0090 C   0  0  0  0  0  0  0  0  0  0  0  0
   13.6990   34.5620   15.1920 C   0  0  0  0  0  0  0  0  0  0  0  0
   14.9890   33.9350   13.3050 C   0  0  0  0  0  0  0  0  0  0  0  0
   16.1630   35.0290   15.1700 C   0  0  0  0  0  0  0  0  0  0  0  0
   16.4430   35.1960   16.4650 C   0  0  0  0  0  0  0  0  0  0  0  0
   17.7340   35.8640   16.8100 C   0  0  0  0  0  0  0  0  0  0  0  0
   15.5660   34.8150   17.5820 C   0  0  0  0  0  0  0  0  0  0  0  0
   14.3100   35.6400   17.4090 C   0  0  0  0  0  0  0  0  0  0  0  0
   23.0390   35.0530   18.7000 C   0  0  0  0  0  0  0  0  0  0  0  0
   20.0480   36.3220   16.1570 C   0  0  0  0  0  0  0  0  0  0  0  0
   20.7350   35.5380   17.2580 C   0  0  0  0  0  0  0  0  0  0  0  0
   14.0380   28.5220    7.1200 C   0  0  0  0  0  0  0  0  0  0  0  0
   12.5980   34.0910   14.5900 N   0  0  0  0  0  0  0  0  0  0  0  0
   13.8910   33.4610   12.6950 N   0  0  0  0  0  0  0  0  0  0  0  0
   13.3910   35.0600   16.4560 N   0  0  0  0  0  0  0  0  0  0  0  0
   16.2480   33.8570   12.6500 N   0  0  0  0  0  0  0  0  0  0  0  0
   18.7330   35.7910   15.8670 N   0  0  0  0  0  0  0  0  0  0  0  0
   17.8350   36.4820   17.8600 O   0  0  0  0  0  0  0  0  0  0  0  0
   23.0660   36.4370   16.4890 O   0  0  0  0  0  0  0  0  0  0  0  0
   21.9970   37.4430   18.5570 O   0  0  0  0  0  0  0  0  0  0  0  0
   17.1180   32.2490    7.4240 O   0  0  0  0  0  0  0  0  0  0  0  0
   14.0970   27.6110    8.1150 F   0  0  0  0  0  0  0  0  0  0  0  0
   13.1660   29.4380    7.5620 F   0  0  0  0  0  0  0  0  0  0  0  0
   13.5590   27.8560    6.0390 F   0  0  0  0  0  0  0  0  0  0  0  0
   22.2760   36.3050   17.7000 S   0  0  0  0  0  0  0  0  0  0  0  0
   15.1370   34.3430    7.7020 Cl  0  0  0  0  0  0  0  0  0  0  0  0
   18.2711   28.4531    5.2261 H   0  0  0  0  0  0  0  0  0  0  0  0
   16.0569   27.4190    5.7302 H   0  0  0  0  0  0  0  0  0  0  0  0
   17.9497   31.9333   11.8777 H   0  0  0  0  0  0  0  0  0  0  0  0
   18.7236   30.7284    6.0610 H   0  0  0  0  0  0  0  0  0  0  0  0
   18.3360   31.2092    9.5599 H   0  0  0  0  0  0  0  0  0  0  0  0
   14.8516   30.9528    7.8254 H   0  0  0  0  0  0  0  0  0  0  0  0
   15.0706   34.7772   10.5254 H   0  0  0  0  0  0  0  0  0  0  0  0
   11.8544   33.1850   12.8980 H   0  0  0  0  0  0  0  0  0  0  0  0
   16.9418   35.3307   14.4712 H   0  0  0  0  0  0  0  0  0  0  0  0
   16.0472   35.0445   18.5442 H   0  0  0  0  0  0  0  0  0  0  0  0
   15.3301   33.7416   17.5368 H   0  0  0  0  0  0  0  0  0  0  0  0
   14.5931   36.6438   17.0593 H   0  0  0  0  0  0  0  0  0  0  0  0
   13.8041   35.7200   18.3825 H   0  0  0  0  0  0  0  0  0  0  0  0
   24.0211   35.4080   19.0458 H   0  0  0  0  0  0  0  0  0  0  0  0
   23.1689   34.1371   18.1049 H   0  0  0  0  0  0  0  0  0  0  0  0
   22.4000   34.8380   19.5692 H   0  0  0  0  0  0  0  0  0  0  0  0
   20.6623   36.2717   15.2459 H   0  0  0  0  0  0  0  0  0  0  0  0
   19.9478   37.3705   16.4742 H   0  0  0  0  0  0  0  0  0  0  0  0
   20.9282   34.5137   16.9066 H   0  0  0  0  0  0  0  0  0  0  0  0
   20.0805   35.5052   18.1415 H   0  0  0  0  0  0  0  0  0  0  0  0
   12.4028   35.0095   16.7420 H   0  0  0  0  0  0  0  0  0  0  0  0
   17.0702   34.1699   13.1857 H   0  0  0  0  0  0  0  0  0  0  0  0
   18.5502   35.3699   14.9786 H   0  0  0  0  0  0  0  0  0  0  0  0
  1  2  2  0  0  0  0
  1 40  1  0  0  0  0
  2 41  1  0  0  0  0
  3  5  2  0  0  0  0
  3 42  1  0  0  0  0
  4  1  1  0  0  0  0
  4 43  1  0  0  0  0
  5 13  1  0  0  0  0
  5 44  1  0  0  0  0
  6 10  2  0  0  0  0
  6 45  1  0  0  0  0
  7 14  1  0  0  0  0
  7 46  1  0  0  0  0
  8 47  1  0  0  0  0
  9 15  2  0  0  0  0
  9 16  1  0  0  0  0
 10  2  1  0  0  0  0
 10 25  1  0  0  0  0
 11  3  1  0  0  0  0
 11  7  2  0  0  0  0
 12  4  2  0  0  0  0
 12  6  1  0  0  0  0
 13 34  1  0  0  0  0
 14 13  2  0  0  0  0
 14 39  1  0  0  0  0
 15 26  1  0  0  0  0
 16 27  2  0  0  0  0
 16 29  1  0  0  0  0
 17  9  1  0  0  0  0
 17 48  1  0  0  0  0
 18 17  2  0  0  0  0
 18 20  1  0  0  0  0
 19 18  1  0  0  0  0
 19 31  2  0  0  0  0
 20 21  1  0  0  0  0
 20 49  1  0  0  0  0
 20 50  1  0  0  0  0
 21 28  1  0  0  0  0
 21 51  1  0  0  0  0
 21 52  1  0  0  0  0
 22 53  1  0  0  0  0
 22 54  1  0  0  0  0
 22 55  1  0  0  0  0
 23 30  1  0  0  0  0
 23 56  1  0  0  0  0
 23 57  1  0  0  0  0
 24 23  1  0  0  0  0
 24 38  1  0  0  0  0
 24 58  1  0  0  0  0
 24 59  1  0  0  0  0
 25 35  1  0  0  0  0
 25 36  1  0  0  0  0
 25 37  1  0  0  0  0
 26  8  2  0  0  0  0
 27  8  1  0  0  0  0
 28 15  1  0  0  0  0
 28 60  1  0  0  0  0
 29 11  1  0  0  0  0
 29 61  1  0  0  0  0
 30 19  1  0  0  0  0
 30 62  1  0  0  0  0
 34 12  1  0  0  0  0
 38 22  1  0  0  0  0
 38 32  2  0  0  0  0
 38 33  2  0  0  0  0
M  END
