3w5t_ligand
 OpenBabel08222323353D

 74 77  0  0  1  0  0  0  0  0999 V2000
   66.0260   12.8810   -5.9940 O   0  0  0  0  0  0  0  0  0  0  0  0
   64.2380   15.2100   -8.4270 C   0  0  0  0  0  0  0  0  0  0  0  0
   65.3250   14.7040   -7.3940 C   0  0  0  0  0  0  0  0  0  0  0  0
   65.0850   13.1670   -6.9550 C   0  0  2  0  0  0  0  0  0  0  0  0
   63.6070   12.9260   -6.3410 C   0  0  0  0  0  0  0  0  0  0  0  0
   62.4920   13.3930   -7.4610 C   0  0  1  0  0  0  0  0  0  0  0  0
   60.9690   13.1860   -6.8650 C   0  0  0  0  0  0  0  0  0  0  0  0
   60.7810   14.0730   -5.5290 C   0  0  0  0  0  0  0  0  0  0  0  0
   61.0330   15.6600   -5.8150 C   0  0  2  0  0  0  0  0  0  0  0  0
   62.5460   15.8960   -6.3790 C   0  0  1  0  0  0  0  0  0  0  0  0
   62.7690   15.0160   -7.8320 C   0  0  1  0  0  0  0  0  0  0  0  0
   62.7840   17.4480   -6.6420 C   0  0  0  0  0  0  0  0  0  0  0  0
   62.5890   18.3370   -5.3590 C   0  0  0  0  0  0  0  0  0  0  0  0
   61.1370   18.1000   -4.6580 C   0  0  1  0  0  0  0  0  0  0  0  0
   60.8810   16.4930   -4.5150 C   0  0  1  0  0  0  0  0  0  0  0  0
   59.4330   16.4270   -3.8220 C   0  0  0  0  0  0  0  0  0  0  0  0
   59.7670   17.3220   -2.6860 C   0  0  0  0  0  0  0  0  0  0  0  0
   60.8830   18.4080   -3.0940 C   0  0  2  0  0  0  0  0  0  0  0  0
   60.0150   18.8290   -5.6730 C   0  0  0  0  0  0  0  0  0  0  0  0
   61.8030   15.5480   -8.9270 C   0  0  0  0  0  0  0  0  0  0  0  0
   60.4350   19.9390   -2.7100 C   0  0  2  0  0  0  0  0  0  0  0  0
   61.6180   20.9820   -3.1090 C   0  0  0  0  0  0  0  0  0  0  0  0
   60.2020   19.9410   -1.2220 C   0  0  0  0  0  0  0  0  0  0  0  0
   59.7430   21.2150   -0.5330 C   0  0  0  0  0  0  0  0  0  0  0  0
   59.4990   21.0500    0.9060 C   0  0  0  0  0  0  0  0  0  0  0  0
   66.5960   11.7520   -5.7490 C   0  0  0  0  0  0  0  0  0  0  0  0
   67.8030   11.6340   -4.7800 C   0  0  0  0  0  0  0  0  0  0  0  0
   68.9550   12.1030   -3.8090 C   0  0  0  0  0  0  0  0  0  0  0  0
   58.5220   21.6690    1.3440 O   0  5  0  0  0  0  0  0  0  0  0  0
   60.2270   20.3120    1.6060 O   0  0  0  0  0  0  0  0  0  0  0  0
   66.4540   10.5820   -6.0900 O   0  0  0  0  0  0  0  0  0  0  0  0
   64.3296   14.6346   -9.3600 H   0  0  0  0  0  0  0  0  0  0  0  0
   64.4060   16.2768   -8.6360 H   0  0  0  0  0  0  0  0  0  0  0  0
   65.2830   15.3389   -6.4967 H   0  0  0  0  0  0  0  0  0  0  0  0
   66.3193   14.7886   -7.8568 H   0  0  0  0  0  0  0  0  0  0  0  0
   65.2220   12.5103   -7.8268 H   0  0  0  0  0  0  0  0  0  0  0  0
   63.4843   13.5220   -5.4247 H   0  0  0  0  0  0  0  0  0  0  0  0
   63.4724   11.8599   -6.1058 H   0  0  0  0  0  0  0  0  0  0  0  0
   62.6072   12.7849   -8.3704 H   0  0  0  0  0  0  0  0  0  0  0  0
   60.8121   12.1243   -6.6238 H   0  0  0  0  0  0  0  0  0  0  0  0
   60.2348   13.5029   -7.6203 H   0  0  0  0  0  0  0  0  0  0  0  0
   61.4990   13.7297   -4.7696 H   0  0  0  0  0  0  0  0  0  0  0  0
   59.7563   13.9373   -5.1527 H   0  0  0  0  0  0  0  0  0  0  0  0
   60.3027   16.0085   -6.5601 H   0  0  0  0  0  0  0  0  0  0  0  0
   63.2695   15.5425   -5.6297 H   0  0  0  0  0  0  0  0  0  0  0  0
   62.0725   17.7844   -7.4105 H   0  0  0  0  0  0  0  0  0  0  0  0
   63.8119   17.5858   -7.0085 H   0  0  0  0  0  0  0  0  0  0  0  0
   62.6750   19.3955   -5.6455 H   0  0  0  0  0  0  0  0  0  0  0  0
   63.3772   18.0884   -4.6331 H   0  0  0  0  0  0  0  0  0  0  0  0
   61.6220   16.0875   -3.8104 H   0  0  0  0  0  0  0  0  0  0  0  0
   59.1623   15.4113   -3.4980 H   0  0  0  0  0  0  0  0  0  0  0  0
   58.6359   16.8322   -4.4626 H   0  0  0  0  0  0  0  0  0  0  0  0
   60.1490   16.7137   -1.8529 H   0  0  0  0  0  0  0  0  0  0  0  0
   58.8558   17.8494   -2.3674 H   0  0  0  0  0  0  0  0  0  0  0  0
   61.8120   18.2020   -2.5421 H   0  0  0  0  0  0  0  0  0  0  0  0
   60.2482   18.5774   -6.7181 H   0  0  0  0  0  0  0  0  0  0  0  0
   60.0556   19.9203   -5.5408 H   0  0  0  0  0  0  0  0  0  0  0  0
   59.0064   18.4668   -5.4250 H   0  0  0  0  0  0  0  0  0  0  0  0
   61.9524   14.9782   -9.8560 H   0  0  0  0  0  0  0  0  0  0  0  0
   62.0095   16.6124   -9.1125 H   0  0  0  0  0  0  0  0  0  0  0  0
   60.7634   15.4299   -8.5876 H   0  0  0  0  0  0  0  0  0  0  0  0
   59.5111   20.2127   -3.2405 H   0  0  0  0  0  0  0  0  0  0  0  0
   61.3085   22.0048   -2.8479 H   0  0  0  0  0  0  0  0  0  0  0  0
   61.8105   20.9220   -4.1903 H   0  0  0  0  0  0  0  0  0  0  0  0
   62.5349   20.7246   -2.5585 H   0  0  0  0  0  0  0  0  0  0  0  0
   61.1514   19.6477   -0.7502 H   0  0  0  0  0  0  0  0  0  0  0  0
   59.4390   19.1754   -1.0177 H   0  0  0  0  0  0  0  0  0  0  0  0
   58.8091   21.5501   -1.0079 H   0  0  0  0  0  0  0  0  0  0  0  0
   60.5192   21.9826   -0.6683 H   0  0  0  0  0  0  0  0  0  0  0  0
   68.4476   11.0595   -5.4614 H   0  0  0  0  0  0  0  0  0  0  0  0
   67.3187   10.9489   -4.0686 H   0  0  0  0  0  0  0  0  0  0  0  0
   69.5009   11.2238   -3.4362 H   0  0  0  0  0  0  0  0  0  0  0  0
   68.5191   12.6508   -2.9605 H   0  0  0  0  0  0  0  0  0  0  0  0
   69.6481   12.7613   -4.3533 H   0  0  0  0  0  0  0  0  0  0  0  0
  1 26  1  0  0  0  0
  2 11  1  0  0  0  0
  2 32  1  0  0  0  0
  2 33  1  0  0  0  0
  3  2  1  0  0  0  0
  3  4  1  0  0  0  0
  3 34  1  0  0  0  0
  3 35  1  0  0  0  0
  4  1  1  0  0  0  0
  4  5  1  0  0  0  0
  4 36  1  6  0  0  0
  5  6  1  0  0  0  0
  5 37  1  0  0  0  0
  5 38  1  0  0  0  0
  6  7  1  0  0  0  0
  6 11  1  0  0  0  0
  6 39  1  6  0  0  0
  7  8  1  0  0  0  0
  7 40  1  0  0  0  0
  7 41  1  0  0  0  0
  8  9  1  0  0  0  0
  8 42  1  0  0  0  0
  8 43  1  0  0  0  0
  9 10  1  0  0  0  0
  9 15  1  0  0  0  0
  9 44  1  6  0  0  0
 10 11  1  0  0  0  0
 10 12  1  0  0  0  0
 10 45  1  1  0  0  0
 11 20  1  6  0  0  0
 12 13  1  0  0  0  0
 12 46  1  0  0  0  0
 12 47  1  0  0  0  0
 13 14  1  0  0  0  0
 13 48  1  0  0  0  0
 13 49  1  0  0  0  0
 14 15  1  0  0  0  0
 14 18  1  0  0  0  0
 14 19  1  6  0  0  0
 15 16  1  0  0  0  0
 15 50  1  1  0  0  0
 16 17  1  0  0  0  0
 16 51  1  0  0  0  0
 16 52  1  0  0  0  0
 17 18  1  0  0  0  0
 17 53  1  0  0  0  0
 17 54  1  0  0  0  0
 18 21  1  0  0  0  0
 18 55  1  1  0  0  0
 19 56  1  0  0  0  0
 19 57  1  0  0  0  0
 19 58  1  0  0  0  0
 20 59  1  0  0  0  0
 20 60  1  0  0  0  0
 20 61  1  0  0  0  0
 21 22  1  0  0  0  0
 21 23  1  0  0  0  0
 21 62  1  6  0  0  0
 22 63  1  0  0  0  0
 22 64  1  0  0  0  0
 22 65  1  0  0  0  0
 23 24  1  0  0  0  0
 23 66  1  0  0  0  0
 23 67  1  0  0  0  0
 24 25  1  0  0  0  0
 24 68  1  0  0  0  0
 24 69  1  0  0  0  0
 25 29  1  0  0  0  0
 25 30  2  0  0  0  0
 26 27  1  0  0  0  0
 26 31  2  0  0  0  0
 27 28  1  0  0  0  0
 27 70  1  0  0  0  0
 27 71  1  0  0  0  0
 28 72  1  0  0  0  0
 28 73  1  0  0  0  0
 28 74  1  0  0  0  0
M  CHG  1  29  -1
M  END
