3w8o_ligand
 OpenBabel08222323353D

 59 70  0  0  0  0  0  0  0  0999 V2000
   69.1290  -51.3070   -9.1240 C   0  0  0  0  0  0  0  0  0  0  0  0
   70.5120  -51.2710   -9.3770 C   0  0  0  0  0  0  0  0  0  0  0  0
   71.2090  -52.4570   -9.6560 C   0  0  0  0  0  0  0  0  0  0  0  0
   70.5330  -53.6870   -9.6780 C   0  0  0  0  0  0  0  0  0  0  0  0
   68.5030  -52.5330   -9.1600 C   0  0  0  0  0  0  0  0  0  0  0  0
   67.1100  -52.9510   -8.9660 C   0  0  0  0  0  0  0  0  0  0  0  0
   66.1380  -52.0550   -8.6710 N   0  0  0  0  0  2  0  0  0  0  0  0
   64.8760  -52.4500   -8.2910 C   0  0  0  0  0  0  0  0  0  0  0  0
   63.8740  -51.4720   -7.8730 C   0  0  0  0  0  0  0  0  0  0  0  0
   63.9030  -50.1090   -7.7390 C   0  0  0  0  0  0  0  0  0  0  0  0
   62.7490  -49.4690   -7.2850 C   0  0  0  0  0  0  0  0  0  0  0  0
   61.6000  -50.2240   -6.9820 C   0  0  0  0  0  0  0  0  0  0  0  0
   61.6100  -51.6180   -7.1400 C   0  0  0  0  0  0  0  0  0  0  0  0
   62.7770  -52.2080   -7.5720 C   0  0  0  0  0  0  0  0  0  0  0  0
   66.9070  -54.2800   -9.0910 N   0  0  0  0  0  0  0  0  0  0  0  0
   63.6940  -56.3340   -8.2830 N   0  0  0  0  0  0  0  0  0  0  0  0
   66.2020  -56.8450   -9.1140 N   0  0  0  0  0  0  0  0  0  0  0  0
   64.4300  -53.7520   -8.2770 N   0  0  0  0  0  0  0  0  0  0  0  0
   63.1380  -53.5820   -7.8810 C   0  0  0  0  0  0  0  0  0  0  0  0
   62.2560  -54.6120   -7.6630 N   0  0  0  0  0  2  0  0  0  0  0  0
   62.4790  -55.8570   -8.0810 C   0  0  0  0  0  0  0  0  0  0  0  0
   69.1760  -53.6810   -9.4230 C   0  0  0  0  0  0  0  0  0  0  0  0
   68.1660  -54.7480   -9.2920 C   0  0  0  0  0  0  0  0  0  0  0  0
   68.4650  -56.0510   -9.5490 N   0  0  0  0  0  2  0  0  0  0  0  0
   67.5390  -57.0570   -9.3970 C   0  0  0  0  0  0  0  0  0  0  0  0
   67.8530  -58.4380   -9.7800 C   0  0  0  0  0  0  0  0  0  0  0  0
   69.0140  -59.0800  -10.1600 C   0  0  0  0  0  0  0  0  0  0  0  0
   68.9590  -60.4550  -10.3840 C   0  0  0  0  0  0  0  0  0  0  0  0
   67.7540  -61.1450  -10.1910 C   0  0  0  0  0  0  0  0  0  0  0  0
   66.6130  -60.4500   -9.7820 C   0  0  0  0  0  0  0  0  0  0  0  0
   66.7150  -59.1150   -9.5740 C   0  0  0  0  0  0  0  0  0  0  0  0
   65.7220  -58.1120   -9.2200 C   0  0  0  0  0  0  0  0  0  0  0  0
   64.4450  -58.5000   -8.8900 N   0  0  0  0  0  2  0  0  0  0  0  0
   63.4580  -57.5960   -8.6270 C   0  0  0  0  0  0  0  0  0  0  0  0
   62.1130  -58.0480   -8.2610 C   0  0  0  0  0  0  0  0  0  0  0  0
   61.4690  -59.2520   -8.4030 C   0  0  0  0  0  0  0  0  0  0  0  0
   61.4640  -56.9170   -7.9240 C   0  0  0  0  0  0  0  0  0  0  0  0
   60.1030  -56.9060   -7.6690 C   0  0  0  0  0  0  0  0  0  0  0  0
   59.4150  -58.1280   -7.7370 C   0  0  0  0  0  0  0  0  0  0  0  0
   60.1050  -59.3050   -8.1060 C   0  0  0  0  0  0  0  0  0  0  0  0
   65.3230  -55.3010   -8.7040 Fe  0  0  0  0  0  0  0  0  0  0  0  0
   68.5748  -50.4007   -8.9081 H   0  0  0  0  0  0  0  0  0  0  0  0
   71.0410  -50.3250   -9.3565 H   0  0  0  0  0  0  0  0  0  0  0  0
   72.2740  -52.4229   -9.8553 H   0  0  0  0  0  0  0  0  0  0  0  0
   71.0590  -54.6112   -9.8883 H   0  0  0  0  0  0  0  0  0  0  0  0
   64.7965  -49.5439   -7.9787 H   0  0  0  0  0  0  0  0  0  0  0  0
   62.7373  -48.3916   -7.1658 H   0  0  0  0  0  0  0  0  0  0  0  0
   60.7051  -49.7269   -6.6256 H   0  0  0  0  0  0  0  0  0  0  0  0
   60.7278  -52.2114   -6.9289 H   0  0  0  0  0  0  0  0  0  0  0  0
   69.9412  -58.5315  -10.2807 H   0  0  0  0  0  0  0  0  0  0  0  0
   69.8455  -60.9890  -10.7065 H   0  0  0  0  0  0  0  0  0  0  0  0
   67.7076  -62.2150  -10.3586 H   0  0  0  0  0  0  0  0  0  0  0  0
   65.6708  -60.9654   -9.6349 H   0  0  0  0  0  0  0  0  0  0  0  0
   62.0028  -60.1349   -8.7355 H   0  0  0  0  0  0  0  0  0  0  0  0
   59.5861  -55.9849   -7.4251 H   0  0  0  0  0  0  0  0  0  0  0  0
   58.3565  -58.1687   -7.5069 H   0  0  0  0  0  0  0  0  0  0  0  0
   59.5755  -60.2494   -8.1586 H   0  0  0  0  0  0  0  0  0  0  0  0
   65.8704  -55.4643   -6.9418 H   0  0  0  0  0  0  0  0  0  0  0  0
   64.7756  -55.1377  -10.4662 H   0  0  0  0  0  0  0  0  0  0  0  0
  1  2  2  0  0  0  0
  1 42  1  0  0  0  0
  2 43  1  0  0  0  0
  3  2  1  0  0  0  0
  3 44  1  0  0  0  0
  4  3  2  0  0  0  0
  4 45  1  0  0  0  0
  5  1  1  0  0  0  0
  5  6  2  0  0  0  0
  6  7  1  0  0  0  0
  7  8  1  0  0  0  0
  8  9  2  0  0  0  0
  8 18  1  0  0  0  0
  9 10  1  0  0  0  0
  9 14  1  0  0  0  0
 10 11  2  0  0  0  0
 10 46  1  0  0  0  0
 11 12  1  0  0  0  0
 11 47  1  0  0  0  0
 12 48  1  0  0  0  0
 13 12  2  0  0  0  0
 13 49  1  0  0  0  0
 14 13  1  0  0  0  0
 15  6  1  0  0  0  0
 15 41  1  0  0  0  0
 16 34  1  0  0  0  0
 17 32  1  0  0  0  0
 18 19  1  0  0  0  0
 19 14  2  0  0  0  0
 19 20  1  0  0  0  0
 20 21  1  0  0  0  0
 21 16  1  0  0  0  0
 21 37  2  0  0  0  0
 22  4  1  0  0  0  0
 22  5  1  0  0  0  0
 23 15  1  0  0  0  0
 23 22  2  0  0  0  0
 24 23  1  0  0  0  0
 24 25  1  0  0  0  0
 25 17  1  0  0  0  0
 25 26  2  0  0  0  0
 26 27  1  0  0  0  0
 26 31  1  0  0  0  0
 27 28  2  0  0  0  0
 27 50  1  0  0  0  0
 28 29  1  0  0  0  0
 28 51  1  0  0  0  0
 29 30  2  0  0  0  0
 29 52  1  0  0  0  0
 30 31  1  0  0  0  0
 30 53  1  0  0  0  0
 31 32  2  0  0  0  0
 32 33  1  0  0  0  0
 33 34  1  0  0  0  0
 34 35  2  0  0  0  0
 35 36  1  0  0  0  0
 35 37  1  0  0  0  0
 36 40  2  0  0  0  0
 36 54  1  0  0  0  0
 37 38  1  0  0  0  0
 38 39  2  0  0  0  0
 38 55  1  0  0  0  0
 39 40  1  0  0  0  0
 39 56  1  0  0  0  0
 40 57  1  0  0  0  0
 41 16  1  0  0  0  0
 41 17  1  0  0  0  0
 41 18  1  0  0  0  0
 41 58  1  0  0  0  0
 41 59  1  0  0  0  0
M  END
