3wab_ligand
 OpenBabel08222323353D

 29 28  0  0  1  0  0  0  0  0999 V2000
    4.3240  -14.8920    0.1900 C   0  0  0  0  0  0  0  0  0  0  0  0
    4.5370  -16.0260   -0.8150 C   0  0  0  0  0  0  0  0  0  0  0  0
    3.3300  -16.9650   -0.7940 C   0  0  0  0  0  0  0  0  0  0  0  0
    3.1940  -17.6400    0.5720 C   0  0  0  0  0  0  0  0  0  0  0  0
    4.4450  -18.4690    0.8740 C   0  0  0  0  0  0  0  0  0  0  0  0
    5.4590  -13.9590    0.1720 N   0  3  0  0  0  0  0  0  0  0  0  0
    4.2030  -19.3430    2.1080 C   0  0  2  0  0  0  0  0  0  0  0  0
    3.9110  -18.4850    3.3400 C   0  0  0  0  0  0  0  0  0  0  0  0
    4.9030  -18.0460    3.9640 O   0  5  0  0  0  0  0  0  0  0  0  0
    2.7320  -18.4770    3.7510 O   0  0  0  0  0  0  0  0  0  0  0  0
    5.4280  -20.2160    2.3830 C   0  0  0  0  0  0  0  0  0  0  0  0
    5.2140  -21.2200    3.8980 S   0  0  0  0  0  0  0  0  0  0  0  0
    4.2237  -15.3184    1.1990 H   0  0  0  0  0  0  0  0  0  0  0  0
    3.4049  -14.3468   -0.0708 H   0  0  0  0  0  0  0  0  0  0  0  0
    5.4429  -16.5886   -0.5453 H   0  0  0  0  0  0  0  0  0  0  0  0
    4.6544  -15.6036   -1.8238 H   0  0  0  0  0  0  0  0  0  0  0  0
    3.4595  -17.7369   -1.5669 H   0  0  0  0  0  0  0  0  0  0  0  0
    2.4184  -16.3860   -1.0030 H   0  0  0  0  0  0  0  0  0  0  0  0
    2.3132  -18.2989    0.5666 H   0  0  0  0  0  0  0  0  0  0  0  0
    3.0713  -16.8701    1.3480 H   0  0  0  0  0  0  0  0  0  0  0  0
    5.2927  -17.7945    1.0649 H   0  0  0  0  0  0  0  0  0  0  0  0
    4.6745  -19.1113    0.0110 H   0  0  0  0  0  0  0  0  0  0  0  0
    5.2982  -13.2214    0.8400 H   0  0  0  0  0  0  0  0  0  0  0  0
    5.5535  -13.5626   -0.7499 H   0  0  0  0  0  0  0  0  0  0  0  0
    6.3038  -14.4529    0.4137 H   0  0  0  0  0  0  0  0  0  0  0  0
    3.3366  -19.9924    1.9143 H   0  0  0  0  0  0  0  0  0  0  0  0
    6.3080  -19.5676    2.5060 H   0  0  0  0  0  0  0  0  0  0  0  0
    5.5855  -20.8896    1.5278 H   0  0  0  0  0  0  0  0  0  0  0  0
    6.0382  -21.7809    4.0472 H   0  0  0  0  0  0  0  0  0  0  0  0
  1  2  1  0  0  0  0
  1  6  1  0  0  0  0
  1 13  1  0  0  0  0
  1 14  1  0  0  0  0
  2  3  1  0  0  0  0
  2 15  1  0  0  0  0
  2 16  1  0  0  0  0
  3  4  1  0  0  0  0
  3 17  1  0  0  0  0
  3 18  1  0  0  0  0
  4  5  1  0  0  0  0
  4 19  1  0  0  0  0
  4 20  1  0  0  0  0
  5  7  1  0  0  0  0
  5 21  1  0  0  0  0
  5 22  1  0  0  0  0
  6 23  1  0  0  0  0
  6 24  1  0  0  0  0
  6 25  1  0  0  0  0
  7  8  1  0  0  0  0
  7 11  1  0  0  0  0
  7 26  1  6  0  0  0
  8  9  1  0  0  0  0
  8 10  2  0  0  0  0
 11 12  1  0  0  0  0
 11 27  1  0  0  0  0
 11 28  1  0  0  0  0
 12 29  1  0  0  0  0
M  CHG  2   6   1   9  -1
M  END
