3wav_ligand
 OpenBabel08222323353D

 40 42  0  0  0  0  0  0  0  0999 V2000
   15.8010   39.1020   18.4880 C   0  0  0  0  0  0  0  0  0  0  0  0
   17.2150   39.1240   18.9550 C   0  0  0  0  0  0  0  0  0  0  0  0
   18.1130   39.6140   17.9490 N   0  3  0  0  0  0  0  0  0  0  0  0
   19.3870   40.0910   18.3310 C   0  0  0  0  0  0  0  0  0  0  0  0
   18.0020   38.8380   16.7510 C   0  0  0  0  0  0  0  0  0  0  0  0
   16.6520   38.9990   16.1540 C   0  0  0  0  0  0  0  0  0  0  0  0
   15.6020   38.7970   17.0990 N   0  0  0  0  0  0  0  0  0  0  0  0
   14.3250   38.2520   16.7300 C   0  0  0  0  0  0  0  0  0  0  0  0
   13.6610   37.9520   15.1500 S   0  0  0  0  0  0  0  0  0  0  0  0
   13.3880   37.8250   17.6320 N   0  0  0  0  0  0  0  0  0  0  0  0
   12.2330   37.3050   17.0860 C   0  0  0  0  0  0  0  0  0  0  0  0
   11.1850   36.8230   17.8600 O   0  0  0  0  0  0  0  0  0  0  0  0
   12.1760   37.2820   15.6400 C   0  0  0  0  0  0  0  0  0  0  0  0
   10.9560   36.7350   14.8630 C   0  0  0  0  0  0  0  0  0  0  0  0
   11.0060   36.7020   13.3140 C   0  0  0  0  0  0  0  0  0  0  0  0
   11.3600   37.8760   12.5330 C   0  0  0  0  0  0  0  0  0  0  0  0
   11.3590   37.8060   11.2010 C   0  0  0  0  0  0  0  0  0  0  0  0
   11.8060   39.2210   10.3030 Cl  0  0  0  0  0  0  0  0  0  0  0  0
   10.9980   36.5940   10.5700 C   0  0  0  0  0  0  0  0  0  0  0  0
   10.9640   36.4110    8.8810 Cl  0  0  0  0  0  0  0  0  0  0  0  0
   10.6370   35.4560   11.3550 C   0  0  0  0  0  0  0  0  0  0  0  0
   10.6390   35.5280   12.6950 C   0  0  0  0  0  0  0  0  0  0  0  0
   15.3675   40.0945   18.6801 H   0  0  0  0  0  0  0  0  0  0  0  0
   15.2630   38.3462   19.0790 H   0  0  0  0  0  0  0  0  0  0  0  0
   17.5135   38.1010   19.2276 H   0  0  0  0  0  0  0  0  0  0  0  0
   17.2855   39.7745   19.8392 H   0  0  0  0  0  0  0  0  0  0  0  0
   17.6698   40.4784   17.6798 H   0  0  0  0  0  0  0  0  0  0  0  0
   19.9365   40.4243   17.4383 H   0  0  0  0  0  0  0  0  0  0  0  0
   19.9472   39.2843   18.8264 H   0  0  0  0  0  0  0  0  0  0  0  0
   19.2691   40.9358   19.0256 H   0  0  0  0  0  0  0  0  0  0  0  0
   18.1688   37.7772   16.9894 H   0  0  0  0  0  0  0  0  0  0  0  0
   18.7602   39.1752   16.0290 H   0  0  0  0  0  0  0  0  0  0  0  0
   16.5380   38.2677   15.3403 H   0  0  0  0  0  0  0  0  0  0  0  0
   16.5670   40.0172   15.7465 H   0  0  0  0  0  0  0  0  0  0  0  0
   10.4901   36.5121   17.2918 H   0  0  0  0  0  0  0  0  0  0  0  0
   10.0907   37.3530   15.1446 H   0  0  0  0  0  0  0  0  0  0  0  0
   10.7944   35.7013   15.2025 H   0  0  0  0  0  0  0  0  0  0  0  0
   11.6232   38.8026   13.0302 H   0  0  0  0  0  0  0  0  0  0  0  0
   10.3600   34.5294   10.8654 H   0  0  0  0  0  0  0  0  0  0  0  0
   10.3531   34.6662   13.2872 H   0  0  0  0  0  0  0  0  0  0  0  0
  1  2  1  0  0  0  0
  1  7  1  0  0  0  0
  1 23  1  0  0  0  0
  1 24  1  0  0  0  0
  2  3  1  0  0  0  0
  2 25  1  0  0  0  0
  2 26  1  0  0  0  0
  3  4  1  0  0  0  0
  3  5  1  0  0  0  0
  3 27  1  0  0  0  0
  4 28  1  0  0  0  0
  4 29  1  0  0  0  0
  4 30  1  0  0  0  0
  5  6  1  0  0  0  0
  5 31  1  0  0  0  0
  5 32  1  0  0  0  0
  6  7  1  0  0  0  0
  6 33  1  0  0  0  0
  6 34  1  0  0  0  0
  7  8  1  0  0  0  0
  8  9  1  0  0  0  0
  8 10  2  0  0  0  0
  9 13  1  0  0  0  0
 10 11  1  0  0  0  0
 11 12  1  0  0  0  0
 11 13  2  0  0  0  0
 12 35  1  0  0  0  0
 13 14  1  0  0  0  0
 14 15  1  0  0  0  0
 14 36  1  0  0  0  0
 14 37  1  0  0  0  0
 15 16  2  0  0  0  0
 15 22  1  0  0  0  0
 16 17  1  0  0  0  0
 16 38  1  0  0  0  0
 17 18  1  0  0  0  0
 17 19  2  0  0  0  0
 19 20  1  0  0  0  0
 19 21  1  0  0  0  0
 21 22  2  0  0  0  0
 21 39  1  0  0  0  0
 22 40  1  0  0  0  0
M  CHG  1   3   1
M  END
