3wc5_ligand
 OpenBabel08222323353D

 33 32  0  0  1  0  0  0  0  0999 V2000
    4.8260  -17.6990    3.7800 O   0  5  0  0  0  0  0  0  0  0  0  0
    3.8990  -18.4820    3.3930 C   0  0  0  0  0  0  0  0  0  0  0  0
    2.7440  -18.5410    3.9530 O   0  0  0  0  0  0  0  0  0  0  0  0
    4.1950  -19.3060    2.1570 C   0  0  2  0  0  0  0  0  0  0  0  0
    5.4710  -20.1220    2.4030 C   0  0  0  0  0  0  0  0  0  0  0  0
    5.2450  -21.3380    3.9530 Se  0  0  0  0  0  0  0  0  0  0  0  0
    4.4410  -18.3750    0.9640 C   0  0  0  0  0  0  0  0  0  0  0  0
    3.2070  -17.5470    0.5190 C   0  0  0  0  0  0  0  0  0  0  0  0
    3.3800  -16.9540   -0.9110 C   0  0  0  0  0  0  0  0  0  0  0  0
    4.6710  -16.0860   -1.0910 C   0  0  0  0  0  0  0  0  0  0  0  0
    4.7060  -15.2310    0.1580 C   0  0  0  0  0  0  0  0  0  0  0  0
    5.2450  -13.9350   -0.1300 N   0  3  0  0  0  0  0  0  0  0  0  0
    3.3504  -19.9773    1.9427 H   0  0  0  0  0  0  0  0  0  0  0  0
    6.3055  -19.4340    2.6037 H   0  0  0  0  0  0  0  0  0  0  0  0
    5.6953  -20.7189    1.5067 H   0  0  0  0  0  0  0  0  0  0  0  0
    7.1262  -22.0133    3.6975 H   0  0  0  0  0  0  0  0  0  0  0  0
    5.9295  -19.8967    5.1836 H   0  0  0  0  0  0  0  0  0  0  0  0
    3.3638  -20.6627    4.2085 H   0  0  0  0  0  0  0  0  0  0  0  0
    5.0154  -22.5736    5.5280 H   0  0  0  0  0  0  0  0  0  0  0  0
    4.5605  -22.7793    2.7224 H   0  0  0  0  0  0  0  0  0  0  0  0
    4.7659  -18.9897    0.1116 H   0  0  0  0  0  0  0  0  0  0  0  0
    5.2431  -17.6736    1.2371 H   0  0  0  0  0  0  0  0  0  0  0  0
    3.0602  -16.7204    1.2297 H   0  0  0  0  0  0  0  0  0  0  0  0
    2.3213  -18.1992    0.5271 H   0  0  0  0  0  0  0  0  0  0  0  0
    2.5062  -16.3233   -1.1316 H   0  0  0  0  0  0  0  0  0  0  0  0
    3.4212  -17.7872   -1.6279 H   0  0  0  0  0  0  0  0  0  0  0  0
    4.6003  -15.4601   -1.9928 H   0  0  0  0  0  0  0  0  0  0  0  0
    5.5658  -16.7226   -1.1557 H   0  0  0  0  0  0  0  0  0  0  0  0
    5.3343  -15.7232    0.9150 H   0  0  0  0  0  0  0  0  0  0  0  0
    3.6833  -15.1183    0.5472 H   0  0  0  0  0  0  0  0  0  0  0  0
    5.2597  -13.3824    0.7129 H   0  0  0  0  0  0  0  0  0  0  0  0
    4.6708  -13.4783   -0.8212 H   0  0  0  0  0  0  0  0  0  0  0  0
    6.1837  -14.0326   -0.4842 H   0  0  0  0  0  0  0  0  0  0  0  0
  1  2  1  0  0  0  0
  2  3  2  0  0  0  0
  2  4  1  0  0  0  0
  4  5  1  0  0  0  0
  4  7  1  0  0  0  0
  4 13  1  6  0  0  0
  5  6  1  0  0  0  0
  5 14  1  0  0  0  0
  5 15  1  0  0  0  0
  6 16  1  0  0  0  0
  6 17  1  0  0  0  0
  6 18  1  0  0  0  0
  6 19  1  0  0  0  0
  6 20  1  0  0  0  0
  7  8  1  0  0  0  0
  7 21  1  0  0  0  0
  7 22  1  0  0  0  0
  8  9  1  0  0  0  0
  8 23  1  0  0  0  0
  8 24  1  0  0  0  0
  9 10  1  0  0  0  0
  9 25  1  0  0  0  0
  9 26  1  0  0  0  0
 10 11  1  0  0  0  0
 10 27  1  0  0  0  0
 10 28  1  0  0  0  0
 11 12  1  0  0  0  0
 11 29  1  0  0  0  0
 11 30  1  0  0  0  0
 12 31  1  0  0  0  0
 12 32  1  0  0  0  0
 12 33  1  0  0  0  0
M  CHG  2   1  -1  12   1
M  END
