3wc7_ligand
 OpenBabel08222323353D

 63 63  0  0  1  0  0  0  0  0999 V2000
    4.7640  -17.5580    4.0460 O   0  5  0  0  0  0  0  0  0  0  0  0
    3.9570  -18.3930    3.5650 C   0  0  0  0  0  0  0  0  0  0  0  0
    2.8420  -18.6020    4.0860 O   0  0  0  0  0  0  0  0  0  0  0  0
    4.3300  -19.1190    2.2900 C   0  0  2  0  0  0  0  0  0  0  0  0
    3.6440  -18.4160    1.1080 C   0  0  0  0  0  0  0  0  0  0  0  0
    3.6510  -16.9000    1.2450 C   0  0  0  0  0  0  0  0  0  0  0  0
    3.1030  -16.2370   -0.0170 C   0  0  0  0  0  0  0  0  0  0  0  0
    4.0120  -16.5280   -1.2120 C   0  0  0  0  0  0  0  0  0  0  0  0
    5.3340  -15.7740   -1.1260 C   0  0  0  0  0  0  0  0  0  0  0  0
    5.1260  -14.3940   -0.7170 N   0  3  0  0  0  0  0  0  0  0  0  0
    3.8210  -20.5520    2.2690 C   0  0  0  0  0  0  0  0  0  0  0  0
    4.7130  -21.5880    3.4550 P   0  0  1  0  0  0  0  0  0  0  0  0
    5.8450  -22.2800    2.7480 O   0  0  0  0  0  1  0  0  0  0  0  0
    5.1230  -20.7130    4.6120 O   0  0  0  0  0  0  0  0  0  0  0  0
    3.6090  -22.9310    4.0390 C   0  0  2  0  0  0  0  0  0  0  0  0
    3.3260  -23.9540    2.9290 C   0  0  0  0  0  0  0  0  0  0  0  0
    2.4090  -23.3200    1.8800 C   0  0  0  0  0  0  0  0  0  0  0  0
    2.6890  -25.2250    3.4870 C   0  0  0  0  0  0  0  0  0  0  0  0
    2.3760  -22.3820    4.5640 N   0  0  0  0  0  0  0  0  0  0  0  0
    2.0050  -22.6300    5.8320 C   0  0  0  0  0  0  0  0  0  0  0  0
    2.6340  -23.3600    6.6080 O   0  0  0  0  0  0  0  0  0  0  0  0
    0.7420  -21.9360    6.3130 C   0  0  0  0  0  0  0  0  0  0  0  0
   -0.1860  -22.9970    6.8770 C   0  0  0  0  0  0  0  0  0  0  0  0
   -0.5040  -24.0820    5.8660 C   0  0  0  0  0  0  0  0  0  0  0  0
   -1.0770  -23.7380    4.6420 C   0  0  0  0  0  0  0  0  0  0  0  0
   -0.2520  -25.4140    6.1760 C   0  0  0  0  0  0  0  0  0  0  0  0
   -0.5520  -26.3900    5.2380 C   0  0  0  0  0  0  0  0  0  0  0  0
   -1.1130  -26.0360    4.0080 C   0  0  0  0  0  0  0  0  0  0  0  0
   -1.3690  -24.7110    3.7010 C   0  0  0  0  0  0  0  0  0  0  0  0
    5.4233  -19.1071    2.1692 H   0  0  0  0  0  0  0  0  0  0  0  0
    2.6007  -18.7598    1.0509 H   0  0  0  0  0  0  0  0  0  0  0  0
    4.1711  -18.6885    0.1818 H   0  0  0  0  0  0  0  0  0  0  0  0
    4.6830  -16.5581    1.4124 H   0  0  0  0  0  0  0  0  0  0  0  0
    3.0258  -16.6129    2.1033 H   0  0  0  0  0  0  0  0  0  0  0  0
    3.0481  -15.1496    0.1398 H   0  0  0  0  0  0  0  0  0  0  0  0
    2.0963  -16.6289   -0.2240 H   0  0  0  0  0  0  0  0  0  0  0  0
    3.4923  -16.2280   -2.1339 H   0  0  0  0  0  0  0  0  0  0  0  0
    4.2212  -17.6075   -1.2436 H   0  0  0  0  0  0  0  0  0  0  0  0
    5.8192  -15.7865   -2.1131 H   0  0  0  0  0  0  0  0  0  0  0  0
    5.9841  -16.2719   -0.3915 H   0  0  0  0  0  0  0  0  0  0  0  0
    6.0145  -13.9204   -0.6685 H   0  0  0  0  0  0  0  0  0  0  0  0
    4.6853  -14.3749    0.1893 H   0  0  0  0  0  0  0  0  0  0  0  0
    4.5342  -13.9301   -1.3883 H   0  0  0  0  0  0  0  0  0  0  0  0
    3.9579  -20.9655    1.2589 H   0  0  0  0  0  0  0  0  0  0  0  0
    2.7512  -20.5555    2.5248 H   0  0  0  0  0  0  0  0  0  0  0  0
    4.1220  -23.4572    4.8575 H   0  0  0  0  0  0  0  0  0  0  0  0
    4.2789  -24.2247    2.4508 H   0  0  0  0  0  0  0  0  0  0  0  0
    2.2040  -24.0499    1.0830 H   0  0  0  0  0  0  0  0  0  0  0  0
    2.9011  -22.4355    1.4493 H   0  0  0  0  0  0  0  0  0  0  0  0
    1.4630  -23.0190    2.3538 H   0  0  0  0  0  0  0  0  0  0  0  0
    3.3571  -25.6703    4.2388 H   0  0  0  0  0  0  0  0  0  0  0  0
    2.5265  -25.9430    2.6697 H   0  0  0  0  0  0  0  0  0  0  0  0
    1.7246  -24.9771    3.9545 H   0  0  0  0  0  0  0  0  0  0  0  0
    1.7965  -21.8144    3.9791 H   0  0  0  0  0  0  0  0  0  0  0  0
    0.2544  -21.4216    5.4718 H   0  0  0  0  0  0  0  0  0  0  0  0
    0.9922  -21.2040    7.0951 H   0  0  0  0  0  0  0  0  0  0  0  0
   -1.1256  -22.5163    7.1869 H   0  0  0  0  0  0  0  0  0  0  0  0
    0.2954  -23.4590    7.7516 H   0  0  0  0  0  0  0  0  0  0  0  0
   -1.2960  -22.6987    4.4251 H   0  0  0  0  0  0  0  0  0  0  0  0
    0.1723  -25.6850    7.1360 H   0  0  0  0  0  0  0  0  0  0  0  0
   -0.3506  -27.4318    5.4596 H   0  0  0  0  0  0  0  0  0  0  0  0
   -1.3505  -26.8085    3.2856 H   0  0  0  0  0  0  0  0  0  0  0  0
   -1.7910  -24.4395    2.7401 H   0  0  0  0  0  0  0  0  0  0  0  0
  1  2  1  0  0  0  0
  2  3  2  0  0  0  0
  2  4  1  0  0  0  0
  4  5  1  0  0  0  0
  4 11  1  0  0  0  0
  4 30  1  6  0  0  0
  5  6  1  0  0  0  0
  5 31  1  0  0  0  0
  5 32  1  0  0  0  0
  6  7  1  0  0  0  0
  6 33  1  0  0  0  0
  6 34  1  0  0  0  0
  7  8  1  0  0  0  0
  7 35  1  0  0  0  0
  7 36  1  0  0  0  0
  8  9  1  0  0  0  0
  8 37  1  0  0  0  0
  8 38  1  0  0  0  0
  9 10  1  0  0  0  0
  9 39  1  0  0  0  0
  9 40  1  0  0  0  0
 10 41  1  0  0  0  0
 10 42  1  0  0  0  0
 10 43  1  0  0  0  0
 11 12  1  0  0  0  0
 11 44  1  0  0  0  0
 11 45  1  0  0  0  0
 12 13  1  6  0  0  0
 12 14  2  0  0  0  0
 12 15  1  0  0  0  0
 15 16  1  0  0  0  0
 15 19  1  0  0  0  0
 15 46  1  1  0  0  0
 16 17  1  0  0  0  0
 16 18  1  0  0  0  0
 16 47  1  0  0  0  0
 17 48  1  0  0  0  0
 17 49  1  0  0  0  0
 17 50  1  0  0  0  0
 18 51  1  0  0  0  0
 18 52  1  0  0  0  0
 18 53  1  0  0  0  0
 19 20  1  0  0  0  0
 19 54  1  0  0  0  0
 20 21  2  0  0  0  0
 20 22  1  0  0  0  0
 22 23  1  0  0  0  0
 22 55  1  0  0  0  0
 22 56  1  0  0  0  0
 23 24  1  0  0  0  0
 23 57  1  0  0  0  0
 23 58  1  0  0  0  0
 24 25  2  0  0  0  0
 24 26  1  0  0  0  0
 25 29  1  0  0  0  0
 25 59  1  0  0  0  0
 26 27  2  0  0  0  0
 26 60  1  0  0  0  0
 27 28  1  0  0  0  0
 27 61  1  0  0  0  0
 28 29  2  0  0  0  0
 28 62  1  0  0  0  0
 29 63  1  0  0  0  0
M  CHG  2   1  -1  10   1
M  END
