3wcf_ligand
 OpenBabel08222323353D

 52 52  0  0  0  0  0  0  0  0999 V2000
  -16.4000   50.8790  -48.4570 O   0  0  0  0  0  1  0  0  0  0  0  0
  -15.6240   50.3950  -49.7820 P   0  0  0  0  0  0  0  0  0  0  0  0
  -14.4020   51.4200  -49.9960 O   0  0  0  0  0  1  0  0  0  0  0  0
  -16.5110   50.3120  -50.9630 O   0  0  0  0  0  0  0  0  0  0  0  0
  -14.8620   48.7770  -49.3670 C   0  0  0  0  0  0  0  0  0  0  0  0
  -13.8820   48.9520  -47.8210 P   0  0  0  0  0  0  0  0  0  0  0  0
  -14.9430   48.8940  -46.6120 O   0  0  0  0  0  1  0  0  0  0  0  0
  -12.9880   47.6190  -47.6910 O   0  0  0  0  0  1  0  0  0  0  0  0
  -13.0650   50.1850  -47.7970 O   0  0  0  0  0  0  0  0  0  0  0  0
  -13.9630   48.3550  -50.5300 C   0  0  0  0  0  0  0  0  0  0  0  0
  -13.8990   46.8810  -50.6250 N   0  0  0  0  0  4  0  0  0  0  0  0
  -12.8740   46.1320  -50.2190 C   0  0  0  0  0  0  0  0  0  0  0  0
  -14.9710   46.1000  -50.7100 C   0  0  0  0  0  0  0  0  0  0  0  0
  -14.6320   44.8820  -50.2980 C   0  0  0  0  0  0  0  0  0  0  0  0
  -13.3420   44.9160  -49.9670 N   0  0  0  0  0  0  0  0  0  0  0  0
  -12.5910   43.8400  -49.2830 C   0  0  0  0  0  0  0  0  0  0  0  0
  -11.8490   44.3460  -48.0450 C   0  0  0  0  0  0  0  0  0  0  0  0
  -12.7870   44.4400  -46.8390 C   0  0  0  0  0  0  0  0  0  0  0  0
  -12.0010   43.9510  -45.6190 C   0  0  0  0  0  0  0  0  0  0  0  0
  -12.9000   43.8490  -44.3870 C   0  0  0  0  0  0  0  0  0  0  0  0
  -12.0760   43.2970  -43.2200 C   0  0  0  0  0  0  0  0  0  0  0  0
  -12.9960   43.0680  -42.0200 C   0  0  0  0  0  0  0  0  0  0  0  0
  -13.3770   41.5920  -41.9030 C   0  0  0  0  0  0  0  0  0  0  0  0
  -12.6600   41.0110  -40.6830 C   0  0  0  0  0  0  0  0  0  0  0  0
  -13.0750   41.8040  -39.4400 C   0  0  0  0  0  0  0  0  0  0  0  0
  -15.6478   48.0220  -49.2173 H   0  0  0  0  0  0  0  0  0  0  0  0
  -12.9500   48.7518  -50.3673 H   0  0  0  0  0  0  0  0  0  0  0  0
  -14.3696   48.7611  -51.4680 H   0  0  0  0  0  0  0  0  0  0  0  0
  -11.8405   46.4585  -50.1133 H   0  0  0  0  0  0  0  0  0  0  0  0
  -15.9571   46.4050  -51.0572 H   0  0  0  0  0  0  0  0  0  0  0  0
  -15.2888   44.0152  -50.2415 H   0  0  0  0  0  0  0  0  0  0  0  0
  -11.8583   43.4178  -49.9865 H   0  0  0  0  0  0  0  0  0  0  0  0
  -13.2981   43.0556  -48.9754 H   0  0  0  0  0  0  0  0  0  0  0  0
  -11.4355   45.3431  -48.2568 H   0  0  0  0  0  0  0  0  0  0  0  0
  -11.0292   43.6516  -47.8089 H   0  0  0  0  0  0  0  0  0  0  0  0
  -13.6709   43.8048  -46.9979 H   0  0  0  0  0  0  0  0  0  0  0  0
  -13.1063   45.4820  -46.6894 H   0  0  0  0  0  0  0  0  0  0  0  0
  -11.1853   44.6589  -45.4103 H   0  0  0  0  0  0  0  0  0  0  0  0
  -11.5787   42.9592  -45.8381 H   0  0  0  0  0  0  0  0  0  0  0  0
  -13.7414   43.1727  -44.5981 H   0  0  0  0  0  0  0  0  0  0  0  0
  -13.2867   44.8456  -44.1278 H   0  0  0  0  0  0  0  0  0  0  0  0
  -11.2912   44.0188  -42.9496 H   0  0  0  0  0  0  0  0  0  0  0  0
  -11.6121   42.3443  -43.5151 H   0  0  0  0  0  0  0  0  0  0  0  0
  -13.9096   43.6675  -42.1462 H   0  0  0  0  0  0  0  0  0  0  0  0
  -12.4763   43.3803  -41.1022 H   0  0  0  0  0  0  0  0  0  0  0  0
  -13.0652   41.0535  -42.8101 H   0  0  0  0  0  0  0  0  0  0  0  0
  -14.4655   41.4969  -41.7760 H   0  0  0  0  0  0  0  0  0  0  0  0
  -11.5716   41.0871  -40.8233 H   0  0  0  0  0  0  0  0  0  0  0  0
  -12.9406   39.9548  -40.5579 H   0  0  0  0  0  0  0  0  0  0  0  0
  -12.5645   41.3939  -38.5561 H   0  0  0  0  0  0  0  0  0  0  0  0
  -14.1637   41.7276  -39.3029 H   0  0  0  0  0  0  0  0  0  0  0  0
  -12.7947   42.8599  -39.5682 H   0  0  0  0  0  0  0  0  0  0  0  0
  1  2  1  0  0  0  0
  2  3  1  0  0  0  0
  2  4  2  0  0  0  0
  2  5  1  0  0  0  0
  5  6  1  0  0  0  0
  5 10  1  0  0  0  0
  5 26  1  0  0  0  0
  6  7  1  0  0  0  0
  6  8  1  0  0  0  0
  6  9  2  0  0  0  0
 10 11  1  0  0  0  0
 10 27  1  0  0  0  0
 10 28  1  0  0  0  0
 11 12  2  0  0  0  0
 11 13  1  0  0  0  0
 12 15  1  0  0  0  0
 12 29  1  0  0  0  0
 13 14  2  0  0  0  0
 13 30  1  0  0  0  0
 14 15  1  0  0  0  0
 14 31  1  0  0  0  0
 15 16  1  0  0  0  0
 16 17  1  0  0  0  0
 16 32  1  0  0  0  0
 16 33  1  0  0  0  0
 17 18  1  0  0  0  0
 17 34  1  0  0  0  0
 17 35  1  0  0  0  0
 18 19  1  0  0  0  0
 18 36  1  0  0  0  0
 18 37  1  0  0  0  0
 19 20  1  0  0  0  0
 19 38  1  0  0  0  0
 19 39  1  0  0  0  0
 20 21  1  0  0  0  0
 20 40  1  0  0  0  0
 20 41  1  0  0  0  0
 21 22  1  0  0  0  0
 21 42  1  0  0  0  0
 21 43  1  0  0  0  0
 22 23  1  0  0  0  0
 22 44  1  0  0  0  0
 22 45  1  0  0  0  0
 23 24  1  0  0  0  0
 23 46  1  0  0  0  0
 23 47  1  0  0  0  0
 24 25  1  0  0  0  0
 24 48  1  0  0  0  0
 24 49  1  0  0  0  0
 25 50  1  0  0  0  0
 25 51  1  0  0  0  0
 25 52  1  0  0  0  0
M  END
