3wd2_ligand
 OpenBabel08222323353D

 68 69  0  0  1  0  0  0  0  0999 V2000
  -20.5830   -7.0540  -31.3050 C   0  0  0  0  0  0  0  0  0  0  0  0
  -21.0110   -6.1550  -30.2030 N   0  0  0  0  0  0  0  0  0  0  0  0
  -20.3360   -5.0190  -29.9600 C   0  0  0  0  0  0  0  0  0  0  0  0
  -19.3410   -4.6340  -30.5960 O   0  0  0  0  0  0  0  0  0  0  0  0
  -20.8010   -4.2960  -28.9120 N   0  0  0  0  0  0  0  0  0  0  0  0
  -20.3210   -3.1210  -28.4650 C   0  0  2  0  0  3  0  0  0  0  0  0
  -19.2580   -2.4960  -29.0320 N   0  0  0  0  0  0  0  0  0  0  0  0
  -20.9510   -2.6270  -27.3870 N   0  0  0  0  0  0  0  0  0  0  0  0
  -20.5680   -1.4040  -26.6610 C   0  0  0  0  0  0  0  0  0  0  0  0
  -20.7970   -0.2260  -27.5600 C   0  0  0  0  0  0  0  0  0  0  0  0
  -21.6240    0.8740  -26.9100 C   0  0  0  0  0  0  0  0  0  0  0  0
  -21.8650    1.8750  -28.0350 C   0  0  2  0  0  0  0  0  0  0  0  0
  -20.9330    1.4300  -29.1110 N   0  0  0  0  0  0  0  0  0  0  0  0
  -20.7810    1.9630  -30.3190 C   0  0  0  0  0  0  0  0  0  0  0  0
  -21.3870    2.9630  -30.6930 O   0  0  0  0  0  0  0  0  0  0  0  0
  -19.7510    1.2290  -31.2310 C   0  0  0  0  0  0  0  0  0  0  0  0
  -19.4750    2.0530  -32.4260 N   0  0  0  0  0  0  0  0  0  0  0  0
  -19.2490    1.5140  -33.4150 N   0  0  0  0  0  0  0  0  0  0  0  0
  -18.9220    1.1750  -34.4680 N   0  0  0  0  0  0  0  0  0  0  0  0
  -21.5790    3.2950  -27.5460 C   0  0  0  0  0  0  0  0  0  0  0  0
  -20.4700    3.7920  -27.7460 O   0  0  0  0  0  0  0  0  0  0  0  0
  -22.5810    3.9460  -26.9280 N   0  0  0  0  0  0  0  0  0  0  0  0
  -22.3730    5.3460  -26.4530 C   0  0  0  0  0  0  0  0  0  0  0  0
  -21.7520    6.2110  -27.5890 C   0  0  0  0  0  0  0  0  0  0  0  0
  -21.0120    7.3600  -27.2970 C   0  0  0  0  0  0  0  0  0  0  0  0
  -20.4460    8.1030  -28.3490 C   0  0  0  0  0  0  0  0  0  0  0  0
  -20.6150    7.7320  -29.6870 C   0  0  0  0  0  0  0  0  0  0  0  0
  -21.3550    6.5920  -29.9900 C   0  0  0  0  0  0  0  0  0  0  0  0
  -21.9120    5.8470  -28.9380 C   0  0  0  0  0  0  0  0  0  0  0  0
  -23.8980    3.3130  -26.6770 C   0  0  0  0  0  0  0  0  0  0  0  0
  -24.9340    3.4760  -27.8270 C   0  0  0  0  0  0  0  0  0  0  0  0
  -24.5470    3.5420  -29.1720 C   0  0  0  0  0  0  0  0  0  0  0  0
  -25.5070    3.6770  -30.1840 C   0  0  0  0  0  0  0  0  0  0  0  0
  -26.8630    3.7410  -29.8630 C   0  0  0  0  0  0  0  0  0  0  0  0
  -27.2620    3.6710  -28.5290 C   0  0  0  0  0  0  0  0  0  0  0  0
  -26.3010    3.5370  -27.5200 C   0  0  0  0  0  0  0  0  0  0  0  0
  -21.2526   -7.9257  -31.3481 H   0  0  0  0  0  0  0  0  0  0  0  0
  -19.5522   -7.3921  -31.1230 H   0  0  0  0  0  0  0  0  0  0  0  0
  -20.6273   -6.5101  -32.2601 H   0  0  0  0  0  0  0  0  0  0  0  0
  -21.8025   -6.3955  -29.6412 H   0  0  0  0  0  0  0  0  0  0  0  0
  -21.5836   -4.6760  -28.4188 H   0  0  0  0  0  0  0  0  0  0  0  0
  -18.9272   -1.5969  -28.6536 H   0  0  0  0  0  0  0  0  0  0  0  0
  -18.7821   -2.9207  -29.8407 H   0  0  0  0  0  0  0  0  0  0  0  0
  -21.7697   -3.1462  -27.0390 H   0  0  0  0  0  0  0  0  0  0  0  0
  -19.5055   -1.4560  -26.3809 H   0  0  0  0  0  0  0  0  0  0  0  0
  -21.1819   -1.3033  -25.7538 H   0  0  0  0  0  0  0  0  0  0  0  0
  -21.3231   -0.5719  -28.4620 H   0  0  0  0  0  0  0  0  0  0  0  0
  -19.8200    0.1926  -27.8432 H   0  0  0  0  0  0  0  0  0  0  0  0
  -21.0696    1.3422  -26.0834 H   0  0  0  0  0  0  0  0  0  0  0  0
  -22.5768    0.4745  -26.5326 H   0  0  0  0  0  0  0  0  0  0  0  0
  -22.9054    1.8220  -28.3883 H   0  0  0  0  0  0  0  0  0  0  0  0
  -20.3568    0.6406  -28.8994 H   0  0  0  0  0  0  0  0  0  0  0  0
  -20.1638    0.2582  -31.5426 H   0  0  0  0  0  0  0  0  0  0  0  0
  -18.8168    1.0681  -30.6731 H   0  0  0  0  0  0  0  0  0  0  0  0
  -21.6933    5.3394  -25.5882 H   0  0  0  0  0  0  0  0  0  0  0  0
  -23.3405    5.7766  -26.1557 H   0  0  0  0  0  0  0  0  0  0  0  0
  -20.8754    7.6759  -26.2691 H   0  0  0  0  0  0  0  0  0  0  0  0
  -19.8632    8.9869  -28.1164 H   0  0  0  0  0  0  0  0  0  0  0  0
  -20.1745    8.3257  -30.4798 H   0  0  0  0  0  0  0  0  0  0  0  0
  -21.4986    6.2851  -31.0197 H   0  0  0  0  0  0  0  0  0  0  0  0
  -22.4864    4.9586  -29.1744 H   0  0  0  0  0  0  0  0  0  0  0  0
  -24.3244    3.7608  -25.7672 H   0  0  0  0  0  0  0  0  0  0  0  0
  -23.7346    2.2374  -26.5144 H   0  0  0  0  0  0  0  0  0  0  0  0
  -23.4960    3.4882  -29.4320 H   0  0  0  0  0  0  0  0  0  0  0  0
  -25.1945    3.7319  -31.2205 H   0  0  0  0  0  0  0  0  0  0  0  0
  -27.6036    3.8448  -30.6477 H   0  0  0  0  0  0  0  0  0  0  0  0
  -28.3143    3.7202  -28.2736 H   0  0  0  0  0  0  0  0  0  0  0  0
  -26.6185    3.4795  -26.4851 H   0  0  0  0  0  0  0  0  0  0  0  0
  1  2  1  0  0  0  0
  1 37  1  0  0  0  0
  1 38  1  0  0  0  0
  1 39  1  0  0  0  0
  2  3  1  0  0  0  0
  2 40  1  0  0  0  0
  3  4  2  0  0  0  0
  3  5  1  0  0  0  0
  5 41  1  0  0  0  0
  6  5  1  1  0  0  0
  6  7  1  0  0  0  0
  6  8  1  0  0  0  0
  7 42  1  0  0  0  0
  7 43  1  0  0  0  0
  8  9  1  0  0  0  0
  8 44  1  0  0  0  0
  9 10  1  0  0  0  0
  9 45  1  0  0  0  0
  9 46  1  0  0  0  0
 10 11  1  0  0  0  0
 10 47  1  0  0  0  0
 10 48  1  0  0  0  0
 11 12  1  0  0  0  0
 11 49  1  0  0  0  0
 11 50  1  0  0  0  0
 12 13  1  0  0  0  0
 12 20  1  0  0  0  0
 12 51  1  6  0  0  0
 13 14  1  0  0  0  0
 13 52  1  0  0  0  0
 14 15  2  0  0  0  0
 14 16  1  0  0  0  0
 16 17  1  0  0  0  0
 16 53  1  0  0  0  0
 16 54  1  0  0  0  0
 17 18  2  0  0  0  0
 18 19  3  0  0  0  0
 20 21  2  0  0  0  0
 20 22  1  0  0  0  0
 22 23  1  0  0  0  0
 22 30  1  0  0  0  0
 23 24  1  0  0  0  0
 23 55  1  0  0  0  0
 23 56  1  0  0  0  0
 24 25  2  0  0  0  0
 24 29  1  0  0  0  0
 25 26  1  0  0  0  0
 25 57  1  0  0  0  0
 26 27  2  0  0  0  0
 26 58  1  0  0  0  0
 27 28  1  0  0  0  0
 27 59  1  0  0  0  0
 28 29  2  0  0  0  0
 28 60  1  0  0  0  0
 29 61  1  0  0  0  0
 30 31  1  0  0  0  0
 30 62  1  0  0  0  0
 30 63  1  0  0  0  0
 31 32  2  0  0  0  0
 31 36  1  0  0  0  0
 32 33  1  0  0  0  0
 32 64  1  0  0  0  0
 33 34  2  0  0  0  0
 33 65  1  0  0  0  0
 34 35  1  0  0  0  0
 34 66  1  0  0  0  0
 35 36  2  0  0  0  0
 35 67  1  0  0  0  0
 36 68  1  0  0  0  0
M  END
