3wdd_ligand
 OpenBabel08222323353D

159162  0  0  1  0  0  0  0  0999 V2000
  -27.1580   12.5840   -5.5370 O   0  0  0  0  0  0  0  0  0  0  0  0
  -26.0520   12.4210   -6.0560 C   0  0  0  0  0  0  0  0  0  0  0  0
  -25.0460   11.5660   -5.3010 C   0  0  2  0  0  0  0  0  0  0  0  0
  -25.6600   10.1640   -5.1110 C   0  0  1  0  0  0  0  0  0  0  0  0
  -25.7440    9.4230   -6.4150 C   0  0  0  0  0  0  0  0  0  0  0  0
  -26.8560    9.3680   -7.2220 C   0  0  0  0  0  0  0  0  0  0  0  0
  -26.5490    8.6100   -8.3170 N   0  0  0  0  0  0  0  0  0  0  0  0
  -27.5570    8.2670   -9.3850 C   0  0  0  0  0  0  0  0  0  0  0  0
  -28.8430    9.0360   -9.1180 C   0  0  0  0  0  0  0  0  0  0  0  0
  -27.8160    6.7390   -9.3420 C   0  0  1  0  0  0  0  0  0  0  0  0
  -28.5110    6.2550   -8.0840 C   0  0  0  0  0  0  0  0  0  0  0  0
  -28.6550    6.3580  -10.4120 O   0  0  0  0  0  0  0  0  0  0  0  0
  -27.0020    8.6800  -10.7460 C   0  0  0  0  0  0  0  0  0  0  0  0
  -25.2590    8.1630   -8.2390 C   0  0  0  0  0  0  0  0  0  0  0  0
  -24.4590    7.3530   -9.0520 C   0  0  0  0  0  0  0  0  0  0  0  0
  -23.1650    7.0690   -8.6700 C   0  0  0  0  0  0  0  0  0  0  0  0
  -22.6190    7.5930   -7.5160 C   0  0  0  0  0  0  0  0  0  0  0  0
  -23.3670    8.3730   -6.6530 C   0  0  0  0  0  0  0  0  0  0  0  0
  -24.6970    8.6620   -7.0270 C   0  0  0  0  0  0  0  0  0  0  0  0
  -24.8700    9.4140   -4.1960 O   0  0  0  0  0  0  0  0  0  0  0  0
  -24.8190   12.1780   -3.9830 N   0  0  0  0  0  0  0  0  0  0  0  0
  -25.7650   12.9800   -7.2410 N   0  0  0  0  0  0  0  0  0  0  0  0
  -26.8600   13.6980   -7.9090 C   0  0  0  0  0  0  0  0  0  0  0  0
  -24.4970   12.8310   -7.9700 C   0  0  1  0  0  0  0  0  0  0  0  0
  -24.6850   11.9060   -9.1600 C   0  0  0  0  0  0  0  0  0  0  0  0
  -23.4150   11.6390   -9.9610 C   0  0  2  0  0  0  0  0  0  0  0  0
  -23.7580   10.8170  -11.2170 C   0  0  0  0  0  0  0  0  0  0  0  0
  -24.6630   11.5820  -12.0050 O   0  0  0  0  0  0  0  0  0  0  0  0
  -22.3580   10.9350   -9.1260 C   0  0  0  0  0  0  0  0  0  0  0  0
  -24.0400   14.2310   -8.4020 C   0  0  0  0  0  0  0  0  0  0  0  0
  -24.0770   14.5840   -9.5830 O   0  0  0  0  0  0  0  0  0  0  0  0
  -23.6210   15.0200   -7.4990 N   0  0  0  0  0  0  0  0  0  0  0  0
  -23.1410   16.3830   -7.8310 C   0  0  2  0  0  0  0  0  0  0  0  0
  -21.8550   16.7160   -7.1210 C   0  0  0  0  0  0  0  0  0  0  0  0
  -21.0630   17.4740   -7.7190 O   0  0  0  0  0  0  0  0  0  0  0  0
  -24.2170   17.4390   -7.5140 C   0  0  0  0  0  0  0  0  0  0  0  0
  -21.6240   16.2390   -5.8870 N   0  0  0  0  0  0  0  0  0  0  0  0
  -20.4640   16.6150   -5.0770 C   0  0  2  0  0  0  0  0  0  0  0  0
  -19.9640   15.3960   -4.3030 C   0  0  0  0  0  0  0  0  0  0  0  0
  -20.7890   17.7380   -4.0670 C   0  0  2  0  0  0  0  0  0  0  0  0
  -21.6710   17.1180   -3.1050 O   0  0  0  0  0  0  0  0  0  0  0  0
  -21.6370   17.8360   -1.8670 C   0  0  0  0  0  0  0  0  0  0  0  0
  -21.3770   18.9770   -4.7180 C   0  0  0  0  0  0  0  0  0  0  0  0
  -20.4940   19.9190   -5.2240 C   0  0  0  0  0  0  0  0  0  0  0  0
  -20.9420   21.1110   -5.7890 C   0  0  0  0  0  0  0  0  0  0  0  0
  -22.2950   21.3220   -5.9670 C   0  0  0  0  0  0  0  0  0  0  0  0
  -23.2070   20.3810   -5.4840 C   0  0  0  0  0  0  0  0  0  0  0  0
  -22.7340   19.1990   -4.8620 C   0  0  0  0  0  0  0  0  0  0  0  0
  -20.6210   14.3300   -4.2970 O   0  0  0  0  0  0  0  0  0  0  0  0
  -18.8850   15.5900   -3.5970 N   0  0  0  0  0  0  0  0  0  0  0  0
  -18.3730   14.6050   -2.6540 C   0  0  2  0  0  0  0  0  0  0  0  0
  -19.0480   14.8570   -1.2980 C   0  0  0  0  0  0  0  0  0  0  0  0
  -18.7470   15.9100   -0.7390 O   0  0  0  0  0  0  0  0  0  0  0  0
  -16.8520   14.8220   -2.5620 C   0  0  0  0  0  0  0  0  0  0  0  0
  -16.2280   13.9720   -1.4790 C   0  0  0  0  0  0  0  0  0  0  0  0
  -16.2300   14.5470   -3.9070 C   0  0  0  0  0  0  0  0  0  0  0  0
  -19.9420   14.0430   -0.7310 N   0  0  0  0  0  0  0  0  0  0  0  0
  -20.4650   14.3860    0.6370 C   0  0  0  0  0  0  0  0  0  0  0  0
  -20.4360   12.7520   -1.2900 C   0  0  1  0  0  0  0  0  0  0  0  0
  -19.9960   11.5360   -0.4510 C   0  0  0  0  0  0  0  0  0  0  0  0
  -18.5080   11.2030   -0.5520 C   0  0  0  0  0  0  0  0  0  0  0  0
  -18.1670   10.1710    0.5310 C   0  0  0  0  0  0  0  0  0  0  0  0
  -18.1300   10.6990   -1.9450 C   0  0  0  0  0  0  0  0  0  0  0  0
  -21.9710   12.8240   -1.3320 C   0  0  0  0  0  0  0  0  0  0  0  0
  -22.6700   12.0820   -0.6340 O   0  0  0  0  0  0  0  0  0  0  0  0
  -24.1660   13.3200   -3.8520 C   0  0  0  0  0  0  0  0  0  0  0  0
  -23.9700   13.8030   -2.4170 C   0  0  2  0  0  0  0  0  0  0  0  0
  -23.6850   13.9560   -4.7880 O   0  0  0  0  0  0  0  0  0  0  0  0
  -24.5600   15.1760   -2.1680 C   0  0  2  0  0  0  0  0  0  0  0  0
  -24.3820   15.6330   -0.7210 C   0  0  0  0  0  0  0  0  0  0  0  0
  -25.9930   15.1160   -2.5660 C   0  0  0  0  0  0  0  0  0  0  0  0
  -26.6480   15.6790   -3.5780 C   0  0  0  0  0  0  0  0  0  0  0  0
  -28.1260   15.4850   -3.7930 C   0  0  0  0  0  0  0  0  0  0  0  0
  -25.9300   16.4640   -4.6280 C   0  0  0  0  0  0  0  0  0  0  0  0
  -22.5190   13.7440   -2.1150 N   0  0  0  0  0  0  0  0  0  0  0  0
  -24.1004   11.4979   -5.8588 H   0  0  0  0  0  0  0  0  0  0  0  0
  -26.6748   10.2765   -4.7018 H   0  0  0  0  0  0  0  0  0  0  0  0
  -27.8144    9.8453   -7.0232 H   0  0  0  0  0  0  0  0  0  0  0  0
  -29.5842    8.7913   -9.8931 H   0  0  0  0  0  0  0  0  0  0  0  0
  -28.6352   10.1160   -9.1373 H   0  0  0  0  0  0  0  0  0  0  0  0
  -29.2392    8.7564   -8.1306 H   0  0  0  0  0  0  0  0  0  0  0  0
  -26.8461    6.2278   -9.4308 H   0  0  0  0  0  0  0  0  0  0  0  0
  -28.6531    5.1656   -8.1397 H   0  0  0  0  0  0  0  0  0  0  0  0
  -29.4900    6.7483   -7.9930 H   0  0  0  0  0  0  0  0  0  0  0  0
  -27.8940    6.4999   -7.2069 H   0  0  0  0  0  0  0  0  0  0  0  0
  -29.5057    6.7675  -10.3072 H   0  0  0  0  0  0  0  0  0  0  0  0
  -27.7326    8.4326  -11.5303 H   0  0  0  0  0  0  0  0  0  0  0  0
  -26.0621    8.1416  -10.9375 H   0  0  0  0  0  0  0  0  0  0  0  0
  -26.8116    9.7634  -10.7509 H   0  0  0  0  0  0  0  0  0  0  0  0
  -24.8545    6.9507   -9.9776 H   0  0  0  0  0  0  0  0  0  0  0  0
  -22.5614    6.4178   -9.2918 H   0  0  0  0  0  0  0  0  0  0  0  0
  -21.5807    7.3887   -7.2807 H   0  0  0  0  0  0  0  0  0  0  0  0
  -22.9484    8.7476   -5.7259 H   0  0  0  0  0  0  0  0  0  0  0  0
  -24.8153    9.8805   -3.3703 H   0  0  0  0  0  0  0  0  0  0  0  0
  -25.1672   11.7189   -3.1657 H   0  0  0  0  0  0  0  0  0  0  0  0
  -27.7368   13.7286   -7.2455 H   0  0  0  0  0  0  0  0  0  0  0  0
  -27.1241   13.1782   -8.8418 H   0  0  0  0  0  0  0  0  0  0  0  0
  -26.5386   14.7244   -8.1395 H   0  0  0  0  0  0  0  0  0  0  0  0
  -23.7394   12.3951   -7.3022 H   0  0  0  0  0  0  0  0  0  0  0  0
  -25.4269   12.3595   -9.8337 H   0  0  0  0  0  0  0  0  0  0  0  0
  -25.0662   10.9430   -8.7896 H   0  0  0  0  0  0  0  0  0  0  0  0
  -23.0029   12.6068  -10.2825 H   0  0  0  0  0  0  0  0  0  0  0  0
  -24.2279    9.8663  -10.9250 H   0  0  0  0  0  0  0  0  0  0  0  0
  -22.8426   10.6124  -11.7916 H   0  0  0  0  0  0  0  0  0  0  0  0
  -24.8900   11.0941  -12.7879 H   0  0  0  0  0  0  0  0  0  0  0  0
  -22.1304   11.5405   -8.2363 H   0  0  0  0  0  0  0  0  0  0  0  0
  -21.4443   10.8051   -9.7246 H   0  0  0  0  0  0  0  0  0  0  0  0
  -22.7343    9.9500   -8.8127 H   0  0  0  0  0  0  0  0  0  0  0  0
  -23.6148   14.7162   -6.5463 H   0  0  0  0  0  0  0  0  0  0  0  0
  -22.9446   16.4130   -8.9129 H   0  0  0  0  0  0  0  0  0  0  0  0
  -23.8358   18.4388   -7.7691 H   0  0  0  0  0  0  0  0  0  0  0  0
  -24.4621   17.4025   -6.4423 H   0  0  0  0  0  0  0  0  0  0  0  0
  -25.1213   17.2298   -8.1043 H   0  0  0  0  0  0  0  0  0  0  0  0
  -22.2805   15.5914   -5.5002 H   0  0  0  0  0  0  0  0  0  0  0  0
  -19.6689   16.9674   -5.7505 H   0  0  0  0  0  0  0  0  0  0  0  0
  -19.8625   18.0434   -3.5588 H   0  0  0  0  0  0  0  0  0  0  0  0
  -22.3121   17.3537   -1.1448 H   0  0  0  0  0  0  0  0  0  0  0  0
  -21.9613   18.8735   -2.0358 H   0  0  0  0  0  0  0  0  0  0  0  0
  -20.6115   17.8325   -1.4691 H   0  0  0  0  0  0  0  0  0  0  0  0
  -19.4288   19.7230   -5.1788 H   0  0  0  0  0  0  0  0  0  0  0  0
  -20.2298   21.8714   -6.0883 H   0  0  0  0  0  0  0  0  0  0  0  0
  -22.6466   22.2112   -6.4777 H   0  0  0  0  0  0  0  0  0  0  0  0
  -24.2723   20.5542   -5.5845 H   0  0  0  0  0  0  0  0  0  0  0  0
  -23.4413   18.4634   -4.4964 H   0  0  0  0  0  0  0  0  0  0  0  0
  -18.3883   16.4509   -3.7076 H   0  0  0  0  0  0  0  0  0  0  0  0
  -18.5905   13.5833   -2.9986 H   0  0  0  0  0  0  0  0  0  0  0  0
  -16.6701   15.8765   -2.3072 H   0  0  0  0  0  0  0  0  0  0  0  0
  -15.1441   14.1567   -1.4469 H   0  0  0  0  0  0  0  0  0  0  0  0
  -16.4126   12.9093   -1.6949 H   0  0  0  0  0  0  0  0  0  0  0  0
  -16.6731   14.2315   -0.5071 H   0  0  0  0  0  0  0  0  0  0  0  0
  -16.7074   15.1814   -4.6683 H   0  0  0  0  0  0  0  0  0  0  0  0
  -16.3750   13.4884   -4.1685 H   0  0  0  0  0  0  0  0  0  0  0  0
  -15.1537   14.7705   -3.8659 H   0  0  0  0  0  0  0  0  0  0  0  0
  -20.0448   15.3502    0.9590 H   0  0  0  0  0  0  0  0  0  0  0  0
  -20.1705   13.6014    1.3495 H   0  0  0  0  0  0  0  0  0  0  0  0
  -21.5621   14.4573    0.6029 H   0  0  0  0  0  0  0  0  0  0  0  0
  -20.0452   12.6319   -2.3112 H   0  0  0  0  0  0  0  0  0  0  0  0
  -20.5681   10.6596   -0.7894 H   0  0  0  0  0  0  0  0  0  0  0  0
  -20.2312   11.7426    0.6035 H   0  0  0  0  0  0  0  0  0  0  0  0
  -17.9316   12.1192   -0.3565 H   0  0  0  0  0  0  0  0  0  0  0  0
  -17.0979    9.9188    0.4734 H   0  0  0  0  0  0  0  0  0  0  0  0
  -18.7670    9.2626    0.3738 H   0  0  0  0  0  0  0  0  0  0  0  0
  -18.3916   10.5918    1.5222 H   0  0  0  0  0  0  0  0  0  0  0  0
  -18.3881   11.4625   -2.6937 H   0  0  0  0  0  0  0  0  0  0  0  0
  -18.6812    9.7721   -2.1616 H   0  0  0  0  0  0  0  0  0  0  0  0
  -17.0488   10.4999   -1.9820 H   0  0  0  0  0  0  0  0  0  0  0  0
  -24.4884   13.1013   -1.7470 H   0  0  0  0  0  0  0  0  0  0  0  0
  -24.0448   15.9027   -2.8134 H   0  0  0  0  0  0  0  0  0  0  0  0
  -24.8260   16.6314   -0.5946 H   0  0  0  0  0  0  0  0  0  0  0  0
  -23.3098   15.6753   -0.4791 H   0  0  0  0  0  0  0  0  0  0  0  0
  -24.8821   14.9214   -0.0476 H   0  0  0  0  0  0  0  0  0  0  0  0
  -26.6145   14.5037   -1.9143 H   0  0  0  0  0  0  0  0  0  0  0  0
  -28.4429   16.0432   -4.6863 H   0  0  0  0  0  0  0  0  0  0  0  0
  -28.6759   15.8551   -2.9152 H   0  0  0  0  0  0  0  0  0  0  0  0
  -28.3386   14.4151   -3.9346 H   0  0  0  0  0  0  0  0  0  0  0  0
  -24.8645   16.5393   -4.3651 H   0  0  0  0  0  0  0  0  0  0  0  0
  -26.3639   17.4728   -4.6925 H   0  0  0  0  0  0  0  0  0  0  0  0
  -26.0331   15.9577   -5.5991 H   0  0  0  0  0  0  0  0  0  0  0  0
  -21.9220   14.4345   -2.5234 H   0  0  0  0  0  0  0  0  0  0  0  0
  1  2  2  0  0  0  0
  2  3  1  0  0  0  0
  2 22  1  0  0  0  0
  3  4  1  0  0  0  0
  3 21  1  0  0  0  0
  3 76  1  6  0  0  0
  4  5  1  0  0  0  0
  4 20  1  0  0  0  0
  4 77  1  1  0  0  0
  5  6  2  0  0  0  0
  5 19  1  0  0  0  0
  6  7  1  0  0  0  0
  6 78  1  0  0  0  0
  7  8  1  0  0  0  0
  7 14  1  0  0  0  0
  8  9  1  0  0  0  0
  8 10  1  0  0  0  0
  8 13  1  0  0  0  0
  9 79  1  0  0  0  0
  9 80  1  0  0  0  0
  9 81  1  0  0  0  0
 10 11  1  0  0  0  0
 10 12  1  0  0  0  0
 10 82  1  6  0  0  0
 11 83  1  0  0  0  0
 11 84  1  0  0  0  0
 11 85  1  0  0  0  0
 12 86  1  0  0  0  0
 13 87  1  0  0  0  0
 13 88  1  0  0  0  0
 13 89  1  0  0  0  0
 14 15  2  0  0  0  0
 14 19  1  0  0  0  0
 15 16  1  0  0  0  0
 15 90  1  0  0  0  0
 16 17  2  0  0  0  0
 16 91  1  0  0  0  0
 17 18  1  0  0  0  0
 17 92  1  0  0  0  0
 18 19  2  0  0  0  0
 18 93  1  0  0  0  0
 20 94  1  0  0  0  0
 21 66  1  0  0  0  0
 21 95  1  0  0  0  0
 22 23  1  0  0  0  0
 22 24  1  0  0  0  0
 23 96  1  0  0  0  0
 23 97  1  0  0  0  0
 23 98  1  0  0  0  0
 24 25  1  0  0  0  0
 24 30  1  0  0  0  0
 24 99  1  1  0  0  0
 25 26  1  0  0  0  0
 25100  1  0  0  0  0
 25101  1  0  0  0  0
 26 27  1  0  0  0  0
 26 29  1  0  0  0  0
 26102  1  6  0  0  0
 27 28  1  0  0  0  0
 27103  1  0  0  0  0
 27104  1  0  0  0  0
 28105  1  0  0  0  0
 29106  1  0  0  0  0
 29107  1  0  0  0  0
 29108  1  0  0  0  0
 30 31  2  0  0  0  0
 30 32  1  0  0  0  0
 32 33  1  0  0  0  0
 32109  1  0  0  0  0
 33 34  1  0  0  0  0
 33 36  1  0  0  0  0
 33110  1  6  0  0  0
 34 35  2  0  0  0  0
 34 37  1  0  0  0  0
 36111  1  0  0  0  0
 36112  1  0  0  0  0
 36113  1  0  0  0  0
 37 38  1  0  0  0  0
 37114  1  0  0  0  0
 38 39  1  0  0  0  0
 38 40  1  0  0  0  0
 38115  1  6  0  0  0
 39 49  2  0  0  0  0
 39 50  1  0  0  0  0
 40 41  1  0  0  0  0
 40 43  1  0  0  0  0
 40116  1  1  0  0  0
 41 42  1  0  0  0  0
 42117  1  0  0  0  0
 42118  1  0  0  0  0
 42119  1  0  0  0  0
 43 44  2  0  0  0  0
 43 48  1  0  0  0  0
 44 45  1  0  0  0  0
 44120  1  0  0  0  0
 45 46  2  0  0  0  0
 45121  1  0  0  0  0
 46 47  1  0  0  0  0
 46122  1  0  0  0  0
 47 48  2  0  0  0  0
 47123  1  0  0  0  0
 48124  1  0  0  0  0
 50 51  1  0  0  0  0
 50125  1  0  0  0  0
 51 52  1  0  0  0  0
 51 54  1  0  0  0  0
 51126  1  6  0  0  0
 52 53  2  0  0  0  0
 52 57  1  0  0  0  0
 54 55  1  0  0  0  0
 54 56  1  0  0  0  0
 54127  1  0  0  0  0
 55128  1  0  0  0  0
 55129  1  0  0  0  0
 55130  1  0  0  0  0
 56131  1  0  0  0  0
 56132  1  0  0  0  0
 56133  1  0  0  0  0
 57 58  1  0  0  0  0
 57 59  1  0  0  0  0
 58134  1  0  0  0  0
 58135  1  0  0  0  0
 58136  1  0  0  0  0
 59 60  1  0  0  0  0
 59 64  1  0  0  0  0
 59137  1  6  0  0  0
 60 61  1  0  0  0  0
 60138  1  0  0  0  0
 60139  1  0  0  0  0
 61 62  1  0  0  0  0
 61 63  1  0  0  0  0
 61140  1  0  0  0  0
 62141  1  0  0  0  0
 62142  1  0  0  0  0
 62143  1  0  0  0  0
 63144  1  0  0  0  0
 63145  1  0  0  0  0
 63146  1  0  0  0  0
 64 65  2  0  0  0  0
 64 75  1  0  0  0  0
 66 67  1  0  0  0  0
 66 68  2  0  0  0  0
 67 69  1  0  0  0  0
 67 75  1  0  0  0  0
 67147  1  1  0  0  0
 69 70  1  0  0  0  0
 69 71  1  0  0  0  0
 69148  1  6  0  0  0
 70149  1  0  0  0  0
 70150  1  0  0  0  0
 70151  1  0  0  0  0
 71 72  2  0  0  0  0
 71152  1  0  0  0  0
 72 73  1  0  0  0  0
 72 74  1  0  0  0  0
 73153  1  0  0  0  0
 73154  1  0  0  0  0
 73155  1  0  0  0  0
 74156  1  0  0  0  0
 74157  1  0  0  0  0
 74158  1  0  0  0  0
 75159  1  0  0  0  0
M  END
