3wde_ligand
 OpenBabel08222323353D

159162  0  0  1  0  0  0  0  0999 V2000
  -27.3650   12.3950   -5.5210 O   0  0  0  0  0  0  0  0  0  0  0  0
  -26.2680   12.3130   -6.0150 C   0  0  0  0  0  0  0  0  0  0  0  0
  -25.2420   11.4190   -5.3120 C   0  0  2  0  0  0  0  0  0  0  0  0
  -25.8580    9.9870   -5.1620 C   0  0  1  0  0  0  0  0  0  0  0  0
  -25.9460    9.2320   -6.4750 C   0  0  0  0  0  0  0  0  0  0  0  0
  -27.1170    9.2290   -7.2270 C   0  0  0  0  0  0  0  0  0  0  0  0
  -26.7830    8.4850   -8.3330 N   0  0  0  0  0  0  0  0  0  0  0  0
  -27.8050    8.1410   -9.3990 C   0  0  0  0  0  0  0  0  0  0  0  0
  -29.0860    8.9190   -9.1280 C   0  0  0  0  0  0  0  0  0  0  0  0
  -28.0610    6.6120   -9.3880 C   0  0  1  0  0  0  0  0  0  0  0  0
  -28.8460    6.1780   -8.1580 C   0  0  0  0  0  0  0  0  0  0  0  0
  -28.8820    6.2140  -10.4630 O   0  0  0  0  0  0  0  0  0  0  0  0
  -27.2880    8.5680  -10.7570 C   0  0  0  0  0  0  0  0  0  0  0  0
  -25.4860    8.0130   -8.3010 C   0  0  0  0  0  0  0  0  0  0  0  0
  -24.7350    7.1990   -9.1740 C   0  0  0  0  0  0  0  0  0  0  0  0
  -23.3930    6.8950   -8.8460 C   0  0  0  0  0  0  0  0  0  0  0  0
  -22.8220    7.3800   -7.6570 C   0  0  0  0  0  0  0  0  0  0  0  0
  -23.5560    8.1840   -6.7550 C   0  0  0  0  0  0  0  0  0  0  0  0
  -24.8990    8.5260   -7.1060 C   0  0  0  0  0  0  0  0  0  0  0  0
  -25.0560    9.2320   -4.2470 O   0  0  0  0  0  0  0  0  0  0  0  0
  -24.9370   11.9630   -3.9880 N   0  0  0  0  0  0  0  0  0  0  0  0
  -25.9690   12.9070   -7.1780 N   0  0  0  0  0  0  0  0  0  0  0  0
  -27.0580   13.6200   -7.8550 C   0  0  0  0  0  0  0  0  0  0  0  0
  -24.6950   12.7770   -7.9190 C   0  0  1  0  0  0  0  0  0  0  0  0
  -24.8710   11.8010   -9.0930 C   0  0  0  0  0  0  0  0  0  0  0  0
  -23.6080   11.5520   -9.9160 C   0  0  2  0  0  0  0  0  0  0  0  0
  -23.9300   10.7330  -11.1620 C   0  0  0  0  0  0  0  0  0  0  0  0
  -24.8620   11.4680  -11.9930 O   0  0  0  0  0  0  0  0  0  0  0  0
  -22.5220   10.8830   -9.0830 C   0  0  0  0  0  0  0  0  0  0  0  0
  -24.2160   14.1640   -8.3390 C   0  0  0  0  0  0  0  0  0  0  0  0
  -24.2440   14.5050   -9.5130 O   0  0  0  0  0  0  0  0  0  0  0  0
  -23.7800   14.9110   -7.3950 N   0  0  0  0  0  0  0  0  0  0  0  0
  -23.3300   16.2930   -7.6990 C   0  0  2  0  0  0  0  0  0  0  0  0
  -22.0540   16.7140   -6.9820 C   0  0  0  0  0  0  0  0  0  0  0  0
  -21.2850   17.4910   -7.5980 O   0  0  0  0  0  0  0  0  0  0  0  0
  -24.4220   17.3310   -7.4370 C   0  0  0  0  0  0  0  0  0  0  0  0
  -21.8440   16.2590   -5.7690 N   0  0  0  0  0  0  0  0  0  0  0  0
  -20.6690   16.6620   -5.0170 C   0  0  2  0  0  0  0  0  0  0  0  0
  -20.1520   15.4530   -4.2380 C   0  0  0  0  0  0  0  0  0  0  0  0
  -21.0220   17.7630   -3.9810 C   0  0  2  0  0  0  0  0  0  0  0  0
  -21.8890   17.1890   -2.9770 O   0  0  0  0  0  0  0  0  0  0  0  0
  -21.8830   17.9180   -1.7200 C   0  0  0  0  0  0  0  0  0  0  0  0
  -21.5910   19.0080   -4.6230 C   0  0  0  0  0  0  0  0  0  0  0  0
  -20.7310   19.9860   -5.1720 C   0  0  0  0  0  0  0  0  0  0  0  0
  -21.2900   21.1350   -5.7530 C   0  0  0  0  0  0  0  0  0  0  0  0
  -22.6660   21.3180   -5.7980 C   0  0  0  0  0  0  0  0  0  0  0  0
  -23.5040   20.3720   -5.2720 C   0  0  0  0  0  0  0  0  0  0  0  0
  -22.9680   19.2280   -4.6470 C   0  0  0  0  0  0  0  0  0  0  0  0
  -20.7530   14.3560   -4.2300 O   0  0  0  0  0  0  0  0  0  0  0  0
  -19.0640   15.6550   -3.5390 N   0  0  0  0  0  0  0  0  0  0  0  0
  -18.4760   14.6650   -2.5690 C   0  0  2  0  0  0  0  0  0  0  0  0
  -19.1850   14.8160   -1.2190 C   0  0  0  0  0  0  0  0  0  0  0  0
  -18.9710   15.8720   -0.6440 O   0  0  0  0  0  0  0  0  0  0  0  0
  -16.9360   14.8680   -2.4740 C   0  0  0  0  0  0  0  0  0  0  0  0
  -16.3320   13.9380   -1.4450 C   0  0  0  0  0  0  0  0  0  0  0  0
  -16.3030   14.6810   -3.8690 C   0  0  0  0  0  0  0  0  0  0  0  0
  -20.0160   13.8790   -0.6840 N   0  0  0  0  0  0  0  0  0  0  0  0
  -20.5810   14.1630    0.6490 C   0  0  0  0  0  0  0  0  0  0  0  0
  -20.4700   12.6440   -1.3340 C   0  0  1  0  0  0  0  0  0  0  0  0
  -20.0040   11.3540   -0.6320 C   0  0  0  0  0  0  0  0  0  0  0  0
  -18.5440   10.9960   -0.7920 C   0  0  0  0  0  0  0  0  0  0  0  0
  -18.2880    9.8510    0.1910 C   0  0  0  0  0  0  0  0  0  0  0  0
  -18.2040   10.6350   -2.2230 C   0  0  0  0  0  0  0  0  0  0  0  0
  -21.9950   12.6560   -1.3700 C   0  0  0  0  0  0  0  0  0  0  0  0
  -22.6660   11.8950   -0.6310 O   0  0  0  0  0  0  0  0  0  0  0  0
  -24.2570   13.0720   -3.8380 C   0  0  0  0  0  0  0  0  0  0  0  0
  -24.0050   13.5360   -2.4240 C   0  0  2  0  0  0  0  0  0  0  0  0
  -23.7930   13.7140   -4.7820 O   0  0  0  0  0  0  0  0  0  0  0  0
  -24.5930   14.9300   -2.1830 C   0  0  2  0  0  0  0  0  0  0  0  0
  -24.3350   15.3710   -0.7390 C   0  0  0  0  0  0  0  0  0  0  0  0
  -26.0930   14.8480   -2.4530 C   0  0  0  0  0  0  0  0  0  0  0  0
  -26.7470   15.4310   -3.4730 C   0  0  0  0  0  0  0  0  0  0  0  0
  -28.2290   15.1880   -3.6140 C   0  0  0  0  0  0  0  0  0  0  0  0
  -26.0820   16.2610   -4.5430 C   0  0  0  0  0  0  0  0  0  0  0  0
  -22.5540   13.4660   -2.2080 N   0  0  0  0  0  0  0  0  0  0  0  0
  -24.3203   11.3680   -5.9101 H   0  0  0  0  0  0  0  0  0  0  0  0
  -26.8741   10.0889   -4.7532 H   0  0  0  0  0  0  0  0  0  0  0  0
  -28.0697    9.7027   -6.9947 H   0  0  0  0  0  0  0  0  0  0  0  0
  -29.8330    8.6748   -9.8976 H   0  0  0  0  0  0  0  0  0  0  0  0
  -28.8723    9.9977   -9.1537 H   0  0  0  0  0  0  0  0  0  0  0  0
  -29.4779    8.6464   -8.1370 H   0  0  0  0  0  0  0  0  0  0  0  0
  -27.0937    6.0899   -9.4296 H   0  0  0  0  0  0  0  0  0  0  0  0
  -29.0052    5.0900   -8.1897 H   0  0  0  0  0  0  0  0  0  0  0  0
  -29.8191    6.6907   -8.1443 H   0  0  0  0  0  0  0  0  0  0  0  0
  -28.2809    6.4396   -7.2512 H   0  0  0  0  0  0  0  0  0  0  0  0
  -29.7222    6.6524  -10.3975 H   0  0  0  0  0  0  0  0  0  0  0  0
  -28.0315    8.3171  -11.5279 H   0  0  0  0  0  0  0  0  0  0  0  0
  -26.3455    8.0432  -10.9721 H   0  0  0  0  0  0  0  0  0  0  0  0
  -27.1116    9.6537  -10.7574 H   0  0  0  0  0  0  0  0  0  0  0  0
  -25.1798    6.8117  -10.0835 H   0  0  0  0  0  0  0  0  0  0  0  0
  -22.8006    6.2833   -9.5168 H   0  0  0  0  0  0  0  0  0  0  0  0
  -21.7926    7.1313   -7.4256 H   0  0  0  0  0  0  0  0  0  0  0  0
  -23.1147    8.5299   -5.8273 H   0  0  0  0  0  0  0  0  0  0  0  0
  -24.9957    9.6981   -3.4214 H   0  0  0  0  0  0  0  0  0  0  0  0
  -25.2565   11.4746   -3.1760 H   0  0  0  0  0  0  0  0  0  0  0  0
  -27.9419   13.6458   -7.2007 H   0  0  0  0  0  0  0  0  0  0  0  0
  -27.3100   13.1006   -8.7913 H   0  0  0  0  0  0  0  0  0  0  0  0
  -26.7387   14.6482   -8.0805 H   0  0  0  0  0  0  0  0  0  0  0  0
  -23.9389   12.3516   -7.2428 H   0  0  0  0  0  0  0  0  0  0  0  0
  -25.6414   12.2086   -9.7640 H   0  0  0  0  0  0  0  0  0  0  0  0
  -25.2107   10.8364   -8.6878 H   0  0  0  0  0  0  0  0  0  0  0  0
  -23.2230   12.5286  -10.2446 H   0  0  0  0  0  0  0  0  0  0  0  0
  -24.3803    9.7744  -10.8649 H   0  0  0  0  0  0  0  0  0  0  0  0
  -23.0049   10.5443  -11.7265 H   0  0  0  0  0  0  0  0  0  0  0  0
  -25.0627   10.9582  -12.7690 H   0  0  0  0  0  0  0  0  0  0  0  0
  -22.3124   11.4956   -8.1938 H   0  0  0  0  0  0  0  0  0  0  0  0
  -21.6065   10.7849   -9.6848 H   0  0  0  0  0  0  0  0  0  0  0  0
  -22.8630    9.8855   -8.7689 H   0  0  0  0  0  0  0  0  0  0  0  0
  -23.7427   14.5654   -6.4574 H   0  0  0  0  0  0  0  0  0  0  0  0
  -23.1113   16.3148   -8.7768 H   0  0  0  0  0  0  0  0  0  0  0  0
  -24.0395   18.3341   -7.6768 H   0  0  0  0  0  0  0  0  0  0  0  0
  -24.7162   17.2944   -6.3777 H   0  0  0  0  0  0  0  0  0  0  0  0
  -25.2958   17.1113   -8.0680 H   0  0  0  0  0  0  0  0  0  0  0  0
  -22.5010   15.6272   -5.3577 H   0  0  0  0  0  0  0  0  0  0  0  0
  -19.8967   17.0318   -5.7076 H   0  0  0  0  0  0  0  0  0  0  0  0
  -20.0890   18.0626   -3.4813 H   0  0  0  0  0  0  0  0  0  0  0  0
  -22.5618   17.4262   -1.0077 H   0  0  0  0  0  0  0  0  0  0  0  0
  -22.2192   18.9509   -1.8935 H   0  0  0  0  0  0  0  0  0  0  0  0
  -20.8635   17.9287   -1.3072 H   0  0  0  0  0  0  0  0  0  0  0  0
  -19.6558   19.8508   -5.1448 H   0  0  0  0  0  0  0  0  0  0  0  0
  -20.6373   21.8916   -6.1733 H   0  0  0  0  0  0  0  0  0  0  0  0
  -23.0776   22.2127   -6.2510 H   0  0  0  0  0  0  0  0  0  0  0  0
  -24.5782   20.5025   -5.3360 H   0  0  0  0  0  0  0  0  0  0  0  0
  -23.6335   18.5112   -4.1798 H   0  0  0  0  0  0  0  0  0  0  0  0
  -18.5903   16.5277   -3.6575 H   0  0  0  0  0  0  0  0  0  0  0  0
  -18.6622   13.6475   -2.9431 H   0  0  0  0  0  0  0  0  0  0  0  0
  -16.7432   15.9007   -2.1480 H   0  0  0  0  0  0  0  0  0  0  0  0
  -15.2451   14.1006   -1.3970 H   0  0  0  0  0  0  0  0  0  0  0  0
  -16.5344   12.8950   -1.7298 H   0  0  0  0  0  0  0  0  0  0  0  0
  -16.7771   14.1422   -0.4601 H   0  0  0  0  0  0  0  0  0  0  0  0
  -16.7725   15.3759   -4.5808 H   0  0  0  0  0  0  0  0  0  0  0  0
  -16.4613   13.6466   -4.2079 H   0  0  0  0  0  0  0  0  0  0  0  0
  -15.2240   14.8873   -3.8127 H   0  0  0  0  0  0  0  0  0  0  0  0
  -20.1668   15.1086    1.0289 H   0  0  0  0  0  0  0  0  0  0  0  0
  -20.3222   13.3461    1.3386 H   0  0  0  0  0  0  0  0  0  0  0  0
  -21.6752   14.2462    0.5733 H   0  0  0  0  0  0  0  0  0  0  0  0
  -20.0814   12.6338   -2.3630 H   0  0  0  0  0  0  0  0  0  0  0  0
  -20.5995   10.5203   -1.0324 H   0  0  0  0  0  0  0  0  0  0  0  0
  -20.2060   11.4656    0.4435 H   0  0  0  0  0  0  0  0  0  0  0  0
  -17.9251   11.8594   -0.5063 H   0  0  0  0  0  0  0  0  0  0  0  0
  -17.2350    9.5398    0.1251 H   0  0  0  0  0  0  0  0  0  0  0  0
  -18.9382    9.0000   -0.0599 H   0  0  0  0  0  0  0  0  0  0  0  0
  -18.5067   10.1904    1.2142 H   0  0  0  0  0  0  0  0  0  0  0  0
  -18.4090   11.4955   -2.8768 H   0  0  0  0  0  0  0  0  0  0  0  0
  -18.8171    9.7788   -2.5408 H   0  0  0  0  0  0  0  0  0  0  0  0
  -17.1389   10.3686   -2.2908 H   0  0  0  0  0  0  0  0  0  0  0  0
  -24.4962   12.8416   -1.7264 H   0  0  0  0  0  0  0  0  0  0  0  0
  -24.1304   15.6533   -2.8706 H   0  0  0  0  0  0  0  0  0  0  0  0
  -24.7618   16.3722   -0.5796 H   0  0  0  0  0  0  0  0  0  0  0  0
  -23.2513   15.4005   -0.5526 H   0  0  0  0  0  0  0  0  0  0  0  0
  -24.8067   14.6571   -0.0477 H   0  0  0  0  0  0  0  0  0  0  0  0
  -26.6891   14.2628   -1.7544 H   0  0  0  0  0  0  0  0  0  0  0  0
  -28.6079   15.7323   -4.4916 H   0  0  0  0  0  0  0  0  0  0  0  0
  -28.7464   15.5433   -2.7107 H   0  0  0  0  0  0  0  0  0  0  0  0
  -28.4134   14.1112   -3.7427 H   0  0  0  0  0  0  0  0  0  0  0  0
  -25.0097   16.3585   -4.3179 H   0  0  0  0  0  0  0  0  0  0  0  0
  -26.5428   17.2594   -4.5720 H   0  0  0  0  0  0  0  0  0  0  0  0
  -26.2085   15.7703   -5.5193 H   0  0  0  0  0  0  0  0  0  0  0  0
  -21.9668   14.0780   -2.7378 H   0  0  0  0  0  0  0  0  0  0  0  0
  1  2  2  0  0  0  0
  2  3  1  0  0  0  0
  2 22  1  0  0  0  0
  3  4  1  0  0  0  0
  3 21  1  0  0  0  0
  3 76  1  6  0  0  0
  4  5  1  0  0  0  0
  4 20  1  0  0  0  0
  4 77  1  1  0  0  0
  5  6  2  0  0  0  0
  5 19  1  0  0  0  0
  6  7  1  0  0  0  0
  6 78  1  0  0  0  0
  7  8  1  0  0  0  0
  7 14  1  0  0  0  0
  8  9  1  0  0  0  0
  8 10  1  0  0  0  0
  8 13  1  0  0  0  0
  9 79  1  0  0  0  0
  9 80  1  0  0  0  0
  9 81  1  0  0  0  0
 10 11  1  0  0  0  0
 10 12  1  0  0  0  0
 10 82  1  6  0  0  0
 11 83  1  0  0  0  0
 11 84  1  0  0  0  0
 11 85  1  0  0  0  0
 12 86  1  0  0  0  0
 13 87  1  0  0  0  0
 13 88  1  0  0  0  0
 13 89  1  0  0  0  0
 14 15  2  0  0  0  0
 14 19  1  0  0  0  0
 15 16  1  0  0  0  0
 15 90  1  0  0  0  0
 16 17  2  0  0  0  0
 16 91  1  0  0  0  0
 17 18  1  0  0  0  0
 17 92  1  0  0  0  0
 18 19  2  0  0  0  0
 18 93  1  0  0  0  0
 20 94  1  0  0  0  0
 21 66  1  0  0  0  0
 21 95  1  0  0  0  0
 22 23  1  0  0  0  0
 22 24  1  0  0  0  0
 23 96  1  0  0  0  0
 23 97  1  0  0  0  0
 23 98  1  0  0  0  0
 24 25  1  0  0  0  0
 24 30  1  0  0  0  0
 24 99  1  1  0  0  0
 25 26  1  0  0  0  0
 25100  1  0  0  0  0
 25101  1  0  0  0  0
 26 27  1  0  0  0  0
 26 29  1  0  0  0  0
 26102  1  6  0  0  0
 27 28  1  0  0  0  0
 27103  1  0  0  0  0
 27104  1  0  0  0  0
 28105  1  0  0  0  0
 29106  1  0  0  0  0
 29107  1  0  0  0  0
 29108  1  0  0  0  0
 30 31  2  0  0  0  0
 30 32  1  0  0  0  0
 32 33  1  0  0  0  0
 32109  1  0  0  0  0
 33 34  1  0  0  0  0
 33 36  1  0  0  0  0
 33110  1  6  0  0  0
 34 35  2  0  0  0  0
 34 37  1  0  0  0  0
 36111  1  0  0  0  0
 36112  1  0  0  0  0
 36113  1  0  0  0  0
 37 38  1  0  0  0  0
 37114  1  0  0  0  0
 38 39  1  0  0  0  0
 38 40  1  0  0  0  0
 38115  1  6  0  0  0
 39 49  2  0  0  0  0
 39 50  1  0  0  0  0
 40 41  1  0  0  0  0
 40 43  1  0  0  0  0
 40116  1  1  0  0  0
 41 42  1  0  0  0  0
 42117  1  0  0  0  0
 42118  1  0  0  0  0
 42119  1  0  0  0  0
 43 44  2  0  0  0  0
 43 48  1  0  0  0  0
 44 45  1  0  0  0  0
 44120  1  0  0  0  0
 45 46  2  0  0  0  0
 45121  1  0  0  0  0
 46 47  1  0  0  0  0
 46122  1  0  0  0  0
 47 48  2  0  0  0  0
 47123  1  0  0  0  0
 48124  1  0  0  0  0
 50 51  1  0  0  0  0
 50125  1  0  0  0  0
 51 52  1  0  0  0  0
 51 54  1  0  0  0  0
 51126  1  6  0  0  0
 52 53  2  0  0  0  0
 52 57  1  0  0  0  0
 54 55  1  0  0  0  0
 54 56  1  0  0  0  0
 54127  1  0  0  0  0
 55128  1  0  0  0  0
 55129  1  0  0  0  0
 55130  1  0  0  0  0
 56131  1  0  0  0  0
 56132  1  0  0  0  0
 56133  1  0  0  0  0
 57 58  1  0  0  0  0
 57 59  1  0  0  0  0
 58134  1  0  0  0  0
 58135  1  0  0  0  0
 58136  1  0  0  0  0
 59 60  1  0  0  0  0
 59 64  1  0  0  0  0
 59137  1  6  0  0  0
 60 61  1  0  0  0  0
 60138  1  0  0  0  0
 60139  1  0  0  0  0
 61 62  1  0  0  0  0
 61 63  1  0  0  0  0
 61140  1  0  0  0  0
 62141  1  0  0  0  0
 62142  1  0  0  0  0
 62143  1  0  0  0  0
 63144  1  0  0  0  0
 63145  1  0  0  0  0
 63146  1  0  0  0  0
 64 65  2  0  0  0  0
 64 75  1  0  0  0  0
 66 67  1  0  0  0  0
 66 68  2  0  0  0  0
 67 69  1  0  0  0  0
 67 75  1  0  0  0  0
 67147  1  1  0  0  0
 69 70  1  0  0  0  0
 69 71  1  0  0  0  0
 69148  1  6  0  0  0
 70149  1  0  0  0  0
 70150  1  0  0  0  0
 70151  1  0  0  0  0
 71 72  2  0  0  0  0
 71152  1  0  0  0  0
 72 73  1  0  0  0  0
 72 74  1  0  0  0  0
 73153  1  0  0  0  0
 73154  1  0  0  0  0
 73155  1  0  0  0  0
 74156  1  0  0  0  0
 74157  1  0  0  0  0
 74158  1  0  0  0  0
 75159  1  0  0  0  0
M  END
