3wdz_ligand
 OpenBabel08222323353D

168168  0  0  1  0  0  0  0  0999 V2000
   -3.4700   -5.3210   15.7060 N   0  3  0  0  0  0  0  0  0  0  0  0
   -3.2740   -4.8750   14.2890 C   0  0  2  0  0  0  0  0  0  0  0  0
   -2.7520   -3.4410   14.2140 C   0  0  0  0  0  0  0  0  0  0  0  0
   -2.8260   -2.6950   15.1910 O   0  0  0  0  0  0  0  0  0  0  0  0
   -4.5650   -5.0400   13.4840 C   0  0  0  0  0  0  0  0  0  0  0  0
   -4.9910   -6.4830   13.3800 C   0  0  0  0  0  0  0  0  0  0  0  0
   -6.2850   -6.6290   12.5980 C   0  0  0  0  0  0  0  0  0  0  0  0
   -6.7470   -8.0850   12.5910 C   0  0  0  0  0  0  0  0  0  0  0  0
   -7.9270   -8.3420   11.7150 N   0  3  0  0  0  0  0  0  0  0  0  0
   -2.2050   -3.0710   13.0570 N   0  0  0  0  0  0  0  0  0  0  0  0
   -1.6630   -1.7160   12.8410 C   0  0  2  0  0  0  0  0  0  0  0  0
   -2.7370   -0.8060   12.2840 C   0  0  0  0  0  0  0  0  0  0  0  0
   -3.4330   -1.1320   11.3130 O   0  0  0  0  0  0  0  0  0  0  0  0
   -0.4210   -1.7170   11.9420 C   0  0  0  0  0  0  0  0  0  0  0  0
    0.8110   -2.3120   12.6070 C   0  0  0  0  0  0  0  0  0  0  0  0
    1.8120   -2.8420   11.5910 C   0  0  0  0  0  0  0  0  0  0  0  0
    1.3770   -3.5120   10.6160 O   0  5  0  0  0  0  0  0  0  0  0  0
    3.0320   -2.5920   11.7650 O   0  0  0  0  0  0  0  0  0  0  0  0
   -2.8100    0.3610   12.9040 N   0  0  0  0  0  0  0  0  0  0  0  0
   -3.8890    1.2850   12.7130 C   0  0  2  0  0  0  0  0  0  0  0  0
   -3.3590    2.7010   12.5270 C   0  0  0  0  0  0  0  0  0  0  0  0
   -2.5200    3.1460   13.3150 O   0  0  0  0  0  0  0  0  0  0  0  0
   -4.8150    1.1260   13.9410 C   0  0  0  0  0  0  0  0  0  0  0  0
   -5.1820    2.4470   14.6030 C   0  0  0  0  0  0  0  0  0  0  0  0
   -6.0140    0.2850   13.5700 C   0  0  0  0  0  0  0  0  0  0  0  0
   -3.8240    3.4070   11.4960 N   0  0  0  0  0  0  0  0  0  0  0  0
   -3.3790    4.7870   11.2730 C   0  0  2  0  0  0  0  0  0  0  0  0
   -3.9150    5.6220   12.4200 C   0  0  0  0  0  0  0  0  0  0  0  0
   -5.1220    5.7350   12.5670 O   0  0  0  0  0  0  0  0  0  0  0  0
   -3.8760    5.3280    9.9430 C   0  0  0  0  0  0  0  0  0  0  0  0
   -3.1810    4.7000    8.7500 C   0  0  0  0  0  0  0  0  0  0  0  0
   -3.2860    5.2860    7.6770 O   0  5  0  0  0  0  0  0  0  0  0  0
   -2.5330    3.6410    8.8500 O   0  0  0  0  0  0  0  0  0  0  0  0
   -3.0200    6.2180   13.2330 N   0  0  0  0  0  0  0  0  0  0  0  0
   -3.4510    6.8260   14.5100 C   0  0  2  0  0  0  0  0  0  0  0  0
   -4.4170    7.9910   14.3660 C   0  0  0  0  0  0  0  0  0  0  0  0
   -5.1360    8.3020   15.3270 O   0  0  0  0  0  0  0  0  0  0  0  0
   -2.1330    7.2990   15.1520 C   0  0  0  0  0  0  0  0  0  0  0  0
   -1.1830    7.4520   14.0260 C   0  0  0  0  0  0  0  0  0  0  0  0
   -1.6260    6.5660   12.8860 C   0  0  0  0  0  0  0  0  0  0  0  0
   -4.4340    8.6320   13.1890 N   0  0  0  0  0  0  0  0  0  0  0  0
   -5.3200    9.8020   12.9630 C   0  0  1  0  0  0  0  0  0  0  0  0
   -4.7010   10.8190   12.0220 C   0  0  0  0  0  0  0  0  0  0  0  0
   -4.6010   10.1810   10.7720 O   0  0  0  0  0  0  0  0  0  0  0  0
   -6.7200    9.4850   12.4780 C   0  0  0  0  0  0  0  0  0  0  0  0
   -7.5860   10.3640   12.5280 O   0  0  0  0  0  0  0  0  0  0  0  0
   -3.1770    9.9960   10.0510 P   0  0  0  0  0  0  0  0  0  0  0  0
   -2.5920   11.3860   10.2550 O   0  0  0  0  0  1  0  0  0  0  0  0
   -2.5060    8.8770   10.8120 O   0  0  0  0  0  1  0  0  0  0  0  0
   -3.4320    9.5640    8.6190 O   0  0  0  0  0  0  0  0  0  0  0  0
   -6.9680    8.2550   12.0170 N   0  0  0  0  0  0  0  0  0  0  0  0
   -8.3130    7.8450   11.5510 C   0  0  2  0  0  0  0  0  0  0  0  0
   -8.8360    6.5300   12.1520 C   0  0  0  0  0  0  0  0  0  0  0  0
  -10.0210    6.1810   11.9870 O   0  0  0  0  0  0  0  0  0  0  0  0
   -8.3510    7.6250   10.0270 C   0  0  2  0  0  0  0  0  0  0  0  0
   -7.5840    6.4600    9.7080 O   0  0  0  0  0  0  0  0  0  0  0  0
   -7.8240    8.8460    9.2600 C   0  0  0  0  0  0  0  0  0  0  0  0
   -7.9390    5.7840   12.7920 N   0  0  0  0  0  0  0  0  0  0  0  0
   -8.2460    4.4620   13.2750 C   0  0  0  0  0  0  0  0  0  0  0  0
   -8.1680    3.3790   12.2090 C   0  0  0  0  0  0  0  0  0  0  0  0
   -8.1730    2.2190   12.5520 O   0  0  0  0  0  0  0  0  0  0  0  0
   -8.1040    3.7190   10.9230 N   0  0  0  0  0  0  0  0  0  0  0  0
   -8.1280    2.6820    9.8510 C   0  0  2  0  0  0  0  0  0  0  0  0
   -6.9410    1.6950    9.8320 C   0  0  0  0  0  0  0  0  0  0  0  0
   -5.8290    2.0400   10.2400 O   0  0  0  0  0  0  0  0  0  0  0  0
   -8.2880    3.3130    8.4570 C   0  0  0  0  0  0  0  0  0  0  0  0
   -9.4500    4.2930    8.3160 C   0  0  0  0  0  0  0  0  0  0  0  0
   -9.9350    4.4210    6.8870 C   0  0  0  0  0  0  0  0  0  0  0  0
   -9.4110    3.7400    5.9860 O   0  5  0  0  0  0  0  0  0  0  0  0
  -10.8460    5.2040    6.6400 O   0  0  0  0  0  0  0  0  0  0  0  0
   -7.1880    0.4820    9.3320 N   0  0  0  0  0  0  0  0  0  0  0  0
   -6.1790   -0.5930    9.2400 C   0  0  2  0  0  0  0  0  0  0  0  0
   -5.1090   -0.4330    8.1670 C   0  0  0  0  0  0  0  0  0  0  0  0
   -5.3540    0.1340    7.0980 O   0  0  0  0  0  0  0  0  0  0  0  0
   -6.8570   -1.9610    9.0080 C   0  0  0  0  0  0  0  0  0  0  0  0
   -7.6530   -2.6730   10.1300 C   0  0  0  0  0  0  0  0  0  0  0  0
   -8.4100   -3.8810    9.5770 C   0  0  0  0  0  0  0  0  0  0  0  0
   -6.7680   -3.0550   11.3150 C   0  0  0  0  0  0  0  0  0  0  0  0
   -3.9390   -0.9990    8.4800 N   0  0  0  0  0  0  0  0  0  0  0  0
   -2.7490   -1.1220    7.6120 C   0  0  2  0  0  0  0  0  0  0  0  0
   -1.9850    0.1840    7.4970 C   0  0  0  0  0  0  0  0  0  0  0  0
   -1.4361    0.6491    8.5314 O   0  5  0  0  0  0  0  0  0  0  0  0
   -3.0360   -1.8160    6.2550 C   0  0  0  0  0  0  0  0  0  0  0  0
   -3.3160   -0.9290    5.0540 C   0  0  0  0  0  0  0  0  0  0  0  0
   -3.1110   -1.6600    3.7140 C   0  0  0  0  0  0  0  0  0  0  0  0
   -3.0290   -1.0160    2.6700 O   0  0  0  0  0  0  0  0  0  0  0  0
   -3.0170   -3.0010    3.7390 N   0  0  0  0  0  0  0  0  0  0  0  0
   -1.9015    0.7883    6.3945 O   0  0  0  0  0  0  0  0  0  0  0  0
   -3.8139   -6.2685   15.7155 H   0  0  0  0  0  0  0  0  0  0  0  0
   -4.1375   -4.7167   16.1592 H   0  0  0  0  0  0  0  0  0  0  0  0
   -2.5905   -5.2779   16.1965 H   0  0  0  0  0  0  0  0  0  0  0  0
   -2.5128   -5.5280   13.8371 H   0  0  0  0  0  0  0  0  0  0  0  0
   -4.4035   -4.6444   12.4704 H   0  0  0  0  0  0  0  0  0  0  0  0
   -5.3655   -4.4690   13.9772 H   0  0  0  0  0  0  0  0  0  0  0  0
   -5.1388   -6.8855   14.3930 H   0  0  0  0  0  0  0  0  0  0  0  0
   -4.1999   -7.0530   12.8707 H   0  0  0  0  0  0  0  0  0  0  0  0
   -6.1211   -6.2967   11.5623 H   0  0  0  0  0  0  0  0  0  0  0  0
   -7.0618   -6.0054   13.0646 H   0  0  0  0  0  0  0  0  0  0  0  0
   -7.0117   -8.3691   13.6202 H   0  0  0  0  0  0  0  0  0  0  0  0
   -5.9131   -8.7110   12.2407 H   0  0  0  0  0  0  0  0  0  0  0  0
   -8.1732   -9.3184   11.7609 H   0  0  0  0  0  0  0  0  0  0  0  0
   -7.6992   -8.0974   10.7641 H   0  0  0  0  0  0  0  0  0  0  0  0
   -8.7059   -7.7840   12.0282 H   0  0  0  0  0  0  0  0  0  0  0  0
   -2.1603   -3.7341   12.3098 H   0  0  0  0  0  0  0  0  0  0  0  0
   -1.3595   -1.3194   13.8211 H   0  0  0  0  0  0  0  0  0  0  0  0
   -0.1958   -0.6783   11.6586 H   0  0  0  0  0  0  0  0  0  0  0  0
   -0.6459   -2.3030   11.0387 H   0  0  0  0  0  0  0  0  0  0  0  0
    0.4966   -3.1397   13.2597 H   0  0  0  0  0  0  0  0  0  0  0  0
    1.2985   -1.5330   13.2116 H   0  0  0  0  0  0  0  0  0  0  0  0
   -2.0767    0.6103   13.5365 H   0  0  0  0  0  0  0  0  0  0  0  0
   -4.4499    1.0109   11.8073 H   0  0  0  0  0  0  0  0  0  0  0  0
   -4.2489    0.5569   14.6930 H   0  0  0  0  0  0  0  0  0  0  0  0
   -5.8390    2.2554   15.4642 H   0  0  0  0  0  0  0  0  0  0  0  0
   -5.7054    3.0876   13.8779 H   0  0  0  0  0  0  0  0  0  0  0  0
   -4.2669    2.9524   14.9452 H   0  0  0  0  0  0  0  0  0  0  0  0
   -5.6748   -0.6494   13.0989 H   0  0  0  0  0  0  0  0  0  0  0  0
   -6.6484    0.8419   12.8647 H   0  0  0  0  0  0  0  0  0  0  0  0
   -6.5917    0.0501   14.4761 H   0  0  0  0  0  0  0  0  0  0  0  0
   -4.4826    2.9917   10.8685 H   0  0  0  0  0  0  0  0  0  0  0  0
   -2.2795    4.8195   11.2770 H   0  0  0  0  0  0  0  0  0  0  0  0
   -3.7010    6.4137    9.9189 H   0  0  0  0  0  0  0  0  0  0  0  0
   -4.9550    5.1287    9.8648 H   0  0  0  0  0  0  0  0  0  0  0  0
   -3.9290    6.0596   15.1377 H   0  0  0  0  0  0  0  0  0  0  0  0
   -1.7634    6.5511   15.8690 H   0  0  0  0  0  0  0  0  0  0  0  0
   -2.2783    8.2601   15.6668 H   0  0  0  0  0  0  0  0  0  0  0  0
   -0.1744    7.1575   14.3516 H   0  0  0  0  0  0  0  0  0  0  0  0
   -1.1697    8.5007   13.6944 H   0  0  0  0  0  0  0  0  0  0  0  0
   -1.5835    7.1073   11.9294 H   0  0  0  0  0  0  0  0  0  0  0  0
   -1.0001    5.6635   12.8248 H   0  0  0  0  0  0  0  0  0  0  0  0
   -3.8392    8.3166   12.4496 H   0  0  0  0  0  0  0  0  0  0  0  0
   -5.4306   10.2889   13.9431 H   0  0  0  0  0  0  0  0  0  0  0  0
   -3.7041   11.1146   12.3809 H   0  0  0  0  0  0  0  0  0  0  0  0
   -5.3423   11.7095   11.9462 H   0  0  0  0  0  0  0  0  0  0  0  0
   -6.2216    7.5903   11.9857 H   0  0  0  0  0  0  0  0  0  0  0  0
   -9.0100    8.6533   11.8172 H   0  0  0  0  0  0  0  0  0  0  0  0
   -9.3949    7.4547    9.7248 H   0  0  0  0  0  0  0  0  0  0  0  0
   -7.6025    6.3174    8.7690 H   0  0  0  0  0  0  0  0  0  0  0  0
   -7.8685    8.6472    8.1790 H   0  0  0  0  0  0  0  0  0  0  0  0
   -6.7824    9.0422    9.5541 H   0  0  0  0  0  0  0  0  0  0  0  0
   -8.4435    9.7234    9.4972 H   0  0  0  0  0  0  0  0  0  0  0  0
   -7.0219    6.1531   12.9426 H   0  0  0  0  0  0  0  0  0  0  0  0
   -9.2672    4.4717   13.6838 H   0  0  0  0  0  0  0  0  0  0  0  0
   -7.5333    4.2119   14.0746 H   0  0  0  0  0  0  0  0  0  0  0  0
   -8.0388    4.6848   10.6720 H   0  0  0  0  0  0  0  0  0  0  0  0
   -9.0277    2.0776   10.0387 H   0  0  0  0  0  0  0  0  0  0  0  0
   -8.4383    2.5004    7.7310 H   0  0  0  0  0  0  0  0  0  0  0  0
   -7.3586    3.8508    8.2183 H   0  0  0  0  0  0  0  0  0  0  0  0
   -9.1206    5.2824    8.6660 H   0  0  0  0  0  0  0  0  0  0  0  0
  -10.2844    3.9421    8.9409 H   0  0  0  0  0  0  0  0  0  0  0  0
   -8.1114    0.2896    8.9999 H   0  0  0  0  0  0  0  0  0  0  0  0
   -5.6635   -0.6219   10.2113 H   0  0  0  0  0  0  0  0  0  0  0  0
   -6.0589   -2.6551    8.7060 H   0  0  0  0  0  0  0  0  0  0  0  0
   -7.5577   -1.8217    8.1716 H   0  0  0  0  0  0  0  0  0  0  0  0
   -8.4017   -1.9586   10.5028 H   0  0  0  0  0  0  0  0  0  0  0  0
   -8.9664   -4.3690   10.3908 H   0  0  0  0  0  0  0  0  0  0  0  0
   -7.6945   -4.5947    9.1427 H   0  0  0  0  0  0  0  0  0  0  0  0
   -9.1137   -3.5484    8.7998 H   0  0  0  0  0  0  0  0  0  0  0  0
   -6.2421   -2.1616   11.6829 H   0  0  0  0  0  0  0  0  0  0  0  0
   -6.0324   -3.8079   10.9956 H   0  0  0  0  0  0  0  0  0  0  0  0
   -7.3921   -3.4705   12.1199 H   0  0  0  0  0  0  0  0  0  0  0  0
   -3.8604   -1.3804    9.4011 H   0  0  0  0  0  0  0  0  0  0  0  0
   -2.0714   -1.8070    8.1427 H   0  0  0  0  0  0  0  0  0  0  0  0
   -3.9134   -2.4641    6.3964 H   0  0  0  0  0  0  0  0  0  0  0  0
   -2.1595   -2.4338    6.0100 H   0  0  0  0  0  0  0  0  0  0  0  0
   -2.6379   -0.0636    5.0900 H   0  0  0  0  0  0  0  0  0  0  0  0
   -4.3580   -0.5809    5.1090 H   0  0  0  0  0  0  0  0  0  0  0  0
   -2.8837   -3.5088    2.8879 H   0  0  0  0  0  0  0  0  0  0  0  0
   -3.0804   -3.4905    4.6087 H   0  0  0  0  0  0  0  0  0  0  0  0
  1  2  1  0  0  0  0
  1 89  1  0  0  0  0
  1 90  1  0  0  0  0
  1 91  1  0  0  0  0
  2  3  1  0  0  0  0
  2  5  1  0  0  0  0
  2 92  1  6  0  0  0
  3  4  2  0  0  0  0
  3 10  1  0  0  0  0
  5  6  1  0  0  0  0
  5 93  1  0  0  0  0
  5 94  1  0  0  0  0
  6  7  1  0  0  0  0
  6 95  1  0  0  0  0
  6 96  1  0  0  0  0
  7  8  1  0  0  0  0
  7 97  1  0  0  0  0
  7 98  1  0  0  0  0
  8  9  1  0  0  0  0
  8 99  1  0  0  0  0
  8100  1  0  0  0  0
  9101  1  0  0  0  0
  9102  1  0  0  0  0
  9103  1  0  0  0  0
 10 11  1  0  0  0  0
 10104  1  0  0  0  0
 11 12  1  0  0  0  0
 11 14  1  0  0  0  0
 11105  1  1  0  0  0
 12 13  2  0  0  0  0
 12 19  1  0  0  0  0
 14 15  1  0  0  0  0
 14106  1  0  0  0  0
 14107  1  0  0  0  0
 15 16  1  0  0  0  0
 15108  1  0  0  0  0
 15109  1  0  0  0  0
 16 17  1  0  0  0  0
 16 18  2  0  0  0  0
 19 20  1  0  0  0  0
 19110  1  0  0  0  0
 20 21  1  0  0  0  0
 20 23  1  0  0  0  0
 20111  1  6  0  0  0
 21 22  2  0  0  0  0
 21 26  1  0  0  0  0
 23 24  1  0  0  0  0
 23 25  1  0  0  0  0
 23112  1  0  0  0  0
 24113  1  0  0  0  0
 24114  1  0  0  0  0
 24115  1  0  0  0  0
 25116  1  0  0  0  0
 25117  1  0  0  0  0
 25118  1  0  0  0  0
 26 27  1  0  0  0  0
 26119  1  0  0  0  0
 27 28  1  0  0  0  0
 27 30  1  0  0  0  0
 27120  1  1  0  0  0
 28 29  2  0  0  0  0
 28 34  1  0  0  0  0
 30 31  1  0  0  0  0
 30121  1  0  0  0  0
 30122  1  0  0  0  0
 31 32  1  0  0  0  0
 31 33  2  0  0  0  0
 34 35  1  0  0  0  0
 34 40  1  0  0  0  0
 35 36  1  0  0  0  0
 35 38  1  0  0  0  0
 35123  1  1  0  0  0
 36 37  2  0  0  0  0
 36 41  1  0  0  0  0
 38 39  1  0  0  0  0
 38124  1  0  0  0  0
 38125  1  0  0  0  0
 39 40  1  0  0  0  0
 39126  1  0  0  0  0
 39127  1  0  0  0  0
 40128  1  0  0  0  0
 40129  1  0  0  0  0
 41 42  1  0  0  0  0
 41130  1  0  0  0  0
 42 43  1  0  0  0  0
 42 45  1  0  0  0  0
 42131  1  1  0  0  0
 43 44  1  0  0  0  0
 43132  1  0  0  0  0
 43133  1  0  0  0  0
 44 47  1  0  0  0  0
 45 46  2  0  0  0  0
 45 51  1  0  0  0  0
 47 48  1  0  0  0  0
 47 49  1  0  0  0  0
 47 50  2  0  0  0  0
 51 52  1  0  0  0  0
 51134  1  0  0  0  0
 52 53  1  0  0  0  0
 52 55  1  0  0  0  0
 52135  1  1  0  0  0
 53 54  2  0  0  0  0
 53 58  1  0  0  0  0
 55 56  1  0  0  0  0
 55 57  1  0  0  0  0
 55136  1  6  0  0  0
 56137  1  0  0  0  0
 57138  1  0  0  0  0
 57139  1  0  0  0  0
 57140  1  0  0  0  0
 58 59  1  0  0  0  0
 58141  1  0  0  0  0
 59 60  1  0  0  0  0
 59142  1  0  0  0  0
 59143  1  0  0  0  0
 60 61  2  0  0  0  0
 60 62  1  0  0  0  0
 62 63  1  0  0  0  0
 62144  1  0  0  0  0
 63 64  1  0  0  0  0
 63 66  1  0  0  0  0
 63145  1  1  0  0  0
 64 65  2  0  0  0  0
 64 71  1  0  0  0  0
 66 67  1  0  0  0  0
 66146  1  0  0  0  0
 66147  1  0  0  0  0
 67 68  1  0  0  0  0
 67148  1  0  0  0  0
 67149  1  0  0  0  0
 68 69  1  0  0  0  0
 68 70  2  0  0  0  0
 71 72  1  0  0  0  0
 71150  1  0  0  0  0
 72 73  1  0  0  0  0
 72 75  1  0  0  0  0
 72151  1  1  0  0  0
 73 74  2  0  0  0  0
 73 79  1  0  0  0  0
 75 76  1  0  0  0  0
 75152  1  0  0  0  0
 75153  1  0  0  0  0
 76 77  1  0  0  0  0
 76 78  1  0  0  0  0
 76154  1  0  0  0  0
 77155  1  0  0  0  0
 77156  1  0  0  0  0
 77157  1  0  0  0  0
 78158  1  0  0  0  0
 78159  1  0  0  0  0
 78160  1  0  0  0  0
 79 80  1  0  0  0  0
 79161  1  0  0  0  0
 80 81  1  0  0  0  0
 80 83  1  0  0  0  0
 80162  1  1  0  0  0
 81 82  1  0  0  0  0
 81 88  2  0  0  0  0
 83 84  1  0  0  0  0
 83163  1  0  0  0  0
 83164  1  0  0  0  0
 84 85  1  0  0  0  0
 84165  1  0  0  0  0
 84166  1  0  0  0  0
 85 86  2  0  0  0  0
 85 87  1  0  0  0  0
 87167  1  0  0  0  0
 87168  1  0  0  0  0
M  CHG  6   1   1   9   1  17  -1  32  -1  69  -1  82  -1
M  END
