3wf6_ligand
 OpenBabel08222323353D

 40 44  0  0  0  0  0  0  0  0999 V2000
    7.2240  -13.3080   15.0940 N   0  0  0  0  0  0  0  0  0  0  0  0
    8.4280  -13.4240   15.6520 C   0  0  0  0  0  0  0  0  0  0  0  0
    9.6410  -13.2620   15.1040 N   0  0  0  0  0  0  0  0  0  0  0  0
    9.7020  -12.9480   13.8060 C   0  0  0  0  0  0  0  0  0  0  0  0
   10.9700  -12.7780   13.2230 N   0  0  0  0  0  0  0  0  0  0  0  0
   11.1550  -12.3820   11.7720 C   0  0  0  0  0  0  0  0  0  0  0  0
   12.3560  -11.5960   11.4690 C   0  0  0  0  0  0  0  0  0  0  0  0
   13.4760  -11.7070   12.1810 C   0  0  0  0  0  0  0  0  0  0  0  0
   14.6630  -10.9260   11.8970 C   0  0  0  0  0  0  0  0  0  0  0  0
   14.8490   -9.8060   11.0080 C   0  0  0  0  0  0  0  0  0  0  0  0
   14.0300   -9.0960   10.1160 C   0  0  0  0  0  0  0  0  0  0  0  0
   14.5500   -8.0450    9.3920 C   0  0  0  0  0  0  0  0  0  0  0  0
   15.8970   -7.6620    9.5170 C   0  0  0  0  0  0  0  0  0  0  0  0
   16.7430   -8.3380   10.3610 C   0  0  0  0  0  0  0  0  0  0  0  0
   16.2060   -9.4070   11.1010 C   0  0  0  0  0  0  0  0  0  0  0  0
   16.8290  -10.2400   12.0340 N   0  0  0  0  0  0  0  0  0  0  0  0
   15.8810  -11.1550   12.5050 C   0  0  0  0  0  0  0  0  0  0  0  0
   13.5230  -12.6770   13.3100 C   0  0  0  0  0  0  0  0  0  0  0  0
   12.1980  -12.8870   14.0330 C   0  0  0  0  0  0  0  0  0  0  0  0
    8.4990  -12.7930   13.0590 C   0  0  0  0  0  0  0  0  0  0  0  0
    8.0730  -12.5000   11.7280 C   0  0  0  0  0  0  0  0  0  0  0  0
    6.7310  -12.5070   11.6450 N   0  0  0  0  0  0  0  0  0  0  0  0
    6.2540  -12.8070   12.8840 N   0  0  0  0  0  0  0  0  0  0  0  0
    7.2840  -12.9950   13.7740 C   0  0  0  0  0  0  0  0  0  0  0  0
    8.4270  -13.6881   16.7033 H   0  0  0  0  0  0  0  0  0  0  0  0
   10.2793  -11.7885   11.4706 H   0  0  0  0  0  0  0  0  0  0  0  0
   11.1964  -13.3042   11.1739 H   0  0  0  0  0  0  0  0  0  0  0  0
   12.3309  -10.8980   10.6335 H   0  0  0  0  0  0  0  0  0  0  0  0
   12.9891   -9.3743    9.9967 H   0  0  0  0  0  0  0  0  0  0  0  0
   13.9058   -7.5012    8.7106 H   0  0  0  0  0  0  0  0  0  0  0  0
   16.2717   -6.8238    8.9407 H   0  0  0  0  0  0  0  0  0  0  0  0
   17.7862   -8.0583   10.4537 H   0  0  0  0  0  0  0  0  0  0  0  0
   17.8158  -10.1892   12.3248 H   0  0  0  0  0  0  0  0  0  0  0  0
   16.0753  -11.9327   13.2421 H   0  0  0  0  0  0  0  0  0  0  0  0
   14.2578  -12.3125   14.0429 H   0  0  0  0  0  0  0  0  0  0  0  0
   13.8525  -13.6482   12.9123 H   0  0  0  0  0  0  0  0  0  0  0  0
   12.2165  -13.8945   14.4742 H   0  0  0  0  0  0  0  0  0  0  0  0
   12.1347  -12.1366   14.8348 H   0  0  0  0  0  0  0  0  0  0  0  0
    8.7435  -12.2984   10.8939 H   0  0  0  0  0  0  0  0  0  0  0  0
    6.1693  -12.3204   10.8020 H   0  0  0  0  0  0  0  0  0  0  0  0
  1  2  2  0  0  0  0
  1 24  1  0  0  0  0
  2  3  1  0  0  0  0
  2 25  1  0  0  0  0
  3  4  2  0  0  0  0
  4  5  1  0  0  0  0
  4 20  1  0  0  0  0
  5  6  1  0  0  0  0
  5 19  1  0  0  0  0
  6  7  1  0  0  0  0
  6 26  1  0  0  0  0
  6 27  1  0  0  0  0
  7  8  2  0  0  0  0
  7 28  1  0  0  0  0
  8  9  1  0  0  0  0
  8 18  1  0  0  0  0
  9 10  1  0  0  0  0
  9 17  2  0  0  0  0
 10 11  2  0  0  0  0
 10 15  1  0  0  0  0
 11 12  1  0  0  0  0
 11 29  1  0  0  0  0
 12 13  2  0  0  0  0
 12 30  1  0  0  0  0
 13 14  1  0  0  0  0
 13 31  1  0  0  0  0
 14 15  2  0  0  0  0
 14 32  1  0  0  0  0
 15 16  1  0  0  0  0
 16 17  1  0  0  0  0
 16 33  1  0  0  0  0
 17 34  1  0  0  0  0
 18 19  1  0  0  0  0
 18 35  1  0  0  0  0
 18 36  1  0  0  0  0
 19 37  1  0  0  0  0
 19 38  1  0  0  0  0
 20 21  2  0  0  0  0
 20 24  1  0  0  0  0
 21 22  1  0  0  0  0
 21 39  1  0  0  0  0
 22 23  1  0  0  0  0
 22 40  1  0  0  0  0
 23 24  2  0  0  0  0
M  END
