3wf8_ligand
 OpenBabel08222323353D

 55 58  0  0  0  0  0  0  0  0999 V2000
   -3.9230   14.6280  -30.6320 N   0  0  0  0  0  0  0  0  0  0  0  0
   -3.6930   15.9200  -30.1150 C   0  0  0  0  0  0  0  0  0  0  0  0
   -4.6980   16.5640  -29.3350 C   0  0  0  0  0  0  0  0  0  0  0  0
   -4.4580   17.8460  -28.8380 C   0  0  0  0  0  0  0  0  0  0  0  0
   -3.2440   18.5000  -29.1050 C   0  0  0  0  0  0  0  0  0  0  0  0
   -2.2610   17.8780  -29.8710 C   0  0  0  0  0  0  0  0  0  0  0  0
   -2.5040   16.5620  -30.3710 C   0  0  0  0  0  0  0  0  0  0  0  0
   -1.5230   15.9210  -31.1430 C   0  0  0  0  0  0  0  0  0  0  0  0
   -0.2650   16.6720  -31.4220 C   0  0  0  0  0  0  0  0  0  0  0  0
   -0.2230   17.3370  -32.4460 O   0  0  0  0  0  0  0  0  0  0  0  0
    0.8340   16.6530  -30.5920 O   0  0  0  0  0  0  0  0  0  0  0  0
    1.8960   17.4410  -31.0090 C   0  0  0  0  0  0  0  0  0  0  0  0
    2.6160   16.9950  -32.2500 C   0  0  0  0  0  0  0  0  0  0  0  0
    2.2610   15.9500  -32.7840 O   0  0  0  0  0  0  0  0  0  0  0  0
    3.6780   17.8090  -32.7850 N   0  0  0  0  0  0  0  0  0  0  0  0
    4.4400   17.4790  -33.9660 C   0  0  0  0  0  0  0  0  0  0  0  0
    5.6150   18.1740  -34.1790 C   0  0  0  0  0  0  0  0  0  0  0  0
    6.3870   17.9090  -35.3000 C   0  0  0  0  0  0  0  0  0  0  0  0
    5.9910   16.9550  -36.2240 C   0  0  0  0  0  0  0  0  0  0  0  0
    7.0140   16.6320  -37.6300 S   0  0  0  0  0  0  0  0  0  0  0  0
    7.7950   17.7830  -37.9860 O   0  0  0  0  0  0  0  0  0  0  0  0
    6.2110   16.3510  -38.7740 O   0  0  0  0  0  0  0  0  0  0  0  0
    7.9570   15.3460  -37.3060 N   0  0  0  0  0  0  0  0  0  0  0  0
    4.8100   16.2540  -36.0290 C   0  0  0  0  0  0  0  0  0  0  0  0
    4.0360   16.5250  -34.9000 C   0  0  0  0  0  0  0  0  0  0  0  0
   -1.7330   14.6270  -31.6620 C   0  0  0  0  0  0  0  0  0  0  0  0
   -0.6490   13.9800  -32.5050 C   0  0  0  0  0  0  0  0  0  0  0  0
   -0.1310   12.6620  -32.0150 C   0  0  0  0  0  0  0  0  0  0  0  0
   -1.0200   11.4920  -32.2720 C   0  0  0  0  0  0  0  0  0  0  0  0
   -2.3150   11.5190  -31.5250 C   0  0  0  0  0  0  0  0  0  0  0  0
   -3.2770   12.5930  -31.9000 C   0  0  0  0  0  0  0  0  0  0  0  0
   -2.9450   13.9820  -31.3970 C   0  0  0  0  0  0  0  0  0  0  0  0
   -5.6376   16.0637  -29.1304 H   0  0  0  0  0  0  0  0  0  0  0  0
   -5.2151   18.3412  -28.2408 H   0  0  0  0  0  0  0  0  0  0  0  0
   -3.0710   19.4954  -28.7123 H   0  0  0  0  0  0  0  0  0  0  0  0
   -1.3266   18.3843  -30.0843 H   0  0  0  0  0  0  0  0  0  0  0  0
    2.6300   17.4729  -30.1903 H   0  0  0  0  0  0  0  0  0  0  0  0
    1.5083   18.4537  -31.1936 H   0  0  0  0  0  0  0  0  0  0  0  0
    3.9019   18.6582  -32.3068 H   0  0  0  0  0  0  0  0  0  0  0  0
    5.9340   18.9279  -33.4684 H   0  0  0  0  0  0  0  0  0  0  0  0
    7.3109   18.4543  -35.4554 H   0  0  0  0  0  0  0  0  0  0  0  0
    8.6055   15.0160  -37.9920 H   0  0  0  0  0  0  0  0  0  0  0  0
    7.8880   14.8857  -36.4209 H   0  0  0  0  0  0  0  0  0  0  0  0
    4.4922   15.5047  -36.7450 H   0  0  0  0  0  0  0  0  0  0  0  0
    3.1077   15.9866  -34.7466 H   0  0  0  0  0  0  0  0  0  0  0  0
    0.2001   14.6776  -32.5537 H   0  0  0  0  0  0  0  0  0  0  0  0
   -1.0558   13.8264  -33.5154 H   0  0  0  0  0  0  0  0  0  0  0  0
    0.0225   12.7399  -30.9286 H   0  0  0  0  0  0  0  0  0  0  0  0
    0.8332   12.4710  -32.5088 H   0  0  0  0  0  0  0  0  0  0  0  0
   -0.4774   10.5791  -31.9853 H   0  0  0  0  0  0  0  0  0  0  0  0
   -1.2452   11.4619  -33.3483 H   0  0  0  0  0  0  0  0  0  0  0  0
   -2.0820   11.6374  -30.4565 H   0  0  0  0  0  0  0  0  0  0  0  0
   -2.8141   10.5522  -31.6865 H   0  0  0  0  0  0  0  0  0  0  0  0
   -4.2638   12.3165  -31.5002 H   0  0  0  0  0  0  0  0  0  0  0  0
   -3.3248   12.6346  -32.9982 H   0  0  0  0  0  0  0  0  0  0  0  0
  1  2  2  0  0  0  0
  1 32  1  0  0  0  0
  2  3  1  0  0  0  0
  2  7  1  0  0  0  0
  3  4  2  0  0  0  0
  3 33  1  0  0  0  0
  4  5  1  0  0  0  0
  4 34  1  0  0  0  0
  5  6  2  0  0  0  0
  5 35  1  0  0  0  0
  6  7  1  0  0  0  0
  6 36  1  0  0  0  0
  7  8  2  0  0  0  0
  8  9  1  0  0  0  0
  8 26  1  0  0  0  0
  9 10  2  0  0  0  0
  9 11  1  0  0  0  0
 11 12  1  0  0  0  0
 12 13  1  0  0  0  0
 12 37  1  0  0  0  0
 12 38  1  0  0  0  0
 13 14  2  0  0  0  0
 13 15  1  0  0  0  0
 15 16  1  0  0  0  0
 15 39  1  0  0  0  0
 16 17  2  0  0  0  0
 16 25  1  0  0  0  0
 17 18  1  0  0  0  0
 17 40  1  0  0  0  0
 18 19  2  0  0  0  0
 18 41  1  0  0  0  0
 19 20  1  0  0  0  0
 19 24  1  0  0  0  0
 20 21  2  0  0  0  0
 20 22  2  0  0  0  0
 20 23  1  0  0  0  0
 23 42  1  0  0  0  0
 23 43  1  0  0  0  0
 24 25  2  0  0  0  0
 24 44  1  0  0  0  0
 25 45  1  0  0  0  0
 26 27  1  0  0  0  0
 26 32  2  0  0  0  0
 27 28  1  0  0  0  0
 27 46  1  0  0  0  0
 27 47  1  0  0  0  0
 28 29  1  0  0  0  0
 28 48  1  0  0  0  0
 28 49  1  0  0  0  0
 29 30  1  0  0  0  0
 29 50  1  0  0  0  0
 29 51  1  0  0  0  0
 30 31  1  0  0  0  0
 30 52  1  0  0  0  0
 30 53  1  0  0  0  0
 31 32  1  0  0  0  0
 31 54  1  0  0  0  0
 31 55  1  0  0  0  0
M  END
