3wf9_ligand
 OpenBabel08222323353D

 58 61  0  0  1  0  0  0  0  0999 V2000
  -28.3420  -17.5330    0.9210 N   0  0  0  0  0  0  0  0  0  0  0  0
  -28.1500  -16.2170    1.3970 C   0  0  0  0  0  0  0  0  0  0  0  0
  -29.1930  -15.5740    2.1350 C   0  0  0  0  0  0  0  0  0  0  0  0
  -28.9830  -14.2710    2.5990 C   0  0  0  0  0  0  0  0  0  0  0  0
  -27.7670  -13.6080    2.3490 C   0  0  0  0  0  0  0  0  0  0  0  0
  -26.7440  -14.2380    1.6270 C   0  0  0  0  0  0  0  0  0  0  0  0
  -26.9600  -15.5690    1.1530 C   0  0  0  0  0  0  0  0  0  0  0  0
  -25.9630  -16.2330    0.4180 C   0  0  0  0  0  0  0  0  0  0  0  0
  -24.6730  -15.5180    0.1420 C   0  0  0  0  0  0  0  0  0  0  0  0
  -24.5560  -14.8840   -0.8950 O   0  0  0  0  0  0  0  0  0  0  0  0
  -23.5290  -15.9100    0.8260 O   0  0  0  0  0  0  0  0  0  0  0  0
  -22.4230  -15.0930    0.6410 C   0  0  1  0  0  0  0  0  0  0  0  0
  -21.5130  -14.9930    1.8320 C   0  0  0  0  0  0  0  0  0  0  0  0
  -21.7310  -15.4350   -0.6680 C   0  0  0  0  0  0  0  0  0  0  0  0
  -22.0840  -16.4470   -1.2540 O   0  0  0  0  0  0  0  0  0  0  0  0
  -20.6860  -14.5590   -1.1730 N   0  0  0  0  0  0  0  0  0  0  0  0
  -19.9580  -14.8490   -2.4010 C   0  0  0  0  0  0  0  0  0  0  0  0
  -20.3800  -15.8250   -3.3070 C   0  0  0  0  0  0  0  0  0  0  0  0
  -19.6450  -16.0910   -4.4590 C   0  0  0  0  0  0  0  0  0  0  0  0
  -18.4850  -15.3680   -4.6770 C   0  0  0  0  0  0  0  0  0  0  0  0
  -17.5180  -15.6770   -6.1110 S   0  0  0  0  0  0  0  0  0  0  0  0
  -16.7270  -14.5350   -6.4280 O   0  0  0  0  0  0  0  0  0  0  0  0
  -18.3720  -15.8720   -7.2540 O   0  0  0  0  0  0  0  0  0  0  0  0
  -16.5750  -16.9840   -5.8450 N   0  0  0  0  0  0  0  0  0  0  0  0
  -18.0580  -14.4110   -3.7760 C   0  0  0  0  0  0  0  0  0  0  0  0
  -18.7960  -14.1430   -2.6230 C   0  0  0  0  0  0  0  0  0  0  0  0
  -26.1560  -17.5570   -0.0660 C   0  0  0  0  0  0  0  0  0  0  0  0
  -25.0640  -18.2070   -0.8230 C   0  0  0  0  0  0  0  0  0  0  0  0
  -25.4210  -19.4410   -1.5560 C   0  0  1  0  0  0  0  0  0  0  0  0
  -24.1780  -20.2360   -1.8370 C   0  0  0  0  0  0  0  0  0  0  0  0
  -26.4440  -20.3270   -0.9260 C   0  0  0  0  0  0  0  0  0  0  0  0
  -27.6410  -19.6200   -0.2870 C   0  0  0  0  0  0  0  0  0  0  0  0
  -27.3440  -18.1910    0.1940 C   0  0  0  0  0  0  0  0  0  0  0  0
  -30.1280  -16.0864    2.3310 H   0  0  0  0  0  0  0  0  0  0  0  0
  -29.7644  -13.7672    3.1564 H   0  0  0  0  0  0  0  0  0  0  0  0
  -27.6200  -12.5996    2.7187 H   0  0  0  0  0  0  0  0  0  0  0  0
  -25.8084  -13.7264    1.4322 H   0  0  0  0  0  0  0  0  0  0  0  0
  -22.8228  -14.0770    0.5077 H   0  0  0  0  0  0  0  0  0  0  0  0
  -20.6693  -14.3285    1.5940 H   0  0  0  0  0  0  0  0  0  0  0  0
  -21.1316  -15.9927    2.0871 H   0  0  0  0  0  0  0  0  0  0  0  0
  -22.0716  -14.5845    2.6870 H   0  0  0  0  0  0  0  0  0  0  0  0
  -20.4597  -13.7306   -0.6607 H   0  0  0  0  0  0  0  0  0  0  0  0
  -21.2895  -16.3812   -3.1109 H   0  0  0  0  0  0  0  0  0  0  0  0
  -19.9724  -16.8443   -5.1664 H   0  0  0  0  0  0  0  0  0  0  0  0
  -15.9544  -17.3066   -6.5597 H   0  0  0  0  0  0  0  0  0  0  0  0
  -16.6183  -17.4616   -4.9675 H   0  0  0  0  0  0  0  0  0  0  0  0
  -17.1418  -13.8640   -3.9669 H   0  0  0  0  0  0  0  0  0  0  0  0
  -18.4615  -13.3934   -1.9150 H   0  0  0  0  0  0  0  0  0  0  0  0
  -24.2656  -18.4597   -0.1098 H   0  0  0  0  0  0  0  0  0  0  0  0
  -24.6845  -17.4796   -1.5557 H   0  0  0  0  0  0  0  0  0  0  0  0
  -25.8407  -19.1186   -2.5203 H   0  0  0  0  0  0  0  0  0  0  0  0
  -24.4449  -21.1534   -2.3821 H   0  0  0  0  0  0  0  0  0  0  0  0
  -23.6906  -20.5024   -0.8875 H   0  0  0  0  0  0  0  0  0  0  0  0
  -23.4882  -19.6345   -2.4472 H   0  0  0  0  0  0  0  0  0  0  0  0
  -25.9434  -20.9155   -0.1430 H   0  0  0  0  0  0  0  0  0  0  0  0
  -26.8284  -21.0033   -1.7037 H   0  0  0  0  0  0  0  0  0  0  0  0
  -27.9711  -20.2137    0.5781 H   0  0  0  0  0  0  0  0  0  0  0  0
  -28.4509  -19.5728   -1.0298 H   0  0  0  0  0  0  0  0  0  0  0  0
  1  2  2  0  0  0  0
  1 33  1  0  0  0  0
  2  3  1  0  0  0  0
  2  7  1  0  0  0  0
  3  4  2  0  0  0  0
  3 34  1  0  0  0  0
  4  5  1  0  0  0  0
  4 35  1  0  0  0  0
  5  6  2  0  0  0  0
  5 36  1  0  0  0  0
  6  7  1  0  0  0  0
  6 37  1  0  0  0  0
  7  8  2  0  0  0  0
  8  9  1  0  0  0  0
  8 27  1  0  0  0  0
  9 10  2  0  0  0  0
  9 11  1  0  0  0  0
 11 12  1  0  0  0  0
 12 13  1  0  0  0  0
 12 14  1  0  0  0  0
 12 38  1  6  0  0  0
 13 39  1  0  0  0  0
 13 40  1  0  0  0  0
 13 41  1  0  0  0  0
 14 15  2  0  0  0  0
 14 16  1  0  0  0  0
 16 17  1  0  0  0  0
 16 42  1  0  0  0  0
 17 18  2  0  0  0  0
 17 26  1  0  0  0  0
 18 19  1  0  0  0  0
 18 43  1  0  0  0  0
 19 20  2  0  0  0  0
 19 44  1  0  0  0  0
 20 21  1  0  0  0  0
 20 25  1  0  0  0  0
 21 22  2  0  0  0  0
 21 23  2  0  0  0  0
 21 24  1  0  0  0  0
 24 45  1  0  0  0  0
 24 46  1  0  0  0  0
 25 26  2  0  0  0  0
 25 47  1  0  0  0  0
 26 48  1  0  0  0  0
 27 28  1  0  0  0  0
 27 33  2  0  0  0  0
 28 29  1  0  0  0  0
 28 49  1  0  0  0  0
 28 50  1  0  0  0  0
 29 30  1  0  0  0  0
 29 31  1  0  0  0  0
 29 51  1  6  0  0  0
 30 52  1  0  0  0  0
 30 53  1  0  0  0  0
 30 54  1  0  0  0  0
 31 32  1  0  0  0  0
 31 55  1  0  0  0  0
 31 56  1  0  0  0  0
 32 33  1  0  0  0  0
 32 57  1  0  0  0  0
 32 58  1  0  0  0  0
M  END
