3wig_ligand
 OpenBabel08222323353D

 51 54  0  0  0  0  0  0  0  0999 V2000
   66.5810  -12.2740   12.0470 C   0  0  0  0  0  0  0  0  0  0  0  0
   65.6560  -11.2770   12.4060 C   0  0  0  0  0  0  0  0  0  0  0  0
   64.3640  -11.1670   11.8020 C   0  0  0  0  0  0  0  0  0  0  0  0
   63.4530  -10.0650   12.2550 C   0  0  0  0  0  0  0  0  0  0  0  0
   63.8810   -9.2030   13.2370 C   0  0  0  0  0  0  0  0  0  0  0  0
   63.0850   -8.0390   13.8120 C   0  0  0  0  0  0  0  0  0  0  0  0
   68.0370  -17.4460   11.7880 C   0  0  0  0  0  0  0  0  0  0  0  0
   60.9480   -7.4810   15.0540 C   0  0  0  0  0  0  0  0  0  0  0  0
   62.0420   -9.5950   15.6090 C   0  0  0  0  0  0  0  0  0  0  0  0
   66.2170  -13.2070   11.0450 C   0  0  0  0  0  0  0  0  0  0  0  0
   64.9540  -13.1400   10.4200 C   0  0  0  0  0  0  0  0  0  0  0  0
   64.0350  -12.1270   10.7950 C   0  0  0  0  0  0  0  0  0  0  0  0
   65.2490   -9.3450   13.8610 C   0  0  0  0  0  0  0  0  0  0  0  0
   66.0680  -10.3840   13.4060 O   0  0  0  0  0  0  0  0  0  0  0  0
   65.6470   -8.5890   14.7400 O   0  0  0  0  0  0  0  0  0  0  0  0
   62.0880   -9.9760   11.5850 C   0  0  0  0  0  0  0  0  0  0  0  0
   62.0170   -8.3880   14.8410 C   0  0  0  0  0  0  0  0  0  0  0  0
   67.1020  -14.1930   10.6780 O   0  0  0  0  0  0  0  0  0  0  0  0
   67.1460  -15.3450   11.4800 C   0  0  0  0  0  0  0  0  0  0  0  0
   66.3970  -15.4300   12.6310 N   0  0  0  0  0  0  0  0  0  0  0  0
   66.5110  -16.5780   13.3390 C   0  0  0  0  0  0  0  0  0  0  0  0
   67.3240  -17.6380   12.9700 C   0  0  0  0  0  0  0  0  0  0  0  0
   67.9690  -16.3180   11.0260 N   0  0  0  0  0  0  0  0  0  0  0  0
   59.9690   -7.7810   15.9940 C   0  0  0  0  0  0  0  0  0  0  0  0
   59.9740   -8.9330   16.7420 N   0  0  0  0  0  0  0  0  0  0  0  0
   61.0100   -9.8190   16.5380 C   0  0  0  0  0  0  0  0  0  0  0  0
   58.8930   -6.8560   16.1990 N   0  0  0  0  0  0  0  0  0  0  0  0
   58.2150   -6.8610   17.7460 S   0  0  0  0  0  0  0  0  0  0  0  0
   57.5400   -8.4170   17.6860 N   0  0  0  0  0  0  0  0  0  0  0  0
   56.3680   -8.5690   16.8020 C   0  0  0  0  0  0  0  0  0  0  0  0
   57.1360   -5.9090   17.7450 O   0  0  0  0  0  0  0  0  0  0  0  0
   59.2140   -6.8860   18.7850 O   0  0  0  0  0  0  0  0  0  0  0  0
   60.8640   -6.3420   14.3700 F   0  0  0  0  0  0  0  0  0  0  0  0
   67.5516  -12.3273   12.5268 H   0  0  0  0  0  0  0  0  0  0  0  0
   62.5876   -7.5281   12.9744 H   0  0  0  0  0  0  0  0  0  0  0  0
   63.7975   -7.3508   14.2902 H   0  0  0  0  0  0  0  0  0  0  0  0
   68.6878  -18.2456   11.4530 H   0  0  0  0  0  0  0  0  0  0  0  0
   62.8375  -10.3196   15.4779 H   0  0  0  0  0  0  0  0  0  0  0  0
   64.6868  -13.8606    9.6555 H   0  0  0  0  0  0  0  0  0  0  0  0
   63.0667  -12.0798   10.3099 H   0  0  0  0  0  0  0  0  0  0  0  0
   61.9934  -10.7777   10.8378 H   0  0  0  0  0  0  0  0  0  0  0  0
   61.9856   -8.9992   11.0897 H   0  0  0  0  0  0  0  0  0  0  0  0
   61.2992  -10.0869   12.3436 H   0  0  0  0  0  0  0  0  0  0  0  0
   65.9312  -16.6741   14.2499 H   0  0  0  0  0  0  0  0  0  0  0  0
   67.3995  -18.5469   13.5559 H   0  0  0  0  0  0  0  0  0  0  0  0
   61.0304  -10.7323   17.1216 H   0  0  0  0  0  0  0  0  0  0  0  0
   58.5659   -6.2488   15.4749 H   0  0  0  0  0  0  0  0  0  0  0  0
   57.9117   -9.1802   18.2146 H   0  0  0  0  0  0  0  0  0  0  0  0
   56.0135   -9.6097   16.8388 H   0  0  0  0  0  0  0  0  0  0  0  0
   56.6516   -8.3146   15.7701 H   0  0  0  0  0  0  0  0  0  0  0  0
   55.5654   -7.8962   17.1382 H   0  0  0  0  0  0  0  0  0  0  0  0
  1  2  2  0  0  0  0
  1 34  1  0  0  0  0
  2  3  1  0  0  0  0
  2 14  1  0  0  0  0
  3  4  1  0  0  0  0
  4  5  2  0  0  0  0
  4 16  1  0  0  0  0
  5  6  1  0  0  0  0
  6 17  1  0  0  0  0
  6 35  1  0  0  0  0
  6 36  1  0  0  0  0
  7 22  2  0  0  0  0
  7 37  1  0  0  0  0
  8 24  1  0  0  0  0
  8 33  1  0  0  0  0
  9 26  2  0  0  0  0
  9 38  1  0  0  0  0
 10  1  1  0  0  0  0
 10 11  2  0  0  0  0
 11 12  1  0  0  0  0
 11 39  1  0  0  0  0
 12  3  2  0  0  0  0
 12 40  1  0  0  0  0
 13  5  1  0  0  0  0
 13 15  2  0  0  0  0
 14 13  1  0  0  0  0
 16 41  1  0  0  0  0
 16 42  1  0  0  0  0
 16 43  1  0  0  0  0
 17  8  2  0  0  0  0
 17  9  1  0  0  0  0
 18 10  1  0  0  0  0
 19 18  1  0  0  0  0
 19 20  1  0  0  0  0
 19 23  2  0  0  0  0
 20 21  2  0  0  0  0
 21 22  1  0  0  0  0
 21 44  1  0  0  0  0
 22 45  1  0  0  0  0
 23  7  1  0  0  0  0
 24 25  2  0  0  0  0
 24 27  1  0  0  0  0
 25 26  1  0  0  0  0
 26 46  1  0  0  0  0
 27 28  1  0  0  0  0
 27 47  1  0  0  0  0
 28 29  1  0  0  0  0
 28 31  2  0  0  0  0
 28 32  2  0  0  0  0
 29 30  1  0  0  0  0
 29 48  1  0  0  0  0
 30 49  1  0  0  0  0
 30 50  1  0  0  0  0
 30 51  1  0  0  0  0
M  END
