3wiz_ligand
 OpenBabel08222323353D

109115  0  0  1  0  0  0  0  0999 V2000
   34.2320   10.6560  -45.5370 C   0  0  0  0  0  0  0  0  0  0  0  0
   46.4070   15.0630  -41.7730 C   0  0  0  0  0  0  0  0  0  0  0  0
   45.3430   15.4540  -42.5530 C   0  0  0  0  0  0  0  0  0  0  0  0
   34.2080    9.6830  -46.5210 C   0  0  0  0  0  0  0  0  0  0  0  0
   33.4140   10.5400  -44.4300 C   0  0  0  0  0  0  0  0  0  0  0  0
   49.3610   15.5030  -45.5210 C   0  0  0  0  0  0  0  0  0  0  0  0
   47.6690   14.9800  -42.3240 C   0  0  0  0  0  0  0  0  0  0  0  0
   45.5510   15.7580  -43.8810 C   0  0  0  0  0  0  0  0  0  0  0  0
   49.1440   15.1990  -44.1940 C   0  0  0  0  0  0  0  0  0  0  0  0
   37.8220   10.5670  -49.0750 C   0  0  0  0  0  0  0  0  0  0  0  0
   36.5070   10.7690  -49.4360 C   0  0  0  0  0  0  0  0  0  0  0  0
   30.3640   10.0300  -47.9590 C   0  0  0  0  0  0  0  0  0  0  0  0
   48.3050   15.8960  -46.3120 C   0  0  0  0  0  0  0  0  0  0  0  0
   33.3650    8.5960  -46.3950 C   0  0  0  0  0  0  0  0  0  0  0  0
   32.5650    9.4550  -44.3130 C   0  0  0  0  0  0  0  0  0  0  0  0
   30.9980   10.9670  -48.7520 C   0  0  0  0  0  0  0  0  0  0  0  0
   36.3450   12.5830  -47.8600 C   0  0  0  0  0  0  0  0  0  0  0  0
   30.9870   12.5040  -46.9130 C   0  0  0  0  0  0  0  0  0  0  0  0
   47.8780   15.2850  -43.6520 C   0  0  0  0  0  0  0  0  0  0  0  0
   46.8130   15.6760  -44.4390 C   0  0  0  0  0  0  0  0  0  0  0  0
   38.3990   11.3670  -48.1080 C   0  0  0  0  0  0  0  0  0  0  0  0
   35.7840   11.7730  -48.8270 C   0  0  0  0  0  0  0  0  0  0  0  0
   37.6650   12.3710  -47.5050 C   0  0  0  0  0  0  0  0  0  0  0  0
   42.7160   13.1220  -47.9860 C   0  0  0  0  0  0  0  0  0  0  0  0
   30.0350   10.2990  -46.6420 C   0  0  0  0  0  0  0  0  0  0  0  0
   30.3570   11.5530  -46.1430 C   0  0  0  0  0  0  0  0  0  0  0  0
   47.0380   15.9770  -45.7690 C   0  0  0  0  0  0  0  0  0  0  0  0
   32.5400    8.4790  -45.2940 C   0  0  0  0  0  0  0  0  0  0  0  0
   31.3060   12.1950  -48.2140 C   0  0  0  0  0  0  0  0  0  0  0  0
   42.0430   11.9960  -47.5760 C   0  0  0  0  0  0  0  0  0  0  0  0
   41.7250   13.9060  -48.6300 C   0  0  0  0  0  0  0  0  0  0  0  0
   42.4220   10.8140  -46.8840 C   0  0  0  0  0  0  0  0  0  0  0  0
   41.5020    9.8730  -46.6300 C   0  0  0  0  0  0  0  0  0  0  0  0
   40.1340   10.0570  -47.0470 C   0  0  0  0  0  0  0  0  0  0  0  0
   39.7860   11.1730  -47.7040 C   0  0  0  0  0  0  0  0  0  0  0  0
   34.3880   11.9400  -49.2370 C   0  0  0  0  0  0  0  0  0  0  0  0
   41.8430   15.1970  -49.2540 C   0  0  0  0  0  0  0  0  0  0  0  0
   38.3110   13.2240  -46.4670 C   0  0  0  0  0  0  0  0  0  0  0  0
   26.0100    4.6270  -45.5260 C   0  0  0  0  0  0  0  0  0  0  0  0
   25.1650    6.5610  -44.4860 C   0  0  0  0  0  0  0  0  0  0  0  0
   44.1470   13.4060  -47.7870 C   0  0  0  0  0  0  0  0  0  0  0  0
   44.3880   14.6410  -46.9570 C   0  0  0  0  0  0  0  0  0  0  0  0
   28.2330    7.3450  -45.3990 C   0  0  0  0  0  0  0  0  0  0  0  0
   26.9850    6.7270  -45.9860 C   0  0  0  0  0  0  0  0  0  0  0  0
   45.6820   15.2660  -47.4130 C   0  0  0  0  0  0  0  0  0  0  0  0
   30.3960    7.2220  -46.6190 C   0  0  0  0  0  0  0  0  0  0  0  0
   29.1190    8.0420  -46.4060 C   0  0  2  0  0  0  0  0  0  0  0  0
   40.5390   13.2940  -48.6100 N   0  0  0  0  0  0  0  0  0  0  0  0
   40.7350   12.1320  -47.9680 N   0  0  0  0  0  0  0  0  0  0  0  0
   29.3950    9.3490  -45.8180 N   0  0  0  0  0  0  0  0  0  0  0  0
   33.7870   13.1720  -48.8790 N   0  0  0  0  0  0  0  0  0  0  0  0
   26.3800    5.9070  -44.9430 N   0  3  0  0  0  0  0  0  0  0  0  0
   30.0700   11.9520  -44.7810 N   0  0  0  0  0  0  0  0  0  0  0  0
   29.4100   11.2120  -44.0500 O   0  0  0  0  0  0  0  0  0  0  0  0
   33.8050   11.0430  -49.8210 O   0  0  0  0  0  0  0  0  0  0  0  0
   42.8450   15.5970  -49.8250 O   0  5  0  0  0  0  0  0  0  0  0  0
   30.5310   13.0390  -44.4250 O   0  0  0  0  0  0  0  0  0  0  0  0
   31.7420   14.7010  -48.6230 O   0  0  0  0  0  0  0  0  0  0  0  0
   31.8560   13.0630  -50.5770 O   0  0  0  0  0  0  0  0  0  0  0  0
   40.7080   15.9330  -49.1260 O   0  0  0  0  0  0  0  0  0  0  0  0
   45.9830   16.3760  -46.5740 O   0  0  0  0  0  0  0  0  0  0  0  0
   31.4520    7.0970  -45.1260 S   0  0  0  0  0  0  0  0  0  0  0  0
   32.1240   13.4250  -49.1980 S   0  0  0  0  0  0  0  0  0  0  0  0
   34.8930   11.5095  -45.6351 H   0  0  0  0  0  0  0  0  0  0  0  0
   46.2539   14.8207  -40.7276 H   0  0  0  0  0  0  0  0  0  0  0  0
   44.3489   15.5224  -42.1262 H   0  0  0  0  0  0  0  0  0  0  0  0
   34.8501    9.7739  -47.3897 H   0  0  0  0  0  0  0  0  0  0  0  0
   33.4376   11.2976  -43.6551 H   0  0  0  0  0  0  0  0  0  0  0  0
   50.3584   15.4329  -45.9397 H   0  0  0  0  0  0  0  0  0  0  0  0
   48.5048   14.6718  -41.7064 H   0  0  0  0  0  0  0  0  0  0  0  0
   44.7134   16.0657  -44.4965 H   0  0  0  0  0  0  0  0  0  0  0  0
   49.9753   14.8897  -43.5708 H   0  0  0  0  0  0  0  0  0  0  0  0
   38.4015    9.7828  -49.5485 H   0  0  0  0  0  0  0  0  0  0  0  0
   36.0454   10.1441  -50.1919 H   0  0  0  0  0  0  0  0  0  0  0  0
   30.1184    9.0611  -48.3784 H   0  0  0  0  0  0  0  0  0  0  0  0
   48.4673   16.1406  -47.3555 H   0  0  0  0  0  0  0  0  0  0  0  0
   33.3511    7.8317  -47.1636 H   0  0  0  0  0  0  0  0  0  0  0  0
   31.9160    9.3684  -43.4490 H   0  0  0  0  0  0  0  0  0  0  0  0
   31.2487   10.7382  -49.7815 H   0  0  0  0  0  0  0  0  0  0  0  0
   35.7639   13.3678  -47.3893 H   0  0  0  0  0  0  0  0  0  0  0  0
   31.2270   13.4778  -46.5016 H   0  0  0  0  0  0  0  0  0  0  0  0
   43.4529   10.6738  -46.5623 H   0  0  0  0  0  0  0  0  0  0  0  0
   41.7896    8.9632  -46.1051 H   0  0  0  0  0  0  0  0  0  0  0  0
   39.3878    9.2942  -46.8297 H   0  0  0  0  0  0  0  0  0  0  0  0
   37.5862   13.9647  -46.0980 H   0  0  0  0  0  0  0  0  0  0  0  0
   39.1755   13.7439  -46.9056 H   0  0  0  0  0  0  0  0  0  0  0  0
   38.6479   12.5929  -45.6314 H   0  0  0  0  0  0  0  0  0  0  0  0
   25.5507    3.9917  -44.7543 H   0  0  0  0  0  0  0  0  0  0  0  0
   26.9084    4.1311  -45.9222 H   0  0  0  0  0  0  0  0  0  0  0  0
   25.2910    4.7900  -46.3423 H   0  0  0  0  0  0  0  0  0  0  0  0
   25.4180    7.5340  -44.0396 H   0  0  0  0  0  0  0  0  0  0  0  0
   24.6698    5.9300  -43.7333 H   0  0  0  0  0  0  0  0  0  0  0  0
   24.4878    6.7140  -45.3392 H   0  0  0  0  0  0  0  0  0  0  0  0
   44.6175   13.5469  -48.7713 H   0  0  0  0  0  0  0  0  0  0  0  0
   44.6086   12.5461  -47.2796 H   0  0  0  0  0  0  0  0  0  0  0  0
   44.4602   14.3677  -45.8940 H   0  0  0  0  0  0  0  0  0  0  0  0
   43.5606   15.3521  -47.0975 H   0  0  0  0  0  0  0  0  0  0  0  0
   28.8191    6.5470  -44.9197 H   0  0  0  0  0  0  0  0  0  0  0  0
   27.9281    8.0818  -44.6413 H   0  0  0  0  0  0  0  0  0  0  0  0
   27.2455    6.1024  -46.8532 H   0  0  0  0  0  0  0  0  0  0  0  0
   26.2850    7.5157  -46.2992 H   0  0  0  0  0  0  0  0  0  0  0  0
   45.5797   15.6076  -48.4536 H   0  0  0  0  0  0  0  0  0  0  0  0
   46.4922   14.5248  -47.3483 H   0  0  0  0  0  0  0  0  0  0  0  0
   30.9826    7.6954  -47.4201 H   0  0  0  0  0  0  0  0  0  0  0  0
   30.1085    6.2058  -46.9265 H   0  0  0  0  0  0  0  0  0  0  0  0
   28.5984    8.1602  -47.3677 H   0  0  0  0  0  0  0  0  0  0  0  0
   29.1345    9.5679  -44.8458 H   0  0  0  0  0  0  0  0  0  0  0  0
   34.3306   13.8892  -48.4428 H   0  0  0  0  0  0  0  0  0  0  0  0
   27.0227    5.7770  -44.1774 H   0  0  0  0  0  0  0  0  0  0  0  0
  1 64  1  0  0  0  0
  2 65  1  0  0  0  0
  3  2  2  0  0  0  0
  3 66  1  0  0  0  0
  4  1  2  0  0  0  0
  4 67  1  0  0  0  0
  5  1  1  0  0  0  0
  5 68  1  0  0  0  0
  6  9  2  0  0  0  0
  6 69  1  0  0  0  0
  7  2  1  0  0  0  0
  7 70  1  0  0  0  0
  8  3  1  0  0  0  0
  8 71  1  0  0  0  0
  9 72  1  0  0  0  0
 10 21  1  0  0  0  0
 10 73  1  0  0  0  0
 11 10  2  0  0  0  0
 11 74  1  0  0  0  0
 12 25  1  0  0  0  0
 12 75  1  0  0  0  0
 13  6  1  0  0  0  0
 13 76  1  0  0  0  0
 14  4  1  0  0  0  0
 14 77  1  0  0  0  0
 15  5  2  0  0  0  0
 15 78  1  0  0  0  0
 16 12  2  0  0  0  0
 16 79  1  0  0  0  0
 17 23  1  0  0  0  0
 17 80  1  0  0  0  0
 18 26  1  0  0  0  0
 18 81  1  0  0  0  0
 19  7  2  0  0  0  0
 19  9  1  0  0  0  0
 20  8  2  0  0  0  0
 20 19  1  0  0  0  0
 21 35  1  0  0  0  0
 22 11  1  0  0  0  0
 22 17  2  0  0  0  0
 23 21  2  0  0  0  0
 23 38  1  0  0  0  0
 24 41  1  0  0  0  0
 25 50  1  0  0  0  0
 26 25  2  0  0  0  0
 26 53  1  0  0  0  0
 27 13  2  0  0  0  0
 27 20  1  0  0  0  0
 28 14  2  0  0  0  0
 28 15  1  0  0  0  0
 29 16  1  0  0  0  0
 29 18  2  0  0  0  0
 30 24  2  0  0  0  0
 30 32  1  0  0  0  0
 31 24  1  0  0  0  0
 31 37  1  0  0  0  0
 32 82  1  0  0  0  0
 33 32  2  0  0  0  0
 33 83  1  0  0  0  0
 34 33  1  0  0  0  0
 34 84  1  0  0  0  0
 35 34  2  0  0  0  0
 35 49  1  0  0  0  0
 36 22  1  0  0  0  0
 36 55  2  0  0  0  0
 37 56  1  0  0  0  0
 37 60  2  0  0  0  0
 38 85  1  0  0  0  0
 38 86  1  0  0  0  0
 38 87  1  0  0  0  0
 39 88  1  0  0  0  0
 39 89  1  0  0  0  0
 39 90  1  0  0  0  0
 40 91  1  0  0  0  0
 40 92  1  0  0  0  0
 40 93  1  0  0  0  0
 41 42  1  0  0  0  0
 41 94  1  0  0  0  0
 41 95  1  0  0  0  0
 42 45  1  0  0  0  0
 42 96  1  0  0  0  0
 42 97  1  0  0  0  0
 43 44  1  0  0  0  0
 43 98  1  0  0  0  0
 43 99  1  0  0  0  0
 44 52  1  0  0  0  0
 44100  1  0  0  0  0
 44101  1  0  0  0  0
 45 61  1  0  0  0  0
 45102  1  0  0  0  0
 45103  1  0  0  0  0
 46 62  1  0  0  0  0
 46104  1  0  0  0  0
 46105  1  0  0  0  0
 47 43  1  0  0  0  0
 47 46  1  0  0  0  0
 47106  1  6  0  0  0
 48 31  2  0  0  0  0
 49 30  1  0  0  0  0
 49 48  1  0  0  0  0
 50 47  1  0  0  0  0
 50107  1  0  0  0  0
 51 36  1  0  0  0  0
 51 63  1  0  0  0  0
 51108  1  0  0  0  0
 52 39  1  0  0  0  0
 52 40  1  0  0  0  0
 52109  1  0  0  0  0
 53 54  2  0  0  0  0
 53 57  2  0  0  0  0
 61 27  1  0  0  0  0
 62 28  1  0  0  0  0
 63 29  1  0  0  0  0
 63 58  2  0  0  0  0
 63 59  2  0  0  0  0
M  CHG  2  52   1  56  -1
M  END
