3wk4_ligand
 OpenBabel08222323353D

 31 32  0  0  1  0  0  0  0  0999 V2000
  -18.1070  -12.3080   68.8770 C   0  0  0  0  0  0  0  0  0  0  0  0
  -19.2770  -11.6000   68.7810 C   0  0  0  0  0  0  0  0  0  0  0  0
  -16.9930  -11.8760   68.1840 C   0  0  0  0  0  0  0  0  0  0  0  0
  -19.3140  -10.4780   67.9910 C   0  0  0  0  0  0  0  0  0  0  0  0
  -17.0250  -10.7490   67.3850 C   0  0  0  0  0  0  0  0  0  0  0  0
  -18.2070  -10.0430   67.2900 C   0  0  0  0  0  0  0  0  0  0  0  0
  -17.7200   -8.8660   65.2730 C   0  0  0  0  0  0  0  0  0  0  0  0
  -18.0830   -5.8910   61.3600 C   0  0  0  0  0  0  0  0  0  0  0  0
  -18.7510   -5.3370   62.6120 C   0  0  0  0  0  0  0  0  0  0  0  0
  -18.6090   -6.8200   62.4420 C   0  0  0  0  0  0  0  0  0  0  0  0
  -16.1820   -7.0150   63.1200 C   0  0  0  0  0  0  0  0  0  0  0  0
  -17.6170   -7.6050   63.2150 C   0  0  1  0  0  0  0  0  0  0  0  0
  -18.3090   -8.8810   66.4930 N   0  0  0  0  0  0  0  0  0  0  0  0
  -18.0310   -7.7160   64.6020 N   0  0  0  0  0  0  0  0  0  0  0  0
  -17.0280   -9.8000   64.8650 O   0  0  0  0  0  0  0  0  0  0  0  0
  -18.0565  -13.1995   69.4917 H   0  0  0  0  0  0  0  0  0  0  0  0
  -20.1601  -11.9215   69.3211 H   0  0  0  0  0  0  0  0  0  0  0  0
  -16.0688  -12.4361   68.2692 H   0  0  0  0  0  0  0  0  0  0  0  0
  -20.2388   -9.9175   67.9154 H   0  0  0  0  0  0  0  0  0  0  0  0
  -16.1419  -10.4268   66.8452 H   0  0  0  0  0  0  0  0  0  0  0  0
  -16.9994   -5.7717   61.2129 H   0  0  0  0  0  0  0  0  0  0  0  0
  -18.5940   -5.8298   60.3878 H   0  0  0  0  0  0  0  0  0  0  0  0
  -19.7442   -4.8692   62.5431 H   0  0  0  0  0  0  0  0  0  0  0  0
  -18.1496   -4.8111   63.3681 H   0  0  0  0  0  0  0  0  0  0  0  0
  -19.5074   -7.4306   62.2689 H   0  0  0  0  0  0  0  0  0  0  0  0
  -15.4909   -7.6350   63.7099 H   0  0  0  0  0  0  0  0  0  0  0  0
  -16.1809   -5.9881   63.5143 H   0  0  0  0  0  0  0  0  0  0  0  0
  -15.8587   -7.0045   62.0686 H   0  0  0  0  0  0  0  0  0  0  0  0
  -17.5882   -8.6178   62.7868 H   0  0  0  0  0  0  0  0  0  0  0  0
  -18.8089   -8.0809   66.8246 H   0  0  0  0  0  0  0  0  0  0  0  0
  -18.5281   -6.9745   65.0526 H   0  0  0  0  0  0  0  0  0  0  0  0
  1 16  1  0  0  0  0
  2  1  2  0  0  0  0
  2 17  1  0  0  0  0
  3  1  1  0  0  0  0
  3 18  1  0  0  0  0
  4  2  1  0  0  0  0
  4 19  1  0  0  0  0
  5  3  2  0  0  0  0
  5 20  1  0  0  0  0
  6  4  2  0  0  0  0
  6  5  1  0  0  0  0
  7 13  1  0  0  0  0
  7 15  2  0  0  0  0
  8 21  1  0  0  0  0
  8 22  1  0  0  0  0
  9  8  1  0  0  0  0
  9 23  1  0  0  0  0
  9 24  1  0  0  0  0
 10  8  1  0  0  0  0
 10  9  1  0  0  0  0
 10 25  1  0  0  0  0
 11 26  1  0  0  0  0
 11 27  1  0  0  0  0
 11 28  1  0  0  0  0
 12 10  1  0  0  0  0
 12 11  1  0  0  0  0
 12 14  1  0  0  0  0
 12 29  1  6  0  0  0
 13  6  1  0  0  0  0
 13 30  1  0  0  0  0
 14  7  1  0  0  0  0
 14 31  1  0  0  0  0
M  END
