3wk6_ligand
 OpenBabel08222323353D

 31 32  0  0  1  0  0  0  0  0999 V2000
  -17.7760  -13.6400   68.9160 C   0  0  0  0  0  0  0  0  0  0  0  0
  -18.9120  -12.8660   69.0940 C   0  0  0  0  0  0  0  0  0  0  0  0
  -16.7370  -13.0990   68.2200 C   0  0  0  0  0  0  0  0  0  0  0  0
  -19.0390  -11.5810   68.6150 C   0  0  0  0  0  0  0  0  0  0  0  0
  -16.8720  -11.8050   67.7360 C   0  0  0  0  0  0  0  0  0  0  0  0
  -18.0040  -11.0390   67.9150 C   0  0  0  0  0  0  0  0  0  0  0  0
  -17.8300   -7.9850   64.1450 C   0  0  0  0  0  0  0  0  0  0  0  0
  -17.4190   -7.9760   61.9090 C   0  0  0  0  0  0  0  0  0  0  0  0
  -17.4240   -6.5120   62.1620 C   0  0  1  0  0  0  0  0  0  0  0  0
  -17.9720   -5.8550   60.9440 C   0  0  0  0  0  0  0  0  0  0  0  0
  -18.1150   -9.6390   67.3890 C   0  0  0  0  0  0  0  0  0  0  0  0
  -18.2530   -9.5980   65.8860 C   0  0  0  0  0  0  0  0  0  0  0  0
  -17.2340   -8.6550   63.2300 N   0  0  0  0  0  0  0  0  0  0  0  0
  -17.8990   -8.2650   65.4760 N   0  0  0  0  0  0  0  0  0  0  0  0
  -18.6120   -6.5550   63.5300 S   0  0  0  0  0  0  0  0  0  0  0  0
  -17.7160  -14.6449   69.3182 H   0  0  0  0  0  0  0  0  0  0  0  0
  -19.7449  -13.2950   69.6393 H   0  0  0  0  0  0  0  0  0  0  0  0
  -15.8283  -13.6646   68.0486 H   0  0  0  0  0  0  0  0  0  0  0  0
  -19.9448  -11.0123   68.7916 H   0  0  0  0  0  0  0  0  0  0  0  0
  -16.0424  -11.3735   67.1876 H   0  0  0  0  0  0  0  0  0  0  0  0
  -16.5927   -8.2383   61.2319 H   0  0  0  0  0  0  0  0  0  0  0  0
  -18.3741   -8.2835   61.4582 H   0  0  0  0  0  0  0  0  0  0  0  0
  -16.4476   -6.0892   62.4411 H   0  0  0  0  0  0  0  0  0  0  0  0
  -17.9919   -4.7653   61.0927 H   0  0  0  0  0  0  0  0  0  0  0  0
  -18.9936   -6.2186   60.7594 H   0  0  0  0  0  0  0  0  0  0  0  0
  -17.3354   -6.0955   60.0798 H   0  0  0  0  0  0  0  0  0  0  0  0
  -17.2115   -9.0811   67.6761 H   0  0  0  0  0  0  0  0  0  0  0  0
  -18.9987   -9.1620   67.8380 H   0  0  0  0  0  0  0  0  0  0  0  0
  -19.2896   -9.8220   65.5939 H   0  0  0  0  0  0  0  0  0  0  0  0
  -17.5751  -10.3300   65.4227 H   0  0  0  0  0  0  0  0  0  0  0  0
  -17.7014   -7.5360   66.1763 H   0  0  0  0  0  0  0  0  0  0  0  0
  1 16  1  0  0  0  0
  2  1  2  0  0  0  0
  2 17  1  0  0  0  0
  3  1  1  0  0  0  0
  3 18  1  0  0  0  0
  4  2  1  0  0  0  0
  4 19  1  0  0  0  0
  5  3  2  0  0  0  0
  5 20  1  0  0  0  0
  6  4  2  0  0  0  0
  6  5  1  0  0  0  0
  7 13  2  0  0  0  0
  7 15  1  0  0  0  0
  8 21  1  0  0  0  0
  8 22  1  0  0  0  0
  9  8  1  0  0  0  0
  9 10  1  0  0  0  0
  9 23  1  1  0  0  0
 10 24  1  0  0  0  0
 10 25  1  0  0  0  0
 10 26  1  0  0  0  0
 11  6  1  0  0  0  0
 11 27  1  0  0  0  0
 11 28  1  0  0  0  0
 12 11  1  0  0  0  0
 12 14  1  0  0  0  0
 12 29  1  0  0  0  0
 12 30  1  0  0  0  0
 13  8  1  0  0  0  0
 14  7  1  0  0  0  0
 14 31  1  0  0  0  0
 15  9  1  0  0  0  0
M  END
