3wk7_ligand
 OpenBabel08222323353D

 25 27  0  0  0  0  0  0  0  0999 V2000
  -18.6530  -11.6440   69.2250 C   0  0  0  0  0  0  0  0  0  0  0  0
  -17.4350  -12.2240   68.9590 C   0  0  0  0  0  0  0  0  0  0  0  0
  -19.1180  -10.5870   68.4740 C   0  0  0  0  0  0  0  0  0  0  0  0
  -16.6190  -11.7920   67.9240 C   0  0  0  0  0  0  0  0  0  0  0  0
  -16.1080   -7.7670   63.9850 C   0  0  0  0  0  0  0  0  0  0  0  0
  -18.3270   -7.5400   63.8670 C   0  0  0  0  0  0  0  0  0  0  0  0
  -17.3300   -8.1670   64.5910 C   0  0  0  0  0  0  0  0  0  0  0  0
  -18.3180  -10.1490   67.4260 C   0  0  0  0  0  0  0  0  0  0  0  0
  -17.0950  -10.7500   67.1570 C   0  0  0  0  0  0  0  0  0  0  0  0
  -17.4870   -9.1030   65.7040 C   0  0  0  0  0  0  0  0  0  0  0  0
  -18.2610   -5.9820   61.8570 C   0  0  0  0  0  0  0  0  0  0  0  0
  -16.3310   -6.9550   62.9430 N   0  0  0  0  0  0  0  0  0  0  0  0
  -18.5400   -9.1230   66.5090 N   0  0  0  0  0  0  0  0  0  0  0  0
  -16.5780  -10.0780   66.0560 N   0  0  0  0  0  0  0  0  0  0  0  0
  -17.6830   -6.8140   62.8920 N   0  0  0  0  0  0  0  0  0  0  0  0
  -19.2578  -12.0252   70.0399 H   0  0  0  0  0  0  0  0  0  0  0  0
  -17.1009  -13.0475   69.5798 H   0  0  0  0  0  0  0  0  0  0  0  0
  -20.0697  -10.1160   68.6919 H   0  0  0  0  0  0  0  0  0  0  0  0
  -15.6563  -12.2502   67.7282 H   0  0  0  0  0  0  0  0  0  0  0  0
  -15.1210   -8.0793   64.3230 H   0  0  0  0  0  0  0  0  0  0  0  0
  -19.4010   -7.6070   64.0341 H   0  0  0  0  0  0  0  0  0  0  0  0
  -17.4572   -5.5461   61.2455 H   0  0  0  0  0  0  0  0  0  0  0  0
  -18.8479   -5.1752   62.3202 H   0  0  0  0  0  0  0  0  0  0  0  0
  -18.9168   -6.5928   61.2191 H   0  0  0  0  0  0  0  0  0  0  0  0
  -19.3609   -8.5024   66.4654 H   0  0  0  0  0  0  0  0  0  0  0  0
  1  2  2  0  0  0  0
  1 16  1  0  0  0  0
  2 17  1  0  0  0  0
  3  1  1  0  0  0  0
  3 18  1  0  0  0  0
  4  2  1  0  0  0  0
  4 19  1  0  0  0  0
  5 12  2  0  0  0  0
  5 20  1  0  0  0  0
  6 15  1  0  0  0  0
  6 21  1  0  0  0  0
  7  5  1  0  0  0  0
  7  6  2  0  0  0  0
  8  3  2  0  0  0  0
  8  9  1  0  0  0  0
  9  4  2  0  0  0  0
  9 14  1  0  0  0  0
 10  7  1  0  0  0  0
 10 13  1  0  0  0  0
 10 14  2  0  0  0  0
 11 22  1  0  0  0  0
 11 23  1  0  0  0  0
 11 24  1  0  0  0  0
 12 15  1  0  0  0  0
 13  8  1  0  0  0  0
 13 25  1  0  0  0  0
 15 11  1  0  0  0  0
M  END
