3wke_ligand
 OpenBabel08222323353D

 61 65  0  0  1  0  0  0  0  0999 V2000
  -16.6670   -9.3110   73.4410 C   0  0  0  0  0  0  0  0  0  0  0  0
  -15.8340  -11.5260   73.8560 C   0  0  0  0  0  0  0  0  0  0  0  0
  -16.9020   -9.6390   72.1250 C   0  0  0  0  0  0  0  0  0  0  0  0
  -16.0810  -11.8400   72.5400 C   0  0  0  0  0  0  0  0  0  0  0  0
  -16.1360  -10.2550   74.2870 C   0  0  0  0  0  0  0  0  0  0  0  0
  -16.6120  -10.9070   71.6780 C   0  0  0  0  0  0  0  0  0  0  0  0
  -15.9070   -9.8750   75.6790 C   0  0  0  0  0  0  0  0  0  0  0  0
  -17.2640   -8.0950   64.6590 C   0  0  0  0  0  0  0  0  0  0  0  0
  -18.3770  -10.2340   67.1550 C   0  0  0  0  0  0  0  0  0  0  0  0
  -16.6450   -8.5750   67.9110 C   0  0  0  0  0  0  0  0  0  0  0  0
  -18.0760  -11.0650   68.3860 C   0  0  0  0  0  0  0  0  0  0  0  0
  -16.1680   -9.5730   68.9280 C   0  0  0  0  0  0  0  0  0  0  0  0
  -17.3460   -5.5350   60.0040 C   0  0  0  0  0  0  0  0  0  0  0  0
  -15.1610   -6.5300   60.6020 C   0  0  0  0  0  0  0  0  0  0  0  0
  -15.7210   -4.2540   61.3890 C   0  0  0  0  0  0  0  0  0  0  0  0
  -17.2850   -7.4250   61.6060 C   0  0  0  0  0  0  0  0  0  0  0  0
  -17.8590   -5.1710   62.4020 C   0  0  0  0  0  0  0  0  0  0  0  0
  -15.6550   -6.1510   62.9980 C   0  0  0  0  0  0  0  0  0  0  0  0
  -16.6370   -6.8370   60.3480 C   0  0  1  0  0  0  0  0  0  0  0  0
  -17.2010   -4.5660   61.1620 C   0  0  2  0  0  0  0  0  0  0  0  0
  -15.0070   -5.5460   61.7530 C   0  0  1  0  0  0  0  0  0  0  0  0
  -17.2640   -9.2950   66.7300 C   0  0  2  0  0  0  0  0  0  0  0  0
  -17.3420  -10.3250   69.5020 C   0  0  2  0  0  0  0  0  0  0  0  0
  -17.1440   -6.4560   62.7770 C   0  0  2  0  0  0  0  0  0  0  0  0
  -17.8250   -8.2860   65.8790 N   0  0  0  0  0  0  0  0  0  0  0  0
  -17.7500   -6.9930   63.9800 N   0  0  0  0  0  0  0  0  0  0  0  0
  -16.4410   -8.9120   76.2100 O   0  5  0  0  0  0  0  0  0  0  0  0
  -16.4160   -8.8640   64.2500 O   0  0  0  0  0  0  0  0  0  0  0  0
  -15.0670  -10.7810   76.2380 O   0  0  0  0  0  0  0  0  0  0  0  0
  -16.8120  -11.3220   70.3730 O   0  0  0  0  0  0  0  0  0  0  0  0
  -16.8986   -8.3172   73.8068 H   0  0  0  0  0  0  0  0  0  0  0  0
  -15.4132  -12.2593   74.5344 H   0  0  0  0  0  0  0  0  0  0  0  0
  -17.3133   -8.9021   71.4447 H   0  0  0  0  0  0  0  0  0  0  0  0
  -15.8545  -12.8358   72.1764 H   0  0  0  0  0  0  0  0  0  0  0  0
  -19.2732   -9.6303   67.3611 H   0  0  0  0  0  0  0  0  0  0  0  0
  -18.5815  -10.9210   66.3206 H   0  0  0  0  0  0  0  0  0  0  0  0
  -15.7927   -7.9723   67.5643 H   0  0  0  0  0  0  0  0  0  0  0  0
  -17.3966   -7.9167   68.3711 H   0  0  0  0  0  0  0  0  0  0  0  0
  -17.4552  -11.9191   68.0775 H   0  0  0  0  0  0  0  0  0  0  0  0
  -19.0304  -11.4327   68.7910 H   0  0  0  0  0  0  0  0  0  0  0  0
  -15.6423   -9.0454   69.7375 H   0  0  0  0  0  0  0  0  0  0  0  0
  -15.4804  -10.2837   68.4464 H   0  0  0  0  0  0  0  0  0  0  0  0
  -18.4125   -5.7339   59.8223 H   0  0  0  0  0  0  0  0  0  0  0  0
  -16.8953   -5.0984   59.1006 H   0  0  0  0  0  0  0  0  0  0  0  0
  -14.7211   -6.0941   59.6929 H   0  0  0  0  0  0  0  0  0  0  0  0
  -14.6358   -7.4635   60.8522 H   0  0  0  0  0  0  0  0  0  0  0  0
  -15.6161   -3.5282   62.2089 H   0  0  0  0  0  0  0  0  0  0  0  0
  -15.2848   -3.8350   60.4703 H   0  0  0  0  0  0  0  0  0  0  0  0
  -16.7904   -8.3743   61.8591 H   0  0  0  0  0  0  0  0  0  0  0  0
  -18.3524   -7.6077   61.4128 H   0  0  0  0  0  0  0  0  0  0  0  0
  -18.9157   -5.3884   62.1874 H   0  0  0  0  0  0  0  0  0  0  0  0
  -17.7936   -4.4578   63.2369 H   0  0  0  0  0  0  0  0  0  0  0  0
  -15.5575   -5.4395   63.8312 H   0  0  0  0  0  0  0  0  0  0  0  0
  -15.1342   -7.0861   63.2514 H   0  0  0  0  0  0  0  0  0  0  0  0
  -16.7299   -7.5497   59.5153 H   0  0  0  0  0  0  0  0  0  0  0  0
  -17.7197   -3.6285   60.9129 H   0  0  0  0  0  0  0  0  0  0  0  0
  -13.9418   -5.3467   61.9418 H   0  0  0  0  0  0  0  0  0  0  0  0
  -16.4899   -9.8639   66.1943 H   0  0  0  0  0  0  0  0  0  0  0  0
  -18.0213   -9.6436   70.0351 H   0  0  0  0  0  0  0  0  0  0  0  0
  -18.6074   -7.7389   66.1766 H   0  0  0  0  0  0  0  0  0  0  0  0
  -18.5662   -6.5403   64.3391 H   0  0  0  0  0  0  0  0  0  0  0  0
  1  5  1  0  0  0  0
  1 31  1  0  0  0  0
  2  5  2  0  0  0  0
  2 32  1  0  0  0  0
  3  1  2  0  0  0  0
  3 33  1  0  0  0  0
  4  2  1  0  0  0  0
  4 34  1  0  0  0  0
  5  7  1  0  0  0  0
  6  3  1  0  0  0  0
  6  4  2  0  0  0  0
  7 27  1  0  0  0  0
  7 29  2  0  0  0  0
  8 25  1  0  0  0  0
  8 28  2  0  0  0  0
  9 11  1  0  0  0  0
  9 35  1  0  0  0  0
  9 36  1  0  0  0  0
 10 12  1  0  0  0  0
 10 37  1  0  0  0  0
 10 38  1  0  0  0  0
 11 23  1  0  0  0  0
 11 39  1  0  0  0  0
 11 40  1  0  0  0  0
 12 23  1  0  0  0  0
 12 41  1  0  0  0  0
 12 42  1  0  0  0  0
 13 43  1  0  0  0  0
 13 44  1  0  0  0  0
 14 45  1  0  0  0  0
 14 46  1  0  0  0  0
 15 47  1  0  0  0  0
 15 48  1  0  0  0  0
 16 19  1  0  0  0  0
 16 49  1  0  0  0  0
 16 50  1  0  0  0  0
 17 20  1  0  0  0  0
 17 51  1  0  0  0  0
 17 52  1  0  0  0  0
 18 21  1  0  0  0  0
 18 53  1  0  0  0  0
 18 54  1  0  0  0  0
 19 13  1  0  0  0  0
 19 14  1  0  0  0  0
 19 55  1  6  0  0  0
 20 13  1  0  0  0  0
 20 15  1  0  0  0  0
 20 56  1  6  0  0  0
 21 14  1  0  0  0  0
 21 15  1  0  0  0  0
 21 57  1  1  0  0  0
 22  9  1  0  0  0  0
 22 10  1  0  0  0  0
 22 58  1  6  0  0  0
 23 30  1  0  0  0  0
 23 59  1  1  0  0  0
 24 16  1  0  0  0  0
 24 17  1  0  0  0  0
 24 18  1  0  0  0  0
 24 26  1  1  0  0  0
 25 22  1  0  0  0  0
 25 60  1  0  0  0  0
 26  8  1  0  0  0  0
 26 61  1  0  0  0  0
 30  6  1  0  0  0  0
M  CHG  1  27  -1
M  END
