3wns_ligand
 OpenBabel08222323353D

 13 12  0  0  0  0  0  0  0  0999 V2000
   30.2600   17.2050  102.3970 C   0  0  0  0  0  0  0  0  0  0  0  0
   30.1220   15.7460  102.1740 C   0  0  0  0  0  0  0  0  0  0  0  0
   29.0520   14.9700  102.6190 C   0  0  0  0  0  0  0  0  0  0  0  0
   30.9290   18.9840  100.6830 C   0  0  0  0  0  0  0  0  0  0  0  0
   30.1710   17.8500  101.0880 N   0  0  0  0  0  0  0  0  0  0  0  0
   31.9880   19.6580  101.7240 S   0  0  0  0  0  0  0  0  0  0  0  0
   31.2327   17.4255  102.8609 H   0  0  0  0  0  0  0  0  0  0  0  0
   29.4519   17.5650  103.0507 H   0  0  0  0  0  0  0  0  0  0  0  0
   30.9146   15.2430  101.6220 H   0  0  0  0  0  0  0  0  0  0  0  0
   29.0306   13.9013  102.4106 H   0  0  0  0  0  0  0  0  0  0  0  0
   28.2379   15.4327  103.1749 H   0  0  0  0  0  0  0  0  0  0  0  0
   30.8028   19.3992   99.6842 H   0  0  0  0  0  0  0  0  0  0  0  0
   29.5279   17.4645  100.4263 H   0  0  0  0  0  0  0  0  0  0  0  0
  1  2  1  0  0  0  0
  1  5  1  0  0  0  0
  1  7  1  0  0  0  0
  1  8  1  0  0  0  0
  2  3  2  0  0  0  0
  2  9  1  0  0  0  0
  3 10  1  0  0  0  0
  3 11  1  0  0  0  0
  4  6  2  0  0  0  0
  4 12  1  0  0  0  0
  5  4  1  0  0  0  0
  5 13  1  0  0  0  0
M  END
