3wp1_ligand
 OpenBabel08222323353D

227227  0  0  1  0  0  0  0  0999 V2000
  141.8710  140.6160   -5.2290 N   0  3  0  0  0  0  0  0  0  0  0  0
  142.8400  140.8310   -6.3010 C   0  0  2  0  0  0  0  0  0  0  0  0
  143.6890  142.0570   -5.9810 C   0  0  0  0  0  0  0  0  0  0  0  0
  144.8880  142.0850   -6.2520 O   0  0  0  0  0  0  0  0  0  0  0  0
  142.1330  141.0230   -7.6480 C   0  0  0  0  0  0  0  0  0  0  0  0
  142.6470  140.1370   -8.7650 C   0  0  0  0  0  0  0  0  0  0  0  0
  144.1580  139.9950   -8.7060 C   0  0  0  0  0  0  0  0  0  0  0  0
  144.7220  139.6580  -10.0780 C   0  0  0  0  0  0  0  0  0  0  0  0
  143.9690  138.5630  -10.7710 N   0  3  0  0  0  0  0  0  0  0  0  0
  143.0540  143.0770   -5.4140 N   0  0  0  0  0  0  0  0  0  0  0  0
  143.7720  144.2460   -4.9380 C   0  0  2  0  0  0  0  0  0  0  0  0
  144.5490  143.7910   -3.7070 C   0  0  0  0  0  0  0  0  0  0  0  0
  144.0640  142.9530   -2.9380 O   0  0  0  0  0  0  0  0  0  0  0  0
  142.7910  145.3670   -4.5760 C   0  0  0  0  0  0  0  0  0  0  0  0
  143.4360  146.6830   -4.1180 C   0  0  0  0  0  0  0  0  0  0  0  0
  142.4860  147.4810   -3.2060 C   0  0  0  0  0  0  0  0  0  0  0  0
  142.5910  148.9950   -3.4430 C   0  0  0  0  0  0  0  0  0  0  0  0
  141.7100  149.8300   -2.5510 N   0  3  0  0  0  0  0  0  0  0  0  0
  145.7520  144.3230   -3.5240 N   0  0  0  0  0  0  0  0  0  0  0  0
  146.5910  143.9320   -2.4020 C   0  0  2  0  0  0  0  0  0  0  0  0
  145.9190  144.2330   -1.0600 C   0  0  0  0  0  0  0  0  0  0  0  0
  145.1070  145.1410   -0.9570 O   0  0  0  0  0  0  0  0  0  0  0  0
  147.9490  144.6370   -2.4930 C   0  0  0  0  0  0  0  0  0  0  0  0
  148.4780  144.8810   -1.1980 O   0  0  0  0  0  0  0  0  0  0  0  0
  146.2300  143.4450   -0.0420 N   0  0  0  0  0  0  0  0  0  0  0  0
  145.7430  143.7220    1.3030 C   0  0  2  0  0  0  0  0  0  0  0  0
  146.6090  144.7550    2.0420 C   0  0  0  0  0  0  0  0  0  0  0  0
  146.2930  145.1340    3.1760 O   0  0  0  0  0  0  0  0  0  0  0  0
  145.7280  142.4460    2.1320 C   0  0  0  0  0  0  0  0  0  0  0  0
  145.0160  141.2330    1.5550 C   0  0  0  0  0  0  0  0  0  0  0  0
  145.2890  140.0170    2.4570 C   0  0  0  0  0  0  0  0  0  0  0  0
  143.5250  141.5150    1.4250 C   0  0  0  0  0  0  0  0  0  0  0  0
  147.7200  145.1580    1.4370 N   0  0  0  0  0  0  0  0  0  0  0  0
  148.6210  146.1340    2.0550 C   0  0  2  0  0  0  0  0  0  0  0  0
  148.8750  145.8900    3.5420 C   0  0  0  0  0  0  0  0  0  0  0  0
  148.7180  146.8070    4.3410 O   0  0  0  0  0  0  0  0  0  0  0  0
  148.0840  147.5550    1.8620 C   0  0  0  0  0  0  0  0  0  0  0  0
  147.8130  147.9170    0.4080 C   0  0  0  0  0  0  0  0  0  0  0  0
  147.0440  149.2100    0.2910 C   0  0  0  0  0  0  0  0  0  0  0  0
  146.7210  149.5250   -1.0970 N   0  0  0  0  0  0  0  0  0  0  0  0
  145.6000  150.1370   -1.4640 C   0  0  0  0  0  3  0  0  0  0  0  0
  144.7120  150.4850   -0.5440 N   0  0  0  0  0  0  0  0  0  0  0  0
  145.3580  150.3970   -2.7380 N   0  0  0  0  0  0  0  0  0  0  0  0
  149.2390  144.6700    3.9220 N   0  0  0  0  0  0  0  0  0  0  0  0
  149.3950  144.3610    5.3400 C   0  0  2  0  0  0  0  0  0  0  0  0
  150.5340  145.1270    5.9900 C   0  0  0  0  0  0  0  0  0  0  0  0
  150.4580  145.4580    7.1670 O   0  0  0  0  0  0  0  0  0  0  0  0
  149.5900  142.8670    5.5680 C   0  0  0  0  0  0  0  0  0  0  0  0
  148.4220  142.0100    5.1410 C   0  0  0  0  0  0  0  0  0  0  0  0
  148.7220  141.2360    3.8800 C   0  0  0  0  0  0  0  0  0  0  0  0
  149.1340  141.8140    2.8370 O   0  0  0  0  0  0  0  0  0  0  0  0
  148.5400  139.9100    3.9610 N   0  0  0  0  0  0  0  0  0  0  0  0
  151.5900  145.3920    5.2250 N   0  0  0  0  0  0  0  0  0  0  0  0
  152.7380  146.1440    5.7240 C   0  0  1  0  0  0  0  0  0  0  0  0
  153.7180  146.4110    4.5930 C   0  0  0  0  0  0  0  0  0  0  0  0
  154.3990  145.2440    4.2170 O   0  0  0  0  0  0  0  0  0  0  0  0
  152.2490  147.4910    6.2160 C   0  0  0  0  0  0  0  0  0  0  0  0
  152.6240  147.9900    7.2830 O   0  0  0  0  0  0  0  0  0  0  0  0
  153.9720  144.8510    2.7110 P   0  0  0  0  0  0  0  0  0  0  0  0
  154.9150  145.6950    1.7240 O   0  0  0  0  0  1  0  0  0  0  0  0
  152.4430  145.2890    2.4480 O   0  0  0  0  0  1  0  0  0  0  0  0
  154.1760  143.2630    2.5230 O   0  0  0  0  0  0  0  0  0  0  0  0
  151.3860  148.0770    5.4100 N   0  0  0  0  0  0  0  0  0  0  0  0
  150.9470  149.4180    5.6740 C   0  0  2  0  0  0  0  0  0  0  0  0
  150.1010  149.4840    6.9460 C   0  0  0  0  0  0  0  0  0  0  0  0
  150.3400  150.3280    7.8030 O   0  0  0  0  0  0  0  0  0  0  0  0
  150.1870  149.9580    4.4760 C   0  0  0  0  0  0  0  0  0  0  0  0
  149.7760  151.3720    4.6380 C   0  0  0  0  0  0  0  0  0  0  0  0
  150.7260  152.3720    4.6420 C   0  0  0  0  0  0  0  0  0  0  0  0
  148.4430  151.7070    4.8040 C   0  0  0  0  0  0  0  0  0  0  0  0
  150.3580  153.6920    4.7960 C   0  0  0  0  0  0  0  0  0  0  0  0
  148.0700  153.0150    4.9620 C   0  0  0  0  0  0  0  0  0  0  0  0
  149.0300  154.0130    4.9570 C   0  0  0  0  0  0  0  0  0  0  0  0
  149.1250  148.5930    7.0810 N   0  0  0  0  0  0  0  0  0  0  0  0
  148.3140  148.6010    8.2910 C   0  0  2  0  0  0  0  0  0  0  0  0
  149.2030  148.2920    9.4750 C   0  0  0  0  0  0  0  0  0  0  0  0
  149.0040  148.8050   10.5750 O   0  0  0  0  0  0  0  0  0  0  0  0
  147.1790  147.5730    8.2400 C   0  0  0  0  0  0  0  0  0  0  0  0
  147.0320  146.8310    6.9370 C   0  0  0  0  0  0  0  0  0  0  0  0
  146.0080  145.7000    7.0590 C   0  0  0  0  0  0  0  0  0  0  0  0
  144.6770  146.1340    6.6490 N   0  0  0  0  0  0  0  0  0  0  0  0
  143.7880  146.6900    7.4670 C   0  0  0  0  0  3  0  0  0  0  0  0
  144.0860  146.8790    8.7470 N   0  0  0  0  0  0  0  0  0  0  0  0
  142.6010  147.0570    7.0060 N   0  0  0  0  0  0  0  0  0  0  0  0
  150.1980  147.4550    9.2390 N   0  0  0  0  0  0  0  0  0  0  0  0
  151.0470  147.0140   10.3240 C   0  0  2  0  0  0  0  0  0  0  0  0
  151.9560  148.1140   10.7980 C   0  0  0  0  0  0  0  0  0  0  0  0
  152.4110  148.0860   11.9400 O   0  0  0  0  0  0  0  0  0  0  0  0
  151.8860  145.8200    9.9100 C   0  0  0  0  0  0  0  0  0  0  0  0
  151.9280  144.8470   11.0220 C   0  0  0  0  0  0  0  0  0  0  0  0
  152.4370  143.5240   10.5920 C   0  0  0  0  0  0  0  0  0  0  0  0
  152.5470  142.6440   11.7500 N   0  0  0  0  0  0  0  0  0  0  0  0
  151.5070  142.0640   12.3410 C   0  0  0  0  0  3  0  0  0  0  0  0
  150.2730  142.2700   11.8770 N   0  0  0  0  0  0  0  0  0  0  0  0
  151.7040  141.2760   13.3930 N   0  0  0  0  0  0  0  0  0  0  0  0
  152.2270  149.0750    9.9180 N   0  0  0  0  0  0  0  0  0  0  0  0
  153.1770  150.1340   10.2180 C   0  0  2  0  0  0  0  0  0  0  0  0
  152.8110  150.9210   11.4950 C   0  0  0  0  0  0  0  0  0  0  0  0
  151.6390  151.2600   11.7190 O   0  0  0  0  0  0  0  0  0  0  0  0
  153.3110  151.0710    9.0140 C   0  0  0  0  0  0  0  0  0  0  0  0
  154.4620  152.0610    9.1430 C   0  0  0  0  0  0  0  0  0  0  0  0
  154.3950  153.2710    7.8390 S   0  0  0  0  0  0  0  0  0  0  0  0
  152.8600  154.1310    8.2160 C   0  0  0  0  0  0  0  0  0  0  0  0
  153.8200  151.1900   12.3290 N   0  0  0  0  0  0  0  0  0  0  0  0
  153.6340  151.8990   13.5970 C   0  0  2  0  0  0  0  0  0  0  0  0
  153.3480  153.3710   13.3390 C   0  0  0  0  0  0  0  0  0  0  0  0
  154.0490  154.0110   12.5560 O   0  5  0  0  0  0  0  0  0  0  0  0
  154.8710  151.7590   14.4990 C   0  0  0  0  0  0  0  0  0  0  0  0
  141.3100  139.8057   -5.4407 H   0  0  0  0  0  0  0  0  0  0  0  0
  141.2753  141.4250   -5.1473 H   0  0  0  0  0  0  0  0  0  0  0  0
  142.3591  140.4689   -4.3594 H   0  0  0  0  0  0  0  0  0  0  0  0
  143.4948  139.9498   -6.3687 H   0  0  0  0  0  0  0  0  0  0  0  0
  142.2610  142.0713   -7.9558 H   0  0  0  0  0  0  0  0  0  0  0  0
  141.0631  140.8103   -7.5068 H   0  0  0  0  0  0  0  0  0  0  0  0
  142.3663  140.5802   -9.7318 H   0  0  0  0  0  0  0  0  0  0  0  0
  142.1897  139.1410   -8.6716 H   0  0  0  0  0  0  0  0  0  0  0  0
  144.4176  139.1908   -8.0018 H   0  0  0  0  0  0  0  0  0  0  0  0
  144.5961  140.9423   -8.3586 H   0  0  0  0  0  0  0  0  0  0  0  0
  145.7686  139.3414   -9.9581 H   0  0  0  0  0  0  0  0  0  0  0  0
  144.6816  140.5612  -10.7045 H   0  0  0  0  0  0  0  0  0  0  0  0
  144.3872  138.3850  -11.6707 H   0  0  0  0  0  0  0  0  0  0  0  0
  143.0087  138.8427  -10.8962 H   0  0  0  0  0  0  0  0  0  0  0  0
  144.0047  137.7248  -10.2122 H   0  0  0  0  0  0  0  0  0  0  0  0
  142.0599  143.0389   -5.3128 H   0  0  0  0  0  0  0  0  0  0  0  0
  144.4656  144.6067   -5.7118 H   0  0  0  0  0  0  0  0  0  0  0  0
  142.1458  145.0040   -3.7624 H   0  0  0  0  0  0  0  0  0  0  0  0
  142.1771  145.5806   -5.4634 H   0  0  0  0  0  0  0  0  0  0  0  0
  143.6788  147.2904   -5.0023 H   0  0  0  0  0  0  0  0  0  0  0  0
  144.3590  146.4565   -3.5641 H   0  0  0  0  0  0  0  0  0  0  0  0
  142.7397  147.2681   -2.1571 H   0  0  0  0  0  0  0  0  0  0  0  0
  141.4523  147.1620   -3.4053 H   0  0  0  0  0  0  0  0  0  0  0  0
  142.3139  149.1992   -4.4877 H   0  0  0  0  0  0  0  0  0  0  0  0
  143.6351  149.2974   -3.2748 H   0  0  0  0  0  0  0  0  0  0  0  0
  141.8385  150.8055   -2.7699 H   0  0  0  0  0  0  0  0  0  0  0  0
  141.9564  149.6667   -1.5873 H   0  0  0  0  0  0  0  0  0  0  0  0
  140.7456  149.5767   -2.6989 H   0  0  0  0  0  0  0  0  0  0  0  0
  146.0882  145.0070   -4.1714 H   0  0  0  0  0  0  0  0  0  0  0  0
  146.7593  142.8466   -2.4624 H   0  0  0  0  0  0  0  0  0  0  0  0
  147.8233  145.5956   -3.0177 H   0  0  0  0  0  0  0  0  0  0  0  0
  148.6489  144.0006   -3.0544 H   0  0  0  0  0  0  0  0  0  0  0  0
  149.3180  145.3176   -1.2774 H   0  0  0  0  0  0  0  0  0  0  0  0
  146.8096  142.6454   -0.1993 H   0  0  0  0  0  0  0  0  0  0  0  0
  144.7179  144.1131    1.2241 H   0  0  0  0  0  0  0  0  0  0  0  0
  145.2453  142.6839    3.0913 H   0  0  0  0  0  0  0  0  0  0  0  0
  146.7747  142.1580    2.3096 H   0  0  0  0  0  0  0  0  0  0  0  0
  145.4190  141.0249    0.5529 H   0  0  0  0  0  0  0  0  0  0  0  0
  144.7772  139.1339    2.0468 H   0  0  0  0  0  0  0  0  0  0  0  0
  144.9133  140.2206    3.4706 H   0  0  0  0  0  0  0  0  0  0  0  0
  146.3716  139.8269    2.4985 H   0  0  0  0  0  0  0  0  0  0  0  0
  143.3725  142.3888    0.7744 H   0  0  0  0  0  0  0  0  0  0  0  0
  143.1025  141.7203    2.4197 H   0  0  0  0  0  0  0  0  0  0  0  0
  143.0231  140.6397    0.9869 H   0  0  0  0  0  0  0  0  0  0  0  0
  147.9475  144.7861    0.5370 H   0  0  0  0  0  0  0  0  0  0  0  0
  149.5886  146.0588    1.5373 H   0  0  0  0  0  0  0  0  0  0  0  0
  148.8239  148.2630    2.2636 H   0  0  0  0  0  0  0  0  0  0  0  0
  147.1432  147.6496    2.4241 H   0  0  0  0  0  0  0  0  0  0  0  0
  147.2277  147.1103   -0.0575 H   0  0  0  0  0  0  0  0  0  0  0  0
  148.7731  148.0240   -0.1181 H   0  0  0  0  0  0  0  0  0  0  0  0
  147.6528  150.0254    0.7087 H   0  0  0  0  0  0  0  0  0  0  0  0
  146.1085  149.1209    0.8628 H   0  0  0  0  0  0  0  0  0  0  0  0
  147.3957  149.2597   -1.8287 H   0  0  0  0  0  0  0  0  0  0  0  0
  143.8412  150.9596   -0.8222 H   0  0  0  0  0  0  0  0  0  0  0  0
  144.8926  150.2809    0.4493 H   0  0  0  0  0  0  0  0  0  0  0  0
  146.0443  150.1290   -3.4577 H   0  0  0  0  0  0  0  0  0  0  0  0
  144.4832  150.8675   -3.0104 H   0  0  0  0  0  0  0  0  0  0  0  0
  149.4063  143.9624    3.2355 H   0  0  0  0  0  0  0  0  0  0  0  0
  148.4635  144.6604    5.8427 H   0  0  0  0  0  0  0  0  0  0  0  0
  149.7617  142.7030    6.6421 H   0  0  0  0  0  0  0  0  0  0  0  0
  150.4767  142.5460    5.0016 H   0  0  0  0  0  0  0  0  0  0  0  0
  147.5520  142.6587    4.9614 H   0  0  0  0  0  0  0  0  0  0  0  0
  148.1891  141.2991    5.9475 H   0  0  0  0  0  0  0  0  0  0  0  0
  148.7186  139.3313    3.1653 H   0  0  0  0  0  0  0  0  0  0  0  0
  148.2256  139.4998    4.8171 H   0  0  0  0  0  0  0  0  0  0  0  0
  151.5977  145.0663    4.2796 H   0  0  0  0  0  0  0  0  0  0  0  0
  153.2310  145.5885    6.5354 H   0  0  0  0  0  0  0  0  0  0  0  0
  154.4508  147.1613    4.9246 H   0  0  0  0  0  0  0  0  0  0  0  0
  153.1648  146.7976    3.7244 H   0  0  0  0  0  0  0  0  0  0  0  0
  151.0361  147.5859    4.6123 H   0  0  0  0  0  0  0  0  0  0  0  0
  151.8367  150.0464    5.8270 H   0  0  0  0  0  0  0  0  0  0  0  0
  149.2850  149.3459    4.3287 H   0  0  0  0  0  0  0  0  0  0  0  0
  150.8319  149.8804    3.5882 H   0  0  0  0  0  0  0  0  0  0  0  0
  151.7730  152.1176    4.5228 H   0  0  0  0  0  0  0  0  0  0  0  0
  147.6891  150.9281    4.8089 H   0  0  0  0  0  0  0  0  0  0  0  0
  151.1107  154.4721    4.7902 H   0  0  0  0  0  0  0  0  0  0  0  0
  147.0241  153.2690    5.0909 H   0  0  0  0  0  0  0  0  0  0  0  0
  148.7346  155.0487    5.0801 H   0  0  0  0  0  0  0  0  0  0  0  0
  148.9488  147.9236    6.3593 H   0  0  0  0  0  0  0  0  0  0  0  0
  147.8761  149.6024    8.4150 H   0  0  0  0  0  0  0  0  0  0  0  0
  146.2345  148.1013    8.4372 H   0  0  0  0  0  0  0  0  0  0  0  0
  147.3573  146.8321    9.0333 H   0  0  0  0  0  0  0  0  0  0  0  0
  148.0059  146.4048    6.6545 H   0  0  0  0  0  0  0  0  0  0  0  0
  146.6997  147.5339    6.1589 H   0  0  0  0  0  0  0  0  0  0  0  0
  145.9677  145.3664    8.1064 H   0  0  0  0  0  0  0  0  0  0  0  0
  146.3232  144.8625    6.4192 H   0  0  0  0  0  0  0  0  0  0  0  0
  144.4087  146.0014    5.6634 H   0  0  0  0  0  0  0  0  0  0  0  0
  143.3956  147.3099    9.3783 H   0  0  0  0  0  0  0  0  0  0  0  0
  145.0076  146.5948    9.1086 H   0  0  0  0  0  0  0  0  0  0  0  0
  142.3666  146.9118    6.0136 H   0  0  0  0  0  0  0  0  0  0  0  0
  141.9128  147.4874    7.6401 H   0  0  0  0  0  0  0  0  0  0  0  0
  150.3642  147.1261    8.3094 H   0  0  0  0  0  0  0  0  0  0  0  0
  150.4003  146.7128   11.1613 H   0  0  0  0  0  0  0  0  0  0  0  0
  152.9075  146.1524    9.6731 H   0  0  0  0  0  0  0  0  0  0  0  0
  151.4396  145.3463    9.0233 H   0  0  0  0  0  0  0  0  0  0  0  0
  150.9107  144.7219   11.4213 H   0  0  0  0  0  0  0  0  0  0  0  0
  152.5860  145.2398   11.8112 H   0  0  0  0  0  0  0  0  0  0  0  0
  153.4272  143.6453   10.1287 H   0  0  0  0  0  0  0  0  0  0  0  0
  151.7420  143.0836    9.8619 H   0  0  0  0  0  0  0  0  0  0  0  0
  153.4858  142.4612   12.1324 H   0  0  0  0  0  0  0  0  0  0  0  0
  149.4683  141.8198   12.3361 H   0  0  0  0  0  0  0  0  0  0  0  0
  150.1251  142.8792   11.0597 H   0  0  0  0  0  0  0  0  0  0  0  0
  152.6582  141.1197   13.7479 H   0  0  0  0  0  0  0  0  0  0  0  0
  150.9025  140.8216   13.8534 H   0  0  0  0  0  0  0  0  0  0  0  0
  151.7667  149.0685    9.0302 H   0  0  0  0  0  0  0  0  0  0  0  0
  154.1559  149.6633   10.3915 H   0  0  0  0  0  0  0  0  0  0  0  0
  152.3742  151.6375    8.9070 H   0  0  0  0  0  0  0  0  0  0  0  0
  153.4753  150.4607    8.1137 H   0  0  0  0  0  0  0  0  0  0  0  0
  155.4159  151.5166    9.0826 H   0  0  0  0  0  0  0  0  0  0  0  0
  154.3924  152.5721   10.1146 H   0  0  0  0  0  0  0  0  0  0  0  0
  152.6913  154.9232    7.4717 H   0  0  0  0  0  0  0  0  0  0  0  0
  152.9270  154.5783    9.2187 H   0  0  0  0  0  0  0  0  0  0  0  0
  152.0234  153.4173    8.1879 H   0  0  0  0  0  0  0  0  0  0  0  0
  154.7414  150.8946   12.0765 H   0  0  0  0  0  0  0  0  0  0  0  0
  152.7711  151.4585   14.1179 H   0  0  0  0  0  0  0  0  0  0  0  0
  152.3895  153.9369   13.9295 O   0  0  0  0  0  0  0  0  0  0  0  0
  154.7010  152.3008   15.4411 H   0  0  0  0  0  0  0  0  0  0  0  0
  155.7481  152.1810   13.9866 H   0  0  0  0  0  0  0  0  0  0  0  0
  155.0490  150.6952   14.7148 H   0  0  0  0  0  0  0  0  0  0  0  0
  1  2  1  0  0  0  0
  1109  1  0  0  0  0
  1110  1  0  0  0  0
  1111  1  0  0  0  0
  2  3  1  0  0  0  0
  2  5  1  0  0  0  0
  2112  1  6  0  0  0
  3  4  2  0  0  0  0
  3 10  1  0  0  0  0
  5  6  1  0  0  0  0
  5113  1  0  0  0  0
  5114  1  0  0  0  0
  6  7  1  0  0  0  0
  6115  1  0  0  0  0
  6116  1  0  0  0  0
  7  8  1  0  0  0  0
  7117  1  0  0  0  0
  7118  1  0  0  0  0
  8  9  1  0  0  0  0
  8119  1  0  0  0  0
  8120  1  0  0  0  0
  9121  1  0  0  0  0
  9122  1  0  0  0  0
  9123  1  0  0  0  0
 10 11  1  0  0  0  0
 10124  1  0  0  0  0
 11 12  1  0  0  0  0
 11 14  1  0  0  0  0
 11125  1  6  0  0  0
 12 13  2  0  0  0  0
 12 19  1  0  0  0  0
 14 15  1  0  0  0  0
 14126  1  0  0  0  0
 14127  1  0  0  0  0
 15 16  1  0  0  0  0
 15128  1  0  0  0  0
 15129  1  0  0  0  0
 16 17  1  0  0  0  0
 16130  1  0  0  0  0
 16131  1  0  0  0  0
 17 18  1  0  0  0  0
 17132  1  0  0  0  0
 17133  1  0  0  0  0
 18134  1  0  0  0  0
 18135  1  0  0  0  0
 18136  1  0  0  0  0
 19 20  1  0  0  0  0
 19137  1  0  0  0  0
 20 21  1  0  0  0  0
 20 23  1  0  0  0  0
 20138  1  6  0  0  0
 21 22  2  0  0  0  0
 21 25  1  0  0  0  0
 23 24  1  0  0  0  0
 23139  1  0  0  0  0
 23140  1  0  0  0  0
 24141  1  0  0  0  0
 25 26  1  0  0  0  0
 25142  1  0  0  0  0
 26 27  1  0  0  0  0
 26 29  1  0  0  0  0
 26143  1  6  0  0  0
 27 28  2  0  0  0  0
 27 33  1  0  0  0  0
 29 30  1  0  0  0  0
 29144  1  0  0  0  0
 29145  1  0  0  0  0
 30 31  1  0  0  0  0
 30 32  1  0  0  0  0
 30146  1  0  0  0  0
 31147  1  0  0  0  0
 31148  1  0  0  0  0
 31149  1  0  0  0  0
 32150  1  0  0  0  0
 32151  1  0  0  0  0
 32152  1  0  0  0  0
 33 34  1  0  0  0  0
 33153  1  0  0  0  0
 34 35  1  0  0  0  0
 34 37  1  0  0  0  0
 34154  1  6  0  0  0
 35 36  2  0  0  0  0
 35 44  1  0  0  0  0
 37 38  1  0  0  0  0
 37155  1  0  0  0  0
 37156  1  0  0  0  0
 38 39  1  0  0  0  0
 38157  1  0  0  0  0
 38158  1  0  0  0  0
 39 40  1  0  0  0  0
 39159  1  0  0  0  0
 39160  1  0  0  0  0
 40 41  1  0  0  0  0
 40161  1  0  0  0  0
 41 42  1  0  0  0  0
 41 43  1  0  0  0  0
 42162  1  0  0  0  0
 42163  1  0  0  0  0
 43164  1  0  0  0  0
 43165  1  0  0  0  0
 44 45  1  0  0  0  0
 44166  1  0  0  0  0
 45 46  1  0  0  0  0
 45 48  1  0  0  0  0
 45167  1  1  0  0  0
 46 47  2  0  0  0  0
 46 53  1  0  0  0  0
 48 49  1  0  0  0  0
 48168  1  0  0  0  0
 48169  1  0  0  0  0
 49 50  1  0  0  0  0
 49170  1  0  0  0  0
 49171  1  0  0  0  0
 50 51  2  0  0  0  0
 50 52  1  0  0  0  0
 52172  1  0  0  0  0
 52173  1  0  0  0  0
 53 54  1  0  0  0  0
 53174  1  0  0  0  0
 54 55  1  0  0  0  0
 54 57  1  0  0  0  0
 54175  1  1  0  0  0
 55 56  1  0  0  0  0
 55176  1  0  0  0  0
 55177  1  0  0  0  0
 56 59  1  0  0  0  0
 57 58  2  0  0  0  0
 57 63  1  0  0  0  0
 59 60  1  0  0  0  0
 59 61  1  0  0  0  0
 59 62  2  0  0  0  0
 63 64  1  0  0  0  0
 63178  1  0  0  0  0
 64 65  1  0  0  0  0
 64 67  1  0  0  0  0
 64179  1  1  0  0  0
 65 66  2  0  0  0  0
 65 74  1  0  0  0  0
 67 68  1  0  0  0  0
 67180  1  0  0  0  0
 67181  1  0  0  0  0
 68 69  2  0  0  0  0
 68 70  1  0  0  0  0
 69 71  1  0  0  0  0
 69182  1  0  0  0  0
 70 72  2  0  0  0  0
 70183  1  0  0  0  0
 71 73  2  0  0  0  0
 71184  1  0  0  0  0
 72 73  1  0  0  0  0
 72185  1  0  0  0  0
 73186  1  0  0  0  0
 74 75  1  0  0  0  0
 74187  1  0  0  0  0
 75 76  1  0  0  0  0
 75 78  1  0  0  0  0
 75188  1  1  0  0  0
 76 77  2  0  0  0  0
 76 85  1  0  0  0  0
 78 79  1  0  0  0  0
 78189  1  0  0  0  0
 78190  1  0  0  0  0
 79 80  1  0  0  0  0
 79191  1  0  0  0  0
 79192  1  0  0  0  0
 80 81  1  0  0  0  0
 80193  1  0  0  0  0
 80194  1  0  0  0  0
 81 82  1  0  0  0  0
 81195  1  0  0  0  0
 82 83  1  0  0  0  0
 82 84  1  0  0  0  0
 83196  1  0  0  0  0
 83197  1  0  0  0  0
 84198  1  0  0  0  0
 84199  1  0  0  0  0
 85 86  1  0  0  0  0
 85200  1  0  0  0  0
 86 87  1  0  0  0  0
 86 89  1  0  0  0  0
 86201  1  1  0  0  0
 87 88  2  0  0  0  0
 87 96  1  0  0  0  0
 89 90  1  0  0  0  0
 89202  1  0  0  0  0
 89203  1  0  0  0  0
 90 91  1  0  0  0  0
 90204  1  0  0  0  0
 90205  1  0  0  0  0
 91 92  1  0  0  0  0
 91206  1  0  0  0  0
 91207  1  0  0  0  0
 92 93  1  0  0  0  0
 92208  1  0  0  0  0
 93 94  1  0  0  0  0
 93 95  1  0  0  0  0
 94209  1  0  0  0  0
 94210  1  0  0  0  0
 95211  1  0  0  0  0
 95212  1  0  0  0  0
 96 97  1  0  0  0  0
 96213  1  0  0  0  0
 97 98  1  0  0  0  0
 97100  1  0  0  0  0
 97214  1  1  0  0  0
 98 99  2  0  0  0  0
 98104  1  0  0  0  0
100101  1  0  0  0  0
100215  1  0  0  0  0
100216  1  0  0  0  0
101102  1  0  0  0  0
101217  1  0  0  0  0
101218  1  0  0  0  0
102103  1  0  0  0  0
103219  1  0  0  0  0
103220  1  0  0  0  0
103221  1  0  0  0  0
104105  1  0  0  0  0
104222  1  0  0  0  0
105106  1  0  0  0  0
105108  1  0  0  0  0
105223  1  1  0  0  0
106107  1  0  0  0  0
106224  2  0  0  0  0
108225  1  0  0  0  0
108226  1  0  0  0  0
108227  1  0  0  0  0
M  CHG  4   1   1   9   1  18   1 107  -1
M  END
