3wqv_ligand
 OpenBabel08222323353D

118122  0  0  1  0  0  0  0  0999 V2000
  -39.2160   21.9680    3.6960 C   0  0  2  0  0  0  0  0  0  0  0  0
  -37.8700   21.9270    2.9920 C   0  0  1  0  0  0  0  0  0  0  0  0
  -36.8400   22.6610    3.8430 C   0  0  2  0  0  0  0  0  0  0  0  0
  -37.3320   24.0630    4.2180 C   0  0  1  0  0  0  0  0  0  0  0  0
  -38.7820   24.0270    4.7040 C   0  0  1  0  0  0  0  0  0  0  0  0
  -39.3310   25.4340    4.9340 C   0  0  0  0  0  0  0  0  0  0  0  0
  -37.4600   20.5570    2.7480 N   0  3  0  0  0  0  0  0  0  0  0  0
  -40.1670   21.2260    2.9710 O   0  0  0  0  0  0  0  0  0  0  0  0
  -35.6200   22.6950    3.1370 O   0  0  0  0  0  0  0  0  0  0  0  0
  -36.5830   24.6090    5.2830 O   0  0  0  0  0  0  0  0  0  0  0  0
  -39.6100   23.3190    3.8000 O   0  0  0  0  0  0  0  0  0  0  0  0
  -39.4340   26.1190    3.7080 O   0  0  0  0  0  0  0  0  0  0  0  0
  -35.3510   25.2340    4.8860 C   0  0  1  0  0  0  0  0  0  0  0  0
  -34.9860   26.2670    5.9480 C   0  0  1  0  0  0  0  0  0  0  0  0
  -33.6130   26.8940    5.7260 C   0  0  2  0  0  0  0  0  0  0  0  0
  -32.5540   25.8390    5.4160 C   0  0  1  0  0  0  0  0  0  0  0  0
  -33.0620   24.8540    4.3640 C   0  0  1  0  0  0  0  0  0  0  0  0
  -32.0870   23.7050    4.1600 C   0  0  0  0  0  0  0  0  0  0  0  0
  -36.0000   27.3030    6.0000 N   0  3  0  0  0  0  0  0  0  0  0  0
  -33.2680   27.6310    6.8790 O   0  0  0  0  0  0  0  0  0  0  0  0
  -31.3720   26.4500    4.9330 O   0  0  0  0  0  0  0  0  0  0  0  0
  -34.3070   24.3000    4.7360 O   0  0  0  0  0  0  0  0  0  0  0  0
  -32.4880   22.9600    3.0330 O   0  0  0  0  0  0  0  0  0  0  0  0
  -30.4090   26.7140    5.9720 C   0  0  1  0  0  0  0  0  0  0  0  0
  -29.0150   26.7950    5.3610 C   0  0  1  0  0  0  0  0  0  0  0  0
  -27.9440   27.0880    6.4110 C   0  0  2  0  0  0  0  0  0  0  0  0
  -28.3480   28.1910    7.3870 C   0  0  1  0  0  0  0  0  0  0  0  0
  -29.8260   28.1010    7.7820 C   0  0  1  0  0  0  0  0  0  0  0  0
  -30.3150   29.3490    8.5150 C   0  0  0  0  0  0  0  0  0  0  0  0
  -28.7000   25.5690    4.6540 N   0  3  0  0  0  0  0  0  0  0  0  0
  -26.7430   27.4470    5.7630 O   0  0  0  0  0  0  0  0  0  0  0  0
  -27.5510   28.0220    8.5430 O   0  0  0  0  0  0  0  0  0  0  0  0
  -30.6580   27.9170    6.6550 O   0  0  0  0  0  0  0  0  0  0  0  0
  -31.0630   30.1620    7.6370 O   0  0  0  0  0  0  0  0  0  0  0  0
  -26.9260   29.2410    9.0050 C   0  0  1  0  0  0  0  0  0  0  0  0
  -25.8160   28.9060    9.9810 C   0  0  1  0  0  0  0  0  0  0  0  0
  -25.4360   30.1590   10.7530 C   0  0  2  0  0  0  0  0  0  0  0  0
  -25.2120   31.3670    9.8240 C   0  0  1  0  0  0  0  0  0  0  0  0
  -26.0880   31.3720    8.5600 C   0  0  1  0  0  0  0  0  0  0  0  0
  -25.4430   32.2340    7.4770 C   0  0  0  0  0  0  0  0  0  0  0  0
  -26.2380   27.8550   10.8870 N   0  3  0  0  0  0  0  0  0  0  0  0
  -24.2710   29.8450   11.4900 O   0  0  0  0  0  0  0  0  0  0  0  0
  -25.4630   32.5950   10.4940 O   0  0  0  0  0  0  0  0  0  0  0  0
  -26.3650   30.0850    8.0280 O   0  0  0  0  0  0  0  0  0  0  0  0
  -24.1300   31.7930    7.2070 O   0  0  0  0  0  0  0  0  0  0  0  0
  -24.5130   32.8370   11.5520 C   0  0  1  0  0  0  0  0  0  0  0  0
  -24.0490   34.2980   11.5680 C   0  0  1  0  0  0  0  0  0  0  0  0
  -23.3340   34.7070   12.8620 C   0  0  2  0  0  0  0  0  0  0  0  0
  -23.8750   34.0140   14.1080 C   0  0  1  0  0  0  0  0  0  0  0  0
  -24.0080   32.5390   13.7840 C   0  0  1  0  0  0  0  0  0  0  0  0
  -24.3160   31.6730   14.9950 C   0  0  0  0  0  0  0  0  0  0  0  0
  -23.1670   34.5460   10.4430 N   0  3  0  0  0  0  0  0  0  0  0  0
  -23.4140   36.1070   13.0200 O   0  0  0  0  0  0  0  0  0  0  0  0
  -22.9980   34.1900   15.1980 O   0  0  0  0  0  0  0  0  0  0  0  0
  -25.0130   32.4370   12.8090 O   0  0  0  0  0  0  0  0  0  0  0  0
  -23.1530   30.9250   15.2570 O   0  0  0  0  0  0  0  0  0  0  0  0
  -39.1179   21.5367    4.7032 H   0  0  0  0  0  0  0  0  0  0  0  0
  -37.9602   22.4410    2.0237 H   0  0  0  0  0  0  0  0  0  0  0  0
  -36.6867   22.0962    4.7744 H   0  0  0  0  0  0  0  0  0  0  0  0
  -37.2504   24.7133    3.3346 H   0  0  0  0  0  0  0  0  0  0  0  0
  -38.7991   23.4955    5.6669 H   0  0  0  0  0  0  0  0  0  0  0  0
  -38.6528   25.9845    5.6026 H   0  0  0  0  0  0  0  0  0  0  0  0
  -40.3264   25.3651    5.3971 H   0  0  0  0  0  0  0  0  0  0  0  0
  -38.1555   20.0934    2.1846 H   0  0  0  0  0  0  0  0  0  0  0  0
  -37.3631   20.0736    3.6272 H   0  0  0  0  0  0  0  0  0  0  0  0
  -36.5766   20.5520    2.2626 H   0  0  0  0  0  0  0  0  0  0  0  0
  -41.0056   21.2682    3.4153 H   0  0  0  0  0  0  0  0  0  0  0  0
  -34.9550   23.1071    3.6759 H   0  0  0  0  0  0  0  0  0  0  0  0
  -40.0206   25.6452    3.1301 H   0  0  0  0  0  0  0  0  0  0  0  0
  -35.5039   25.7423    3.9226 H   0  0  0  0  0  0  0  0  0  0  0  0
  -34.9659   25.7537    6.9207 H   0  0  0  0  0  0  0  0  0  0  0  0
  -33.6738   27.5817    4.8697 H   0  0  0  0  0  0  0  0  0  0  0  0
  -32.3230   25.2893    6.3404 H   0  0  0  0  0  0  0  0  0  0  0  0
  -33.1806   25.3954    3.4139 H   0  0  0  0  0  0  0  0  0  0  0  0
  -32.0877   23.0579    5.0495 H   0  0  0  0  0  0  0  0  0  0  0  0
  -31.0749   24.1041    3.9976 H   0  0  0  0  0  0  0  0  0  0  0  0
  -36.9038   26.8815    6.1468 H   0  0  0  0  0  0  0  0  0  0  0  0
  -36.0043   27.8129    5.1305 H   0  0  0  0  0  0  0  0  0  0  0  0
  -35.7966   27.9345    6.7589 H   0  0  0  0  0  0  0  0  0  0  0  0
  -32.4352   28.0659    6.7381 H   0  0  0  0  0  0  0  0  0  0  0  0
  -31.8830   22.2398    2.8992 H   0  0  0  0  0  0  0  0  0  0  0  0
  -30.4424   25.8857    6.6951 H   0  0  0  0  0  0  0  0  0  0  0  0
  -29.0122   27.6214    4.6351 H   0  0  0  0  0  0  0  0  0  0  0  0
  -27.7727   26.1682    6.9894 H   0  0  0  0  0  0  0  0  0  0  0  0
  -28.1555   29.1741    6.9327 H   0  0  0  0  0  0  0  0  0  0  0  0
  -29.9414   27.2352    8.4507 H   0  0  0  0  0  0  0  0  0  0  0  0
  -29.4489   29.9157    8.8874 H   0  0  0  0  0  0  0  0  0  0  0  0
  -30.9487   29.0489    9.3625 H   0  0  0  0  0  0  0  0  0  0  0  0
  -29.4125   25.3861    3.9648 H   0  0  0  0  0  0  0  0  0  0  0  0
  -28.6618   24.8037    5.3090 H   0  0  0  0  0  0  0  0  0  0  0  0
  -27.8069   25.6648    4.1967 H   0  0  0  0  0  0  0  0  0  0  0  0
  -26.4939   26.7595    5.1566 H   0  0  0  0  0  0  0  0  0  0  0  0
  -31.8119   29.6738    7.3158 H   0  0  0  0  0  0  0  0  0  0  0  0
  -27.7015   29.8171    9.5310 H   0  0  0  0  0  0  0  0  0  0  0  0
  -24.9390   28.5542    9.4180 H   0  0  0  0  0  0  0  0  0  0  0  0
  -26.2478   30.4108   11.4512 H   0  0  0  0  0  0  0  0  0  0  0  0
  -24.1579   31.3444    9.5103 H   0  0  0  0  0  0  0  0  0  0  0  0
  -27.0509   31.8275    8.8344 H   0  0  0  0  0  0  0  0  0  0  0  0
  -25.4101   33.2790    7.8187 H   0  0  0  0  0  0  0  0  0  0  0  0
  -26.0428   32.1676    6.5573 H   0  0  0  0  0  0  0  0  0  0  0  0
  -26.4854   27.0340   10.3571 H   0  0  0  0  0  0  0  0  0  0  0  0
  -27.0376   28.1676   11.4151 H   0  0  0  0  0  0  0  0  0  0  0  0
  -25.4843   27.6329   11.5184 H   0  0  0  0  0  0  0  0  0  0  0  0
  -24.0239   30.5916   12.0229 H   0  0  0  0  0  0  0  0  0  0  0  0
  -23.7458   32.3402    6.5322 H   0  0  0  0  0  0  0  0  0  0  0  0
  -23.6289   32.2169   11.3425 H   0  0  0  0  0  0  0  0  0  0  0  0
  -24.9411   34.9326   11.4614 H   0  0  0  0  0  0  0  0  0  0  0  0
  -22.2748   34.4283   12.7603 H   0  0  0  0  0  0  0  0  0  0  0  0
  -24.8600   34.4303   14.3657 H   0  0  0  0  0  0  0  0  0  0  0  0
  -23.0574   32.1869   13.3570 H   0  0  0  0  0  0  0  0  0  0  0  0
  -25.1591   31.0009   14.7771 H   0  0  0  0  0  0  0  0  0  0  0  0
  -24.5647   32.3046   15.8606 H   0  0  0  0  0  0  0  0  0  0  0  0
  -23.6299   34.2796    9.5881 H   0  0  0  0  0  0  0  0  0  0  0  0
  -22.3238   34.0044   10.5513 H   0  0  0  0  0  0  0  0  0  0  0  0
  -22.9346   35.5262   10.4079 H   0  0  0  0  0  0  0  0  0  0  0  0
  -23.0756   36.5324   12.2408 H   0  0  0  0  0  0  0  0  0  0  0  0
  -22.9204   35.1162   15.3942 H   0  0  0  0  0  0  0  0  0  0  0  0
  -23.3005   30.3659   16.0107 H   0  0  0  0  0  0  0  0  0  0  0  0
  1  2  1  0  0  0  0
  1  8  1  0  0  0  0
  1 11  1  0  0  0  0
  1 57  1  1  0  0  0
  2  3  1  0  0  0  0
  2  7  1  0  0  0  0
  2 58  1  6  0  0  0
  3  4  1  0  0  0  0
  3  9  1  0  0  0  0
  3 59  1  1  0  0  0
  4  5  1  0  0  0  0
  4 10  1  0  0  0  0
  4 60  1  6  0  0  0
  5  6  1  0  0  0  0
  5 11  1  0  0  0  0
  5 61  1  1  0  0  0
  6 12  1  0  0  0  0
  6 62  1  0  0  0  0
  6 63  1  0  0  0  0
  7 64  1  0  0  0  0
  7 65  1  0  0  0  0
  7 66  1  0  0  0  0
  8 67  1  0  0  0  0
  9 68  1  0  0  0  0
 10 13  1  0  0  0  0
 12 69  1  0  0  0  0
 13 14  1  0  0  0  0
 13 22  1  0  0  0  0
 13 70  1  6  0  0  0
 14 15  1  0  0  0  0
 14 19  1  0  0  0  0
 14 71  1  1  0  0  0
 15 16  1  0  0  0  0
 15 20  1  0  0  0  0
 15 72  1  6  0  0  0
 16 17  1  0  0  0  0
 16 21  1  0  0  0  0
 16 73  1  1  0  0  0
 17 18  1  0  0  0  0
 17 22  1  0  0  0  0
 17 74  1  6  0  0  0
 18 23  1  0  0  0  0
 18 75  1  0  0  0  0
 18 76  1  0  0  0  0
 19 77  1  0  0  0  0
 19 78  1  0  0  0  0
 19 79  1  0  0  0  0
 20 80  1  0  0  0  0
 21 24  1  0  0  0  0
 23 81  1  0  0  0  0
 24 25  1  0  0  0  0
 24 33  1  0  0  0  0
 24 82  1  1  0  0  0
 25 26  1  0  0  0  0
 25 30  1  0  0  0  0
 25 83  1  6  0  0  0
 26 27  1  0  0  0  0
 26 31  1  0  0  0  0
 26 84  1  1  0  0  0
 27 28  1  0  0  0  0
 27 32  1  0  0  0  0
 27 85  1  6  0  0  0
 28 29  1  0  0  0  0
 28 33  1  0  0  0  0
 28 86  1  1  0  0  0
 29 34  1  0  0  0  0
 29 87  1  0  0  0  0
 29 88  1  0  0  0  0
 30 89  1  0  0  0  0
 30 90  1  0  0  0  0
 30 91  1  0  0  0  0
 31 92  1  0  0  0  0
 32 35  1  0  0  0  0
 34 93  1  0  0  0  0
 35 36  1  0  0  0  0
 35 44  1  0  0  0  0
 35 94  1  1  0  0  0
 36 37  1  0  0  0  0
 36 41  1  0  0  0  0
 36 95  1  6  0  0  0
 37 38  1  0  0  0  0
 37 42  1  0  0  0  0
 37 96  1  1  0  0  0
 38 39  1  0  0  0  0
 38 43  1  0  0  0  0
 38 97  1  6  0  0  0
 39 40  1  0  0  0  0
 39 44  1  0  0  0  0
 39 98  1  1  0  0  0
 40 45  1  0  0  0  0
 40 99  1  0  0  0  0
 40100  1  0  0  0  0
 41101  1  0  0  0  0
 41102  1  0  0  0  0
 41103  1  0  0  0  0
 42104  1  0  0  0  0
 43 46  1  0  0  0  0
 45105  1  0  0  0  0
 46 47  1  0  0  0  0
 46 55  1  0  0  0  0
 46106  1  6  0  0  0
 47 48  1  0  0  0  0
 47 52  1  0  0  0  0
 47107  1  6  0  0  0
 48 49  1  0  0  0  0
 48 53  1  0  0  0  0
 48108  1  6  0  0  0
 49 50  1  0  0  0  0
 49 54  1  0  0  0  0
 49109  1  1  0  0  0
 50 51  1  0  0  0  0
 50 55  1  0  0  0  0
 50110  1  6  0  0  0
 51 56  1  0  0  0  0
 51111  1  0  0  0  0
 51112  1  0  0  0  0
 52113  1  0  0  0  0
 52114  1  0  0  0  0
 52115  1  0  0  0  0
 53116  1  0  0  0  0
 54117  1  0  0  0  0
 56118  1  0  0  0  0
M  CHG  5   7   1  19   1  30   1  41   1  52   1
M  END
