3ws8_ligand
 OpenBabel08222323353D

 49 53  0  0  0  0  0  0  0  0999 V2000
   17.7930    7.9410   55.8070 C   0  0  0  0  0  0  0  0  0  0  0  0
   18.9400    8.5620   56.2580 C   0  0  0  0  0  0  0  0  0  0  0  0
   17.7190    6.5580   55.7980 C   0  0  0  0  0  0  0  0  0  0  0  0
   23.9800    6.2340   55.0160 C   0  0  0  0  0  0  0  0  0  0  0  0
   22.6290    6.3550   55.2740 C   0  0  0  0  0  0  0  0  0  0  0  0
   20.0020    7.7970   56.6930 C   0  0  0  0  0  0  0  0  0  0  0  0
   18.7890    5.7840   56.2120 C   0  0  0  0  0  0  0  0  0  0  0  0
   24.4690    4.9810   57.0140 C   0  0  0  0  0  0  0  0  0  0  0  0
   24.8670    5.5740   55.8430 C   0  0  0  0  0  0  0  0  0  0  0  0
   23.1270    5.0900   57.2950 C   0  0  0  0  0  0  0  0  0  0  0  0
   22.2530    5.7480   56.4530 C   0  0  0  0  0  0  0  0  0  0  0  0
   19.9240    6.4180   56.6600 C   0  0  0  0  0  0  0  0  0  0  0  0
   18.5290    3.2650   63.0460 C   0  0  0  0  0  0  0  0  0  0  0  0
   17.6880    2.7140   62.1070 C   0  0  0  0  0  0  0  0  0  0  0  0
   21.2050    4.9630   58.2160 C   0  0  0  0  0  0  0  0  0  0  0  0
   19.5800    3.3700   61.1870 C   0  0  0  0  0  0  0  0  0  0  0  0
   16.6580    1.7800   59.7050 C   0  0  0  0  0  0  0  0  0  0  0  0
   17.8780    2.3240   59.7280 C   0  0  0  0  0  0  0  0  0  0  0  0
   15.9830    1.7320   61.0270 C   0  0  0  0  0  0  0  0  0  0  0  0
   26.2950    5.5080   55.4580 C   0  0  0  0  0  0  0  0  0  0  0  0
   18.3350    3.4520   64.4870 C   0  0  0  0  0  0  0  0  0  0  0  0
   20.1140    4.6550   59.1600 C   0  0  0  0  0  0  0  0  0  0  0  0
   20.5820    3.6160   60.1580 C   0  0  0  0  0  0  0  0  0  0  0  0
   22.4630    4.6120   58.3740 N   0  0  0  0  0  0  0  0  0  0  0  0
   19.6990    3.6740   62.4610 N   0  0  0  0  0  0  0  0  0  0  0  0
   16.4530    2.1650   62.1560 N   0  0  0  0  0  0  0  0  0  0  0  0
   21.0260    5.6550   57.0520 N   0  0  0  0  0  0  0  0  0  0  0  0
   18.3730    2.7800   60.9230 N   0  0  0  0  0  0  0  0  0  0  0  0
   16.9535    8.5332   55.4612 H   0  0  0  0  0  0  0  0  0  0  0  0
   19.0058    9.6439   56.2703 H   0  0  0  0  0  0  0  0  0  0  0  0
   16.8091    6.0744   55.4615 H   0  0  0  0  0  0  0  0  0  0  0  0
   24.3677    6.6844   54.1094 H   0  0  0  0  0  0  0  0  0  0  0  0
   21.9375    6.8724   54.6189 H   0  0  0  0  0  0  0  0  0  0  0  0
   20.9002    8.2790   57.0617 H   0  0  0  0  0  0  0  0  0  0  0  0
   18.7336    4.7018   56.1837 H   0  0  0  0  0  0  0  0  0  0  0  0
   25.1609    4.4646   57.6695 H   0  0  0  0  0  0  0  0  0  0  0  0
   16.1970    1.4033   58.7931 H   0  0  0  0  0  0  0  0  0  0  0  0
   18.4677    2.4038   58.8160 H   0  0  0  0  0  0  0  0  0  0  0  0
   14.9895    1.2867   61.0512 H   0  0  0  0  0  0  0  0  0  0  0  0
   26.4410    6.0291   54.5003 H   0  0  0  0  0  0  0  0  0  0  0  0
   26.5982    4.4559   55.3528 H   0  0  0  0  0  0  0  0  0  0  0  0
   26.9068    5.9901   56.2347 H   0  0  0  0  0  0  0  0  0  0  0  0
   19.2272    3.9295   64.9181 H   0  0  0  0  0  0  0  0  0  0  0  0
   18.1750    2.4745   64.9654 H   0  0  0  0  0  0  0  0  0  0  0  0
   17.4573    4.0924   64.6588 H   0  0  0  0  0  0  0  0  0  0  0  0
   19.2486    4.2647   58.6043 H   0  0  0  0  0  0  0  0  0  0  0  0
   19.8234    5.5712   59.6949 H   0  0  0  0  0  0  0  0  0  0  0  0
   20.7847    2.6753   59.6251 H   0  0  0  0  0  0  0  0  0  0  0  0
   21.5057    3.9723   60.6373 H   0  0  0  0  0  0  0  0  0  0  0  0
  1 29  1  0  0  0  0
  2  1  2  0  0  0  0
  2 30  1  0  0  0  0
  3  1  1  0  0  0  0
  3 31  1  0  0  0  0
  4  9  1  0  0  0  0
  4 32  1  0  0  0  0
  5  4  2  0  0  0  0
  5 33  1  0  0  0  0
  6  2  1  0  0  0  0
  6 34  1  0  0  0  0
  7  3  2  0  0  0  0
  7 35  1  0  0  0  0
  8  9  2  0  0  0  0
  8 36  1  0  0  0  0
  9 20  1  0  0  0  0
 10  8  1  0  0  0  0
 11  5  1  0  0  0  0
 11 10  2  0  0  0  0
 12  6  2  0  0  0  0
 12  7  1  0  0  0  0
 13 21  1  0  0  0  0
 14 13  2  0  0  0  0
 14 26  1  0  0  0  0
 15 24  2  0  0  0  0
 15 27  1  0  0  0  0
 16 25  2  0  0  0  0
 16 28  1  0  0  0  0
 17 19  1  0  0  0  0
 17 37  1  0  0  0  0
 18 17  2  0  0  0  0
 18 38  1  0  0  0  0
 19 39  1  0  0  0  0
 20 40  1  0  0  0  0
 20 41  1  0  0  0  0
 20 42  1  0  0  0  0
 21 43  1  0  0  0  0
 21 44  1  0  0  0  0
 21 45  1  0  0  0  0
 22 15  1  0  0  0  0
 22 23  1  0  0  0  0
 22 46  1  0  0  0  0
 22 47  1  0  0  0  0
 23 16  1  0  0  0  0
 23 48  1  0  0  0  0
 23 49  1  0  0  0  0
 24 10  1  0  0  0  0
 25 13  1  0  0  0  0
 26 19  2  0  0  0  0
 27 11  1  0  0  0  0
 27 12  1  0  0  0  0
 28 14  1  0  0  0  0
 28 18  1  0  0  0  0
M  END
