3wsy_ligand
 OpenBabel08222323353D

184185  0  0  1  0  0  0  0  0999 V2000
   20.8940   19.1780   57.3670 N   0  3  0  0  0  0  0  0  0  0  0  0
   21.6300   17.9900   56.7860 C   0  0  2  0  0  0  0  0  0  0  0  0
   23.1010   18.3730   56.4830 C   0  0  0  0  0  0  0  0  0  0  0  0
   23.3420   19.2610   55.6660 O   0  0  0  0  0  0  0  0  0  0  0  0
   20.8330   17.4100   55.5780 C   0  0  0  0  0  0  0  0  0  0  0  0
   21.2460   16.4280   54.4580 C   0  0  0  0  0  0  0  0  0  0  0  0
   22.0760   15.2610   54.9540 C   0  0  0  0  0  0  0  0  0  0  0  0
   20.0420   15.9370   53.6450 C   0  0  0  0  0  0  0  0  0  0  0  0
   24.0800   17.7220   57.1620 N   0  0  0  0  0  0  0  0  0  0  0  0
   25.4600   18.2220   57.2870 C   0  0  2  0  0  0  0  0  0  0  0  0
   26.1900   18.4210   55.9640 C   0  0  0  0  0  0  0  0  0  0  0  0
   26.1570   17.5430   55.1040 O   0  0  0  0  0  0  0  0  0  0  0  0
   26.1540   17.1320   58.0990 C   0  0  0  0  0  0  0  0  0  0  0  0
   25.3940   15.9070   57.7660 C   0  0  0  0  0  0  0  0  0  0  0  0
   23.9690   16.3580   57.7000 C   0  0  0  0  0  0  0  0  0  0  0  0
   26.8620   19.5650   55.8430 N   0  0  0  0  0  0  0  0  0  0  0  0
   27.4420   20.0540   54.5820 C   0  0  2  0  0  0  0  0  0  0  0  0
   28.7220   19.3520   54.0930 C   0  0  0  0  0  0  0  0  0  0  0  0
   29.0170   19.3940   52.9010 O   0  0  0  0  0  0  0  0  0  0  0  0
   27.6650   21.5880   54.6300 C   0  0  0  0  0  0  0  0  0  0  0  0
   28.6230   22.1000   55.7150 C   0  0  0  0  0  0  0  0  0  0  0  0
   29.3170   23.4170   55.3530 C   0  0  0  0  0  0  0  0  0  0  0  0
   29.0670   24.4490   55.9740 O   0  0  0  0  0  0  0  0  0  0  0  0
   30.1970   23.3820   54.3490 N   0  0  0  0  0  0  0  0  0  0  0  0
   29.4850   18.7310   54.9900 N   0  0  0  0  0  0  0  0  0  0  0  0
   30.7660   18.1260   54.5920 C   0  0  2  0  0  0  0  0  0  0  0  0
   31.0000   16.7050   55.1350 C   0  0  0  0  0  0  0  0  0  0  0  0
   32.1230   16.3250   55.4820 O   0  0  0  0  0  0  0  0  0  0  0  0
   31.9200   19.0500   54.9720 C   0  0  0  0  0  0  0  0  0  0  0  0
   31.8830   19.4520   56.4270 C   0  0  0  0  0  0  0  0  0  0  0  0
   31.3150   18.6970   57.2510 O   0  5  0  0  0  0  0  0  0  0  0  0
   32.4260   20.5320   56.7430 O   0  0  0  0  0  0  0  0  0  0  0  0
   29.9180   15.9390   55.2050 N   0  0  0  0  0  0  0  0  0  0  0  0
   29.9480   14.5470   55.5940 C   0  0  2  0  0  0  0  0  0  0  0  0
   28.9810   13.7980   54.7200 C   0  0  0  0  0  0  0  0  0  0  0  0
   27.9030   14.2930   54.3970 O   0  0  0  0  0  0  0  0  0  0  0  0
   29.4840   14.3830   57.0350 C   0  0  0  0  0  0  0  0  0  0  0  0
   30.2930   15.1680   58.0390 C   0  0  0  0  0  0  0  0  0  0  0  0
   29.5270   15.3150   59.3370 C   0  0  0  0  0  0  0  0  0  0  0  0
   30.4290   15.5660   60.4490 N   0  0  0  0  0  0  0  0  0  0  0  0
   31.1480   14.6230   61.0410 C   0  0  0  0  0  3  0  0  0  0  0  0
   31.0810   13.3610   60.6290 N   0  0  0  0  0  0  0  0  0  0  0  0
   31.9430   14.9440   62.0450 N   0  0  0  0  0  0  0  0  0  0  0  0
   29.3590   12.5850   54.3620 N   0  0  0  0  0  0  0  0  0  0  0  0
   28.4480   11.6960   53.6800 C   0  0  0  0  0  0  0  0  0  0  0  0
   28.3940   12.0400   52.2210 C   0  0  0  0  0  0  0  0  0  0  0  0
   27.3530   12.4820   51.7140 O   0  0  0  0  0  0  0  0  0  0  0  0
   29.5360   11.8460   51.5590 N   0  0  0  0  0  0  0  0  0  0  0  0
   29.6610   12.1020   50.1260 C   0  0  2  0  0  0  0  0  0  0  0  0
   30.0900   10.8760   49.3540 C   0  0  0  0  0  0  0  0  0  0  0  0
   30.9290   10.0840   49.7850 O   0  0  0  0  0  0  0  0  0  0  0  0
   30.5400   13.3160   49.8480 C   0  0  0  0  0  0  0  0  0  0  0  0
   29.8740   14.5980   50.2140 C   0  0  0  0  0  0  0  0  0  0  0  0
   30.0270   15.1360   51.4890 C   0  0  0  0  0  0  0  0  0  0  0  0
   29.0250   15.2330   49.3180 C   0  0  0  0  0  0  0  0  0  0  0  0
   29.3750   16.3120   51.8470 C   0  0  0  0  0  0  0  0  0  0  0  0
   28.3710   16.4110   49.6700 C   0  0  0  0  0  0  0  0  0  0  0  0
   28.5400   16.9460   50.9360 C   0  0  0  0  0  0  0  0  0  0  0  0
   29.4850   10.7570   48.1890 N   0  0  0  0  0  0  0  0  0  0  0  0
   29.3760    9.5010   47.5180 C   0  0  2  0  0  0  0  0  0  0  0  0
   29.9540    9.6210   46.1310 C   0  0  0  0  0  0  0  0  0  0  0  0
   29.7670   10.6440   45.4710 O   0  0  0  0  0  0  0  0  0  0  0  0
   27.8950    9.2010   47.4210 C   0  0  0  0  0  0  0  0  0  0  0  0
   27.3190    7.8020   47.4600 C   0  0  0  0  0  0  0  0  0  0  0  0
   28.1760    6.7810   48.1910 C   0  0  0  0  0  0  0  0  0  0  0  0
   25.9590    7.9700   48.1170 C   0  0  0  0  0  0  0  0  0  0  0  0
   30.6520    8.5820   45.6840 N   0  0  0  0  0  0  0  0  0  0  0  0
   31.2580    8.5800   44.3530 C   0  0  2  0  0  0  0  0  0  0  0  0
   31.1030    7.1930   43.7570 C   0  0  0  0  0  0  0  0  0  0  0  0
   31.3760    6.1920   44.4410 O   0  0  0  0  0  0  0  0  0  0  0  0
   32.7680    8.8910   44.4140 C   0  0  0  0  0  0  0  0  0  0  0  0
   33.3300    9.0360   43.0150 C   0  0  0  0  0  0  0  0  0  0  0  0
   33.0340   10.1420   45.2340 C   0  0  0  0  0  0  0  0  0  0  0  0
   30.6960    7.1170   42.4920 N   0  0  0  0  0  0  0  0  0  0  0  0
   30.6150    5.8150   41.8190 C   0  0  2  0  0  0  0  0  0  0  0  0
   31.8800    5.5730   40.9780 C   0  0  0  0  0  0  0  0  0  0  0  0
   32.4550    6.5370   40.4800 O   0  0  0  0  0  0  0  0  0  0  0  0
   29.3600    5.7540   40.9490 C   0  0  0  0  0  0  0  0  0  0  0  0
   29.1580    4.3620   40.4060 C   0  0  0  0  0  0  0  0  0  0  0  0
   28.1500    6.1450   41.7670 C   0  0  0  0  0  0  0  0  0  0  0  0
   32.3290    4.3270   40.8110 N   0  0  0  0  0  0  0  0  0  0  0  0
   33.5420    4.1130   40.0090 C   0  0  2  0  0  0  0  0  0  0  0  0
   33.4120    3.3930   38.6670 C   0  0  0  0  0  0  0  0  0  0  0  0
   32.8160    2.3250   38.5810 O   0  5  0  0  0  0  0  0  0  0  0  0
   34.6360    3.4940   40.8450 C   0  0  0  0  0  0  0  0  0  0  0  0
   35.6990    4.5040   41.2260 C   0  0  0  0  0  0  0  0  0  0  0  0
   37.0530    3.8480   41.4420 C   0  0  0  0  0  0  0  0  0  0  0  0
   37.4440    2.8890   40.7360 O   0  0  0  0  0  0  0  0  0  0  0  0
   37.7860    4.3610   42.4250 N   0  0  0  0  0  0  0  0  0  0  0  0
   33.9010    3.8680   37.6480 O   0  0  0  0  0  0  0  0  0  0  0  0
   19.9391   18.9197   57.5607 H   0  0  0  0  0  0  0  0  0  0  0  0
   20.9088   19.9386   56.7057 H   0  0  0  0  0  0  0  0  0  0  0  0
   21.3438   19.4669   58.2215 H   0  0  0  0  0  0  0  0  0  0  0  0
   21.6588   17.2035   57.5544 H   0  0  0  0  0  0  0  0  0  0  0  0
   20.4991   18.3043   55.0315 H   0  0  0  0  0  0  0  0  0  0  0  0
   19.9660   16.9219   56.0470 H   0  0  0  0  0  0  0  0  0  0  0  0
   21.8857   16.9974   53.7677 H   0  0  0  0  0  0  0  0  0  0  0  0
   22.3322   14.6072   54.1073 H   0  0  0  0  0  0  0  0  0  0  0  0
   21.4992   14.6901   55.6965 H   0  0  0  0  0  0  0  0  0  0  0  0
   22.9991   15.6385   55.4181 H   0  0  0  0  0  0  0  0  0  0  0  0
   19.4572   16.8014   53.2974 H   0  0  0  0  0  0  0  0  0  0  0  0
   19.4093   15.2966   54.2771 H   0  0  0  0  0  0  0  0  0  0  0  0
   20.3958   15.3608   52.7773 H   0  0  0  0  0  0  0  0  0  0  0  0
   25.4613   19.1767   57.8333 H   0  0  0  0  0  0  0  0  0  0  0  0
   26.0962   17.3485   59.1759 H   0  0  0  0  0  0  0  0  0  0  0  0
   27.2082   17.0324   57.8011 H   0  0  0  0  0  0  0  0  0  0  0  0
   25.5246   15.1437   58.5472 H   0  0  0  0  0  0  0  0  0  0  0  0
   25.7182   15.4993   56.7972 H   0  0  0  0  0  0  0  0  0  0  0  0
   23.3811   15.7146   57.0289 H   0  0  0  0  0  0  0  0  0  0  0  0
   23.5090   16.3630   58.6992 H   0  0  0  0  0  0  0  0  0  0  0  0
   26.9798   20.1274   56.6614 H   0  0  0  0  0  0  0  0  0  0  0  0
   26.6809   19.8636   53.8110 H   0  0  0  0  0  0  0  0  0  0  0  0
   26.6871   22.0644   54.7938 H   0  0  0  0  0  0  0  0  0  0  0  0
   28.0659   21.8996   53.6542 H   0  0  0  0  0  0  0  0  0  0  0  0
   29.3957   21.3357   55.8847 H   0  0  0  0  0  0  0  0  0  0  0  0
   28.0490   22.2531   56.6408 H   0  0  0  0  0  0  0  0  0  0  0  0
   30.6762   24.2158   54.0749 H   0  0  0  0  0  0  0  0  0  0  0  0
   30.3767   22.5220   53.8714 H   0  0  0  0  0  0  0  0  0  0  0  0
   29.1850   18.6752   55.9423 H   0  0  0  0  0  0  0  0  0  0  0  0
   30.7527   18.0458   53.4950 H   0  0  0  0  0  0  0  0  0  0  0  0
   31.8635   19.9579   54.3536 H   0  0  0  0  0  0  0  0  0  0  0  0
   32.8687   18.5297   54.7737 H   0  0  0  0  0  0  0  0  0  0  0  0
   29.0342   16.3471   54.9762 H   0  0  0  0  0  0  0  0  0  0  0  0
   30.9657   14.1462   55.4771 H   0  0  0  0  0  0  0  0  0  0  0  0
   29.5477   13.3170   57.2987 H   0  0  0  0  0  0  0  0  0  0  0  0
   28.4373   14.7150   57.1003 H   0  0  0  0  0  0  0  0  0  0  0  0
   30.5076   16.1664   57.6301 H   0  0  0  0  0  0  0  0  0  0  0  0
   31.2384   14.6406   58.2341 H   0  0  0  0  0  0  0  0  0  0  0  0
   28.9664   14.3886   59.5307 H   0  0  0  0  0  0  0  0  0  0  0  0
   28.8245   16.1566   59.2467 H   0  0  0  0  0  0  0  0  0  0  0  0
   30.5142   16.5318   60.7967 H   0  0  0  0  0  0  0  0  0  0  0  0
   31.6441   12.6361   61.0963 H   0  0  0  0  0  0  0  0  0  0  0  0
   30.4660   13.1080   59.8425 H   0  0  0  0  0  0  0  0  0  0  0  0
   31.9974   15.9209   62.3668 H   0  0  0  0  0  0  0  0  0  0  0  0
   32.5088   14.2175   62.5064 H   0  0  0  0  0  0  0  0  0  0  0  0
   30.2885   12.2776   54.5658 H   0  0  0  0  0  0  0  0  0  0  0  0
   27.4434   11.7986   54.1161 H   0  0  0  0  0  0  0  0  0  0  0  0
   28.7945   10.6586   53.7974 H   0  0  0  0  0  0  0  0  0  0  0  0
   30.3344   11.5137   52.0612 H   0  0  0  0  0  0  0  0  0  0  0  0
   28.6539   12.3571   49.7645 H   0  0  0  0  0  0  0  0  0  0  0  0
   30.7823   13.3380   48.7753 H   0  0  0  0  0  0  0  0  0  0  0  0
   31.4676   13.2211   50.4316 H   0  0  0  0  0  0  0  0  0  0  0  0
   30.6609   14.6333   52.2105 H   0  0  0  0  0  0  0  0  0  0  0  0
   28.8693   14.8072   48.3334 H   0  0  0  0  0  0  0  0  0  0  0  0
   29.5186   16.7328   52.8356 H   0  0  0  0  0  0  0  0  0  0  0  0
   27.7292   16.9095   48.9525 H   0  0  0  0  0  0  0  0  0  0  0  0
   28.0223   17.8566   51.2151 H   0  0  0  0  0  0  0  0  0  0  0  0
   29.0904   11.5707   47.7621 H   0  0  0  0  0  0  0  0  0  0  0  0
   29.8983    8.7121   48.0791 H   0  0  0  0  0  0  0  0  0  0  0  0
   27.5627    9.6357   46.4667 H   0  0  0  0  0  0  0  0  0  0  0  0
   27.4239    9.7427   48.2545 H   0  0  0  0  0  0  0  0  0  0  0  0
   27.1862    7.4433   46.4287 H   0  0  0  0  0  0  0  0  0  0  0  0
   27.6785    5.8002   48.1668 H   0  0  0  0  0  0  0  0  0  0  0  0
   28.3123    7.0973   49.2357 H   0  0  0  0  0  0  0  0  0  0  0  0
   29.1572    6.7066   47.6994 H   0  0  0  0  0  0  0  0  0  0  0  0
   25.3720    8.7147   47.5595 H   0  0  0  0  0  0  0  0  0  0  0  0
   26.0925    8.3103   49.1545 H   0  0  0  0  0  0  0  0  0  0  0  0
   25.4281    7.0066   48.1125 H   0  0  0  0  0  0  0  0  0  0  0  0
   30.7656    7.7816   46.2726 H   0  0  0  0  0  0  0  0  0  0  0  0
   30.7531    9.3249   43.7204 H   0  0  0  0  0  0  0  0  0  0  0  0
   33.2743    8.0462   44.9039 H   0  0  0  0  0  0  0  0  0  0  0  0
   34.4059    9.2573   43.0732 H   0  0  0  0  0  0  0  0  0  0  0  0
   32.8143    9.8574   42.4960 H   0  0  0  0  0  0  0  0  0  0  0  0
   33.1780    8.0987   42.4598 H   0  0  0  0  0  0  0  0  0  0  0  0
   32.6177   10.0137   46.2441 H   0  0  0  0  0  0  0  0  0  0  0  0
   32.5582   11.0068   44.7485 H   0  0  0  0  0  0  0  0  0  0  0  0
   34.1187   10.3113   45.3033 H   0  0  0  0  0  0  0  0  0  0  0  0
   30.4446    7.9496   41.9985 H   0  0  0  0  0  0  0  0  0  0  0  0
   30.5486    5.0269   42.5835 H   0  0  0  0  0  0  0  0  0  0  0  0
   29.4727    6.4555   40.1092 H   0  0  0  0  0  0  0  0  0  0  0  0
   28.2513    4.3392   39.7836 H   0  0  0  0  0  0  0  0  0  0  0  0
   29.0471    3.6550   41.2414 H   0  0  0  0  0  0  0  0  0  0  0  0
   30.0281    4.0762   39.7968 H   0  0  0  0  0  0  0  0  0  0  0  0
   28.2902    7.1602   42.1668 H   0  0  0  0  0  0  0  0  0  0  0  0
   28.0259    5.4370   42.5996 H   0  0  0  0  0  0  0  0  0  0  0  0
   27.2537    6.1224   41.1297 H   0  0  0  0  0  0  0  0  0  0  0  0
   31.8488    3.5532   41.2241 H   0  0  0  0  0  0  0  0  0  0  0  0
   33.8878    5.1248   39.7507 H   0  0  0  0  0  0  0  0  0  0  0  0
   35.1066    2.6829   40.2700 H   0  0  0  0  0  0  0  0  0  0  0  0
   34.1916    3.0826   41.7633 H   0  0  0  0  0  0  0  0  0  0  0  0
   35.3950    5.0065   42.1561 H   0  0  0  0  0  0  0  0  0  0  0  0
   35.7885    5.2472   40.4200 H   0  0  0  0  0  0  0  0  0  0  0  0
   38.6888    3.9809   42.6262 H   0  0  0  0  0  0  0  0  0  0  0  0
   37.4347    5.1270   42.9633 H   0  0  0  0  0  0  0  0  0  0  0  0
  1  2  1  0  0  0  0
  1 91  1  0  0  0  0
  1 92  1  0  0  0  0
  1 93  1  0  0  0  0
  2  3  1  0  0  0  0
  2  5  1  0  0  0  0
  2 94  1  1  0  0  0
  3  4  2  0  0  0  0
  3  9  1  0  0  0  0
  5  6  1  0  0  0  0
  5 95  1  0  0  0  0
  5 96  1  0  0  0  0
  6  7  1  0  0  0  0
  6  8  1  0  0  0  0
  6 97  1  0  0  0  0
  7 98  1  0  0  0  0
  7 99  1  0  0  0  0
  7100  1  0  0  0  0
  8101  1  0  0  0  0
  8102  1  0  0  0  0
  8103  1  0  0  0  0
  9 10  1  0  0  0  0
  9 15  1  0  0  0  0
 10 11  1  0  0  0  0
 10 13  1  0  0  0  0
 10104  1  1  0  0  0
 11 12  2  0  0  0  0
 11 16  1  0  0  0  0
 13 14  1  0  0  0  0
 13105  1  0  0  0  0
 13106  1  0  0  0  0
 14 15  1  0  0  0  0
 14107  1  0  0  0  0
 14108  1  0  0  0  0
 15109  1  0  0  0  0
 15110  1  0  0  0  0
 16 17  1  0  0  0  0
 16111  1  0  0  0  0
 17 18  1  0  0  0  0
 17 20  1  0  0  0  0
 17112  1  6  0  0  0
 18 19  2  0  0  0  0
 18 25  1  0  0  0  0
 20 21  1  0  0  0  0
 20113  1  0  0  0  0
 20114  1  0  0  0  0
 21 22  1  0  0  0  0
 21115  1  0  0  0  0
 21116  1  0  0  0  0
 22 23  2  0  0  0  0
 22 24  1  0  0  0  0
 24117  1  0  0  0  0
 24118  1  0  0  0  0
 25 26  1  0  0  0  0
 25119  1  0  0  0  0
 26 27  1  0  0  0  0
 26 29  1  0  0  0  0
 26120  1  6  0  0  0
 27 28  2  0  0  0  0
 27 33  1  0  0  0  0
 29 30  1  0  0  0  0
 29121  1  0  0  0  0
 29122  1  0  0  0  0
 30 31  1  0  0  0  0
 30 32  2  0  0  0  0
 33 34  1  0  0  0  0
 33123  1  0  0  0  0
 34 35  1  0  0  0  0
 34 37  1  0  0  0  0
 34124  1  6  0  0  0
 35 36  2  0  0  0  0
 35 44  1  0  0  0  0
 37 38  1  0  0  0  0
 37125  1  0  0  0  0
 37126  1  0  0  0  0
 38 39  1  0  0  0  0
 38127  1  0  0  0  0
 38128  1  0  0  0  0
 39 40  1  0  0  0  0
 39129  1  0  0  0  0
 39130  1  0  0  0  0
 40 41  1  0  0  0  0
 40131  1  0  0  0  0
 41 42  1  0  0  0  0
 41 43  1  0  0  0  0
 42132  1  0  0  0  0
 42133  1  0  0  0  0
 43134  1  0  0  0  0
 43135  1  0  0  0  0
 44 45  1  0  0  0  0
 44136  1  0  0  0  0
 45 46  1  0  0  0  0
 45137  1  0  0  0  0
 45138  1  0  0  0  0
 46 47  2  0  0  0  0
 46 48  1  0  0  0  0
 48 49  1  0  0  0  0
 48139  1  0  0  0  0
 49 50  1  0  0  0  0
 49 52  1  0  0  0  0
 49140  1  6  0  0  0
 50 51  2  0  0  0  0
 50 59  1  0  0  0  0
 52 53  1  0  0  0  0
 52141  1  0  0  0  0
 52142  1  0  0  0  0
 53 54  2  0  0  0  0
 53 55  1  0  0  0  0
 54 56  1  0  0  0  0
 54143  1  0  0  0  0
 55 57  2  0  0  0  0
 55144  1  0  0  0  0
 56 58  2  0  0  0  0
 56145  1  0  0  0  0
 57 58  1  0  0  0  0
 57146  1  0  0  0  0
 58147  1  0  0  0  0
 59 60  1  0  0  0  0
 59148  1  0  0  0  0
 60 61  1  0  0  0  0
 60 63  1  0  0  0  0
 60149  1  1  0  0  0
 61 62  2  0  0  0  0
 61 67  1  0  0  0  0
 63 64  1  0  0  0  0
 63150  1  0  0  0  0
 63151  1  0  0  0  0
 64 65  1  0  0  0  0
 64 66  1  0  0  0  0
 64152  1  0  0  0  0
 65153  1  0  0  0  0
 65154  1  0  0  0  0
 65155  1  0  0  0  0
 66156  1  0  0  0  0
 66157  1  0  0  0  0
 66158  1  0  0  0  0
 67 68  1  0  0  0  0
 67159  1  0  0  0  0
 68 69  1  0  0  0  0
 68 71  1  0  0  0  0
 68160  1  6  0  0  0
 69 70  2  0  0  0  0
 69 74  1  0  0  0  0
 71 72  1  0  0  0  0
 71 73  1  0  0  0  0
 71161  1  0  0  0  0
 72162  1  0  0  0  0
 72163  1  0  0  0  0
 72164  1  0  0  0  0
 73165  1  0  0  0  0
 73166  1  0  0  0  0
 73167  1  0  0  0  0
 74 75  1  0  0  0  0
 74168  1  0  0  0  0
 75 76  1  0  0  0  0
 75 78  1  0  0  0  0
 75169  1  1  0  0  0
 76 77  2  0  0  0  0
 76 81  1  0  0  0  0
 78 79  1  0  0  0  0
 78 80  1  0  0  0  0
 78170  1  0  0  0  0
 79171  1  0  0  0  0
 79172  1  0  0  0  0
 79173  1  0  0  0  0
 80174  1  0  0  0  0
 80175  1  0  0  0  0
 80176  1  0  0  0  0
 81 82  1  0  0  0  0
 81177  1  0  0  0  0
 82 83  1  0  0  0  0
 82 85  1  0  0  0  0
 82178  1  6  0  0  0
 83 84  1  0  0  0  0
 83 90  2  0  0  0  0
 85 86  1  0  0  0  0
 85179  1  0  0  0  0
 85180  1  0  0  0  0
 86 87  1  0  0  0  0
 86181  1  0  0  0  0
 86182  1  0  0  0  0
 87 88  2  0  0  0  0
 87 89  1  0  0  0  0
 89183  1  0  0  0  0
 89184  1  0  0  0  0
M  CHG  3   1   1  31  -1  84  -1
M  END
