3wt5_ligand
 OpenBabel08222323353D

 86 88  0  0  1  0  0  0  0  0999 V2000
   12.5990    8.9660   55.8230 O   0  0  0  0  0  0  0  0  0  0  0  0
   11.4810    8.8990   54.9070 C   0  0  1  0  0  0  0  0  0  0  0  0
   11.6460    7.6600   54.0680 C   0  0  0  0  0  0  0  0  0  0  0  0
   11.8500    7.8200   52.8100 C   0  0  0  0  0  0  0  0  0  0  0  0
   11.6650    6.3650   54.7650 C   0  0  2  0  0  0  0  0  0  0  0  0
   11.7730    5.2790   53.8150 O   0  0  0  0  0  0  0  0  0  0  0  0
   10.4430    6.2070   55.6170 C   0  0  0  0  0  0  0  0  0  0  0  0
   10.1520    8.7940   55.6310 C   0  0  0  0  0  0  0  0  0  0  0  0
   10.0010    7.4680   56.3240 C   0  0  0  0  0  0  0  0  0  0  0  0
    9.3830    7.4390   57.5040 C   0  0  0  0  0  0  0  0  0  0  0  0
    9.1280    6.2020   58.2670 C   0  0  0  0  0  0  0  0  0  0  0  0
    8.1220    6.1320   59.1570 C   0  0  0  0  0  0  0  0  0  0  0  0
    7.1920    7.2760   59.4780 C   0  0  0  0  0  0  0  0  0  0  0  0
    5.6880    6.8080   59.4490 C   0  0  0  0  0  0  0  0  0  0  0  0
    5.4370    5.4590   60.1050 C   0  0  0  0  0  0  0  0  0  0  0  0
    7.8220    4.8690   59.8760 C   0  0  1  0  0  0  0  0  0  0  0  0
    6.4030    4.4170   59.5930 C   0  0  2  0  0  0  0  0  0  0  0  0
    6.1560    4.2450   58.1170 C   0  0  0  0  0  0  0  0  0  0  0  0
    8.6790    3.6530   59.6940 C   0  0  0  0  0  0  0  0  0  0  0  0
    7.7640    2.5230   60.2120 C   0  0  0  0  0  0  0  0  0  0  0  0
    6.3660    3.0580   60.3370 C   0  0  2  0  0  0  0  0  0  0  0  0
    5.2760    2.0690   59.8460 C   0  0  2  0  0  0  0  0  0  0  0  0
    3.8790    2.7150   59.7600 C   0  0  0  0  0  0  0  0  0  0  0  0
    5.2210    0.8170   60.6990 C   0  0  2  0  0  0  0  0  0  0  0  0
    4.0930   -0.1400   60.2260 C   0  0  0  0  0  0  0  0  0  0  0  0
    4.2370   -0.5060   58.7560 C   0  0  0  0  0  0  0  0  0  0  0  0
    5.3480   -1.4810   58.6000 C   0  0  0  0  0  0  0  0  0  0  0  0
    5.2090   -2.3170   57.3290 C   0  0  0  0  0  0  0  0  0  0  0  0
    4.9750    1.1190   62.1790 C   0  0  0  0  0  0  0  0  0  0  0  0
    4.9120   -0.1790   62.9970 C   0  0  0  0  0  0  0  0  0  0  0  0
    5.0380   -0.0220   64.5350 C   0  0  0  0  0  0  0  0  0  0  0  0
    6.4350    0.4150   64.8990 C   0  0  0  0  0  0  0  0  0  0  0  0
    3.9730    0.9520   65.0550 C   0  0  0  0  0  0  0  0  0  0  0  0
    4.8430   -1.3130   65.1350 O   0  0  0  0  0  0  0  0  0  0  0  0
   13.4095    9.0075   55.3292 H   0  0  0  0  0  0  0  0  0  0  0  0
   11.4788    9.7944   54.2680 H   0  0  0  0  0  0  0  0  0  0  0  0
   11.9752    6.9523   52.1640 H   0  0  0  0  0  0  0  0  0  0  0  0
   11.8978    8.8234   52.3894 H   0  0  0  0  0  0  0  0  0  0  0  0
   12.5478    6.3385   55.4207 H   0  0  0  0  0  0  0  0  0  0  0  0
   11.0291    5.3011   53.2245 H   0  0  0  0  0  0  0  0  0  0  0  0
   10.6527    5.4420   56.3791 H   0  0  0  0  0  0  0  0  0  0  0  0
    9.6179    5.8673   54.9738 H   0  0  0  0  0  0  0  0  0  0  0  0
    9.3377    8.9095   54.9006 H   0  0  0  0  0  0  0  0  0  0  0  0
   10.0894    9.5971   56.3800 H   0  0  0  0  0  0  0  0  0  0  0  0
    9.0465    8.3830   57.9301 H   0  0  0  0  0  0  0  0  0  0  0  0
    9.7640    5.3326   58.1071 H   0  0  0  0  0  0  0  0  0  0  0  0
    7.3344    8.0744   58.7349 H   0  0  0  0  0  0  0  0  0  0  0  0
    7.4291    7.6616   60.4805 H   0  0  0  0  0  0  0  0  0  0  0  0
    5.3676    6.7446   58.3986 H   0  0  0  0  0  0  0  0  0  0  0  0
    5.0826    7.5629   59.9722 H   0  0  0  0  0  0  0  0  0  0  0  0
    4.4093    5.1366   59.8817 H   0  0  0  0  0  0  0  0  0  0  0  0
    5.5613    5.5601   61.1933 H   0  0  0  0  0  0  0  0  0  0  0  0
    7.8897    5.1272   60.9431 H   0  0  0  0  0  0  0  0  0  0  0  0
    5.1185    3.9174   57.9546 H   0  0  0  0  0  0  0  0  0  0  0  0
    6.8464    3.4887   57.7154 H   0  0  0  0  0  0  0  0  0  0  0  0
    6.3226    5.2032   57.6032 H   0  0  0  0  0  0  0  0  0  0  0  0
    9.6011    3.7231   60.2897 H   0  0  0  0  0  0  0  0  0  0  0  0
    8.9369    3.5025   58.6353 H   0  0  0  0  0  0  0  0  0  0  0  0
    8.1188    2.1801   61.1951 H   0  0  0  0  0  0  0  0  0  0  0  0
    7.7768    1.6816   59.5036 H   0  0  0  0  0  0  0  0  0  0  0  0
    6.1578    3.2514   61.3997 H   0  0  0  0  0  0  0  0  0  0  0  0
    5.5572    1.7621   58.8278 H   0  0  0  0  0  0  0  0  0  0  0  0
    3.1512    1.9691   59.4079 H   0  0  0  0  0  0  0  0  0  0  0  0
    3.9083    3.5596   59.0559 H   0  0  0  0  0  0  0  0  0  0  0  0
    3.5806    3.0772   60.7549 H   0  0  0  0  0  0  0  0  0  0  0  0
    6.1881    0.3017   60.6028 H   0  0  0  0  0  0  0  0  0  0  0  0
    3.1217    0.3541   60.3757 H   0  0  0  0  0  0  0  0  0  0  0  0
    4.1326   -1.0605   60.8269 H   0  0  0  0  0  0  0  0  0  0  0  0
    4.4578    0.3994   58.1716 H   0  0  0  0  0  0  0  0  0  0  0  0
    3.3000   -0.9557   58.3956 H   0  0  0  0  0  0  0  0  0  0  0  0
    5.3517   -2.1556   59.4688 H   0  0  0  0  0  0  0  0  0  0  0  0
    6.2993   -0.9303   58.5593 H   0  0  0  0  0  0  0  0  0  0  0  0
    6.0516   -3.0206   57.2590 H   0  0  0  0  0  0  0  0  0  0  0  0
    5.2115   -1.6536   56.4516 H   0  0  0  0  0  0  0  0  0  0  0  0
    4.2639   -2.8789   57.3612 H   0  0  0  0  0  0  0  0  0  0  0  0
    4.0217    1.6578   62.2836 H   0  0  0  0  0  0  0  0  0  0  0  0
    5.7944    1.7461   62.5602 H   0  0  0  0  0  0  0  0  0  0  0  0
    5.7306   -0.8306   62.6574 H   0  0  0  0  0  0  0  0  0  0  0  0
    3.9468   -0.6627   62.7864 H   0  0  0  0  0  0  0  0  0  0  0  0
    6.5126    0.5230   65.9909 H   0  0  0  0  0  0  0  0  0  0  0  0
    6.6542    1.3800   64.4187 H   0  0  0  0  0  0  0  0  0  0  0  0
    7.1570   -0.3393   64.5530 H   0  0  0  0  0  0  0  0  0  0  0  0
    2.9746    0.5921   64.7658 H   0  0  0  0  0  0  0  0  0  0  0  0
    4.1437    1.9481   64.6206 H   0  0  0  0  0  0  0  0  0  0  0  0
    4.0370    1.0142   66.1514 H   0  0  0  0  0  0  0  0  0  0  0  0
    3.9704   -1.6278   64.9298 H   0  0  0  0  0  0  0  0  0  0  0  0
  1  2  1  0  0  0  0
  1 35  1  0  0  0  0
  2  3  1  0  0  0  0
  2  8  1  0  0  0  0
  2 36  1  6  0  0  0
  3  4  2  0  0  0  0
  3  5  1  0  0  0  0
  4 37  1  0  0  0  0
  4 38  1  0  0  0  0
  5  6  1  0  0  0  0
  5  7  1  0  0  0  0
  5 39  1  1  0  0  0
  6 40  1  0  0  0  0
  7  9  1  0  0  0  0
  7 41  1  0  0  0  0
  7 42  1  0  0  0  0
  8  9  1  0  0  0  0
  8 43  1  0  0  0  0
  8 44  1  0  0  0  0
  9 10  2  0  0  0  0
 10 11  1  0  0  0  0
 10 45  1  0  0  0  0
 11 12  2  0  0  0  0
 11 46  1  0  0  0  0
 12 13  1  0  0  0  0
 12 16  1  0  0  0  0
 13 14  1  0  0  0  0
 13 47  1  0  0  0  0
 13 48  1  0  0  0  0
 14 15  1  0  0  0  0
 14 49  1  0  0  0  0
 14 50  1  0  0  0  0
 15 17  1  0  0  0  0
 15 51  1  0  0  0  0
 15 52  1  0  0  0  0
 16 17  1  0  0  0  0
 16 19  1  0  0  0  0
 16 53  1  1  0  0  0
 17 18  1  6  0  0  0
 17 21  1  0  0  0  0
 18 54  1  0  0  0  0
 18 55  1  0  0  0  0
 18 56  1  0  0  0  0
 19 20  1  0  0  0  0
 19 57  1  0  0  0  0
 19 58  1  0  0  0  0
 20 21  1  0  0  0  0
 20 59  1  0  0  0  0
 20 60  1  0  0  0  0
 21 22  1  0  0  0  0
 21 61  1  1  0  0  0
 22 23  1  0  0  0  0
 22 24  1  0  0  0  0
 22 62  1  6  0  0  0
 23 63  1  0  0  0  0
 23 64  1  0  0  0  0
 23 65  1  0  0  0  0
 24 25  1  0  0  0  0
 24 29  1  0  0  0  0
 24 66  1  6  0  0  0
 25 26  1  0  0  0  0
 25 67  1  0  0  0  0
 25 68  1  0  0  0  0
 26 27  1  0  0  0  0
 26 69  1  0  0  0  0
 26 70  1  0  0  0  0
 27 28  1  0  0  0  0
 27 71  1  0  0  0  0
 27 72  1  0  0  0  0
 28 73  1  0  0  0  0
 28 74  1  0  0  0  0
 28 75  1  0  0  0  0
 29 30  1  0  0  0  0
 29 76  1  0  0  0  0
 29 77  1  0  0  0  0
 30 31  1  0  0  0  0
 30 78  1  0  0  0  0
 30 79  1  0  0  0  0
 31 32  1  0  0  0  0
 31 33  1  0  0  0  0
 31 34  1  0  0  0  0
 32 80  1  0  0  0  0
 32 81  1  0  0  0  0
 32 82  1  0  0  0  0
 33 83  1  0  0  0  0
 33 84  1  0  0  0  0
 33 85  1  0  0  0  0
 34 86  1  0  0  0  0
M  END
