3wti_ligand
 OpenBabel08222323353D

 24 24  0  0  1  0  0  0  0  0999 V2000
   30.4600  -27.5990  -28.5690 N   0  0  0  0  0  0  0  0  0  0  0  0
   29.3880  -28.2320  -28.0780 C   0  0  1  0  0  3  0  0  0  0  0  0
   29.0630  -28.0650  -26.7980 N   0  0  0  0  0  0  0  0  0  0  0  0
   28.7230  -28.9470  -29.0150 N   0  0  0  0  0  0  0  0  0  0  0  0
   30.8810  -27.7490  -29.9450 C   0  0  0  0  0  0  0  0  0  0  0  0
   30.3010  -26.6480  -30.7280 C   0  0  0  0  0  0  0  0  0  0  0  0
   29.8870  -27.3680  -25.8280 C   0  0  0  0  0  0  0  0  0  0  0  0
   29.8450  -26.7990  -32.3830 S   0  0  0  0  0  0  0  0  0  0  0  0
   29.3610  -25.1520  -32.3540 C   0  0  0  0  0  0  0  0  0  0  0  0
   29.5100  -24.5240  -31.2460 N   0  0  0  0  0  0  0  0  0  0  0  0
   30.0460  -25.3880  -30.3190 C   0  0  0  0  0  0  0  0  0  0  0  0
   28.7040  -24.4230  -33.7580 Cl  0  0  0  0  0  0  0  0  0  0  0  0
   27.6340  -29.6420  -28.6770 N   0  0  0  0  0  0  0  0  0  0  0  0
   27.0730  -30.2550  -29.6040 O   0  0  0  0  0  0  0  0  0  0  0  0
   27.2040  -29.7060  -27.5100 O   0  0  0  0  0  0  0  0  0  0  0  0
   31.0036  -26.9844  -27.9464 H   0  0  0  0  0  0  0  0  0  0  0  0
   28.1669  -28.4566  -26.4745 H   0  0  0  0  0  0  0  0  0  0  0  0
   29.0570  -28.9551  -29.9893 H   0  0  0  0  0  0  0  0  0  0  0  0
   30.5267  -28.7128  -30.3394 H   0  0  0  0  0  0  0  0  0  0  0  0
   31.9787  -27.7097  -30.0045 H   0  0  0  0  0  0  0  0  0  0  0  0
   29.3858  -27.3749  -24.8488 H   0  0  0  0  0  0  0  0  0  0  0  0
   30.0386  -26.3287  -26.1550 H   0  0  0  0  0  0  0  0  0  0  0  0
   30.8612  -27.8720  -25.7448 H   0  0  0  0  0  0  0  0  0  0  0  0
   30.2553  -25.0685  -29.2992 H   0  0  0  0  0  0  0  0  0  0  0  0
  1  5  1  0  0  0  0
  1 16  1  0  0  0  0
  2  1  1  6  0  0  0
  2  3  1  0  0  0  0
  2  4  1  0  0  0  0
  3  7  1  0  0  0  0
  3 17  1  0  0  0  0
  4 13  1  0  0  0  0
  4 18  1  0  0  0  0
  5  6  1  0  0  0  0
  5 19  1  0  0  0  0
  5 20  1  0  0  0  0
  6  8  1  0  0  0  0
  6 11  2  0  0  0  0
  7 21  1  0  0  0  0
  7 22  1  0  0  0  0
  7 23  1  0  0  0  0
  8  9  1  0  0  0  0
  9 10  2  0  0  0  0
  9 12  1  0  0  0  0
 10 11  1  0  0  0  0
 11 24  1  0  0  0  0
 13 14  2  0  0  0  0
 13 15  2  0  0  0  0
M  END
