3wuu_ligand
 OpenBabel08222323353D

202206  0  0  1  0  0  0  0  0999 V2000
  -26.3780   41.7050  -35.0580 N   0  3  0  0  0  0  0  0  0  0  0  0
  -25.0410   41.9350  -34.5200 C   0  0  2  0  0  0  0  0  0  0  0  0
  -24.2920   40.6160  -34.3540 C   0  0  0  0  0  0  0  0  0  0  0  0
  -24.1150   40.1320  -33.2350 O   0  0  0  0  0  0  0  0  0  0  0  0
  -25.1210   42.6570  -33.1770 C   0  0  0  0  0  0  0  0  0  0  0  0
  -23.7880   43.2400  -32.7510 C   0  0  0  0  0  0  0  0  0  0  0  0
  -22.7620   42.5330  -32.8470 O   0  5  0  0  0  0  0  0  0  0  0  0
  -23.7630   44.4150  -32.3310 O   0  0  0  0  0  0  0  0  0  0  0  0
  -23.8250   40.0580  -35.4650 N   0  0  0  0  0  0  0  0  0  0  0  0
  -23.3410   38.6850  -35.4760 C   0  0  2  0  0  0  0  0  0  0  0  0
  -22.0120   38.5200  -36.2020 C   0  0  0  0  0  0  0  0  0  0  0  0
  -21.9560   38.4600  -37.4320 O   0  0  0  0  0  0  0  0  0  0  0  0
  -24.3970   37.7580  -36.0880 C   0  0  0  0  0  0  0  0  0  0  0  0
  -24.1370   36.2500  -36.0430 C   0  0  0  0  0  0  0  0  0  0  0  0
  -23.5660   35.8840  -34.6950 C   0  0  0  0  0  0  0  0  0  0  0  0
  -25.4020   35.4700  -36.3860 C   0  0  0  0  0  0  0  0  0  0  0  0
  -20.9470   38.4560  -35.4130 N   0  0  0  0  0  0  0  0  0  0  0  0
  -19.6110   38.1320  -35.8870 C   0  0  2  0  0  0  0  0  0  0  0  0
  -18.8620   37.8260  -34.6020 C   0  0  0  0  0  0  0  0  0  0  0  0
  -19.1410   38.4260  -33.5650 O   0  0  0  0  0  0  0  0  0  0  0  0
  -18.9920   39.2980  -36.6150 C   0  0  0  0  0  0  0  0  0  0  0  0
  -17.9250   36.8880  -34.6540 N   0  0  0  0  0  0  0  0  0  0  0  0
  -17.3690   36.3210  -33.4300 C   0  0  2  0  0  0  0  0  0  0  0  0
  -16.0110   36.9080  -33.0450 C   0  0  0  0  0  0  0  0  0  0  0  0
  -15.1960   37.2220  -33.9110 O   0  0  0  0  0  0  0  0  0  0  0  0
  -17.2620   34.7980  -33.5400 C   0  0  0  0  0  0  0  0  0  0  0  0
  -17.0460   34.1880  -32.1830 C   0  0  0  0  0  0  0  0  0  0  0  0
  -18.5250   34.2240  -34.1490 C   0  0  0  0  0  0  0  0  0  0  0  0
  -15.7800   37.0480  -31.7390 N   0  0  0  0  0  0  0  0  0  0  0  0
  -14.4940   37.4790  -31.2150 C   0  0  0  0  0  0  0  0  0  0  0  0
  -13.8910   36.4110  -30.3200 C   0  0  0  0  0  0  0  0  0  0  0  0
  -14.5080   35.3700  -30.0950 O   0  0  0  0  0  0  0  0  0  0  0  0
  -12.6790   36.6580  -29.8040 N   0  0  0  0  0  0  0  0  0  0  0  0
  -11.9750   35.7080  -28.9340 C   0  0  2  0  0  0  0  0  0  0  0  0
  -12.5990   35.6510  -27.5390 C   0  0  0  0  0  0  0  0  0  0  0  0
  -13.2710   36.6030  -27.1380 O   0  0  0  0  0  0  0  0  0  0  0  0
  -10.5640   36.2930  -28.8620 C   0  0  0  0  0  0  0  0  0  0  0  0
  -10.7610   37.7560  -29.0650 C   0  0  0  0  0  0  0  0  0  0  0  0
  -11.9000   37.8870  -30.0300 C   0  0  0  0  0  0  0  0  0  0  0  0
  -12.3890   34.5400  -26.8110 N   0  0  0  0  0  0  0  0  0  0  0  0
  -12.9130   34.3780  -25.4490 C   0  0  2  0  0  0  0  0  0  0  0  0
  -12.3770   35.4290  -24.4790 C   0  0  0  0  0  0  0  0  0  0  0  0
  -13.0960   35.8390  -23.5690 O   0  0  0  0  0  0  0  0  0  0  0  0
  -12.4300   32.9780  -25.0470 C   0  0  0  0  0  0  0  0  0  0  0  0
  -11.3190   32.6580  -25.9920 C   0  0  0  0  0  0  0  0  0  0  0  0
  -11.6790   33.3360  -27.2710 C   0  0  0  0  0  0  0  0  0  0  0  0
  -11.1340   35.8580  -24.6720 N   0  0  0  0  0  0  0  0  0  0  0  0
  -10.5750   36.9510  -23.8820 C   0  0  2  0  0  0  0  0  0  0  0  0
   -9.4060   37.6010  -24.6070 C   0  0  0  0  0  0  0  0  0  0  0  0
   -9.1330   37.2990  -25.7690 O   0  0  0  0  0  0  0  0  0  0  0  0
  -10.1180   36.4570  -22.5070 C   0  0  0  0  0  0  0  0  0  0  0  0
   -8.8790   35.7780  -22.5950 O   0  0  0  0  0  0  0  0  0  0  0  0
   -8.7180   38.4980  -23.9140 N   0  0  0  0  0  0  0  0  0  0  0  0
   -7.5470   39.1530  -24.4740 C   0  0  2  0  0  0  0  0  0  0  0  0
   -6.2850   38.5880  -23.8340 C   0  0  0  0  0  0  0  0  0  0  0  0
   -5.1690   38.8640  -24.2760 O   0  0  0  0  0  0  0  0  0  0  0  0
   -7.6320   40.6660  -24.2710 C   0  0  0  0  0  0  0  0  0  0  0  0
   -8.1800   41.4930  -25.4380 C   0  0  0  0  0  0  0  0  0  0  0  0
   -9.3840   40.8280  -26.0870 C   0  0  0  0  0  0  0  0  0  0  0  0
   -8.5380   42.8900  -24.9570 C   0  0  0  0  0  0  0  0  0  0  0  0
   -6.4790   37.7910  -22.7890 N   0  0  0  0  0  0  0  0  0  0  0  0
   -5.3850   37.0930  -22.1290 C   0  0  2  0  0  0  0  0  0  0  0  0
   -5.4830   35.6000  -22.3990 C   0  0  0  0  0  0  0  0  0  0  0  0
   -6.5440   35.1010  -22.7740 O   0  0  0  0  0  0  0  0  0  0  0  0
   -5.4060   37.3480  -20.6190 C   0  0  0  0  0  0  0  0  0  0  0  0
   -5.0650   38.7830  -20.2620 C   0  0  0  0  0  0  0  0  0  0  0  0
   -3.9020   39.1860  -20.3070 O   0  0  0  0  0  0  0  0  0  0  0  0
   -6.0780   39.5590  -19.8910 N   0  0  0  0  0  0  0  0  0  0  0  0
   -4.3810   34.8840  -22.2060 N   0  0  0  0  0  0  0  0  0  0  0  0
   -4.3840   33.4430  -22.4160 C   0  0  2  0  0  0  0  0  0  0  0  0
   -4.0160   32.6830  -21.1350 C   0  0  0  0  0  0  0  0  0  0  0  0
   -3.0400   33.0240  -20.4640 O   0  0  0  0  0  0  0  0  0  0  0  0
   -3.4570   33.0620  -23.5720 C   0  0  0  0  0  0  0  0  0  0  0  0
   -3.7250   31.6780  -24.1060 C   0  0  0  0  0  0  0  0  0  0  0  0
   -2.9540   30.5980  -23.7050 C   0  0  0  0  0  0  0  0  0  0  0  0
   -4.7610   31.4490  -25.0020 C   0  0  0  0  0  0  0  0  0  0  0  0
   -3.1990   29.3310  -24.1850 C   0  0  0  0  0  0  0  0  0  0  0  0
   -5.0140   30.1870  -25.4890 C   0  0  0  0  0  0  0  0  0  0  0  0
   -4.2290   29.1300  -25.0760 C   0  0  0  0  0  0  0  0  0  0  0  0
   -4.4760   27.8650  -25.5530 O   0  0  0  0  0  0  0  0  0  0  0  0
   -4.7940   31.6440  -20.7980 N   0  0  0  0  0  0  0  0  0  0  0  0
   -5.9600   31.1990  -21.5650 C   0  0  2  0  0  0  0  0  0  0  0  0
   -7.2610   31.8580  -21.1230 C   0  0  0  0  0  0  0  0  0  0  0  0
   -8.1610   31.9920  -21.9500 O   0  0  0  0  0  0  0  0  0  0  0  0
   -6.0120   29.7050  -21.2640 C   0  0  0  0  0  0  0  0  0  0  0  0
   -5.4620   29.5890  -19.8790 C   0  0  0  0  0  0  0  0  0  0  0  0
   -4.4460   30.7000  -19.7200 C   0  0  0  0  0  0  0  0  0  0  0  0
   -7.3660   32.2490  -19.8530 N   0  0  0  0  0  0  0  0  0  0  0  0
   -8.6410   32.6710  -19.2930 C   0  0  0  0  0  0  0  0  0  0  0  0
   -9.4770   31.4650  -18.8880 C   0  0  0  0  0  0  0  0  0  0  0  0
  -10.4860   31.6010  -18.1930 O   0  0  0  0  0  0  0  0  0  0  0  0
   -9.0240   30.2890  -19.3320 N   0  0  0  0  0  0  0  0  0  0  0  0
   -9.6590   28.9820  -19.1080 C   0  0  2  0  0  0  0  0  0  0  0  0
  -11.1840   28.9990  -18.9670 C   0  0  0  0  0  0  0  0  0  0  0  0
  -11.9040   29.1780  -19.9500 O   0  5  0  0  0  0  0  0  0  0  0  0
   -8.9980   28.2410  -17.9330 C   0  0  0  0  0  0  0  0  0  0  0  0
   -9.8130   28.2110  -16.6600 C   0  0  0  0  0  0  0  0  0  0  0  0
  -10.6320   27.1250  -16.3600 C   0  0  0  0  0  0  0  0  0  0  0  0
   -9.7580   29.2610  -15.7520 C   0  0  0  0  0  0  0  0  0  0  0  0
  -11.3790   27.0920  -15.1960 C   0  0  0  0  0  0  0  0  0  0  0  0
  -10.5010   29.2360  -14.5830 C   0  0  0  0  0  0  0  0  0  0  0  0
  -11.3080   28.1490  -14.3100 C   0  0  0  0  0  0  0  0  0  0  0  0
  -12.0470   28.1220  -13.1500 O   0  0  0  0  0  0  0  0  0  0  0  0
  -11.7150   28.8340  -17.8680 O   0  0  0  0  0  0  0  0  0  0  0  0
  -26.8554   42.5869  -35.1600 H   0  0  0  0  0  0  0  0  0  0  0  0
  -26.8965   41.1132  -34.4280 H   0  0  0  0  0  0  0  0  0  0  0  0
  -26.3056   41.2562  -35.9577 H   0  0  0  0  0  0  0  0  0  0  0  0
  -24.4849   42.5681  -35.2271 H   0  0  0  0  0  0  0  0  0  0  0  0
  -25.4539   41.9412  -32.4109 H   0  0  0  0  0  0  0  0  0  0  0  0
  -25.8533   43.4738  -33.2586 H   0  0  0  0  0  0  0  0  0  0  0  0
  -23.8054   40.5914  -36.3106 H   0  0  0  0  0  0  0  0  0  0  0  0
  -23.1854   38.3815  -34.4302 H   0  0  0  0  0  0  0  0  0  0  0  0
  -24.5077   38.0401  -37.1454 H   0  0  0  0  0  0  0  0  0  0  0  0
  -25.3429   37.9435  -35.5580 H   0  0  0  0  0  0  0  0  0  0  0  0
  -23.3821   36.0077  -36.8055 H   0  0  0  0  0  0  0  0  0  0  0  0
  -23.3776   34.8009  -34.6584 H   0  0  0  0  0  0  0  0  0  0  0  0
  -24.2823   36.1584  -33.9066 H   0  0  0  0  0  0  0  0  0  0  0  0
  -22.6218   36.4258  -34.5373 H   0  0  0  0  0  0  0  0  0  0  0  0
  -25.7673   35.7809  -37.3759 H   0  0  0  0  0  0  0  0  0  0  0  0
  -26.1745   35.6732  -35.6297 H   0  0  0  0  0  0  0  0  0  0  0  0
  -25.1766   34.3934  -36.3999 H   0  0  0  0  0  0  0  0  0  0  0  0
  -21.0700   38.6409  -34.4380 H   0  0  0  0  0  0  0  0  0  0  0  0
  -19.6297   37.2555  -36.5513 H   0  0  0  0  0  0  0  0  0  0  0  0
  -17.9847   39.0218  -36.9601 H   0  0  0  0  0  0  0  0  0  0  0  0
  -18.9231   40.1600  -35.9352 H   0  0  0  0  0  0  0  0  0  0  0  0
  -19.6164   39.5629  -37.4810 H   0  0  0  0  0  0  0  0  0  0  0  0
  -17.5963   36.5661  -35.5419 H   0  0  0  0  0  0  0  0  0  0  0  0
  -18.0706   36.5539  -32.6155 H   0  0  0  0  0  0  0  0  0  0  0  0
  -16.4070   34.5485  -34.1855 H   0  0  0  0  0  0  0  0  0  0  0  0
  -16.9714   33.0948  -32.2801 H   0  0  0  0  0  0  0  0  0  0  0  0
  -17.8929   34.4410  -31.5282 H   0  0  0  0  0  0  0  0  0  0  0  0
  -16.1156   34.5817  -31.7478 H   0  0  0  0  0  0  0  0  0  0  0  0
  -18.6874   34.6675  -35.1424 H   0  0  0  0  0  0  0  0  0  0  0  0
  -19.3826   34.4546  -33.5000 H   0  0  0  0  0  0  0  0  0  0  0  0
  -18.4220   33.1332  -34.2468 H   0  0  0  0  0  0  0  0  0  0  0  0
  -16.5193   36.8490  -31.0957 H   0  0  0  0  0  0  0  0  0  0  0  0
  -14.6329   38.4015  -30.6322 H   0  0  0  0  0  0  0  0  0  0  0  0
  -13.8100   37.6747  -32.0539 H   0  0  0  0  0  0  0  0  0  0  0  0
  -11.9674   34.7003  -29.3751 H   0  0  0  0  0  0  0  0  0  0  0  0
   -9.9268   35.8721  -29.6537 H   0  0  0  0  0  0  0  0  0  0  0  0
  -10.1091   36.0936  -27.8805 H   0  0  0  0  0  0  0  0  0  0  0  0
   -9.8508   38.2102  -29.4836 H   0  0  0  0  0  0  0  0  0  0  0  0
  -11.0094   38.2446  -28.1113 H   0  0  0  0  0  0  0  0  0  0  0  0
  -12.5019   38.7810  -29.8100 H   0  0  0  0  0  0  0  0  0  0  0  0
  -11.5346   37.9369  -31.0663 H   0  0  0  0  0  0  0  0  0  0  0  0
  -14.0120   34.4252  -25.4545 H   0  0  0  0  0  0  0  0  0  0  0  0
  -13.2445   32.2457  -25.1479 H   0  0  0  0  0  0  0  0  0  0  0  0
  -12.0648   32.9796  -24.0094 H   0  0  0  0  0  0  0  0  0  0  0  0
  -11.2418   31.5709  -26.1412 H   0  0  0  0  0  0  0  0  0  0  0  0
  -10.3635   33.0441  -25.6075 H   0  0  0  0  0  0  0  0  0  0  0  0
  -10.7795   33.6014  -27.8459 H   0  0  0  0  0  0  0  0  0  0  0  0
  -12.3331   32.7006  -27.8861 H   0  0  0  0  0  0  0  0  0  0  0  0
  -10.5695   35.4228  -25.3734 H   0  0  0  0  0  0  0  0  0  0  0  0
  -11.3602   37.7076  -23.7371 H   0  0  0  0  0  0  0  0  0  0  0  0
  -10.8759   35.7703  -22.1019 H   0  0  0  0  0  0  0  0  0  0  0  0
  -10.0076   37.3199  -21.8337 H   0  0  0  0  0  0  0  0  0  0  0  0
   -8.2197   36.3680  -22.9409 H   0  0  0  0  0  0  0  0  0  0  0  0
   -9.0109   38.7290  -22.9862 H   0  0  0  0  0  0  0  0  0  0  0  0
   -7.5130   38.9489  -25.5544 H   0  0  0  0  0  0  0  0  0  0  0  0
   -6.6167   41.0296  -24.0542 H   0  0  0  0  0  0  0  0  0  0  0  0
   -8.2803   40.8485  -23.4013 H   0  0  0  0  0  0  0  0  0  0  0  0
   -7.3890   41.5794  -26.1975 H   0  0  0  0  0  0  0  0  0  0  0  0
   -9.7447   41.4529  -26.9173 H   0  0  0  0  0  0  0  0  0  0  0  0
  -10.1844   40.7110  -25.3416 H   0  0  0  0  0  0  0  0  0  0  0  0
   -9.0937   39.8392  -26.4716 H   0  0  0  0  0  0  0  0  0  0  0  0
   -7.6564   43.3545  -24.4912 H   0  0  0  0  0  0  0  0  0  0  0  0
   -9.3517   42.8266  -24.2195 H   0  0  0  0  0  0  0  0  0  0  0  0
   -8.8649   43.4997  -25.8122 H   0  0  0  0  0  0  0  0  0  0  0  0
   -7.4091   37.6661  -22.4436 H   0  0  0  0  0  0  0  0  0  0  0  0
   -4.4337   37.4663  -22.5360 H   0  0  0  0  0  0  0  0  0  0  0  0
   -4.6730   36.6826  -20.1396 H   0  0  0  0  0  0  0  0  0  0  0  0
   -6.4124   37.1203  -20.2377 H   0  0  0  0  0  0  0  0  0  0  0  0
   -5.9122   40.5138  -19.6444 H   0  0  0  0  0  0  0  0  0  0  0  0
   -7.0061   39.1881  -19.8584 H   0  0  0  0  0  0  0  0  0  0  0  0
   -3.5402   35.3394  -21.9133 H   0  0  0  0  0  0  0  0  0  0  0  0
   -5.4064   33.1483  -22.6949 H   0  0  0  0  0  0  0  0  0  0  0  0
   -2.4168   33.1061  -23.2171 H   0  0  0  0  0  0  0  0  0  0  0  0
   -3.5971   33.7863  -24.3879 H   0  0  0  0  0  0  0  0  0  0  0  0
   -2.1442   30.7537  -23.0014 H   0  0  0  0  0  0  0  0  0  0  0  0
   -5.3808   32.2783  -25.3232 H   0  0  0  0  0  0  0  0  0  0  0  0
   -2.5851   28.4975  -23.8635 H   0  0  0  0  0  0  0  0  0  0  0  0
   -5.8235   30.0246  -26.1914 H   0  0  0  0  0  0  0  0  0  0  0  0
   -5.3579   27.6045  -25.3146 H   0  0  0  0  0  0  0  0  0  0  0  0
   -5.8083   31.3843  -22.6386 H   0  0  0  0  0  0  0  0  0  0  0  0
   -5.3929   29.1417  -21.9777 H   0  0  0  0  0  0  0  0  0  0  0  0
   -7.0471   29.3349  -21.3046 H   0  0  0  0  0  0  0  0  0  0  0  0
   -4.9780   28.6105  -19.7440 H   0  0  0  0  0  0  0  0  0  0  0  0
   -6.2685   29.7042  -19.1399 H   0  0  0  0  0  0  0  0  0  0  0  0
   -4.5382   31.1785  -18.7338 H   0  0  0  0  0  0  0  0  0  0  0  0
   -3.4226   30.3176  -19.8478 H   0  0  0  0  0  0  0  0  0  0  0  0
   -6.5514   32.2524  -19.2729 H   0  0  0  0  0  0  0  0  0  0  0  0
   -9.1906   33.2547  -20.0462 H   0  0  0  0  0  0  0  0  0  0  0  0
   -8.4569   33.2965  -18.4071 H   0  0  0  0  0  0  0  0  0  0  0  0
   -8.1774   30.2987  -19.8642 H   0  0  0  0  0  0  0  0  0  0  0  0
   -9.4501   28.3898  -20.0111 H   0  0  0  0  0  0  0  0  0  0  0  0
   -8.0397   28.7344  -17.7136 H   0  0  0  0  0  0  0  0  0  0  0  0
   -8.8129   27.2025  -18.2447 H   0  0  0  0  0  0  0  0  0  0  0  0
  -10.6850   26.2911  -17.0506 H   0  0  0  0  0  0  0  0  0  0  0  0
   -9.1231   30.1142  -15.9617 H   0  0  0  0  0  0  0  0  0  0  0  0
  -12.0161   26.2418  -14.9807 H   0  0  0  0  0  0  0  0  0  0  0  0
  -10.4492   30.0650  -13.8865 H   0  0  0  0  0  0  0  0  0  0  0  0
  -12.5446   27.3136  -13.1116 H   0  0  0  0  0  0  0  0  0  0  0  0
  1  2  1  0  0  0  0
  1105  1  0  0  0  0
  1106  1  0  0  0  0
  1107  1  0  0  0  0
  2  3  1  0  0  0  0
  2  5  1  0  0  0  0
  2108  1  6  0  0  0
  3  4  2  0  0  0  0
  3  9  1  0  0  0  0
  5  6  1  0  0  0  0
  5109  1  0  0  0  0
  5110  1  0  0  0  0
  6  7  1  0  0  0  0
  6  8  2  0  0  0  0
  9 10  1  0  0  0  0
  9111  1  0  0  0  0
 10 11  1  0  0  0  0
 10 13  1  0  0  0  0
 10112  1  1  0  0  0
 11 12  2  0  0  0  0
 11 17  1  0  0  0  0
 13 14  1  0  0  0  0
 13113  1  0  0  0  0
 13114  1  0  0  0  0
 14 15  1  0  0  0  0
 14 16  1  0  0  0  0
 14115  1  0  0  0  0
 15116  1  0  0  0  0
 15117  1  0  0  0  0
 15118  1  0  0  0  0
 16119  1  0  0  0  0
 16120  1  0  0  0  0
 16121  1  0  0  0  0
 17 18  1  0  0  0  0
 17122  1  0  0  0  0
 18 19  1  0  0  0  0
 18 21  1  0  0  0  0
 18123  1  6  0  0  0
 19 20  2  0  0  0  0
 19 22  1  0  0  0  0
 21124  1  0  0  0  0
 21125  1  0  0  0  0
 21126  1  0  0  0  0
 22 23  1  0  0  0  0
 22127  1  0  0  0  0
 23 24  1  0  0  0  0
 23 26  1  0  0  0  0
 23128  1  1  0  0  0
 24 25  2  0  0  0  0
 24 29  1  0  0  0  0
 26 27  1  0  0  0  0
 26 28  1  0  0  0  0
 26129  1  0  0  0  0
 27130  1  0  0  0  0
 27131  1  0  0  0  0
 27132  1  0  0  0  0
 28133  1  0  0  0  0
 28134  1  0  0  0  0
 28135  1  0  0  0  0
 29 30  1  0  0  0  0
 29136  1  0  0  0  0
 30 31  1  0  0  0  0
 30137  1  0  0  0  0
 30138  1  0  0  0  0
 31 32  2  0  0  0  0
 31 33  1  0  0  0  0
 33 34  1  0  0  0  0
 33 39  1  0  0  0  0
 34 35  1  0  0  0  0
 34 37  1  0  0  0  0
 34139  1  6  0  0  0
 35 36  2  0  0  0  0
 35 40  1  0  0  0  0
 37 38  1  0  0  0  0
 37140  1  0  0  0  0
 37141  1  0  0  0  0
 38 39  1  0  0  0  0
 38142  1  0  0  0  0
 38143  1  0  0  0  0
 39144  1  0  0  0  0
 39145  1  0  0  0  0
 40 41  1  0  0  0  0
 40 46  1  0  0  0  0
 41 42  1  0  0  0  0
 41 44  1  0  0  0  0
 41146  1  6  0  0  0
 42 43  2  0  0  0  0
 42 47  1  0  0  0  0
 44 45  1  0  0  0  0
 44147  1  0  0  0  0
 44148  1  0  0  0  0
 45 46  1  0  0  0  0
 45149  1  0  0  0  0
 45150  1  0  0  0  0
 46151  1  0  0  0  0
 46152  1  0  0  0  0
 47 48  1  0  0  0  0
 47153  1  0  0  0  0
 48 49  1  0  0  0  0
 48 51  1  0  0  0  0
 48154  1  1  0  0  0
 49 50  2  0  0  0  0
 49 53  1  0  0  0  0
 51 52  1  0  0  0  0
 51155  1  0  0  0  0
 51156  1  0  0  0  0
 52157  1  0  0  0  0
 53 54  1  0  0  0  0
 53158  1  0  0  0  0
 54 55  1  0  0  0  0
 54 57  1  0  0  0  0
 54159  1  6  0  0  0
 55 56  2  0  0  0  0
 55 61  1  0  0  0  0
 57 58  1  0  0  0  0
 57160  1  0  0  0  0
 57161  1  0  0  0  0
 58 59  1  0  0  0  0
 58 60  1  0  0  0  0
 58162  1  0  0  0  0
 59163  1  0  0  0  0
 59164  1  0  0  0  0
 59165  1  0  0  0  0
 60166  1  0  0  0  0
 60167  1  0  0  0  0
 60168  1  0  0  0  0
 61 62  1  0  0  0  0
 61169  1  0  0  0  0
 62 63  1  0  0  0  0
 62 65  1  0  0  0  0
 62170  1  6  0  0  0
 63 64  2  0  0  0  0
 63 69  1  0  0  0  0
 65 66  1  0  0  0  0
 65171  1  0  0  0  0
 65172  1  0  0  0  0
 66 67  2  0  0  0  0
 66 68  1  0  0  0  0
 68173  1  0  0  0  0
 68174  1  0  0  0  0
 69 70  1  0  0  0  0
 69175  1  0  0  0  0
 70 71  1  0  0  0  0
 70 73  1  0  0  0  0
 70176  1  6  0  0  0
 71 72  2  0  0  0  0
 71 81  1  0  0  0  0
 73 74  1  0  0  0  0
 73177  1  0  0  0  0
 73178  1  0  0  0  0
 74 75  2  0  0  0  0
 74 76  1  0  0  0  0
 75 77  1  0  0  0  0
 75179  1  0  0  0  0
 76 78  2  0  0  0  0
 76180  1  0  0  0  0
 77 79  2  0  0  0  0
 77181  1  0  0  0  0
 78 79  1  0  0  0  0
 78182  1  0  0  0  0
 79 80  1  0  0  0  0
 80183  1  0  0  0  0
 81 82  1  0  0  0  0
 81 87  1  0  0  0  0
 82 83  1  0  0  0  0
 82 85  1  0  0  0  0
 82184  1  6  0  0  0
 83 84  2  0  0  0  0
 83 88  1  0  0  0  0
 85 86  1  0  0  0  0
 85185  1  0  0  0  0
 85186  1  0  0  0  0
 86 87  1  0  0  0  0
 86187  1  0  0  0  0
 86188  1  0  0  0  0
 87189  1  0  0  0  0
 87190  1  0  0  0  0
 88 89  1  0  0  0  0
 88191  1  0  0  0  0
 89 90  1  0  0  0  0
 89192  1  0  0  0  0
 89193  1  0  0  0  0
 90 91  2  0  0  0  0
 90 92  1  0  0  0  0
 92 93  1  0  0  0  0
 92194  1  0  0  0  0
 93 94  1  0  0  0  0
 93 96  1  0  0  0  0
 93195  1  6  0  0  0
 94 95  1  0  0  0  0
 94104  2  0  0  0  0
 96 97  1  0  0  0  0
 96196  1  0  0  0  0
 96197  1  0  0  0  0
 97 98  2  0  0  0  0
 97 99  1  0  0  0  0
 98100  1  0  0  0  0
 98198  1  0  0  0  0
 99101  2  0  0  0  0
 99199  1  0  0  0  0
100102  2  0  0  0  0
100200  1  0  0  0  0
101102  1  0  0  0  0
101201  1  0  0  0  0
102103  1  0  0  0  0
103202  1  0  0  0  0
M  CHG  3   1   1   7  -1  95  -1
M  END
