3zbf_ligand
 OpenBabel08222323353D

 53 56  0  0  1  0  0  0  0  0999 V2000
   41.4600   21.4450    3.2060 Cl  0  0  0  0  0  0  0  0  0  0  0  0
   40.3420   20.1510    3.4690 C   0  0  0  0  0  0  0  0  0  0  0  0
   40.0390   19.3390    2.3330 C   0  0  0  0  0  0  0  0  0  0  0  0
   39.1350   18.2580    2.4320 C   0  0  0  0  0  0  0  0  0  0  0  0
   38.5080   17.9570    3.6690 C   0  0  0  0  0  0  0  0  0  0  0  0
   37.6510   16.9220    3.7270 F   0  0  0  0  0  0  0  0  0  0  0  0
   39.7230   19.8750    4.7590 C   0  0  0  0  0  0  0  0  0  0  0  0
   38.7880   18.7480    4.8360 C   0  0  0  0  0  0  0  0  0  0  0  0
   37.9600   18.2860    6.3050 Cl  0  0  0  0  0  0  0  0  0  0  0  0
   40.0620   20.7830    6.0110 C   0  0  1  0  0  0  0  0  0  0  0  0
   38.7710   21.3840    6.6080 C   0  0  0  0  0  0  0  0  0  0  0  0
   40.7530   20.0750    7.1250 O   0  0  0  0  0  0  0  0  0  0  0  0
   42.0160   19.4720    7.0310 C   0  0  0  0  0  0  0  0  0  0  0  0
   42.9670   19.7760    6.0040 C   0  0  0  0  0  0  0  0  0  0  0  0
   42.4430   18.5050    8.0060 C   0  0  0  0  0  0  0  0  0  0  0  0
   41.5780   18.1490    9.0610 N   0  0  0  0  0  0  0  0  0  0  0  0
   43.6680   17.8940    7.9860 N   0  0  0  0  0  0  0  0  0  0  0  0
   44.5480   18.2140    6.9790 C   0  0  0  0  0  0  0  0  0  0  0  0
   44.2460   19.1580    5.9510 C   0  0  0  0  0  0  0  0  0  0  0  0
   45.1930   19.5290    4.8290 C   0  0  0  0  0  0  0  0  0  0  0  0
   46.6310   19.2940    4.6930 C   0  0  0  0  0  0  0  0  0  0  0  0
   44.8370   20.1960    3.6750 C   0  0  0  0  0  0  0  0  0  0  0  0
   46.0030   20.3180    2.9540 N   0  0  0  0  0  0  0  0  0  0  0  0
   47.0190   19.7900    3.5610 N   0  0  0  0  0  0  0  0  0  0  0  0
   46.0420   20.9830    1.6340 C   0  0  0  0  0  0  0  0  0  0  0  0
   45.7700   19.9380    0.5180 C   0  0  0  0  0  0  0  0  0  0  0  0
   45.8050   20.6330   -0.8630 C   0  0  0  0  0  0  0  0  0  0  0  0
   47.0630   21.4040   -1.0880 N   0  3  0  0  0  0  0  0  0  0  0  0
   47.3610   22.3760    0.0080 C   0  0  0  0  0  0  0  0  0  0  0  0
   47.3910   21.6990    1.3990 C   0  0  0  0  0  0  0  0  0  0  0  0
   40.5099   19.5557    1.3810 H   0  0  0  0  0  0  0  0  0  0  0  0
   38.9189   17.6547    1.5577 H   0  0  0  0  0  0  0  0  0  0  0  0
   40.7131   21.5984    5.6629 H   0  0  0  0  0  0  0  0  0  0  0  0
   39.0254   22.0108    7.4754 H   0  0  0  0  0  0  0  0  0  0  0  0
   38.1015   20.5715    6.9266 H   0  0  0  0  0  0  0  0  0  0  0  0
   38.2665   21.9979    5.8474 H   0  0  0  0  0  0  0  0  0  0  0  0
   42.7028   20.5008    5.2425 H   0  0  0  0  0  0  0  0  0  0  0  0
   41.8786   17.4570    9.7622 H   0  0  0  0  0  0  0  0  0  0  0  0
   40.6455   18.5810    9.1305 H   0  0  0  0  0  0  0  0  0  0  0  0
   45.5163   17.7269    6.9649 H   0  0  0  0  0  0  0  0  0  0  0  0
   47.2661   18.7887    5.4191 H   0  0  0  0  0  0  0  0  0  0  0  0
   43.8460   20.5500    3.3947 H   0  0  0  0  0  0  0  0  0  0  0  0
   45.2444   21.7399    1.6044 H   0  0  0  0  0  0  0  0  0  0  0  0
   44.7802   19.4844    0.6745 H   0  0  0  0  0  0  0  0  0  0  0  0
   46.5419   19.1551    0.5535 H   0  0  0  0  0  0  0  0  0  0  0  0
   44.9519   21.3240   -0.9310 H   0  0  0  0  0  0  0  0  0  0  0  0
   45.7182   19.8651   -1.6458 H   0  0  0  0  0  0  0  0  0  0  0  0
   46.9762   21.9135   -1.9534 H   0  0  0  0  0  0  0  0  0  0  0  0
   47.8298   20.7533   -1.1566 H   0  0  0  0  0  0  0  0  0  0  0  0
   46.5851   23.1557    0.0104 H   0  0  0  0  0  0  0  0  0  0  0  0
   48.3419   22.8355   -0.1833 H   0  0  0  0  0  0  0  0  0  0  0  0
   48.2100   20.9656    1.4355 H   0  0  0  0  0  0  0  0  0  0  0  0
   47.5458   22.4606    2.1774 H   0  0  0  0  0  0  0  0  0  0  0  0
  1  2  1  0  0  0  0
  2  3  2  0  0  0  0
  2  7  1  0  0  0  0
  3  4  1  0  0  0  0
  3 31  1  0  0  0  0
  4  5  2  0  0  0  0
  4 32  1  0  0  0  0
  5  6  1  0  0  0  0
  5  8  1  0  0  0  0
  7  8  2  0  0  0  0
  7 10  1  0  0  0  0
  8  9  1  0  0  0  0
 10 11  1  0  0  0  0
 10 12  1  0  0  0  0
 10 33  1  6  0  0  0
 11 34  1  0  0  0  0
 11 35  1  0  0  0  0
 11 36  1  0  0  0  0
 12 13  1  0  0  0  0
 13 14  2  0  0  0  0
 13 15  1  0  0  0  0
 14 19  1  0  0  0  0
 14 37  1  0  0  0  0
 15 16  1  0  0  0  0
 15 17  2  0  0  0  0
 16 38  1  0  0  0  0
 16 39  1  0  0  0  0
 17 18  1  0  0  0  0
 18 19  2  0  0  0  0
 18 40  1  0  0  0  0
 19 20  1  0  0  0  0
 20 21  1  0  0  0  0
 20 22  2  0  0  0  0
 21 24  2  0  0  0  0
 21 41  1  0  0  0  0
 22 23  1  0  0  0  0
 22 42  1  0  0  0  0
 23 24  1  0  0  0  0
 23 25  1  0  0  0  0
 25 26  1  0  0  0  0
 25 30  1  0  0  0  0
 25 43  1  0  0  0  0
 26 27  1  0  0  0  0
 26 44  1  0  0  0  0
 26 45  1  0  0  0  0
 27 28  1  0  0  0  0
 27 46  1  0  0  0  0
 27 47  1  0  0  0  0
 28 29  1  0  0  0  0
 28 48  1  0  0  0  0
 28 49  1  0  0  0  0
 29 30  1  0  0  0  0
 29 50  1  0  0  0  0
 29 51  1  0  0  0  0
 30 52  1  0  0  0  0
 30 53  1  0  0  0  0
M  CHG  1  28   1
M  END
