3zep_ligand
 OpenBabel08222323353D

 56 60  0  0  1  0  0  0  0  0999 V2000
   -6.4650  -10.1050   10.2560 C   0  0  0  0  0  0  0  0  0  0  0  0
   -7.2150  -11.0820    9.3550 C   0  0  2  0  0  0  0  0  0  0  0  0
   -8.0450  -10.3250    8.4150 N   0  0  0  0  0  0  0  0  0  0  0  0
   -7.9810  -10.4510    7.0590 C   0  0  0  0  0  0  0  0  0  0  0  0
   -7.2070  -11.2160    6.5090 O   0  0  0  0  0  0  0  0  0  0  0  0
   -8.8870   -9.6430    6.2270 C   0  0  0  0  0  0  0  0  0  0  0  0
   -9.0630   -9.7010    4.8730 C   0  0  0  0  0  0  0  0  0  0  0  0
   -9.9980   -8.7960    4.4890 N   0  0  0  0  0  0  0  0  0  0  0  0
  -10.4760   -8.1070    5.5810 C   0  0  0  0  0  0  0  0  0  0  0  0
  -11.3760   -7.1410    5.7520 N   0  0  0  0  0  0  0  0  0  0  0  0
  -11.6300   -6.6680    6.9670 C   0  0  0  0  0  0  0  0  0  0  0  0
  -10.9700   -7.1610    8.0990 C   0  0  0  0  0  0  0  0  0  0  0  0
  -10.0650   -8.1210    7.9270 N   0  0  0  0  0  0  0  0  0  0  0  0
   -9.8060   -8.6060    6.7130 C   0  0  0  0  0  0  0  0  0  0  0  0
  -11.2900   -6.6230    9.3180 O   0  0  0  0  0  0  0  0  0  0  0  0
  -10.8910   -7.0480   10.5620 C   0  0  0  0  0  0  0  0  0  0  0  0
  -10.8070   -6.0870   11.5720 C   0  0  0  0  0  0  0  0  0  0  0  0
  -10.4180   -6.4330   12.8640 C   0  0  0  0  0  0  0  0  0  0  0  0
  -10.2460   -5.5870   14.1110 C   0  0  2  0  0  0  0  0  0  0  0  0
   -9.5740   -4.3170   13.7980 N   0  0  0  0  0  0  0  0  0  0  0  0
  -10.1200   -3.0980   14.0280 C   0  0  0  0  0  0  0  0  0  0  0  0
   -9.3240   -1.8720   13.6650 C   0  0  0  0  0  0  0  0  0  0  0  0
  -11.2250   -2.9560   14.5130 O   0  0  0  0  0  0  0  0  0  0  0  0
   -9.3590   -6.4370   15.0450 C   0  0  0  0  0  0  0  0  0  0  0  0
   -9.7240   -7.8740   14.6180 C   0  0  0  0  0  0  0  0  0  0  0  0
  -10.1170   -7.7550   13.1630 C   0  0  0  0  0  0  0  0  0  0  0  0
  -10.2040   -8.7220   12.1690 C   0  0  0  0  0  0  0  0  0  0  0  0
  -10.5930   -8.3800   10.8830 C   0  0  0  0  0  0  0  0  0  0  0  0
   -8.1620  -11.9430   10.1930 C   0  0  0  0  0  0  0  0  0  0  0  0
   -8.8780  -13.0890    9.4790 C   0  0  0  0  0  0  0  0  0  0  0  0
   -7.7640  -13.3900   10.4820 C   0  0  0  0  0  0  0  0  0  0  0  0
   -5.8391  -10.6667   10.9651 H   0  0  0  0  0  0  0  0  0  0  0  0
   -7.1879   -9.4903   10.8123 H   0  0  0  0  0  0  0  0  0  0  0  0
   -5.8272   -9.4539    9.6402 H   0  0  0  0  0  0  0  0  0  0  0  0
   -6.4992  -11.7173    8.8127 H   0  0  0  0  0  0  0  0  0  0  0  0
   -8.7020   -9.6726    8.7929 H   0  0  0  0  0  0  0  0  0  0  0  0
   -8.5315  -10.3739    4.2017 H   0  0  0  0  0  0  0  0  0  0  0  0
  -10.3066   -8.6456    3.5179 H   0  0  0  0  0  0  0  0  0  0  0  0
  -12.3662   -5.8811    7.0849 H   0  0  0  0  0  0  0  0  0  0  0  0
  -11.0486   -5.0546   11.3467 H   0  0  0  0  0  0  0  0  0  0  0  0
  -11.2210   -5.3827   14.5775 H   0  0  0  0  0  0  0  0  0  0  0  0
   -8.6610   -4.3550   13.3918 H   0  0  0  0  0  0  0  0  0  0  0  0
   -9.9045   -0.9712   13.9132 H   0  0  0  0  0  0  0  0  0  0  0  0
   -9.1061   -1.8822   12.5869 H   0  0  0  0  0  0  0  0  0  0  0  0
   -8.3801   -1.8671   14.2299 H   0  0  0  0  0  0  0  0  0  0  0  0
   -9.6070   -6.2594   16.1019 H   0  0  0  0  0  0  0  0  0  0  0  0
   -8.2914   -6.2302   14.8791 H   0  0  0  0  0  0  0  0  0  0  0  0
  -10.5646   -8.2547   15.2167 H   0  0  0  0  0  0  0  0  0  0  0  0
   -8.8591   -8.5440   14.7324 H   0  0  0  0  0  0  0  0  0  0  0  0
   -9.9655   -9.7536   12.4013 H   0  0  0  0  0  0  0  0  0  0  0  0
  -10.6672   -9.1472   10.1208 H   0  0  0  0  0  0  0  0  0  0  0  0
   -8.6736  -11.3351   10.9537 H   0  0  0  0  0  0  0  0  0  0  0  0
   -8.7113  -13.2575    8.4049 H   0  0  0  0  0  0  0  0  0  0  0  0
   -9.9225  -13.3261    9.7296 H   0  0  0  0  0  0  0  0  0  0  0  0
   -8.0070  -13.8436   11.4542 H   0  0  0  0  0  0  0  0  0  0  0  0
   -6.7958  -13.7750   10.1295 H   0  0  0  0  0  0  0  0  0  0  0  0
  1  2  1  0  0  0  0
  1 32  1  0  0  0  0
  1 33  1  0  0  0  0
  1 34  1  0  0  0  0
  2  3  1  0  0  0  0
  2 29  1  0  0  0  0
  2 35  1  6  0  0  0
  3  4  1  0  0  0  0
  3 36  1  0  0  0  0
  4  5  2  0  0  0  0
  4  6  1  0  0  0  0
  6  7  2  0  0  0  0
  6 14  1  0  0  0  0
  7  8  1  0  0  0  0
  7 37  1  0  0  0  0
  8  9  1  0  0  0  0
  8 38  1  0  0  0  0
  9 10  2  0  0  0  0
  9 14  1  0  0  0  0
 10 11  1  0  0  0  0
 11 12  2  0  0  0  0
 11 39  1  0  0  0  0
 12 13  1  0  0  0  0
 12 15  1  0  0  0  0
 13 14  2  0  0  0  0
 15 16  1  0  0  0  0
 16 17  2  0  0  0  0
 16 28  1  0  0  0  0
 17 18  1  0  0  0  0
 17 40  1  0  0  0  0
 18 19  1  0  0  0  0
 18 26  2  0  0  0  0
 19 20  1  0  0  0  0
 19 24  1  0  0  0  0
 19 41  1  1  0  0  0
 20 21  1  0  0  0  0
 20 42  1  0  0  0  0
 21 22  1  0  0  0  0
 21 23  2  0  0  0  0
 22 43  1  0  0  0  0
 22 44  1  0  0  0  0
 22 45  1  0  0  0  0
 24 25  1  0  0  0  0
 24 46  1  0  0  0  0
 24 47  1  0  0  0  0
 25 26  1  0  0  0  0
 25 48  1  0  0  0  0
 25 49  1  0  0  0  0
 26 27  1  0  0  0  0
 27 28  2  0  0  0  0
 27 50  1  0  0  0  0
 28 51  1  0  0  0  0
 29 30  1  0  0  0  0
 29 31  1  0  0  0  0
 29 52  1  0  0  0  0
 30 31  1  0  0  0  0
 30 53  1  0  0  0  0
 30 54  1  0  0  0  0
 31 55  1  0  0  0  0
 31 56  1  0  0  0  0
M  END
