3zh8_ligand
 OpenBabel08222323353D

 56 60  0  0  1  0  0  0  0  0999 V2000
   16.2100   16.8050   15.2430 C   0  0  2  0  0  0  0  0  0  0  0  0
   15.0990   15.9500   14.7990 N   0  3  0  0  0  0  0  0  0  0  0  0
   16.7000   18.0790    8.5650 S   0  0  0  0  0  0  0  0  0  0  0  0
   17.5440   16.3000   14.5980 C   0  0  0  0  0  0  0  0  0  0  0  0
   17.4150   16.1500   13.1550 N   0  0  0  0  0  0  0  0  0  0  0  0
   17.3480   17.2150   12.3460 C   0  0  0  0  0  0  0  0  0  0  0  0
   17.4650   18.4400   12.8850 N   0  0  0  0  0  0  0  0  0  0  0  0
   17.3650   19.5220   12.1050 C   0  0  0  0  0  0  0  0  0  0  0  0
   17.1110   19.5200   10.7900 N   0  0  0  0  0  0  0  0  0  0  0  0
   17.0010   18.3010   10.2650 C   0  0  0  0  0  0  0  0  0  0  0  0
   18.2010   23.3140   13.9200 N   0  0  0  0  0  0  0  0  0  0  0  0
   17.1220   17.0870   10.9420 C   0  0  0  0  0  0  0  0  0  0  0  0
   16.9890   15.9540   10.0300 C   0  0  0  0  0  0  0  0  0  0  0  0
   16.7570   16.3500    8.7590 C   0  0  0  0  0  0  0  0  0  0  0  0
   16.5500   15.4510    7.5790 C   0  0  0  0  0  0  0  0  0  0  0  0
   16.9920   14.0390    7.9110 C   0  0  0  0  0  0  0  0  0  0  0  0
   16.5360   13.6280    9.2940 C   0  0  0  0  0  0  0  0  0  0  0  0
   17.1250   14.5050   10.3840 C   0  0  0  0  0  0  0  0  0  0  0  0
   17.6310   20.8380   12.7390 C   0  0  0  0  0  0  0  0  0  0  0  0
   17.5650   22.0190   12.0090 C   0  0  0  0  0  0  0  0  0  0  0  0
   17.8580   23.2140   12.6340 C   0  0  0  0  0  0  0  0  0  0  0  0
   18.2540   22.1770   14.6170 C   0  0  0  0  0  0  0  0  0  0  0  0
   17.9830   20.9350   14.0800 C   0  0  0  0  0  0  0  0  0  0  0  0
   16.3900   16.8010   16.7790 C   0  0  0  0  0  0  0  0  0  0  0  0
   17.4760   17.7560   17.2070 C   0  0  0  0  0  0  0  0  0  0  0  0
   18.8000   17.3540   17.2480 C   0  0  0  0  0  0  0  0  0  0  0  0
   19.7960   18.2320   17.6420 C   0  0  0  0  0  0  0  0  0  0  0  0
   19.4790   19.5220   17.9980 C   0  0  0  0  0  0  0  0  0  0  0  0
   18.1680   19.9360   17.9620 C   0  0  0  0  0  0  0  0  0  0  0  0
   17.1720   19.0590   17.5700 C   0  0  0  0  0  0  0  0  0  0  0  0
   16.0109   17.8352   14.9129 H   0  0  0  0  0  0  0  0  0  0  0  0
   15.0260   15.9887   13.7944 H   0  0  0  0  0  0  0  0  0  0  0  0
   14.2388   16.2758   15.2112 H   0  0  0  0  0  0  0  0  0  0  0  0
   15.2707   14.9994   15.0869 H   0  0  0  0  0  0  0  0  0  0  0  0
   17.8070   15.3261   15.0366 H   0  0  0  0  0  0  0  0  0  0  0  0
   18.3420   17.0262   14.8121 H   0  0  0  0  0  0  0  0  0  0  0  0
   17.3744   15.2046   12.7481 H   0  0  0  0  0  0  0  0  0  0  0  0
   17.1395   15.8256    6.7292 H   0  0  0  0  0  0  0  0  0  0  0  0
   15.4833   15.4439    7.3106 H   0  0  0  0  0  0  0  0  0  0  0  0
   18.0899   13.9879    7.8664 H   0  0  0  0  0  0  0  0  0  0  0  0
   16.5624   13.3465    7.1722 H   0  0  0  0  0  0  0  0  0  0  0  0
   16.8450   12.5875    9.4728 H   0  0  0  0  0  0  0  0  0  0  0  0
   15.4392   13.6977    9.3392 H   0  0  0  0  0  0  0  0  0  0  0  0
   16.5943   14.3127   11.3281 H   0  0  0  0  0  0  0  0  0  0  0  0
   18.1908   14.2618   10.5064 H   0  0  0  0  0  0  0  0  0  0  0  0
   17.2868   22.0016   10.9615 H   0  0  0  0  0  0  0  0  0  0  0  0
   17.8066   24.1237   12.0467 H   0  0  0  0  0  0  0  0  0  0  0  0
   18.5255   22.2323   15.6650 H   0  0  0  0  0  0  0  0  0  0  0  0
   18.0439   20.0456   14.6968 H   0  0  0  0  0  0  0  0  0  0  0  0
   16.6573   15.7852   17.1056 H   0  0  0  0  0  0  0  0  0  0  0  0
   15.4429   17.1008   17.2514 H   0  0  0  0  0  0  0  0  0  0  0  0
   19.0604   16.3396   16.9683 H   0  0  0  0  0  0  0  0  0  0  0  0
   20.8280   17.9016   17.6698 H   0  0  0  0  0  0  0  0  0  0  0  0
   20.2588   20.2093   18.3055 H   0  0  0  0  0  0  0  0  0  0  0  0
   17.9142   20.9521   18.2415 H   0  0  0  0  0  0  0  0  0  0  0  0
   16.1416   19.3949   17.5465 H   0  0  0  0  0  0  0  0  0  0  0  0
  1  2  1  0  0  0  0
  1 24  1  0  0  0  0
  1 31  1  6  0  0  0
  2 32  1  0  0  0  0
  2 33  1  0  0  0  0
  2 34  1  0  0  0  0
  3 14  1  0  0  0  0
  4  1  1  0  0  0  0
  4 35  1  0  0  0  0
  4 36  1  0  0  0  0
  5  4  1  0  0  0  0
  5 37  1  0  0  0  0
  6  5  1  0  0  0  0
  6 12  1  0  0  0  0
  7  6  2  0  0  0  0
  8  7  1  0  0  0  0
  8  9  2  0  0  0  0
  9 10  1  0  0  0  0
 10  3  1  0  0  0  0
 10 12  2  0  0  0  0
 11 22  1  0  0  0  0
 12 13  1  0  0  0  0
 13 14  2  0  0  0  0
 13 18  1  0  0  0  0
 14 15  1  0  0  0  0
 15 16  1  0  0  0  0
 15 38  1  0  0  0  0
 15 39  1  0  0  0  0
 16 40  1  0  0  0  0
 16 41  1  0  0  0  0
 17 16  1  0  0  0  0
 17 42  1  0  0  0  0
 17 43  1  0  0  0  0
 18 17  1  0  0  0  0
 18 44  1  0  0  0  0
 18 45  1  0  0  0  0
 19  8  1  0  0  0  0
 19 23  1  0  0  0  0
 20 19  2  0  0  0  0
 20 21  1  0  0  0  0
 20 46  1  0  0  0  0
 21 11  2  0  0  0  0
 21 47  1  0  0  0  0
 22 23  2  0  0  0  0
 22 48  1  0  0  0  0
 23 49  1  0  0  0  0
 24 25  1  0  0  0  0
 24 50  1  0  0  0  0
 24 51  1  0  0  0  0
 25 26  2  0  0  0  0
 25 30  1  0  0  0  0
 26 27  1  0  0  0  0
 26 52  1  0  0  0  0
 27 28  2  0  0  0  0
 27 53  1  0  0  0  0
 28 29  1  0  0  0  0
 28 54  1  0  0  0  0
 29 30  2  0  0  0  0
 29 55  1  0  0  0  0
 30 56  1  0  0  0  0
M  CHG  1   2   1
M  END
