3zim_ligand
 OpenBabel08222323353D

 79 84  0  0  0  0  0  0  0  0999 V2000
  -32.9380   13.8670   29.8170 C   0  0  0  0  0  0  0  0  0  0  0  0
  -31.9860   14.1480   28.6810 C   0  0  0  0  0  0  0  0  0  0  0  0
  -32.2180   13.1580   27.5670 C   0  0  0  0  0  0  0  0  0  0  0  0
  -30.5310   14.1240   29.1460 C   0  0  0  0  0  0  0  0  0  0  0  0
  -30.1170   12.8240   29.6890 C   0  0  0  0  0  0  0  0  0  0  0  0
  -30.4370   12.4920   30.8120 O   0  0  0  0  0  0  0  0  0  0  0  0
  -29.2530   11.9050   28.8690 C   0  0  0  0  0  0  0  0  0  0  0  0
  -27.8030   12.1540   29.2930 C   0  0  0  0  0  0  0  0  0  0  0  0
  -26.7830   11.4290   28.4370 C   0  0  0  0  0  0  0  0  0  0  0  0
  -27.1790   10.6970   27.5490 O   0  0  0  0  0  0  0  0  0  0  0  0
  -25.4400   11.5830   28.6580 N   0  0  0  0  0  0  0  0  0  0  0  0
  -24.8800   12.4650   29.7100 C   0  0  0  0  0  0  0  0  0  0  0  0
  -23.9560   11.6460   30.6120 C   0  0  0  0  0  0  0  0  0  0  0  0
  -22.8530   11.1330   29.7860 N   0  3  0  0  0  0  0  0  0  0  0  0
  -23.3700   10.2110   28.7490 C   0  0  0  0  0  0  0  0  0  0  0  0
  -24.4080   10.8990   27.8370 C   0  0  0  0  0  0  0  0  0  0  0  0
  -21.8360   10.5040   30.6420 C   0  0  0  0  0  0  0  0  0  0  0  0
  -20.4810   10.4920   29.9850 C   0  0  0  0  0  0  0  0  0  0  0  0
  -20.0660    9.5450   29.1660 C   0  0  0  0  0  0  0  0  0  0  0  0
  -18.7800    9.6940   28.6790 C   0  0  0  0  0  0  0  0  0  0  0  0
  -18.1230    8.8400   27.8160 N   0  0  0  0  0  0  0  0  0  0  0  0
  -16.8650    9.1070   27.3780 C   0  0  0  0  0  0  0  0  0  0  0  0
  -16.2600   10.2110   27.8290 N   0  0  0  0  0  0  0  0  0  0  0  0
  -16.7870   11.0860   28.7100 C   0  0  0  0  0  0  0  0  0  0  0  0
  -18.1240   10.8300   29.1570 C   0  0  0  0  0  0  0  0  0  0  0  0
  -19.2580   11.6480   30.2310 S   0  0  0  0  0  0  0  0  0  0  0  0
  -16.0240   12.1750   29.1650 N   0  0  0  0  0  0  0  0  0  0  0  0
  -16.6200   13.3890   29.7940 C   0  0  0  0  0  0  0  0  0  0  0  0
  -15.7550   14.6630   29.8020 C   0  0  0  0  0  0  0  0  0  0  0  0
  -14.3760   14.3480   29.8520 O   0  0  0  0  0  0  0  0  0  0  0  0
  -13.9680   13.4730   28.8050 C   0  0  0  0  0  0  0  0  0  0  0  0
  -14.5440   12.1000   29.1570 C   0  0  0  0  0  0  0  0  0  0  0  0
  -16.2080    8.1790   26.4100 C   0  0  0  0  0  0  0  0  0  0  0  0
  -16.8330    6.9950   25.9660 C   0  0  0  0  0  0  0  0  0  0  0  0
  -16.2190    6.1240   25.0760 C   0  0  0  0  0  0  0  0  0  0  0  0
  -15.0010    6.3850   24.5330 C   0  0  0  0  0  0  0  0  0  0  0  0
  -14.3170    7.5500   24.8820 C   0  0  0  0  0  0  0  0  0  0  0  0
  -13.1470    8.0560   24.5160 N   0  0  0  0  0  0  0  0  0  0  0  0
  -12.9460    9.1720   25.1070 N   0  0  0  0  0  0  0  0  0  0  0  0
  -13.9410    9.4790   25.9110 C   0  0  0  0  0  0  0  0  0  0  0  0
  -14.8840    8.4600   25.8300 C   0  0  0  0  0  0  0  0  0  0  0  0
  -33.9723   13.8929   29.4435 H   0  0  0  0  0  0  0  0  0  0  0  0
  -32.8113   14.6303   30.5989 H   0  0  0  0  0  0  0  0  0  0  0  0
  -32.7246   12.8729   30.2369 H   0  0  0  0  0  0  0  0  0  0  0  0
  -32.2002   15.1559   28.2960 H   0  0  0  0  0  0  0  0  0  0  0  0
  -31.5222   13.3661   26.7408 H   0  0  0  0  0  0  0  0  0  0  0  0
  -33.2532   13.2481   27.2060 H   0  0  0  0  0  0  0  0  0  0  0  0
  -32.0477   12.1379   27.9416 H   0  0  0  0  0  0  0  0  0  0  0  0
  -30.4017   14.8864   29.9283 H   0  0  0  0  0  0  0  0  0  0  0  0
  -29.8861   14.3656   28.2883 H   0  0  0  0  0  0  0  0  0  0  0  0
  -29.3765   12.1261   27.7986 H   0  0  0  0  0  0  0  0  0  0  0  0
  -29.5278   10.8573   29.0611 H   0  0  0  0  0  0  0  0  0  0  0  0
  -27.6834   11.8189   30.3338 H   0  0  0  0  0  0  0  0  0  0  0  0
  -27.6037   13.2340   29.2303 H   0  0  0  0  0  0  0  0  0  0  0  0
  -25.6991   12.8885   30.3097 H   0  0  0  0  0  0  0  0  0  0  0  0
  -24.3091   13.2802   29.2414 H   0  0  0  0  0  0  0  0  0  0  0  0
  -24.5132   10.8067   31.0537 H   0  0  0  0  0  0  0  0  0  0  0  0
  -23.5563   12.2835   31.4144 H   0  0  0  0  0  0  0  0  0  0  0  0
  -22.4212   11.9131   29.3159 H   0  0  0  0  0  0  0  0  0  0  0  0
  -23.8447    9.3501   29.2425 H   0  0  0  0  0  0  0  0  0  0  0  0
  -22.5292    9.8620   28.1315 H   0  0  0  0  0  0  0  0  0  0  0  0
  -23.8994   11.6395   27.2021 H   0  0  0  0  0  0  0  0  0  0  0  0
  -24.8918   10.1422   27.2021 H   0  0  0  0  0  0  0  0  0  0  0  0
  -22.1389    9.4676   30.8519 H   0  0  0  0  0  0  0  0  0  0  0  0
  -21.7689   11.0648   31.5859 H   0  0  0  0  0  0  0  0  0  0  0  0
  -20.6955    8.7000   28.8909 H   0  0  0  0  0  0  0  0  0  0  0  0
  -16.8558   13.1405   30.8393 H   0  0  0  0  0  0  0  0  0  0  0  0
  -17.5495   13.6214   29.2537 H   0  0  0  0  0  0  0  0  0  0  0  0
  -16.0164   15.2681   30.6826 H   0  0  0  0  0  0  0  0  0  0  0  0
  -15.9579   15.2396   28.8875 H   0  0  0  0  0  0  0  0  0  0  0  0
  -12.8703   13.4252   28.7523 H   0  0  0  0  0  0  0  0  0  0  0  0
  -14.3667   13.8191   27.8400 H   0  0  0  0  0  0  0  0  0  0  0  0
  -14.2178   11.3624   28.4090 H   0  0  0  0  0  0  0  0  0  0  0  0
  -14.1864   11.7961   30.1519 H   0  0  0  0  0  0  0  0  0  0  0  0
  -17.8254    6.7573   26.3317 H   0  0  0  0  0  0  0  0  0  0  0  0
  -16.7278    5.2059   24.8055 H   0  0  0  0  0  0  0  0  0  0  0  0
  -14.5608    5.6883   23.8288 H   0  0  0  0  0  0  0  0  0  0  0  0
  -12.4950    7.6143   23.8522 H   0  0  0  0  0  0  0  0  0  0  0  0
  -14.0134   10.3721   26.5299 H   0  0  0  0  0  0  0  0  0  0  0  0
  1  2  1  0  0  0  0
  1 42  1  0  0  0  0
  1 43  1  0  0  0  0
  1 44  1  0  0  0  0
  2  3  1  0  0  0  0
  2  4  1  0  0  0  0
  2 45  1  0  0  0  0
  3 46  1  0  0  0  0
  3 47  1  0  0  0  0
  3 48  1  0  0  0  0
  4  5  1  0  0  0  0
  4 49  1  0  0  0  0
  4 50  1  0  0  0  0
  5  6  2  0  0  0  0
  5  7  1  0  0  0  0
  7  8  1  0  0  0  0
  7 51  1  0  0  0  0
  7 52  1  0  0  0  0
  8  9  1  0  0  0  0
  8 53  1  0  0  0  0
  8 54  1  0  0  0  0
  9 10  2  0  0  0  0
  9 11  1  0  0  0  0
 11 12  1  0  0  0  0
 11 16  1  0  0  0  0
 12 13  1  0  0  0  0
 12 55  1  0  0  0  0
 12 56  1  0  0  0  0
 13 14  1  0  0  0  0
 13 57  1  0  0  0  0
 13 58  1  0  0  0  0
 14 15  1  0  0  0  0
 14 17  1  0  0  0  0
 14 59  1  0  0  0  0
 15 16  1  0  0  0  0
 15 60  1  0  0  0  0
 15 61  1  0  0  0  0
 16 62  1  0  0  0  0
 16 63  1  0  0  0  0
 17 18  1  0  0  0  0
 17 64  1  0  0  0  0
 17 65  1  0  0  0  0
 18 19  2  0  0  0  0
 18 26  1  0  0  0  0
 19 20  1  0  0  0  0
 19 66  1  0  0  0  0
 20 21  2  0  0  0  0
 20 25  1  0  0  0  0
 21 22  1  0  0  0  0
 22 23  2  0  0  0  0
 22 33  1  0  0  0  0
 23 24  1  0  0  0  0
 24 25  2  0  0  0  0
 24 27  1  0  0  0  0
 25 26  1  0  0  0  0
 27 28  1  0  0  0  0
 27 32  1  0  0  0  0
 28 29  1  0  0  0  0
 28 67  1  0  0  0  0
 28 68  1  0  0  0  0
 29 30  1  0  0  0  0
 29 69  1  0  0  0  0
 29 70  1  0  0  0  0
 30 31  1  0  0  0  0
 31 32  1  0  0  0  0
 31 71  1  0  0  0  0
 31 72  1  0  0  0  0
 32 73  1  0  0  0  0
 32 74  1  0  0  0  0
 33 34  2  0  0  0  0
 33 41  1  0  0  0  0
 34 35  1  0  0  0  0
 34 75  1  0  0  0  0
 35 36  2  0  0  0  0
 35 76  1  0  0  0  0
 36 37  1  0  0  0  0
 36 77  1  0  0  0  0
 37 38  1  0  0  0  0
 37 41  2  0  0  0  0
 38 39  1  0  0  0  0
 38 78  1  0  0  0  0
 39 40  2  0  0  0  0
 40 41  1  0  0  0  0
 40 79  1  0  0  0  0
M  CHG  1  14   1
M  END
