3zke_ligand
 OpenBabel08222323353D

155155  0  0  1  0  0  0  0  0999 V2000
  -15.4650   14.5220   12.3890 N   0  3  0  0  0  0  0  0  0  0  0  0
  -14.6080   13.3300   12.5910 C   0  0  2  0  0  0  0  0  0  0  0  0
  -14.4470   12.4800   11.3370 C   0  0  0  0  0  0  0  0  0  0  0  0
  -15.4120   12.0970   10.7240 O   0  0  0  0  0  0  0  0  0  0  0  0
  -15.1390   12.4270   13.7310 C   0  0  0  0  0  0  0  0  0  0  0  0
  -14.1150   12.3560   14.8530 C   0  0  0  0  0  0  0  0  0  0  0  0
  -16.5140   12.8860   14.2080 C   0  0  0  0  0  0  0  0  0  0  0  0
  -13.2150   12.1950   10.9780 N   0  0  0  0  0  0  0  0  0  0  0  0
  -12.9130   11.2110    9.9960 C   0  0  0  0  0  0  0  0  0  0  0  0
  -13.4600    9.8030   10.3050 C   0  0  0  0  0  0  0  0  0  0  0  0
  -13.3690    9.3070   11.4320 O   0  0  0  0  0  0  0  0  0  0  0  0
  -14.0220    9.1830    9.2700 N   0  0  0  0  0  0  0  0  0  0  0  0
  -14.6030    7.8490    9.3460 C   0  0  2  0  0  0  0  0  0  0  0  0
  -13.8610    6.9610    8.3810 C   0  0  0  0  0  0  0  0  0  0  0  0
  -13.5830    7.3720    7.2530 O   0  0  0  0  0  0  0  0  0  0  0  0
  -16.1100    7.8600    9.0300 C   0  0  0  0  0  0  0  0  0  0  0  0
  -16.9690    8.6100   10.0370 C   0  0  0  0  0  0  0  0  0  0  0  0
  -16.9700    7.8380   11.6580 S   0  0  0  0  0  0  0  0  0  0  0  0
  -18.3590    6.7190   11.5400 C   0  0  0  0  0  0  0  0  0  0  0  0
  -13.5230    5.7540    8.8190 N   0  0  0  0  0  0  0  0  0  0  0  0
  -12.7680    4.8130    7.9820 C   0  0  2  0  0  0  0  0  0  0  0  0
  -13.3220    3.4440    8.0840 C   0  0  0  0  0  0  0  0  0  0  0  0
  -13.6220    2.9640    9.1690 O   0  0  0  0  0  0  0  0  0  0  0  0
  -11.3000    4.7880    8.4330 C   0  0  0  0  0  0  0  0  0  0  0  0
  -10.7050    6.1710    8.5900 C   0  0  0  0  0  0  0  0  0  0  0  0
  -10.1270    6.8380    7.5850 N   0  0  0  0  0  0  0  0  0  0  0  0
  -10.7130    7.0210    9.6450 C   0  0  0  0  0  0  0  0  0  0  0  0
   -9.7310    8.0440    7.9900 C   0  0  0  0  0  0  0  0  0  0  0  0
  -10.0780    8.1650    9.2530 N   0  0  0  0  0  0  0  0  0  0  0  0
  -13.4040    2.7520    6.9630 N   0  0  0  0  0  0  0  0  0  0  0  0
  -13.9260    1.3750    7.0030 C   0  0  2  0  0  0  0  0  0  0  0  0
  -12.8080    0.3400    7.0570 C   0  0  0  0  0  0  0  0  0  0  0  0
  -11.7570    0.4900    6.4430 O   0  0  0  0  0  0  0  0  0  0  0  0
  -14.8390    1.1050    5.8160 C   0  0  0  0  0  0  0  0  0  0  0  0
  -15.9730    1.9190    5.8420 O   0  0  0  0  0  0  0  0  0  0  0  0
  -13.0450   -0.7280    7.7830 N   0  0  0  0  0  0  0  0  0  0  0  0
  -12.0830   -1.7920    7.8930 C   0  0  2  0  0  0  0  0  0  0  0  0
  -12.7050   -3.1760    7.9490 C   0  0  0  0  0  0  0  0  0  0  0  0
  -13.8670   -3.3320    8.3890 O   0  0  0  0  0  0  0  0  0  0  0  0
  -11.2380   -1.5350    9.1410 C   0  0  0  0  0  0  0  0  0  0  0  0
   -9.9100   -0.9790    8.7580 C   0  0  0  0  0  0  0  0  0  0  0  0
   -9.3840   -0.1010    9.8040 C   0  0  0  0  0  0  0  0  0  0  0  0
   -8.5890    0.9460    9.0600 C   0  0  0  0  0  0  0  0  0  0  0  0
   -8.4090    2.0060   10.0030 N   0  3  0  0  0  0  0  0  0  0  0  0
  -11.9510   -4.1850    7.4800 N   0  0  0  0  0  0  0  0  0  0  0  0
  -12.4450   -5.5200    7.4420 C   0  0  0  0  0  0  0  0  0  0  0  0
  -11.5030   -6.3320    8.2830 C   0  0  0  0  0  0  0  0  0  0  0  0
  -10.3270   -6.0320    8.3050 O   0  0  0  0  0  0  0  0  0  0  0  0
  -12.0250   -7.3240    9.0030 N   0  0  0  0  0  0  0  0  0  0  0  0
  -11.1680   -8.2300    9.7880 C   0  0  2  0  0  0  0  0  0  0  0  0
  -11.6460   -9.6310    9.5480 C   0  0  0  0  0  0  0  0  0  0  0  0
  -12.7750   -9.8310    9.1400 O   0  0  0  0  0  0  0  0  0  0  0  0
  -11.2360   -7.9500   11.3070 C   0  0  2  0  0  0  0  0  0  0  0  0
  -12.5640   -8.1930   11.7690 O   0  0  0  0  0  0  0  0  0  0  0  0
  -10.8570   -6.4650   11.6360 C   0  0  0  0  0  0  0  0  0  0  0  0
  -10.7720  -10.6050    9.7610 N   0  0  0  0  0  0  0  0  0  0  0  0
  -11.1360  -12.0010    9.5410 C   0  0  2  0  0  0  0  0  0  0  0  0
  -10.3330  -12.8890   10.5120 C   0  0  0  0  0  0  0  0  0  0  0  0
   -9.1230  -12.8560   10.5290 O   0  0  0  0  0  0  0  0  0  0  0  0
  -10.8270  -12.3910    8.0660 C   0  0  0  0  0  0  0  0  0  0  0  0
  -11.1160  -13.8650    7.7760 C   0  0  0  0  0  0  0  0  0  0  0  0
  -12.5830  -14.1660    8.0110 C   0  0  0  0  0  0  0  0  0  0  0  0
  -13.4590  -13.5980    7.3530 O   0  0  0  0  0  0  0  0  0  0  0  0
  -12.8790  -15.0830    8.9570 N   0  0  0  0  0  0  0  0  0  0  0  0
  -11.0060  -13.6940   11.3220 N   0  0  0  0  0  0  0  0  0  0  0  0
  -10.2500  -14.6500   12.1810 C   0  0  2  0  0  0  0  0  0  0  0  0
   -9.6810  -15.7360   11.2740 C   0  0  0  0  0  0  0  0  0  0  0  0
  -10.2640  -16.0460   10.2360 O   0  0  0  0  0  0  0  0  0  0  0  0
  -11.1830  -15.3580   13.2170 C   0  0  2  0  0  0  0  0  0  0  0  0
  -12.3690  -15.8010   12.5360 O   0  0  0  0  0  0  0  0  0  0  0  0
  -11.6650  -14.3460   14.3080 C   0  0  0  0  0  0  0  0  0  0  0  0
   -8.5720  -16.3230   11.6760 N   0  0  0  0  0  0  0  0  0  0  0  0
   -7.9440  -17.3930   10.8850 C   0  0  2  0  0  0  0  0  0  0  0  0
   -8.2440  -18.7810   11.4270 C   0  0  0  0  0  0  0  0  0  0  0  0
   -9.4329  -19.1379   11.6430 O   0  5  0  0  0  0  0  0  0  0  0  0
   -6.4620  -17.1970   10.8500 C   0  0  0  0  0  0  0  0  0  0  0  0
   -7.2981  -19.5795   11.6618 O   0  0  0  0  0  0  0  0  0  0  0  0
  -15.0886   15.0836   11.6414 H   0  0  0  0  0  0  0  0  0  0  0  0
  -15.4902   15.0655   13.2376 H   0  0  0  0  0  0  0  0  0  0  0  0
  -16.3991   14.2277   12.1506 H   0  0  0  0  0  0  0  0  0  0  0  0
  -13.6109   13.6936   12.8799 H   0  0  0  0  0  0  0  0  0  0  0  0
  -15.2577   11.4107   13.3273 H   0  0  0  0  0  0  0  0  0  0  0  0
  -14.4984   11.7133   15.6592 H   0  0  0  0  0  0  0  0  0  0  0  0
  -13.9311   13.3668   15.2461 H   0  0  0  0  0  0  0  0  0  0  0  0
  -13.1749   11.9366   14.4654 H   0  0  0  0  0  0  0  0  0  0  0  0
  -17.2069   12.9167   13.3542 H   0  0  0  0  0  0  0  0  0  0  0  0
  -16.4325   13.8899   14.6502 H   0  0  0  0  0  0  0  0  0  0  0  0
  -16.8939   12.1823   14.9633 H   0  0  0  0  0  0  0  0  0  0  0  0
  -12.4613   12.6887   11.4117 H   0  0  0  0  0  0  0  0  0  0  0  0
  -11.8189   11.1413    9.9060 H   0  0  0  0  0  0  0  0  0  0  0  0
  -13.3395   11.5414    9.0374 H   0  0  0  0  0  0  0  0  0  0  0  0
  -14.0469    9.6594    8.3911 H   0  0  0  0  0  0  0  0  0  0  0  0
  -14.4678    7.4612   10.3665 H   0  0  0  0  0  0  0  0  0  0  0  0
  -16.4591    6.8176    8.9922 H   0  0  0  0  0  0  0  0  0  0  0  0
  -16.2494    8.3294    8.0450 H   0  0  0  0  0  0  0  0  0  0  0  0
  -18.0027    8.6430    9.6623 H   0  0  0  0  0  0  0  0  0  0  0  0
  -16.5818    9.6349   10.1356 H   0  0  0  0  0  0  0  0  0  0  0  0
  -18.4714    6.1728   12.4882 H   0  0  0  0  0  0  0  0  0  0  0  0
  -18.1849    6.0033   10.7231 H   0  0  0  0  0  0  0  0  0  0  0  0
  -19.2754    7.2923   11.3363 H   0  0  0  0  0  0  0  0  0  0  0  0
  -13.7895    5.4787    9.7427 H   0  0  0  0  0  0  0  0  0  0  0  0
  -12.8222    5.1450    6.9347 H   0  0  0  0  0  0  0  0  0  0  0  0
  -10.7126    4.2369    7.6838 H   0  0  0  0  0  0  0  0  0  0  0  0
  -11.2396    4.2687    9.4008 H   0  0  0  0  0  0  0  0  0  0  0  0
  -11.1461    6.8277   10.6253 H   0  0  0  0  0  0  0  0  0  0  0  0
   -9.2159    8.7907    7.3874 H   0  0  0  0  0  0  0  0  0  0  0  0
   -9.9002    8.9867    9.8481 H   0  0  0  0  0  0  0  0  0  0  0  0
  -13.1149    3.1580    6.0960 H   0  0  0  0  0  0  0  0  0  0  0  0
  -14.5232    1.2717    7.9209 H   0  0  0  0  0  0  0  0  0  0  0  0
  -15.1554    0.0518    5.8417 H   0  0  0  0  0  0  0  0  0  0  0  0
  -14.2827    1.2982    4.8869 H   0  0  0  0  0  0  0  0  0  0  0  0
  -16.4617    1.7539    6.6398 H   0  0  0  0  0  0  0  0  0  0  0  0
  -13.9146   -0.8036    8.2709 H   0  0  0  0  0  0  0  0  0  0  0  0
  -11.4296   -1.7556    7.0088 H   0  0  0  0  0  0  0  0  0  0  0  0
  -11.0931   -2.4813    9.6828 H   0  0  0  0  0  0  0  0  0  0  0  0
  -11.7589   -0.8164    9.7908 H   0  0  0  0  0  0  0  0  0  0  0  0
  -10.0166   -0.4038    7.8265 H   0  0  0  0  0  0  0  0  0  0  0  0
   -9.2058   -1.8088    8.5981 H   0  0  0  0  0  0  0  0  0  0  0  0
   -8.7364   -0.6629   10.4931 H   0  0  0  0  0  0  0  0  0  0  0  0
  -10.2049    0.3642   10.3694 H   0  0  0  0  0  0  0  0  0  0  0  0
   -9.1443    1.3010    8.1793 H   0  0  0  0  0  0  0  0  0  0  0  0
   -7.6170    0.5411    8.7419 H   0  0  0  0  0  0  0  0  0  0  0  0
   -7.8810    2.7504    9.5750 H   0  0  0  0  0  0  0  0  0  0  0  0
   -7.9098    1.6592   10.8071 H   0  0  0  0  0  0  0  0  0  0  0  0
   -9.3093    2.3556   10.2915 H   0  0  0  0  0  0  0  0  0  0  0  0
  -11.0258   -3.9946    7.1516 H   0  0  0  0  0  0  0  0  0  0  0  0
  -12.4547   -5.8950    6.4080 H   0  0  0  0  0  0  0  0  0  0  0  0
  -13.4627   -5.5633    7.8573 H   0  0  0  0  0  0  0  0  0  0  0  0
  -13.0162   -7.4562    9.0109 H   0  0  0  0  0  0  0  0  0  0  0  0
  -10.1266   -8.1239    9.4502 H   0  0  0  0  0  0  0  0  0  0  0  0
  -10.5371   -8.6225   11.8258 H   0  0  0  0  0  0  0  0  0  0  0  0
  -13.1673   -7.6197   11.3110 H   0  0  0  0  0  0  0  0  0  0  0  0
  -10.9164   -6.3035   12.7225 H   0  0  0  0  0  0  0  0  0  0  0  0
  -11.5564   -5.7864   11.1258 H   0  0  0  0  0  0  0  0  0  0  0  0
   -9.8323   -6.2630   11.2908 H   0  0  0  0  0  0  0  0  0  0  0  0
   -9.8503  -10.3798   10.0769 H   0  0  0  0  0  0  0  0  0  0  0  0
  -12.2110  -12.1340    9.7323 H   0  0  0  0  0  0  0  0  0  0  0  0
   -9.7637  -12.1939    7.8645 H   0  0  0  0  0  0  0  0  0  0  0  0
  -11.4471  -11.7726    7.4004 H   0  0  0  0  0  0  0  0  0  0  0  0
  -10.5050  -14.4929    8.4411 H   0  0  0  0  0  0  0  0  0  0  0  0
  -10.8629  -14.0858    6.7286 H   0  0  0  0  0  0  0  0  0  0  0  0
  -13.8329  -15.3147    9.1476 H   0  0  0  0  0  0  0  0  0  0  0  0
  -12.1443  -15.5304    9.4670 H   0  0  0  0  0  0  0  0  0  0  0  0
  -12.0049  -13.6607   11.3564 H   0  0  0  0  0  0  0  0  0  0  0  0
   -9.4422  -14.1196   12.7065 H   0  0  0  0  0  0  0  0  0  0  0  0
  -10.6563  -16.2045   13.6817 H   0  0  0  0  0  0  0  0  0  0  0  0
  -12.1287  -16.4093   11.8470 H   0  0  0  0  0  0  0  0  0  0  0  0
  -12.3188  -14.8639   15.0252 H   0  0  0  0  0  0  0  0  0  0  0  0
  -12.2223  -13.5277   13.8285 H   0  0  0  0  0  0  0  0  0  0  0  0
  -10.7930  -13.9348   14.8376 H   0  0  0  0  0  0  0  0  0  0  0  0
   -8.1489  -16.0357   12.5354 H   0  0  0  0  0  0  0  0  0  0  0  0
   -8.3346  -17.3322    9.8585 H   0  0  0  0  0  0  0  0  0  0  0  0
   -5.9998  -18.0002   10.2573 H   0  0  0  0  0  0  0  0  0  0  0  0
   -6.0644  -17.2227   11.8753 H   0  0  0  0  0  0  0  0  0  0  0  0
   -6.2315  -16.2240   10.3916 H   0  0  0  0  0  0  0  0  0  0  0  0
  1  2  1  0  0  0  0
  1 78  1  0  0  0  0
  1 79  1  0  0  0  0
  1 80  1  0  0  0  0
  2  3  1  0  0  0  0
  2  5  1  0  0  0  0
  2 81  1  1  0  0  0
  3  4  2  0  0  0  0
  3  8  1  0  0  0  0
  5  6  1  0  0  0  0
  5  7  1  0  0  0  0
  5 82  1  0  0  0  0
  6 83  1  0  0  0  0
  6 84  1  0  0  0  0
  6 85  1  0  0  0  0
  7 86  1  0  0  0  0
  7 87  1  0  0  0  0
  7 88  1  0  0  0  0
  8  9  1  0  0  0  0
  8 89  1  0  0  0  0
  9 10  1  0  0  0  0
  9 90  1  0  0  0  0
  9 91  1  0  0  0  0
 10 11  2  0  0  0  0
 10 12  1  0  0  0  0
 12 13  1  0  0  0  0
 12 92  1  0  0  0  0
 13 14  1  0  0  0  0
 13 16  1  0  0  0  0
 13 93  1  1  0  0  0
 14 15  2  0  0  0  0
 14 20  1  0  0  0  0
 16 17  1  0  0  0  0
 16 94  1  0  0  0  0
 16 95  1  0  0  0  0
 17 18  1  0  0  0  0
 17 96  1  0  0  0  0
 17 97  1  0  0  0  0
 18 19  1  0  0  0  0
 19 98  1  0  0  0  0
 19 99  1  0  0  0  0
 19100  1  0  0  0  0
 20 21  1  0  0  0  0
 20101  1  0  0  0  0
 21 22  1  0  0  0  0
 21 24  1  0  0  0  0
 21102  1  6  0  0  0
 22 23  2  0  0  0  0
 22 30  1  0  0  0  0
 24 25  1  0  0  0  0
 24103  1  0  0  0  0
 24104  1  0  0  0  0
 25 26  1  0  0  0  0
 25 27  2  0  0  0  0
 26 28  2  0  0  0  0
 27 29  1  0  0  0  0
 27105  1  0  0  0  0
 28 29  1  0  0  0  0
 28106  1  0  0  0  0
 29107  1  0  0  0  0
 30 31  1  0  0  0  0
 30108  1  0  0  0  0
 31 32  1  0  0  0  0
 31 34  1  0  0  0  0
 31109  1  1  0  0  0
 32 33  2  0  0  0  0
 32 36  1  0  0  0  0
 34 35  1  0  0  0  0
 34110  1  0  0  0  0
 34111  1  0  0  0  0
 35112  1  0  0  0  0
 36 37  1  0  0  0  0
 36113  1  0  0  0  0
 37 38  1  0  0  0  0
 37 40  1  0  0  0  0
 37114  1  6  0  0  0
 38 39  2  0  0  0  0
 38 45  1  0  0  0  0
 40 41  1  0  0  0  0
 40115  1  0  0  0  0
 40116  1  0  0  0  0
 41 42  1  0  0  0  0
 41117  1  0  0  0  0
 41118  1  0  0  0  0
 42 43  1  0  0  0  0
 42119  1  0  0  0  0
 42120  1  0  0  0  0
 43 44  1  0  0  0  0
 43121  1  0  0  0  0
 43122  1  0  0  0  0
 44123  1  0  0  0  0
 44124  1  0  0  0  0
 44125  1  0  0  0  0
 45 46  1  0  0  0  0
 45126  1  0  0  0  0
 46 47  1  0  0  0  0
 46127  1  0  0  0  0
 46128  1  0  0  0  0
 47 48  2  0  0  0  0
 47 49  1  0  0  0  0
 49 50  1  0  0  0  0
 49129  1  0  0  0  0
 50 51  1  0  0  0  0
 50 53  1  0  0  0  0
 50130  1  6  0  0  0
 51 52  2  0  0  0  0
 51 56  1  0  0  0  0
 53 54  1  0  0  0  0
 53 55  1  0  0  0  0
 53131  1  1  0  0  0
 54132  1  0  0  0  0
 55133  1  0  0  0  0
 55134  1  0  0  0  0
 55135  1  0  0  0  0
 56 57  1  0  0  0  0
 56136  1  0  0  0  0
 57 58  1  0  0  0  0
 57 60  1  0  0  0  0
 57137  1  1  0  0  0
 58 59  2  0  0  0  0
 58 65  1  0  0  0  0
 60 61  1  0  0  0  0
 60138  1  0  0  0  0
 60139  1  0  0  0  0
 61 62  1  0  0  0  0
 61140  1  0  0  0  0
 61141  1  0  0  0  0
 62 63  2  0  0  0  0
 62 64  1  0  0  0  0
 64142  1  0  0  0  0
 64143  1  0  0  0  0
 65 66  1  0  0  0  0
 65144  1  0  0  0  0
 66 67  1  0  0  0  0
 66 69  1  0  0  0  0
 66145  1  1  0  0  0
 67 68  2  0  0  0  0
 67 72  1  0  0  0  0
 69 70  1  0  0  0  0
 69 71  1  0  0  0  0
 69146  1  1  0  0  0
 70147  1  0  0  0  0
 71148  1  0  0  0  0
 71149  1  0  0  0  0
 71150  1  0  0  0  0
 72 73  1  0  0  0  0
 72151  1  0  0  0  0
 73 74  1  0  0  0  0
 73 76  1  0  0  0  0
 73152  1  6  0  0  0
 74 75  1  0  0  0  0
 74 77  2  0  0  0  0
 76153  1  0  0  0  0
 76154  1  0  0  0  0
 76155  1  0  0  0  0
M  CHG  3   1   1  44   1  75  -1
M  END
