3zki_ligand
 OpenBabel08222323353D

 52 54  0  0  1  0  0  0  0  0999 V2000
  -12.2870    0.2780  -32.4460 F   0  0  0  0  0  0  0  0  0  0  0  0
  -13.0910    0.6520  -31.4880 C   0  0  0  0  0  0  0  0  0  0  0  0
  -12.6420    1.7810  -30.9620 F   0  0  0  0  0  0  0  0  0  0  0  0
  -13.1260   -0.3250  -30.5980 F   0  0  0  0  0  0  0  0  0  0  0  0
  -14.4820    0.8780  -32.0760 C   0  0  0  0  0  0  0  0  0  0  0  0
  -14.4700    2.0860  -32.8230 O   0  0  0  0  0  0  0  0  0  0  0  0
  -15.6010    2.6330  -33.3430 C   0  0  0  0  0  0  0  0  0  0  0  0
  -15.4840    3.4910  -34.4350 C   0  0  0  0  0  0  0  0  0  0  0  0
  -16.5890    4.0620  -34.9610 N   0  0  0  0  0  0  0  0  0  0  0  0
  -16.8580    2.3520  -32.7900 C   0  0  0  0  0  0  0  0  0  0  0  0
  -17.9910    2.9540  -33.3470 C   0  0  0  0  0  0  0  0  0  0  0  0
  -17.8360    3.8010  -34.4510 C   0  0  0  0  0  0  0  0  0  0  0  0
  -19.0410    4.4370  -35.0940 C   0  0  0  0  0  0  0  0  0  0  0  0
  -20.1190    4.3860  -34.5310 O   0  0  0  0  0  0  0  0  0  0  0  0
  -18.8480    4.9950  -36.2990 N   0  0  0  0  0  0  0  0  0  0  0  0
  -19.7510    5.6730  -37.1120 C   0  0  0  0  0  0  0  0  0  0  0  0
  -19.2240    6.2970  -38.2420 C   0  0  0  0  0  0  0  0  0  0  0  0
  -21.1000    5.7810  -36.8050 C   0  0  0  0  0  0  0  0  0  0  0  0
  -21.9200    6.4960  -37.6790 C   0  0  0  0  0  0  0  0  0  0  0  0
  -21.4070    7.1140  -38.8300 C   0  0  0  0  0  0  0  0  0  0  0  0
  -20.0500    7.0150  -39.1270 C   0  0  0  0  0  0  0  0  0  0  0  0
  -19.4830    7.6900  -40.3560 C   0  0  1  0  0  0  0  0  0  0  0  0
  -19.9530    7.0620  -41.6580 C   0  0  0  0  0  0  0  0  0  0  0  0
  -19.3270    5.6920  -41.7770 C   0  0  0  0  0  0  0  0  0  0  0  0
  -20.0150    4.7720  -42.1920 O   0  0  0  0  0  0  0  0  0  0  0  0
  -19.9220    9.1370  -40.2630 C   0  0  0  0  0  0  0  0  0  0  0  0
  -18.0410    7.5860  -40.3510 N   0  0  0  0  0  0  0  0  0  0  0  0
  -17.4110    6.5950  -40.8130 C   0  0  1  0  0  3  0  0  0  0  0  0
  -16.1680    6.6270  -40.6980 N   0  0  0  0  0  0  0  0  0  0  0  0
  -18.0310    5.5380  -41.4080 N   0  0  0  0  0  0  0  0  0  0  0  0
  -17.3370    4.2690  -41.6440 C   0  0  0  0  0  0  0  0  0  0  0  0
  -15.2197    0.9527  -31.2635 H   0  0  0  0  0  0  0  0  0  0  0  0
  -14.7462    0.0379  -32.7351 H   0  0  0  0  0  0  0  0  0  0  0  0
  -14.5091    3.6994  -34.8608 H   0  0  0  0  0  0  0  0  0  0  0  0
  -16.9504    1.6795  -31.9449 H   0  0  0  0  0  0  0  0  0  0  0  0
  -18.9742    2.7676  -32.9302 H   0  0  0  0  0  0  0  0  0  0  0  0
  -17.9214    4.9115  -36.6656 H   0  0  0  0  0  0  0  0  0  0  0  0
  -18.1609    6.2280  -38.4422 H   0  0  0  0  0  0  0  0  0  0  0  0
  -21.5058    5.3224  -35.9105 H   0  0  0  0  0  0  0  0  0  0  0  0
  -22.9794    6.5761  -37.4636 H   0  0  0  0  0  0  0  0  0  0  0  0
  -22.0669    7.6682  -39.4876 H   0  0  0  0  0  0  0  0  0  0  0  0
  -19.6413    7.6883  -42.5069 H   0  0  0  0  0  0  0  0  0  0  0  0
  -21.0492    6.9708  -41.6526 H   0  0  0  0  0  0  0  0  0  0  0  0
  -19.5698    9.5667  -39.3136 H   0  0  0  0  0  0  0  0  0  0  0  0
  -21.0199    9.1905  -40.3047 H   0  0  0  0  0  0  0  0  0  0  0  0
  -19.4950    9.7045  -41.1030 H   0  0  0  0  0  0  0  0  0  0  0  0
  -17.4982    8.3633  -39.9483 H   0  0  0  0  0  0  0  0  0  0  0  0
  -15.7132    7.4329  -40.2457 H   0  0  0  0  0  0  0  0  0  0  0  0
  -15.5975    5.8475  -41.0554 H   0  0  0  0  0  0  0  0  0  0  0  0
  -18.0230    3.5613  -42.1325 H   0  0  0  0  0  0  0  0  0  0  0  0
  -17.0012    3.8506  -40.6837 H   0  0  0  0  0  0  0  0  0  0  0  0
  -16.4660    4.4426  -42.2930 H   0  0  0  0  0  0  0  0  0  0  0  0
  1  2  1  0  0  0  0
  2  3  1  0  0  0  0
  2  4  1  0  0  0  0
  2  5  1  0  0  0  0
  5  6  1  0  0  0  0
  5 32  1  0  0  0  0
  5 33  1  0  0  0  0
  6  7  1  0  0  0  0
  7  8  2  0  0  0  0
  7 10  1  0  0  0  0
  8  9  1  0  0  0  0
  8 34  1  0  0  0  0
  9 12  2  0  0  0  0
 10 11  2  0  0  0  0
 10 35  1  0  0  0  0
 11 12  1  0  0  0  0
 11 36  1  0  0  0  0
 12 13  1  0  0  0  0
 13 14  2  0  0  0  0
 13 15  1  0  0  0  0
 15 16  1  0  0  0  0
 15 37  1  0  0  0  0
 16 17  2  0  0  0  0
 16 18  1  0  0  0  0
 17 21  1  0  0  0  0
 17 38  1  0  0  0  0
 18 19  2  0  0  0  0
 18 39  1  0  0  0  0
 19 20  1  0  0  0  0
 19 40  1  0  0  0  0
 20 21  2  0  0  0  0
 20 41  1  0  0  0  0
 21 22  1  0  0  0  0
 22 23  1  0  0  0  0
 22 26  1  1  0  0  0
 22 27  1  0  0  0  0
 23 24  1  0  0  0  0
 23 42  1  0  0  0  0
 23 43  1  0  0  0  0
 24 25  2  0  0  0  0
 24 30  1  0  0  0  0
 26 44  1  0  0  0  0
 26 45  1  0  0  0  0
 26 46  1  0  0  0  0
 27 28  1  0  0  0  0
 27 47  1  0  0  0  0
 28 29  1  1  0  0  0
 28 30  1  0  0  0  0
 29 48  1  0  0  0  0
 29 49  1  0  0  0  0
 30 31  1  0  0  0  0
 31 50  1  0  0  0  0
 31 51  1  0  0  0  0
 31 52  1  0  0  0  0
M  END
