3zlo_ligand
 OpenBabel08222323353D

 62 67  0  0  0  0  0  0  0  0999 V2000
    8.7650  -31.1510    6.8190 O   0  5  0  0  0  0  0  0  0  0  0  0
    9.3840  -32.2090    6.5020 C   0  0  0  0  0  0  0  0  0  0  0  0
    8.9180  -32.9600    5.6190 O   0  0  0  0  0  0  0  0  0  0  0  0
   10.6860  -32.6750    7.1060 C   0  0  0  0  0  0  0  0  0  0  0  0
   11.2810  -33.8560    6.7660 N   0  0  0  0  0  0  0  0  0  0  0  0
   11.4020  -31.9310    8.0640 C   0  0  0  0  0  0  0  0  0  0  0  0
   11.0520  -30.6070    8.6790 C   0  0  0  0  0  0  0  0  0  0  0  0
   10.6100  -30.8470   10.1190 C   0  0  0  0  0  0  0  0  0  0  0  0
    9.9610  -29.5800   10.6550 C   0  0  0  0  0  0  0  0  0  0  0  0
   10.9550  -28.4360   10.5340 C   0  0  0  0  0  0  0  0  0  0  0  0
   10.4910  -27.1580   11.2200 C   0  0  0  0  0  0  0  0  0  0  0  0
   10.4450  -27.0840   12.6120 C   0  0  0  0  0  0  0  0  0  0  0  0
   10.0160  -25.9030   13.2200 C   0  0  0  0  0  0  0  0  0  0  0  0
    9.6510  -24.8010   12.4500 C   0  0  0  0  0  0  0  0  0  0  0  0
    9.7000  -24.8720   11.0590 C   0  0  0  0  0  0  0  0  0  0  0  0
   10.1220  -26.0540   10.4490 C   0  0  0  0  0  0  0  0  0  0  0  0
   12.8500  -32.7850    8.5250 S   0  0  0  0  0  0  0  0  0  0  0  0
   12.4450  -34.0800    7.4360 C   0  0  0  0  0  0  0  0  0  0  0  0
   13.4040  -35.1170    7.1980 C   0  0  0  0  0  0  0  0  0  0  0  0
   13.3440  -35.8120    6.0040 C   0  0  0  0  0  0  0  0  0  0  0  0
   14.2550  -36.8280    5.7420 C   0  0  0  0  0  0  0  0  0  0  0  0
   15.2420  -37.1510    6.6620 C   0  0  0  0  0  0  0  0  0  0  0  0
   16.2260  -38.2580    6.3250 C   0  0  0  0  0  0  0  0  0  0  0  0
   16.6510  -39.0450    7.5620 C   0  0  0  0  0  0  0  0  0  0  0  0
   17.1500  -38.1490    8.6900 C   0  0  0  0  0  0  0  0  0  0  0  0
   14.3980  -35.4330    8.1310 C   0  0  0  0  0  0  0  0  0  0  0  0
   15.3120  -36.4630    7.8690 C   0  0  0  0  0  0  0  0  0  0  0  0
   16.4220  -36.8230    8.8110 C   0  0  0  0  0  0  0  0  0  0  0  0
   16.8080  -36.0010    9.6820 N   0  0  0  0  0  0  0  0  0  0  0  0
   17.8100  -36.2560   10.5090 N   0  0  0  0  0  0  0  0  0  0  0  0
   18.3820  -35.2210   11.1660 C   0  0  0  0  0  0  0  0  0  0  0  0
   17.9650  -33.5530   10.8620 S   0  0  0  0  0  0  0  0  0  0  0  0
   19.0920  -33.1100   12.0460 C   0  0  0  0  0  0  0  0  0  0  0  0
   19.4150  -31.8270   12.4790 C   0  0  0  0  0  0  0  0  0  0  0  0
   20.3710  -31.6950   13.4820 C   0  0  0  0  0  0  0  0  0  0  0  0
   19.2590  -35.4410   12.0550 N   0  0  0  0  0  0  0  0  0  0  0  0
   19.7000  -34.2400   12.6000 C   0  0  0  0  0  0  0  0  0  0  0  0
   20.6560  -34.0870   13.6080 C   0  0  0  0  0  0  0  0  0  0  0  0
   20.9900  -32.8130   14.0440 C   0  0  0  0  0  0  0  0  0  0  0  0
   10.2336  -30.1388    8.1124 H   0  0  0  0  0  0  0  0  0  0  0  0
   11.9318  -29.9469    8.6656 H   0  0  0  0  0  0  0  0  0  0  0  0
   11.4843  -31.1028   10.7355 H   0  0  0  0  0  0  0  0  0  0  0  0
    9.8853  -31.6739   10.1495 H   0  0  0  0  0  0  0  0  0  0  0  0
    9.6869  -29.7223   11.7107 H   0  0  0  0  0  0  0  0  0  0  0  0
    9.0586  -29.3499   10.0696 H   0  0  0  0  0  0  0  0  0  0  0  0
   11.1121  -28.2217    9.4666 H   0  0  0  0  0  0  0  0  0  0  0  0
   11.9060  -28.7505   10.9887 H   0  0  0  0  0  0  0  0  0  0  0  0
   10.7394  -27.9349   13.2156 H   0  0  0  0  0  0  0  0  0  0  0  0
    9.9664  -25.8429   14.3012 H   0  0  0  0  0  0  0  0  0  0  0  0
    9.3282  -23.8862   12.9338 H   0  0  0  0  0  0  0  0  0  0  0  0
    9.4131  -24.0175   10.4569 H   0  0  0  0  0  0  0  0  0  0  0  0
   10.1637  -26.1156    9.3675 H   0  0  0  0  0  0  0  0  0  0  0  0
   12.5849  -35.5638    5.2711 H   0  0  0  0  0  0  0  0  0  0  0  0
   14.1938  -37.3746    4.8079 H   0  0  0  0  0  0  0  0  0  0  0  0
   16.5845  -38.4649    5.3232 H   0  0  0  0  0  0  0  0  0  0  0  0
   16.6031  -40.1257    7.6310 H   0  0  0  0  0  0  0  0  0  0  0  0
   17.9591  -38.4358    9.3519 H   0  0  0  0  0  0  0  0  0  0  0  0
   14.4614  -34.8788    9.0605 H   0  0  0  0  0  0  0  0  0  0  0  0
   18.9357  -30.9557   12.0474 H   0  0  0  0  0  0  0  0  0  0  0  0
   20.6400  -30.7054   13.8334 H   0  0  0  0  0  0  0  0  0  0  0  0
   21.1326  -34.9567   14.0456 H   0  0  0  0  0  0  0  0  0  0  0  0
   21.7332  -32.6854   14.8227 H   0  0  0  0  0  0  0  0  0  0  0  0
  1  2  1  0  0  0  0
  2  3  2  0  0  0  0
  2  4  1  0  0  0  0
  4  5  1  0  0  0  0
  4  6  2  0  0  0  0
  5 18  2  0  0  0  0
  6  7  1  0  0  0  0
  6 17  1  0  0  0  0
  7  8  1  0  0  0  0
  7 40  1  0  0  0  0
  7 41  1  0  0  0  0
  8  9  1  0  0  0  0
  8 42  1  0  0  0  0
  8 43  1  0  0  0  0
  9 10  1  0  0  0  0
  9 44  1  0  0  0  0
  9 45  1  0  0  0  0
 10 11  1  0  0  0  0
 10 46  1  0  0  0  0
 10 47  1  0  0  0  0
 11 12  2  0  0  0  0
 11 16  1  0  0  0  0
 12 13  1  0  0  0  0
 12 48  1  0  0  0  0
 13 14  2  0  0  0  0
 13 49  1  0  0  0  0
 14 15  1  0  0  0  0
 14 50  1  0  0  0  0
 15 16  2  0  0  0  0
 15 51  1  0  0  0  0
 16 52  1  0  0  0  0
 17 18  1  0  0  0  0
 18 19  1  0  0  0  0
 19 20  2  0  0  0  0
 19 26  1  0  0  0  0
 20 21  1  0  0  0  0
 20 53  1  0  0  0  0
 21 22  2  0  0  0  0
 21 54  1  0  0  0  0
 22 23  1  0  0  0  0
 22 27  1  0  0  0  0
 23 24  2  0  0  0  0
 23 55  1  0  0  0  0
 24 25  1  0  0  0  0
 24 56  1  0  0  0  0
 25 28  2  0  0  0  0
 25 57  1  0  0  0  0
 26 27  2  0  0  0  0
 26 58  1  0  0  0  0
 27 28  1  0  0  0  0
 28 29  1  0  0  0  0
 29 30  2  0  0  0  0
 30 31  1  0  0  0  0
 31 32  1  0  0  0  0
 31 36  2  0  0  0  0
 32 33  1  0  0  0  0
 33 34  2  0  0  0  0
 33 37  1  0  0  0  0
 34 35  1  0  0  0  0
 34 59  1  0  0  0  0
 35 39  2  0  0  0  0
 35 60  1  0  0  0  0
 36 37  1  0  0  0  0
 37 38  2  0  0  0  0
 38 39  1  0  0  0  0
 38 61  1  0  0  0  0
 39 62  1  0  0  0  0
M  CHG  1   1  -1
M  END
