3zlq_ligand
 OpenBabel08222323353D

 49 51  0  0  1  0  0  0  0  0999 V2000
    3.9690  -24.1610   15.7570 C   0  0  0  0  0  0  0  0  0  0  0  0
    4.6600  -25.2650   16.6170 C   0  0  0  0  0  0  0  0  0  0  0  0
    2.5310  -24.1490   15.9220 O   0  0  0  0  0  0  0  0  0  0  0  0
    2.0350  -24.6660   17.0920 C   0  0  2  0  0  3  0  0  0  0  0  0
    2.7510  -25.1440   18.0750 N   0  0  0  0  0  0  0  0  0  0  0  0
    4.2230  -25.2100   18.0900 C   0  0  2  0  0  0  0  0  0  0  0  0
    4.8380  -23.9650   18.7130 C   0  0  0  0  0  0  0  0  0  0  0  0
    3.9890  -22.9280   18.9110 C   0  0  0  0  0  0  0  0  0  0  0  0
    4.4530  -21.7610   19.4530 C   0  0  0  0  0  0  0  0  0  0  0  0
    5.7910  -21.6230   19.7640 C   0  0  0  0  0  0  0  0  0  0  0  0
    6.6720  -22.6650   19.5320 C   0  0  0  0  0  0  0  0  0  0  0  0
    6.1830  -23.8380   19.0140 C   0  0  0  0  0  0  0  0  0  0  0  0
    7.0310  -24.8760   18.7830 F   0  0  0  0  0  0  0  0  0  0  0  0
    0.6890  -24.6870   17.1950 N   0  0  0  0  0  0  0  0  0  0  0  0
    4.7160  -26.4610   18.8330 C   0  0  0  0  0  0  0  0  0  0  0  0
    3.4960  -20.7780   19.6230 N   0  0  0  0  0  0  0  0  0  0  0  0
    3.9080  -19.6150   20.0650 C   0  0  0  0  0  0  0  0  0  0  0  0
    2.9280  -18.5500   20.1940 C   0  0  0  0  0  0  0  0  0  0  0  0
    5.0650  -19.4470   20.2630 O   0  0  0  0  0  0  0  0  0  0  0  0
    1.6490  -18.9340   20.2130 N   0  0  0  0  0  0  0  0  0  0  0  0
    0.6790  -18.0750   20.3080 C   0  0  0  0  0  0  0  0  0  0  0  0
    1.0250  -16.7270   20.3880 C   0  0  0  0  0  0  0  0  0  0  0  0
    2.3290  -16.2970   20.3510 C   0  0  0  0  0  0  0  0  0  0  0  0
    3.3430  -17.2300   20.2440 C   0  0  0  0  0  0  0  0  0  0  0  0
    0.0420  -15.8290   20.4320 O   0  0  0  0  0  0  0  0  0  0  0  0
    4.3070  -26.5660   16.2630 F   0  0  0  0  0  0  0  0  0  0  0  0
    6.0310  -24.9890   16.4810 F   0  0  0  0  0  0  0  0  0  0  0  0
   -1.1980  -16.2370   19.8920 C   0  0  0  0  0  0  0  0  0  0  0  0
   -2.2520  -16.4410   20.9700 C   0  0  0  0  0  0  0  0  0  0  0  0
    4.2009  -24.3427   14.6972 H   0  0  0  0  0  0  0  0  0  0  0  0
    4.3666  -23.1801   16.0565 H   0  0  0  0  0  0  0  0  0  0  0  0
    2.2493  -25.5011   18.9006 H   0  0  0  0  0  0  0  0  0  0  0  0
    2.9436  -23.0229   18.6403 H   0  0  0  0  0  0  0  0  0  0  0  0
    6.1530  -20.6950   20.1915 H   0  0  0  0  0  0  0  0  0  0  0  0
    7.7273  -22.5567   19.7550 H   0  0  0  0  0  0  0  0  0  0  0  0
    0.2433  -25.0610   18.0449 H   0  0  0  0  0  0  0  0  0  0  0  0
    0.1078  -24.3291   16.4236 H   0  0  0  0  0  0  0  0  0  0  0  0
    4.3983  -26.4117   19.8850 H   0  0  0  0  0  0  0  0  0  0  0  0
    5.8139  -26.5081   18.7834 H   0  0  0  0  0  0  0  0  0  0  0  0
    4.2888  -27.3590   18.3627 H   0  0  0  0  0  0  0  0  0  0  0  0
    2.5320  -20.9468   19.4178 H   0  0  0  0  0  0  0  0  0  0  0  0
   -0.3570  -18.3935   20.3244 H   0  0  0  0  0  0  0  0  0  0  0  0
    2.5599  -15.2392   20.4050 H   0  0  0  0  0  0  0  0  0  0  0  0
    4.3889  -16.9484   20.2022 H   0  0  0  0  0  0  0  0  0  0  0  0
   -1.0552  -17.1845   19.3518 H   0  0  0  0  0  0  0  0  0  0  0  0
   -1.5512  -15.4654   19.1921 H   0  0  0  0  0  0  0  0  0  0  0  0
   -3.1969  -16.7570   20.5038 H   0  0  0  0  0  0  0  0  0  0  0  0
   -2.4087  -15.4973   21.5129 H   0  0  0  0  0  0  0  0  0  0  0  0
   -1.9126  -17.2163   21.6726 H   0  0  0  0  0  0  0  0  0  0  0  0
  1  2  1  0  0  0  0
  1  3  1  0  0  0  0
  1 30  1  0  0  0  0
  1 31  1  0  0  0  0
  2  6  1  0  0  0  0
  2 26  1  0  0  0  0
  2 27  1  0  0  0  0
  3  4  1  0  0  0  0
  4  5  1  0  0  0  0
  4 14  1  6  0  0  0
  5  6  1  0  0  0  0
  5 32  1  0  0  0  0
  6  7  1  0  0  0  0
  6 15  1  1  0  0  0
  7  8  2  0  0  0  0
  7 12  1  0  0  0  0
  8  9  1  0  0  0  0
  8 33  1  0  0  0  0
  9 10  2  0  0  0  0
  9 16  1  0  0  0  0
 10 11  1  0  0  0  0
 10 34  1  0  0  0  0
 11 12  2  0  0  0  0
 11 35  1  0  0  0  0
 12 13  1  0  0  0  0
 14 36  1  0  0  0  0
 14 37  1  0  0  0  0
 15 38  1  0  0  0  0
 15 39  1  0  0  0  0
 15 40  1  0  0  0  0
 16 17  1  0  0  0  0
 16 41  1  0  0  0  0
 17 18  1  0  0  0  0
 17 19  2  0  0  0  0
 18 20  2  0  0  0  0
 18 24  1  0  0  0  0
 20 21  1  0  0  0  0
 21 22  2  0  0  0  0
 21 42  1  0  0  0  0
 22 23  1  0  0  0  0
 22 25  1  0  0  0  0
 23 24  2  0  0  0  0
 23 43  1  0  0  0  0
 24 44  1  0  0  0  0
 25 28  1  0  0  0  0
 28 29  1  0  0  0  0
 28 45  1  0  0  0  0
 28 46  1  0  0  0  0
 29 47  1  0  0  0  0
 29 48  1  0  0  0  0
 29 49  1  0  0  0  0
M  END
