3zls_ligand
 OpenBabel08222323353D

 21 22  0  0  0  0  0  0  0  0999 V2000
  -20.8130   26.5030   -3.0130 C   0  0  0  0  0  0  0  0  0  0  0  0
  -22.0960   27.0270   -2.9910 C   0  0  0  0  0  0  0  0  0  0  0  0
  -22.3640   28.3400   -2.8990 N   0  0  0  0  0  0  0  0  0  0  0  0
  -19.7350   27.3720   -2.9290 C   0  0  0  0  0  0  0  0  0  0  0  0
  -21.3460   30.5430   -2.7430 N   0  0  0  0  0  0  0  0  0  0  0  0
  -20.0550   30.9960   -2.7100 C   0  0  0  0  0  0  0  0  0  0  0  0
  -19.1760   29.9330   -2.7550 C   0  0  0  0  0  0  0  0  0  0  0  0
  -19.9890   28.7380   -2.8200 C   0  0  0  0  0  0  0  0  0  0  0  0
  -21.3130   29.1800   -2.8090 C   0  0  0  0  0  0  0  0  0  0  0  0
  -17.6920   29.9480   -2.7900 C   0  0  0  0  0  0  0  0  0  0  0  0
  -16.9990   28.9590   -2.8270 O   0  0  0  0  0  0  0  0  0  0  0  0
  -17.2110   31.1930   -2.8010 O   0  0  0  0  0  0  0  0  0  0  0  0
  -15.7750   31.3290   -2.6990 C   0  0  0  0  0  0  0  0  0  0  0  0
  -20.6549   25.4337   -3.0944 H   0  0  0  0  0  0  0  0  0  0  0  0
  -22.9306   26.3380   -3.0515 H   0  0  0  0  0  0  0  0  0  0  0  0
  -18.7181   26.9971   -2.9477 H   0  0  0  0  0  0  0  0  0  0  0  0
  -22.1936   31.1278   -2.7218 H   0  0  0  0  0  0  0  0  0  0  0  0
  -19.7634   32.0439   -2.6560 H   0  0  0  0  0  0  0  0  0  0  0  0
  -15.5054   32.3953   -2.7190 H   0  0  0  0  0  0  0  0  0  0  0  0
  -15.2969   30.8140   -3.5452 H   0  0  0  0  0  0  0  0  0  0  0  0
  -15.4304   30.8814   -1.7552 H   0  0  0  0  0  0  0  0  0  0  0  0
  1  4  1  0  0  0  0
  1 14  1  0  0  0  0
  2  1  2  0  0  0  0
  2 15  1  0  0  0  0
  3  2  1  0  0  0  0
  4  8  2  0  0  0  0
  4 16  1  0  0  0  0
  5  6  1  0  0  0  0
  5  9  1  0  0  0  0
  5 17  1  0  0  0  0
  6  7  2  0  0  0  0
  6 18  1  0  0  0  0
  7  8  1  0  0  0  0
  7 10  1  0  0  0  0
  8  9  1  0  0  0  0
  9  3  2  0  0  0  0
 10 11  2  0  0  0  0
 10 12  1  0  0  0  0
 12 13  1  0  0  0  0
 13 19  1  0  0  0  0
 13 20  1  0  0  0  0
 13 21  1  0  0  0  0
M  END
