3zlw_ligand
 OpenBabel08222323353D

 31 33  0  0  1  0  0  0  0  0999 V2000
  -17.2690   29.3540   -3.0350 C   0  0  1  0  0  0  0  0  0  0  0  0
  -16.8550   29.5960   -1.7480 O   0  0  0  0  0  0  0  0  0  0  0  0
  -18.4940   30.2360   -3.2510 C   0  0  0  0  0  0  0  0  0  0  0  0
  -19.6990   29.7600   -2.4490 C   0  0  0  0  0  0  0  0  0  0  0  0
  -16.1080   29.7550   -3.9590 C   0  0  0  0  0  0  0  0  0  0  0  0
  -20.1020   28.3910   -2.8250 N   0  0  0  0  0  0  0  0  0  0  0  0
  -21.4240   28.0340   -2.8800 C   0  0  0  0  0  0  0  0  0  0  0  0
  -22.3440   28.8000   -2.5950 O   0  0  0  0  0  0  0  0  0  0  0  0
  -21.7330   26.6230   -3.3000 C   0  0  0  0  0  0  0  0  0  0  0  0
  -20.6930   25.5980   -2.9400 C   0  0  0  0  0  0  0  0  0  0  0  0
  -19.2780   26.0680   -3.1640 C   0  0  0  0  0  0  0  0  0  0  0  0
  -18.2440   25.1560   -3.3830 C   0  0  0  0  0  0  0  0  0  0  0  0
  -16.9280   25.5800   -3.5040 C   0  0  0  0  0  0  0  0  0  0  0  0
  -16.6120   26.9280   -3.3950 C   0  0  0  0  0  0  0  0  0  0  0  0
  -18.9760   27.4450   -3.0600 C   0  0  0  0  0  0  0  0  0  0  0  0
  -17.6190   27.8650   -3.1680 C   0  0  0  0  0  0  0  0  0  0  0  0
  -16.0883   29.0681   -1.5586 H   0  0  0  0  0  0  0  0  0  0  0  0
  -18.7538   30.2247   -4.3198 H   0  0  0  0  0  0  0  0  0  0  0  0
  -18.2485   31.2634   -2.9441 H   0  0  0  0  0  0  0  0  0  0  0  0
  -20.5417   30.4425   -2.6337 H   0  0  0  0  0  0  0  0  0  0  0  0
  -19.4430   29.7745   -1.3793 H   0  0  0  0  0  0  0  0  0  0  0  0
  -16.3948   29.5778   -5.0061 H   0  0  0  0  0  0  0  0  0  0  0  0
  -15.2204   29.1528   -3.7151 H   0  0  0  0  0  0  0  0  0  0  0  0
  -15.8780   30.8213   -3.8172 H   0  0  0  0  0  0  0  0  0  0  0  0
  -21.8539   26.6136   -4.3933 H   0  0  0  0  0  0  0  0  0  0  0  0
  -22.6794   26.3272   -2.8238 H   0  0  0  0  0  0  0  0  0  0  0  0
  -20.8624   24.7007   -3.5534 H   0  0  0  0  0  0  0  0  0  0  0  0
  -20.8101   25.3427   -1.8765 H   0  0  0  0  0  0  0  0  0  0  0  0
  -18.4727   24.0992   -3.4598 H   0  0  0  0  0  0  0  0  0  0  0  0
  -16.1425   24.8551   -3.6846 H   0  0  0  0  0  0  0  0  0  0  0  0
  -15.5815   27.2518   -3.4865 H   0  0  0  0  0  0  0  0  0  0  0  0
  1  2  1  1  0  0  0
  1  3  1  0  0  0  0
  1  5  1  0  0  0  0
  1 16  1  0  0  0  0
  2 17  1  0  0  0  0
  3  4  1  0  0  0  0
  3 18  1  0  0  0  0
  3 19  1  0  0  0  0
  4  6  1  0  0  0  0
  4 20  1  0  0  0  0
  4 21  1  0  0  0  0
  5 22  1  0  0  0  0
  5 23  1  0  0  0  0
  5 24  1  0  0  0  0
  6  7  1  0  0  0  0
  6 15  1  0  0  0  0
  7  8  2  0  0  0  0
  7  9  1  0  0  0  0
  9 10  1  0  0  0  0
  9 25  1  0  0  0  0
  9 26  1  0  0  0  0
 10 11  1  0  0  0  0
 10 27  1  0  0  0  0
 10 28  1  0  0  0  0
 11 12  2  0  0  0  0
 11 15  1  0  0  0  0
 12 13  1  0  0  0  0
 12 29  1  0  0  0  0
 13 14  2  0  0  0  0
 13 30  1  0  0  0  0
 14 16  1  0  0  0  0
 14 31  1  0  0  0  0
 15 16  2  0  0  0  0
M  END
