3zm4_ligand
 OpenBabel08222323353D

 32 34  0  0  1  0  0  0  0  0999 V2000
  -19.0190   25.2900   -3.2610 Cl  0  0  0  0  0  0  0  0  0  0  0  0
  -19.1530   27.0080   -3.0440 C   0  0  0  0  0  0  0  0  0  0  0  0
  -20.4100   27.5660   -2.9160 C   0  0  0  0  0  0  0  0  0  0  0  0
  -20.5510   28.9490   -2.8100 C   0  0  0  0  0  0  0  0  0  0  0  0
  -21.8970   29.5390   -2.7600 C   0  0  0  0  0  0  0  0  0  0  0  0
  -22.9180   28.8770   -2.6270 O   0  0  0  0  0  0  0  0  0  0  0  0
  -21.9360   30.9280   -2.7640 N   0  0  0  0  0  0  0  0  0  0  0  0
  -20.8210   31.7060   -2.7600 C   0  0  0  0  0  0  0  0  0  0  0  0
  -19.3930   29.7700   -2.8130 C   0  0  0  0  0  0  0  0  0  0  0  0
  -18.1330   29.1770   -2.9160 C   0  0  0  0  0  0  0  0  0  0  0  0
  -18.0050   27.8000   -3.0320 C   0  0  0  0  0  0  0  0  0  0  0  0
  -16.8080   27.1270   -3.1150 O   0  0  0  0  0  0  0  0  0  0  0  0
  -15.5420   27.8730   -3.1080 C   0  0  2  0  0  0  0  0  0  0  0  0
  -15.1170   28.1720   -4.5800 C   0  0  0  0  0  0  0  0  0  0  0  0
  -19.5480   31.2000   -2.7690 C   0  0  0  0  0  0  0  0  0  0  0  0
  -14.5230   26.8800   -2.5820 C   0  0  0  0  0  0  0  0  0  0  0  0
  -13.9880   26.1850   -3.8560 C   0  0  0  0  0  0  0  0  0  0  0  0
  -14.0970   27.1730   -4.9730 N   0  3  0  0  0  0  0  0  0  0  0  0
  -21.2867   26.9287   -2.8980 H   0  0  0  0  0  0  0  0  0  0  0  0
  -20.9464   32.7877   -2.7491 H   0  0  0  0  0  0  0  0  0  0  0  0
  -17.2452   29.7990   -2.9052 H   0  0  0  0  0  0  0  0  0  0  0  0
  -15.6014   28.7891   -2.5020 H   0  0  0  0  0  0  0  0  0  0  0  0
  -14.6933   29.1848   -4.6479 H   0  0  0  0  0  0  0  0  0  0  0  0
  -15.9906   28.0947   -5.2440 H   0  0  0  0  0  0  0  0  0  0  0  0
  -19.0473   31.5560   -1.8565 H   0  0  0  0  0  0  0  0  0  0  0  0
  -19.0376   31.6123   -3.6519 H   0  0  0  0  0  0  0  0  0  0  0  0
  -14.9982   26.1511   -1.9090 H   0  0  0  0  0  0  0  0  0  0  0  0
  -13.7119   27.3972   -2.0486 H   0  0  0  0  0  0  0  0  0  0  0  0
  -14.5909   25.2929   -4.0809 H   0  0  0  0  0  0  0  0  0  0  0  0
  -12.9377   25.8912   -3.7130 H   0  0  0  0  0  0  0  0  0  0  0  0
  -13.2089   27.6265   -5.1201 H   0  0  0  0  0  0  0  0  0  0  0  0
  -14.3802   26.7059   -5.8201 H   0  0  0  0  0  0  0  0  0  0  0  0
  1  2  1  0  0  0  0
  2  3  2  0  0  0  0
  2 11  1  0  0  0  0
  3  4  1  0  0  0  0
  3 19  1  0  0  0  0
  4  5  1  0  0  0  0
  4  9  2  0  0  0  0
  5  6  2  0  0  0  0
  5  7  1  0  0  0  0
  7  8  2  0  0  0  0
  8 15  1  0  0  0  0
  8 20  1  0  0  0  0
  9 10  1  0  0  0  0
  9 15  1  0  0  0  0
 10 11  2  0  0  0  0
 10 21  1  0  0  0  0
 11 12  1  0  0  0  0
 12 13  1  0  0  0  0
 13 14  1  0  0  0  0
 13 16  1  0  0  0  0
 13 22  1  1  0  0  0
 14 18  1  0  0  0  0
 14 23  1  0  0  0  0
 14 24  1  0  0  0  0
 15 25  1  0  0  0  0
 15 26  1  0  0  0  0
 16 17  1  0  0  0  0
 16 27  1  0  0  0  0
 16 28  1  0  0  0  0
 17 18  1  0  0  0  0
 17 29  1  0  0  0  0
 17 30  1  0  0  0  0
 18 31  1  0  0  0  0
 18 32  1  0  0  0  0
M  CHG  1  18   1
M  END
