3zmh_ligand
 OpenBabel08222323353D

 38 39  0  0  1  0  0  0  0  0999 V2000
   -9.3550    9.4660  -49.0620 O   0  0  0  0  0  0  0  0  0  0  0  0
   -9.9230    8.6400  -48.3530 C   0  0  0  0  0  0  0  0  0  0  0  0
   -9.9900    8.8760  -46.9950 O   0  0  0  0  0  0  0  0  0  0  0  0
   -9.0750    9.7390  -46.4100 C   0  0  0  0  0  0  0  0  0  0  0  0
   -9.7280   11.0550  -46.2470 C   0  0  0  0  0  0  0  0  0  0  0  0
  -10.4230   10.8250  -44.9430 C   0  0  0  0  0  0  0  0  0  0  0  0
   -9.3600   10.1470  -44.1130 C   0  0  0  0  0  0  0  0  0  0  0  0
   -8.6690    9.2340  -45.0700 C   0  0  0  0  0  0  0  0  0  0  0  0
  -10.4520    7.4330  -48.9160 N   0  0  0  0  0  0  0  0  0  0  0  0
  -10.4180    7.4640  -50.3510 C   0  0  2  0  0  0  0  0  0  0  0  0
  -11.7960    7.2000  -50.8670 C   0  0  0  0  0  0  0  0  0  0  0  0
  -12.7330    8.1680  -50.2290 C   0  0  0  0  0  0  0  0  0  0  0  0
  -12.4980    9.3770  -50.2980 O   0  0  0  0  0  0  0  0  0  0  0  0
   -9.4640    6.4380  -50.8730 C   0  0  0  0  0  0  0  0  0  0  0  0
   -9.8120    5.6680  -51.9780 C   0  0  0  0  0  0  0  0  0  0  0  0
   -8.9360    4.7110  -52.4720 C   0  0  0  0  0  0  0  0  0  0  0  0
   -7.6970    4.5200  -51.8690 C   0  0  0  0  0  0  0  0  0  0  0  0
   -7.3360    5.2960  -50.7740 C   0  0  0  0  0  0  0  0  0  0  0  0
   -8.2180    6.2430  -50.2780 C   0  0  0  0  0  0  0  0  0  0  0  0
   -8.1880    9.8339  -47.0535 H   0  0  0  0  0  0  0  0  0  0  0  0
  -10.4391   11.2639  -47.0598 H   0  0  0  0  0  0  0  0  0  0  0  0
   -8.9944   11.8721  -46.1826 H   0  0  0  0  0  0  0  0  0  0  0  0
  -11.3007   10.1744  -45.0710 H   0  0  0  0  0  0  0  0  0  0  0  0
  -10.7350   11.7762  -44.4870 H   0  0  0  0  0  0  0  0  0  0  0  0
   -9.8140    9.5764  -43.2894 H   0  0  0  0  0  0  0  0  0  0  0  0
   -8.6561   10.8860  -43.7027 H   0  0  0  0  0  0  0  0  0  0  0  0
   -7.5776    9.2910  -44.9453 H   0  0  0  0  0  0  0  0  0  0  0  0
   -9.0006    8.1950  -44.9272 H   0  0  0  0  0  0  0  0  0  0  0  0
  -10.8008    6.6660  -48.3774 H   0  0  0  0  0  0  0  0  0  0  0  0
  -10.0894    8.4593  -50.6848 H   0  0  0  0  0  0  0  0  0  0  0  0
  -12.0960    6.1721  -50.6151 H   0  0  0  0  0  0  0  0  0  0  0  0
  -11.8147    7.3303  -51.9591 H   0  0  0  0  0  0  0  0  0  0  0  0
  -13.6186    7.8104  -49.7058 H   0  0  0  0  0  0  0  0  0  0  0  0
  -10.7734    5.8162  -52.4564 H   0  0  0  0  0  0  0  0  0  0  0  0
   -9.2181    4.1111  -53.3297 H   0  0  0  0  0  0  0  0  0  0  0  0
   -7.0157    3.7688  -52.2517 H   0  0  0  0  0  0  0  0  0  0  0  0
   -6.3663    5.1608  -50.3087 H   0  0  0  0  0  0  0  0  0  0  0  0
   -7.9360    6.8390  -49.4176 H   0  0  0  0  0  0  0  0  0  0  0  0
  1  2  2  0  0  0  0
  2  3  1  0  0  0  0
  2  9  1  0  0  0  0
  3  4  1  0  0  0  0
  4  5  1  0  0  0  0
  4  8  1  0  0  0  0
  4 20  1  0  0  0  0
  5  6  1  0  0  0  0
  5 21  1  0  0  0  0
  5 22  1  0  0  0  0
  6  7  1  0  0  0  0
  6 23  1  0  0  0  0
  6 24  1  0  0  0  0
  7  8  1  0  0  0  0
  7 25  1  0  0  0  0
  7 26  1  0  0  0  0
  8 27  1  0  0  0  0
  8 28  1  0  0  0  0
  9 10  1  0  0  0  0
  9 29  1  0  0  0  0
 10 11  1  0  0  0  0
 10 14  1  0  0  0  0
 10 30  1  6  0  0  0
 11 12  1  0  0  0  0
 11 31  1  0  0  0  0
 11 32  1  0  0  0  0
 12 13  2  0  0  0  0
 12 33  1  0  0  0  0
 14 15  2  0  0  0  0
 14 19  1  0  0  0  0
 15 16  1  0  0  0  0
 15 34  1  0  0  0  0
 16 17  2  0  0  0  0
 16 35  1  0  0  0  0
 17 18  1  0  0  0  0
 17 36  1  0  0  0  0
 18 19  2  0  0  0  0
 18 37  1  0  0  0  0
 19 38  1  0  0  0  0
M  END
