3zmj_ligand
 OpenBabel08222323353D

 37 37  0  0  1  0  0  0  0  0999 V2000
  -12.2380   -9.1800   49.8770 O   0  0  0  0  0  0  0  0  0  0  0  0
  -12.6550   -8.0420   50.1590 C   0  0  0  0  0  0  0  0  0  0  0  0
  -11.8200   -7.1110   50.9760 C   0  0  0  0  0  0  0  0  0  0  0  0
  -10.4030   -7.2390   50.5270 C   0  0  1  0  0  0  0  0  0  0  0  0
  -10.4020   -7.0590   49.0980 N   0  0  0  0  0  0  0  0  0  0  0  0
   -9.2250   -7.5900   48.4370 C   0  0  0  0  0  0  0  0  0  0  0  0
   -9.4450   -8.7210   47.6400 O   0  0  0  0  0  0  0  0  0  0  0  0
   -8.9950   -8.5590   46.3700 C   0  0  0  0  0  0  0  0  0  0  0  0
   -8.3710   -6.8310   48.0070 O   0  0  0  0  0  0  0  0  0  0  0  0
   -9.5950   -6.1990   51.2350 C   0  0  0  0  0  0  0  0  0  0  0  0
   -8.3950   -5.7120   50.7460 C   0  0  0  0  0  0  0  0  0  0  0  0
   -7.6630   -4.7450   51.4350 C   0  0  0  0  0  0  0  0  0  0  0  0
   -8.1530   -4.2550   52.6490 C   0  0  0  0  0  0  0  0  0  0  0  0
   -9.3460   -4.7270   53.1570 C   0  0  0  0  0  0  0  0  0  0  0  0
  -10.0630   -5.6940   52.4630 C   0  0  0  0  0  0  0  0  0  0  0  0
   -8.9090   -9.9470   45.7150 C   0  0  0  0  0  0  0  0  0  0  0  0
   -8.6810   -9.6470   44.3310 C   0  0  0  0  0  0  0  0  0  0  0  0
  -10.2080  -10.6250   45.9550 C   0  0  0  0  0  0  0  0  0  0  0  0
  -13.6351   -7.7227   49.8079 H   0  0  0  0  0  0  0  0  0  0  0  0
  -11.8987   -7.3772   52.0404 H   0  0  0  0  0  0  0  0  0  0  0  0
  -12.1647   -6.0766   50.8302 H   0  0  0  0  0  0  0  0  0  0  0  0
  -10.0095   -8.2362   50.7736 H   0  0  0  0  0  0  0  0  0  0  0  0
  -11.1464   -6.6081   48.6054 H   0  0  0  0  0  0  0  0  0  0  0  0
   -7.9998   -8.0906   46.3836 H   0  0  0  0  0  0  0  0  0  0  0  0
   -9.6922   -7.9225   45.8054 H   0  0  0  0  0  0  0  0  0  0  0  0
   -8.0148   -6.0915   49.8044 H   0  0  0  0  0  0  0  0  0  0  0  0
   -6.7253   -4.3779   51.0338 H   0  0  0  0  0  0  0  0  0  0  0  0
   -7.5942   -3.5021   53.1929 H   0  0  0  0  0  0  0  0  0  0  0  0
   -9.7240   -4.3433   54.0977 H   0  0  0  0  0  0  0  0  0  0  0  0
  -10.9956   -6.0647   52.8728 H   0  0  0  0  0  0  0  0  0  0  0  0
   -8.0855  -10.5490   46.1267 H   0  0  0  0  0  0  0  0  0  0  0  0
   -8.6023  -10.5844   43.7608 H   0  0  0  0  0  0  0  0  0  0  0  0
   -7.7464   -9.0760   44.2287 H   0  0  0  0  0  0  0  0  0  0  0  0
   -9.5195   -9.0506   43.9421 H   0  0  0  0  0  0  0  0  0  0  0  0
  -10.3229  -10.8271   47.0301 H   0  0  0  0  0  0  0  0  0  0  0  0
  -10.2348  -11.5736   45.3987 H   0  0  0  0  0  0  0  0  0  0  0  0
  -11.0286   -9.9766   45.6141 H   0  0  0  0  0  0  0  0  0  0  0  0
  1  2  2  0  0  0  0
  2  3  1  0  0  0  0
  2 19  1  0  0  0  0
  3  4  1  0  0  0  0
  3 20  1  0  0  0  0
  3 21  1  0  0  0  0
  4  5  1  0  0  0  0
  4 10  1  0  0  0  0
  4 22  1  1  0  0  0
  5  6  1  0  0  0  0
  5 23  1  0  0  0  0
  6  7  1  0  0  0  0
  6  9  2  0  0  0  0
  7  8  1  0  0  0  0
  8 16  1  0  0  0  0
  8 24  1  0  0  0  0
  8 25  1  0  0  0  0
 10 11  2  0  0  0  0
 10 15  1  0  0  0  0
 11 12  1  0  0  0  0
 11 26  1  0  0  0  0
 12 13  2  0  0  0  0
 12 27  1  0  0  0  0
 13 14  1  0  0  0  0
 13 28  1  0  0  0  0
 14 15  2  0  0  0  0
 14 29  1  0  0  0  0
 15 30  1  0  0  0  0
 16 17  1  0  0  0  0
 16 18  1  0  0  0  0
 16 31  1  0  0  0  0
 17 32  1  0  0  0  0
 17 33  1  0  0  0  0
 17 34  1  0  0  0  0
 18 35  1  0  0  0  0
 18 36  1  0  0  0  0
 18 37  1  0  0  0  0
M  END
