3zmq_ligand
 OpenBabel08222323353D

102103  0  0  1  0  0  0  0  0999 V2000
    5.0660   -4.2640  -14.1280 N   0  3  0  0  0  0  0  0  0  0  0  0
    5.6250   -4.3570  -12.7930 C   0  0  2  0  0  0  0  0  0  0  0  0
    6.3040   -3.0610  -12.4010 C   0  0  0  0  0  0  0  0  0  0  0  0
    6.8490   -2.9360  -11.3160 O   0  0  0  0  0  0  0  0  0  0  0  0
    6.6130   -5.5060  -12.7090 C   0  0  0  0  0  0  0  0  0  0  0  0
    6.5120   -6.2910  -11.4220 C   0  0  0  0  0  0  0  0  0  0  0  0
    7.5100   -5.8240  -10.3970 C   0  0  0  0  0  0  0  0  0  0  0  0
    8.0750   -4.7340  -10.5790 O   0  5  0  0  0  0  0  0  0  0  0  0
    7.7240   -6.5480   -9.4110 O   0  0  0  0  0  0  0  0  0  0  0  0
    6.2510   -2.0870  -13.2900 N   0  0  0  0  0  0  0  0  0  0  0  0
    6.7660   -0.7690  -12.9990 C   0  0  2  0  0  0  0  0  0  0  0  0
    5.7520   -0.1150  -12.1070 C   0  0  0  0  0  0  0  0  0  0  0  0
    4.7090   -0.6880  -11.8520 O   0  0  0  0  0  0  0  0  0  0  0  0
    6.9450    0.0280  -14.2720 C   0  0  0  0  0  0  0  0  0  0  0  0
    6.0800    1.0480  -11.5720 N   0  0  0  0  0  0  0  0  0  0  0  0
    5.1250    1.7860  -10.7680 C   0  0  2  0  0  0  0  0  0  0  0  0
    4.6810    3.0590  -11.4720 C   0  0  0  0  0  0  0  0  0  0  0  0
    5.4920    3.8650  -11.8900 O   0  0  0  0  0  0  0  0  0  0  0  0
    5.7280    2.1190   -9.4080 C   0  0  0  0  0  0  0  0  0  0  0  0
    6.4860    0.9670   -8.7850 C   0  0  0  0  0  0  0  0  0  0  0  0
    7.7690    1.4160   -8.1480 C   0  0  0  0  0  0  0  0  0  0  0  0
    8.8320    0.8730   -8.4190 O   0  0  0  0  0  0  0  0  0  0  0  0
    7.6780    2.4200   -7.2980 N   0  0  0  0  0  0  0  0  0  0  0  0
    3.3800    3.2380  -11.5920 N   0  0  0  0  0  0  0  0  0  0  0  0
    2.8710    4.3890  -12.2390 C   0  0  2  0  0  0  0  0  0  0  0  0
    3.3220    5.5240  -11.4270 C   0  0  0  0  0  0  0  0  0  0  0  0
    3.7760    6.5610  -11.9460 O   0  0  0  0  0  0  0  0  0  0  0  0
    1.3990    4.2950  -12.1230 C   0  0  0  0  0  0  0  0  0  0  0  0
    0.6400    5.3870  -12.7910 C   0  0  0  0  0  0  0  0  0  0  0  0
    1.1190    6.6760  -12.9050 C   0  0  0  0  0  0  0  0  0  0  0  0
   -0.6040    5.0810  -13.2960 C   0  0  0  0  0  0  0  0  0  0  0  0
    0.3460    7.6420  -13.5340 C   0  0  0  0  0  0  0  0  0  0  0  0
   -1.3740    6.0410  -13.9210 C   0  0  0  0  0  0  0  0  0  0  0  0
   -0.8990    7.3210  -14.0390 C   0  0  0  0  0  0  0  0  0  0  0  0
   -1.7260    8.3410  -14.6990 C   0  0  0  0  0  0  0  0  0  0  0  0
   -0.9300    9.1930  -15.2700 F   0  0  0  0  0  0  0  0  0  0  0  0
   -2.5120    8.9390  -13.8410 F   0  0  0  0  0  0  0  0  0  0  0  0
   -2.7530    7.6430  -15.9810 P   0  0  0  0  0  0  0  0  0  0  0  0
   -4.2520    7.7690  -15.6640 O   0  0  0  0  0  1  0  0  0  0  0  0
   -2.4660    8.3870  -17.3090 O   0  0  0  0  0  1  0  0  0  0  0  0
   -2.4170    6.2130  -16.1020 O   0  0  0  0  0  0  0  0  0  0  0  0
    3.2490    5.3510  -10.1220 N   0  0  0  0  0  0  0  0  0  0  0  0
    3.4610    6.4480   -9.2030 C   0  0  2  0  0  0  0  0  0  0  0  0
    4.8720    6.9620   -9.3180 C   0  0  0  0  0  0  0  0  0  0  0  0
    5.7870    6.2100   -9.6200 O   0  0  0  0  0  0  0  0  0  0  0  0
    3.1800    6.0000   -7.7760 C   0  0  0  0  0  0  0  0  0  0  0  0
    1.7550    6.2570   -7.3300 C   0  0  0  0  0  0  0  0  0  0  0  0
    0.9810    4.9850   -7.1450 C   0  0  0  0  0  0  0  0  0  0  0  0
   -0.2070    5.0090   -6.8570 O   0  0  0  0  0  0  0  0  0  0  0  0
    1.6550    3.8620   -7.3100 N   0  0  0  0  0  0  0  0  0  0  0  0
    5.0370    8.2640   -9.0980 N   0  0  0  0  0  0  0  0  0  0  0  0
    6.3500    8.8840   -9.2320 C   0  0  2  0  0  0  0  0  0  0  0  0
    7.2610    8.0800  -10.1520 C   0  0  0  0  0  0  0  0  0  0  0  0
    8.3810    8.5130  -10.3990 O   0  5  0  0  0  0  0  0  0  0  0  0
    6.8700    8.8560   -7.7940 C   0  0  0  0  0  0  0  0  0  0  0  0
    5.6370    8.8510   -6.9350 C   0  0  0  0  0  0  0  0  0  0  0  0
    4.4320    8.6360   -7.8100 C   0  0  0  0  0  0  0  0  0  0  0  0
    4.6202   -5.1359  -14.3671 H   0  0  0  0  0  0  0  0  0  0  0  0
    5.8029   -4.0714  -14.7882 H   0  0  0  0  0  0  0  0  0  0  0  0
    4.3863   -3.5202  -14.1566 H   0  0  0  0  0  0  0  0  0  0  0  0
    4.8044   -4.5486  -12.0859 H   0  0  0  0  0  0  0  0  0  0  0  0
    7.6310   -5.0971  -12.7891 H   0  0  0  0  0  0  0  0  0  0  0  0
    6.4252   -6.1896  -13.5500 H   0  0  0  0  0  0  0  0  0  0  0  0
    6.6963   -7.3536  -11.6387 H   0  0  0  0  0  0  0  0  0  0  0  0
    5.4986   -6.1709  -11.0114 H   0  0  0  0  0  0  0  0  0  0  0  0
    5.8448   -2.2655  -14.1862 H   0  0  0  0  0  0  0  0  0  0  0  0
    7.7332   -0.8464  -12.4807 H   0  0  0  0  0  0  0  0  0  0  0  0
    7.3372    1.0262  -14.0275 H   0  0  0  0  0  0  0  0  0  0  0  0
    5.9749    0.1297  -14.7804 H   0  0  0  0  0  0  0  0  0  0  0  0
    7.6531   -0.4922  -14.9338 H   0  0  0  0  0  0  0  0  0  0  0  0
    6.9949    1.4225  -11.7229 H   0  0  0  0  0  0  0  0  0  0  0  0
    4.2406    1.1509  -10.6118 H   0  0  0  0  0  0  0  0  0  0  0  0
    4.9136    2.4083   -8.7275 H   0  0  0  0  0  0  0  0  0  0  0  0
    6.4203    2.9648   -9.5318 H   0  0  0  0  0  0  0  0  0  0  0  0
    6.7174    0.2296   -9.5678 H   0  0  0  0  0  0  0  0  0  0  0  0
    5.8528    0.4996   -8.0166 H   0  0  0  0  0  0  0  0  0  0  0  0
    8.4982    2.7643   -6.8412 H   0  0  0  0  0  0  0  0  0  0  0  0
    6.7887    2.8371   -7.1101 H   0  0  0  0  0  0  0  0  0  0  0  0
    2.7488    2.5557  -11.2232 H   0  0  0  0  0  0  0  0  0  0  0  0
    3.2005    4.4691  -13.2854 H   0  0  0  0  0  0  0  0  0  0  0  0
    1.1405    4.3055  -11.0539 H   0  0  0  0  0  0  0  0  0  0  0  0
    1.0829    3.3397  -12.5673 H   0  0  0  0  0  0  0  0  0  0  0  0
    2.0935    6.9327  -12.5056 H   0  0  0  0  0  0  0  0  0  0  0  0
   -0.9845    4.0704  -13.2012 H   0  0  0  0  0  0  0  0  0  0  0  0
    0.7215    8.6544  -13.6295 H   0  0  0  0  0  0  0  0  0  0  0  0
   -2.3499    5.7837  -14.3166 H   0  0  0  0  0  0  0  0  0  0  0  0
    3.0427    4.4421   -9.7597 H   0  0  0  0  0  0  0  0  0  0  0  0
    2.7674    7.2621   -9.4602 H   0  0  0  0  0  0  0  0  0  0  0  0
    3.8588    6.5419   -7.1011 H   0  0  0  0  0  0  0  0  0  0  0  0
    3.3773    4.9202   -7.7051 H   0  0  0  0  0  0  0  0  0  0  0  0
    1.2509    6.8709   -8.0909 H   0  0  0  0  0  0  0  0  0  0  0  0
    1.7756    6.8013   -6.3743 H   0  0  0  0  0  0  0  0  0  0  0  0
    1.1940    2.9814   -7.2000 H   0  0  0  0  0  0  0  0  0  0  0  0
    2.6266    3.8919   -7.5450 H   0  0  0  0  0  0  0  0  0  0  0  0
    6.2662    9.9145   -9.6076 H   0  0  0  0  0  0  0  0  0  0  0  0
    6.8702    6.9904  -10.6496 O   0  0  0  0  0  0  0  0  0  0  0  0
    7.4820    9.7462   -7.5867 H   0  0  0  0  0  0  0  0  0  0  0  0
    7.4684    7.9502   -7.6167 H   0  0  0  0  0  0  0  0  0  0  0  0
    5.5468    9.8153   -6.4135 H   0  0  0  0  0  0  0  0  0  0  0  0
    5.7056    8.0393   -6.1958 H   0  0  0  0  0  0  0  0  0  0  0  0
    3.7971    7.8267   -7.4204 H   0  0  0  0  0  0  0  0  0  0  0  0
    3.8374    9.5570   -7.9012 H   0  0  0  0  0  0  0  0  0  0  0  0
  1  2  1  0  0  0  0
  1 58  1  0  0  0  0
  1 59  1  0  0  0  0
  1 60  1  0  0  0  0
  2  3  1  0  0  0  0
  2  5  1  0  0  0  0
  2 61  1  1  0  0  0
  3  4  2  0  0  0  0
  3 10  1  0  0  0  0
  5  6  1  0  0  0  0
  5 62  1  0  0  0  0
  5 63  1  0  0  0  0
  6  7  1  0  0  0  0
  6 64  1  0  0  0  0
  6 65  1  0  0  0  0
  7  8  1  0  0  0  0
  7  9  2  0  0  0  0
 10 11  1  0  0  0  0
 10 66  1  0  0  0  0
 11 12  1  0  0  0  0
 11 14  1  0  0  0  0
 11 67  1  1  0  0  0
 12 13  2  0  0  0  0
 12 15  1  0  0  0  0
 14 68  1  0  0  0  0
 14 69  1  0  0  0  0
 14 70  1  0  0  0  0
 15 16  1  0  0  0  0
 15 71  1  0  0  0  0
 16 17  1  0  0  0  0
 16 19  1  0  0  0  0
 16 72  1  1  0  0  0
 17 18  2  0  0  0  0
 17 24  1  0  0  0  0
 19 20  1  0  0  0  0
 19 73  1  0  0  0  0
 19 74  1  0  0  0  0
 20 21  1  0  0  0  0
 20 75  1  0  0  0  0
 20 76  1  0  0  0  0
 21 22  2  0  0  0  0
 21 23  1  0  0  0  0
 23 77  1  0  0  0  0
 23 78  1  0  0  0  0
 24 25  1  0  0  0  0
 24 79  1  0  0  0  0
 25 26  1  0  0  0  0
 25 28  1  0  0  0  0
 25 80  1  6  0  0  0
 26 27  2  0  0  0  0
 26 42  1  0  0  0  0
 28 29  1  0  0  0  0
 28 81  1  0  0  0  0
 28 82  1  0  0  0  0
 29 30  2  0  0  0  0
 29 31  1  0  0  0  0
 30 32  1  0  0  0  0
 30 83  1  0  0  0  0
 31 33  2  0  0  0  0
 31 84  1  0  0  0  0
 32 34  2  0  0  0  0
 32 85  1  0  0  0  0
 33 34  1  0  0  0  0
 33 86  1  0  0  0  0
 34 35  1  0  0  0  0
 35 36  1  0  0  0  0
 35 37  1  0  0  0  0
 35 38  1  0  0  0  0
 38 39  1  0  0  0  0
 38 40  1  0  0  0  0
 38 41  2  0  0  0  0
 42 43  1  0  0  0  0
 42 87  1  0  0  0  0
 43 44  1  0  0  0  0
 43 46  1  0  0  0  0
 43 88  1  6  0  0  0
 44 45  2  0  0  0  0
 44 51  1  0  0  0  0
 46 47  1  0  0  0  0
 46 89  1  0  0  0  0
 46 90  1  0  0  0  0
 47 48  1  0  0  0  0
 47 91  1  0  0  0  0
 47 92  1  0  0  0  0
 48 49  2  0  0  0  0
 48 50  1  0  0  0  0
 50 93  1  0  0  0  0
 50 94  1  0  0  0  0
 51 52  1  0  0  0  0
 51 57  1  0  0  0  0
 52 53  1  0  0  0  0
 52 55  1  0  0  0  0
 52 95  1  6  0  0  0
 53 54  1  0  0  0  0
 53 96  2  0  0  0  0
 55 56  1  0  0  0  0
 55 97  1  0  0  0  0
 55 98  1  0  0  0  0
 56 57  1  0  0  0  0
 56 99  1  0  0  0  0
 56100  1  0  0  0  0
 57101  1  0  0  0  0
 57102  1  0  0  0  0
M  CHG  3   1   1   8  -1  54  -1
M  END
