3zn0_ligand
 OpenBabel08222323353D

 92 93  0  0  1  0  0  0  0  0999 V2000
   -0.7970   54.1950   84.9750 N   0  3  0  0  0  0  0  0  0  0  0  0
   -0.9660   52.8370   85.4720 C   0  0  2  0  0  0  0  0  0  0  0  0
   -1.2000   51.8250   84.3490 C   0  0  0  0  0  0  0  0  0  0  0  0
   -1.7000   52.1920   83.2810 O   0  0  0  0  0  0  0  0  0  0  0  0
   -2.2160   52.9480   86.3500 C   0  0  0  0  0  0  0  0  0  0  0  0
   -2.9980   54.0870   85.7780 C   0  0  0  0  0  0  0  0  0  0  0  0
   -2.0660   54.9430   84.9620 C   0  0  0  0  0  0  0  0  0  0  0  0
   -0.8510   50.5640   84.6010 N   0  0  0  0  0  0  0  0  0  0  0  0
   -1.1030   49.4810   83.6460 C   0  0  2  0  0  0  0  0  0  0  0  0
   -2.6060   49.2280   83.4630 C   0  0  0  0  0  0  0  0  0  0  0  0
   -3.0240   48.6390   82.4660 O   0  0  0  0  0  0  0  0  0  0  0  0
   -0.3910   48.1900   84.0800 C   0  0  0  0  0  0  0  0  0  0  0  0
   -0.2780   47.1510   82.9680 C   0  0  0  0  0  0  0  0  0  0  0  0
   -0.1480   45.7300   83.5010 C   0  0  0  0  0  0  0  0  0  0  0  0
    1.2540   45.3520   83.7310 N   0  0  0  0  0  0  0  0  0  0  0  0
    1.7000   44.0970   83.7670 C   0  0  0  0  0  3  0  0  0  0  0  0
    0.8610   43.0750   83.5810 N   0  0  0  0  0  0  0  0  0  0  0  0
    2.9940   43.8610   83.9840 N   0  0  0  0  0  0  0  0  0  0  0  0
   -3.4040   49.6930   84.4230 N   0  0  0  0  0  0  0  0  0  0  0  0
   -4.8530   49.4680   84.4500 C   0  0  2  0  0  0  0  0  0  0  0  0
   -5.6030   49.9720   83.2120 C   0  0  0  0  0  0  0  0  0  0  0  0
   -6.6190   49.3920   82.8280 O   0  0  0  0  0  0  0  0  0  0  0  0
   -5.4650   50.0970   85.7070 C   0  0  0  0  0  0  0  0  0  0  0  0
   -4.7780   49.6850   86.8770 O   0  0  0  0  0  0  0  0  0  0  0  0
   -5.1050   51.0450   82.5970 N   0  0  0  0  0  0  0  0  0  0  0  0
   -5.7780   51.6660   81.4480 C   0  0  2  0  0  0  0  0  0  0  0  0
   -5.6590   50.8620   80.1530 C   0  0  0  0  0  0  0  0  0  0  0  0
   -6.4850   51.0190   79.2490 O   0  0  0  0  0  0  0  0  0  0  0  0
   -5.2730   53.0970   81.2060 C   0  0  0  0  0  0  0  0  0  0  0  0
   -5.6040   54.0670   82.3110 C   0  0  0  0  0  0  0  0  0  0  0  0
   -6.7370   53.8980   83.1050 C   0  0  0  0  0  0  0  0  0  0  0  0
   -4.7920   55.1720   82.5370 C   0  0  0  0  0  0  0  0  0  0  0  0
   -7.0320   54.7960   84.1180 C   0  0  0  0  0  0  0  0  0  0  0  0
   -5.0900   56.0770   83.5430 C   0  0  0  0  0  0  0  0  0  0  0  0
   -6.2090   55.8880   84.3350 C   0  0  0  0  0  0  0  0  0  0  0  0
   -4.6320   50.0130   80.0730 N   0  0  0  0  0  0  0  0  0  0  0  0
   -4.3140   49.2430   78.8640 C   0  0  2  0  0  0  0  0  0  0  0  0
   -5.5170   48.4860   78.2930 C   0  0  0  0  0  0  0  0  0  0  0  0
   -6.2890   47.8680   79.0340 O   0  0  0  0  0  0  0  0  0  0  0  0
   -3.1520   48.2920   79.1260 C   0  0  0  0  0  0  0  0  0  0  0  0
   -5.6610   48.5540   76.9700 N   0  0  0  0  0  0  0  0  0  0  0  0
   -6.7520   47.9030   76.2480 C   0  0  2  0  0  0  0  0  0  0  0  0
   -6.6890   46.3800   76.3630 C   0  0  0  0  0  0  0  0  0  0  0  0
   -5.5882   45.7760   76.4683 O   0  5  0  0  0  0  0  0  0  0  0  0
   -6.7360   48.3260   74.7890 C   0  0  0  0  0  0  0  0  0  0  0  0
   -7.7594   45.7153   76.3522 O   0  0  0  0  0  0  0  0  0  0  0  0
   -0.4342   54.1543   84.0354 H   0  0  0  0  0  0  0  0  0  0  0  0
   -0.1409   54.6787   85.5679 H   0  0  0  0  0  0  0  0  0  0  0  0
   -0.0911   52.5278   86.0628 H   0  0  0  0  0  0  0  0  0  0  0  0
   -1.9371   53.1572   87.3933 H   0  0  0  0  0  0  0  0  0  0  0  0
   -2.8016   52.0179   86.3065 H   0  0  0  0  0  0  0  0  0  0  0  0
   -3.4334   54.6845   86.5925 H   0  0  0  0  0  0  0  0  0  0  0  0
   -3.8033   53.6995   85.1366 H   0  0  0  0  0  0  0  0  0  0  0  0
   -2.4409   55.0604   83.9345 H   0  0  0  0  0  0  0  0  0  0  0  0
   -1.9410   55.9342   85.4222 H   0  0  0  0  0  0  0  0  0  0  0  0
   -0.4030   50.3497   85.4690 H   0  0  0  0  0  0  0  0  0  0  0  0
   -0.6905   49.7871   82.6733 H   0  0  0  0  0  0  0  0  0  0  0  0
   -0.9537   47.7463   84.9146 H   0  0  0  0  0  0  0  0  0  0  0  0
    0.6232   48.4490   84.4182 H   0  0  0  0  0  0  0  0  0  0  0  0
    0.6095   47.3812   82.3603 H   0  0  0  0  0  0  0  0  0  0  0  0
   -1.1785   47.2097   82.3389 H   0  0  0  0  0  0  0  0  0  0  0  0
   -0.5873   45.0353   82.7700 H   0  0  0  0  0  0  0  0  0  0  0  0
   -0.6958   45.6563   84.4520 H   0  0  0  0  0  0  0  0  0  0  0  0
    1.9379   46.1088   83.8740 H   0  0  0  0  0  0  0  0  0  0  0  0
    1.2133   42.1076   83.6103 H   0  0  0  0  0  0  0  0  0  0  0  0
   -0.1385   43.2541   83.4082 H   0  0  0  0  0  0  0  0  0  0  0  0
    3.6438   44.6471   84.1278 H   0  0  0  0  0  0  0  0  0  0  0  0
    3.3440   42.8926   84.0078 H   0  0  0  0  0  0  0  0  0  0  0  0
   -2.9933   50.2236   85.1645 H   0  0  0  0  0  0  0  0  0  0  0  0
   -5.0084   48.3803   84.5031 H   0  0  0  0  0  0  0  0  0  0  0  0
   -6.5187   49.7909   85.7840 H   0  0  0  0  0  0  0  0  0  0  0  0
   -5.4064   51.1923   85.6243 H   0  0  0  0  0  0  0  0  0  0  0  0
   -5.1788   50.0898   87.6373 H   0  0  0  0  0  0  0  0  0  0  0  0
   -4.2475   51.4391   82.9277 H   0  0  0  0  0  0  0  0  0  0  0  0
   -6.8474   51.7256   81.6986 H   0  0  0  0  0  0  0  0  0  0  0  0
   -5.7248   53.4688   80.2745 H   0  0  0  0  0  0  0  0  0  0  0  0
   -4.1792   53.0621   81.0946 H   0  0  0  0  0  0  0  0  0  0  0  0
   -7.3946   53.0546   82.9280 H   0  0  0  0  0  0  0  0  0  0  0  0
   -3.9152   55.3277   81.9190 H   0  0  0  0  0  0  0  0  0  0  0  0
   -7.9065   54.6437   84.7402 H   0  0  0  0  0  0  0  0  0  0  0  0
   -4.4465   56.9332   83.7097 H   0  0  0  0  0  0  0  0  0  0  0  0
   -6.4408   56.5940   85.1242 H   0  0  0  0  0  0  0  0  0  0  0  0
   -4.0496   49.8955   80.8774 H   0  0  0  0  0  0  0  0  0  0  0  0
   -3.9904   49.9621   78.0971 H   0  0  0  0  0  0  0  0  0  0  0  0
   -2.9288   47.7248   78.2103 H   0  0  0  0  0  0  0  0  0  0  0  0
   -3.4235   47.5946   79.9322 H   0  0  0  0  0  0  0  0  0  0  0  0
   -2.2651   48.8702   79.4245 H   0  0  0  0  0  0  0  0  0  0  0  0
   -4.9890   49.0765   76.4451 H   0  0  0  0  0  0  0  0  0  0  0  0
   -7.7007   48.2366   76.6938 H   0  0  0  0  0  0  0  0  0  0  0  0
   -7.5603   47.8310   74.2547 H   0  0  0  0  0  0  0  0  0  0  0  0
   -5.7775   48.0362   74.3337 H   0  0  0  0  0  0  0  0  0  0  0  0
   -6.8587   49.4171   74.7222 H   0  0  0  0  0  0  0  0  0  0  0  0
  1  2  1  0  0  0  0
  1  7  1  0  0  0  0
  1 47  1  0  0  0  0
  1 48  1  0  0  0  0
  2  3  1  0  0  0  0
  2  5  1  0  0  0  0
  2 49  1  1  0  0  0
  3  4  2  0  0  0  0
  3  8  1  0  0  0  0
  5  6  1  0  0  0  0
  5 50  1  0  0  0  0
  5 51  1  0  0  0  0
  6  7  1  0  0  0  0
  6 52  1  0  0  0  0
  6 53  1  0  0  0  0
  7 54  1  0  0  0  0
  7 55  1  0  0  0  0
  8  9  1  0  0  0  0
  8 56  1  0  0  0  0
  9 10  1  0  0  0  0
  9 12  1  0  0  0  0
  9 57  1  6  0  0  0
 10 11  2  0  0  0  0
 10 19  1  0  0  0  0
 12 13  1  0  0  0  0
 12 58  1  0  0  0  0
 12 59  1  0  0  0  0
 13 14  1  0  0  0  0
 13 60  1  0  0  0  0
 13 61  1  0  0  0  0
 14 15  1  0  0  0  0
 14 62  1  0  0  0  0
 14 63  1  0  0  0  0
 15 16  1  0  0  0  0
 15 64  1  0  0  0  0
 16 17  1  0  0  0  0
 16 18  1  0  0  0  0
 17 65  1  0  0  0  0
 17 66  1  0  0  0  0
 18 67  1  0  0  0  0
 18 68  1  0  0  0  0
 19 20  1  0  0  0  0
 19 69  1  0  0  0  0
 20 21  1  0  0  0  0
 20 23  1  0  0  0  0
 20 70  1  1  0  0  0
 21 22  2  0  0  0  0
 21 25  1  0  0  0  0
 23 24  1  0  0  0  0
 23 71  1  0  0  0  0
 23 72  1  0  0  0  0
 24 73  1  0  0  0  0
 25 26  1  0  0  0  0
 25 74  1  0  0  0  0
 26 27  1  0  0  0  0
 26 29  1  0  0  0  0
 26 75  1  1  0  0  0
 27 28  2  0  0  0  0
 27 36  1  0  0  0  0
 29 30  1  0  0  0  0
 29 76  1  0  0  0  0
 29 77  1  0  0  0  0
 30 31  2  0  0  0  0
 30 32  1  0  0  0  0
 31 33  1  0  0  0  0
 31 78  1  0  0  0  0
 32 34  2  0  0  0  0
 32 79  1  0  0  0  0
 33 35  2  0  0  0  0
 33 80  1  0  0  0  0
 34 35  1  0  0  0  0
 34 81  1  0  0  0  0
 35 82  1  0  0  0  0
 36 37  1  0  0  0  0
 36 83  1  0  0  0  0
 37 38  1  0  0  0  0
 37 40  1  0  0  0  0
 37 84  1  6  0  0  0
 38 39  2  0  0  0  0
 38 41  1  0  0  0  0
 40 85  1  0  0  0  0
 40 86  1  0  0  0  0
 40 87  1  0  0  0  0
 41 42  1  0  0  0  0
 41 88  1  0  0  0  0
 42 43  1  0  0  0  0
 42 45  1  0  0  0  0
 42 89  1  1  0  0  0
 43 44  1  0  0  0  0
 43 46  2  0  0  0  0
 45 90  1  0  0  0  0
 45 91  1  0  0  0  0
 45 92  1  0  0  0  0
M  CHG  2   1   1  44  -1
M  END
