3zo1_ligand
 OpenBabel08222323353D

 41 44  0  0  0  0  0  0  0  0999 V2000
  -32.3810  -10.2550   -0.9710 C   0  0  0  0  0  0  0  0  0  0  0  0
  -31.1970  -10.3640   -1.5410 N   0  0  0  0  0  0  0  0  0  0  0  0
  -33.4020  -10.1150   -1.8520 N   0  0  0  0  0  0  0  0  0  0  0  0
  -32.8440  -10.1360   -3.0970 C   0  0  0  0  0  0  0  0  0  0  0  0
  -33.4770  -10.0450   -4.2810 N   0  0  0  0  0  0  0  0  0  0  0  0
  -32.6710  -10.0780   -5.3450 C   0  0  0  0  0  0  0  0  0  0  0  0
  -31.4760  -10.2820   -2.8980 C   0  0  0  0  0  0  0  0  0  0  0  0
  -30.7730  -10.2910   -4.1550 C   0  0  0  0  0  0  0  0  0  0  0  0
  -31.3390  -10.1800   -5.3810 N   0  0  0  0  0  0  0  0  0  0  0  0
  -29.3670  -10.4550   -4.2170 N   0  0  0  0  0  0  0  0  0  0  0  0
  -28.4850  -10.4360   -3.0410 C   0  0  0  0  0  0  0  0  0  0  0  0
  -27.6170   -9.1900   -2.9510 C   0  0  0  0  0  0  0  0  0  0  0  0
  -26.7390   -9.0050   -4.2000 C   0  0  0  0  0  0  0  0  0  0  0  0
  -27.7000   -9.0460   -5.4020 C   0  0  0  0  0  0  0  0  0  0  0  0
  -28.6120  -10.2670   -5.4650 C   0  0  0  0  0  0  0  0  0  0  0  0
  -26.1230   -7.6110   -4.2100 N   0  3  0  0  0  0  0  0  0  0  0  0
  -25.0080   -7.3980   -3.2730 C   0  0  0  0  0  0  0  0  0  0  0  0
  -23.9120   -8.4190   -3.4770 C   0  0  0  0  0  0  0  0  0  0  0  0
  -24.4450   -9.8430   -3.3920 C   0  0  0  0  0  0  0  0  0  0  0  0
  -25.6220  -10.0610   -4.3490 C   0  0  0  0  0  0  0  0  0  0  0  0
  -32.5255  -10.2755    0.1082 H   0  0  0  0  0  0  0  0  0  0  0  0
  -30.2805  -10.4822   -1.0861 H   0  0  0  0  0  0  0  0  0  0  0  0
  -33.1630  -10.0134   -6.3087 H   0  0  0  0  0  0  0  0  0  0  0  0
  -27.8265  -11.3160   -3.0858 H   0  0  0  0  0  0  0  0  0  0  0  0
  -29.1094  -10.4909   -2.1370 H   0  0  0  0  0  0  0  0  0  0  0  0
  -26.9654   -9.2746   -2.0688 H   0  0  0  0  0  0  0  0  0  0  0  0
  -28.2689   -8.3107   -2.8424 H   0  0  0  0  0  0  0  0  0  0  0  0
  -27.0960   -9.0251   -6.3211 H   0  0  0  0  0  0  0  0  0  0  0  0
  -28.3353   -8.1490   -5.3602 H   0  0  0  0  0  0  0  0  0  0  0  0
  -29.3230  -10.1369   -6.2942 H   0  0  0  0  0  0  0  0  0  0  0  0
  -27.9969  -11.1608   -5.6462 H   0  0  0  0  0  0  0  0  0  0  0  0
  -26.8492   -6.9501   -3.9822 H   0  0  0  0  0  0  0  0  0  0  0  0
  -25.7834   -7.4293   -5.1415 H   0  0  0  0  0  0  0  0  0  0  0  0
  -25.3857   -7.4796   -2.2431 H   0  0  0  0  0  0  0  0  0  0  0  0
  -24.5936   -6.3917   -3.4329 H   0  0  0  0  0  0  0  0  0  0  0  0
  -23.1452   -8.2786   -2.7009 H   0  0  0  0  0  0  0  0  0  0  0  0
  -23.4621   -8.2656   -4.4690 H   0  0  0  0  0  0  0  0  0  0  0  0
  -24.7806  -10.0381   -2.3628 H   0  0  0  0  0  0  0  0  0  0  0  0
  -23.6377  -10.5429   -3.6534 H   0  0  0  0  0  0  0  0  0  0  0  0
  -25.2433  -10.0244   -5.3811 H   0  0  0  0  0  0  0  0  0  0  0  0
  -26.0524  -11.0538   -4.1514 H   0  0  0  0  0  0  0  0  0  0  0  0
  1  2  1  0  0  0  0
  1  3  2  0  0  0  0
  1 21  1  0  0  0  0
  2  7  1  0  0  0  0
  2 22  1  0  0  0  0
  3  4  1  0  0  0  0
  4  5  2  0  0  0  0
  4  7  1  0  0  0  0
  5  6  1  0  0  0  0
  6  9  2  0  0  0  0
  6 23  1  0  0  0  0
  7  8  2  0  0  0  0
  8  9  1  0  0  0  0
  8 10  1  0  0  0  0
 10 11  1  0  0  0  0
 10 15  1  0  0  0  0
 11 12  1  0  0  0  0
 11 24  1  0  0  0  0
 11 25  1  0  0  0  0
 12 13  1  0  0  0  0
 12 26  1  0  0  0  0
 12 27  1  0  0  0  0
 13 14  1  0  0  0  0
 13 16  1  0  0  0  0
 13 20  1  0  0  0  0
 14 15  1  0  0  0  0
 14 28  1  0  0  0  0
 14 29  1  0  0  0  0
 15 30  1  0  0  0  0
 15 31  1  0  0  0  0
 16 17  1  0  0  0  0
 16 32  1  0  0  0  0
 16 33  1  0  0  0  0
 17 18  1  0  0  0  0
 17 34  1  0  0  0  0
 17 35  1  0  0  0  0
 18 19  1  0  0  0  0
 18 36  1  0  0  0  0
 18 37  1  0  0  0  0
 19 20  1  0  0  0  0
 19 38  1  0  0  0  0
 19 39  1  0  0  0  0
 20 40  1  0  0  0  0
 20 41  1  0  0  0  0
M  CHG  1  16   1
M  END
