3zo4_ligand
 OpenBabel08222323353D

 51 55  0  0  1  0  0  0  0  0999 V2000
   23.0050  -12.7000   -0.2920 C   0  0  0  0  0  0  0  0  0  0  0  0
   23.0690  -11.3290   -0.4330 C   0  0  0  0  0  0  0  0  0  0  0  0
   23.5600  -10.5400    0.6020 C   0  0  0  0  0  0  0  0  0  0  0  0
   23.9930  -11.1160    1.7930 C   0  0  0  0  0  0  0  0  0  0  0  0
   23.9250  -12.4990    1.9190 C   0  0  0  0  0  0  0  0  0  0  0  0
   23.4330  -13.2860    0.8820 C   0  0  0  0  0  0  0  0  0  0  0  0
   24.5350  -10.2680    2.9320 C   0  0  2  0  0  0  0  0  0  0  0  0
   23.5430   -9.2330    3.4880 C   0  0  0  0  0  0  0  0  0  0  0  0
   24.1820   -8.4040    4.5880 C   0  0  0  0  0  0  0  0  0  0  0  0
   25.4240   -7.7480    4.1440 N   0  3  0  0  0  0  0  0  0  0  0  0
   25.8710   -9.6130    2.5590 C   0  0  0  0  0  0  0  0  0  0  0  0
   28.8150   -8.7070    2.6910 C   0  0  0  0  0  0  0  0  0  0  0  0
   27.5570   -7.8840    2.9210 C   0  0  0  0  0  0  0  0  0  0  0  0
   28.5800   -9.2410    5.0950 C   0  0  0  0  0  0  0  0  0  0  0  0
   27.1170   -9.5380    4.8000 C   0  0  0  0  0  0  0  0  0  0  0  0
   30.8310   -9.5810    3.9510 C   0  0  0  0  0  0  0  0  0  0  0  0
   31.3310   -9.6710    5.2050 N   0  0  0  0  0  0  0  0  0  0  0  0
   32.6660   -9.7890    5.2460 C   0  0  0  0  0  0  0  0  0  0  0  0
   33.5330   -9.8240    4.2270 N   0  0  0  0  0  0  0  0  0  0  0  0
   32.9530   -9.7680    3.0090 C   0  0  0  0  0  0  0  0  0  0  0  0
   26.4910   -8.7120    3.6620 C   0  0  0  0  0  0  0  0  0  0  0  0
   33.5670   -9.8380    1.7890 N   0  0  0  0  0  0  0  0  0  0  0  0
   32.5810   -9.7930    0.8610 C   0  0  0  0  0  0  0  0  0  0  0  0
   31.3690   -9.6900    1.3730 N   0  0  0  0  0  0  0  0  0  0  0  0
   31.5920   -9.6630    2.7410 C   0  0  0  0  0  0  0  0  0  0  0  0
   29.4380   -9.2700    3.8980 N   0  0  0  0  0  0  0  0  0  0  0  0
   22.6207  -13.3135   -1.0988 H   0  0  0  0  0  0  0  0  0  0  0  0
   22.7353  -10.8649   -1.3540 H   0  0  0  0  0  0  0  0  0  0  0  0
   23.6060   -9.4639    0.4797 H   0  0  0  0  0  0  0  0  0  0  0  0
   24.2593  -12.9700    2.8363 H   0  0  0  0  0  0  0  0  0  0  0  0
   23.3858  -14.3629    0.9967 H   0  0  0  0  0  0  0  0  0  0  0  0
   24.7437  -10.9646    3.7573 H   0  0  0  0  0  0  0  0  0  0  0  0
   22.6665   -9.7576    3.8959 H   0  0  0  0  0  0  0  0  0  0  0  0
   23.2247   -8.5658    2.6734 H   0  0  0  0  0  0  0  0  0  0  0  0
   24.4142   -9.0627    5.4378 H   0  0  0  0  0  0  0  0  0  0  0  0
   23.4683   -7.6305    4.9079 H   0  0  0  0  0  0  0  0  0  0  0  0
   25.7985   -7.2213    4.9175 H   0  0  0  0  0  0  0  0  0  0  0  0
   25.1986   -7.1206    3.3880 H   0  0  0  0  0  0  0  0  0  0  0  0
   25.7096   -8.9943    1.6639 H   0  0  0  0  0  0  0  0  0  0  0  0
   26.5901  -10.4125    2.3274 H   0  0  0  0  0  0  0  0  0  0  0  0
   29.5563   -8.0608    2.1981 H   0  0  0  0  0  0  0  0  0  0  0  0
   28.5553   -9.5421    2.0238 H   0  0  0  0  0  0  0  0  0  0  0  0
   27.1533   -7.5628    1.9495 H   0  0  0  0  0  0  0  0  0  0  0  0
   27.8098   -6.9992    3.5237 H   0  0  0  0  0  0  0  0  0  0  0  0
   28.9511   -9.9923    5.8077 H   0  0  0  0  0  0  0  0  0  0  0  0
   28.6479   -8.2409    5.5479 H   0  0  0  0  0  0  0  0  0  0  0  0
   26.5401   -9.3446    5.7164 H   0  0  0  0  0  0  0  0  0  0  0  0
   27.0341  -10.6017    4.5322 H   0  0  0  0  0  0  0  0  0  0  0  0
   33.1008   -9.8663    6.2360 H   0  0  0  0  0  0  0  0  0  0  0  0
   32.7713   -9.8378   -0.2103 H   0  0  0  0  0  0  0  0  0  0  0  0
   30.4694   -9.6412    0.8738 H   0  0  0  0  0  0  0  0  0  0  0  0
  1 27  1  0  0  0  0
  2  1  2  0  0  0  0
  2 28  1  0  0  0  0
  3  2  1  0  0  0  0
  3 29  1  0  0  0  0
  4  3  2  0  0  0  0
  4  5  1  0  0  0  0
  5  6  2  0  0  0  0
  5 30  1  0  0  0  0
  6  1  1  0  0  0  0
  6 31  1  0  0  0  0
  7  4  1  0  0  0  0
  7  8  1  0  0  0  0
  7 32  1  1  0  0  0
  8 33  1  0  0  0  0
  8 34  1  0  0  0  0
  9  8  1  0  0  0  0
  9 35  1  0  0  0  0
  9 36  1  0  0  0  0
 10  9  1  0  0  0  0
 10 37  1  0  0  0  0
 10 38  1  0  0  0  0
 11  7  1  0  0  0  0
 11 39  1  0  0  0  0
 11 40  1  0  0  0  0
 12 13  1  0  0  0  0
 12 41  1  0  0  0  0
 12 42  1  0  0  0  0
 13 21  1  0  0  0  0
 13 43  1  0  0  0  0
 13 44  1  0  0  0  0
 14 15  1  0  0  0  0
 14 45  1  0  0  0  0
 14 46  1  0  0  0  0
 15 21  1  0  0  0  0
 15 47  1  0  0  0  0
 15 48  1  0  0  0  0
 16 17  2  0  0  0  0
 16 25  1  0  0  0  0
 16 26  1  0  0  0  0
 17 18  1  0  0  0  0
 18 19  2  0  0  0  0
 18 49  1  0  0  0  0
 19 20  1  0  0  0  0
 20 22  1  0  0  0  0
 20 25  2  0  0  0  0
 21 10  1  0  0  0  0
 21 11  1  0  0  0  0
 22 23  2  0  0  0  0
 23 24  1  0  0  0  0
 23 50  1  0  0  0  0
 24 25  1  0  0  0  0
 24 51  1  0  0  0  0
 26 12  1  0  0  0  0
 26 14  1  0  0  0  0
M  CHG  1  10   1
M  END
