3zov_ligand
 OpenBabel08222323353D

 52 54  0  0  1  0  0  0  0  0999 V2000
  -20.8670   44.4100   83.3080 F   0  0  0  0  0  0  0  0  0  0  0  0
  -21.3830   45.2430   84.1830 C   0  0  0  0  0  0  0  0  0  0  0  0
  -22.4600   45.8340   83.7230 F   0  0  0  0  0  0  0  0  0  0  0  0
  -20.5180   46.1780   84.5250 F   0  0  0  0  0  0  0  0  0  0  0  0
  -21.7540   44.3930   85.3680 C   0  0  0  0  0  0  0  0  0  0  0  0
  -20.5530   44.0520   86.0420 O   0  0  0  0  0  0  0  0  0  0  0  0
  -20.7170   43.4290   87.2460 C   0  0  0  0  0  0  0  0  0  0  0  0
  -19.7340   42.5670   87.7080 C   0  0  0  0  0  0  0  0  0  0  0  0
  -19.9160   41.9570   88.8870 N   0  0  0  0  0  0  0  0  0  0  0  0
  -21.8840   43.6570   88.0040 C   0  0  0  0  0  0  0  0  0  0  0  0
  -22.0430   43.0050   89.2230 C   0  0  0  0  0  0  0  0  0  0  0  0
  -21.0270   42.1470   89.6430 C   0  0  0  0  0  0  0  0  0  0  0  0
  -21.1580   41.4320   90.9410 C   0  0  0  0  0  0  0  0  0  0  0  0
  -22.2770   41.3770   91.4270 O   0  0  0  0  0  0  0  0  0  0  0  0
  -20.0340   40.9000   91.4470 N   0  0  0  0  0  0  0  0  0  0  0  0
  -19.8150   40.1860   92.6340 C   0  0  0  0  0  0  0  0  0  0  0  0
  -18.4930   39.8850   92.9890 C   0  0  0  0  0  0  0  0  0  0  0  0
  -20.8710   39.8140   93.4700 C   0  0  0  0  0  0  0  0  0  0  0  0
  -20.5970   39.1210   94.6420 C   0  0  0  0  0  0  0  0  0  0  0  0
  -19.2810   38.8080   94.9800 C   0  0  0  0  0  0  0  0  0  0  0  0
  -18.2080   39.1840   94.1630 C   0  0  0  0  0  0  0  0  0  0  0  0
  -16.7980   38.8270   94.5880 C   0  0  1  0  0  0  0  0  0  0  0  0
  -16.4440   39.6800   95.7780 C   0  0  0  0  0  0  0  0  0  0  0  0
  -16.0910   41.0580   95.2920 C   0  0  0  0  0  0  0  0  0  0  0  0
  -16.3440   41.9710   96.0360 O   0  0  0  0  0  0  0  0  0  0  0  0
  -16.7000   37.3780   95.0150 C   0  0  0  0  0  0  0  0  0  0  0  0
  -15.7920   39.0720   93.5570 N   0  0  0  0  0  0  0  0  0  0  0  0
  -15.3530   40.2160   93.2660 C   0  0  1  0  0  3  0  0  0  0  0  0
  -14.7060   40.3670   92.1000 N   0  0  0  0  0  0  0  0  0  0  0  0
  -15.5670   41.2710   94.0720 N   0  0  0  0  0  0  0  0  0  0  0  0
  -15.3050   42.6470   93.6350 C   0  0  0  0  0  0  0  0  0  0  0  0
  -22.2667   43.4805   85.0297 H   0  0  0  0  0  0  0  0  0  0  0  0
  -22.4156   44.9568   86.0420 H   0  0  0  0  0  0  0  0  0  0  0  0
  -18.8362   42.3902   87.1269 H   0  0  0  0  0  0  0  0  0  0  0  0
  -22.6494   44.3333   87.6408 H   0  0  0  0  0  0  0  0  0  0  0  0
  -22.9294   43.1593   89.8276 H   0  0  0  0  0  0  0  0  0  0  0  0
  -19.2182   41.0352   90.8846 H   0  0  0  0  0  0  0  0  0  0  0  0
  -17.6809   40.2004   92.3439 H   0  0  0  0  0  0  0  0  0  0  0  0
  -21.8925   40.0635   93.2068 H   0  0  0  0  0  0  0  0  0  0  0  0
  -21.4085   38.8226   95.2958 H   0  0  0  0  0  0  0  0  0  0  0  0
  -19.0843   38.2616   95.8953 H   0  0  0  0  0  0  0  0  0  0  0  0
  -15.5841   39.2416   96.3056 H   0  0  0  0  0  0  0  0  0  0  0  0
  -17.3036   39.7372   96.4619 H   0  0  0  0  0  0  0  0  0  0  0  0
  -16.9535   36.7274   94.1651 H   0  0  0  0  0  0  0  0  0  0  0  0
  -17.4012   37.1911   95.8417 H   0  0  0  0  0  0  0  0  0  0  0  0
  -15.6741   37.1625   95.3484 H   0  0  0  0  0  0  0  0  0  0  0  0
  -15.4207   38.2630   93.0387 H   0  0  0  0  0  0  0  0  0  0  0  0
  -14.5472   39.5525   91.4899 H   0  0  0  0  0  0  0  0  0  0  0  0
  -14.3682   41.2974   91.8152 H   0  0  0  0  0  0  0  0  0  0  0  0
  -15.5493   43.3435   94.4506 H   0  0  0  0  0  0  0  0  0  0  0  0
  -15.9266   42.8776   92.7573 H   0  0  0  0  0  0  0  0  0  0  0  0
  -14.2426   42.7515   93.3696 H   0  0  0  0  0  0  0  0  0  0  0  0
  1  2  1  0  0  0  0
  2  3  1  0  0  0  0
  2  4  1  0  0  0  0
  2  5  1  0  0  0  0
  5  6  1  0  0  0  0
  5 32  1  0  0  0  0
  5 33  1  0  0  0  0
  6  7  1  0  0  0  0
  7  8  2  0  0  0  0
  7 10  1  0  0  0  0
  8  9  1  0  0  0  0
  8 34  1  0  0  0  0
  9 12  2  0  0  0  0
 10 11  2  0  0  0  0
 10 35  1  0  0  0  0
 11 12  1  0  0  0  0
 11 36  1  0  0  0  0
 12 13  1  0  0  0  0
 13 14  2  0  0  0  0
 13 15  1  0  0  0  0
 15 16  1  0  0  0  0
 15 37  1  0  0  0  0
 16 17  2  0  0  0  0
 16 18  1  0  0  0  0
 17 21  1  0  0  0  0
 17 38  1  0  0  0  0
 18 19  2  0  0  0  0
 18 39  1  0  0  0  0
 19 20  1  0  0  0  0
 19 40  1  0  0  0  0
 20 21  2  0  0  0  0
 20 41  1  0  0  0  0
 21 22  1  0  0  0  0
 22 23  1  0  0  0  0
 22 26  1  1  0  0  0
 22 27  1  0  0  0  0
 23 24  1  0  0  0  0
 23 42  1  0  0  0  0
 23 43  1  0  0  0  0
 24 25  2  0  0  0  0
 24 30  1  0  0  0  0
 26 44  1  0  0  0  0
 26 45  1  0  0  0  0
 26 46  1  0  0  0  0
 27 28  1  0  0  0  0
 27 47  1  0  0  0  0
 28 29  1  6  0  0  0
 28 30  1  0  0  0  0
 29 48  1  0  0  0  0
 29 49  1  0  0  0  0
 30 31  1  0  0  0  0
 31 50  1  0  0  0  0
 31 51  1  0  0  0  0
 31 52  1  0  0  0  0
M  END
