3zpq_ligand
 OpenBabel08222323353D

 31 33  0  0  0  0  0  0  0  0999 V2000
  -23.2730  -13.1210   25.4160 C   0  0  0  0  0  0  0  0  0  0  0  0
  -24.5210  -13.4610   24.7220 C   0  0  0  0  0  0  0  0  0  0  0  0
  -25.4270  -12.3120   24.8520 N   0  3  0  0  0  0  0  0  0  0  0  0
  -24.9050  -11.1550   24.1290 C   0  0  0  0  0  0  0  0  0  0  0  0
  -23.5970  -10.6470   24.6480 C   0  0  0  0  0  0  0  0  0  0  0  0
  -22.7090  -11.7700   25.0810 N   0  0  0  0  0  0  0  0  0  0  0  0
  -21.3810  -11.5560   25.2700 C   0  0  0  0  0  0  0  0  0  0  0  0
  -20.7630  -11.9770   26.3940 C   0  0  0  0  0  0  0  0  0  0  0  0
  -21.1960  -12.6190   27.4870 C   0  0  0  0  0  0  0  0  0  0  0  0
  -20.1700  -12.8040   28.3160 C   0  0  0  0  0  0  0  0  0  0  0  0
  -19.0830  -12.2710   27.7530 N   0  0  0  0  0  0  0  0  0  0  0  0
  -19.4410  -11.7620   26.5690 C   0  0  0  0  0  0  0  0  0  0  0  0
  -18.6940  -11.1350   25.6520 C   0  0  0  0  0  0  0  0  0  0  0  0
  -19.2610  -10.6770   24.4790 C   0  0  0  0  0  0  0  0  0  0  0  0
  -20.6190  -10.8980   24.2850 C   0  0  0  0  0  0  0  0  0  0  0  0
  -22.5200  -13.8794   25.1555 H   0  0  0  0  0  0  0  0  0  0  0  0
  -23.4651  -13.1518   26.4986 H   0  0  0  0  0  0  0  0  0  0  0  0
  -24.9755  -14.3512   25.1814 H   0  0  0  0  0  0  0  0  0  0  0  0
  -24.3174  -13.6601   23.6595 H   0  0  0  0  0  0  0  0  0  0  0  0
  -25.5237  -12.0761   25.8272 H   0  0  0  0  0  0  0  0  0  0  0  0
  -26.3288  -12.5580   24.4748 H   0  0  0  0  0  0  0  0  0  0  0  0
  -25.6431  -10.3424   24.1993 H   0  0  0  0  0  0  0  0  0  0  0  0
  -24.7711  -11.4386   23.0747 H   0  0  0  0  0  0  0  0  0  0  0  0
  -23.7849   -9.9873   25.5079 H   0  0  0  0  0  0  0  0  0  0  0  0
  -23.0929  -10.0783   23.8528 H   0  0  0  0  0  0  0  0  0  0  0  0
  -22.2213  -12.9381   27.6685 H   0  0  0  0  0  0  0  0  0  0  0  0
  -20.2106  -13.3026   29.2833 H   0  0  0  0  0  0  0  0  0  0  0  0
  -18.1364  -12.2547   28.1586 H   0  0  0  0  0  0  0  0  0  0  0  0
  -17.6355  -10.9856   25.8316 H   0  0  0  0  0  0  0  0  0  0  0  0
  -18.6659  -10.1618   23.7337 H   0  0  0  0  0  0  0  0  0  0  0  0
  -21.0946  -10.5622   23.3706 H   0  0  0  0  0  0  0  0  0  0  0  0
  1  2  1  0  0  0  0
  1  6  1  0  0  0  0
  1 16  1  0  0  0  0
  1 17  1  0  0  0  0
  2  3  1  0  0  0  0
  2 18  1  0  0  0  0
  2 19  1  0  0  0  0
  3  4  1  0  0  0  0
  3 20  1  0  0  0  0
  3 21  1  0  0  0  0
  4  5  1  0  0  0  0
  4 22  1  0  0  0  0
  4 23  1  0  0  0  0
  5  6  1  0  0  0  0
  5 24  1  0  0  0  0
  5 25  1  0  0  0  0
  6  7  1  0  0  0  0
  7  8  2  0  0  0  0
  7 15  1  0  0  0  0
  8  9  1  0  0  0  0
  8 12  1  0  0  0  0
  9 10  2  0  0  0  0
  9 26  1  0  0  0  0
 10 11  1  0  0  0  0
 10 27  1  0  0  0  0
 11 12  1  0  0  0  0
 11 28  1  0  0  0  0
 12 13  2  0  0  0  0
 13 14  1  0  0  0  0
 13 29  1  0  0  0  0
 14 15  2  0  0  0  0
 14 30  1  0  0  0  0
 15 31  1  0  0  0  0
M  CHG  1   3   1
M  END
