3zs1_ligand
 OpenBabel08222323353D

100109  0  0  0  0  0  0  0  0999 V2000
   33.3600   -5.5170   33.7510 C   0  0  0  0  0  3  0  0  0  0  0  0
   37.9300   -6.7600   34.8690 C   0  0  0  0  0  3  0  0  0  0  0  0
   36.5940  -11.3910   34.9720 C   0  0  0  0  0  3  0  0  0  0  0  0
   32.0110  -10.1400   33.9240 C   0  0  0  0  0  3  0  0  0  0  0  0
   34.7600   -5.3920   34.1630 C   0  0  0  0  0  0  0  0  0  0  0  0
   35.4370   -4.2010   34.3670 C   0  0  0  0  0  0  0  0  0  0  0  0
   36.7460   -4.5750   34.6760 C   0  0  0  0  0  0  0  0  0  0  0  0
   36.7550   -5.9490   34.6280 C   0  0  0  0  0  0  0  0  0  0  0  0
   37.9390   -3.7130   35.0030 C   0  0  0  0  0  0  0  0  0  0  0  0
   34.8450   -2.8140   34.2750 C   0  0  0  0  0  0  0  0  0  0  0  0
   34.7640   -2.2680   35.6970 C   0  0  0  0  0  0  0  0  0  0  0  0
   34.1560   -0.8930   35.6710 C   0  0  0  0  0  0  0  0  0  0  0  0
   34.9130    0.0750   35.4380 O   0  5  0  0  0  0  0  0  0  0  0  0
   32.9190   -0.7760   35.8930 O   0  0  0  0  0  0  0  0  0  0  0  0
   37.9900   -8.1980   34.6890 C   0  0  0  0  0  0  0  0  0  0  0  0
   39.2500   -8.8970   34.9440 C   0  0  0  0  0  0  0  0  0  0  0  0
   38.8710  -10.2230   34.8770 C   0  0  0  0  0  0  0  0  0  0  0  0
   37.4200  -10.2480   34.6100 C   0  0  0  0  0  0  0  0  0  0  0  0
   40.5910   -8.2080   35.0810 C   0  0  0  0  0  0  0  0  0  0  0  0
   39.6890  -11.4450   35.1020 C   0  0  0  0  0  0  0  0  0  0  0  0
   40.8880  -11.7670   34.2860 C   0  0  0  0  0  0  0  0  0  0  0  0
   35.1550  -11.5080   34.7680 C   0  0  0  0  0  0  0  0  0  0  0  0
   34.3870  -12.7710   34.9250 C   0  0  0  0  0  0  0  0  0  0  0  0
   33.0780  -12.3840   34.6670 C   0  0  0  0  0  0  0  0  0  0  0  0
   33.1350  -10.9480   34.3440 C   0  0  0  0  0  0  0  0  0  0  0  0
   34.9590  -14.1100   35.2980 C   0  0  0  0  0  0  0  0  0  0  0  0
   31.8360  -13.1910   34.5780 C   0  0  0  0  0  0  0  0  0  0  0  0
   31.7870  -14.6790   34.6820 C   0  0  0  0  0  0  0  0  0  0  0  0
   32.1460   -8.8280   33.2930 C   0  0  0  0  0  0  0  0  0  0  0  0
   30.9300   -8.1230   32.8550 C   0  0  0  0  0  0  0  0  0  0  0  0
   31.2670   -6.7920   32.9370 C   0  0  0  0  0  0  0  0  0  0  0  0
   32.6740   -6.7660   33.3780 C   0  0  0  0  0  0  0  0  0  0  0  0
   29.6500   -8.7940   32.4240 C   0  0  0  0  0  0  0  0  0  0  0  0
   30.5030   -5.5930   32.4570 C   0  0  0  0  0  0  0  0  0  0  0  0
   31.0820   -5.4830   31.0210 C   0  0  0  0  0  0  0  0  0  0  0  0
   30.5290   -4.4190   30.0800 C   0  0  0  0  0  0  0  0  0  0  0  0
   31.2790   -3.4690   29.6940 O   0  5  0  0  0  0  0  0  0  0  0  0
   29.3500   -4.5220   29.6720 O   0  0  0  0  0  0  0  0  0  0  0  0
   35.5460   -6.4370   34.4000 N   0  0  0  0  0  0  0  0  0  0  0  0
   36.9550   -9.0130   34.4270 N   0  0  0  0  0  0  0  0  0  0  0  0
   34.3600  -10.4700   34.5210 N   0  0  0  0  0  0  0  0  0  0  0  0
   33.1660   -7.9960   33.5030 N   0  0  0  0  0  0  0  0  0  0  0  0
   40.2300    1.9270   33.2990 C   0  0  0  0  0  0  0  0  0  0  0  0
   39.2720    0.8800   33.1490 O   0  0  0  0  0  0  0  0  0  0  0  0
   38.6100    1.0870   31.9040 C   0  0  0  0  0  0  0  0  0  0  0  0
   37.5020    0.0700   31.7450 C   0  0  0  0  0  0  0  0  0  0  0  0
   38.0090   -1.2210   31.3390 N   0  0  0  0  0  0  0  0  0  0  0  0
   38.2950   -1.5170   30.0290 C   0  0  0  0  0  0  0  0  0  0  0  0
   38.7770   -2.7470   29.6740 C   0  0  0  0  0  0  0  0  0  0  0  0
   39.0300   -3.8300   30.5600 C   0  0  0  0  0  0  0  0  0  0  0  0
   39.4560   -4.9320   30.2410 O   0  0  0  0  0  0  0  0  0  0  0  0
   38.7220   -3.4670   31.8510 N   0  0  0  0  0  0  0  0  0  0  0  0
   38.2380   -2.2310   32.2670 C   0  0  0  0  0  0  0  0  0  0  0  0
   37.9500   -2.0030   33.8900 S   0  0  0  0  0  0  0  0  0  0  0  0
   38.9370   -2.6670   28.3240 N   0  0  0  0  0  0  0  0  0  0  0  0
   38.5510   -1.4140   27.9330 C   0  0  0  0  0  0  0  0  0  0  0  0
   38.1520   -0.6820   28.9530 N   0  0  0  0  0  0  0  0  0  0  0  0
   34.9390   -8.4500   34.5020 Fe  0  2  1  0  0  0  0  0  0  0  0  0
   32.7710   -4.6005   33.7173 H   0  0  0  0  0  0  0  0  0  0  0  0
   38.8334   -6.2541   35.2098 H   0  0  0  0  0  0  0  0  0  0  0  0
   37.0979  -12.2374   35.4386 H   0  0  0  0  0  0  0  0  0  0  0  0
   31.0068  -10.5313   34.0871 H   0  0  0  0  0  0  0  0  0  0  0  0
   38.8448   -4.2768   34.7800 H   0  0  0  0  0  0  0  0  0  0  0  0
   37.8898   -3.4395   36.0570 H   0  0  0  0  0  0  0  0  0  0  0  0
   33.8561   -2.8465   33.8176 H   0  0  0  0  0  0  0  0  0  0  0  0
   35.4646   -2.1711   33.6499 H   0  0  0  0  0  0  0  0  0  0  0  0
   35.7656   -2.2148   36.1237 H   0  0  0  0  0  0  0  0  0  0  0  0
   34.1453   -2.9278   36.3052 H   0  0  0  0  0  0  0  0  0  0  0  0
   41.0666   -8.5229   36.0098 H   0  0  0  0  0  0  0  0  0  0  0  0
   41.2250   -8.4786   34.2367 H   0  0  0  0  0  0  0  0  0  0  0  0
   40.4435   -7.1281   35.0948 H   0  0  0  0  0  0  0  0  0  0  0  0
   38.9996  -12.2558   34.8667 H   0  0  0  0  0  0  0  0  0  0  0  0
   40.0981  -11.2933   36.1009 H   0  0  0  0  0  0  0  0  0  0  0  0
   40.5985  -11.8637   33.2396 H   0  0  0  0  0  0  0  0  0  0  0  0
   41.6215  -10.9673   34.3890 H   0  0  0  0  0  0  0  0  0  0  0  0
   41.3206  -12.7054   34.6328 H   0  0  0  0  0  0  0  0  0  0  0  0
   34.5127  -14.4464   36.2338 H   0  0  0  0  0  0  0  0  0  0  0  0
   34.7391  -14.8299   34.5097 H   0  0  0  0  0  0  0  0  0  0  0  0
   36.0385  -14.0213   35.4200 H   0  0  0  0  0  0  0  0  0  0  0  0
   31.5120  -13.0145   33.5523 H   0  0  0  0  0  0  0  0  0  0  0  0
   31.2835  -12.8735   35.4623 H   0  0  0  0  0  0  0  0  0  0  0  0
   32.3907  -15.1175   33.8875 H   0  0  0  0  0  0  0  0  0  0  0  0
   32.1798  -14.9874   35.6509 H   0  0  0  0  0  0  0  0  0  0  0  0
   30.7548  -15.0150   34.5833 H   0  0  0  0  0  0  0  0  0  0  0  0
   29.8482   -9.4332   31.5636 H   0  0  0  0  0  0  0  0  0  0  0  0
   29.2633   -9.3975   33.2452 H   0  0  0  0  0  0  0  0  0  0  0  0
   28.9167   -8.0346   32.1527 H   0  0  0  0  0  0  0  0  0  0  0  0
   30.6257   -4.6989   33.0683 H   0  0  0  0  0  0  0  0  0  0  0  0
   29.4187   -5.6934   32.5054 H   0  0  0  0  0  0  0  0  0  0  0  0
   30.8363   -6.4328   30.5459 H   0  0  0  0  0  0  0  0  0  0  0  0
   32.1298   -5.2169   31.1606 H   0  0  0  0  0  0  0  0  0  0  0  0
   40.9422    1.8869   32.4749 H   0  0  0  0  0  0  0  0  0  0  0  0
   39.7185    2.8895   33.2923 H   0  0  0  0  0  0  0  0  0  0  0  0
   40.7585    1.8016   34.2440 H   0  0  0  0  0  0  0  0  0  0  0  0
   39.3256    0.9741   31.0896 H   0  0  0  0  0  0  0  0  0  0  0  0
   38.1867    2.0912   31.8808 H   0  0  0  0  0  0  0  0  0  0  0  0
   36.8190    0.4266   30.9740 H   0  0  0  0  0  0  0  0  0  0  0  0
   37.0040   -0.0459   32.7076 H   0  0  0  0  0  0  0  0  0  0  0  0
   38.5712   -1.0634   26.9011 H   0  0  0  0  0  0  0  0  0  0  0  0
   37.8155    0.2808   28.9436 H   0  0  0  0  0  0  0  0  0  0  0  0
  1 32  1  0  0  0  0
  1 59  1  0  0  0  0
  2 15  1  0  0  0  0
  2 60  1  0  0  0  0
  3 22  1  0  0  0  0
  3 61  1  0  0  0  0
  4 25  1  0  0  0  0
  4 62  1  0  0  0  0
  5  1  1  0  0  0  0
  6  5  2  0  0  0  0
  6 10  1  0  0  0  0
  7  6  1  0  0  0  0
  7  8  2  0  0  0  0
  8  2  1  0  0  0  0
  8 39  1  0  0  0  0
  9  7  1  0  0  0  0
  9 63  1  0  0  0  0
  9 64  1  0  0  0  0
 10 11  1  0  0  0  0
 10 65  1  0  0  0  0
 10 66  1  0  0  0  0
 11 12  1  0  0  0  0
 11 67  1  0  0  0  0
 11 68  1  0  0  0  0
 12 13  1  0  0  0  0
 12 14  2  0  0  0  0
 15 16  2  0  0  0  0
 15 40  1  0  0  0  0
 16 17  1  0  0  0  0
 16 19  1  0  0  0  0
 17 20  1  0  0  0  0
 18  3  1  0  0  0  0
 18 17  2  0  0  0  0
 19 69  1  0  0  0  0
 19 70  1  0  0  0  0
 19 71  1  0  0  0  0
 20 21  1  0  0  0  0
 20 72  1  0  0  0  0
 20 73  1  0  0  0  0
 21 74  1  0  0  0  0
 21 75  1  0  0  0  0
 21 76  1  0  0  0  0
 22 23  2  0  0  0  0
 22 41  1  0  0  0  0
 23 24  1  0  0  0  0
 23 26  1  0  0  0  0
 24 27  1  0  0  0  0
 25 24  2  0  0  0  0
 26 77  1  0  0  0  0
 26 78  1  0  0  0  0
 26 79  1  0  0  0  0
 27 28  1  0  0  0  0
 27 80  1  0  0  0  0
 27 81  1  0  0  0  0
 28 82  1  0  0  0  0
 28 83  1  0  0  0  0
 28 84  1  0  0  0  0
 29  4  1  0  0  0  0
 29 30  2  0  0  0  0
 30 33  1  0  0  0  0
 31 30  1  0  0  0  0
 31 34  1  0  0  0  0
 32 31  2  0  0  0  0
 32 42  1  0  0  0  0
 33 85  1  0  0  0  0
 33 86  1  0  0  0  0
 33 87  1  0  0  0  0
 34 35  1  0  0  0  0
 34 88  1  0  0  0  0
 34 89  1  0  0  0  0
 35 36  1  0  0  0  0
 35 90  1  0  0  0  0
 35 91  1  0  0  0  0
 36 37  1  0  0  0  0
 36 38  2  0  0  0  0
 39  5  1  0  0  0  0
 40 18  1  0  0  0  0
 41 25  1  0  0  0  0
 42 29  1  0  0  0  0
 43 92  1  0  0  0  0
 43 93  1  0  0  0  0
 43 94  1  0  0  0  0
 44 43  1  0  0  0  0
 45 44  1  0  0  0  0
 45 95  1  0  0  0  0
 45 96  1  0  0  0  0
 46 45  1  0  0  0  0
 46 97  1  0  0  0  0
 46 98  1  0  0  0  0
 47 46  1  0  0  0  0
 47 48  1  0  0  0  0
 48 49  2  0  0  0  0
 48 57  1  0  0  0  0
 49 55  1  0  0  0  0
 50 49  1  0  0  0  0
 50 51  2  0  0  0  0
 52 50  1  0  0  0  0
 53 47  1  0  0  0  0
 53 52  2  0  0  0  0
 53 54  1  0  0  0  0
 54  9  1  0  0  0  0
 55 56  2  0  0  0  0
 56 57  1  0  0  0  0
 56 99  1  0  0  0  0
 57100  1  0  0  0  0
 58 39  1  1  0  0  0
 58 40  1  0  0  0  0
 58 41  1  0  0  0  0
 58 42  1  0  0  0  0
M  CHG  3  13  -1  37  -1  58   2
M  END
