3zsz_ligand
 OpenBabel08222323353D

 55 57  0  0  1  0  0  0  0  0999 V2000
   10.2620  -48.0120    6.2140 C   0  0  0  0  0  0  0  0  0  0  0  0
   11.0820  -48.8570    5.4910 C   0  0  0  0  0  0  0  0  0  0  0  0
    9.2760  -47.2570    5.5920 C   0  0  0  0  0  0  0  0  0  0  0  0
   10.8970  -48.9370    4.1200 C   0  0  0  0  0  0  0  0  0  0  0  0
   11.3250  -44.9980   -0.9090 C   0  0  0  0  0  0  0  0  0  0  0  0
   12.1910  -44.5200   -1.8840 C   0  0  0  0  0  0  0  0  0  0  0  0
    9.0970  -47.3250    4.2200 C   0  0  0  0  0  0  0  0  0  0  0  0
   13.1900  -45.5680    0.5200 C   0  0  0  0  0  0  0  0  0  0  0  0
    9.9140  -48.1800    3.4960 C   0  0  0  0  0  0  0  0  0  0  0  0
   11.8080  -45.5270    0.2880 C   0  0  0  0  0  0  0  0  0  0  0  0
   13.5540  -44.5660   -1.6450 C   0  0  0  0  0  0  0  0  0  0  0  0
   14.0410  -45.0710   -0.4730 C   0  0  0  0  0  0  0  0  0  0  0  0
    8.0380  -46.5020    3.5090 C   0  0  0  0  0  0  0  0  0  0  0  0
   13.7490  -46.1020    1.8010 C   0  0  0  0  0  0  0  0  0  0  0  0
   15.7280  -44.2460   -1.6520 C   0  0  0  0  0  0  0  0  0  0  0  0
    7.9040  -42.1320    1.4780 C   0  0  0  0  0  0  0  0  0  0  0  0
    6.1730  -43.5540    3.4870 C   0  0  0  0  0  0  0  0  0  0  0  0
   10.9630  -48.2390   -0.0680 C   0  0  0  0  0  0  0  0  0  0  0  0
    9.7360  -48.2680    2.0130 C   0  0  0  0  0  0  0  0  0  0  0  0
   10.8210  -46.0610    1.3010 C   0  0  0  0  0  0  0  0  0  0  0  0
    8.4550  -43.1240    2.4500 C   0  0  0  0  0  0  0  0  0  0  0  0
    7.4270  -44.1730    2.8620 C   0  0  1  0  0  0  0  0  0  0  0  0
    8.0350  -45.1340    3.7710 N   0  0  0  0  0  0  0  0  0  0  0  0
   10.8180  -47.5770    1.2740 N   0  3  2  0  0  0  0  0  0  0  0  0
   14.7890  -45.5190    2.2480 O   0  5  0  0  0  0  0  0  0  0  0  0
    7.2350  -47.0020    2.7250 O   0  0  0  0  0  0  0  0  0  0  0  0
   13.1430  -47.0500    2.3700 O   0  0  0  0  0  0  0  0  0  0  0  0
   14.5680  -44.1390   -2.4920 O   0  0  0  0  0  0  0  0  0  0  0  0
   15.4380  -45.0110   -0.4540 O   0  0  0  0  0  0  0  0  0  0  0  0
   10.3907  -47.9368    7.2877 H   0  0  0  0  0  0  0  0  0  0  0  0
   11.8501  -49.4422    5.9835 H   0  0  0  0  0  0  0  0  0  0  0  0
    8.6411  -46.6090    6.1853 H   0  0  0  0  0  0  0  0  0  0  0  0
   11.5243  -49.5955    3.5301 H   0  0  0  0  0  0  0  0  0  0  0  0
   10.2555  -44.9593   -1.0812 H   0  0  0  0  0  0  0  0  0  0  0  0
   11.8069  -44.1184   -2.8147 H   0  0  0  0  0  0  0  0  0  0  0  0
   16.0562  -43.2367   -1.3628 H   0  0  0  0  0  0  0  0  0  0  0  0
   16.5317  -44.7466   -2.2118 H   0  0  0  0  0  0  0  0  0  0  0  0
    8.6846  -41.4024    1.2165 H   0  0  0  0  0  0  0  0  0  0  0  0
    7.0502  -41.6083    1.9328 H   0  0  0  0  0  0  0  0  0  0  0  0
    7.5716  -42.6549    0.5691 H   0  0  0  0  0  0  0  0  0  0  0  0
    5.7310  -42.8325    2.7841 H   0  0  0  0  0  0  0  0  0  0  0  0
    6.4447  -43.0380    4.4197 H   0  0  0  0  0  0  0  0  0  0  0  0
    5.4428  -44.3470    3.7059 H   0  0  0  0  0  0  0  0  0  0  0  0
   10.9448  -49.3316    0.0583 H   0  0  0  0  0  0  0  0  0  0  0  0
   11.9179  -47.9385   -0.5239 H   0  0  0  0  0  0  0  0  0  0  0  0
   10.1324  -47.9314   -0.7203 H   0  0  0  0  0  0  0  0  0  0  0  0
    8.7741  -47.8070    1.7444 H   0  0  0  0  0  0  0  0  0  0  0  0
    9.7290  -49.3282    1.7200 H   0  0  0  0  0  0  0  0  0  0  0  0
    9.8140  -45.6906    1.0586 H   0  0  0  0  0  0  0  0  0  0  0  0
   11.1070  -45.7153    2.3053 H   0  0  0  0  0  0  0  0  0  0  0  0
    8.7907  -42.5872    3.3495 H   0  0  0  0  0  0  0  0  0  0  0  0
    9.3121  -43.6337    1.9858 H   0  0  0  0  0  0  0  0  0  0  0  0
    7.1151  -44.7109    1.9546 H   0  0  0  0  0  0  0  0  0  0  0  0
    8.4643  -44.8012    4.6106 H   0  0  0  0  0  0  0  0  0  0  0  0
   11.6618  -47.8152    1.7714 H   0  0  0  0  0  0  0  0  0  0  0  0
  1  2  2  0  0  0  0
  1 30  1  0  0  0  0
  2 31  1  0  0  0  0
  3  1  1  0  0  0  0
  3 32  1  0  0  0  0
  4  2  1  0  0  0  0
  4 33  1  0  0  0  0
  5  6  2  0  0  0  0
  5 34  1  0  0  0  0
  6 11  1  0  0  0  0
  6 35  1  0  0  0  0
  7  3  2  0  0  0  0
  7  9  1  0  0  0  0
  8 12  1  0  0  0  0
  8 14  1  0  0  0  0
  9  4  2  0  0  0  0
  9 19  1  0  0  0  0
 10  5  1  0  0  0  0
 10  8  2  0  0  0  0
 11 28  1  0  0  0  0
 12 11  2  0  0  0  0
 12 29  1  0  0  0  0
 13  7  1  0  0  0  0
 13 26  2  0  0  0  0
 14 25  1  0  0  0  0
 14 27  2  0  0  0  0
 15 28  1  0  0  0  0
 15 36  1  0  0  0  0
 15 37  1  0  0  0  0
 16 38  1  0  0  0  0
 16 39  1  0  0  0  0
 16 40  1  0  0  0  0
 17 41  1  0  0  0  0
 17 42  1  0  0  0  0
 17 43  1  0  0  0  0
 18 44  1  0  0  0  0
 18 45  1  0  0  0  0
 18 46  1  0  0  0  0
 19 24  1  0  0  0  0
 19 47  1  0  0  0  0
 19 48  1  0  0  0  0
 20 10  1  0  0  0  0
 20 49  1  0  0  0  0
 20 50  1  0  0  0  0
 21 16  1  0  0  0  0
 21 51  1  0  0  0  0
 21 52  1  0  0  0  0
 22 17  1  0  0  0  0
 22 21  1  0  0  0  0
 22 23  1  0  0  0  0
 22 53  1  6  0  0  0
 23 13  1  0  0  0  0
 23 54  1  0  0  0  0
 24 18  1  0  0  0  0
 24 20  1  0  0  0  0
 24 55  1  1  0  0  0
 29 15  1  0  0  0  0
M  CHG  2  24   1  25  -1
M  END
