3zt4_ligand
 OpenBabel08222323353D

 34 37  0  0  0  0  0  0  0  0999 V2000
  -30.9510   28.6030    0.5720 C   0  0  0  0  0  0  0  0  0  0  0  0
  -31.2390   27.4250   -0.1160 C   0  0  0  0  0  0  0  0  0  0  0  0
  -31.7660   29.7180    0.4890 C   0  0  0  0  0  0  0  0  0  0  0  0
  -33.1480   32.1580    1.9860 C   0  0  0  0  0  0  0  0  0  0  0  0
  -32.3740   27.3410   -0.9090 C   0  0  0  0  0  0  0  0  0  0  0  0
  -32.4090   32.7920    2.9750 C   0  0  0  0  0  0  0  0  0  0  0  0
  -32.8820   29.6070   -0.3030 C   0  0  0  0  0  0  0  0  0  0  0  0
  -33.2760   32.6720    0.6930 C   0  0  0  0  0  0  0  0  0  0  0  0
  -32.6590   33.8890    0.3730 C   0  0  0  0  0  0  0  0  0  0  0  0
  -33.1830   28.4480   -0.9870 C   0  0  0  0  0  0  0  0  0  0  0  0
  -31.8190   33.9790    2.6350 C   0  0  0  0  0  0  0  0  0  0  0  0
  -31.9300   34.5220    1.3810 C   0  0  0  0  0  0  0  0  0  0  0  0
  -33.9200   30.5820   -0.5990 C   0  0  0  0  0  0  0  0  0  0  0  0
  -34.8980   29.9230   -1.4930 C   0  0  0  0  0  0  0  0  0  0  0  0
  -34.1080   31.8690   -0.2350 C   0  0  0  0  0  0  0  0  0  0  0  0
  -32.7330   34.5380   -0.9590 C   0  0  0  0  0  0  0  0  0  0  0  0
  -34.4520   28.5300   -1.8060 C   0  0  0  0  0  0  0  0  0  0  0  0
  -30.5480   35.7630    2.5580 C   0  0  0  0  0  0  0  0  0  0  0  0
  -31.7150   35.1340   -1.3570 O   0  5  0  0  0  0  0  0  0  0  0  0
  -35.9360   30.4300   -1.8880 O   0  0  0  0  0  0  0  0  0  0  0  0
  -33.8010   34.4940   -1.6110 O   0  0  0  0  0  0  0  0  0  0  0  0
  -31.0610   34.7410    3.4520 O   0  0  0  0  0  0  0  0  0  0  0  0
  -31.2260   35.7450    1.2880 O   0  0  0  0  0  0  0  0  0  0  0  0
  -30.0618   28.6466    1.1905 H   0  0  0  0  0  0  0  0  0  0  0  0
  -30.5744   26.5728   -0.0310 H   0  0  0  0  0  0  0  0  0  0  0  0
  -31.5351   30.6330    1.0224 H   0  0  0  0  0  0  0  0  0  0  0  0
  -33.6463   31.2258    2.2265 H   0  0  0  0  0  0  0  0  0  0  0  0
  -32.6143   26.4323   -1.4489 H   0  0  0  0  0  0  0  0  0  0  0  0
  -32.3044   32.3681    3.9672 H   0  0  0  0  0  0  0  0  0  0  0  0
  -34.9679   32.3740   -0.6726 H   0  0  0  0  0  0  0  0  0  0  0  0
  -35.1929   27.7850   -1.4804 H   0  0  0  0  0  0  0  0  0  0  0  0
  -34.2500   28.4013   -2.8796 H   0  0  0  0  0  0  0  0  0  0  0  0
  -29.4750   35.5865    2.3923 H   0  0  0  0  0  0  0  0  0  0  0  0
  -30.6897   36.7491    3.0243 H   0  0  0  0  0  0  0  0  0  0  0  0
  1  2  2  0  0  0  0
  1 24  1  0  0  0  0
  2 25  1  0  0  0  0
  3  1  1  0  0  0  0
  3 26  1  0  0  0  0
  4  6  2  0  0  0  0
  4 27  1  0  0  0  0
  5  2  1  0  0  0  0
  5 28  1  0  0  0  0
  6 11  1  0  0  0  0
  6 29  1  0  0  0  0
  7  3  2  0  0  0  0
  7 10  1  0  0  0  0
  8  4  1  0  0  0  0
  8  9  2  0  0  0  0
  9 12  1  0  0  0  0
  9 16  1  0  0  0  0
 10  5  2  0  0  0  0
 10 17  1  0  0  0  0
 11 22  1  0  0  0  0
 12 11  2  0  0  0  0
 12 23  1  0  0  0  0
 13  7  1  0  0  0  0
 13 14  1  0  0  0  0
 13 15  2  0  0  0  0
 14 17  1  0  0  0  0
 14 20  2  0  0  0  0
 15  8  1  0  0  0  0
 15 30  1  0  0  0  0
 16 19  1  0  0  0  0
 16 21  2  0  0  0  0
 17 31  1  0  0  0  0
 17 32  1  0  0  0  0
 18 23  1  0  0  0  0
 18 33  1  0  0  0  0
 18 34  1  0  0  0  0
 22 18  1  0  0  0  0
M  CHG  1  19  -1
M  END
