3zy2_ligand
 OpenBabel08222323353D

 40 42  0  0  1  0  0  0  0  0999 V2000
    7.9590  -15.0370   19.2750 P   0  0  0  0  0  0  0  0  0  0  0  0
    8.5030  -14.8420   20.6420 O   0  0  0  0  0  1  0  0  0  0  0  0
    7.6150  -16.3670   18.5320 O   0  0  0  0  0  1  0  0  0  0  0  0
    7.5350  -13.6530   18.4880 O   0  0  0  0  0  0  0  0  0  0  0  0
    9.6090  -14.8690   18.8200 O   0  0  0  0  0  0  0  0  0  0  0  0
   10.1930  -14.1980   17.3510 P   0  0  1  0  0  0  0  0  0  0  0  0
   11.7970  -14.4320   17.9920 O   0  0  0  0  0  1  0  0  0  0  0  0
    9.8100  -14.6300   16.1540 O   0  0  0  0  0  0  0  0  0  0  0  0
    9.4460  -12.6330   17.8090 O   0  0  0  0  0  0  0  0  0  0  0  0
   10.2560  -12.4300   18.7940 C   0  0  0  0  0  0  0  0  0  0  0  0
   10.9370  -11.2980   19.0490 C   0  0  1  0  0  0  0  0  0  0  0  0
   10.8500  -10.2070   19.8740 O   0  0  0  0  0  0  0  0  0  0  0  0
   12.2440  -11.7660   19.0670 C   0  0  1  0  0  0  0  0  0  0  0  0
   13.3430  -11.9710   17.7380 O   0  0  0  0  0  0  0  0  0  0  0  0
   13.5990  -10.1450   19.6590 C   0  0  1  0  0  0  0  0  0  0  0  0
   13.6760   -9.4240   18.5110 O   0  0  0  0  0  0  0  0  0  0  0  0
   12.4300   -9.7870   20.5600 C   0  0  2  0  0  0  0  0  0  0  0  0
   12.5740  -10.4940   21.6230 N   0  0  0  0  0  0  0  0  0  0  0  0
   11.4550  -11.7910   22.2540 C   0  0  0  0  0  0  0  0  0  0  0  0
   12.3030  -11.9130   23.2250 N   0  0  0  0  0  0  0  0  0  0  0  0
   13.4010  -11.3290   23.5030 C   0  0  0  0  0  0  0  0  0  0  0  0
   14.7620  -11.1480   24.5690 C   0  0  0  0  0  0  0  0  0  0  0  0
   14.6190  -11.9020   25.4150 O   0  0  0  0  0  0  0  0  0  0  0  0
   15.3660  -10.3730   24.1290 N   0  0  0  0  0  0  0  0  0  0  0  0
   15.5280   -9.5520   23.2100 C   0  0  0  0  0  0  0  0  0  0  0  0
   16.2200   -8.8710   22.9820 N   0  0  0  0  0  0  0  0  0  0  0  0
   14.5400   -9.3480   21.9980 N   0  0  0  0  0  0  0  0  0  0  0  0
   13.5060  -10.3150   22.2800 C   0  0  0  0  0  0  0  0  0  0  0  0
   11.0249  -13.2107   18.6977 H   0  0  0  0  0  0  0  0  0  0  0  0
    9.6580  -12.6139   19.6987 H   0  0  0  0  0  0  0  0  0  0  0  0
   10.8119  -10.7837   18.0847 H   0  0  0  0  0  0  0  0  0  0  0  0
   12.2514  -12.6507   19.7206 H   0  0  0  0  0  0  0  0  0  0  0  0
   13.4875  -11.1323   17.3158 H   0  0  0  0  0  0  0  0  0  0  0  0
   14.5705  -10.3526   20.1313 H   0  0  0  0  0  0  0  0  0  0  0  0
   13.7654   -8.5022   18.7227 H   0  0  0  0  0  0  0  0  0  0  0  0
   12.4562   -8.7122   20.7925 H   0  0  0  0  0  0  0  0  0  0  0  0
   10.5135  -12.2486   21.9538 H   0  0  0  0  0  0  0  0  0  0  0  0
   16.1545  -10.2644   24.7344 H   0  0  0  0  0  0  0  0  0  0  0  0
   16.1176   -8.2970   22.1329 H   0  0  0  0  0  0  0  0  0  0  0  0
   17.0371   -8.7416   23.5956 H   0  0  0  0  0  0  0  0  0  0  0  0
  1  2  1  0  0  0  0
  1  3  1  0  0  0  0
  1  4  2  0  0  0  0
  5  1  1  0  0  0  0
  6  5  1  0  0  0  0
  6  7  1  1  0  0  0
  6  8  2  0  0  0  0
  9  6  1  0  0  0  0
 10  9  1  0  0  0  0
 10 29  1  0  0  0  0
 10 30  1  0  0  0  0
 11 10  1  0  0  0  0
 11 13  1  0  0  0  0
 11 31  1  6  0  0  0
 12 11  1  0  0  0  0
 12 17  1  0  0  0  0
 13 14  1  0  0  0  0
 13 32  1  1  0  0  0
 14 33  1  0  0  0  0
 15 16  1  0  0  0  0
 15 13  1  0  0  0  0
 15 34  1  1  0  0  0
 16 35  1  0  0  0  0
 17 15  1  0  0  0  0
 17 18  1  0  0  0  0
 17 36  1  1  0  0  0
 18 28  1  0  0  0  0
 19 18  1  0  0  0  0
 19 37  1  0  0  0  0
 20 19  2  0  0  0  0
 21 20  1  0  0  0  0
 21 22  1  0  0  0  0
 22 23  2  0  0  0  0
 22 24  1  0  0  0  0
 24 38  1  0  0  0  0
 25 24  1  0  0  0  0
 25 26  1  0  0  0  0
 26 39  1  0  0  0  0
 26 40  1  0  0  0  0
 27 25  2  0  0  0  0
 28 21  2  0  0  0  0
 28 27  1  0  0  0  0
M  END
