3zyr_ligand
 OpenBabel08222323353D

188194  0  0  1  0  0  0  0  0999 V2000
   50.5790   19.9520   41.0910 N   0  3  0  0  0  0  0  0  0  0  0  0
   49.6800   19.5690   39.9900 C   0  0  2  0  0  0  0  0  0  0  0  0
   48.6510   20.6600   39.6480 C   0  0  0  0  0  0  0  0  0  0  0  0
   48.5800   21.6660   40.3470 O   0  5  0  0  0  0  0  0  0  0  0  0
   48.9200   18.2950   40.3710 C   0  0  0  0  0  0  0  0  0  0  0  0
   47.9190   18.5270   41.5070 C   0  0  0  0  0  0  0  0  0  0  0  0
   48.1340   19.3730   42.3820 O   0  0  0  0  0  0  0  0  0  0  0  0
   46.8150   17.7770   41.4990 N   0  0  0  0  0  0  0  0  0  0  0  0
   47.8220   20.5310   38.7210 O   0  0  0  0  0  0  0  0  0  0  0  0
   45.8350   17.9820   42.5560 C   0  0  1  0  0  0  0  0  0  0  0  0
   44.4570   18.0020   41.9060 C   0  0  1  0  0  0  0  0  0  0  0  0
   43.3340   17.8660   42.9220 C   0  0  2  0  0  0  0  0  0  0  0  0
   43.5830   16.7170   43.8970 C   0  0  1  0  0  0  0  0  0  0  0  0
   44.9340   16.9680   44.5470 C   0  0  1  0  0  0  0  0  0  0  0  0
   45.2770   15.8580   45.5450 C   0  0  0  0  0  0  0  0  0  0  0  0
   44.2270   19.2890   39.8330 C   0  0  0  0  0  0  0  0  0  0  0  0
   43.9560   20.6470   39.2340 C   0  0  0  0  0  0  0  0  0  0  0  0
   44.2140   19.2530   41.1650 N   0  0  0  0  0  0  0  0  0  0  0  0
   42.1460   17.6510   42.2100 O   0  0  0  0  0  0  0  0  0  0  0  0
   42.5250   16.7470   44.8560 O   0  0  0  0  0  0  0  0  0  0  0  0
   45.9540   16.9670   43.5580 O   0  0  0  0  0  0  0  0  0  0  0  0
   45.3030   14.6360   44.8390 O   0  0  0  0  0  0  0  0  0  0  0  0
   44.4810   18.3110   39.1170 O   0  0  0  0  0  0  0  0  0  0  0  0
   41.9020   15.4670   45.0340 C   0  0  1  0  0  0  0  0  0  0  0  0
   40.9730   15.6630   46.2290 C   0  0  1  0  0  0  0  0  0  0  0  0
   40.1930   14.3620   46.4840 C   0  0  2  0  0  0  0  0  0  0  0  0
   39.5790   13.8390   45.1900 C   0  0  1  0  0  0  0  0  0  0  0  0
   40.6120   13.7700   44.0420 C   0  0  1  0  0  0  0  0  0  0  0  0
   39.9990   13.3470   42.7270 C   0  0  0  0  0  0  0  0  0  0  0  0
   41.5520   17.2330   48.0200 C   0  0  0  0  0  0  0  0  0  0  0  0
   42.3060   17.4650   49.2980 C   0  0  0  0  0  0  0  0  0  0  0  0
   41.6840   16.0420   47.4390 N   0  0  0  0  0  0  0  0  0  0  0  0
   39.2000   14.6360   47.4960 O   0  0  0  0  0  0  0  0  0  0  0  0
   39.0630   12.5080   45.3670 O   0  0  0  0  0  0  0  0  0  0  0  0
   41.2060   15.0480   43.8790 O   0  0  0  0  0  0  0  0  0  0  0  0
   38.9780   14.2470   42.3720 O   0  0  0  0  0  0  0  0  0  0  0  0
   40.8330   18.1370   47.5660 O   0  0  0  0  0  0  0  0  0  0  0  0
   37.6360   12.4520   45.3390 C   0  0  1  0  0  0  0  0  0  0  0  0
   37.1500   11.0140   45.2250 C   0  0  2  0  0  0  0  0  0  0  0  0
   35.6220   11.0600   45.2680 C   0  0  2  0  0  0  0  0  0  0  0  0
   35.1120   11.8670   46.4750 C   0  0  1  0  0  0  0  0  0  0  0  0
   35.7510   13.2730   46.5100 C   0  0  1  0  0  0  0  0  0  0  0  0
   35.3300   14.0480   47.7590 C   0  0  0  0  0  0  0  0  0  0  0  0
   37.7450   10.1700   46.2400 O   0  0  0  0  0  0  0  0  0  0  0  0
   35.1230    9.7390   45.2710 O   0  0  0  0  0  0  0  0  0  0  0  0
   33.7020   11.8940   46.4030 O   0  0  0  0  0  0  0  0  0  0  0  0
   37.1710   13.1090   46.4990 O   0  0  0  0  0  0  0  0  0  0  0  0
   35.7910   13.3610   48.9240 O   0  0  0  0  0  0  0  0  0  0  0  0
   34.4610    9.3470   44.0350 C   0  0  2  0  0  0  0  0  0  0  0  0
   33.6630    8.0640   44.2760 C   0  0  2  0  0  0  0  0  0  0  0  0
   34.6180    6.9050   44.5040 C   0  0  2  0  0  0  0  0  0  0  0  0
   35.5850    6.8290   43.3180 C   0  0  1  0  0  0  0  0  0  0  0  0
   36.2970    8.1590   43.1020 C   0  0  1  0  0  0  0  0  0  0  0  0
   37.1270    8.1190   41.8330 C   0  0  0  0  0  0  0  0  0  0  0  0
   32.8650    7.7610   43.1390 O   0  0  0  0  0  0  0  0  0  0  0  0
   33.8610    5.7000   44.6210 O   0  0  0  0  0  0  0  0  0  0  0  0
   36.5630    5.8280   43.5420 O   0  0  0  0  0  0  0  0  0  0  0  0
   35.3450    9.1870   42.9490 O   0  0  0  0  0  0  0  0  0  0  0  0
   37.9210    9.2950   41.7320 O   0  0  0  0  0  0  0  0  0  0  0  0
   31.5650    8.3600   43.1220 C   0  0  1  0  0  0  0  0  0  0  0  0
   31.2060    8.4370   41.6360 C   0  0  1  0  0  0  0  0  0  0  0  0
   29.8100    9.0040   41.5220 C   0  0  2  0  0  0  0  0  0  0  0  0
   28.8450    8.1500   42.3490 C   0  0  1  0  0  0  0  0  0  0  0  0
   29.3100    8.0830   43.8010 C   0  0  1  0  0  0  0  0  0  0  0  0
   28.3590    7.2430   44.6640 C   0  0  0  0  0  0  0  0  0  0  0  0
   33.2130    8.8800   40.2590 C   0  0  0  0  0  0  0  0  0  0  0  0
   34.1380    9.9510   39.7610 C   0  0  0  0  0  0  0  0  0  0  0  0
   32.2020    9.3070   41.0070 N   0  0  0  0  0  0  0  0  0  0  0  0
   29.4320    8.9380   40.1650 O   0  0  0  0  0  0  0  0  0  0  0  0
   27.5840    8.7660   42.3430 O   0  0  0  0  0  0  0  0  0  0  0  0
   30.6520    7.5880   43.8400 O   0  0  0  0  0  0  0  0  0  0  0  0
   28.2710    5.9160   44.1980 O   0  0  0  0  0  0  0  0  0  0  0  0
   33.4180    7.6920   39.9860 O   0  0  0  0  0  0  0  0  0  0  0  0
   34.9280   13.6710   50.0380 C   0  0  2  0  0  0  0  0  0  0  0  0
   35.8020   13.6870   51.3050 C   0  0  2  0  0  0  0  0  0  0  0  0
   36.1960   12.2800   51.7200 C   0  0  2  0  0  0  0  0  0  0  0  0
   34.9920   11.3760   51.7770 C   0  0  1  0  0  0  0  0  0  0  0  0
   34.3010   11.4130   50.4210 C   0  0  1  0  0  0  0  0  0  0  0  0
   33.0960   10.4910   50.4030 C   0  0  0  0  0  0  0  0  0  0  0  0
   34.9990   14.3060   52.2720 O   0  0  0  0  0  0  0  0  0  0  0  0
   36.8830   12.3530   52.9720 O   0  0  0  0  0  0  0  0  0  0  0  0
   35.4580   10.0690   52.0280 O   0  0  0  0  0  0  0  0  0  0  0  0
   33.8470   12.7470   50.1450 O   0  0  0  0  0  0  0  0  0  0  0  0
   32.0850   10.9120   51.3170 O   0  0  0  0  0  0  0  0  0  0  0  0
   35.5610   15.4680   52.9180 C   0  0  1  0  0  0  0  0  0  0  0  0
   34.4570   16.3520   53.4660 C   0  0  1  0  0  0  0  0  0  0  0  0
   35.1000   17.5250   54.2090 C   0  0  2  0  0  0  0  0  0  0  0  0
   36.1570   17.0860   55.2060 C   0  0  1  0  0  0  0  0  0  0  0  0
   37.1530   16.1100   54.5910 C   0  0  1  0  0  0  0  0  0  0  0  0
   38.1020   15.4410   55.5790 C   0  0  0  0  0  0  0  0  0  0  0  0
   32.2790   16.9780   52.5200 C   0  0  0  0  0  0  0  0  0  0  0  0
   31.5300   17.5050   51.3240 C   0  0  0  0  0  0  0  0  0  0  0  0
   33.5910   16.8510   52.3870 N   0  0  0  0  0  0  0  0  0  0  0  0
   34.1000   18.3240   54.8460 O   0  0  0  0  0  0  0  0  0  0  0  0
   36.8530   18.1950   55.8030 O   0  0  0  0  0  0  0  0  0  0  0  0
   36.4660   15.0730   53.8990 O   0  0  0  0  0  0  0  0  0  0  0  0
   39.1460   14.7920   54.8880 O   0  0  0  0  0  0  0  0  0  0  0  0
   31.6930   16.7110   53.5820 O   0  0  0  0  0  0  0  0  0  0  0  0
   51.2287   19.2025   41.2705 H   0  0  0  0  0  0  0  0  0  0  0  0
   50.0361   20.1320   41.9210 H   0  0  0  0  0  0  0  0  0  0  0  0
   51.0879   20.7837   40.8354 H   0  0  0  0  0  0  0  0  0  0  0  0
   50.2916   19.3728   39.0970 H   0  0  0  0  0  0  0  0  0  0  0  0
   49.6462   17.5332   40.6908 H   0  0  0  0  0  0  0  0  0  0  0  0
   48.3735   17.9327   39.4878 H   0  0  0  0  0  0  0  0  0  0  0  0
   46.6649   17.0923   40.7858 H   0  0  0  0  0  0  0  0  0  0  0  0
   46.0161   18.9569   43.0322 H   0  0  0  0  0  0  0  0  0  0  0  0
   44.4042   17.1566   41.2042 H   0  0  0  0  0  0  0  0  0  0  0  0
   43.2526   18.8008   43.4961 H   0  0  0  0  0  0  0  0  0  0  0  0
   43.5903   15.7499   43.3729 H   0  0  0  0  0  0  0  0  0  0  0  0
   44.9121   17.9389   45.0635 H   0  0  0  0  0  0  0  0  0  0  0  0
   44.5137   15.8170   46.3360 H   0  0  0  0  0  0  0  0  0  0  0  0
   46.2618   16.0509   45.9954 H   0  0  0  0  0  0  0  0  0  0  0  0
   43.9874   20.5766   38.1367 H   0  0  0  0  0  0  0  0  0  0  0  0
   44.7211   21.3587   39.5777 H   0  0  0  0  0  0  0  0  0  0  0  0
   42.9620   20.9958   39.5507 H   0  0  0  0  0  0  0  0  0  0  0  0
   44.0351   20.0949   41.6742 H   0  0  0  0  0  0  0  0  0  0  0  0
   41.4187   17.5970   42.8187 H   0  0  0  0  0  0  0  0  0  0  0  0
   45.5143   13.9298   45.4383 H   0  0  0  0  0  0  0  0  0  0  0  0
   42.6636   14.7100   45.2726 H   0  0  0  0  0  0  0  0  0  0  0  0
   40.2604   16.4642   45.9834 H   0  0  0  0  0  0  0  0  0  0  0  0
   40.8850   13.5977   46.8672 H   0  0  0  0  0  0  0  0  0  0  0  0
   38.7597   14.5126   44.8984 H   0  0  0  0  0  0  0  0  0  0  0  0
   41.3888   13.0408   44.3156 H   0  0  0  0  0  0  0  0  0  0  0  0
   39.5773   12.3361   42.8279 H   0  0  0  0  0  0  0  0  0  0  0  0
   40.7734   13.3450   41.9458 H   0  0  0  0  0  0  0  0  0  0  0  0
   42.1048   18.4831   49.6627 H   0  0  0  0  0  0  0  0  0  0  0  0
   43.3842   17.3478   49.1141 H   0  0  0  0  0  0  0  0  0  0  0  0
   41.9812   16.7342   50.0532 H   0  0  0  0  0  0  0  0  0  0  0  0
   42.3025   15.3757   47.8555 H   0  0  0  0  0  0  0  0  0  0  0  0
   39.6290   14.9581   48.2800 H   0  0  0  0  0  0  0  0  0  0  0  0
   39.3429   15.1198   42.2848 H   0  0  0  0  0  0  0  0  0  0  0  0
   37.2729   13.0004   44.4573 H   0  0  0  0  0  0  0  0  0  0  0  0
   37.4549   10.6140   44.2467 H   0  0  0  0  0  0  0  0  0  0  0  0
   35.2658   11.5608   44.3557 H   0  0  0  0  0  0  0  0  0  0  0  0
   35.4016   11.3453   47.3991 H   0  0  0  0  0  0  0  0  0  0  0  0
   35.4375   13.8364   45.6188 H   0  0  0  0  0  0  0  0  0  0  0  0
   34.2332   14.1263   47.7896 H   0  0  0  0  0  0  0  0  0  0  0  0
   35.7690   15.0562   47.7302 H   0  0  0  0  0  0  0  0  0  0  0  0
   38.6907   10.1902   46.1526 H   0  0  0  0  0  0  0  0  0  0  0  0
   33.3699   11.0041   46.3845 H   0  0  0  0  0  0  0  0  0  0  0  0
   33.7542   10.1463   43.7675 H   0  0  0  0  0  0  0  0  0  0  0  0
   33.0181    8.1949   45.1574 H   0  0  0  0  0  0  0  0  0  0  0  0
   35.1881    7.0685   45.4304 H   0  0  0  0  0  0  0  0  0  0  0  0
   35.0121    6.5781   42.4131 H   0  0  0  0  0  0  0  0  0  0  0  0
   36.9448    8.3709   43.9654 H   0  0  0  0  0  0  0  0  0  0  0  0
   36.4579    8.0557   40.9622 H   0  0  0  0  0  0  0  0  0  0  0  0
   37.7840    7.2371   41.8554 H   0  0  0  0  0  0  0  0  0  0  0  0
   33.3599    5.5637   43.8255 H   0  0  0  0  0  0  0  0  0  0  0  0
   36.1332    4.9918   43.6785 H   0  0  0  0  0  0  0  0  0  0  0  0
   37.3546   10.0574   41.7112 H   0  0  0  0  0  0  0  0  0  0  0  0
   31.6004    9.3692   43.5582 H   0  0  0  0  0  0  0  0  0  0  0  0
   31.2380    7.4382   41.1762 H   0  0  0  0  0  0  0  0  0  0  0  0
   29.7904   10.0454   41.8757 H   0  0  0  0  0  0  0  0  0  0  0  0
   28.7816    7.1376   41.9236 H   0  0  0  0  0  0  0  0  0  0  0  0
   29.3115    9.1050   44.2077 H   0  0  0  0  0  0  0  0  0  0  0  0
   27.3577    7.6976   44.6378 H   0  0  0  0  0  0  0  0  0  0  0  0
   28.7306    7.2338   45.6993 H   0  0  0  0  0  0  0  0  0  0  0  0
   34.9352    9.4946   39.1559 H   0  0  0  0  0  0  0  0  0  0  0  0
   34.5838   10.4779   40.6175 H   0  0  0  0  0  0  0  0  0  0  0  0
   33.5732   10.6657   39.1444 H   0  0  0  0  0  0  0  0  0  0  0  0
   32.1147   10.2927   41.1509 H   0  0  0  0  0  0  0  0  0  0  0  0
   28.5466    9.2682   40.0677 H   0  0  0  0  0  0  0  0  0  0  0  0
   26.9790    8.2514   42.8641 H   0  0  0  0  0  0  0  0  0  0  0  0
   27.9458    5.9159   43.3055 H   0  0  0  0  0  0  0  0  0  0  0  0
   34.5020   14.6741   49.8887 H   0  0  0  0  0  0  0  0  0  0  0  0
   36.7145   14.2767   51.1331 H   0  0  0  0  0  0  0  0  0  0  0  0
   36.8882   11.8727   50.9684 H   0  0  0  0  0  0  0  0  0  0  0  0
   34.2995   11.6980   52.5687 H   0  0  0  0  0  0  0  0  0  0  0  0
   35.0141   11.0974   49.6452 H   0  0  0  0  0  0  0  0  0  0  0  0
   33.4214    9.4765   50.6766 H   0  0  0  0  0  0  0  0  0  0  0  0
   32.6735   10.4792   49.3875 H   0  0  0  0  0  0  0  0  0  0  0  0
   37.6316   12.9318   52.8879 H   0  0  0  0  0  0  0  0  0  0  0  0
   34.7234    9.4668   52.0286 H   0  0  0  0  0  0  0  0  0  0  0  0
   32.4396   10.9194   52.1983 H   0  0  0  0  0  0  0  0  0  0  0  0
   36.1130   16.0489   52.1644 H   0  0  0  0  0  0  0  0  0  0  0  0
   33.8448   15.7682   54.1691 H   0  0  0  0  0  0  0  0  0  0  0  0
   35.6014   18.1528   53.4577 H   0  0  0  0  0  0  0  0  0  0  0  0
   35.6332   16.5556   56.0149 H   0  0  0  0  0  0  0  0  0  0  0  0
   37.7612   16.6758   53.8699 H   0  0  0  0  0  0  0  0  0  0  0  0
   37.5454   14.7018   56.1738 H   0  0  0  0  0  0  0  0  0  0  0  0
   38.5278   16.2039   56.2473 H   0  0  0  0  0  0  0  0  0  0  0  0
   30.4572   17.5634   51.5598 H   0  0  0  0  0  0  0  0  0  0  0  0
   31.6813   16.8290   50.4695 H   0  0  0  0  0  0  0  0  0  0  0  0
   31.9045   18.5074   51.0693 H   0  0  0  0  0  0  0  0  0  0  0  0
   34.0105   17.1053   51.5156 H   0  0  0  0  0  0  0  0  0  0  0  0
   33.4503   18.5869   54.2047 H   0  0  0  0  0  0  0  0  0  0  0  0
   37.3597   18.6449   55.1371 H   0  0  0  0  0  0  0  0  0  0  0  0
   38.7801   14.1315   54.3115 H   0  0  0  0  0  0  0  0  0  0  0  0
  1 99  1  0  0  0  0
  1100  1  0  0  0  0
  1101  1  0  0  0  0
  2  1  1  0  0  0  0
  2  3  1  0  0  0  0
  2102  1  6  0  0  0
  3  4  1  0  0  0  0
  3  9  2  0  0  0  0
  5  2  1  0  0  0  0
  5103  1  0  0  0  0
  5104  1  0  0  0  0
  6  5  1  0  0  0  0
  6  7  2  0  0  0  0
  8  6  1  0  0  0  0
  8105  1  0  0  0  0
 10  8  1  0  0  0  0
 10106  1  1  0  0  0
 11 10  1  0  0  0  0
 11 18  1  0  0  0  0
 11107  1  6  0  0  0
 12 11  1  0  0  0  0
 12 19  1  0  0  0  0
 12108  1  1  0  0  0
 13 12  1  0  0  0  0
 13 14  1  0  0  0  0
 13109  1  6  0  0  0
 14 15  1  0  0  0  0
 14 21  1  0  0  0  0
 14110  1  1  0  0  0
 15 22  1  0  0  0  0
 15111  1  0  0  0  0
 15112  1  0  0  0  0
 16 17  1  0  0  0  0
 16 23  2  0  0  0  0
 17113  1  0  0  0  0
 17114  1  0  0  0  0
 17115  1  0  0  0  0
 18 16  1  0  0  0  0
 18116  1  0  0  0  0
 19117  1  0  0  0  0
 20 13  1  0  0  0  0
 21 10  1  0  0  0  0
 22118  1  0  0  0  0
 24 20  1  0  0  0  0
 24119  1  1  0  0  0
 25 24  1  0  0  0  0
 25 32  1  0  0  0  0
 25120  1  6  0  0  0
 26 25  1  0  0  0  0
 26 33  1  0  0  0  0
 26121  1  1  0  0  0
 27 26  1  0  0  0  0
 27 28  1  0  0  0  0
 27122  1  6  0  0  0
 28 29  1  0  0  0  0
 28 35  1  0  0  0  0
 28123  1  1  0  0  0
 29 36  1  0  0  0  0
 29124  1  0  0  0  0
 29125  1  0  0  0  0
 30 31  1  0  0  0  0
 30 37  2  0  0  0  0
 31126  1  0  0  0  0
 31127  1  0  0  0  0
 31128  1  0  0  0  0
 32 30  1  0  0  0  0
 32129  1  0  0  0  0
 33130  1  0  0  0  0
 34 27  1  0  0  0  0
 35 24  1  0  0  0  0
 36131  1  0  0  0  0
 38 34  1  0  0  0  0
 38 39  1  0  0  0  0
 38132  1  6  0  0  0
 39 44  1  0  0  0  0
 39133  1  6  0  0  0
 40 39  1  0  0  0  0
 40 45  1  0  0  0  0
 40134  1  6  0  0  0
 41 40  1  0  0  0  0
 41 46  1  0  0  0  0
 41135  1  1  0  0  0
 42 41  1  0  0  0  0
 42 47  1  0  0  0  0
 42136  1  6  0  0  0
 43 42  1  0  0  0  0
 43137  1  0  0  0  0
 43138  1  0  0  0  0
 44139  1  0  0  0  0
 45 49  1  0  0  0  0
 46140  1  0  0  0  0
 47 38  1  0  0  0  0
 48 43  1  0  0  0  0
 49 50  1  0  0  0  0
 49 58  1  0  0  0  0
 49141  1  6  0  0  0
 50 51  1  0  0  0  0
 50 55  1  0  0  0  0
 50142  1  1  0  0  0
 51 52  1  0  0  0  0
 51 56  1  0  0  0  0
 51143  1  1  0  0  0
 52 57  1  0  0  0  0
 52144  1  6  0  0  0
 53 52  1  0  0  0  0
 53 54  1  0  0  0  0
 53145  1  1  0  0  0
 54 59  1  0  0  0  0
 54146  1  0  0  0  0
 54147  1  0  0  0  0
 55 60  1  0  0  0  0
 56148  1  0  0  0  0
 57149  1  0  0  0  0
 58 53  1  0  0  0  0
 59150  1  0  0  0  0
 60 61  1  0  0  0  0
 60 71  1  0  0  0  0
 60151  1  1  0  0  0
 61 62  1  0  0  0  0
 61 68  1  0  0  0  0
 61152  1  6  0  0  0
 62 63  1  0  0  0  0
 62 69  1  0  0  0  0
 62153  1  1  0  0  0
 63 70  1  0  0  0  0
 63154  1  6  0  0  0
 64 63  1  0  0  0  0
 64 65  1  0  0  0  0
 64155  1  1  0  0  0
 65 72  1  0  0  0  0
 65156  1  0  0  0  0
 65157  1  0  0  0  0
 66 67  1  0  0  0  0
 66 73  2  0  0  0  0
 67158  1  0  0  0  0
 67159  1  0  0  0  0
 67160  1  0  0  0  0
 68 66  1  0  0  0  0
 68161  1  0  0  0  0
 69162  1  0  0  0  0
 70163  1  0  0  0  0
 71 64  1  0  0  0  0
 72164  1  0  0  0  0
 74 48  1  0  0  0  0
 74 83  1  0  0  0  0
 74165  1  6  0  0  0
 75 74  1  0  0  0  0
 75 76  1  0  0  0  0
 75166  1  6  0  0  0
 76 77  1  0  0  0  0
 76 81  1  0  0  0  0
 76167  1  6  0  0  0
 77 78  1  0  0  0  0
 77 82  1  0  0  0  0
 77168  1  1  0  0  0
 78 79  1  0  0  0  0
 78169  1  6  0  0  0
 79 84  1  0  0  0  0
 79170  1  0  0  0  0
 79171  1  0  0  0  0
 80 75  1  0  0  0  0
 81172  1  0  0  0  0
 82173  1  0  0  0  0
 83 78  1  0  0  0  0
 84174  1  0  0  0  0
 85 80  1  0  0  0  0
 85 96  1  0  0  0  0
 85175  1  6  0  0  0
 86 85  1  0  0  0  0
 86 87  1  0  0  0  0
 86176  1  1  0  0  0
 87 88  1  0  0  0  0
 87 94  1  0  0  0  0
 87177  1  6  0  0  0
 88 89  1  0  0  0  0
 88 95  1  0  0  0  0
 88178  1  1  0  0  0
 89 90  1  0  0  0  0
 89179  1  6  0  0  0
 90 97  1  0  0  0  0
 90180  1  0  0  0  0
 90181  1  0  0  0  0
 91 92  1  0  0  0  0
 91 93  1  0  0  0  0
 91 98  2  0  0  0  0
 92182  1  0  0  0  0
 92183  1  0  0  0  0
 92184  1  0  0  0  0
 93 86  1  0  0  0  0
 93185  1  0  0  0  0
 94186  1  0  0  0  0
 95187  1  0  0  0  0
 96 89  1  0  0  0  0
 97188  1  0  0  0  0
M  CHG  2   1   1   4  -1
M  END
