3zzf_ligand
 OpenBabel08222323353D

 22 21  0  0  1  0  0  0  0  0999 V2000
    6.3750   32.3070    2.4190 C   0  0  2  0  0  0  0  0  0  0  0  0
    7.5560   31.7840    1.5760 C   0  0  0  0  0  0  0  0  0  0  0  0
    8.6130   32.4600    1.6000 O   0  5  0  0  0  0  0  0  0  0  0  0
    7.3940   30.7200    0.9280 O   0  0  0  0  0  0  0  0  0  0  0  0
    6.3780   31.6520    3.8030 C   0  0  0  0  0  0  0  0  0  0  0  0
    7.7310   31.7390    4.5120 C   0  0  0  0  0  0  0  0  0  0  0  0
    7.9290   33.0690    5.2440 C   0  0  0  0  0  0  0  0  0  0  0  0
    9.0660   33.2520    5.7170 O   0  5  0  0  0  0  0  0  0  0  0  0
    6.9720   33.8800    5.2850 O   0  0  0  0  0  0  0  0  0  0  0  0
    4.4860   32.6870    0.8540 C   0  0  0  0  0  0  0  0  0  0  0  0
    3.2690   32.2260    0.3460 C   0  0  0  0  0  0  0  0  0  0  0  0
    4.9360   33.7430    0.4210 O   0  0  0  0  0  0  0  0  0  0  0  0
    5.0950   31.9550    1.7810 N   0  0  0  0  0  0  0  0  0  0  0  0
    6.4564   33.3993    2.5202 H   0  0  0  0  0  0  0  0  0  0  0  0
    6.1123   30.5909    3.6874 H   0  0  0  0  0  0  0  0  0  0  0  0
    5.6239   32.1529    4.4278 H   0  0  0  0  0  0  0  0  0  0  0  0
    8.5288   31.6272    3.7630 H   0  0  0  0  0  0  0  0  0  0  0  0
    7.7981   30.9208    5.2442 H   0  0  0  0  0  0  0  0  0  0  0  0
    3.0052   31.2753    0.8324 H   0  0  0  0  0  0  0  0  0  0  0  0
    3.3601   32.0698   -0.7390 H   0  0  0  0  0  0  0  0  0  0  0  0
    2.4834   32.9698    0.5447 H   0  0  0  0  0  0  0  0  0  0  0  0
    4.6527   31.1045    2.0657 H   0  0  0  0  0  0  0  0  0  0  0  0
  1  2  1  0  0  0  0
  1  5  1  0  0  0  0
  1 14  1  1  0  0  0
  2  3  1  0  0  0  0
  2  4  2  0  0  0  0
  5  6  1  0  0  0  0
  5 15  1  0  0  0  0
  5 16  1  0  0  0  0
  6  7  1  0  0  0  0
  6 17  1  0  0  0  0
  6 18  1  0  0  0  0
  7  8  1  0  0  0  0
  7  9  2  0  0  0  0
 10 11  1  0  0  0  0
 10 12  2  0  0  0  0
 10 13  1  0  0  0  0
 11 19  1  0  0  0  0
 11 20  1  0  0  0  0
 11 21  1  0  0  0  0
 13  1  1  0  0  0  0
 13 22  1  0  0  0  0
M  CHG  2   3  -1   8  -1
M  END
