4a22_ligand
 OpenBabel08222323353D

 30 29  0  0  0  0  0  0  0  0999 V2000
  -11.3080  -63.9170  -32.1300 O   0  0  0  0  0  0  0  0  0  0  0  0
  -11.9600  -62.7060  -31.8610 N   0  0  0  0  0  0  0  0  0  0  0  0
  -13.2710  -62.4910  -32.4400 C   0  0  0  0  0  0  0  0  0  0  0  0
  -14.4290  -63.2990  -31.8600 C   0  0  0  0  0  0  0  0  0  0  0  0
  -15.3360  -64.0260  -32.8470 C   0  0  0  0  0  0  0  0  0  0  0  0
  -16.4950  -64.8280  -32.2680 C   0  0  0  0  0  0  0  0  0  0  0  0
  -17.3150  -65.4980  -33.1790 O   0  0  0  0  0  0  0  0  0  0  0  0
  -18.8030  -64.9030  -33.5440 P   0  0  0  0  0  0  0  0  0  0  0  0
  -19.9250  -66.1170  -33.6040 O   0  0  0  0  0  1  0  0  0  0  0  0
  -19.2330  -63.7570  -32.4360 O   0  0  0  0  0  1  0  0  0  0  0  0
  -18.7510  -64.2400  -34.8460 O   0  0  0  0  0  0  0  0  0  0  0  0
  -11.5270  -61.9290  -30.7130 C   0  0  0  0  0  0  0  0  0  0  0  0
  -10.5940  -62.2880  -30.0610 O   0  0  0  0  0  0  0  0  0  0  0  0
  -12.2290  -60.6180  -30.3790 C   0  0  0  0  0  0  0  0  0  0  0  0
  -12.4400  -60.3380  -29.0290 O   0  0  0  0  0  0  0  0  0  0  0  0
  -13.3300  -59.0090  -28.6070 P   0  0  0  0  0  0  0  0  0  0  0  0
  -13.2500  -58.8570  -26.9910 O   0  0  0  0  0  1  0  0  0  0  0  0
  -14.8860  -59.1960  -29.1010 O   0  0  0  0  0  1  0  0  0  0  0  0
  -12.7610  -57.7960  -29.1850 O   0  0  0  0  0  0  0  0  0  0  0  0
  -11.1803  -64.0052  -33.0672 H   0  0  0  0  0  0  0  0  0  0  0  0
  -13.2034  -62.7312  -33.5113 H   0  0  0  0  0  0  0  0  0  0  0  0
  -13.5165  -61.4257  -32.3178 H   0  0  0  0  0  0  0  0  0  0  0  0
  -15.0580  -62.6068  -31.2810 H   0  0  0  0  0  0  0  0  0  0  0  0
  -13.9999  -64.0553  -31.1864 H   0  0  0  0  0  0  0  0  0  0  0  0
  -14.7079  -64.7213  -33.4232 H   0  0  0  0  0  0  0  0  0  0  0  0
  -15.7620  -63.2703  -33.5233 H   0  0  0  0  0  0  0  0  0  0  0  0
  -17.1292  -64.1326  -31.6986 H   0  0  0  0  0  0  0  0  0  0  0  0
  -16.0714  -65.5801  -31.5862 H   0  0  0  0  0  0  0  0  0  0  0  0
  -13.2121  -60.6331  -30.8722 H   0  0  0  0  0  0  0  0  0  0  0  0
  -11.6220  -59.8010  -30.7962 H   0  0  0  0  0  0  0  0  0  0  0  0
  1  2  1  0  0  0  0
  1 20  1  0  0  0  0
  2  3  1  0  0  0  0
  2 12  1  0  0  0  0
  3  4  1  0  0  0  0
  3 21  1  0  0  0  0
  3 22  1  0  0  0  0
  4  5  1  0  0  0  0
  4 23  1  0  0  0  0
  4 24  1  0  0  0  0
  5  6  1  0  0  0  0
  5 25  1  0  0  0  0
  5 26  1  0  0  0  0
  6  7  1  0  0  0  0
  6 27  1  0  0  0  0
  6 28  1  0  0  0  0
  7  8  1  0  0  0  0
  8  9  1  0  0  0  0
  8 10  1  0  0  0  0
  8 11  2  0  0  0  0
 12 13  2  0  0  0  0
 12 14  1  0  0  0  0
 14 15  1  0  0  0  0
 14 29  1  0  0  0  0
 14 30  1  0  0  0  0
 15 16  1  0  0  0  0
 16 17  1  0  0  0  0
 16 18  1  0  0  0  0
 16 19  2  0  0  0  0
M  END
