4a23_ligand
 OpenBabel08222323353D

 33 33  0  0  0  0  0  0  0  0999 V2000
   29.9990   21.3310   10.5810 O   0  0  0  0  0  0  0  0  0  0  0  0
   30.7600   22.2710   10.7700 C   0  0  0  0  0  0  0  0  0  0  0  0
   31.8940   22.4740    9.7840 C   0  0  0  0  0  0  0  0  0  0  0  0
   32.9430   23.3900    9.9280 C   0  0  0  0  0  0  0  0  0  0  0  0
   33.0660   24.2280   11.0080 O   0  0  0  0  0  0  0  0  0  0  0  0
   34.3360   24.8490   11.2090 C   0  0  0  0  0  0  0  0  0  0  0  0
   33.9350   23.4990    8.9600 C   0  0  0  0  0  0  0  0  0  0  0  0
   33.9180   22.6940    7.8400 C   0  0  0  0  0  0  0  0  0  0  0  0
   34.9470   22.8820    6.8950 N   0  0  0  0  0  0  0  0  0  0  0  0
   36.1440   23.6680    7.1720 C   0  0  0  0  0  0  0  0  0  0  0  0
   34.9270   22.3110    5.5600 C   0  0  0  0  0  0  0  0  0  0  0  0
   32.8670   21.7900    7.6960 C   0  0  0  0  0  0  0  0  0  0  0  0
   32.7390   20.9330    6.6100 N   0  0  0  0  0  0  0  0  0  0  0  0
   33.4540   19.7460    6.6660 O   0  0  0  0  0  0  0  0  0  0  0  0
   31.9840   21.2190    5.6980 O   0  0  0  0  0  0  0  0  0  0  0  0
   31.8760   21.6810    8.6540 C   0  0  0  0  0  0  0  0  0  0  0  0
   30.5640   23.0840   11.8150 N   0  0  0  0  0  0  0  0  0  0  0  0
   29.4630   22.8650   12.7470 C   0  0  0  0  0  0  0  0  0  0  0  0
   34.2939   25.4888   12.1028 H   0  0  0  0  0  0  0  0  0  0  0  0
   34.5876   25.4619   10.3309 H   0  0  0  0  0  0  0  0  0  0  0  0
   35.1048   24.0748   11.3483 H   0  0  0  0  0  0  0  0  0  0  0  0
   34.7304   24.2245    9.0868 H   0  0  0  0  0  0  0  0  0  0  0  0
   36.7956   23.6684    6.2857 H   0  0  0  0  0  0  0  0  0  0  0  0
   36.6833   23.2271    8.0233 H   0  0  0  0  0  0  0  0  0  0  0  0
   35.8559   24.7012    7.4157 H   0  0  0  0  0  0  0  0  0  0  0  0
   34.0004   21.7345    5.4217 H   0  0  0  0  0  0  0  0  0  0  0  0
   35.7945   21.6469    5.4322 H   0  0  0  0  0  0  0  0  0  0  0  0
   34.9708   23.1190    4.8149 H   0  0  0  0  0  0  0  0  0  0  0  0
   31.0749   20.9639    8.5161 H   0  0  0  0  0  0  0  0  0  0  0  0
   31.1835   23.8556   11.9596 H   0  0  0  0  0  0  0  0  0  0  0  0
   29.4828   23.6408   13.5266 H   0  0  0  0  0  0  0  0  0  0  0  0
   29.5686   21.8742   13.2129 H   0  0  0  0  0  0  0  0  0  0  0  0
   28.5076   22.9150   12.2042 H   0  0  0  0  0  0  0  0  0  0  0  0
  1  2  2  0  0  0  0
  2  3  1  0  0  0  0
  2 17  1  0  0  0  0
  3  4  2  0  0  0  0
  3 16  1  0  0  0  0
  4  5  1  0  0  0  0
  4  7  1  0  0  0  0
  5  6  1  0  0  0  0
  6 19  1  0  0  0  0
  6 20  1  0  0  0  0
  6 21  1  0  0  0  0
  7  8  2  0  0  0  0
  7 22  1  0  0  0  0
  8  9  1  0  0  0  0
  8 12  1  0  0  0  0
  9 10  1  0  0  0  0
  9 11  1  0  0  0  0
 10 23  1  0  0  0  0
 10 24  1  0  0  0  0
 10 25  1  0  0  0  0
 11 26  1  0  0  0  0
 11 27  1  0  0  0  0
 11 28  1  0  0  0  0
 12 13  1  0  0  0  0
 12 16  2  0  0  0  0
 13 14  2  0  0  0  0
 13 15  2  0  0  0  0
 16 29  1  0  0  0  0
 17 18  1  0  0  0  0
 17 30  1  0  0  0  0
 18 31  1  0  0  0  0
 18 32  1  0  0  0  0
 18 33  1  0  0  0  0
M  END
