4a2a_ligand
 OpenBabel08222323353D

229231  0  0  1  0  0  0  0  0999 V2000
  -11.5470  -12.2400   57.5670 N   0  3  0  0  0  0  0  0  0  0  0  0
  -12.2040  -11.6570   58.7300 C   0  0  2  0  0  0  0  0  0  0  0  0
  -13.5040  -10.9920   58.2970 C   0  0  0  0  0  0  0  0  0  0  0  0
  -13.5290  -10.2560   57.3130 O   0  0  0  0  0  0  0  0  0  0  0  0
  -11.2770  -10.6440   59.4160 C   0  0  0  0  0  0  0  0  0  0  0  0
  -11.8060  -10.1800   60.7710 C   0  0  0  0  0  0  0  0  0  0  0  0
  -12.7330  -10.8280   61.3180 O   0  5  0  0  0  0  0  0  0  0  0  0
  -11.2850   -9.1690   61.2940 O   0  0  0  0  0  0  0  0  0  0  0  0
  -14.5890  -11.2740   59.0090 N   0  0  0  0  0  0  0  0  0  0  0  0
  -15.8700  -10.6290   58.7410 C   0  0  2  0  0  0  0  0  0  0  0  0
  -16.0720   -9.5050   59.7610 C   0  0  0  0  0  0  0  0  0  0  0  0
  -15.9500   -9.7390   60.9690 O   0  0  0  0  0  0  0  0  0  0  0  0
  -17.0340  -11.6340   58.8530 C   0  0  2  0  0  0  0  0  0  0  0  0
  -16.8370  -12.8030   57.8840 C   0  0  0  0  0  0  0  0  0  0  0  0
  -18.3640  -10.9540   58.5880 C   0  0  0  0  0  0  0  0  0  0  0  0
  -18.0500  -13.7260   57.7950 C   0  0  0  0  0  0  0  0  0  0  0  0
  -16.3590   -8.2760   59.2860 N   0  0  0  0  0  0  0  0  0  0  0  0
  -16.5260   -7.1830   60.2520 C   0  0  2  0  0  0  0  0  0  0  0  0
  -17.5520   -7.5340   61.3220 C   0  0  0  0  0  0  0  0  0  0  0  0
  -18.5300   -8.2410   61.0620 O   0  0  0  0  0  0  0  0  0  0  0  0
  -17.0030   -6.0110   59.3720 C   0  0  0  0  0  0  0  0  0  0  0  0
  -16.3260   -6.2600   58.0590 C   0  0  0  0  0  0  0  0  0  0  0  0
  -16.3890   -7.7800   57.8920 C   0  0  0  0  0  0  0  0  0  0  0  0
  -17.3140   -7.0440   62.5320 N   0  0  0  0  0  0  0  0  0  0  0  0
  -18.1730   -7.3490   63.6680 C   0  0  2  0  0  0  0  0  0  0  0  0
  -19.6350   -6.9950   63.4320 C   0  0  0  0  0  0  0  0  0  0  0  0
  -20.5400   -7.6600   63.9420 O   0  0  0  0  0  0  0  0  0  0  0  0
  -17.6400   -6.6560   64.9460 C   0  0  0  0  0  0  0  0  0  0  0  0
  -19.8700   -5.9350   62.6720 N   0  0  0  0  0  0  0  0  0  0  0  0
  -21.2260   -5.4650   62.4610 C   0  0  2  0  0  0  0  0  0  0  0  0
  -22.1260   -6.5880   61.9150 C   0  0  0  0  0  0  0  0  0  0  0  0
  -23.2330   -6.7690   62.3970 O   0  0  0  0  0  0  0  0  0  0  0  0
  -21.2580   -4.2110   61.5570 C   0  0  2  0  0  0  0  0  0  0  0  0
  -22.6750   -3.6440   61.4720 C   0  0  0  0  0  0  0  0  0  0  0  0
  -20.6320   -4.4970   60.1800 C   0  0  0  0  0  0  0  0  0  0  0  0
  -22.7720   -2.3540   60.6510 C   0  0  0  0  0  0  0  0  0  0  0  0
  -21.6240   -7.3490   60.9460 N   0  0  0  0  0  0  0  0  0  0  0  0
  -22.3530   -8.4970   60.3990 C   0  0  2  0  0  0  0  0  0  0  0  0
  -22.5050   -9.6080   61.4260 C   0  0  0  0  0  0  0  0  0  0  0  0
  -23.5990  -10.1400   61.6140 O   0  0  0  0  0  0  0  0  0  0  0  0
  -21.6310   -9.0350   59.1650 C   0  0  0  0  0  0  0  0  0  0  0  0
  -21.4820   -7.9870   58.0940 C   0  0  0  0  0  0  0  0  0  0  0  0
  -22.5920   -7.3240   57.6000 C   0  0  0  0  0  0  0  0  0  0  0  0
  -20.2320   -7.6340   57.6080 C   0  0  0  0  0  0  0  0  0  0  0  0
  -22.4660   -6.3390   56.6290 C   0  0  0  0  0  0  0  0  0  0  0  0
  -20.0910   -6.6580   56.6400 C   0  0  0  0  0  0  0  0  0  0  0  0
  -21.2140   -6.0140   56.1530 C   0  0  0  0  0  0  0  0  0  0  0  0
  -21.0730   -5.0420   55.1860 O   0  0  0  0  0  0  0  0  0  0  0  0
  -21.4050   -9.9460   62.0970 N   0  0  0  0  0  0  0  0  0  0  0  0
  -21.4150  -11.0390   63.0630 C   0  0  2  0  0  0  0  0  0  0  0  0
  -22.3430  -10.7390   64.2580 C   0  0  0  0  0  0  0  0  0  0  0  0
  -22.7890  -11.6520   64.9620 O   0  0  0  0  0  0  0  0  0  0  0  0
  -19.9780  -11.3800   63.5040 C   0  0  0  0  0  0  0  0  0  0  0  0
  -19.1270  -12.0500   62.4050 C   0  0  0  0  0  0  0  0  0  0  0  0
  -17.6180  -11.7970   62.5670 C   0  0  0  0  0  0  0  0  0  0  0  0
  -17.2300  -11.8520   63.9650 N   0  0  0  0  0  0  0  0  0  0  0  0
  -16.3950  -11.0160   64.5620 C   0  0  0  0  0  3  0  0  0  0  0  0
  -15.7860  -10.0260   63.8980 N   0  0  0  0  0  0  0  0  0  0  0  0
  -16.1560  -11.1940   65.8440 N   0  0  0  0  0  0  0  0  0  0  0  0
  -22.6490   -9.4620   64.4680 N   0  0  0  0  0  0  0  0  0  0  0  0
  -23.5560   -9.0520   65.5400 C   0  0  2  0  0  0  0  0  0  0  0  0
  -24.9700   -8.7670   65.0090 C   0  0  0  0  0  0  0  0  0  0  0  0
  -25.8760   -8.3730   65.7620 O   0  0  0  0  0  0  0  0  0  0  0  0
  -22.9910   -7.8220   66.2610 C   0  0  0  0  0  0  0  0  0  0  0  0
  -22.0600   -8.1710   67.3980 C   0  0  0  0  0  0  0  0  0  0  0  0
  -20.7520   -8.5820   67.1590 C   0  0  0  0  0  0  0  0  0  0  0  0
  -22.4950   -8.1070   68.7110 C   0  0  0  0  0  0  0  0  0  0  0  0
  -19.8980   -8.9090   68.2120 C   0  0  0  0  0  0  0  0  0  0  0  0
  -21.6590   -8.4290   69.7620 C   0  0  0  0  0  0  0  0  0  0  0  0
  -20.3640   -8.8260   69.5100 C   0  0  0  0  0  0  0  0  0  0  0  0
  -19.5430   -9.1490   70.5710 O   0  0  0  0  0  0  0  0  0  0  0  0
  -25.1520   -8.9750   63.7070 N   0  0  0  0  0  0  0  0  0  0  0  0
  -26.4520   -8.8090   63.0860 C   0  0  0  0  0  0  0  0  0  0  0  0
  -27.0100   -7.4060   63.2270 C   0  0  0  0  0  0  0  0  0  0  0  0
  -28.1980   -7.2270   63.5010 O   0  0  0  0  0  0  0  0  0  0  0  0
  -26.1510   -6.4090   63.0260 N   0  0  0  0  0  0  0  0  0  0  0  0
  -26.5760   -5.0110   63.0440 C   0  0  2  0  0  0  0  0  0  0  0  0
  -26.5520   -4.3930   61.6480 C   0  0  0  0  0  0  0  0  0  0  0  0
  -26.6900   -3.1760   61.5120 O   0  0  0  0  0  0  0  0  0  0  0  0
  -25.6550   -4.1990   63.9610 C   0  0  0  0  0  0  0  0  0  0  0  0
  -25.6470   -4.6280   65.4210 C   0  0  0  0  0  0  0  0  0  0  0  0
  -24.5060   -3.9490   66.1940 C   0  0  0  0  0  0  0  0  0  0  0  0
  -26.9990   -4.3240   66.0610 C   0  0  0  0  0  0  0  0  0  0  0  0
  -26.3770   -5.2200   60.6170 N   0  0  0  0  0  0  0  0  0  0  0  0
  -26.1880   -4.7090   59.2590 C   0  0  2  0  0  0  0  0  0  0  0  0
  -27.4450   -4.0550   58.6830 C   0  0  0  0  0  0  0  0  0  0  0  0
  -27.3830   -3.3310   57.6810 O   0  0  0  0  0  0  0  0  0  0  0  0
  -25.7000   -5.8180   58.3200 C   0  0  0  0  0  0  0  0  0  0  0  0
  -26.7440   -6.8980   58.0130 C   0  0  0  0  0  0  0  0  0  0  0  0
  -26.9140   -7.8910   59.1500 C   0  0  0  0  0  0  0  0  0  0  0  0
  -26.2190   -7.7470   60.1870 O   0  5  0  0  0  0  0  0  0  0  0  0
  -27.7400   -8.8270   59.0050 O   0  0  0  0  0  0  0  0  0  0  0  0
  -28.5820   -4.3020   59.3230 N   0  0  0  0  0  0  0  0  0  0  0  0
  -29.8330   -3.6810   58.9120 C   0  0  0  0  0  0  0  0  0  0  0  0
  -29.8120   -2.1690   59.0650 C   0  0  0  0  0  0  0  0  0  0  0  0
  -30.6450   -1.4690   58.4930 O   0  0  0  0  0  0  0  0  0  0  0  0
  -28.8570   -1.6590   59.8410 N   0  0  0  0  0  0  0  0  0  0  0  0
  -28.7440   -0.2180   60.0460 C   0  0  2  0  0  0  0  0  0  0  0  0
  -27.9270    0.4690   58.9430 C   0  0  0  0  0  0  0  0  0  0  0  0
  -27.8730    1.7010   58.8820 O   0  0  0  0  0  0  0  0  0  0  0  0
  -28.1450    0.0660   61.4340 C   0  0  0  0  0  0  0  0  0  0  0  0
  -29.0320   -0.2770   62.6370 C   0  0  0  0  0  0  0  0  0  0  0  0
  -28.2180   -0.3880   63.9180 C   0  0  0  0  0  0  0  0  0  0  0  0
  -30.1380    0.7520   62.7990 C   0  0  0  0  0  0  0  0  0  0  0  0
  -27.3020   -0.3180   58.0680 N   0  0  0  0  0  0  0  0  0  0  0  0
  -26.4970    0.2400   56.9820 C   0  0  2  0  0  0  0  0  0  0  0  0
  -27.3670    0.7580   55.8320 C   0  0  0  0  0  0  0  0  0  0  0  0
  -28.5550    0.4440   55.7650 O   0  5  0  0  0  0  0  0  0  0  0  0
  -25.5050   -0.7910   56.4550 C   0  0  0  0  0  0  0  0  0  0  0  0
  -24.3730   -1.1400   57.4240 C   0  0  0  0  0  0  0  0  0  0  0  0
  -23.4780   -2.2360   56.8680 C   0  0  0  0  0  0  0  0  0  0  0  0
  -23.5690    0.1100   57.6950 C   0  0  0  0  0  0  0  0  0  0  0  0
  -26.8820    1.4900   54.9700 O   0  0  0  0  0  0  0  0  0  0  0  0
  -10.6865  -12.6803   57.8528 H   0  0  0  0  0  0  0  0  0  0  0  0
  -11.3467  -11.5152   56.8957 H   0  0  0  0  0  0  0  0  0  0  0  0
  -12.1533  -12.9277   57.1481 H   0  0  0  0  0  0  0  0  0  0  0  0
  -12.4377  -12.4591   59.4456 H   0  0  0  0  0  0  0  0  0  0  0  0
  -11.1699   -9.7664   58.7615 H   0  0  0  0  0  0  0  0  0  0  0  0
  -10.2931  -11.1128   59.5648 H   0  0  0  0  0  0  0  0  0  0  0  0
  -14.5264  -11.9454   59.7475 H   0  0  0  0  0  0  0  0  0  0  0  0
  -15.8569  -10.2069   57.7253 H   0  0  0  0  0  0  0  0  0  0  0  0
  -17.0471  -12.0321   59.8783 H   0  0  0  0  0  0  0  0  0  0  0  0
  -15.9728  -13.3941   58.2214 H   0  0  0  0  0  0  0  0  0  0  0  0
  -16.6342  -12.3957   56.8825 H   0  0  0  0  0  0  0  0  0  0  0  0
  -18.4939  -10.1168   59.2896 H   0  0  0  0  0  0  0  0  0  0  0  0
  -19.1802  -11.6783   58.7264 H   0  0  0  0  0  0  0  0  0  0  0  0
  -18.3822  -10.5737   57.5560 H   0  0  0  0  0  0  0  0  0  0  0  0
  -17.8404  -14.5395   57.0849 H   0  0  0  0  0  0  0  0  0  0  0  0
  -18.9225  -13.1526   57.4485 H   0  0  0  0  0  0  0  0  0  0  0  0
  -18.2610  -14.1510   58.7874 H   0  0  0  0  0  0  0  0  0  0  0  0
  -15.5687   -6.9417   60.7371 H   0  0  0  0  0  0  0  0  0  0  0  0
  -16.6903   -5.0465   59.7987 H   0  0  0  0  0  0  0  0  0  0  0  0
  -18.0971   -6.0245   59.2588 H   0  0  0  0  0  0  0  0  0  0  0  0
  -15.2827   -5.9125   58.0850 H   0  0  0  0  0  0  0  0  0  0  0  0
  -16.8606   -5.7544   57.2414 H   0  0  0  0  0  0  0  0  0  0  0  0
  -17.3174   -8.0828   57.3857 H   0  0  0  0  0  0  0  0  0  0  0  0
  -15.5235   -8.1503   57.3231 H   0  0  0  0  0  0  0  0  0  0  0  0
  -16.5223   -6.4484   62.6678 H   0  0  0  0  0  0  0  0  0  0  0  0
  -18.1246   -8.4358   63.8307 H   0  0  0  0  0  0  0  0  0  0  0  0
  -18.2981   -6.8952   65.7944 H   0  0  0  0  0  0  0  0  0  0  0  0
  -17.6215   -5.5670   64.7921 H   0  0  0  0  0  0  0  0  0  0  0  0
  -16.6219   -7.0135   65.1595 H   0  0  0  0  0  0  0  0  0  0  0  0
  -19.1061   -5.4552   62.2404 H   0  0  0  0  0  0  0  0  0  0  0  0
  -21.6281   -5.1706   63.4416 H   0  0  0  0  0  0  0  0  0  0  0  0
  -20.6334   -3.4437   62.0377 H   0  0  0  0  0  0  0  0  0  0  0  0
  -23.0271   -3.4337   62.4927 H   0  0  0  0  0  0  0  0  0  0  0  0
  -23.3250   -4.4007   61.0085 H   0  0  0  0  0  0  0  0  0  0  0  0
  -19.6178   -4.9010   60.3151 H   0  0  0  0  0  0  0  0  0  0  0  0
  -20.5807   -3.5640   59.5996 H   0  0  0  0  0  0  0  0  0  0  0  0
  -21.2500   -5.2304   59.6414 H   0  0  0  0  0  0  0  0  0  0  0  0
  -23.8158   -2.0074   60.6347 H   0  0  0  0  0  0  0  0  0  0  0  0
  -22.4339   -2.5477   59.6223 H   0  0  0  0  0  0  0  0  0  0  0  0
  -22.1360   -1.5807   61.1065 H   0  0  0  0  0  0  0  0  0  0  0  0
  -20.7198   -7.1307   60.5789 H   0  0  0  0  0  0  0  0  0  0  0  0
  -23.3568   -8.1593   60.1018 H   0  0  0  0  0  0  0  0  0  0  0  0
  -22.2063   -9.8793   58.7574 H   0  0  0  0  0  0  0  0  0  0  0  0
  -20.6307   -9.3826   59.4627 H   0  0  0  0  0  0  0  0  0  0  0  0
  -23.5761   -7.5778   57.9772 H   0  0  0  0  0  0  0  0  0  0  0  0
  -19.3502   -8.1324   57.9942 H   0  0  0  0  0  0  0  0  0  0  0  0
  -23.3445   -5.8303   56.2489 H   0  0  0  0  0  0  0  0  0  0  0  0
  -19.1074   -6.3990   56.2651 H   0  0  0  0  0  0  0  0  0  0  0  0
  -20.6667   -5.4204   54.4151 H   0  0  0  0  0  0  0  0  0  0  0  0
  -20.5569   -9.4413   61.9356 H   0  0  0  0  0  0  0  0  0  0  0  0
  -21.8207  -11.9258   62.5540 H   0  0  0  0  0  0  0  0  0  0  0  0
  -20.0330  -12.0637   64.3639 H   0  0  0  0  0  0  0  0  0  0  0  0
  -19.4790  -10.4480   63.8079 H   0  0  0  0  0  0  0  0  0  0  0  0
  -19.4445  -11.6560   61.4283 H   0  0  0  0  0  0  0  0  0  0  0  0
  -19.3049  -13.1350   62.4381 H   0  0  0  0  0  0  0  0  0  0  0  0
  -17.3744  -10.8026   62.1647 H   0  0  0  0  0  0  0  0  0  0  0  0
  -17.0622  -12.5647   62.0087 H   0  0  0  0  0  0  0  0  0  0  0  0
  -17.6380  -12.6033   64.5395 H   0  0  0  0  0  0  0  0  0  0  0  0
  -15.1419   -9.3933   64.3938 H   0  0  0  0  0  0  0  0  0  0  0  0
  -15.9615   -9.8969   62.8913 H   0  0  0  0  0  0  0  0  0  0  0  0
  -16.6249  -11.9559   66.3544 H   0  0  0  0  0  0  0  0  0  0  0  0
  -15.5000  -10.5714   66.3369 H   0  0  0  0  0  0  0  0  0  0  0  0
  -22.2479   -8.7625   63.8766 H   0  0  0  0  0  0  0  0  0  0  0  0
  -23.6248   -9.8767   66.2646 H   0  0  0  0  0  0  0  0  0  0  0  0
  -23.8309   -7.2374   66.6645 H   0  0  0  0  0  0  0  0  0  0  0  0
  -22.4375   -7.2130   65.5310 H   0  0  0  0  0  0  0  0  0  0  0  0
  -20.3915   -8.6490   66.1389 H   0  0  0  0  0  0  0  0  0  0  0  0
  -23.5130   -7.7977   68.9183 H   0  0  0  0  0  0  0  0  0  0  0  0
  -18.8800   -9.2247   68.0143 H   0  0  0  0  0  0  0  0  0  0  0  0
  -22.0206   -8.3696   70.7822 H   0  0  0  0  0  0  0  0  0  0  0  0
  -18.6881   -9.4016   70.2429 H   0  0  0  0  0  0  0  0  0  0  0  0
  -24.3738   -9.2523   63.1436 H   0  0  0  0  0  0  0  0  0  0  0  0
  -27.1552   -9.5130   63.5548 H   0  0  0  0  0  0  0  0  0  0  0  0
  -26.3595   -9.0418   62.0149 H   0  0  0  0  0  0  0  0  0  0  0  0
  -25.1886   -6.6226   62.8581 H   0  0  0  0  0  0  0  0  0  0  0  0
  -27.6038   -4.9635   63.4331 H   0  0  0  0  0  0  0  0  0  0  0  0
  -25.9741   -3.1472   63.9178 H   0  0  0  0  0  0  0  0  0  0  0  0
  -24.6285   -4.2869   63.5756 H   0  0  0  0  0  0  0  0  0  0  0  0
  -25.4841   -5.7152   65.4593 H   0  0  0  0  0  0  0  0  0  0  0  0
  -24.5270   -4.2786   67.2432 H   0  0  0  0  0  0  0  0  0  0  0  0
  -24.6323   -2.8572   66.1501 H   0  0  0  0  0  0  0  0  0  0  0  0
  -23.5418   -4.2251   65.7422 H   0  0  0  0  0  0  0  0  0  0  0  0
  -27.7958   -4.8214   65.4885 H   0  0  0  0  0  0  0  0  0  0  0  0
  -27.1697   -3.2373   66.0588 H   0  0  0  0  0  0  0  0  0  0  0  0
  -27.0059   -4.6942   67.0968 H   0  0  0  0  0  0  0  0  0  0  0  0
  -26.3749   -6.2075   60.7747 H   0  0  0  0  0  0  0  0  0  0  0  0
  -25.4059   -3.9370   59.3062 H   0  0  0  0  0  0  0  0  0  0  0  0
  -24.8300   -6.3041   58.7857 H   0  0  0  0  0  0  0  0  0  0  0  0
  -25.3961   -5.3544   57.3699 H   0  0  0  0  0  0  0  0  0  0  0  0
  -26.4294   -7.4454   57.1122 H   0  0  0  0  0  0  0  0  0  0  0  0
  -27.7113   -6.4089   57.8257 H   0  0  0  0  0  0  0  0  0  0  0  0
  -28.5789   -4.9274   60.1033 H   0  0  0  0  0  0  0  0  0  0  0  0
  -30.6475   -4.0865   59.5301 H   0  0  0  0  0  0  0  0  0  0  0  0
  -30.0176   -3.9258   57.8556 H   0  0  0  0  0  0  0  0  0  0  0  0
  -28.2075   -2.2726   60.2900 H   0  0  0  0  0  0  0  0  0  0  0  0
  -29.7588    0.2055   60.0194 H   0  0  0  0  0  0  0  0  0  0  0  0
  -27.9105    1.1395   61.4852 H   0  0  0  0  0  0  0  0  0  0  0  0
  -27.2165   -0.5169   61.5246 H   0  0  0  0  0  0  0  0  0  0  0  0
  -29.4989   -1.2544   62.4457 H   0  0  0  0  0  0  0  0  0  0  0  0
  -28.8859   -0.6343   64.7566 H   0  0  0  0  0  0  0  0  0  0  0  0
  -27.7165    0.5704   64.1180 H   0  0  0  0  0  0  0  0  0  0  0  0
  -27.4634   -1.1803   63.8054 H   0  0  0  0  0  0  0  0  0  0  0  0
  -30.7157    0.8194   61.8653 H   0  0  0  0  0  0  0  0  0  0  0  0
  -29.6957    1.7327   63.0281 H   0  0  0  0  0  0  0  0  0  0  0  0
  -30.8034    0.4488   63.6207 H   0  0  0  0  0  0  0  0  0  0  0  0
  -27.3851   -1.3107   58.1557 H   0  0  0  0  0  0  0  0  0  0  0  0
  -25.9277    1.0894   57.3874 H   0  0  0  0  0  0  0  0  0  0  0  0
  -25.0565   -0.3949   55.5320 H   0  0  0  0  0  0  0  0  0  0  0  0
  -26.0582   -1.7141   56.2271 H   0  0  0  0  0  0  0  0  0  0  0  0
  -24.8119   -1.4954   58.3679 H   0  0  0  0  0  0  0  0  0  0  0  0
  -22.6789   -2.4585   57.5904 H   0  0  0  0  0  0  0  0  0  0  0  0
  -23.0322   -1.8998   55.9202 H   0  0  0  0  0  0  0  0  0  0  0  0
  -24.0752   -3.1426   56.6911 H   0  0  0  0  0  0  0  0  0  0  0  0
  -24.2307    0.8918   58.0962 H   0  0  0  0  0  0  0  0  0  0  0  0
  -23.1115    0.4620   56.7586 H   0  0  0  0  0  0  0  0  0  0  0  0
  -22.7794   -0.1135   58.4275 H   0  0  0  0  0  0  0  0  0  0  0  0
  1  2  1  0  0  0  0
  1114  1  0  0  0  0
  1115  1  0  0  0  0
  1116  1  0  0  0  0
  2  3  1  0  0  0  0
  2  5  1  0  0  0  0
  2117  1  1  0  0  0
  3  4  2  0  0  0  0
  3  9  1  0  0  0  0
  5  6  1  0  0  0  0
  5118  1  0  0  0  0
  5119  1  0  0  0  0
  6  7  1  0  0  0  0
  6  8  2  0  0  0  0
  9 10  1  0  0  0  0
  9120  1  0  0  0  0
 10 11  1  0  0  0  0
 10 13  1  0  0  0  0
 10121  1  6  0  0  0
 11 12  2  0  0  0  0
 11 17  1  0  0  0  0
 13 14  1  0  0  0  0
 13 15  1  0  0  0  0
 13122  1  1  0  0  0
 14 16  1  0  0  0  0
 14123  1  0  0  0  0
 14124  1  0  0  0  0
 15125  1  0  0  0  0
 15126  1  0  0  0  0
 15127  1  0  0  0  0
 16128  1  0  0  0  0
 16129  1  0  0  0  0
 16130  1  0  0  0  0
 17 18  1  0  0  0  0
 17 23  1  0  0  0  0
 18 19  1  0  0  0  0
 18 21  1  0  0  0  0
 18131  1  1  0  0  0
 19 20  2  0  0  0  0
 19 24  1  0  0  0  0
 21 22  1  0  0  0  0
 21132  1  0  0  0  0
 21133  1  0  0  0  0
 22 23  1  0  0  0  0
 22134  1  0  0  0  0
 22135  1  0  0  0  0
 23136  1  0  0  0  0
 23137  1  0  0  0  0
 24 25  1  0  0  0  0
 24138  1  0  0  0  0
 25 26  1  0  0  0  0
 25 28  1  0  0  0  0
 25139  1  1  0  0  0
 26 27  2  0  0  0  0
 26 29  1  0  0  0  0
 28140  1  0  0  0  0
 28141  1  0  0  0  0
 28142  1  0  0  0  0
 29 30  1  0  0  0  0
 29143  1  0  0  0  0
 30 31  1  0  0  0  0
 30 33  1  0  0  0  0
 30144  1  1  0  0  0
 31 32  2  0  0  0  0
 31 37  1  0  0  0  0
 33 34  1  0  0  0  0
 33 35  1  0  0  0  0
 33145  1  1  0  0  0
 34 36  1  0  0  0  0
 34146  1  0  0  0  0
 34147  1  0  0  0  0
 35148  1  0  0  0  0
 35149  1  0  0  0  0
 35150  1  0  0  0  0
 36151  1  0  0  0  0
 36152  1  0  0  0  0
 36153  1  0  0  0  0
 37 38  1  0  0  0  0
 37154  1  0  0  0  0
 38 39  1  0  0  0  0
 38 41  1  0  0  0  0
 38155  1  6  0  0  0
 39 40  2  0  0  0  0
 39 49  1  0  0  0  0
 41 42  1  0  0  0  0
 41156  1  0  0  0  0
 41157  1  0  0  0  0
 42 43  2  0  0  0  0
 42 44  1  0  0  0  0
 43 45  1  0  0  0  0
 43158  1  0  0  0  0
 44 46  2  0  0  0  0
 44159  1  0  0  0  0
 45 47  2  0  0  0  0
 45160  1  0  0  0  0
 46 47  1  0  0  0  0
 46161  1  0  0  0  0
 47 48  1  0  0  0  0
 48162  1  0  0  0  0
 49 50  1  0  0  0  0
 49163  1  0  0  0  0
 50 51  1  0  0  0  0
 50 53  1  0  0  0  0
 50164  1  6  0  0  0
 51 52  2  0  0  0  0
 51 60  1  0  0  0  0
 53 54  1  0  0  0  0
 53165  1  0  0  0  0
 53166  1  0  0  0  0
 54 55  1  0  0  0  0
 54167  1  0  0  0  0
 54168  1  0  0  0  0
 55 56  1  0  0  0  0
 55169  1  0  0  0  0
 55170  1  0  0  0  0
 56 57  1  0  0  0  0
 56171  1  0  0  0  0
 57 58  1  0  0  0  0
 57 59  1  0  0  0  0
 58172  1  0  0  0  0
 58173  1  0  0  0  0
 59174  1  0  0  0  0
 59175  1  0  0  0  0
 60 61  1  0  0  0  0
 60176  1  0  0  0  0
 61 62  1  0  0  0  0
 61 64  1  0  0  0  0
 61177  1  1  0  0  0
 62 63  2  0  0  0  0
 62 72  1  0  0  0  0
 64 65  1  0  0  0  0
 64178  1  0  0  0  0
 64179  1  0  0  0  0
 65 66  2  0  0  0  0
 65 67  1  0  0  0  0
 66 68  1  0  0  0  0
 66180  1  0  0  0  0
 67 69  2  0  0  0  0
 67181  1  0  0  0  0
 68 70  2  0  0  0  0
 68182  1  0  0  0  0
 69 70  1  0  0  0  0
 69183  1  0  0  0  0
 70 71  1  0  0  0  0
 71184  1  0  0  0  0
 72 73  1  0  0  0  0
 72185  1  0  0  0  0
 73 74  1  0  0  0  0
 73186  1  0  0  0  0
 73187  1  0  0  0  0
 74 75  2  0  0  0  0
 74 76  1  0  0  0  0
 76 77  1  0  0  0  0
 76188  1  0  0  0  0
 77 78  1  0  0  0  0
 77 80  1  0  0  0  0
 77189  1  1  0  0  0
 78 79  2  0  0  0  0
 78 84  1  0  0  0  0
 80 81  1  0  0  0  0
 80190  1  0  0  0  0
 80191  1  0  0  0  0
 81 82  1  0  0  0  0
 81 83  1  0  0  0  0
 81192  1  0  0  0  0
 82193  1  0  0  0  0
 82194  1  0  0  0  0
 82195  1  0  0  0  0
 83196  1  0  0  0  0
 83197  1  0  0  0  0
 83198  1  0  0  0  0
 84 85  1  0  0  0  0
 84199  1  0  0  0  0
 85 86  1  0  0  0  0
 85 88  1  0  0  0  0
 85200  1  1  0  0  0
 86 87  2  0  0  0  0
 86 93  1  0  0  0  0
 88 89  1  0  0  0  0
 88201  1  0  0  0  0
 88202  1  0  0  0  0
 89 90  1  0  0  0  0
 89203  1  0  0  0  0
 89204  1  0  0  0  0
 90 91  1  0  0  0  0
 90 92  2  0  0  0  0
 93 94  1  0  0  0  0
 93205  1  0  0  0  0
 94 95  1  0  0  0  0
 94206  1  0  0  0  0
 94207  1  0  0  0  0
 95 96  2  0  0  0  0
 95 97  1  0  0  0  0
 97 98  1  0  0  0  0
 97208  1  0  0  0  0
 98 99  1  0  0  0  0
 98101  1  0  0  0  0
 98209  1  6  0  0  0
 99100  2  0  0  0  0
 99105  1  0  0  0  0
101102  1  0  0  0  0
101210  1  0  0  0  0
101211  1  0  0  0  0
102103  1  0  0  0  0
102104  1  0  0  0  0
102212  1  0  0  0  0
103213  1  0  0  0  0
103214  1  0  0  0  0
103215  1  0  0  0  0
104216  1  0  0  0  0
104217  1  0  0  0  0
104218  1  0  0  0  0
105106  1  0  0  0  0
105219  1  0  0  0  0
106107  1  0  0  0  0
106109  1  0  0  0  0
106220  1  1  0  0  0
107108  1  0  0  0  0
107113  2  0  0  0  0
109110  1  0  0  0  0
109221  1  0  0  0  0
109222  1  0  0  0  0
110111  1  0  0  0  0
110112  1  0  0  0  0
110223  1  0  0  0  0
111224  1  0  0  0  0
111225  1  0  0  0  0
111226  1  0  0  0  0
112227  1  0  0  0  0
112228  1  0  0  0  0
112229  1  0  0  0  0
M  CHG  4   1   1   7  -1  91  -1 108  -1
M  END
