4a4x_ligand
 OpenBabel08222323353D

 66 69  0  0  1  0  0  0  0  0999 V2000
    1.2240  -11.2850   16.2510 C   0  0  0  0  0  0  0  0  0  0  0  0
    1.8890  -10.7920   14.9790 C   0  0  1  0  0  0  0  0  0  0  0  0
    2.9760   -9.9420   15.2640 O   0  0  0  0  0  0  0  0  0  0  0  0
    3.5980   -9.1700   14.2160 C   0  0  0  0  0  0  0  0  0  0  0  0
    2.8980   -8.8900   13.0130 C   0  0  0  0  0  0  0  0  0  0  0  0
    3.5500   -8.1440   11.9820 C   0  0  0  0  0  0  0  0  0  0  0  0
    2.8640   -7.8730   10.7770 C   0  0  0  0  0  0  0  0  0  0  0  0
    2.2650   -8.9380   10.0870 C   0  0  0  0  0  0  0  0  0  0  0  0
    1.5690   -8.6450    8.8940 C   0  0  0  0  0  0  0  0  0  0  0  0
    0.9680   -9.6480    8.1500 C   0  0  0  0  0  0  0  0  0  0  0  0
    0.4320   -9.6100    6.8680 C   0  0  0  0  0  0  0  0  0  0  0  0
   -0.1010  -10.7660    6.3910 C   0  0  0  0  0  0  0  0  0  0  0  0
   -0.7060  -10.9090    4.9660 C   0  0  0  0  0  0  0  0  0  0  0  0
   -2.1260  -10.4630    4.8300 N   0  3  0  0  0  0  0  0  0  0  0  0
   -2.1770   -9.4200    3.8330 C   0  0  0  0  0  0  0  0  0  0  0  0
   -2.9190  -11.6100    4.3570 C   0  0  0  0  0  0  0  0  0  0  0  0
   -0.0600  -11.8900    7.2330 C   0  0  0  0  0  0  0  0  0  0  0  0
    0.7490  -11.2700    8.6110 S   0  0  0  0  0  0  0  0  0  0  0  0
    1.5100   -7.2860    8.4460 C   0  0  0  0  0  0  0  0  0  0  0  0
    2.0900   -6.2920    9.1310 N   0  0  0  0  0  0  0  0  0  0  0  0
    2.7650   -6.5400   10.2860 C   0  0  0  0  0  0  0  0  0  0  0  0
    3.3890   -5.4350   10.9960 N   0  0  0  0  0  0  0  0  0  0  0  0
    4.8640   -7.6810   12.1690 C   0  0  0  0  0  0  0  0  0  0  0  0
    5.5420   -7.9430   13.3750 C   0  0  0  0  0  0  0  0  0  0  0  0
    4.9140   -8.6910   14.3890 C   0  0  0  0  0  0  0  0  0  0  0  0
    5.6360   -8.9640   15.6410 C   0  0  0  0  0  0  0  0  0  0  0  0
    5.0290   -9.8180   16.6440 N   0  0  0  0  0  0  0  0  0  0  0  0
    6.7150   -8.4760   15.8100 O   0  0  0  0  0  0  0  0  0  0  0  0
    2.1380  -11.9040   13.9750 C   0  0  0  0  0  0  0  0  0  0  0  0
    3.3500  -12.6220   14.0180 C   0  0  0  0  0  0  0  0  0  0  0  0
    3.6150  -13.6560   13.0940 C   0  0  0  0  0  0  0  0  0  0  0  0
    2.6380  -13.9780   12.1330 C   0  0  0  0  0  0  0  0  0  0  0  0
    1.3850  -13.2650   12.1100 C   0  0  0  0  0  0  0  0  0  0  0  0
    1.1370  -12.2410   13.0240 C   0  0  0  0  0  0  0  0  0  0  0  0
   -0.1850  -11.4830   12.9270 C   0  0  0  0  0  0  0  0  0  0  0  0
   -0.8750  -11.4330   14.0880 F   0  0  0  0  0  0  0  0  0  0  0  0
    0.0310  -10.1920   12.5510 F   0  0  0  0  0  0  0  0  0  0  0  0
   -0.9080  -12.1140   12.0240 F   0  0  0  0  0  0  0  0  0  0  0  0
    0.3820  -11.9441   15.9928 H   0  0  0  0  0  0  0  0  0  0  0  0
    0.8529  -10.4250   16.8278 H   0  0  0  0  0  0  0  0  0  0  0  0
    1.9550  -11.8433   16.8543 H   0  0  0  0  0  0  0  0  0  0  0  0
    1.1465  -10.1431   14.4916 H   0  0  0  0  0  0  0  0  0  0  0  0
    1.8803   -9.2380   12.8776 H   0  0  0  0  0  0  0  0  0  0  0  0
    2.3345   -9.9540   10.4584 H   0  0  0  0  0  0  0  0  0  0  0  0
    0.4387   -8.6974    6.2739 H   0  0  0  0  0  0  0  0  0  0  0  0
   -0.6534  -11.9695    4.6788 H   0  0  0  0  0  0  0  0  0  0  0  0
   -0.0939  -10.3111    4.2748 H   0  0  0  0  0  0  0  0  0  0  0  0
   -2.4801  -10.1270    5.7119 H   0  0  0  0  0  0  0  0  0  0  0  0
   -3.2150   -9.0754    3.7157 H   0  0  0  0  0  0  0  0  0  0  0  0
   -1.8101   -9.8121    2.8730 H   0  0  0  0  0  0  0  0  0  0  0  0
   -1.5448   -8.5778    4.1507 H   0  0  0  0  0  0  0  0  0  0  0  0
   -2.8879  -12.4123    5.1089 H   0  0  0  0  0  0  0  0  0  0  0  0
   -2.5003  -11.9794    3.4092 H   0  0  0  0  0  0  0  0  0  0  0  0
   -3.9612  -11.2953    4.1996 H   0  0  0  0  0  0  0  0  0  0  0  0
   -0.4427  -12.8941    7.0561 H   0  0  0  0  0  0  0  0  0  0  0  0
    0.9817   -7.0557    7.5279 H   0  0  0  0  0  0  0  0  0  0  0  0
    3.3089   -4.4761   10.6287 H   0  0  0  0  0  0  0  0  0  0  0  0
    3.9111   -5.6112   11.8662 H   0  0  0  0  0  0  0  0  0  0  0  0
    5.3567   -7.1207   11.3826 H   0  0  0  0  0  0  0  0  0  0  0  0
    6.5484   -7.5684   13.5228 H   0  0  0  0  0  0  0  0  0  0  0  0
    5.5133  -10.0085   17.4979 H   0  0  0  0  0  0  0  0  0  0  0  0
    4.1262  -10.2162   16.4816 H   0  0  0  0  0  0  0  0  0  0  0  0
    4.0896  -12.3767   14.7716 H   0  0  0  0  0  0  0  0  0  0  0  0
    4.5559  -14.1935   13.1241 H   0  0  0  0  0  0  0  0  0  0  0  0
    2.8279  -14.7627   11.4096 H   0  0  0  0  0  0  0  0  0  0  0  0
    0.6303  -13.5266   11.3771 H   0  0  0  0  0  0  0  0  0  0  0  0
  1  2  1  0  0  0  0
  1 39  1  0  0  0  0
  1 40  1  0  0  0  0
  1 41  1  0  0  0  0
  2  3  1  0  0  0  0
  2 29  1  0  0  0  0
  2 42  1  6  0  0  0
  3  4  1  0  0  0  0
  4  5  2  0  0  0  0
  4 25  1  0  0  0  0
  5  6  1  0  0  0  0
  5 43  1  0  0  0  0
  6  7  1  0  0  0  0
  6 23  2  0  0  0  0
  7  8  2  0  0  0  0
  7 21  1  0  0  0  0
  8  9  1  0  0  0  0
  8 44  1  0  0  0  0
  9 10  1  0  0  0  0
  9 19  2  0  0  0  0
 10 11  2  0  0  0  0
 10 18  1  0  0  0  0
 11 12  1  0  0  0  0
 11 45  1  0  0  0  0
 12 13  1  0  0  0  0
 12 17  2  0  0  0  0
 13 14  1  0  0  0  0
 13 46  1  0  0  0  0
 13 47  1  0  0  0  0
 14 15  1  0  0  0  0
 14 16  1  0  0  0  0
 14 48  1  0  0  0  0
 15 49  1  0  0  0  0
 15 50  1  0  0  0  0
 15 51  1  0  0  0  0
 16 52  1  0  0  0  0
 16 53  1  0  0  0  0
 16 54  1  0  0  0  0
 17 18  1  0  0  0  0
 17 55  1  0  0  0  0
 19 20  1  0  0  0  0
 19 56  1  0  0  0  0
 20 21  2  0  0  0  0
 21 22  1  0  0  0  0
 22 57  1  0  0  0  0
 22 58  1  0  0  0  0
 23 24  1  0  0  0  0
 23 59  1  0  0  0  0
 24 25  2  0  0  0  0
 24 60  1  0  0  0  0
 25 26  1  0  0  0  0
 26 27  1  0  0  0  0
 26 28  2  0  0  0  0
 27 61  1  0  0  0  0
 27 62  1  0  0  0  0
 29 30  2  0  0  0  0
 29 34  1  0  0  0  0
 30 31  1  0  0  0  0
 30 63  1  0  0  0  0
 31 32  2  0  0  0  0
 31 64  1  0  0  0  0
 32 33  1  0  0  0  0
 32 65  1  0  0  0  0
 33 34  2  0  0  0  0
 33 66  1  0  0  0  0
 34 35  1  0  0  0  0
 35 36  1  0  0  0  0
 35 37  1  0  0  0  0
 35 38  1  0  0  0  0
M  CHG  1  14   1
M  END
