4a7b_ligand
 OpenBabel08222323353D

 66 70  0  0  1  0  0  0  0  0999 V2000
   23.9110   14.2050   12.7810 C   0  0  0  0  0  0  0  0  0  0  0  0
   24.2880   13.6590   13.9850 C   0  0  0  0  0  0  0  0  0  0  0  0
   23.3660   12.9000   14.6890 C   0  0  0  0  0  0  0  0  0  0  0  0
   22.0840   12.6880   14.2450 C   0  0  0  0  0  0  0  0  0  0  0  0
   21.7000   13.2360   13.0350 C   0  0  0  0  0  0  0  0  0  0  0  0
   22.6330   13.9790   12.3350 C   0  0  0  0  0  0  0  0  0  0  0  0
   22.1850   14.4810   11.1120 C   0  0  0  0  0  0  0  0  0  0  0  0
   21.8400   14.8780   10.0370 C   0  0  0  0  0  0  0  0  0  0  0  0
   21.3920   15.2990    8.7370 C   0  0  2  0  0  0  0  0  0  0  0  0
   19.8850   15.0890    8.7540 C   0  0  0  0  0  0  0  0  0  0  0  0
   19.5190   14.2480    7.5690 N   0  3  1  0  0  0  0  0  0  0  0  0
   19.8790   14.9550    6.2870 C   0  0  0  0  0  0  0  0  0  0  0  0
   21.4000   15.0780    6.2760 C   0  0  0  0  0  0  0  0  0  0  0  0
   22.0220   14.5120    7.5660 C   0  0  2  0  0  0  0  0  0  0  0  0
   21.6320   13.0120    7.6580 C   0  0  0  0  0  0  0  0  0  0  0  0
   20.0880   12.8560    7.6960 C   0  0  0  0  0  0  0  0  0  0  0  0
   21.7950   16.6640    8.6780 O   0  0  0  0  0  0  0  0  0  0  0  0
   23.6460   12.3080   15.8780 O   0  0  0  0  0  0  0  0  0  0  0  0
   24.2550   12.9870   16.9000 C   0  0  0  0  0  0  0  0  0  0  0  0
   24.3350   14.3600   17.0040 C   0  0  0  0  0  0  0  0  0  0  0  0
   24.9580   14.9150   18.1110 C   0  0  0  0  0  0  0  0  0  0  0  0
   25.4850   14.1000   19.0830 C   0  0  0  0  0  0  0  0  0  0  0  0
   25.4220   12.7390   18.9790 C   0  0  0  0  0  0  0  0  0  0  0  0
   24.7890   12.1780   17.8800 C   0  0  0  0  0  0  0  0  0  0  0  0
   26.2000   14.6530   20.2400 C   0  0  0  0  0  0  0  0  0  0  0  0
   26.2290   14.0410   21.3000 O   0  0  0  0  0  0  0  0  0  0  0  0
   26.8850   15.8210   19.8930 N   0  0  0  0  0  0  0  0  0  0  0  0
   27.3570   16.8950   20.7520 C   0  0  1  0  0  0  0  0  0  0  0  0
   26.4420   17.2620   21.8930 C   0  0  0  0  0  0  0  0  0  0  0  0
   26.9780   18.4060   22.7550 C   0  0  0  0  0  0  0  0  0  0  0  0
   28.0140   17.8530   23.7070 C   0  0  0  0  0  0  0  0  0  0  0  0
   29.3260   17.5900   22.5720 S   0  0  0  0  0  0  0  0  0  0  0  0
   30.4500   16.8140   23.0920 O   0  0  0  0  0  0  0  0  0  0  0  0
   29.3980   18.9400   22.0280 O   0  0  0  0  0  0  0  0  0  0  0  0
   28.7340   16.5410   21.2380 C   0  0  0  0  0  0  0  0  0  0  0  0
   24.6058   14.7992   12.1985 H   0  0  0  0  0  0  0  0  0  0  0  0
   25.2863   13.8188   14.3761 H   0  0  0  0  0  0  0  0  0  0  0  0
   21.3861   12.1020   14.8321 H   0  0  0  0  0  0  0  0  0  0  0  0
   20.6987   13.0878   12.6471 H   0  0  0  0  0  0  0  0  0  0  0  0
   19.3724   16.0604    8.6944 H   0  0  0  0  0  0  0  0  0  0  0  0
   19.5905   14.5753    9.6810 H   0  0  0  0  0  0  0  0  0  0  0  0
   18.5159   14.1484    7.5710 H   0  0  0  0  0  0  0  0  0  0  0  0
   19.4164   15.9526    6.2597 H   0  0  0  0  0  0  0  0  0  0  0  0
   19.5384   14.3690    5.4206 H   0  0  0  0  0  0  0  0  0  0  0  0
   21.6720   16.1399    6.1843 H   0  0  0  0  0  0  0  0  0  0  0  0
   21.7972   14.5220    5.4140 H   0  0  0  0  0  0  0  0  0  0  0  0
   23.1161   14.6259    7.5643 H   0  0  0  0  0  0  0  0  0  0  0  0
   22.0625   12.5810    8.5739 H   0  0  0  0  0  0  0  0  0  0  0  0
   22.0286   12.4798    6.7808 H   0  0  0  0  0  0  0  0  0  0  0  0
   19.7479   12.2276    6.8597 H   0  0  0  0  0  0  0  0  0  0  0  0
   19.7743   12.4015    8.6473 H   0  0  0  0  0  0  0  0  0  0  0  0
   22.7437   16.7129    8.6708 H   0  0  0  0  0  0  0  0  0  0  0  0
   23.9170   14.9955   16.2317 H   0  0  0  0  0  0  0  0  0  0  0  0
   25.0293   15.9922   18.2096 H   0  0  0  0  0  0  0  0  0  0  0  0
   25.8600   12.1077   19.7436 H   0  0  0  0  0  0  0  0  0  0  0  0
   24.7139   11.1002   17.7914 H   0  0  0  0  0  0  0  0  0  0  0  0
   27.0772   15.9336   18.9181 H   0  0  0  0  0  0  0  0  0  0  0  0
   27.4441   17.7938   20.1239 H   0  0  0  0  0  0  0  0  0  0  0  0
   26.3084   16.3766   22.5319 H   0  0  0  0  0  0  0  0  0  0  0  0
   25.4695   17.5643   21.4772 H   0  0  0  0  0  0  0  0  0  0  0  0
   26.1532   18.8562   23.3268 H   0  0  0  0  0  0  0  0  0  0  0  0
   27.4378   19.1702   22.1112 H   0  0  0  0  0  0  0  0  0  0  0  0
   27.6823   16.9154   24.1770 H   0  0  0  0  0  0  0  0  0  0  0  0
   28.2846   18.5790   24.4878 H   0  0  0  0  0  0  0  0  0  0  0  0
   29.4327   16.6277   20.3929 H   0  0  0  0  0  0  0  0  0  0  0  0
   28.7185   15.5010   21.5958 H   0  0  0  0  0  0  0  0  0  0  0  0
  1  2  2  0  0  0  0
  1  6  1  0  0  0  0
  1 36  1  0  0  0  0
  2  3  1  0  0  0  0
  2 37  1  0  0  0  0
  3  4  2  0  0  0  0
  3 18  1  0  0  0  0
  4  5  1  0  0  0  0
  4 38  1  0  0  0  0
  5  6  2  0  0  0  0
  5 39  1  0  0  0  0
  6  7  1  0  0  0  0
  7  8  3  0  0  0  0
  9  8  1  1  0  0  0
  9 10  1  0  0  0  0
  9 14  1  0  0  0  0
  9 17  1  0  0  0  0
 10 11  1  0  0  0  0
 10 40  1  0  0  0  0
 10 41  1  0  0  0  0
 11 12  1  0  0  0  0
 11 16  1  0  0  0  0
 11 42  1  1  0  0  0
 12 13  1  0  0  0  0
 12 43  1  0  0  0  0
 12 44  1  0  0  0  0
 13 14  1  0  0  0  0
 13 45  1  0  0  0  0
 13 46  1  0  0  0  0
 14 15  1  0  0  0  0
 14 47  1  6  0  0  0
 15 16  1  0  0  0  0
 15 48  1  0  0  0  0
 15 49  1  0  0  0  0
 16 50  1  0  0  0  0
 16 51  1  0  0  0  0
 17 52  1  0  0  0  0
 18 19  1  0  0  0  0
 19 20  2  0  0  0  0
 19 24  1  0  0  0  0
 20 21  1  0  0  0  0
 20 53  1  0  0  0  0
 21 22  2  0  0  0  0
 21 54  1  0  0  0  0
 22 23  1  0  0  0  0
 22 25  1  0  0  0  0
 23 24  2  0  0  0  0
 23 55  1  0  0  0  0
 24 56  1  0  0  0  0
 25 26  2  0  0  0  0
 25 27  1  0  0  0  0
 27 28  1  0  0  0  0
 27 57  1  0  0  0  0
 28 29  1  0  0  0  0
 28 35  1  0  0  0  0
 28 58  1  6  0  0  0
 29 30  1  0  0  0  0
 29 59  1  0  0  0  0
 29 60  1  0  0  0  0
 30 31  1  0  0  0  0
 30 61  1  0  0  0  0
 30 62  1  0  0  0  0
 31 32  1  0  0  0  0
 31 63  1  0  0  0  0
 31 64  1  0  0  0  0
 32 33  2  0  0  0  0
 32 34  2  0  0  0  0
 32 35  1  0  0  0  0
 35 65  1  0  0  0  0
 35 66  1  0  0  0  0
M  CHG  1  11   1
M  END
