4a9m_ligand
 OpenBabel08222323353D

 45 47  0  0  0  0  0  0  0  0999 V2000
   21.1020   12.6740  -12.7700 O   0  0  0  0  0  0  0  0  0  0  0  0
   19.6900   12.8060  -12.9660 S   0  0  0  0  0  0  0  0  0  0  0  0
   19.1180   12.4780  -14.2450 O   0  0  0  0  0  0  0  0  0  0  0  0
   19.3260   14.3290  -12.6780 N   0  0  0  0  0  0  0  0  0  0  0  0
   19.7060   14.8620  -11.3620 C   0  0  0  0  0  0  0  0  0  0  0  0
   20.4260   16.1850  -11.5540 C   0  0  0  0  0  0  0  0  0  0  0  0
   20.2630   16.8790  -10.2280 C   0  0  0  0  0  0  0  0  0  0  0  0
   18.9040   16.4300   -9.7270 C   0  0  0  0  0  0  0  0  0  0  0  0
   18.4530   15.2740  -10.6000 C   0  0  0  0  0  0  0  0  0  0  0  0
   18.8950   11.7690  -11.7550 C   0  0  0  0  0  0  0  0  0  0  0  0
   17.5020   11.7520  -11.5850 C   0  0  0  0  0  0  0  0  0  0  0  0
   16.5300   12.5950  -12.3890 C   0  0  0  0  0  0  0  0  0  0  0  0
   16.9970   10.8860  -10.6040 C   0  0  0  0  0  0  0  0  0  0  0  0
   17.8240   10.0720   -9.8240 C   0  0  0  0  0  0  0  0  0  0  0  0
   19.7170   10.9690  -10.9760 C   0  0  0  0  0  0  0  0  0  0  0  0
   19.2050   10.1120  -10.0120 C   0  0  0  0  0  0  0  0  0  0  0  0
   20.1280    9.2710   -9.2000 C   0  0  0  0  0  0  0  0  0  0  0  0
   20.0480    8.9300   -7.8340 C   0  0  0  0  0  0  0  0  0  0  0  0
   19.0070    9.2850   -6.8150 C   0  0  0  0  0  0  0  0  0  0  0  0
   21.2640    8.6810   -9.6490 C   0  0  0  0  0  0  0  0  0  0  0  0
   21.9780    8.6200  -10.9720 C   0  0  0  0  0  0  0  0  0  0  0  0
   21.8620    8.0190   -8.6390 O   0  0  0  0  0  0  0  0  0  0  0  0
   21.0610    8.1840   -7.4760 N   0  0  0  0  0  0  0  0  0  0  0  0
   18.8616   14.8952  -13.3591 H   0  0  0  0  0  0  0  0  0  0  0  0
   20.3121   14.1338  -10.8031 H   0  0  0  0  0  0  0  0  0  0  0  0
   19.9621   16.7699  -12.3619 H   0  0  0  0  0  0  0  0  0  0  0  0
   21.4896   16.0226  -11.7830 H   0  0  0  0  0  0  0  0  0  0  0  0
   20.2886   17.9713  -10.3554 H   0  0  0  0  0  0  0  0  0  0  0  0
   21.0553   16.5727   -9.5292 H   0  0  0  0  0  0  0  0  0  0  0  0
   18.1844   17.2587   -9.8006 H   0  0  0  0  0  0  0  0  0  0  0  0
   18.9797   16.1020   -8.6798 H   0  0  0  0  0  0  0  0  0  0  0  0
   18.0817   14.4424   -9.9831 H   0  0  0  0  0  0  0  0  0  0  0  0
   17.6634   15.5962  -11.2948 H   0  0  0  0  0  0  0  0  0  0  0  0
   15.5025   12.3889  -12.0547 H   0  0  0  0  0  0  0  0  0  0  0  0
   16.6251   12.3466  -13.4563 H   0  0  0  0  0  0  0  0  0  0  0  0
   16.7576   13.6606  -12.2388 H   0  0  0  0  0  0  0  0  0  0  0  0
   15.9255   10.8463  -10.4446 H   0  0  0  0  0  0  0  0  0  0  0  0
   17.3941    9.4138   -9.0776 H   0  0  0  0  0  0  0  0  0  0  0  0
   20.7899   11.0143  -11.1242 H   0  0  0  0  0  0  0  0  0  0  0  0
   19.2763    8.8405   -5.8455 H   0  0  0  0  0  0  0  0  0  0  0  0
   18.0301    8.8960   -7.1379 H   0  0  0  0  0  0  0  0  0  0  0  0
   18.9509   10.3789   -6.7138 H   0  0  0  0  0  0  0  0  0  0  0  0
   22.8877    8.0101  -10.8699 H   0  0  0  0  0  0  0  0  0  0  0  0
   22.2522    9.6373  -11.2880 H   0  0  0  0  0  0  0  0  0  0  0  0
   21.3162    8.1679  -11.7254 H   0  0  0  0  0  0  0  0  0  0  0  0
  1  2  2  0  0  0  0
  2  3  2  0  0  0  0
  2  4  1  0  0  0  0
  2 10  1  0  0  0  0
  4  5  1  0  0  0  0
  4 24  1  0  0  0  0
  5  6  1  0  0  0  0
  5  9  1  0  0  0  0
  5 25  1  0  0  0  0
  6  7  1  0  0  0  0
  6 26  1  0  0  0  0
  6 27  1  0  0  0  0
  7  8  1  0  0  0  0
  7 28  1  0  0  0  0
  7 29  1  0  0  0  0
  8  9  1  0  0  0  0
  8 30  1  0  0  0  0
  8 31  1  0  0  0  0
  9 32  1  0  0  0  0
  9 33  1  0  0  0  0
 10 11  2  0  0  0  0
 10 15  1  0  0  0  0
 11 12  1  0  0  0  0
 11 13  1  0  0  0  0
 12 34  1  0  0  0  0
 12 35  1  0  0  0  0
 12 36  1  0  0  0  0
 13 14  2  0  0  0  0
 13 37  1  0  0  0  0
 14 16  1  0  0  0  0
 14 38  1  0  0  0  0
 15 16  2  0  0  0  0
 15 39  1  0  0  0  0
 16 17  1  0  0  0  0
 17 18  1  0  0  0  0
 17 20  2  0  0  0  0
 18 19  1  0  0  0  0
 18 23  2  0  0  0  0
 19 40  1  0  0  0  0
 19 41  1  0  0  0  0
 19 42  1  0  0  0  0
 20 21  1  0  0  0  0
 20 22  1  0  0  0  0
 21 43  1  0  0  0  0
 21 44  1  0  0  0  0
 21 45  1  0  0  0  0
 22 23  1  0  0  0  0
M  END
