4a9n_ligand
 OpenBabel08222323353D

 37 39  0  0  1  0  0  0  0  0999 V2000
   20.7720   13.3460  -11.6160 O   0  0  0  0  0  0  0  0  0  0  0  0
   19.4320   13.2300  -12.1150 S   0  0  0  0  0  0  0  0  0  0  0  0
   19.2070   12.9750  -13.5020 O   0  0  0  0  0  0  0  0  0  0  0  0
   18.6690   14.5960  -11.7380 N   0  0  0  0  0  0  0  0  0  0  0  0
   18.6580   15.1070  -10.3710 C   0  0  1  0  0  0  0  0  0  0  0  0
   19.7200   16.0250   -9.8860 C   0  0  0  0  0  0  0  0  0  0  0  0
   18.5520   16.5590  -10.0920 C   0  0  0  0  0  0  0  0  0  0  0  0
   18.7060   11.8940  -11.2040 C   0  0  0  0  0  0  0  0  0  0  0  0
   17.3240   11.6620  -11.2660 C   0  0  0  0  0  0  0  0  0  0  0  0
   16.3770   12.4820  -12.0690 C   0  0  0  0  0  0  0  0  0  0  0  0
   16.8380   10.5980  -10.5290 C   0  0  0  0  0  0  0  0  0  0  0  0
   17.6600    9.7950   -9.7610 C   0  0  0  0  0  0  0  0  0  0  0  0
   19.5340   11.0990  -10.4430 C   0  0  0  0  0  0  0  0  0  0  0  0
   19.0150   10.0460   -9.7160 C   0  0  0  0  0  0  0  0  0  0  0  0
   19.9240    9.2170   -8.9040 C   0  0  0  0  0  0  0  0  0  0  0  0
   19.8120    8.9360   -7.5260 C   0  0  0  0  0  0  0  0  0  0  0  0
   18.8610    9.3010   -6.6640 C   0  0  0  0  0  0  0  0  0  0  0  0
   21.0740    8.6200   -9.3460 C   0  0  0  0  0  0  0  0  0  0  0  0
   21.7450    8.5410  -10.6500 C   0  0  0  0  0  0  0  0  0  0  0  0
   21.6670    7.9810   -8.3070 O   0  0  0  0  0  0  0  0  0  0  0  0
   20.8700    8.1940   -7.1870 N   0  0  0  0  0  0  0  0  0  0  0  0
   18.1928   15.1050  -12.4550 H   0  0  0  0  0  0  0  0  0  0  0  0
   18.1974   14.3629   -9.7046 H   0  0  0  0  0  0  0  0  0  0  0  0
   20.7551   16.1582   -9.5748 H   0  0  0  0  0  0  0  0  0  0  0  0
   17.9291   17.4521  -10.0728 H   0  0  0  0  0  0  0  0  0  0  0  0
   15.3565   12.0910  -11.9441 H   0  0  0  0  0  0  0  0  0  0  0  0
   16.6603   12.4348  -13.1308 H   0  0  0  0  0  0  0  0  0  0  0  0
   16.4140   13.5264  -11.7257 H   0  0  0  0  0  0  0  0  0  0  0  0
   15.7752   10.3862  -10.5544 H   0  0  0  0  0  0  0  0  0  0  0  0
   17.2407    8.9705   -9.1958 H   0  0  0  0  0  0  0  0  0  0  0  0
   20.5986   11.3009  -10.4146 H   0  0  0  0  0  0  0  0  0  0  0  0
   19.0978    8.9025   -5.6665 H   0  0  0  0  0  0  0  0  0  0  0  0
   17.8914    8.9026   -6.9973 H   0  0  0  0  0  0  0  0  0  0  0  0
   18.8099   10.3988   -6.6176 H   0  0  0  0  0  0  0  0  0  0  0  0
   22.6657    7.9470  -10.5532 H   0  0  0  0  0  0  0  0  0  0  0  0
   21.9973    9.5547  -10.9946 H   0  0  0  0  0  0  0  0  0  0  0  0
   21.0747    8.0621  -11.3789 H   0  0  0  0  0  0  0  0  0  0  0  0
  1  2  2  0  0  0  0
  2  3  2  0  0  0  0
  2  4  1  0  0  0  0
  2  8  1  0  0  0  0
  4  5  1  0  0  0  0
  4 22  1  0  0  0  0
  5  6  1  0  0  0  0
  5  7  1  0  0  0  0
  5 23  1  1  0  0  0
  6  7  2  0  0  0  0
  6 24  1  0  0  0  0
  7 25  1  0  0  0  0
  8  9  2  0  0  0  0
  8 13  1  0  0  0  0
  9 10  1  0  0  0  0
  9 11  1  0  0  0  0
 10 26  1  0  0  0  0
 10 27  1  0  0  0  0
 10 28  1  0  0  0  0
 11 12  2  0  0  0  0
 11 29  1  0  0  0  0
 12 14  1  0  0  0  0
 12 30  1  0  0  0  0
 13 14  2  0  0  0  0
 13 31  1  0  0  0  0
 14 15  1  0  0  0  0
 15 16  1  0  0  0  0
 15 18  2  0  0  0  0
 16 17  1  0  0  0  0
 16 21  2  0  0  0  0
 17 32  1  0  0  0  0
 17 33  1  0  0  0  0
 17 34  1  0  0  0  0
 18 19  1  0  0  0  0
 18 20  1  0  0  0  0
 19 35  1  0  0  0  0
 19 36  1  0  0  0  0
 19 37  1  0  0  0  0
 20 21  1  0  0  0  0
M  END
