4aa0_ligand
 OpenBabel08222323353D

 74 79  0  0  0  0  0  0  0  0999 V2000
   -4.0470    0.0810   24.7150 C   0  0  0  0  0  0  0  0  0  0  0  0
   -4.0520   -0.7470   23.6010 C   0  0  0  0  0  0  0  0  0  0  0  0
   -4.0860   -0.1840   22.3320 C   0  0  0  0  0  0  0  0  0  0  0  0
   -4.0880   -1.0350   21.1970 N   0  0  0  0  0  0  0  0  0  0  0  0
   -4.1350    1.7980   20.8860 C   0  0  0  0  0  0  0  0  0  0  0  0
   -4.1360    0.9010   19.8270 N   0  0  0  0  0  0  0  0  0  0  0  0
   -4.3230    1.4180   18.5090 C   0  0  0  0  0  0  0  0  0  0  0  0
   -3.2660    2.0260   17.8420 C   0  0  0  0  0  0  0  0  0  0  0  0
   -3.4990    2.5460   16.5630 C   0  0  0  0  0  0  0  0  0  0  0  0
   -2.5080    3.2070   15.7910 N   0  0  0  0  0  0  0  0  0  0  0  0
   -1.1510    2.9030   15.8110 C   0  0  0  0  0  0  0  0  0  0  0  0
   -0.6360    2.0640   16.5550 O   0  0  0  0  0  0  0  0  0  0  0  0
   -0.2900    3.6170   14.8150 C   0  0  0  0  0  0  0  0  0  0  0  0
   -0.6110    4.8860   14.3690 C   0  0  0  0  0  0  0  0  0  0  0  0
    0.2550    5.4680   13.4620 C   0  0  0  0  0  0  0  0  0  0  0  0
    1.3800    4.8820   13.0000 N   0  0  0  0  0  0  0  0  0  0  0  0
    1.6940    3.6320   13.4140 C   0  0  0  0  0  0  0  0  0  0  0  0
    0.8610    2.9950   14.3380 C   0  0  0  0  0  0  0  0  0  0  0  0
    2.8650    2.9920   12.8790 N   0  0  0  0  0  0  0  0  0  0  0  0
    3.3520    1.7780   13.5340 C   0  0  0  0  0  0  0  0  0  0  0  0
    4.4100    1.0460   12.7050 C   0  0  0  0  0  0  0  0  0  0  0  0
    5.5030    1.9080   12.3560 O   0  0  0  0  0  0  0  0  0  0  0  0
    4.9830    3.0510   11.6340 C   0  0  0  0  0  0  0  0  0  0  0  0
    3.9560    3.8630   12.4350 C   0  0  0  0  0  0  0  0  0  0  0  0
   -4.7610    2.4720   16.0070 C   0  0  0  0  0  0  0  0  0  0  0  0
   -5.8220    1.8800   16.6590 C   0  0  0  0  0  0  0  0  0  0  0  0
   -5.5880    1.3500   17.9240 C   0  0  0  0  0  0  0  0  0  0  0  0
   -4.1140   -0.4600   20.0290 C   0  0  0  0  0  0  0  0  0  0  0  0
   -6.7400    0.7070   18.6280 C   0  0  0  0  0  0  0  0  0  0  0  0
   -4.1080    1.1950   22.2360 C   0  0  0  0  0  0  0  0  0  0  0  0
   -4.1000    2.0200   23.3500 C   0  0  0  0  0  0  0  0  0  0  0  0
   -4.0690    1.4570   24.6210 C   0  0  0  0  0  0  0  0  0  0  0  0
   -3.4460    1.6010   26.9710 C   0  0  0  0  0  0  0  0  0  0  0  0
   -2.0690    2.1540   27.2670 C   0  0  0  0  0  0  0  0  0  0  0  0
   -4.0760    2.2300   25.8030 N   0  0  0  0  0  0  0  0  0  0  0  0
   -2.0730    3.6410   27.1310 N   0  3  0  0  0  0  0  0  0  0  0  0
   -2.5430    4.1080   25.7970 C   0  0  0  0  0  0  0  0  0  0  0  0
   -4.1440    3.0160   20.7820 O   0  0  0  0  0  0  0  0  0  0  0  0
   -3.9830    3.6670   25.6130 C   0  0  0  0  0  0  0  0  0  0  0  0
   -0.7200    4.1760   27.3700 C   0  0  0  0  0  0  0  0  0  0  0  0
   -4.0249   -0.3724   25.6994 H   0  0  0  0  0  0  0  0  0  0  0  0
   -4.0296   -1.8242   23.7206 H   0  0  0  0  0  0  0  0  0  0  0  0
   -2.2861    2.0958   18.3003 H   0  0  0  0  0  0  0  0  0  0  0  0
   -2.8079    3.9462   15.1879 H   0  0  0  0  0  0  0  0  0  0  0  0
   -1.5004    5.4005   14.7145 H   0  0  0  0  0  0  0  0  0  0  0  0
    0.0148    6.4603   13.0978 H   0  0  0  0  0  0  0  0  0  0  0  0
    1.1149    2.0012   14.6888 H   0  0  0  0  0  0  0  0  0  0  0  0
    2.5012    1.1001   13.6971 H   0  0  0  0  0  0  0  0  0  0  0  0
    3.7926    2.0533   14.5036 H   0  0  0  0  0  0  0  0  0  0  0  0
    3.9431    0.6715   11.7821 H   0  0  0  0  0  0  0  0  0  0  0  0
    4.7974    0.1987   13.2899 H   0  0  0  0  0  0  0  0  0  0  0  0
    4.5012    2.6916   10.7128 H   0  0  0  0  0  0  0  0  0  0  0  0
    5.8236    3.7113   11.3746 H   0  0  0  0  0  0  0  0  0  0  0  0
    4.4477    4.3074   13.3129 H   0  0  0  0  0  0  0  0  0  0  0  0
    3.5481    4.6626   11.7993 H   0  0  0  0  0  0  0  0  0  0  0  0
   -4.9234    2.8947   15.0221 H   0  0  0  0  0  0  0  0  0  0  0  0
   -6.8037    1.8293   16.2022 H   0  0  0  0  0  0  0  0  0  0  0  0
   -4.1187   -1.1019   19.1493 H   0  0  0  0  0  0  0  0  0  0  0  0
   -6.4093    0.3363   19.6094 H   0  0  0  0  0  0  0  0  0  0  0  0
   -7.1147   -0.1338   18.0258 H   0  0  0  0  0  0  0  0  0  0  0  0
   -7.5434    1.4454   18.7667 H   0  0  0  0  0  0  0  0  0  0  0  0
   -4.1178    3.0973   23.2310 H   0  0  0  0  0  0  0  0  0  0  0  0
   -4.0876    1.7688   27.8486 H   0  0  0  0  0  0  0  0  0  0  0  0
   -3.3574    0.5209   26.7827 H   0  0  0  0  0  0  0  0  0  0  0  0
   -1.3449    1.7258   26.5582 H   0  0  0  0  0  0  0  0  0  0  0  0
   -1.7812    1.8834   28.2936 H   0  0  0  0  0  0  0  0  0  0  0  0
   -2.6962    4.0131   27.8304 H   0  0  0  0  0  0  0  0  0  0  0  0
   -1.9163    3.6676   25.0076 H   0  0  0  0  0  0  0  0  0  0  0  0
   -2.4813    5.2050   25.7449 H   0  0  0  0  0  0  0  0  0  0  0  0
   -4.6199    4.1767   26.3509 H   0  0  0  0  0  0  0  0  0  0  0  0
   -4.3190    3.9254   24.5979 H   0  0  0  0  0  0  0  0  0  0  0  0
   -0.3606    3.8382   28.3532 H   0  0  0  0  0  0  0  0  0  0  0  0
   -0.7514    5.2753   27.3490 H   0  0  0  0  0  0  0  0  0  0  0  0
   -0.0386    3.8136   26.5862 H   0  0  0  0  0  0  0  0  0  0  0  0
  1  2  2  0  0  0  0
  1 41  1  0  0  0  0
  2  3  1  0  0  0  0
  2 42  1  0  0  0  0
  3  4  1  0  0  0  0
  4 28  2  0  0  0  0
  5  6  1  0  0  0  0
  5 38  2  0  0  0  0
  6  7  1  0  0  0  0
  6 28  1  0  0  0  0
  7  8  2  0  0  0  0
  7 27  1  0  0  0  0
  8  9  1  0  0  0  0
  8 43  1  0  0  0  0
  9 10  1  0  0  0  0
  9 25  2  0  0  0  0
 10 11  1  0  0  0  0
 10 44  1  0  0  0  0
 11 12  2  0  0  0  0
 11 13  1  0  0  0  0
 13 14  2  0  0  0  0
 13 18  1  0  0  0  0
 14 15  1  0  0  0  0
 14 45  1  0  0  0  0
 15 16  2  0  0  0  0
 15 46  1  0  0  0  0
 17 16  1  0  0  0  0
 17 19  1  0  0  0  0
 18 17  2  0  0  0  0
 18 47  1  0  0  0  0
 19 20  1  0  0  0  0
 19 24  1  0  0  0  0
 20 21  1  0  0  0  0
 20 48  1  0  0  0  0
 20 49  1  0  0  0  0
 21 22  1  0  0  0  0
 21 50  1  0  0  0  0
 21 51  1  0  0  0  0
 23 22  1  0  0  0  0
 23 52  1  0  0  0  0
 23 53  1  0  0  0  0
 24 23  1  0  0  0  0
 24 54  1  0  0  0  0
 24 55  1  0  0  0  0
 25 56  1  0  0  0  0
 26 25  1  0  0  0  0
 26 57  1  0  0  0  0
 27 26  2  0  0  0  0
 27 29  1  0  0  0  0
 28 58  1  0  0  0  0
 29 59  1  0  0  0  0
 29 60  1  0  0  0  0
 29 61  1  0  0  0  0
 30  3  2  0  0  0  0
 30  5  1  0  0  0  0
 31 30  1  0  0  0  0
 31 62  1  0  0  0  0
 32  1  1  0  0  0  0
 32 31  2  0  0  0  0
 33 34  1  0  0  0  0
 33 35  1  0  0  0  0
 33 63  1  0  0  0  0
 33 64  1  0  0  0  0
 34 36  1  0  0  0  0
 34 65  1  0  0  0  0
 34 66  1  0  0  0  0
 35 32  1  0  0  0  0
 35 39  1  0  0  0  0
 36 37  1  0  0  0  0
 36 40  1  0  0  0  0
 36 67  1  0  0  0  0
 37 39  1  0  0  0  0
 37 68  1  0  0  0  0
 37 69  1  0  0  0  0
 39 70  1  0  0  0  0
 39 71  1  0  0  0  0
 40 72  1  0  0  0  0
 40 73  1  0  0  0  0
 40 74  1  0  0  0  0
M  CHG  1  36   1
M  END
