4aa2_ligand
 OpenBabel08222323353D

110112  0  0  1  0  0  0  0  0999 V2000
   25.5220    9.3440   14.3110 N   0  3  0  0  0  0  0  0  0  0  0  0
   25.5600    8.7300   12.9450 C   0  0  2  0  0  0  0  0  0  0  0  0
   24.9820    7.3020   12.9490 C   0  0  0  0  0  0  0  0  0  0  0  0
   24.9070    6.6750   14.0160 O   0  0  0  0  0  0  0  0  0  0  0  0
   26.9970    8.7220   12.4140 C   0  0  0  0  0  0  0  0  0  0  0  0
   27.1070    9.0270   10.9190 C   0  0  0  0  0  0  0  0  0  0  0  0
   28.1380    8.1350   10.2310 C   0  0  0  0  0  0  0  0  0  0  0  0
   29.4500    8.2470   10.8640 N   0  0  0  0  0  0  0  0  0  0  0  0
   30.3670    9.1580   10.5470 C   0  0  0  0  0  3  0  0  0  0  0  0
   30.1300   10.0490    9.5880 N   0  0  0  0  0  0  0  0  0  0  0  0
   31.5250    9.1790   11.1940 N   0  0  0  0  0  0  0  0  0  0  0  0
   24.5620    6.7850   11.7650 N   0  0  0  0  0  0  0  0  0  0  0  0
   24.0340    5.4210   11.6680 C   0  0  2  0  0  0  0  0  0  0  0  0
   25.0070    4.3470   12.1460 C   0  0  0  0  0  0  0  0  0  0  0  0
   26.2310    4.5170   12.0580 O   0  0  0  0  0  0  0  0  0  0  0  0
   23.7700    5.2440   10.1600 C   0  0  0  0  0  0  0  0  0  0  0  0
   24.5390    6.3380    9.4930 C   0  0  0  0  0  0  0  0  0  0  0  0
   24.4410    7.4720   10.4680 C   0  0  0  0  0  0  0  0  0  0  0  0
   24.4430    3.2490   12.6430 N   0  0  0  0  0  0  0  0  0  0  0  0
   25.2120    2.1170   13.1330 C   0  0  2  0  0  0  0  0  0  0  0  0
   25.2470    1.0480   12.0490 C   0  0  0  0  0  0  0  0  0  0  0  0
   24.1980    0.6370   11.5520 O   0  0  0  0  0  0  0  0  0  0  0  0
   24.5620    1.5540   14.3920 C   0  0  0  0  0  0  0  0  0  0  0  0
   24.2060    2.5750   15.4670 C   0  0  0  0  0  0  0  0  0  0  0  0
   25.2700    2.6340   16.5480 C   0  0  0  0  0  0  0  0  0  0  0  0
   26.2060    3.7960   16.3580 C   0  0  0  0  0  0  0  0  0  0  0  0
   25.6340    5.0430   16.9210 N   0  3  0  0  0  0  0  0  0  0  0  0
   26.4470    0.5920   11.7000 N   0  0  0  0  0  0  0  0  0  0  0  0
   26.6460   -0.2640   10.5250 C   0  0  2  0  0  0  0  0  0  0  0  0
   27.3650   -1.5950   10.8480 C   0  0  0  0  0  0  0  0  0  0  0  0
   28.0680   -1.6860   11.8580 O   0  0  0  0  0  0  0  0  0  0  0  0
   27.3870    0.5170    9.3990 C   0  0  2  0  0  0  0  0  0  0  0  0
   28.8170    0.8710    9.8180 C   0  0  0  0  0  0  0  0  0  0  0  0
   26.6170    1.7880    9.0240 C   0  0  0  0  0  0  0  0  0  0  0  0
   29.6410    1.4980    8.7160 C   0  0  0  0  0  0  0  0  0  0  0  0
   27.1940   -2.6320    9.9970 N   0  0  0  0  0  0  0  0  0  0  0  0
   27.8960   -3.8910   10.2480 C   0  0  2  0  0  0  0  0  0  0  0  0
   29.3980   -3.7390   10.0110 C   0  0  0  0  0  0  0  0  0  0  0  0
   29.8140   -2.7780    9.3500 O   0  0  0  0  0  0  0  0  0  0  0  0
   27.3100   -4.8520    9.1940 C   0  0  0  0  0  0  0  0  0  0  0  0
   26.1910   -4.1320    8.5490 C   0  0  0  0  0  0  0  0  0  0  0  0
   26.4520   -2.6810    8.7270 C   0  0  0  0  0  0  0  0  0  0  0  0
   30.2110   -4.6700   10.5510 N   0  0  0  0  0  0  0  0  0  0  0  0
   31.6500   -4.6520   10.3020 C   0  0  2  0  0  0  0  0  0  0  0  0
   31.9760   -4.8190    8.8200 C   0  0  0  0  0  0  0  0  0  0  0  0
   33.0810   -4.5050    8.3970 O   0  5  0  0  0  0  0  0  0  0  0  0
   32.1640   -5.8630   11.0870 C   0  0  0  0  0  0  0  0  0  0  0  0
   30.9730   -6.6830   11.3910 C   0  0  0  0  0  0  0  0  0  0  0  0
   29.8440   -5.7270   11.5090 C   0  0  0  0  0  0  0  0  0  0  0  0
   31.1490   -5.2650    8.0230 O   0  0  0  0  0  0  0  0  0  0  0  0
   25.9065   10.2750   14.2717 H   0  0  0  0  0  0  0  0  0  0  0  0
   26.0661    8.7824   14.9471 H   0  0  0  0  0  0  0  0  0  0  0  0
   24.5679    9.3879   14.6333 H   0  0  0  0  0  0  0  0  0  0  0  0
   24.9443    9.3467   12.2737 H   0  0  0  0  0  0  0  0  0  0  0  0
   27.4284    7.7268   12.5971 H   0  0  0  0  0  0  0  0  0  0  0  0
   27.5742    9.4789   12.9653 H   0  0  0  0  0  0  0  0  0  0  0  0
   27.4045   10.0783   10.7913 H   0  0  0  0  0  0  0  0  0  0  0  0
   26.1257    8.8639   10.4495 H   0  0  0  0  0  0  0  0  0  0  0  0
   28.2233    8.4351    9.1762 H   0  0  0  0  0  0  0  0  0  0  0  0
   27.8014    7.0894   10.2887 H   0  0  0  0  0  0  0  0  0  0  0  0
   29.6816    7.5734   11.6080 H   0  0  0  0  0  0  0  0  0  0  0  0
   30.8451   10.7507    9.3488 H   0  0  0  0  0  0  0  0  0  0  0  0
   29.2314   10.0372    9.0847 H   0  0  0  0  0  0  0  0  0  0  0  0
   31.7123    8.4908   11.9371 H   0  0  0  0  0  0  0  0  0  0  0  0
   32.2368    9.8835   10.9532 H   0  0  0  0  0  0  0  0  0  0  0  0
   23.1002    5.3364   12.2431 H   0  0  0  0  0  0  0  0  0  0  0  0
   22.6960    5.3407    9.9431 H   0  0  0  0  0  0  0  0  0  0  0  0
   24.1258    4.2604    9.8196 H   0  0  0  0  0  0  0  0  0  0  0  0
   24.0846    6.6075    8.5282 H   0  0  0  0  0  0  0  0  0  0  0  0
   25.5870    6.0435    9.3352 H   0  0  0  0  0  0  0  0  0  0  0  0
   25.2581    8.1939   10.3222 H   0  0  0  0  0  0  0  0  0  0  0  0
   23.4744    7.9897   10.3805 H   0  0  0  0  0  0  0  0  0  0  0  0
   23.4449    3.2004   12.6811 H   0  0  0  0  0  0  0  0  0  0  0  0
   26.2372    2.4406   13.3657 H   0  0  0  0  0  0  0  0  0  0  0  0
   25.2578    0.8262   14.8348 H   0  0  0  0  0  0  0  0  0  0  0  0
   23.6358    1.0411   14.0935 H   0  0  0  0  0  0  0  0  0  0  0  0
   23.2461    2.2933   15.9245 H   0  0  0  0  0  0  0  0  0  0  0  0
   24.1132    3.5673   15.0016 H   0  0  0  0  0  0  0  0  0  0  0  0
   25.8528    1.7014   16.5233 H   0  0  0  0  0  0  0  0  0  0  0  0
   24.7767    2.7323   17.5262 H   0  0  0  0  0  0  0  0  0  0  0  0
   26.3877    3.9383   15.2825 H   0  0  0  0  0  0  0  0  0  0  0  0
   27.1574    3.5770   16.8648 H   0  0  0  0  0  0  0  0  0  0  0  0
   26.2809    5.8030   16.7798 H   0  0  0  0  0  0  0  0  0  0  0  0
   25.4689    4.9213   17.9079 H   0  0  0  0  0  0  0  0  0  0  0  0
   24.7635    5.2524   16.4579 H   0  0  0  0  0  0  0  0  0  0  0  0
   27.2395    0.8408   12.2568 H   0  0  0  0  0  0  0  0  0  0  0  0
   25.6476   -0.5245   10.1438 H   0  0  0  0  0  0  0  0  0  0  0  0
   27.4390   -0.1304    8.5112 H   0  0  0  0  0  0  0  0  0  0  0  0
   29.3203   -0.0508   10.1450 H   0  0  0  0  0  0  0  0  0  0  0  0
   28.7665    1.5791   10.6582 H   0  0  0  0  0  0  0  0  0  0  0  0
   25.5925    1.5213    8.7252 H   0  0  0  0  0  0  0  0  0  0  0  0
   27.1240    2.2904    8.1870 H   0  0  0  0  0  0  0  0  0  0  0  0
   26.5817    2.4645    9.8906 H   0  0  0  0  0  0  0  0  0  0  0  0
   30.6495    1.7216    9.0942 H   0  0  0  0  0  0  0  0  0  0  0  0
   29.1596    2.4292    8.3827 H   0  0  0  0  0  0  0  0  0  0  0  0
   29.7135    0.7993    7.8695 H   0  0  0  0  0  0  0  0  0  0  0  0
   27.7103   -4.2518   11.2704 H   0  0  0  0  0  0  0  0  0  0  0  0
   26.9436   -5.7695    9.6776 H   0  0  0  0  0  0  0  0  0  0  0  0
   28.0757   -5.1114    8.4481 H   0  0  0  0  0  0  0  0  0  0  0  0
   25.2390   -4.4065    9.0269 H   0  0  0  0  0  0  0  0  0  0  0  0
   26.1487   -4.3801    7.4782 H   0  0  0  0  0  0  0  0  0  0  0  0
   27.0580   -2.2838    7.8994 H   0  0  0  0  0  0  0  0  0  0  0  0
   25.5110   -2.1156    8.7967 H   0  0  0  0  0  0  0  0  0  0  0  0
   32.0978   -3.7184   10.6734 H   0  0  0  0  0  0  0  0  0  0  0  0
   32.6518   -5.5370   12.0175 H   0  0  0  0  0  0  0  0  0  0  0  0
   32.8791   -6.4373   10.4798 H   0  0  0  0  0  0  0  0  0  0  0  0
   31.1140   -7.2279   12.3361 H   0  0  0  0  0  0  0  0  0  0  0  0
   30.7842   -7.4004   10.5788 H   0  0  0  0  0  0  0  0  0  0  0  0
   28.8918   -6.2018   11.2298 H   0  0  0  0  0  0  0  0  0  0  0  0
   29.7686   -5.3270   12.5309 H   0  0  0  0  0  0  0  0  0  0  0  0
  1  2  1  0  0  0  0
  1 51  1  0  0  0  0
  1 52  1  0  0  0  0
  1 53  1  0  0  0  0
  2  3  1  0  0  0  0
  2  5  1  0  0  0  0
  2 54  1  6  0  0  0
  3  4  2  0  0  0  0
  3 12  1  0  0  0  0
  5  6  1  0  0  0  0
  5 55  1  0  0  0  0
  5 56  1  0  0  0  0
  6  7  1  0  0  0  0
  6 57  1  0  0  0  0
  6 58  1  0  0  0  0
  7  8  1  0  0  0  0
  7 59  1  0  0  0  0
  7 60  1  0  0  0  0
  8  9  1  0  0  0  0
  8 61  1  0  0  0  0
  9 10  1  0  0  0  0
  9 11  1  0  0  0  0
 10 62  1  0  0  0  0
 10 63  1  0  0  0  0
 11 64  1  0  0  0  0
 11 65  1  0  0  0  0
 12 13  1  0  0  0  0
 12 18  1  0  0  0  0
 13 14  1  0  0  0  0
 13 16  1  0  0  0  0
 13 66  1  1  0  0  0
 14 15  2  0  0  0  0
 14 19  1  0  0  0  0
 16 17  1  0  0  0  0
 16 67  1  0  0  0  0
 16 68  1  0  0  0  0
 17 18  1  0  0  0  0
 17 69  1  0  0  0  0
 17 70  1  0  0  0  0
 18 71  1  0  0  0  0
 18 72  1  0  0  0  0
 19 20  1  0  0  0  0
 19 73  1  0  0  0  0
 20 21  1  0  0  0  0
 20 23  1  0  0  0  0
 20 74  1  1  0  0  0
 21 22  2  0  0  0  0
 21 28  1  0  0  0  0
 23 24  1  0  0  0  0
 23 75  1  0  0  0  0
 23 76  1  0  0  0  0
 24 25  1  0  0  0  0
 24 77  1  0  0  0  0
 24 78  1  0  0  0  0
 25 26  1  0  0  0  0
 25 79  1  0  0  0  0
 25 80  1  0  0  0  0
 26 27  1  0  0  0  0
 26 81  1  0  0  0  0
 26 82  1  0  0  0  0
 27 83  1  0  0  0  0
 27 84  1  0  0  0  0
 27 85  1  0  0  0  0
 28 29  1  0  0  0  0
 28 86  1  0  0  0  0
 29 30  1  0  0  0  0
 29 32  1  0  0  0  0
 29 87  1  6  0  0  0
 30 31  2  0  0  0  0
 30 36  1  0  0  0  0
 32 33  1  0  0  0  0
 32 34  1  0  0  0  0
 32 88  1  6  0  0  0
 33 35  1  0  0  0  0
 33 89  1  0  0  0  0
 33 90  1  0  0  0  0
 34 91  1  0  0  0  0
 34 92  1  0  0  0  0
 34 93  1  0  0  0  0
 35 94  1  0  0  0  0
 35 95  1  0  0  0  0
 35 96  1  0  0  0  0
 36 37  1  0  0  0  0
 36 42  1  0  0  0  0
 37 38  1  0  0  0  0
 37 40  1  0  0  0  0
 37 97  1  1  0  0  0
 38 39  2  0  0  0  0
 38 43  1  0  0  0  0
 40 41  1  0  0  0  0
 40 98  1  0  0  0  0
 40 99  1  0  0  0  0
 41 42  1  0  0  0  0
 41100  1  0  0  0  0
 41101  1  0  0  0  0
 42102  1  0  0  0  0
 42103  1  0  0  0  0
 43 44  1  0  0  0  0
 43 49  1  0  0  0  0
 44 45  1  0  0  0  0
 44 47  1  0  0  0  0
 44104  1  1  0  0  0
 45 46  1  0  0  0  0
 45 50  2  0  0  0  0
 47 48  1  0  0  0  0
 47105  1  0  0  0  0
 47106  1  0  0  0  0
 48 49  1  0  0  0  0
 48107  1  0  0  0  0
 48108  1  0  0  0  0
 49109  1  0  0  0  0
 49110  1  0  0  0  0
M  CHG  3   1   1  27   1  46  -1
M  END
