4aac_ligand
 OpenBabel08222323353D

 58 62  0  0  0  0  0  0  0  0999 V2000
   -1.3550    4.3410   28.7110 C   0  0  0  0  0  0  0  0  0  0  0  0
   -1.3390    3.6250   27.4340 N   0  3  0  0  0  0  0  0  0  0  0  0
   -1.5470    2.1630   27.7190 C   0  0  0  0  0  0  0  0  0  0  0  0
   -1.6820    1.3900   26.3920 C   0  0  0  0  0  0  0  0  0  0  0  0
   -2.6900    2.0010   25.4850 N   0  0  0  0  0  0  0  0  0  0  0  0
   -2.3690    3.4190   25.1930 C   0  0  0  0  0  0  0  0  0  0  0  0
   -2.3940    4.1700   26.5420 C   0  0  0  0  0  0  0  0  0  0  0  0
   -2.8050    1.2250   24.3120 C   0  0  0  0  0  0  0  0  0  0  0  0
   -2.8240   -0.1850   24.4250 C   0  0  0  0  0  0  0  0  0  0  0  0
   -2.9610   -1.0100   23.3360 C   0  0  0  0  0  0  0  0  0  0  0  0
   -3.0640   -0.4160   22.0710 C   0  0  0  0  0  0  0  0  0  0  0  0
   -3.2070   -1.1900   20.9550 N   0  0  0  0  0  0  0  0  0  0  0  0
   -3.3930   -0.6730   19.7690 C   0  0  0  0  0  0  0  0  0  0  0  0
   -3.3990    0.6830   19.5600 N   0  0  0  0  0  0  0  0  0  0  0  0
   -3.6030    1.1900   18.2760 C   0  0  0  0  0  0  0  0  0  0  0  0
   -2.5290    1.5860   17.4710 C   0  0  0  0  0  0  0  0  0  0  0  0
   -2.7860    2.1000   16.1950 C   0  0  0  0  0  0  0  0  0  0  0  0
   -2.1810    3.2720   14.1690 N   0  0  0  0  0  0  0  0  0  0  0  0
   -1.7600    2.5280   15.1910 C   0  0  0  0  0  0  0  0  0  0  0  0
   -0.5740    2.2130   15.1870 O   0  0  0  0  0  0  0  0  0  0  0  0
   -1.3220    4.8510   12.3900 C   0  0  0  0  0  0  0  0  0  0  0  0
   -0.2530    4.7390   11.5590 C   0  0  0  0  0  0  0  0  0  0  0  0
    0.3530    3.5680   11.8350 O   0  0  0  0  0  0  0  0  0  0  0  0
   -1.2710    3.6680   13.1700 C   0  0  0  0  0  0  0  0  0  0  0  0
   -4.1280    2.2000   15.8030 C   0  0  0  0  0  0  0  0  0  0  0  0
   -5.1860    1.8530   16.6170 C   0  0  0  0  0  0  0  0  0  0  0  0
   -4.9340    1.3230   17.8570 C   0  0  0  0  0  0  0  0  0  0  0  0
   -6.1270    0.9280   18.7100 C   0  0  0  0  0  0  0  0  0  0  0  0
   -0.2220    2.9800   12.7370 N   0  0  0  0  0  0  0  0  0  0  0  0
   -3.2030    1.5650   20.5840 C   0  0  0  0  0  0  0  0  0  0  0  0
   -2.9280    1.8280   23.0550 C   0  0  0  0  0  0  0  0  0  0  0  0
   -3.2060    2.7730   20.3910 O   0  0  0  0  0  0  0  0  0  0  0  0
   -3.0430    1.0060   21.9400 C   0  0  0  0  0  0  0  0  0  0  0  0
   -0.5726    3.9348   29.3689 H   0  0  0  0  0  0  0  0  0  0  0  0
   -2.3376    4.2158   29.1893 H   0  0  0  0  0  0  0  0  0  0  0  0
   -1.1667    5.4103   28.5343 H   0  0  0  0  0  0  0  0  0  0  0  0
   -0.4430    3.7496   26.9894 H   0  0  0  0  0  0  0  0  0  0  0  0
   -2.4636    2.0329   28.3130 H   0  0  0  0  0  0  0  0  0  0  0  0
   -0.6863    1.7741   28.2829 H   0  0  0  0  0  0  0  0  0  0  0  0
   -1.9857    0.3563   26.6137 H   0  0  0  0  0  0  0  0  0  0  0  0
   -0.7061    1.3847   25.8844 H   0  0  0  0  0  0  0  0  0  0  0  0
   -3.1188    3.8438   24.5094 H   0  0  0  0  0  0  0  0  0  0  0  0
   -1.3713    3.4949   24.7360 H   0  0  0  0  0  0  0  0  0  0  0  0
   -2.2101    5.2406   26.3686 H   0  0  0  0  0  0  0  0  0  0  0  0
   -3.3780    4.0390   27.0159 H   0  0  0  0  0  0  0  0  0  0  0  0
   -2.7267   -0.6309   25.4083 H   0  0  0  0  0  0  0  0  0  0  0  0
   -2.9886   -2.0875   23.4513 H   0  0  0  0  0  0  0  0  0  0  0  0
   -3.5479   -1.3387   18.9212 H   0  0  0  0  0  0  0  0  0  0  0  0
   -1.5106    1.4957   17.8313 H   0  0  0  0  0  0  0  0  0  0  0  0
   -3.1403    3.5484   14.1116 H   0  0  0  0  0  0  0  0  0  0  0  0
   -2.0485    5.6604   12.4443 H   0  0  0  0  0  0  0  0  0  0  0  0
    0.0572    5.4633   10.8073 H   0  0  0  0  0  0  0  0  0  0  0  0
   -4.3459    2.5696   14.8075 H   0  0  0  0  0  0  0  0  0  0  0  0
   -6.2062    1.9976   16.2804 H   0  0  0  0  0  0  0  0  0  0  0  0
   -5.7735    0.5216   19.6691 H   0  0  0  0  0  0  0  0  0  0  0  0
   -6.7174    0.1638   18.1833 H   0  0  0  0  0  0  0  0  0  0  0  0
   -6.7541    1.8125   18.8955 H   0  0  0  0  0  0  0  0  0  0  0  0
   -2.9334    2.9072   22.9537 H   0  0  0  0  0  0  0  0  0  0  0  0
  1 34  1  0  0  0  0
  1 35  1  0  0  0  0
  1 36  1  0  0  0  0
  2  1  1  0  0  0  0
  2 37  1  0  0  0  0
  3  2  1  0  0  0  0
  3 38  1  0  0  0  0
  3 39  1  0  0  0  0
  4  3  1  0  0  0  0
  4 40  1  0  0  0  0
  4 41  1  0  0  0  0
  5  4  1  0  0  0  0
  5  6  1  0  0  0  0
  6  7  1  0  0  0  0
  6 42  1  0  0  0  0
  6 43  1  0  0  0  0
  7  2  1  0  0  0  0
  7 44  1  0  0  0  0
  7 45  1  0  0  0  0
  8  5  1  0  0  0  0
  8 31  1  0  0  0  0
  9  8  2  0  0  0  0
  9 46  1  0  0  0  0
 10  9  1  0  0  0  0
 10 47  1  0  0  0  0
 11 10  2  0  0  0  0
 11 33  1  0  0  0  0
 12 11  1  0  0  0  0
 13 12  2  0  0  0  0
 13 48  1  0  0  0  0
 14 13  1  0  0  0  0
 14 30  1  0  0  0  0
 15 14  1  0  0  0  0
 15 27  1  0  0  0  0
 16 15  2  0  0  0  0
 16 49  1  0  0  0  0
 17 16  1  0  0  0  0
 17 25  2  0  0  0  0
 18 19  1  0  0  0  0
 18 50  1  0  0  0  0
 19 17  1  0  0  0  0
 19 20  2  0  0  0  0
 21 22  2  0  0  0  0
 21 24  1  0  0  0  0
 21 51  1  0  0  0  0
 22 23  1  0  0  0  0
 22 52  1  0  0  0  0
 23 29  1  0  0  0  0
 24 18  1  0  0  0  0
 24 29  2  0  0  0  0
 25 26  1  0  0  0  0
 25 53  1  0  0  0  0
 26 27  2  0  0  0  0
 26 54  1  0  0  0  0
 27 28  1  0  0  0  0
 28 55  1  0  0  0  0
 28 56  1  0  0  0  0
 28 57  1  0  0  0  0
 30 32  2  0  0  0  0
 30 33  1  0  0  0  0
 31 33  2  0  0  0  0
 31 58  1  0  0  0  0
M  CHG  1   2   1
M  END
