4aaw_ligand
 OpenBabel08222323353D

 79 81  0  0  0  0  0  0  0  0999 V2000
   57.1290   17.3790  -22.2320 C   0  0  0  0  0  0  0  0  0  0  0  0
   56.0480   18.1420  -21.7730 O   0  0  0  0  0  0  0  0  0  0  0  0
   55.5530   18.9290  -22.8040 C   0  0  0  0  0  0  0  0  0  0  0  0
   55.9300   18.6970  -24.1350 C   0  0  0  0  0  0  0  0  0  0  0  0
   55.4010   19.5410  -25.1180 C   0  0  0  0  0  0  0  0  0  0  0  0
   55.7120   19.3700  -26.4520 O   0  0  0  0  0  0  0  0  0  0  0  0
   56.3610   18.0590  -26.6780 C   0  0  0  0  0  0  0  0  0  0  0  0
   54.5360   20.6000  -24.7940 C   0  0  0  0  0  0  0  0  0  0  0  0
   54.1550   20.7830  -23.4740 C   0  0  0  0  0  0  0  0  0  0  0  0
   54.6850   19.9870  -22.4780 C   0  0  0  0  0  0  0  0  0  0  0  0
   54.2960   20.1990  -21.1410 N   0  0  0  0  0  0  0  0  0  0  0  0
   53.8940   21.4100  -20.5220 C   0  0  0  0  0  0  0  0  0  0  0  0
   53.8920   22.4660  -21.1020 O   0  0  0  0  0  0  0  0  0  0  0  0
   53.4050   21.4540  -19.1170 C   0  0  0  0  0  0  0  0  0  0  0  0
   54.5910   21.2760  -18.1570 C   0  0  0  0  0  0  0  0  0  0  0  0
   54.0480   21.3560  -16.7420 C   0  0  0  0  0  0  0  0  0  0  0  0
   54.8250   21.7930  -15.8630 O   0  5  0  0  0  0  0  0  0  0  0  0
   52.7270   21.0000  -16.5270 O   0  0  0  0  0  0  0  0  0  0  0  0
   53.8680   21.6210  -26.0930 S   0  0  0  0  0  0  0  0  0  0  0  0
   52.9840   22.3650  -25.2530 O   0  0  0  0  0  0  0  0  0  0  0  0
   54.9720   22.0780  -26.8870 O   0  0  0  0  0  0  0  0  0  0  0  0
   52.9680   20.5530  -27.1010 N   0  0  0  0  0  0  0  0  0  0  0  0
   51.8650   19.5500  -26.7360 C   0  0  0  0  0  0  0  0  0  0  0  0
   52.2760   18.0640  -26.8680 C   0  0  0  0  0  0  0  0  0  0  0  0
   52.0850   17.1330  -25.8370 C   0  0  0  0  0  0  0  0  0  0  0  0
   52.4810   15.7960  -25.9550 C   0  0  0  0  0  0  0  0  0  0  0  0
   53.1010   15.2860  -27.1060 C   0  0  0  0  0  0  0  0  0  0  0  0
   53.2490   16.2010  -28.1420 C   0  0  0  0  0  0  0  0  0  0  0  0
   52.8580   17.5650  -28.0080 C   0  0  0  0  0  0  0  0  0  0  0  0
   53.0380   18.4500  -29.0340 N   0  0  0  0  0  0  0  0  0  0  0  0
   53.7960   17.8090  -30.0870 C   0  0  0  0  0  0  0  0  0  0  0  0
   54.3390   18.9820  -30.9110 C   0  0  0  0  0  0  0  0  0  0  0  0
   53.2240   19.9200  -31.3880 C   0  0  0  0  0  0  0  0  0  0  0  0
   53.0160   19.7640  -32.8820 C   0  0  0  0  0  0  0  0  0  0  0  0
   52.6010   21.0650  -33.4090 O   0  0  0  0  0  0  0  0  0  0  0  0
   51.6900   21.1790  -34.4100 C   0  0  0  0  0  0  0  0  0  0  0  0
   50.7210   20.4240  -34.4780 O   0  0  0  0  0  0  0  0  0  0  0  0
   51.9060   22.2590  -35.4540 C   0  0  0  0  0  0  0  0  0  0  0  0
   50.8190   22.1850  -36.5450 C   0  0  0  0  0  0  0  0  0  0  0  0
   50.9890   21.0810  -37.5880 C   0  0  0  0  0  0  0  0  0  0  0  0
   50.0710   20.8070  -38.3390 O   0  5  0  0  0  0  0  0  0  0  0  0
   52.1360   20.3850  -37.7150 O   0  0  0  0  0  0  0  0  0  0  0  0
   51.9180   19.9140  -30.5910 C   0  0  0  0  0  0  0  0  0  0  0  0
   51.7240   18.7630  -29.6250 C   0  0  0  0  0  0  0  0  0  0  0  0
   57.5153   16.7587  -21.4098 H   0  0  0  0  0  0  0  0  0  0  0  0
   57.9244   18.0487  -22.5909 H   0  0  0  0  0  0  0  0  0  0  0  0
   56.7964   16.7303  -23.0557 H   0  0  0  0  0  0  0  0  0  0  0  0
   56.6079   17.8915  -24.3933 H   0  0  0  0  0  0  0  0  0  0  0  0
   56.5985   17.9468  -27.7462 H   0  0  0  0  0  0  0  0  0  0  0  0
   55.6789   17.2538  -26.3675 H   0  0  0  0  0  0  0  0  0  0  0  0
   57.2879   18.0022  -26.0884 H   0  0  0  0  0  0  0  0  0  0  0  0
   53.4371   21.5552  -23.2222 H   0  0  0  0  0  0  0  0  0  0  0  0
   54.3044   19.3910  -20.5519 H   0  0  0  0  0  0  0  0  0  0  0  0
   52.6781   20.6442  -18.9560 H   0  0  0  0  0  0  0  0  0  0  0  0
   52.9217   22.4237  -18.9270 H   0  0  0  0  0  0  0  0  0  0  0  0
   55.3303   22.0738  -18.3213 H   0  0  0  0  0  0  0  0  0  0  0  0
   55.0648   20.2972  -18.3227 H   0  0  0  0  0  0  0  0  0  0  0  0
   53.1996   20.5925  -28.0730 H   0  0  0  0  0  0  0  0  0  0  0  0
   51.0058   19.7285  -27.3992 H   0  0  0  0  0  0  0  0  0  0  0  0
   51.5671   19.7322  -25.6929 H   0  0  0  0  0  0  0  0  0  0  0  0
   51.6144   17.4602  -24.9169 H   0  0  0  0  0  0  0  0  0  0  0  0
   52.3012   15.1259  -25.1221 H   0  0  0  0  0  0  0  0  0  0  0  0
   53.4382   14.2586  -27.1814 H   0  0  0  0  0  0  0  0  0  0  0  0
   53.6751   15.8667  -29.0810 H   0  0  0  0  0  0  0  0  0  0  0  0
   53.1482   17.1656  -30.7005 H   0  0  0  0  0  0  0  0  0  0  0  0
   54.6182   17.2096  -29.6691 H   0  0  0  0  0  0  0  0  0  0  0  0
   54.8666   18.5832  -31.7900 H   0  0  0  0  0  0  0  0  0  0  0  0
   55.0427   19.5555  -30.2899 H   0  0  0  0  0  0  0  0  0  0  0  0
   53.6255   20.9343  -31.2466 H   0  0  0  0  0  0  0  0  0  0  0  0
   52.2347   19.0143  -33.0757 H   0  0  0  0  0  0  0  0  0  0  0  0
   53.9546   19.4476  -33.3604 H   0  0  0  0  0  0  0  0  0  0  0  0
   52.8937   22.1208  -35.9180 H   0  0  0  0  0  0  0  0  0  0  0  0
   51.8638   23.2450  -34.9681 H   0  0  0  0  0  0  0  0  0  0  0  0
   50.8078   23.1491  -37.0746 H   0  0  0  0  0  0  0  0  0  0  0  0
   49.8513   22.0297  -36.0456 H   0  0  0  0  0  0  0  0  0  0  0  0
   51.0866   19.8905  -31.3109 H   0  0  0  0  0  0  0  0  0  0  0  0
   51.8751   20.8480  -30.0116 H   0  0  0  0  0  0  0  0  0  0  0  0
   51.0164   19.0525  -28.8341 H   0  0  0  0  0  0  0  0  0  0  0  0
   51.3353   17.8848  -30.1614 H   0  0  0  0  0  0  0  0  0  0  0  0
  1  2  1  0  0  0  0
  1 45  1  0  0  0  0
  1 46  1  0  0  0  0
  1 47  1  0  0  0  0
  2  3  1  0  0  0  0
  3  4  2  0  0  0  0
  3 10  1  0  0  0  0
  4  5  1  0  0  0  0
  4 48  1  0  0  0  0
  5  6  1  0  0  0  0
  5  8  2  0  0  0  0
  6  7  1  0  0  0  0
  7 49  1  0  0  0  0
  7 50  1  0  0  0  0
  7 51  1  0  0  0  0
  8  9  1  0  0  0  0
  8 19  1  0  0  0  0
  9 10  2  0  0  0  0
  9 52  1  0  0  0  0
 10 11  1  0  0  0  0
 11 12  1  0  0  0  0
 11 53  1  0  0  0  0
 12 13  2  0  0  0  0
 12 14  1  0  0  0  0
 14 15  1  0  0  0  0
 14 54  1  0  0  0  0
 14 55  1  0  0  0  0
 15 16  1  0  0  0  0
 15 56  1  0  0  0  0
 15 57  1  0  0  0  0
 16 17  1  0  0  0  0
 16 18  2  0  0  0  0
 19 20  2  0  0  0  0
 19 21  2  0  0  0  0
 19 22  1  0  0  0  0
 22 23  1  0  0  0  0
 22 58  1  0  0  0  0
 23 24  1  0  0  0  0
 23 59  1  0  0  0  0
 23 60  1  0  0  0  0
 24 25  2  0  0  0  0
 24 29  1  0  0  0  0
 25 26  1  0  0  0  0
 25 61  1  0  0  0  0
 26 27  2  0  0  0  0
 26 62  1  0  0  0  0
 27 28  1  0  0  0  0
 27 63  1  0  0  0  0
 28 29  2  0  0  0  0
 28 64  1  0  0  0  0
 29 30  1  0  0  0  0
 30 31  1  0  0  0  0
 30 44  1  0  0  0  0
 31 32  1  0  0  0  0
 31 65  1  0  0  0  0
 31 66  1  0  0  0  0
 32 33  1  0  0  0  0
 32 67  1  0  0  0  0
 32 68  1  0  0  0  0
 33 34  1  0  0  0  0
 33 43  1  0  0  0  0
 33 69  1  0  0  0  0
 34 35  1  0  0  0  0
 34 70  1  0  0  0  0
 34 71  1  0  0  0  0
 35 36  1  0  0  0  0
 36 37  2  0  0  0  0
 36 38  1  0  0  0  0
 38 39  1  0  0  0  0
 38 72  1  0  0  0  0
 38 73  1  0  0  0  0
 39 40  1  0  0  0  0
 39 74  1  0  0  0  0
 39 75  1  0  0  0  0
 40 41  1  0  0  0  0
 40 42  2  0  0  0  0
 43 44  1  0  0  0  0
 43 76  1  0  0  0  0
 43 77  1  0  0  0  0
 44 78  1  0  0  0  0
 44 79  1  0  0  0  0
M  CHG  2  17  -1  41  -1
M  END
