4ab8_ligand
 OpenBabel08222323353D

 27 28  0  0  0  0  0  0  0  0999 V2000
  -21.6540    1.8780   14.0220 C   0  0  0  0  0  0  0  0  0  0  0  0
  -20.9480    1.4880   15.1370 C   0  0  0  0  0  0  0  0  0  0  0  0
  -22.5570    2.8990   14.1430 C   0  0  0  0  0  0  0  0  0  0  0  0
  -21.1600    2.1080   16.3400 C   0  0  0  0  0  0  0  0  0  0  0  0
  -22.7530    3.5430   15.3460 C   0  0  0  0  0  0  0  0  0  0  0  0
  -22.0560    3.1340   16.4580 C   0  0  0  0  0  0  0  0  0  0  0  0
  -23.3750    5.6390   17.4910 C   0  0  0  0  0  0  0  0  0  0  0  0
  -22.9970    5.6560   16.0290 C   0  0  0  0  0  0  0  0  0  0  0  0
  -23.4710    4.1890   17.9130 C   0  0  0  0  0  0  0  0  0  0  0  0
  -20.4300    1.7050   17.5590 C   0  0  0  0  0  0  0  0  0  0  0  0
  -19.1290    1.1590   17.2010 N   0  3  0  0  0  0  0  0  0  0  0  0
  -23.6730    4.5690   15.3870 O   0  0  0  0  0  0  0  0  0  0  0  0
  -22.1690    3.6650   17.7410 O   0  0  0  0  0  0  0  0  0  0  0  0
  -21.4981    1.3869   13.0683 H   0  0  0  0  0  0  0  0  0  0  0  0
  -20.2213    0.6871   15.0631 H   0  0  0  0  0  0  0  0  0  0  0  0
  -23.1295    3.2075   13.2758 H   0  0  0  0  0  0  0  0  0  0  0  0
  -24.3446    6.1381   17.6352 H   0  0  0  0  0  0  0  0  0  0  0  0
  -22.6056    6.1539   18.0850 H   0  0  0  0  0  0  0  0  0  0  0  0
  -21.9089    5.5344   15.9228 H   0  0  0  0  0  0  0  0  0  0  0  0
  -23.3056    6.6088   15.5742 H   0  0  0  0  0  0  0  0  0  0  0  0
  -24.1904    3.6498   17.2793 H   0  0  0  0  0  0  0  0  0  0  0  0
  -23.7810    4.1135   18.9657 H   0  0  0  0  0  0  0  0  0  0  0  0
  -21.0109    0.9406   18.0958 H   0  0  0  0  0  0  0  0  0  0  0  0
  -20.2910    2.5825   18.2076 H   0  0  0  0  0  0  0  0  0  0  0  0
  -18.6372    0.8865   18.0376 H   0  0  0  0  0  0  0  0  0  0  0  0
  -18.5946    1.8585   16.7100 H   0  0  0  0  0  0  0  0  0  0  0  0
  -19.2542    0.3539   16.6076 H   0  0  0  0  0  0  0  0  0  0  0  0
  1  2  2  0  0  0  0
  1 14  1  0  0  0  0
  2 15  1  0  0  0  0
  3  1  1  0  0  0  0
  3 16  1  0  0  0  0
  4  2  1  0  0  0  0
  4 10  1  0  0  0  0
  5  3  2  0  0  0  0
  5  6  1  0  0  0  0
  6  4  2  0  0  0  0
  6 13  1  0  0  0  0
  7  9  1  0  0  0  0
  7 17  1  0  0  0  0
  7 18  1  0  0  0  0
  8  7  1  0  0  0  0
  8 12  1  0  0  0  0
  8 19  1  0  0  0  0
  8 20  1  0  0  0  0
  9 13  1  0  0  0  0
  9 21  1  0  0  0  0
  9 22  1  0  0  0  0
 10 11  1  0  0  0  0
 10 23  1  0  0  0  0
 10 24  1  0  0  0  0
 11 25  1  0  0  0  0
 11 26  1  0  0  0  0
 11 27  1  0  0  0  0
 12  5  1  0  0  0  0
M  CHG  1  11   1
M  END
