4abi_ligand
 OpenBabel08222323353D

185188  0  0  1  0  0  0  0  0999 V2000
  -26.2040  -11.0820  -10.9260 N   0  3  0  0  0  0  0  0  0  0  0  0
  -24.9670  -11.9150  -11.0180 C   0  0  0  0  0  0  0  0  0  0  0  0
  -23.6990  -11.1210  -10.7510 C   0  0  0  0  0  0  0  0  0  0  0  0
  -23.7000   -9.8840  -10.8320 O   0  0  0  0  0  0  0  0  0  0  0  0
  -22.6250  -11.8380  -10.4240 N   0  0  0  0  0  0  0  0  0  0  0  0
  -21.3360  -11.2240  -10.1350 C   0  0  2  0  0  0  0  0  0  0  0  0
  -20.6990  -10.7180  -11.4180 C   0  0  0  0  0  0  0  0  0  0  0  0
  -20.6520  -11.4290  -12.4230 O   0  0  0  0  0  0  0  0  0  0  0  0
  -20.3860  -12.2190   -9.4710 C   0  0  0  0  0  0  0  0  0  0  0  0
  -19.5460  -13.0170  -10.4570 C   0  0  0  0  0  0  0  0  0  0  0  0
  -18.2250  -13.4590   -9.8450 C   0  0  0  0  0  0  0  0  0  0  0  0
  -17.6570  -14.6060  -10.5520 N   0  0  0  0  0  0  0  0  0  0  0  0
  -17.8780  -15.8710  -10.2100 C   0  0  0  0  0  3  0  0  0  0  0  0
  -18.6510  -16.1510   -9.1680 N   0  0  0  0  0  0  0  0  0  0  0  0
  -17.3270  -16.8570  -10.9060 N   0  0  0  0  0  0  0  0  0  0  0  0
  -20.2130   -9.4830  -11.3740 N   0  0  0  0  0  0  0  0  0  0  0  0
  -19.5620   -8.8760  -12.5210 C   0  0  2  0  0  0  0  0  0  0  0  0
  -18.3620   -8.0690  -12.0670 C   0  0  0  0  0  0  0  0  0  0  0  0
  -18.3710   -7.5020  -10.9680 O   0  0  0  0  0  0  0  0  0  0  0  0
  -20.5340   -7.9360  -13.2300 C   0  0  0  0  0  0  0  0  0  0  0  0
  -22.0730   -8.7180  -13.7800 S   0  0  0  0  0  0  0  0  0  0  0  0
  -17.3480   -8.0040  -12.9260 N   0  0  0  0  0  0  0  0  0  0  0  0
  -16.2210   -7.0880  -12.7140 C   0  0  2  0  0  0  0  0  0  0  0  0
  -16.7370   -5.6730  -12.9010 C   0  0  0  0  0  0  0  0  0  0  0  0
  -17.8040   -5.4610  -13.5020 O   0  0  0  0  0  0  0  0  0  0  0  0
  -15.0910   -7.3210  -13.7330 C   0  0  2  0  0  0  0  0  0  0  0  0
  -15.5640   -7.0130  -15.0510 O   0  0  0  0  0  0  0  0  0  0  0  0
  -14.5940   -8.7560  -13.6800 C   0  0  0  0  0  0  0  0  0  0  0  0
  -15.9840   -4.6910  -12.4170 N   0  0  0  0  0  0  0  0  0  0  0  0
  -16.4420   -3.3020  -12.4640 C   0  0  2  0  0  0  0  0  0  0  0  0
  -15.6710   -2.4880  -13.5020 C   0  0  0  0  0  0  0  0  0  0  0  0
  -15.3310   -1.3230  -13.2720 O   0  0  0  0  0  0  0  0  0  0  0  0
  -16.3790   -2.6610  -11.0650 C   0  0  0  0  0  0  0  0  0  0  0  0
  -17.5320   -3.1090  -10.1970 C   0  0  0  0  0  0  0  0  0  0  0  0
  -17.3510   -2.7860   -8.7260 C   0  0  0  0  0  0  0  0  0  0  0  0
  -18.4910   -3.4110   -7.9290 C   0  0  0  0  0  0  0  0  0  0  0  0
  -18.4390   -2.9820   -6.5030 N   0  3  0  0  0  0  0  0  0  0  0  0
  -15.4030   -3.1190  -14.6410 N   0  0  0  0  0  0  0  0  0  0  0  0
  -14.7000   -2.4620  -15.7390 C   0  0  2  0  0  0  0  0  0  0  0  0
  -15.7090   -1.9220  -16.7480 C   0  0  0  0  0  0  0  0  0  0  0  0
  -16.9100   -2.2170  -16.6560 O   0  0  0  0  0  0  0  0  0  0  0  0
  -13.7610   -3.4620  -16.4130 C   0  0  0  0  0  0  0  0  0  0  0  0
  -14.4730   -4.6320  -16.8070 O   0  0  0  0  0  0  0  0  0  0  0  0
  -15.2230   -1.1060  -17.6860 N   0  0  0  0  0  0  0  0  0  0  0  0
  -16.0100   -0.7020  -18.8530 C   0  0  2  0  0  0  0  0  0  0  0  0
  -15.4730   -1.4820  -20.0540 C   0  0  0  0  0  0  0  0  0  0  0  0
  -14.2680   -1.5120  -20.2620 O   0  0  0  0  0  0  0  0  0  0  0  0
  -15.9260    0.8200  -19.0900 C   0  0  2  0  0  0  0  0  0  0  0  0
  -16.7690    1.5600  -18.0470 C   0  0  0  0  0  0  0  0  0  0  0  0
  -16.3790    1.1880  -20.5010 C   0  0  0  0  0  0  0  0  0  0  0  0
  -16.3470    2.9930  -17.8240 C   0  0  0  0  0  0  0  0  0  0  0  0
  -18.9070   -7.2010  -18.7280 O   0  0  0  0  0  0  0  0  0  0  0  0
  -18.2570   -6.9280  -17.7230 C   0  0  0  0  0  0  0  0  0  0  0  0
  -18.3970   -5.5840  -17.0500 C   0  0  2  0  0  0  0  0  0  0  0  0
  -19.6170   -5.6140  -16.1270 C   0  0  0  0  0  0  0  0  0  0  0  0
  -18.5330   -4.5050  -18.0500 N   0  0  0  0  0  0  0  0  0  0  0  0
  -17.6600   -3.9830  -18.9670 C   0  0  0  0  0  0  0  0  0  0  0  0
  -19.7190   -3.7720  -18.1970 N   0  0  0  0  0  0  0  0  0  0  0  0
  -19.5800   -2.8880  -19.1270 N   0  0  0  0  0  0  0  0  0  0  0  0
  -18.3300   -2.9700  -19.6360 C   0  0  0  0  0  0  0  0  0  0  0  0
  -17.7930   -2.0740  -20.7360 C   0  0  2  0  0  0  0  0  0  0  0  0
  -18.3220   -2.5310  -22.0900 C   0  0  0  0  0  0  0  0  0  0  0  0
  -17.2370   -3.4360  -22.6450 C   0  0  0  0  0  0  0  0  0  0  0  0
  -15.9320   -3.0430  -21.9540 C   0  0  0  0  0  0  0  0  0  0  0  0
  -16.3310   -2.1570  -20.8600 N   0  0  0  0  0  0  0  0  0  0  0  0
  -17.4010   -7.7660  -17.1500 N   0  0  0  0  0  0  0  0  0  0  0  0
  -17.4090   -9.1920  -17.3910 C   0  0  2  0  0  0  0  0  0  0  0  0
  -18.2000   -9.8870  -16.2800 C   0  0  0  0  0  0  0  0  0  0  0  0
  -17.8420   -9.7950  -15.1010 O   0  0  0  0  0  0  0  0  0  0  0  0
  -15.9700   -9.7410  -17.4540 C   0  0  2  0  0  0  0  0  0  0  0  0
  -15.1240   -8.9110  -18.4370 C   0  0  0  0  0  0  0  0  0  0  0  0
  -15.9730  -11.2170  -17.8300 C   0  0  0  0  0  0  0  0  0  0  0  0
  -13.7880   -8.4590  -17.8770 C   0  0  0  0  0  0  0  0  0  0  0  0
  -19.2640  -10.5900  -16.6700 N   0  0  0  0  0  0  0  0  0  0  0  0
  -20.2060  -11.1910  -15.7160 C   0  0  2  0  0  0  0  0  0  0  0  0
  -20.1920  -12.7200  -15.7000 C   0  0  0  0  0  0  0  0  0  0  0  0
  -19.8980  -13.3570  -16.7150 O   0  0  0  0  0  0  0  0  0  0  0  0
  -21.6210  -10.6880  -15.9990 C   0  0  0  0  0  0  0  0  0  0  0  0
  -21.8330   -8.9080  -15.7850 S   0  0  0  0  0  0  0  0  0  0  0  0
  -20.5190  -13.2980  -14.5410 N   0  0  0  0  0  0  0  0  0  0  0  0
  -20.5590  -14.7570  -14.3610 C   0  0  2  0  0  0  0  0  0  0  0  0
  -21.8480  -15.2540  -13.7090 C   0  0  0  0  0  0  0  0  0  0  0  0
  -22.6960  -14.4620  -13.2950 O   0  5  0  0  0  0  0  0  0  0  0  0
  -19.3470  -15.2340  -13.5560 C   0  0  0  0  0  0  0  0  0  0  0  0
  -18.0340  -14.9820  -14.2410 C   0  0  0  0  0  0  0  0  0  0  0  0
  -17.5820  -15.8390  -15.2450 C   0  0  0  0  0  0  0  0  0  0  0  0
  -17.2510  -13.8850  -13.8900 C   0  0  0  0  0  0  0  0  0  0  0  0
  -16.3720  -15.6060  -15.8840 C   0  0  0  0  0  0  0  0  0  0  0  0
  -16.0420  -13.6470  -14.5250 C   0  0  0  0  0  0  0  0  0  0  0  0
  -15.6050  -14.5070  -15.5250 C   0  0  0  0  0  0  0  0  0  0  0  0
  -22.0710  -16.4590  -13.5810 O   0  0  0  0  0  0  0  0  0  0  0  0
  -27.0109  -11.6571  -11.1112 H   0  0  0  0  0  0  0  0  0  0  0  0
  -26.1591  -10.3377  -11.6043 H   0  0  0  0  0  0  0  0  0  0  0  0
  -26.2766  -10.6893  -10.0005 H   0  0  0  0  0  0  0  0  0  0  0  0
  -24.9066  -12.3434  -12.0293 H   0  0  0  0  0  0  0  0  0  0  0  0
  -25.0348  -12.7271  -10.2792 H   0  0  0  0  0  0  0  0  0  0  0  0
  -22.7065  -12.8335  -10.3752 H   0  0  0  0  0  0  0  0  0  0  0  0
  -21.4958  -10.3755   -9.4535 H   0  0  0  0  0  0  0  0  0  0  0  0
  -20.9835  -12.9239   -8.8744 H   0  0  0  0  0  0  0  0  0  0  0  0
  -19.7073  -11.6616   -8.8087 H   0  0  0  0  0  0  0  0  0  0  0  0
  -19.3388  -12.3905  -11.3371 H   0  0  0  0  0  0  0  0  0  0  0  0
  -20.1111  -13.9086  -10.7664 H   0  0  0  0  0  0  0  0  0  0  0  0
  -18.3943  -13.7365   -8.7941 H   0  0  0  0  0  0  0  0  0  0  0  0
  -17.5124  -12.6224   -9.8931 H   0  0  0  0  0  0  0  0  0  0  0  0
  -17.0495  -14.4226  -11.3633 H   0  0  0  0  0  0  0  0  0  0  0  0
  -18.8225  -17.1313   -8.9027 H   0  0  0  0  0  0  0  0  0  0  0  0
  -19.0794  -15.3879   -8.6247 H   0  0  0  0  0  0  0  0  0  0  0  0
  -16.7266  -16.6433  -11.7152 H   0  0  0  0  0  0  0  0  0  0  0  0
  -17.4996  -17.8362  -10.6372 H   0  0  0  0  0  0  0  0  0  0  0  0
  -20.2977   -8.9568  -10.5279 H   0  0  0  0  0  0  0  0  0  0  0  0
  -19.2363   -9.6646  -13.2153 H   0  0  0  0  0  0  0  0  0  0  0  0
  -20.0264   -7.5193  -14.1124 H   0  0  0  0  0  0  0  0  0  0  0  0
  -20.7915   -7.1219  -12.5366 H   0  0  0  0  0  0  0  0  0  0  0  0
  -17.3539   -8.5926  -13.7344 H   0  0  0  0  0  0  0  0  0  0  0  0
  -15.8277   -7.2193  -11.6952 H   0  0  0  0  0  0  0  0  0  0  0  0
  -14.2533   -6.6509  -13.4896 H   0  0  0  0  0  0  0  0  0  0  0  0
  -14.8656   -7.1573  -15.6786 H   0  0  0  0  0  0  0  0  0  0  0  0
  -13.7889   -8.8926  -14.4170 H   0  0  0  0  0  0  0  0  0  0  0  0
  -15.4235   -9.4402  -13.9120 H   0  0  0  0  0  0  0  0  0  0  0  0
  -14.2097   -8.9740  -12.6726 H   0  0  0  0  0  0  0  0  0  0  0  0
  -15.0932   -4.9038  -12.0156 H   0  0  0  0  0  0  0  0  0  0  0  0
  -17.4970   -3.3117  -12.7751 H   0  0  0  0  0  0  0  0  0  0  0  0
  -16.4161   -1.5668  -11.1714 H   0  0  0  0  0  0  0  0  0  0  0  0
  -15.4344   -2.9506  -10.5815 H   0  0  0  0  0  0  0  0  0  0  0  0
  -17.6426   -4.1984  -10.3020 H   0  0  0  0  0  0  0  0  0  0  0  0
  -18.4469   -2.6117  -10.5514 H   0  0  0  0  0  0  0  0  0  0  0  0
  -17.3594   -1.6950   -8.5855 H   0  0  0  0  0  0  0  0  0  0  0  0
  -16.3912   -3.1934   -8.3757 H   0  0  0  0  0  0  0  0  0  0  0  0
  -18.4073   -4.5067   -7.9789 H   0  0  0  0  0  0  0  0  0  0  0  0
  -19.4505   -3.0963   -8.3652 H   0  0  0  0  0  0  0  0  0  0  0  0
  -19.2002   -3.4064   -5.9965 H   0  0  0  0  0  0  0  0  0  0  0  0
  -18.5188   -1.9785   -6.4509 H   0  0  0  0  0  0  0  0  0  0  0  0
  -17.5628   -3.2709   -6.0969 H   0  0  0  0  0  0  0  0  0  0  0  0
  -15.6911   -4.0705  -14.7487 H   0  0  0  0  0  0  0  0  0  0  0  0
  -14.1082   -1.6249  -15.3402 H   0  0  0  0  0  0  0  0  0  0  0  0
  -12.9657   -3.7435  -15.7071 H   0  0  0  0  0  0  0  0  0  0  0  0
  -13.3134   -2.9946  -17.3025 H   0  0  0  0  0  0  0  0  0  0  0  0
  -15.1591   -4.3928  -17.4189 H   0  0  0  0  0  0  0  0  0  0  0  0
  -14.2902   -0.7590  -17.5885 H   0  0  0  0  0  0  0  0  0  0  0  0
  -17.0641   -0.9701  -18.6889 H   0  0  0  0  0  0  0  0  0  0  0  0
  -14.8770    1.1302  -18.9740 H   0  0  0  0  0  0  0  0  0  0  0  0
  -16.6875    1.0222  -17.0909 H   0  0  0  0  0  0  0  0  0  0  0  0
  -17.8167    1.5557  -18.3820 H   0  0  0  0  0  0  0  0  0  0  0  0
  -15.7638    0.6483  -21.2360 H   0  0  0  0  0  0  0  0  0  0  0  0
  -16.2645    2.2715  -20.6520 H   0  0  0  0  0  0  0  0  0  0  0  0
  -17.4350    0.9092  -20.6315 H   0  0  0  0  0  0  0  0  0  0  0  0
  -16.9973    3.4529  -17.0653 H   0  0  0  0  0  0  0  0  0  0  0  0
  -16.4328    3.5516  -18.7677 H   0  0  0  0  0  0  0  0  0  0  0  0
  -15.3036    3.0182  -17.4765 H   0  0  0  0  0  0  0  0  0  0  0  0
  -17.4971   -5.3922  -16.4473 H   0  0  0  0  0  0  0  0  0  0  0  0
  -19.4993   -6.4219  -15.3899 H   0  0  0  0  0  0  0  0  0  0  0  0
  -20.5239   -5.7914  -16.7236 H   0  0  0  0  0  0  0  0  0  0  0  0
  -19.7048   -4.6504  -15.6039 H   0  0  0  0  0  0  0  0  0  0  0  0
  -16.6333   -4.3031  -19.1384 H   0  0  0  0  0  0  0  0  0  0  0  0
  -18.0965   -1.0363  -20.5333 H   0  0  0  0  0  0  0  0  0  0  0  0
  -18.4844   -1.6689  -22.7536 H   0  0  0  0  0  0  0  0  0  0  0  0
  -19.2649   -3.0848  -21.9708 H   0  0  0  0  0  0  0  0  0  0  0  0
  -17.1464   -3.2947  -23.7321 H   0  0  0  0  0  0  0  0  0  0  0  0
  -17.4761   -4.4881  -22.4307 H   0  0  0  0  0  0  0  0  0  0  0  0
  -15.2676   -2.5161  -22.6547 H   0  0  0  0  0  0  0  0  0  0  0  0
  -15.4193   -3.9337  -21.5619 H   0  0  0  0  0  0  0  0  0  0  0  0
  -16.7181   -7.3932  -16.5217 H   0  0  0  0  0  0  0  0  0  0  0  0
  -17.9018   -9.3872  -18.3549 H   0  0  0  0  0  0  0  0  0  0  0  0
  -15.5217   -9.6462  -16.4540 H   0  0  0  0  0  0  0  0  0  0  0  0
  -15.7001   -8.0175  -18.7194 H   0  0  0  0  0  0  0  0  0  0  0  0
  -14.9344   -9.5228  -19.3313 H   0  0  0  0  0  0  0  0  0  0  0  0
  -16.5852  -11.7779  -17.1085 H   0  0  0  0  0  0  0  0  0  0  0  0
  -14.9426  -11.6017  -17.8137 H   0  0  0  0  0  0  0  0  0  0  0  0
  -16.3935  -11.3374  -18.8393 H   0  0  0  0  0  0  0  0  0  0  0  0
  -13.2497   -7.8756  -18.6385 H   0  0  0  0  0  0  0  0  0  0  0  0
  -13.1900   -9.3395  -17.5993 H   0  0  0  0  0  0  0  0  0  0  0  0
  -13.9558   -7.8342  -16.9874 H   0  0  0  0  0  0  0  0  0  0  0  0
  -19.4269  -10.7128  -17.6490 H   0  0  0  0  0  0  0  0  0  0  0  0
  -19.9156  -10.8508  -14.7111 H   0  0  0  0  0  0  0  0  0  0  0  0
  -22.3126  -11.2020  -15.3153 H   0  0  0  0  0  0  0  0  0  0  0  0
  -21.8759  -10.9428  -17.0383 H   0  0  0  0  0  0  0  0  0  0  0  0
  -20.7464  -12.7134  -13.7622 H   0  0  0  0  0  0  0  0  0  0  0  0
  -20.5010  -15.2108  -15.3613 H   0  0  0  0  0  0  0  0  0  0  0  0
  -19.4475  -16.3158  -13.3839 H   0  0  0  0  0  0  0  0  0  0  0  0
  -19.3420  -14.7079  -12.5900 H   0  0  0  0  0  0  0  0  0  0  0  0
  -18.1822  -16.6959  -15.5290 H   0  0  0  0  0  0  0  0  0  0  0  0
  -17.5905  -13.2104  -13.1123 H   0  0  0  0  0  0  0  0  0  0  0  0
  -16.0278  -16.2798  -16.6602 H   0  0  0  0  0  0  0  0  0  0  0  0
  -15.4389  -12.7919  -14.2420 H   0  0  0  0  0  0  0  0  0  0  0  0
  -14.6623  -14.3188  -16.0260 H   0  0  0  0  0  0  0  0  0  0  0  0
  1 92  1  0  0  0  0
  1 93  1  0  0  0  0
  1 94  1  0  0  0  0
  2  1  1  0  0  0  0
  2 95  1  0  0  0  0
  2 96  1  0  0  0  0
  3  2  1  0  0  0  0
  3  4  2  0  0  0  0
  5  3  1  0  0  0  0
  5 97  1  0  0  0  0
  6  5  1  0  0  0  0
  6  9  1  0  0  0  0
  6 98  1  1  0  0  0
  7  6  1  0  0  0  0
  7  8  2  0  0  0  0
  9 10  1  0  0  0  0
  9 99  1  0  0  0  0
  9100  1  0  0  0  0
 10 11  1  0  0  0  0
 10101  1  0  0  0  0
 10102  1  0  0  0  0
 11 12  1  0  0  0  0
 11103  1  0  0  0  0
 11104  1  0  0  0  0
 12 13  1  0  0  0  0
 12105  1  0  0  0  0
 13 14  1  0  0  0  0
 13 15  1  0  0  0  0
 14106  1  0  0  0  0
 14107  1  0  0  0  0
 15108  1  0  0  0  0
 15109  1  0  0  0  0
 16  7  1  0  0  0  0
 16110  1  0  0  0  0
 17 16  1  0  0  0  0
 17 20  1  0  0  0  0
 17111  1  6  0  0  0
 18 17  1  0  0  0  0
 18 19  2  0  0  0  0
 20 21  1  0  0  0  0
 20112  1  0  0  0  0
 20113  1  0  0  0  0
 21 79  1  0  0  0  0
 22 18  1  0  0  0  0
 22114  1  0  0  0  0
 23 22  1  0  0  0  0
 23 26  1  0  0  0  0
 23115  1  1  0  0  0
 24 23  1  0  0  0  0
 24 25  2  0  0  0  0
 26 27  1  0  0  0  0
 26 28  1  0  0  0  0
 26116  1  1  0  0  0
 27117  1  0  0  0  0
 28118  1  0  0  0  0
 28119  1  0  0  0  0
 28120  1  0  0  0  0
 29 24  1  0  0  0  0
 29121  1  0  0  0  0
 30 29  1  0  0  0  0
 30 33  1  0  0  0  0
 30122  1  6  0  0  0
 31 30  1  0  0  0  0
 31 32  2  0  0  0  0
 33 34  1  0  0  0  0
 33123  1  0  0  0  0
 33124  1  0  0  0  0
 34 35  1  0  0  0  0
 34125  1  0  0  0  0
 34126  1  0  0  0  0
 35 36  1  0  0  0  0
 35127  1  0  0  0  0
 35128  1  0  0  0  0
 36 37  1  0  0  0  0
 36129  1  0  0  0  0
 36130  1  0  0  0  0
 37131  1  0  0  0  0
 37132  1  0  0  0  0
 37133  1  0  0  0  0
 38 31  1  0  0  0  0
 38134  1  0  0  0  0
 39 38  1  0  0  0  0
 39 42  1  0  0  0  0
 39135  1  1  0  0  0
 40 39  1  0  0  0  0
 40 41  2  0  0  0  0
 42 43  1  0  0  0  0
 42136  1  0  0  0  0
 42137  1  0  0  0  0
 43138  1  0  0  0  0
 44 40  1  0  0  0  0
 44139  1  0  0  0  0
 45 44  1  0  0  0  0
 45 48  1  0  0  0  0
 45140  1  1  0  0  0
 46 45  1  0  0  0  0
 46 47  2  0  0  0  0
 48 49  1  0  0  0  0
 48 50  1  0  0  0  0
 48141  1  1  0  0  0
 49 51  1  0  0  0  0
 49142  1  0  0  0  0
 49143  1  0  0  0  0
 50144  1  0  0  0  0
 50145  1  0  0  0  0
 50146  1  0  0  0  0
 51147  1  0  0  0  0
 51148  1  0  0  0  0
 51149  1  0  0  0  0
 53 52  2  0  0  0  0
 53 66  1  0  0  0  0
 54 53  1  0  0  0  0
 54 55  1  0  0  0  0
 54150  1  1  0  0  0
 55151  1  0  0  0  0
 55152  1  0  0  0  0
 55153  1  0  0  0  0
 56 54  1  0  0  0  0
 57 56  1  0  0  0  0
 57154  1  0  0  0  0
 58 56  1  0  0  0  0
 59 58  2  0  0  0  0
 60 57  2  0  0  0  0
 60 59  1  0  0  0  0
 61 60  1  0  0  0  0
 61 62  1  0  0  0  0
 61 65  1  0  0  0  0
 61155  1  1  0  0  0
 62 63  1  0  0  0  0
 62156  1  0  0  0  0
 62157  1  0  0  0  0
 63 64  1  0  0  0  0
 63158  1  0  0  0  0
 63159  1  0  0  0  0
 64 65  1  0  0  0  0
 64160  1  0  0  0  0
 64161  1  0  0  0  0
 65 46  1  0  0  0  0
 66 67  1  0  0  0  0
 66162  1  0  0  0  0
 67 68  1  0  0  0  0
 67 70  1  0  0  0  0
 67163  1  6  0  0  0
 68 69  2  0  0  0  0
 68 74  1  0  0  0  0
 70 71  1  0  0  0  0
 70 72  1  0  0  0  0
 70164  1  1  0  0  0
 71 73  1  0  0  0  0
 71165  1  0  0  0  0
 71166  1  0  0  0  0
 72167  1  0  0  0  0
 72168  1  0  0  0  0
 72169  1  0  0  0  0
 73170  1  0  0  0  0
 73171  1  0  0  0  0
 73172  1  0  0  0  0
 74 75  1  0  0  0  0
 74173  1  0  0  0  0
 75 76  1  0  0  0  0
 75 78  1  0  0  0  0
 75174  1  1  0  0  0
 76 77  2  0  0  0  0
 76 80  1  0  0  0  0
 78 79  1  0  0  0  0
 78175  1  0  0  0  0
 78176  1  0  0  0  0
 80 81  1  0  0  0  0
 80177  1  0  0  0  0
 81 82  1  0  0  0  0
 81 84  1  0  0  0  0
 81178  1  6  0  0  0
 82 83  1  0  0  0  0
 82 91  2  0  0  0  0
 84 85  1  0  0  0  0
 84179  1  0  0  0  0
 84180  1  0  0  0  0
 85 86  2  0  0  0  0
 85 87  1  0  0  0  0
 86 88  1  0  0  0  0
 86181  1  0  0  0  0
 87 89  2  0  0  0  0
 87182  1  0  0  0  0
 88 90  2  0  0  0  0
 88183  1  0  0  0  0
 89 90  1  0  0  0  0
 89184  1  0  0  0  0
 90185  1  0  0  0  0
M  CHG  3   1   1  37   1  83  -1
M  END
