4abu_ligand
 OpenBabel08222323353D

 26 27  0  0  0  0  0  0  0  0999 V2000
   -0.2970    0.3710   -7.1870 C   0  0  0  0  0  0  0  0  0  0  0  0
    0.4800    0.0110   -8.2820 C   0  0  0  0  0  0  0  0  0  0  0  0
   -0.1240   -0.2640   -9.5030 C   0  0  0  0  0  0  0  0  0  0  0  0
   -1.5060   -0.1790   -9.6290 C   0  0  0  0  0  0  0  0  0  0  0  0
   -2.2830    0.1810   -8.5340 C   0  0  0  0  0  0  0  0  0  0  0  0
   -1.6780    0.4560   -7.3130 C   0  0  0  0  0  0  0  0  0  0  0  0
    0.2950    0.6400   -5.9920 O   0  0  0  0  0  0  0  0  0  0  0  0
   -0.2540   -0.1430   -5.0260 C   0  0  0  0  0  0  0  0  0  0  0  0
    0.4660   -0.4310   -3.8720 C   0  0  0  0  0  0  0  0  0  0  0  0
   -0.0950   -1.2310   -2.8840 C   0  0  0  0  0  0  0  0  0  0  0  0
   -1.3760   -1.7440   -3.0490 C   0  0  0  0  0  0  0  0  0  0  0  0
   -2.0960   -1.4570   -4.2030 C   0  0  0  0  0  0  0  0  0  0  0  0
   -1.5350   -0.6560   -5.1910 C   0  0  0  0  0  0  0  0  0  0  0  0
   -2.1710   -0.4820  -10.9730 C   0  0  0  0  0  0  0  0  0  0  0  0
   -3.3960   -0.5260  -11.0780 O   0  0  0  0  0  0  0  0  0  0  0  0
   -2.0740   -2.7410   -1.8190 Cl  0  0  0  0  0  0  0  0  0  0  0  0
    2.0610    0.2080   -3.6660 Cl  0  0  0  0  0  0  0  0  0  0  0  0
    1.8320   -0.0720   -8.1580 O   0  0  0  0  0  0  0  0  0  0  0  0
    0.4821   -0.5447  -10.3568 H   0  0  0  0  0  0  0  0  0  0  0  0
   -3.3605    0.2473   -8.6322 H   0  0  0  0  0  0  0  0  0  0  0  0
   -2.2838    0.7368   -6.4591 H   0  0  0  0  0  0  0  0  0  0  0  0
    0.4667   -1.4550   -1.9843 H   0  0  0  0  0  0  0  0  0  0  0  0
   -3.0948   -1.8578   -4.3324 H   0  0  0  0  0  0  0  0  0  0  0  0
   -2.0969   -0.4315   -6.0904 H   0  0  0  0  0  0  0  0  0  0  0  0
   -1.5507   -0.6614  -11.8499 H   0  0  0  0  0  0  0  0  0  0  0  0
    2.0811    0.1451   -7.2673 H   0  0  0  0  0  0  0  0  0  0  0  0
  1  2  2  0  0  0  0
  1  6  1  0  0  0  0
  1  7  1  0  0  0  0
  2  3  1  0  0  0  0
  2 18  1  0  0  0  0
  3  4  2  0  0  0  0
  3 19  1  0  0  0  0
  4  5  1  0  0  0  0
  4 14  1  0  0  0  0
  5  6  2  0  0  0  0
  5 20  1  0  0  0  0
  6 21  1  0  0  0  0
  7  8  1  0  0  0  0
  8  9  2  0  0  0  0
  8 13  1  0  0  0  0
  9 10  1  0  0  0  0
  9 17  1  0  0  0  0
 10 11  2  0  0  0  0
 10 22  1  0  0  0  0
 11 12  1  0  0  0  0
 11 16  1  0  0  0  0
 12 13  2  0  0  0  0
 12 23  1  0  0  0  0
 13 24  1  0  0  0  0
 14 15  2  0  0  0  0
 14 25  1  0  0  0  0
 18 26  1  0  0  0  0
M  END
