4acf_ligand
 OpenBabel08222323353D

 46 48  0  0  1  0  0  0  0  0999 V2000
  -25.6740   88.6820    0.2860 O   0  5  0  0  0  0  0  0  0  0  0  0
  -26.2870   87.7260    0.7980 C   0  0  0  0  0  0  0  0  0  0  0  0
  -27.5160   87.5580    0.6600 O   0  0  0  0  0  0  0  0  0  0  0  0
  -25.4890   86.7500    1.6240 C   0  0  0  0  0  0  0  0  0  0  0  0
  -25.5200   87.1620    3.0040 O   0  0  0  0  0  0  0  0  0  0  0  0
  -26.1450   86.3890    3.9480 C   0  0  0  0  0  0  0  0  0  0  0  0
  -27.3070   85.6820    3.6450 C   0  0  0  0  0  0  0  0  0  0  0  0
  -27.9240   84.8970    4.6090 C   0  0  0  0  0  0  0  0  0  0  0  0
  -25.6080   86.3060    5.2290 C   0  0  0  0  0  0  0  0  0  0  0  0
  -26.2390   85.5200    6.1940 C   0  0  0  0  0  0  0  0  0  0  0  0
  -27.3880   84.7890    5.8840 C   0  0  0  0  0  0  0  0  0  0  0  0
  -28.0480   83.9730    6.9560 C   0  0  0  0  0  0  0  0  0  0  0  0
  -27.4350   83.5110    8.0510 N   0  0  0  0  0  0  0  0  0  0  0  0
  -28.3500   82.8640    8.7930 C   0  0  2  0  0  3  0  0  0  0  0  0
  -28.2450   82.2240    9.9640 C   0  0  0  0  0  0  0  0  0  0  0  0
  -29.3640   81.6210   10.5340 C   0  0  0  0  0  0  0  0  0  0  0  0
  -29.3390   83.6050    7.0210 C   0  0  0  0  0  0  0  0  0  0  0  0
  -29.5220   82.9280    8.1530 N   0  0  0  0  0  0  0  0  0  0  0  0
  -30.6360   82.3740    8.6560 C   0  0  0  0  0  0  0  0  0  0  0  0
  -30.5860   81.6940    9.8730 C   0  0  0  0  0  0  0  0  0  0  0  0
  -32.1620   80.9150   10.5830 Br  0  0  0  0  0  0  0  0  0  0  0  0
  -30.3180   83.8740    6.1270 N   0  0  0  0  0  0  0  0  0  0  0  0
  -31.0590   82.8350    5.4190 C   0  0  0  0  0  0  0  0  0  0  0  0
  -30.7070   82.7360    3.9260 C   0  0  0  0  0  0  0  0  0  0  0  0
  -31.5920   81.7260    3.1860 C   0  0  0  0  0  0  0  0  0  0  0  0
  -31.2170   81.5780    1.7220 C   0  0  0  0  0  0  0  0  0  0  0  0
  -24.4481   86.7320    1.2687 H   0  0  0  0  0  0  0  0  0  0  0  0
  -25.9260   85.7449    1.5301 H   0  0  0  0  0  0  0  0  0  0  0  0
  -27.7318   85.7456    2.6497 H   0  0  0  0  0  0  0  0  0  0  0  0
  -28.8345   84.3626    4.3630 H   0  0  0  0  0  0  0  0  0  0  0  0
  -24.7033   86.8496    5.4762 H   0  0  0  0  0  0  0  0  0  0  0  0
  -25.8319   85.4762    7.1977 H   0  0  0  0  0  0  0  0  0  0  0  0
  -26.4388   83.6298    8.2843 H   0  0  0  0  0  0  0  0  0  0  0  0
  -27.2874   82.1749   10.4697 H   0  0  0  0  0  0  0  0  0  0  0  0
  -29.2835   81.1009   11.4817 H   0  0  0  0  0  0  0  0  0  0  0  0
  -31.5733   82.4548    8.1174 H   0  0  0  0  0  0  0  0  0  0  0  0
  -30.5515   84.8590    5.9370 H   0  0  0  0  0  0  0  0  0  0  0  0
  -32.1337   83.0517    5.5091 H   0  0  0  0  0  0  0  0  0  0  0  0
  -30.8391   81.8670    5.8929 H   0  0  0  0  0  0  0  0  0  0  0  0
  -29.6568   82.4233    3.8300 H   0  0  0  0  0  0  0  0  0  0  0  0
  -30.8384   83.7260    3.4650 H   0  0  0  0  0  0  0  0  0  0  0  0
  -32.6375   82.0622    3.2489 H   0  0  0  0  0  0  0  0  0  0  0  0
  -31.4919   80.7460    3.6754 H   0  0  0  0  0  0  0  0  0  0  0  0
  -31.8831   80.8438    1.2453 H   0  0  0  0  0  0  0  0  0  0  0  0
  -30.1754   81.2333    1.6433 H   0  0  0  0  0  0  0  0  0  0  0  0
  -31.3209   82.5496    1.2168 H   0  0  0  0  0  0  0  0  0  0  0  0
  1  2  1  0  0  0  0
  2  3  2  0  0  0  0
  2  4  1  0  0  0  0
  4  5  1  0  0  0  0
  4 27  1  0  0  0  0
  4 28  1  0  0  0  0
  5  6  1  0  0  0  0
  6  7  2  0  0  0  0
  6  9  1  0  0  0  0
  7  8  1  0  0  0  0
  7 29  1  0  0  0  0
  8 11  2  0  0  0  0
  8 30  1  0  0  0  0
  9 10  2  0  0  0  0
  9 31  1  0  0  0  0
 10 11  1  0  0  0  0
 10 32  1  0  0  0  0
 11 12  1  0  0  0  0
 12 13  1  0  0  0  0
 12 17  2  0  0  0  0
 13 14  1  0  0  0  0
 13 33  1  0  0  0  0
 14 15  1  6  0  0  0
 14 18  1  0  0  0  0
 15 16  2  0  0  0  0
 15 34  1  0  0  0  0
 16 20  1  0  0  0  0
 16 35  1  0  0  0  0
 17 18  1  0  0  0  0
 17 22  1  0  0  0  0
 18 19  1  0  0  0  0
 19 20  2  0  0  0  0
 19 36  1  0  0  0  0
 20 21  1  0  0  0  0
 22 23  1  0  0  0  0
 22 37  1  0  0  0  0
 23 24  1  0  0  0  0
 23 38  1  0  0  0  0
 23 39  1  0  0  0  0
 24 25  1  0  0  0  0
 24 40  1  0  0  0  0
 24 41  1  0  0  0  0
 25 26  1  0  0  0  0
 25 42  1  0  0  0  0
 25 43  1  0  0  0  0
 26 44  1  0  0  0  0
 26 45  1  0  0  0  0
 26 46  1  0  0  0  0
M  CHG  1   1  -1
M  END
