4ael_ligand
 OpenBabel08222323353D

 45 48  0  0  0  0  0  0  0  0999 V2000
   22.7220   15.3450   40.6380 C   0  0  0  0  0  0  0  0  0  0  0  0
   21.9600   14.6330   32.4610 C   0  0  0  0  0  0  0  0  0  0  0  0
   21.2150   13.4900   32.2500 C   0  0  0  0  0  0  0  0  0  0  0  0
   21.9070   15.2760   33.6850 C   0  0  0  0  0  0  0  0  0  0  0  0
   20.0180   15.9820   36.6550 C   0  0  0  0  0  0  0  0  0  0  0  0
   22.3560   15.6490   36.6550 C   0  0  0  0  0  0  0  0  0  0  0  0
   20.0930   16.5930   37.8900 C   0  0  0  0  0  0  0  0  0  0  0  0
   22.4300   16.2610   37.8800 C   0  0  0  0  0  0  0  0  0  0  0  0
   20.4220   13.0050   33.2720 C   0  0  0  0  0  0  0  0  0  0  0  0
   20.3500   20.2640   41.6060 C   0  0  0  0  0  0  0  0  0  0  0  0
   20.4770   20.8010   42.8720 C   0  0  0  0  0  0  0  0  0  0  0  0
   21.7090   19.0520   43.6010 C   0  0  0  0  0  0  0  0  0  0  0  0
   22.1170   16.6280   40.8820 C   0  0  0  0  0  0  0  0  0  0  0  0
   21.6090   18.4360   42.3650 C   0  0  0  0  0  0  0  0  0  0  0  0
   21.1440   15.4870   36.0220 C   0  0  0  0  0  0  0  0  0  0  0  0
   21.3100   16.7350   38.5370 C   0  0  0  0  0  0  0  0  0  0  0  0
   21.1210   14.8010   34.7290 C   0  0  0  0  0  0  0  0  0  0  0  0
   20.9250   19.0410   41.3220 C   0  0  0  0  0  0  0  0  0  0  0  0
   20.3910   13.6420   34.5050 C   0  0  0  0  0  0  0  0  0  0  0  0
   22.1880   17.2100   42.1330 C   0  0  0  0  0  0  0  0  0  0  0  0
   21.4340   17.2990   39.8830 C   0  0  0  0  0  0  0  0  0  0  0  0
   20.1110   12.0570   37.5630 C   0  0  0  0  0  0  0  0  0  0  0  0
   20.1120   11.9400   36.0520 C   0  0  0  0  0  0  0  0  0  0  0  0
   23.2020   14.3090   40.4230 N   0  0  0  0  0  0  0  0  0  0  0  0
   21.1500   20.2340   43.8830 N   0  0  0  0  0  0  0  0  0  0  0  0
   20.8330   18.4780   40.1020 N   0  0  0  0  0  0  0  0  0  0  0  0
   22.8500   16.5950   43.1800 O   0  0  0  0  0  0  0  0  0  0  0  0
   19.5650   13.1340   35.5040 O   0  0  0  0  0  0  0  0  0  0  0  0
   22.5860   15.0264   31.6683 H   0  0  0  0  0  0  0  0  0  0  0  0
   21.2518   12.9795   31.2944 H   0  0  0  0  0  0  0  0  0  0  0  0
   22.4944   16.1748   33.8341 H   0  0  0  0  0  0  0  0  0  0  0  0
   19.0536   15.8877   36.1692 H   0  0  0  0  0  0  0  0  0  0  0  0
   23.2614   15.2889   36.1799 H   0  0  0  0  0  0  0  0  0  0  0  0
   19.1898   16.9660   38.3592 H   0  0  0  0  0  0  0  0  0  0  0  0
   23.4003   16.3770   38.3493 H   0  0  0  0  0  0  0  0  0  0  0  0
   19.8186   12.1192   33.1096 H   0  0  0  0  0  0  0  0  0  0  0  0
   19.8019   20.7996   40.8393 H   0  0  0  0  0  0  0  0  0  0  0  0
   19.9958   21.7535   43.0626 H   0  0  0  0  0  0  0  0  0  0  0  0
   22.2698   18.5500   44.3811 H   0  0  0  0  0  0  0  0  0  0  0  0
   20.5316   11.1403   38.0020 H   0  0  0  0  0  0  0  0  0  0  0  0
   19.0795   12.1944   37.9195 H   0  0  0  0  0  0  0  0  0  0  0  0
   20.7213   12.9212   37.8643 H   0  0  0  0  0  0  0  0  0  0  0  0
   19.5006   11.0781   35.7466 H   0  0  0  0  0  0  0  0  0  0  0  0
   21.1424   11.8049   35.6914 H   0  0  0  0  0  0  0  0  0  0  0  0
   22.2424   16.4498   43.8957 H   0  0  0  0  0  0  0  0  0  0  0  0
  1 24  3  0  0  0  0
  2 29  1  0  0  0  0
  3  2  2  0  0  0  0
  3 30  1  0  0  0  0
  4  2  1  0  0  0  0
  4 31  1  0  0  0  0
  5  7  2  0  0  0  0
  5 32  1  0  0  0  0
  6  8  1  0  0  0  0
  6 33  1  0  0  0  0
  7 16  1  0  0  0  0
  7 34  1  0  0  0  0
  8 16  2  0  0  0  0
  8 35  1  0  0  0  0
  9  3  1  0  0  0  0
  9 36  1  0  0  0  0
 10 11  2  0  0  0  0
 10 37  1  0  0  0  0
 11 25  1  0  0  0  0
 11 38  1  0  0  0  0
 12 25  2  0  0  0  0
 12 39  1  0  0  0  0
 13  1  1  0  0  0  0
 13 20  2  0  0  0  0
 14 12  1  0  0  0  0
 15  5  1  0  0  0  0
 15  6  2  0  0  0  0
 16 21  1  0  0  0  0
 17  4  2  0  0  0  0
 17 15  1  0  0  0  0
 18 10  1  0  0  0  0
 18 14  2  0  0  0  0
 19  9  2  0  0  0  0
 19 17  1  0  0  0  0
 20 14  1  0  0  0  0
 20 27  1  0  0  0  0
 21 13  1  0  0  0  0
 21 26  2  0  0  0  0
 22 40  1  0  0  0  0
 22 41  1  0  0  0  0
 22 42  1  0  0  0  0
 23 22  1  0  0  0  0
 23 28  1  0  0  0  0
 23 43  1  0  0  0  0
 23 44  1  0  0  0  0
 26 18  1  0  0  0  0
 27 45  1  0  0  0  0
 28 19  1  0  0  0  0
M  END
