4ahv_ligand
 OpenBabel08222323353D

 25 26  0  0  0  0  0  0  0  0999 V2000
  -14.5700   18.3040    3.0210 N   0  3  0  0  0  0  0  0  0  0  0  0
  -16.6770   20.8270    1.6790 C   0  0  0  0  0  0  0  0  0  0  0  0
  -16.4880   17.0620    1.5340 N   0  0  0  0  0  0  0  0  0  0  0  0
  -17.5700   21.0430    0.6750 C   0  0  0  0  0  0  0  0  0  0  0  0
  -18.0950   19.9550    0.0310 C   0  0  0  0  0  0  0  0  0  0  0  0
  -17.7150   18.6980    0.4050 C   0  0  0  0  0  0  0  0  0  0  0  0
  -16.7950   18.4630    1.3980 C   0  0  0  0  0  0  0  0  0  0  0  0
  -15.5870   16.3970    2.3160 C   0  0  0  0  0  0  0  0  0  0  0  0
  -15.2340   19.6070    3.1190 C   0  0  0  0  0  0  0  0  0  0  0  0
  -15.8310   15.0400    2.1980 C   0  0  0  0  0  0  0  0  0  0  0  0
  -16.9110   14.9370    1.2760 C   0  0  0  0  0  0  0  0  0  0  0  0
  -16.2730   19.5800    2.0520 C   0  0  0  0  0  0  0  0  0  0  0  0
  -17.2900   16.1640    0.8760 N   0  0  0  0  0  0  0  0  0  0  0  0
  -13.8449   18.2431    3.7186 H   0  0  0  0  0  0  0  0  0  0  0  0
  -14.1636   18.2020    2.1042 H   0  0  0  0  0  0  0  0  0  0  0  0
  -15.2447   17.5707    3.1729 H   0  0  0  0  0  0  0  0  0  0  0  0
  -16.2697   21.6832    2.2044 H   0  0  0  0  0  0  0  0  0  0  0  0
  -17.8578   22.0493    0.3929 H   0  0  0  0  0  0  0  0  0  0  0  0
  -18.8096   20.0909   -0.7727 H   0  0  0  0  0  0  0  0  0  0  0  0
  -18.1581   17.8492   -0.1032 H   0  0  0  0  0  0  0  0  0  0  0  0
  -14.8107   16.8555    2.9268 H   0  0  0  0  0  0  0  0  0  0  0  0
  -14.5172   20.4225    2.9425 H   0  0  0  0  0  0  0  0  0  0  0  0
  -15.6970   19.7335    4.1088 H   0  0  0  0  0  0  0  0  0  0  0  0
  -15.3098   14.2270    2.7013 H   0  0  0  0  0  0  0  0  0  0  0  0
  -17.3630   14.0035    0.9440 H   0  0  0  0  0  0  0  0  0  0  0  0
  1 14  1  0  0  0  0
  1 15  1  0  0  0  0
  1 16  1  0  0  0  0
  2  4  2  0  0  0  0
  2 17  1  0  0  0  0
  3  8  1  0  0  0  0
  3 13  1  0  0  0  0
  4  5  1  0  0  0  0
  4 18  1  0  0  0  0
  5 19  1  0  0  0  0
  6  5  2  0  0  0  0
  6 20  1  0  0  0  0
  7  3  1  0  0  0  0
  7  6  1  0  0  0  0
  8 10  2  0  0  0  0
  8 21  1  0  0  0  0
  9  1  1  0  0  0  0
  9 12  1  0  0  0  0
  9 22  1  0  0  0  0
  9 23  1  0  0  0  0
 10 11  1  0  0  0  0
 10 24  1  0  0  0  0
 11 13  2  0  0  0  0
 11 25  1  0  0  0  0
 12  2  1  0  0  0  0
 12  7  2  0  0  0  0
M  CHG  1   1   1
M  END
