4ai8_ligand
 OpenBabel08222323353D

 23 22  0  0  0  0  0  0  0  0999 V2000
   17.9010   24.4170   27.7210 O   0  5  0  0  0  0  0  0  0  0  0  0
   18.0340   24.9420   28.8430 C   0  0  0  0  0  0  0  0  0  0  0  0
   17.1220   25.3240   29.5850 O   0  0  0  0  0  0  0  0  0  0  0  0
   19.3640   25.6400   29.1560 C   0  0  0  0  0  0  0  0  0  0  0  0
   20.4010   24.7400   28.5030 C   0  0  0  0  0  0  0  0  0  0  0  0
   21.7030   25.5500   28.5180 C   0  0  0  0  0  0  0  0  0  0  0  0
   21.7870   26.6790   28.9400 O   0  0  0  0  0  0  0  0  0  0  0  0
   22.7330   24.8630   28.0050 N   0  0  0  0  0  0  0  0  0  0  0  0
   23.7060   25.4240   27.9990 N   0  3  0  0  0  0  0  0  0  0  0  0
   24.5390   24.5780   28.8650 C   0  0  0  0  0  0  0  0  0  0  0  0
   24.0980   25.5210   26.5790 C   0  0  0  0  0  0  0  0  0  0  0  0
   19.5278   25.7047   30.2418 H   0  0  0  0  0  0  0  0  0  0  0  0
   19.3899   26.6497   28.7204 H   0  0  0  0  0  0  0  0  0  0  0  0
   20.1080   24.5000   27.4703 H   0  0  0  0  0  0  0  0  0  0  0  0
   20.5195   23.8088   29.0764 H   0  0  0  0  0  0  0  0  0  0  0  0
   22.6429   23.9298   27.6570 H   0  0  0  0  0  0  0  0  0  0  0  0
   23.6239   26.3496   28.3896 H   0  0  0  0  0  0  0  0  0  0  0  0
   25.5436   25.0178   28.9504 H   0  0  0  0  0  0  0  0  0  0  0  0
   24.6155   23.5707   28.4297 H   0  0  0  0  0  0  0  0  0  0  0  0
   24.0815   24.5123   29.8632 H   0  0  0  0  0  0  0  0  0  0  0  0
   25.0513   26.0638   26.4981 H   0  0  0  0  0  0  0  0  0  0  0  0
   23.3199   26.0612   26.0199 H   0  0  0  0  0  0  0  0  0  0  0  0
   24.2150   24.5103   26.1610 H   0  0  0  0  0  0  0  0  0  0  0  0
  1  2  1  0  0  0  0
  2  3  2  0  0  0  0
  2  4  1  0  0  0  0
  4  5  1  0  0  0  0
  4 12  1  0  0  0  0
  4 13  1  0  0  0  0
  5  6  1  0  0  0  0
  5 14  1  0  0  0  0
  5 15  1  0  0  0  0
  6  7  2  0  0  0  0
  6  8  1  0  0  0  0
  8  9  1  0  0  0  0
  8 16  1  0  0  0  0
  9 10  1  0  0  0  0
  9 11  1  0  0  0  0
  9 17  1  0  0  0  0
 10 18  1  0  0  0  0
 10 19  1  0  0  0  0
 10 20  1  0  0  0  0
 11 21  1  0  0  0  0
 11 22  1  0  0  0  0
 11 23  1  0  0  0  0
M  CHG  2   1  -1   9   1
M  END
