4aif_ligand
 OpenBabel08222323353D

100 99  0  0  1  0  0  0  0  0999 V2000
   30.4770  -18.4720   22.9070 N   0  3  0  0  0  0  0  0  0  0  0  0
   29.8900  -19.2300   24.0090 C   0  0  2  0  0  0  0  0  0  0  0  0
   28.7570  -18.4560   24.6890 C   0  0  0  0  0  0  0  0  0  0  0  0
   27.6820  -18.2880   24.1090 O   0  0  0  0  0  0  0  0  0  0  0  0
   30.9650  -19.6420   25.0220 C   0  0  0  0  0  0  0  0  0  0  0  0
   31.8100  -18.5520   25.3520 O   0  0  0  0  0  0  0  0  0  0  0  0
   28.9900  -17.9900   25.9130 N   0  0  0  0  0  0  0  0  0  0  0  0
   27.9610  -17.2410   26.6230 C   0  0  2  0  0  0  0  0  0  0  0  0
   27.7340  -15.8740   25.9870 C   0  0  0  0  0  0  0  0  0  0  0  0
   28.6570  -15.2470   25.4650 O   0  0  0  0  0  0  0  0  0  0  0  0
   28.2830  -17.1010   28.1140 C   0  0  0  0  0  0  0  0  0  0  0  0
   27.4300  -17.9900   29.0110 C   0  0  0  0  0  0  0  0  0  0  0  0
   27.8680  -17.9050   30.4680 C   0  0  0  0  0  0  0  0  0  0  0  0
   26.4840  -15.4320   26.0330 N   0  0  0  0  0  0  0  0  0  0  0  0
   26.0820  -14.1740   25.4320 C   0  0  2  0  0  0  0  0  0  0  0  0
   26.7190  -12.9640   26.1240 C   0  0  0  0  0  0  0  0  0  0  0  0
   26.9310  -11.9350   25.4940 O   0  0  0  0  0  0  0  0  0  0  0  0
   24.5510  -14.0540   25.4250 C   0  0  0  0  0  0  0  0  0  0  0  0
   23.8320  -15.0760   24.5320 C   0  0  0  0  0  0  0  0  0  0  0  0
   24.2700  -15.0180   22.7700 S   0  0  0  0  0  0  0  0  0  0  0  0
   25.5420  -16.2840   22.7020 C   0  0  0  0  0  0  0  0  0  0  0  0
   27.0250  -13.0850   27.4120 N   0  0  0  0  0  0  0  0  0  0  0  0
   27.6230  -11.9650   28.1440 C   0  0  2  0  0  0  0  0  0  0  0  0
   29.1470  -11.9260   28.0150 C   0  0  0  0  0  0  0  0  0  0  0  0
   29.7850  -10.9620   28.4320 O   0  0  0  0  0  0  0  0  0  0  0  0
   27.2140  -11.9750   29.6260 C   0  0  0  0  0  0  0  0  0  0  0  0
   29.7340  -12.9650   27.4310 N   0  0  0  0  0  0  0  0  0  0  0  0
   31.1880  -13.0140   27.3010 C   0  0  2  0  0  0  0  0  0  0  0  0
   31.7190  -12.2860   26.0640 C   0  0  0  0  0  0  0  0  0  0  0  0
   31.0920  -12.2880   25.0010 O   0  0  0  0  0  0  0  0  0  0  0  0
   31.6790  -14.4570   27.3120 C   0  0  0  0  0  0  0  0  0  0  0  0
   31.4240  -15.1630   28.6290 C   0  0  0  0  0  0  0  0  0  0  0  0
   31.7670  -16.6350   28.5660 C   0  0  0  0  0  0  0  0  0  0  0  0
   31.9910  -17.1380   27.4420 O   0  5  0  0  0  0  0  0  0  0  0  0
   31.8120  -17.2840   29.6350 O   0  0  0  0  0  0  0  0  0  0  0  0
   32.8820  -11.6610   26.2040 N   0  0  0  0  0  0  0  0  0  0  0  0
   33.4770  -10.9700   25.0730 C   0  0  2  0  0  0  0  0  0  0  0  0
   34.2460  -11.9500   24.1860 C   0  0  0  0  0  0  0  0  0  0  0  0
   34.8570  -12.8960   24.6820 O   0  0  0  0  0  0  0  0  0  0  0  0
   34.3300   -9.7610   25.5230 C   0  0  0  0  0  0  0  0  0  0  0  0
   33.4030   -8.6630   26.0710 C   0  0  0  0  0  0  0  0  0  0  0  0
   35.3640  -10.1860   26.5730 C   0  0  0  0  0  0  0  0  0  0  0  0
   34.1790  -11.7040   22.8770 N   0  0  0  0  0  0  0  0  0  0  0  0
   34.6200  -12.6270   21.8220 C   0  0  2  0  0  0  0  0  0  0  0  0
   33.6020  -13.7440   21.5560 C   0  0  0  0  0  0  0  0  0  0  0  0
   32.4700  -13.4780   21.1450 O   0  5  0  0  0  0  0  0  0  0  0  0
   35.9990  -13.2020   22.1230 C   0  0  0  0  0  0  0  0  0  0  0  0
   37.1080  -12.2630   21.7260 C   0  0  0  0  0  0  0  0  0  0  0  0
   36.9120  -11.0390   21.8620 O   0  5  0  0  0  0  0  0  0  0  0  0
   38.1680  -12.7470   21.2700 O   0  0  0  0  0  0  0  0  0  0  0  0
   33.8750  -14.9340   21.7410 O   0  0  0  0  0  0  0  0  0  0  0  0
   31.2167  -19.0111   22.4849 H   0  0  0  0  0  0  0  0  0  0  0  0
   30.8517  -17.6045   23.2579 H   0  0  0  0  0  0  0  0  0  0  0  0
   29.7678  -18.2773   22.2177 H   0  0  0  0  0  0  0  0  0  0  0  0
   29.4574  -20.1493   23.5874 H   0  0  0  0  0  0  0  0  0  0  0  0
   31.5744  -20.4489   24.5889 H   0  0  0  0  0  0  0  0  0  0  0  0
   30.4742  -20.0041   25.9374 H   0  0  0  0  0  0  0  0  0  0  0  0
   31.2900  -17.8531   25.7309 H   0  0  0  0  0  0  0  0  0  0  0  0
   29.8753  -18.1544   26.3480 H   0  0  0  0  0  0  0  0  0  0  0  0
   27.0224  -17.8084   26.5385 H   0  0  0  0  0  0  0  0  0  0  0  0
   28.1204  -16.0535   28.4076 H   0  0  0  0  0  0  0  0  0  0  0  0
   29.3398  -17.3650   28.2674 H   0  0  0  0  0  0  0  0  0  0  0  0
   27.5218  -19.0322   28.6713 H   0  0  0  0  0  0  0  0  0  0  0  0
   26.3801  -17.6706   28.9351 H   0  0  0  0  0  0  0  0  0  0  0  0
   27.2302  -18.5586   31.0813 H   0  0  0  0  0  0  0  0  0  0  0  0
   27.7741  -16.8668   30.8192 H   0  0  0  0  0  0  0  0  0  0  0  0
   28.9158  -18.2283   30.5554 H   0  0  0  0  0  0  0  0  0  0  0  0
   25.7938  -15.9859   26.4987 H   0  0  0  0  0  0  0  0  0  0  0  0
   26.4270  -14.1781   24.3875 H   0  0  0  0  0  0  0  0  0  0  0  0
   24.2878  -13.0458   25.0726 H   0  0  0  0  0  0  0  0  0  0  0  0
   24.1920  -14.1874   26.4562 H   0  0  0  0  0  0  0  0  0  0  0  0
   22.7497  -14.8996   24.6183 H   0  0  0  0  0  0  0  0  0  0  0  0
   24.0707  -16.0819   24.9078 H   0  0  0  0  0  0  0  0  0  0  0  0
   25.9179  -16.3711   21.6719 H   0  0  0  0  0  0  0  0  0  0  0  0
   25.1176  -17.2477   23.0202 H   0  0  0  0  0  0  0  0  0  0  0  0
   26.3696  -16.0086   23.3722 H   0  0  0  0  0  0  0  0  0  0  0  0
   26.8457  -13.9474   27.8854 H   0  0  0  0  0  0  0  0  0  0  0  0
   27.2312  -11.0394   27.6971 H   0  0  0  0  0  0  0  0  0  0  0  0
   27.6807  -11.1223   30.1409 H   0  0  0  0  0  0  0  0  0  0  0  0
   27.5490  -12.9131   30.0925 H   0  0  0  0  0  0  0  0  0  0  0  0
   26.1197  -11.8966   29.7049 H   0  0  0  0  0  0  0  0  0  0  0  0
   29.1775  -13.7174   27.0786 H   0  0  0  0  0  0  0  0  0  0  0  0
   31.6093  -12.5083   28.1823 H   0  0  0  0  0  0  0  0  0  0  0  0
   32.7617  -14.4597   27.1175 H   0  0  0  0  0  0  0  0  0  0  0  0
   31.1616  -15.0088   26.5134 H   0  0  0  0  0  0  0  0  0  0  0  0
   30.3597  -15.0583   28.8864 H   0  0  0  0  0  0  0  0  0  0  0  0
   32.0382  -14.6896   29.4091 H   0  0  0  0  0  0  0  0  0  0  0  0
   33.3487  -11.6659   27.0884 H   0  0  0  0  0  0  0  0  0  0  0  0
   32.6522  -10.5676   24.4666 H   0  0  0  0  0  0  0  0  0  0  0  0
   34.8674   -9.3636   24.6493 H   0  0  0  0  0  0  0  0  0  0  0  0
   34.0059   -7.8009   26.3923 H   0  0  0  0  0  0  0  0  0  0  0  0
   32.8374   -9.0551   26.9291 H   0  0  0  0  0  0  0  0  0  0  0  0
   32.7027   -8.3476   25.2835 H   0  0  0  0  0  0  0  0  0  0  0  0
   36.0113  -10.9703   26.1537 H   0  0  0  0  0  0  0  0  0  0  0  0
   34.8455  -10.5749   27.4618 H   0  0  0  0  0  0  0  0  0  0  0  0
   35.9769   -9.3177   26.8566 H   0  0  0  0  0  0  0  0  0  0  0  0
   33.7996  -10.8239   22.5915 H   0  0  0  0  0  0  0  0  0  0  0  0
   34.7056  -12.0400   20.8957 H   0  0  0  0  0  0  0  0  0  0  0  0
   36.1181  -14.1447   21.5688 H   0  0  0  0  0  0  0  0  0  0  0  0
   36.0721  -13.3996   23.2026 H   0  0  0  0  0  0  0  0  0  0  0  0
  1  2  1  0  0  0  0
  1 52  1  0  0  0  0
  1 53  1  0  0  0  0
  1 54  1  0  0  0  0
  2  3  1  0  0  0  0
  2  5  1  0  0  0  0
  2 55  1  6  0  0  0
  3  4  2  0  0  0  0
  3  7  1  0  0  0  0
  5  6  1  0  0  0  0
  5 56  1  0  0  0  0
  5 57  1  0  0  0  0
  6 58  1  0  0  0  0
  7  8  1  0  0  0  0
  7 59  1  0  0  0  0
  8  9  1  0  0  0  0
  8 11  1  0  0  0  0
  8 60  1  6  0  0  0
  9 10  2  0  0  0  0
  9 14  1  0  0  0  0
 11 12  1  0  0  0  0
 11 61  1  0  0  0  0
 11 62  1  0  0  0  0
 12 13  1  0  0  0  0
 12 63  1  0  0  0  0
 12 64  1  0  0  0  0
 13 65  1  0  0  0  0
 13 66  1  0  0  0  0
 13 67  1  0  0  0  0
 14 15  1  0  0  0  0
 14 68  1  0  0  0  0
 15 16  1  0  0  0  0
 15 18  1  0  0  0  0
 15 69  1  6  0  0  0
 16 17  2  0  0  0  0
 16 22  1  0  0  0  0
 18 19  1  0  0  0  0
 18 70  1  0  0  0  0
 18 71  1  0  0  0  0
 19 20  1  0  0  0  0
 19 72  1  0  0  0  0
 19 73  1  0  0  0  0
 20 21  1  0  0  0  0
 21 74  1  0  0  0  0
 21 75  1  0  0  0  0
 21 76  1  0  0  0  0
 22 23  1  0  0  0  0
 22 77  1  0  0  0  0
 23 24  1  0  0  0  0
 23 26  1  0  0  0  0
 23 78  1  6  0  0  0
 24 25  2  0  0  0  0
 24 27  1  0  0  0  0
 26 79  1  0  0  0  0
 26 80  1  0  0  0  0
 26 81  1  0  0  0  0
 27 28  1  0  0  0  0
 27 82  1  0  0  0  0
 28 29  1  0  0  0  0
 28 31  1  0  0  0  0
 28 83  1  1  0  0  0
 29 30  2  0  0  0  0
 29 36  1  0  0  0  0
 31 32  1  0  0  0  0
 31 84  1  0  0  0  0
 31 85  1  0  0  0  0
 32 33  1  0  0  0  0
 32 86  1  0  0  0  0
 32 87  1  0  0  0  0
 33 34  1  0  0  0  0
 33 35  2  0  0  0  0
 36 37  1  0  0  0  0
 36 88  1  0  0  0  0
 37 38  1  0  0  0  0
 37 40  1  0  0  0  0
 37 89  1  6  0  0  0
 38 39  2  0  0  0  0
 38 43  1  0  0  0  0
 40 41  1  0  0  0  0
 40 42  1  0  0  0  0
 40 90  1  0  0  0  0
 41 91  1  0  0  0  0
 41 92  1  0  0  0  0
 41 93  1  0  0  0  0
 42 94  1  0  0  0  0
 42 95  1  0  0  0  0
 42 96  1  0  0  0  0
 43 44  1  0  0  0  0
 43 97  1  0  0  0  0
 44 45  1  0  0  0  0
 44 47  1  0  0  0  0
 44 98  1  6  0  0  0
 45 46  1  0  0  0  0
 45 51  2  0  0  0  0
 47 48  1  0  0  0  0
 47 99  1  0  0  0  0
 47100  1  0  0  0  0
 48 49  1  0  0  0  0
 48 50  2  0  0  0  0
M  CHG  4   1   1  34  -1  46  -1  49  -1
M  END
