4alg_ligand
 OpenBabel08222323353D

 52 56  0  0  1  0  0  0  0  0999 V2000
    7.8980   -7.8790   17.0070 O   0  0  0  0  0  0  0  0  0  0  0  0
    8.7570   -7.0500   17.2640 C   0  0  0  0  0  0  0  0  0  0  0  0
    9.5310   -7.0130   18.4160 N   0  0  0  0  0  0  0  0  0  0  0  0
    9.4610   -8.0180   19.5040 C   0  0  1  0  0  0  0  0  0  0  0  0
   10.7960   -8.7350   19.6440 C   0  0  0  0  0  0  0  0  0  0  0  0
   11.1040   -9.2440   20.8470 N   0  0  0  0  0  0  0  0  0  0  0  0
   12.2880   -9.8800   20.9690 C   0  0  0  0  0  0  0  0  0  0  0  0
   13.1900  -10.0160   19.9410 C   0  0  0  0  0  0  0  0  0  0  0  0
   12.8600   -9.4860   18.7160 C   0  0  0  0  0  0  0  0  0  0  0  0
   11.6500   -8.8370   18.5550 C   0  0  0  0  0  0  0  0  0  0  0  0
    8.9190   -7.4290   20.8030 C   0  0  0  0  0  0  0  0  0  0  0  0
    9.1380   -5.9870   16.5010 N   0  0  0  0  0  0  0  0  0  0  0  0
   10.1510   -5.2830   17.1310 C   0  0  0  0  0  0  0  0  0  0  0  0
   10.4290   -5.9030   18.3540 C   0  0  0  0  0  0  0  0  0  0  0  0
   10.8330   -4.1410   16.7250 C   0  0  0  0  0  0  0  0  0  0  0  0
   11.7840   -3.5730   17.4270 N   0  0  0  0  0  0  0  0  0  0  0  0
   12.0940   -4.1360   18.6410 C   0  0  0  0  0  0  0  0  0  0  0  0
   11.4530   -5.2920   19.1450 C   0  0  0  0  0  0  0  0  0  0  0  0
   11.8600   -5.7950   20.4050 C   0  0  0  0  0  0  0  0  0  0  0  0
   13.1080   -3.5250   19.4080 C   0  0  0  0  0  0  0  0  0  0  0  0
   13.4730   -4.0170   20.6360 C   0  0  0  0  0  0  0  0  0  0  0  0
   12.8450   -5.1770   21.1220 C   0  0  0  0  0  0  0  0  0  0  0  0
   13.2900   -5.6010   22.3490 O   0  0  0  0  0  0  0  0  0  0  0  0
   12.4260   -6.4350   23.1120 C   0  0  0  0  0  0  0  0  0  0  0  0
   14.5580   -3.3570   21.3910 C   0  0  0  0  0  0  0  0  0  0  0  0
   14.5280   -2.9050   22.6620 C   0  0  0  0  0  0  0  0  0  0  0  0
   13.4810   -2.8460   23.7090 C   0  0  0  0  0  0  0  0  0  0  0  0
   15.7230   -2.3890   22.9840 O   0  0  0  0  0  0  0  0  0  0  0  0
   16.5820   -2.5330   21.8600 N   0  0  0  0  0  0  0  0  0  0  0  0
   15.8700   -3.1100   20.9340 C   0  0  0  0  0  0  0  0  0  0  0  0
   16.4930   -3.4040   19.6110 C   0  0  0  0  0  0  0  0  0  0  0  0
    8.7316   -8.7786   19.1887 H   0  0  0  0  0  0  0  0  0  0  0  0
   12.5419  -10.3077   21.9321 H   0  0  0  0  0  0  0  0  0  0  0  0
   14.1344  -10.5264   20.0916 H   0  0  0  0  0  0  0  0  0  0  0  0
   13.5450   -9.5766   17.8808 H   0  0  0  0  0  0  0  0  0  0  0  0
   11.3733   -8.4154   17.5954 H   0  0  0  0  0  0  0  0  0  0  0  0
    8.8871   -8.2117   21.5752 H   0  0  0  0  0  0  0  0  0  0  0  0
    7.9043   -7.0394   20.6337 H   0  0  0  0  0  0  0  0  0  0  0  0
    9.5748   -6.6113   21.1366 H   0  0  0  0  0  0  0  0  0  0  0  0
    8.7429   -5.7493   15.6136 H   0  0  0  0  0  0  0  0  0  0  0  0
   10.5632   -3.6951   15.7745 H   0  0  0  0  0  0  0  0  0  0  0  0
   11.3834   -6.6823   20.8058 H   0  0  0  0  0  0  0  0  0  0  0  0
   13.6103   -2.6469   19.0186 H   0  0  0  0  0  0  0  0  0  0  0  0
   12.9125   -6.6934   24.0641 H   0  0  0  0  0  0  0  0  0  0  0  0
   12.2121   -7.3549   22.5481 H   0  0  0  0  0  0  0  0  0  0  0  0
   11.4854   -5.9015   23.3138 H   0  0  0  0  0  0  0  0  0  0  0  0
   13.8974   -2.3884   24.6185 H   0  0  0  0  0  0  0  0  0  0  0  0
   13.1329   -3.8642   23.9373 H   0  0  0  0  0  0  0  0  0  0  0  0
   12.6356   -2.2416   23.3485 H   0  0  0  0  0  0  0  0  0  0  0  0
   17.5407   -3.0690   19.6166 H   0  0  0  0  0  0  0  0  0  0  0  0
   15.9425   -2.8731   18.8204 H   0  0  0  0  0  0  0  0  0  0  0  0
   16.4553   -4.4867   19.4204 H   0  0  0  0  0  0  0  0  0  0  0  0
  1  2  2  0  0  0  0
  2  3  1  0  0  0  0
  2 12  1  0  0  0  0
  3  4  1  0  0  0  0
  3 14  1  0  0  0  0
  4  5  1  0  0  0  0
  4 11  1  0  0  0  0
  4 32  1  6  0  0  0
  5  6  2  0  0  0  0
  5 10  1  0  0  0  0
  6  7  1  0  0  0  0
  7  8  2  0  0  0  0
  7 33  1  0  0  0  0
  8  9  1  0  0  0  0
  8 34  1  0  0  0  0
  9 10  2  0  0  0  0
  9 35  1  0  0  0  0
 10 36  1  0  0  0  0
 11 37  1  0  0  0  0
 11 38  1  0  0  0  0
 11 39  1  0  0  0  0
 12 13  1  0  0  0  0
 12 40  1  0  0  0  0
 13 14  2  0  0  0  0
 13 15  1  0  0  0  0
 14 18  1  0  0  0  0
 15 16  2  0  0  0  0
 15 41  1  0  0  0  0
 16 17  1  0  0  0  0
 17 18  2  0  0  0  0
 17 20  1  0  0  0  0
 18 19  1  0  0  0  0
 19 22  2  0  0  0  0
 19 42  1  0  0  0  0
 20 21  2  0  0  0  0
 20 43  1  0  0  0  0
 21 22  1  0  0  0  0
 21 25  1  0  0  0  0
 22 23  1  0  0  0  0
 23 24  1  0  0  0  0
 24 44  1  0  0  0  0
 24 45  1  0  0  0  0
 24 46  1  0  0  0  0
 25 26  2  0  0  0  0
 25 30  1  0  0  0  0
 26 27  1  0  0  0  0
 26 28  1  0  0  0  0
 27 47  1  0  0  0  0
 27 48  1  0  0  0  0
 27 49  1  0  0  0  0
 28 29  1  0  0  0  0
 29 30  2  0  0  0  0
 30 31  1  0  0  0  0
 31 50  1  0  0  0  0
 31 51  1  0  0  0  0
 31 52  1  0  0  0  0
M  END
