4alu_ligand
 OpenBabel08222323353D

 30 33  0  0  0  0  0  0  0  0999 V2000
   18.5720   32.1740   -3.5430 Cl  0  0  0  0  0  0  0  0  0  0  0  0
   19.8820   31.4710   -4.4220 C   0  0  0  0  0  0  0  0  0  0  0  0
   19.6580   30.9920   -5.7130 C   0  0  0  0  0  0  0  0  0  0  0  0
   20.7010   30.4190   -6.4390 C   0  0  0  0  0  0  0  0  0  0  0  0
   21.9700   30.3230   -5.8730 C   0  0  0  0  0  0  0  0  0  0  0  0
   22.1940   30.7990   -4.5820 C   0  0  0  0  0  0  0  0  0  0  0  0
   21.1530   31.3750   -3.8520 C   0  0  0  0  0  0  0  0  0  0  0  0
   21.4250   31.8480   -2.5380 C   0  0  0  0  0  0  0  0  0  0  0  0
   21.8040   33.1440   -2.2960 N   0  0  0  0  0  0  0  0  0  0  0  0
   22.0750   33.6080   -1.0290 C   0  0  0  0  0  0  0  0  0  0  0  0
   22.4790   34.8430   -0.5160 C   0  0  0  0  0  0  0  0  0  0  0  0
   22.7350   36.0550   -1.1400 C   0  0  0  0  0  0  0  0  0  0  0  0
   23.1260   37.1340   -0.3680 C   0  0  0  0  0  0  0  0  0  0  0  0
   23.5050   38.8280   -1.2090 Br  0  0  0  0  0  0  0  0  0  0  0  0
   23.2590   37.0080    1.0220 C   0  0  0  0  0  0  0  0  0  0  0  0
   22.9990   35.8060    1.6440 C   0  0  0  0  0  0  0  0  0  0  0  0
   22.6180   34.7340    0.8730 C   0  0  0  0  0  0  0  0  0  0  0  0
   22.3060   33.4830    1.2390 O   0  0  0  0  0  0  0  0  0  0  0  0
   21.9800   32.7920    0.1040 C   0  0  0  0  0  0  0  0  0  0  0  0
   21.5990   31.4750   -0.0440 C   0  0  0  0  0  0  0  0  0  0  0  0
   21.5430   30.8260    1.0110 O   0  0  0  0  0  0  0  0  0  0  0  0
   21.3160   30.9750   -1.3940 N   0  0  0  0  0  0  0  0  0  0  0  0
   18.6700   31.0656   -6.1529 H   0  0  0  0  0  0  0  0  0  0  0  0
   20.5247   30.0487   -7.4424 H   0  0  0  0  0  0  0  0  0  0  0  0
   22.7828   29.8785   -6.4359 H   0  0  0  0  0  0  0  0  0  0  0  0
   23.1820   30.7214   -4.1427 H   0  0  0  0  0  0  0  0  0  0  0  0
   22.6304   36.1549   -2.2143 H   0  0  0  0  0  0  0  0  0  0  0  0
   23.5688   37.8629    1.6122 H   0  0  0  0  0  0  0  0  0  0  0  0
   23.0931   35.7081    2.7195 H   0  0  0  0  0  0  0  0  0  0  0  0
   21.0452   30.0210   -1.5226 H   0  0  0  0  0  0  0  0  0  0  0  0
  1  2  1  0  0  0  0
  2  3  2  0  0  0  0
  2  7  1  0  0  0  0
  3  4  1  0  0  0  0
  3 23  1  0  0  0  0
  4  5  2  0  0  0  0
  4 24  1  0  0  0  0
  5  6  1  0  0  0  0
  5 25  1  0  0  0  0
  6  7  2  0  0  0  0
  6 26  1  0  0  0  0
  7  8  1  0  0  0  0
  8  9  2  0  0  0  0
  8 22  1  0  0  0  0
  9 10  1  0  0  0  0
 10 11  1  0  0  0  0
 10 19  2  0  0  0  0
 11 12  2  0  0  0  0
 11 17  1  0  0  0  0
 12 13  1  0  0  0  0
 12 27  1  0  0  0  0
 13 14  1  0  0  0  0
 13 15  2  0  0  0  0
 15 16  1  0  0  0  0
 15 28  1  0  0  0  0
 16 17  2  0  0  0  0
 16 29  1  0  0  0  0
 17 18  1  0  0  0  0
 18 19  1  0  0  0  0
 19 20  1  0  0  0  0
 20 21  2  0  0  0  0
 20 22  1  0  0  0  0
 22 30  1  0  0  0  0
M  END
