4anq_ligand
 OpenBabel08222323353D

 53 56  0  0  1  0  0  0  0  0999 V2000
   32.8060   46.6850    6.3050 Cl  0  0  0  0  0  0  0  0  0  0  0  0
   33.3360   46.3750    7.9310 C   0  0  0  0  0  0  0  0  0  0  0  0
   34.1910   47.3580    8.5080 C   0  0  0  0  0  0  0  0  0  0  0  0
   34.6890   47.2140    9.8270 C   0  0  0  0  0  0  0  0  0  0  0  0
   34.3460   46.0790   10.6060 C   0  0  0  0  0  0  0  0  0  0  0  0
   34.8430   45.9840   11.8460 F   0  0  0  0  0  0  0  0  0  0  0  0
   32.9550   45.1900    8.6970 C   0  0  0  0  0  0  0  0  0  0  0  0
   33.4820   45.0580   10.0660 C   0  0  0  0  0  0  0  0  0  0  0  0
   33.1130   43.6910   11.1070 Cl  0  0  0  0  0  0  0  0  0  0  0  0
   32.0120   44.1040    8.0520 C   0  0  1  0  0  0  0  0  0  0  0  0
   32.6930   42.7270    8.0510 C   0  0  0  0  0  0  0  0  0  0  0  0
   30.7290   43.9080    8.7500 O   0  0  0  0  0  0  0  0  0  0  0  0
   29.7160   44.8670    8.9150 C   0  0  0  0  0  0  0  0  0  0  0  0
   29.6140   46.1010    8.1850 C   0  0  0  0  0  0  0  0  0  0  0  0
   28.6680   44.6140    9.8630 C   0  0  0  0  0  0  0  0  0  0  0  0
   28.7010   43.4220   10.6120 N   0  0  0  0  0  0  0  0  0  0  0  0
   27.6250   45.4550   10.0940 N   0  0  0  0  0  0  0  0  0  0  0  0
   27.5560   46.6220    9.3830 C   0  0  0  0  0  0  0  0  0  0  0  0
   28.5290   47.0060    8.4080 C   0  0  0  0  0  0  0  0  0  0  0  0
   28.4480   48.3040    7.6260 C   0  0  0  0  0  0  0  0  0  0  0  0
   29.5150   48.9180    6.8340 C   0  0  0  0  0  0  0  0  0  0  0  0
   27.3650   49.1720    7.4960 C   0  0  0  0  0  0  0  0  0  0  0  0
   27.8630   50.2020    6.6630 N   0  0  0  0  0  0  0  0  0  0  0  0
   29.0840   50.0060    6.3190 N   0  0  0  0  0  0  0  0  0  0  0  0
   27.1190   51.3970    6.2000 C   0  0  0  0  0  0  0  0  0  0  0  0
   26.7240   52.2900    7.3970 C   0  0  0  0  0  0  0  0  0  0  0  0
   25.9550   53.5300    6.8830 C   0  0  0  0  0  0  0  0  0  0  0  0
   24.7760   53.1610    6.0450 N   0  3  0  0  0  0  0  0  0  0  0  0
   25.1290   52.2570    4.9120 C   0  0  0  0  0  0  0  0  0  0  0  0
   25.8750   50.9870    5.3810 C   0  0  0  0  0  0  0  0  0  0  0  0
   34.4654   48.2315    7.9278 H   0  0  0  0  0  0  0  0  0  0  0  0
   35.3368   47.9767   10.2437 H   0  0  0  0  0  0  0  0  0  0  0  0
   31.8060   44.4129    7.0166 H   0  0  0  0  0  0  0  0  0  0  0  0
   32.0193   41.9851    7.5975 H   0  0  0  0  0  0  0  0  0  0  0  0
   32.9220   42.4304    9.0852 H   0  0  0  0  0  0  0  0  0  0  0  0
   33.6253   42.7794    7.4695 H   0  0  0  0  0  0  0  0  0  0  0  0
   30.3730   46.3503    7.4523 H   0  0  0  0  0  0  0  0  0  0  0  0
   27.9577   43.2233   11.2968 H   0  0  0  0  0  0  0  0  0  0  0  0
   29.4684   42.7488   10.4750 H   0  0  0  0  0  0  0  0  0  0  0  0
   26.7218   47.2890    9.5681 H   0  0  0  0  0  0  0  0  0  0  0  0
   30.5172   48.5123    6.7040 H   0  0  0  0  0  0  0  0  0  0  0  0
   26.3714   49.0795    7.9320 H   0  0  0  0  0  0  0  0  0  0  0  0
   27.7821   51.9796    5.5436 H   0  0  0  0  0  0  0  0  0  0  0  0
   27.6313   52.6150    7.9273 H   0  0  0  0  0  0  0  0  0  0  0  0
   26.0821   51.7193    8.0843 H   0  0  0  0  0  0  0  0  0  0  0  0
   26.6389   54.1448    6.2794 H   0  0  0  0  0  0  0  0  0  0  0  0
   25.6051   54.1124    7.7481 H   0  0  0  0  0  0  0  0  0  0  0  0
   24.3717   54.0045    5.6694 H   0  0  0  0  0  0  0  0  0  0  0  0
   24.0993   52.6953    6.6292 H   0  0  0  0  0  0  0  0  0  0  0  0
   25.7735   52.8060    4.2098 H   0  0  0  0  0  0  0  0  0  0  0  0
   24.2036   51.9542    4.4003 H   0  0  0  0  0  0  0  0  0  0  0  0
   25.2064   50.3791    6.0082 H   0  0  0  0  0  0  0  0  0  0  0  0
   26.1891   50.4010    4.5047 H   0  0  0  0  0  0  0  0  0  0  0  0
  1  2  1  0  0  0  0
  2  3  2  0  0  0  0
  2  7  1  0  0  0  0
  3  4  1  0  0  0  0
  3 31  1  0  0  0  0
  4  5  2  0  0  0  0
  4 32  1  0  0  0  0
  5  6  1  0  0  0  0
  5  8  1  0  0  0  0
  7  8  2  0  0  0  0
  7 10  1  0  0  0  0
  8  9  1  0  0  0  0
 10 11  1  0  0  0  0
 10 12  1  0  0  0  0
 10 33  1  6  0  0  0
 11 34  1  0  0  0  0
 11 35  1  0  0  0  0
 11 36  1  0  0  0  0
 12 13  1  0  0  0  0
 13 14  2  0  0  0  0
 13 15  1  0  0  0  0
 14 19  1  0  0  0  0
 14 37  1  0  0  0  0
 15 16  1  0  0  0  0
 15 17  2  0  0  0  0
 16 38  1  0  0  0  0
 16 39  1  0  0  0  0
 17 18  1  0  0  0  0
 18 19  2  0  0  0  0
 18 40  1  0  0  0  0
 19 20  1  0  0  0  0
 20 21  1  0  0  0  0
 20 22  2  0  0  0  0
 21 24  2  0  0  0  0
 21 41  1  0  0  0  0
 22 23  1  0  0  0  0
 22 42  1  0  0  0  0
 23 24  1  0  0  0  0
 23 25  1  0  0  0  0
 25 26  1  0  0  0  0
 25 30  1  0  0  0  0
 25 43  1  0  0  0  0
 26 27  1  0  0  0  0
 26 44  1  0  0  0  0
 26 45  1  0  0  0  0
 27 28  1  0  0  0  0
 27 46  1  0  0  0  0
 27 47  1  0  0  0  0
 28 29  1  0  0  0  0
 28 48  1  0  0  0  0
 28 49  1  0  0  0  0
 29 30  1  0  0  0  0
 29 50  1  0  0  0  0
 29 51  1  0  0  0  0
 30 52  1  0  0  0  0
 30 53  1  0  0  0  0
M  CHG  1  28   1
M  END
