4apr_ligand
 OpenBabel08222323353D

 99101  0  0  1  0  0  0  0  0999 V2000
   36.9510   72.2800  101.7050 N   0  3  0  0  0  0  0  0  0  0  0  0
   37.3920   71.0320  101.0490 C   0  0  2  0  0  0  0  0  0  0  0  0
   38.5910   70.4070  101.7510 C   0  0  0  0  0  0  0  0  0  0  0  0
   39.5280   71.1150  102.2000 O   0  0  0  0  0  0  0  0  0  0  0  0
   37.6970   71.4280   99.6020 C   0  0  0  0  0  0  0  0  0  0  0  0
   38.0230   72.8840   99.6630 C   0  0  0  0  0  0  0  0  0  0  0  0
   37.2270   73.4320  100.8490 C   0  0  0  0  0  0  0  0  0  0  0  0
   38.6040   69.0850  101.8220 N   0  0  0  0  0  0  0  0  0  0  0  0
   39.7190   68.3490  102.4750 C   0  0  2  0  0  0  0  0  0  0  0  0
   40.6060   67.7520  101.3930 C   0  0  0  0  0  0  0  0  0  0  0  0
   40.1490   67.6740  100.2360 O   0  0  0  0  0  0  0  0  0  0  0  0
   39.0810   67.3360  103.4210 C   0  0  0  0  0  0  0  0  0  0  0  0
   38.4240   67.8660  104.6520 C   0  0  0  0  0  0  0  0  0  0  0  0
   38.6590   67.2000  105.8600 C   0  0  0  0  0  0  0  0  0  0  0  0
   37.6110   68.9850  104.7100 C   0  0  0  0  0  0  0  0  0  0  0  0
   38.1150   67.6310  107.0620 C   0  0  0  0  0  0  0  0  0  0  0  0
   37.0350   69.4410  105.8940 C   0  0  0  0  0  0  0  0  0  0  0  0
   37.2790   68.7510  107.0900 C   0  0  0  0  0  0  0  0  0  0  0  0
   41.8070   67.3510  101.7190 N   0  0  0  0  0  0  0  0  0  0  0  0
   42.7740   66.7050  100.7910 C   0  0  2  0  0  0  0  0  0  0  0  0
   43.6640   65.9140  101.7730 C   0  0  0  0  0  0  0  0  0  0  0  0
   44.7060   66.3910  102.2220 O   0  0  0  0  0  0  0  0  0  0  0  0
   43.5410   67.5610   99.7990 C   0  0  0  0  0  0  0  0  0  0  0  0
   44.5530   66.8700   98.9400 C   0  0  0  0  0  0  0  0  0  0  0  0
   44.5080   65.5460   98.5790 N   0  0  0  0  0  0  0  0  0  0  0  0
   45.6800   67.3470   98.3450 C   0  0  0  0  0  0  0  0  0  0  0  0
   45.5470   65.2180   97.8190 C   0  0  0  0  0  0  0  0  0  0  0  0
   46.2630   66.3070   97.6560 N   0  0  0  0  0  0  0  0  0  0  0  0
   43.1470   64.7610  102.0880 N   0  0  0  0  0  0  0  0  0  0  0  0
   43.5790   63.7370  103.0370 C   0  0  1  0  0  0  0  0  0  0  0  0
   42.4700   63.7080  104.0560 C   0  0  0  0  0  0  0  0  0  0  0  0
   42.5510   64.3940  105.4170 C   0  0  0  0  0  0  0  0  0  0  0  0
   43.3140   65.7350  105.4240 C   0  0  0  0  0  0  0  0  0  0  0  0
   41.0970   64.7170  105.8950 C   0  0  0  0  0  0  0  0  0  0  0  0
   44.0000   62.4350  102.3550 C   0  0  1  0  0  0  0  0  0  0  0  0
   42.8490   61.7000  101.9220 O   0  0  0  0  0  0  0  0  0  0  0  0
   44.9070   62.6430  101.1580 C   0  0  0  0  0  0  0  0  0  0  0  0
   46.2820   63.1000  101.6630 C   0  0  0  0  0  0  0  0  0  0  0  0
   46.3700   64.0540  102.3940 O   0  0  0  0  0  0  0  0  0  0  0  0
   47.1800   62.1510  101.5030 N   0  0  0  0  0  0  0  0  0  0  0  0
   48.6240   62.2560  101.4150 C   0  0  2  0  0  0  0  0  0  0  0  0
   49.1180   63.0180  100.1640 C   0  0  0  0  0  0  0  0  0  0  0  0
   50.3280   63.3630  100.2430 O   0  0  0  0  0  0  0  0  0  0  0  0
   49.2340   60.8460  101.4980 C   0  0  0  0  0  0  0  0  0  0  0  0
   49.3060   60.0850  102.8000 C   0  0  0  0  0  0  0  0  0  0  0  0
   50.4320   59.0470  102.6870 C   0  0  0  0  0  0  0  0  0  0  0  0
   49.6190   61.0120  103.9770 C   0  0  0  0  0  0  0  0  0  0  0  0
   37.4444   72.3888  102.5772 H   0  0  0  0  0  0  0  0  0  0  0  0
   35.9603   72.2290  101.8835 H   0  0  0  0  0  0  0  0  0  0  0  0
   36.5707   70.3004  101.0621 H   0  0  0  0  0  0  0  0  0  0  0  0
   36.8207   71.2542   98.9602 H   0  0  0  0  0  0  0  0  0  0  0  0
   38.5534   70.8555   99.2163 H   0  0  0  0  0  0  0  0  0  0  0  0
   37.7196   73.3852   98.7320 H   0  0  0  0  0  0  0  0  0  0  0  0
   39.1014   73.0301   99.8235 H   0  0  0  0  0  0  0  0  0  0  0  0
   36.2871   73.8868  100.5030 H   0  0  0  0  0  0  0  0  0  0  0  0
   37.8185   74.1822  101.3943 H   0  0  0  0  0  0  0  0  0  0  0  0
   37.8447   68.5683  101.4264 H   0  0  0  0  0  0  0  0  0  0  0  0
   40.3275   69.0461  103.0698 H   0  0  0  0  0  0  0  0  0  0  0  0
   39.8708   66.6408  103.7417 H   0  0  0  0  0  0  0  0  0  0  0  0
   38.3181   66.7863  102.8503 H   0  0  0  0  0  0  0  0  0  0  0  0
   39.2877   66.3169  105.8569 H   0  0  0  0  0  0  0  0  0  0  0  0
   37.4139   69.5304  103.7942 H   0  0  0  0  0  0  0  0  0  0  0  0
   38.3385   67.0988  107.9795 H   0  0  0  0  0  0  0  0  0  0  0  0
   36.4034   70.3220  105.8905 H   0  0  0  0  0  0  0  0  0  0  0  0
   36.8277   69.0800  108.0191 H   0  0  0  0  0  0  0  0  0  0  0  0
   42.0982   67.4892  102.6656 H   0  0  0  0  0  0  0  0  0  0  0  0
   42.2114   65.9883  100.1748 H   0  0  0  0  0  0  0  0  0  0  0  0
   44.0680   68.3389  100.3709 H   0  0  0  0  0  0  0  0  0  0  0  0
   42.8057   68.0323   99.1303 H   0  0  0  0  0  0  0  0  0  0  0  0
   46.0539   68.3682   98.4033 H   0  0  0  0  0  0  0  0  0  0  0  0
   45.7640   64.2328   97.4088 H   0  0  0  0  0  0  0  0  0  0  0  0
   47.1269   66.3729   97.0990 H   0  0  0  0  0  0  0  0  0  0  0  0
   42.3070   64.5370  101.5938 H   0  0  0  0  0  0  0  0  0  0  0  0
   44.4807   64.1000  103.5520 H   0  0  0  0  0  0  0  0  0  0  0  0
   42.2853   62.6444  104.2674 H   0  0  0  0  0  0  0  0  0  0  0  0
   41.5914   64.1402  103.5547 H   0  0  0  0  0  0  0  0  0  0  0  0
   43.0376   63.7057  106.1237 H   0  0  0  0  0  0  0  0  0  0  0  0
   43.3180   66.1492  106.4430 H   0  0  0  0  0  0  0  0  0  0  0  0
   42.8186   66.4423  104.7426 H   0  0  0  0  0  0  0  0  0  0  0  0
   44.3494   65.5695  105.0915 H   0  0  0  0  0  0  0  0  0  0  0  0
   40.5020   63.7919  105.9101 H   0  0  0  0  0  0  0  0  0  0  0  0
   40.6357   65.4383  105.2044 H   0  0  0  0  0  0  0  0  0  0  0  0
   41.1307   65.1478  106.9066 H   0  0  0  0  0  0  0  0  0  0  0  0
   44.5453   61.8319  103.0959 H   0  0  0  0  0  0  0  0  0  0  0  0
   42.2679   61.5599  102.6604 H   0  0  0  0  0  0  0  0  0  0  0  0
   44.4797   63.4122  100.4978 H   0  0  0  0  0  0  0  0  0  0  0  0
   45.0106   61.6993  100.6024 H   0  0  0  0  0  0  0  0  0  0  0  0
   46.8136   61.2233  101.4318 H   0  0  0  0  0  0  0  0  0  0  0  0
   48.9671   62.8242  102.2921 H   0  0  0  0  0  0  0  0  0  0  0  0
   48.4863   63.2343   99.3037 H   0  0  0  0  0  0  0  0  0  0  0  0
   50.2685   60.9353  101.1350 H   0  0  0  0  0  0  0  0  0  0  0  0
   48.6551   60.2179  100.8049 H   0  0  0  0  0  0  0  0  0  0  0  0
   48.3457   59.5797  102.9804 H   0  0  0  0  0  0  0  0  0  0  0  0
   50.5030   58.4793  103.6265 H   0  0  0  0  0  0  0  0  0  0  0  0
   51.3860   59.5602  102.4958 H   0  0  0  0  0  0  0  0  0  0  0  0
   50.2136   58.3579  101.8579 H   0  0  0  0  0  0  0  0  0  0  0  0
   48.8218   61.7637  104.0737 H   0  0  0  0  0  0  0  0  0  0  0  0
   50.5799   61.5173  103.8003 H   0  0  0  0  0  0  0  0  0  0  0  0
   49.6801   60.4212  104.9029 H   0  0  0  0  0  0  0  0  0  0  0  0
  1  7  1  0  0  0  0
  1 48  1  0  0  0  0
  1 49  1  0  0  0  0
  2  1  1  0  0  0  0
  2  5  1  0  0  0  0
  2 50  1  1  0  0  0
  3  2  1  0  0  0  0
  3  4  2  0  0  0  0
  5  6  1  0  0  0  0
  5 51  1  0  0  0  0
  5 52  1  0  0  0  0
  6  7  1  0  0  0  0
  6 53  1  0  0  0  0
  6 54  1  0  0  0  0
  7 55  1  0  0  0  0
  7 56  1  0  0  0  0
  8  3  1  0  0  0  0
  8 57  1  0  0  0  0
  9 12  1  0  0  0  0
  9  8  1  0  0  0  0
  9 58  1  1  0  0  0
 10  9  1  0  0  0  0
 10 11  2  0  0  0  0
 12 13  1  0  0  0  0
 12 59  1  0  0  0  0
 12 60  1  0  0  0  0
 13 15  2  0  0  0  0
 13 14  1  0  0  0  0
 14 16  2  0  0  0  0
 14 61  1  0  0  0  0
 15 17  1  0  0  0  0
 15 62  1  0  0  0  0
 16 18  1  0  0  0  0
 16 63  1  0  0  0  0
 17 18  2  0  0  0  0
 17 64  1  0  0  0  0
 18 65  1  0  0  0  0
 19 10  1  0  0  0  0
 19 66  1  0  0  0  0
 20 23  1  0  0  0  0
 20 19  1  0  0  0  0
 20 67  1  6  0  0  0
 21 20  1  0  0  0  0
 21 22  2  0  0  0  0
 23 24  1  0  0  0  0
 23 68  1  0  0  0  0
 23 69  1  0  0  0  0
 24 26  2  0  0  0  0
 24 25  1  0  0  0  0
 25 27  2  0  0  0  0
 26 28  1  0  0  0  0
 26 70  1  0  0  0  0
 27 28  1  0  0  0  0
 27 71  1  0  0  0  0
 28 72  1  0  0  0  0
 29 21  1  0  0  0  0
 29 73  1  0  0  0  0
 30 29  1  0  0  0  0
 30 31  1  0  0  0  0
 30 74  1  1  0  0  0
 31 32  1  0  0  0  0
 31 75  1  0  0  0  0
 31 76  1  0  0  0  0
 32 34  1  0  0  0  0
 32 33  1  0  0  0  0
 32 77  1  0  0  0  0
 33 78  1  0  0  0  0
 33 79  1  0  0  0  0
 33 80  1  0  0  0  0
 34 81  1  0  0  0  0
 34 82  1  0  0  0  0
 34 83  1  0  0  0  0
 35 30  1  0  0  0  0
 35 36  1  0  0  0  0
 35 84  1  1  0  0  0
 36 85  1  0  0  0  0
 37 35  1  0  0  0  0
 37 86  1  0  0  0  0
 37 87  1  0  0  0  0
 38 37  1  0  0  0  0
 38 39  2  0  0  0  0
 38 40  1  0  0  0  0
 40 41  1  0  0  0  0
 40 88  1  0  0  0  0
 41 42  1  0  0  0  0
 41 44  1  0  0  0  0
 41 89  1  1  0  0  0
 42 43  2  0  0  0  0
 42 90  1  0  0  0  0
 44 45  1  0  0  0  0
 44 91  1  0  0  0  0
 44 92  1  0  0  0  0
 45 47  1  0  0  0  0
 45 46  1  0  0  0  0
 45 93  1  0  0  0  0
 46 94  1  0  0  0  0
 46 95  1  0  0  0  0
 46 96  1  0  0  0  0
 47 97  1  0  0  0  0
 47 98  1  0  0  0  0
 47 99  1  0  0  0  0
M  CHG  1   1   1
M  END
