4as9_ligand
 OpenBabel08222323353D

 83 84  0  0  1  0  0  0  0  0999 V2000
  -18.7540   34.1500   -1.6530 C   0  0  0  0  0  0  0  0  0  0  0  0
  -19.8890   34.7320   -2.3450 O   0  0  0  0  0  0  0  0  0  0  0  0
  -20.7300   33.8530   -3.1350 C   0  0  1  0  0  0  0  0  0  0  0  0
  -21.9580   34.5110   -3.1650 C   0  0  0  0  0  0  0  0  0  0  0  0
  -22.6140   34.8910   -2.0050 C   0  0  0  0  0  0  0  0  0  0  0  0
  -23.9290   35.3310   -2.1110 C   0  0  0  0  0  0  0  0  0  0  0  0
  -24.9710   34.8140   -1.3430 C   0  0  0  0  0  0  0  0  0  0  0  0
  -25.4450   35.5630   -0.2750 C   0  0  0  0  0  0  0  0  0  0  0  0
  -25.3680   33.4840   -1.4590 C   0  0  0  0  0  0  0  0  0  0  0  0
  -25.6000   32.8360   -0.4370 O   0  0  0  0  0  0  0  0  0  0  0  0
  -26.1630   33.0910   -2.5160 N   0  0  0  0  0  0  0  0  0  0  0  0
  -25.9540   33.2960   -3.8760 C   0  0  0  0  0  0  0  0  0  0  0  0
  -26.3030   34.5590   -4.3810 C   0  0  0  0  0  0  0  0  0  0  0  0
  -26.7260   35.4240   -3.6030 O   0  0  0  0  0  0  0  0  0  0  0  0
  -25.4680   32.2710   -4.7220 C   0  0  0  0  0  0  0  0  0  0  0  0
  -25.1190   31.0050   -4.2450 C   0  0  0  0  0  0  0  0  0  0  0  0
  -25.3170   32.5450   -6.0890 C   0  0  0  0  0  0  0  0  0  0  0  0
  -24.8860   31.6850   -6.8550 O   0  0  0  0  0  0  0  0  0  0  0  0
  -25.6540   33.8110   -6.5820 C   0  0  0  0  0  0  0  0  0  0  0  0
  -25.4940   34.0370   -7.9180 O   0  0  0  0  0  0  0  0  0  0  0  0
  -26.7180   33.7820   -8.6270 C   0  0  0  0  0  0  0  0  0  0  0  0
  -26.1330   34.8400   -5.7550 C   0  0  0  0  0  0  0  0  0  0  0  0
  -26.4340   36.1230   -6.2660 C   0  0  0  0  0  0  0  0  0  0  0  0
  -25.1690   37.0800   -6.2400 C   0  0  1  0  0  0  0  0  0  0  0  0
  -24.6360   37.2800   -4.8160 C   0  0  0  0  0  0  0  0  0  0  0  0
  -24.0500   36.5870   -7.2180 C   0  0  0  0  0  0  0  0  0  0  0  0
  -22.6490   37.2540   -7.0610 C   0  0  2  0  0  0  0  0  0  0  0  0
  -22.7280   38.6990   -7.2570 O   0  0  0  0  0  0  0  0  0  0  0  0
  -21.4650   39.4310   -7.2750 C   0  0  0  0  0  0  0  0  0  0  0  0
  -21.6300   36.7100   -8.0770 C   0  0  2  0  0  0  0  0  0  0  0  0
  -22.2910   36.4380   -9.3830 O   0  0  0  0  0  0  0  0  0  0  0  0
  -20.6720   35.5520   -7.5460 C   0  0  1  0  0  0  0  0  0  0  0  0
  -21.5300   32.6630   -6.3100 C   0  0  0  0  0  0  0  0  0  0  0  0
  -20.9620   35.0180   -6.2460 C   0  0  0  0  0  0  0  0  0  0  0  0
  -20.8500   33.7120   -5.7150 C   0  0  0  0  0  0  0  0  0  0  0  0
  -20.5350   34.4740   -8.6230 C   0  0  0  0  0  0  0  0  0  0  0  0
  -20.1260   33.3880   -4.5510 C   0  0  1  0  0  0  0  0  0  0  0  0
  -18.7770   33.8110   -4.7640 O   0  0  0  0  0  0  0  0  0  0  0  0
  -17.7350   32.9170   -4.8730 C   0  0  0  0  0  0  0  0  0  0  0  0
  -16.7810   33.2140   -5.6040 O   0  0  0  0  0  0  0  0  0  0  0  0
  -17.7050   31.7740   -4.1770 N   0  0  0  0  0  0  0  0  0  0  0  0
  -18.2181   34.9366   -1.1016 H   0  0  0  0  0  0  0  0  0  0  0  0
  -18.0754   33.6883   -2.3853 H   0  0  0  0  0  0  0  0  0  0  0  0
  -19.1081   33.3840   -0.9474 H   0  0  0  0  0  0  0  0  0  0  0  0
  -20.8683   32.9234   -2.5634 H   0  0  0  0  0  0  0  0  0  0  0  0
  -22.4154   34.7330   -4.1280 H   0  0  0  0  0  0  0  0  0  0  0  0
  -22.1143   34.8464   -1.0384 H   0  0  0  0  0  0  0  0  0  0  0  0
  -24.2180   35.1695   -3.1600 H   0  0  0  0  0  0  0  0  0  0  0  0
  -23.9045   36.4102   -1.8994 H   0  0  0  0  0  0  0  0  0  0  0  0
  -26.2584   35.1805    0.3399 H   0  0  0  0  0  0  0  0  0  0  0  0
  -25.0036   36.5332   -0.0519 H   0  0  0  0  0  0  0  0  0  0  0  0
  -26.9967   32.5950   -2.2732 H   0  0  0  0  0  0  0  0  0  0  0  0
  -25.2978   30.9597   -3.1606 H   0  0  0  0  0  0  0  0  0  0  0  0
  -24.0547   30.8168   -4.4492 H   0  0  0  0  0  0  0  0  0  0  0  0
  -25.7298   30.2418   -4.7495 H   0  0  0  0  0  0  0  0  0  0  0  0
  -26.5662   33.9702   -9.7001 H   0  0  0  0  0  0  0  0  0  0  0  0
  -27.5076   34.4466   -8.2463 H   0  0  0  0  0  0  0  0  0  0  0  0
  -27.0170   32.7341   -8.4773 H   0  0  0  0  0  0  0  0  0  0  0  0
  -27.2318   36.5711   -5.6555 H   0  0  0  0  0  0  0  0  0  0  0  0
  -26.7810   36.0200   -7.3047 H   0  0  0  0  0  0  0  0  0  0  0  0
  -25.5016   38.0645   -6.6007 H   0  0  0  0  0  0  0  0  0  0  0  0
  -23.7621   37.9475   -4.8420 H   0  0  0  0  0  0  0  0  0  0  0  0
  -24.3421   36.3074   -4.3945 H   0  0  0  0  0  0  0  0  0  0  0  0
  -25.4215   37.7286   -4.1901 H   0  0  0  0  0  0  0  0  0  0  0  0
  -24.3967   36.7743   -8.2450 H   0  0  0  0  0  0  0  0  0  0  0  0
  -23.9246   35.5050   -7.0650 H   0  0  0  0  0  0  0  0  0  0  0  0
  -22.2834   37.0479   -6.0442 H   0  0  0  0  0  0  0  0  0  0  0  0
  -21.6640   40.5018   -7.4290 H   0  0  0  0  0  0  0  0  0  0  0  0
  -20.8342   39.0539   -8.0935 H   0  0  0  0  0  0  0  0  0  0  0  0
  -20.9451   39.2889   -6.3161 H   0  0  0  0  0  0  0  0  0  0  0  0
  -20.9482   37.5508   -8.2721 H   0  0  0  0  0  0  0  0  0  0  0  0
  -21.6489   36.1032   -9.9980 H   0  0  0  0  0  0  0  0  0  0  0  0
  -19.6790   36.0142   -7.4449 H   0  0  0  0  0  0  0  0  0  0  0  0
  -22.1126   32.8347   -7.2139 H   0  0  0  0  0  0  0  0  0  0  0  0
  -21.4823   31.6662   -5.8741 H   0  0  0  0  0  0  0  0  0  0  0  0
  -22.0220   35.2694   -6.0934 H   0  0  0  0  0  0  0  0  0  0  0  0
  -20.3403   35.6256   -5.5720 H   0  0  0  0  0  0  0  0  0  0  0  0
  -20.3139   34.9484   -9.5905 H   0  0  0  0  0  0  0  0  0  0  0  0
  -21.4758   33.9091   -8.6981 H   0  0  0  0  0  0  0  0  0  0  0  0
  -19.7167   33.7896   -8.3548 H   0  0  0  0  0  0  0  0  0  0  0  0
  -20.1107   32.2893   -4.5009 H   0  0  0  0  0  0  0  0  0  0  0  0
  -16.9332   31.1464   -4.2793 H   0  0  0  0  0  0  0  0  0  0  0  0
  -18.4544   31.5477   -3.5547 H   0  0  0  0  0  0  0  0  0  0  0  0
  1 42  1  0  0  0  0
  1 43  1  0  0  0  0
  1 44  1  0  0  0  0
  2  1  1  0  0  0  0
  3  2  1  0  0  0  0
  3 37  1  0  0  0  0
  3 45  1  1  0  0  0
  4  3  1  0  0  0  0
  4 46  1  0  0  0  0
  5  4  2  0  0  0  0
  5 47  1  0  0  0  0
  6  5  1  0  0  0  0
  6 48  1  0  0  0  0
  6 49  1  0  0  0  0
  7  6  1  0  0  0  0
  7  8  2  0  0  0  0
  8 50  1  0  0  0  0
  8 51  1  0  0  0  0
  9  7  1  0  0  0  0
  9 10  2  0  0  0  0
 11  9  1  0  0  0  0
 11 52  1  0  0  0  0
 12 11  1  0  0  0  0
 12 15  2  0  0  0  0
 13 12  1  0  0  0  0
 13 14  2  0  0  0  0
 15 16  1  0  0  0  0
 16 53  1  0  0  0  0
 16 54  1  0  0  0  0
 16 55  1  0  0  0  0
 17 15  1  0  0  0  0
 17 18  2  0  0  0  0
 19 17  1  0  0  0  0
 19 20  1  0  0  0  0
 20 21  1  0  0  0  0
 21 56  1  0  0  0  0
 21 57  1  0  0  0  0
 21 58  1  0  0  0  0
 22 13  1  0  0  0  0
 22 19  2  0  0  0  0
 23 22  1  0  0  0  0
 23 59  1  0  0  0  0
 23 60  1  0  0  0  0
 24 23  1  0  0  0  0
 24 25  1  0  0  0  0
 24 61  1  6  0  0  0
 25 62  1  0  0  0  0
 25 63  1  0  0  0  0
 25 64  1  0  0  0  0
 26 24  1  0  0  0  0
 26 65  1  0  0  0  0
 26 66  1  0  0  0  0
 27 26  1  0  0  0  0
 27 28  1  0  0  0  0
 27 67  1  1  0  0  0
 28 29  1  0  0  0  0
 29 68  1  0  0  0  0
 29 69  1  0  0  0  0
 29 70  1  0  0  0  0
 30 27  1  0  0  0  0
 30 31  1  0  0  0  0
 30 71  1  6  0  0  0
 31 72  1  0  0  0  0
 32 30  1  0  0  0  0
 32 36  1  0  0  0  0
 32 73  1  1  0  0  0
 33 74  1  0  0  0  0
 33 75  1  0  0  0  0
 34 32  1  0  0  0  0
 34 35  1  0  0  0  0
 34 76  1  0  0  0  0
 34 77  1  0  0  0  0
 35 33  2  0  0  0  0
 35 37  1  0  0  0  0
 36 78  1  0  0  0  0
 36 79  1  0  0  0  0
 36 80  1  0  0  0  0
 37 38  1  0  0  0  0
 37 81  1  1  0  0  0
 38 39  1  0  0  0  0
 39 40  2  0  0  0  0
 39 41  1  0  0  0  0
 41 82  1  0  0  0  0
 41 83  1  0  0  0  0
M  END
