4asy_ligand
 OpenBabel08222323353D

 44 46  0  0  1  0  0  0  0  0999 V2000
   13.4760   -0.1410    3.1730 C   0  0  0  0  0  0  0  0  0  0  0  0
   14.4790    0.8030    2.9490 C   0  0  0  0  0  0  0  0  0  0  0  0
   15.6340    0.7780    3.7270 C   0  0  0  0  0  0  0  0  0  0  0  0
   15.7760   -0.2020    4.7010 C   0  0  0  0  0  0  0  0  0  0  0  0
   14.7810   -1.1470    4.9300 C   0  0  0  0  0  0  0  0  0  0  0  0
   13.6130   -1.1150    4.1740 C   0  0  0  0  0  0  0  0  0  0  0  0
   12.5490   -2.0280    4.3110 C   0  0  0  0  0  0  0  0  0  0  0  0
   12.3810   -2.8770    5.5620 N   0  0  0  0  0  0  0  0  0  0  0  0
   11.4100   -2.5800    6.4510 C   0  0  0  0  0  0  0  0  0  0  0  0
   10.6350   -1.4870    6.3140 N   0  0  0  0  0  0  0  0  0  0  0  0
   13.1230   -4.0010    5.7270 C   0  0  0  0  0  0  0  0  0  0  0  0
   13.9910   -4.2800    4.8940 O   0  0  0  0  0  0  0  0  0  0  0  0
   12.9440   -4.8520    6.8430 N   0  0  0  0  0  0  0  0  0  0  0  0
   11.9570   -4.5400    7.8060 C   0  0  0  0  0  0  0  0  0  0  0  0
   11.8020   -5.2620    8.7960 O   0  0  0  0  0  0  0  0  0  0  0  0
   11.2050   -3.3680    7.5970 C   0  0  2  0  0  0  0  0  0  0  0  0
   10.2030   -3.0410    8.4400 N   0  0  0  0  0  0  0  0  0  0  0  0
    9.2810   -2.5090   10.4160 O   0  0  0  0  0  0  0  0  0  0  0  0
   10.2980   -2.7160    9.7520 C   0  0  0  0  0  0  0  0  0  0  0  0
   11.5410   -2.5870   10.3840 C   0  0  0  0  0  0  0  0  0  0  0  0
   12.6490   -1.9760    9.7780 C   0  0  0  0  0  0  0  0  0  0  0  0
   13.8470   -1.8470   10.4830 C   0  0  0  0  0  0  0  0  0  0  0  0
   13.9350   -2.3200   11.7890 C   0  0  0  0  0  0  0  0  0  0  0  0
   12.8410   -2.9050   12.4000 C   0  0  0  0  0  0  0  0  0  0  0  0
    8.8290   -3.1820    7.9170 C   0  0  0  0  0  0  0  0  0  0  0  0
   11.6460   -3.0410   11.7040 C   0  0  0  0  0  0  0  0  0  0  0  0
   12.5785   -0.1217    2.5653 H   0  0  0  0  0  0  0  0  0  0  0  0
   14.3599    1.5515    2.1740 H   0  0  0  0  0  0  0  0  0  0  0  0
   16.4137    1.5154    3.5740 H   0  0  0  0  0  0  0  0  0  0  0  0
   16.6819   -0.2311    5.2957 H   0  0  0  0  0  0  0  0  0  0  0  0
   14.9149   -1.9046    5.6936 H   0  0  0  0  0  0  0  0  0  0  0  0
   12.6340   -2.7309    3.4692 H   0  0  0  0  0  0  0  0  0  0  0  0
   11.6235   -1.4425    4.2078 H   0  0  0  0  0  0  0  0  0  0  0  0
    9.9170   -1.2898    6.9935 H   0  0  0  0  0  0  0  0  0  0  0  0
   13.5116   -5.6684    6.9499 H   0  0  0  0  0  0  0  0  0  0  0  0
   11.9275   -2.7719    8.1738 H   0  0  0  0  0  0  0  0  0  0  0  0
   12.5749   -1.6041    8.7625 H   0  0  0  0  0  0  0  0  0  0  0  0
   14.7059   -1.3800   10.0148 H   0  0  0  0  0  0  0  0  0  0  0  0
   14.8689   -2.2291   12.3318 H   0  0  0  0  0  0  0  0  0  0  0  0
   12.9157   -3.2576   13.4223 H   0  0  0  0  0  0  0  0  0  0  0  0
    8.1088   -2.8868    8.6943 H   0  0  0  0  0  0  0  0  0  0  0  0
    8.6512   -4.2292    7.6310 H   0  0  0  0  0  0  0  0  0  0  0  0
    8.7037   -2.5350    7.0363 H   0  0  0  0  0  0  0  0  0  0  0  0
   10.7908   -3.5010   12.1857 H   0  0  0  0  0  0  0  0  0  0  0  0
  1  2  2  0  0  0  0
  1  6  1  0  0  0  0
  1 27  1  0  0  0  0
  2  3  1  0  0  0  0
  2 28  1  0  0  0  0
  3  4  2  0  0  0  0
  3 29  1  0  0  0  0
  4  5  1  0  0  0  0
  4 30  1  0  0  0  0
  5  6  2  0  0  0  0
  5 31  1  0  0  0  0
  6  7  1  0  0  0  0
  7  8  1  0  0  0  0
  7 32  1  0  0  0  0
  7 33  1  0  0  0  0
  8  9  1  0  0  0  0
  8 11  1  0  0  0  0
  9 10  2  0  0  0  0
  9 16  1  0  0  0  0
 10 34  1  0  0  0  0
 11 12  2  0  0  0  0
 11 13  1  0  0  0  0
 13 14  1  0  0  0  0
 13 35  1  0  0  0  0
 14 15  2  0  0  0  0
 14 16  1  0  0  0  0
 16 17  1  0  0  0  0
 16 36  1  1  0  0  0
 17 19  1  0  0  0  0
 17 25  1  0  0  0  0
 19 18  2  0  0  0  0
 19 20  1  0  0  0  0
 20 21  2  0  0  0  0
 20 26  1  0  0  0  0
 21 22  1  0  0  0  0
 21 37  1  0  0  0  0
 22 23  2  0  0  0  0
 22 38  1  0  0  0  0
 23 24  1  0  0  0  0
 23 39  1  0  0  0  0
 24 26  2  0  0  0  0
 24 40  1  0  0  0  0
 25 41  1  0  0  0  0
 25 42  1  0  0  0  0
 25 43  1  0  0  0  0
 26 44  1  0  0  0  0
M  END
