4awj_ligand
 OpenBabel08222323353D

 27 27  0  0  1  0  0  0  0  0999 V2000
   -9.9740   31.7170    0.9150 O   0  0  0  0  0  0  0  0  0  0  0  0
   -8.6380   31.4420    1.2880 C   0  0  2  0  0  0  0  0  0  0  0  0
   -8.2020   32.5390    2.2520 C   0  0  0  0  0  0  0  0  0  0  0  0
   -7.6640   33.6770    1.3810 C   0  0  1  0  0  0  0  0  0  0  0  0
   -6.3270   34.1510    1.9590 C   0  0  0  0  0  0  0  0  0  0  0  0
   -6.4410   35.1790    2.9160 N   0  0  0  0  0  0  0  0  0  0  0  0
   -5.2150   35.6780    3.5060 C   0  0  0  0  0  0  0  0  0  0  0  0
   -5.2520   33.7000    1.6380 O   0  0  0  0  0  0  0  0  0  0  0  0
   -7.4510   33.0820    0.0410 N   0  0  0  0  0  0  0  0  0  0  0  0
   -7.0030   33.8680   -1.0410 C   0  0  0  0  0  0  0  0  0  0  0  0
   -6.8150   33.1780   -2.3750 C   0  0  0  0  0  0  0  0  0  0  0  0
   -6.7820   35.0570   -0.8780 O   0  0  0  0  0  0  0  0  0  0  0  0
   -7.7710   31.6520    0.0360 C   0  0  0  0  0  0  0  0  0  0  0  0
  -10.2771   31.0487    0.3117 H   0  0  0  0  0  0  0  0  0  0  0  0
   -8.5263   30.4349    1.7162 H   0  0  0  0  0  0  0  0  0  0  0  0
   -7.4144   32.1667    2.9237 H   0  0  0  0  0  0  0  0  0  0  0  0
   -9.0585   32.8864    2.8483 H   0  0  0  0  0  0  0  0  0  0  0  0
   -8.3774   34.5129    1.3323 H   0  0  0  0  0  0  0  0  0  0  0  0
   -7.3323   35.5494    3.1776 H   0  0  0  0  0  0  0  0  0  0  0  0
   -5.4529   36.4714    4.2299 H   0  0  0  0  0  0  0  0  0  0  0  0
   -4.5669   36.0850    2.7158 H   0  0  0  0  0  0  0  0  0  0  0  0
   -4.6946   34.8565    4.0202 H   0  0  0  0  0  0  0  0  0  0  0  0
   -6.4651   33.9083   -3.1194 H   0  0  0  0  0  0  0  0  0  0  0  0
   -7.7729   32.7491   -2.7042 H   0  0  0  0  0  0  0  0  0  0  0  0
   -6.0703   32.3752   -2.2709 H   0  0  0  0  0  0  0  0  0  0  0  0
   -8.3297   31.3827   -0.8725 H   0  0  0  0  0  0  0  0  0  0  0  0
   -6.8530   31.0489    0.0942 H   0  0  0  0  0  0  0  0  0  0  0  0
  1  2  1  0  0  0  0
  1 14  1  0  0  0  0
  2  3  1  0  0  0  0
  2 13  1  0  0  0  0
  2 15  1  1  0  0  0
  3  4  1  0  0  0  0
  3 16  1  0  0  0  0
  3 17  1  0  0  0  0
  4  5  1  0  0  0  0
  4  9  1  0  0  0  0
  4 18  1  6  0  0  0
  5  6  1  0  0  0  0
  5  8  2  0  0  0  0
  6  7  1  0  0  0  0
  6 19  1  0  0  0  0
  7 20  1  0  0  0  0
  7 21  1  0  0  0  0
  7 22  1  0  0  0  0
  9 10  1  0  0  0  0
  9 13  1  0  0  0  0
 10 11  1  0  0  0  0
 10 12  2  0  0  0  0
 11 23  1  0  0  0  0
 11 24  1  0  0  0  0
 11 25  1  0  0  0  0
 13 26  1  0  0  0  0
 13 27  1  0  0  0  0
M  END
