4awo_ligand
 OpenBabel08222323353D

 74 78  0  0  1  0  0  0  0  0999 V2000
  -12.4130  -18.4330  -13.4730 C   0  0  1  0  0  0  0  0  0  0  0  0
  -11.8470  -19.8200  -13.4220 N   0  0  0  0  0  0  0  0  0  0  0  0
   -9.2640  -18.9960  -18.0480 O   0  0  0  0  0  0  0  0  0  0  0  0
  -13.8250  -18.3280  -14.0950 C   0  0  0  0  0  0  0  0  0  0  0  0
  -10.9820  -20.1240  -19.0090 N   0  0  0  0  0  0  0  0  0  0  0  0
   -9.5380  -16.1540  -27.7600 O   0  0  0  0  0  0  0  0  0  0  0  0
  -14.7960  -19.3820  -13.6050 C   0  0  0  0  0  0  0  0  0  0  0  0
  -10.6780  -20.1420  -23.0280 N   0  0  0  0  0  0  0  0  0  0  0  0
  -13.1150  -22.2690  -12.8600 O   0  0  0  0  0  0  0  0  0  0  0  0
  -12.5220  -17.8390  -12.0620 C   0  0  0  0  0  0  0  0  0  0  0  0
   -9.6050  -18.6750  -24.5420 N   0  0  0  0  0  0  0  0  0  0  0  0
  -11.4180  -20.5080  -14.5390 C   0  0  0  0  0  0  0  0  0  0  0  0
  -11.4510  -23.7850  -12.8800 N   0  0  0  0  0  0  0  0  0  0  0  0
  -10.9510  -19.8110  -15.6440 C   0  0  0  0  0  0  0  0  0  0  0  0
  -10.5460  -20.5750  -16.7440 C   0  0  0  0  0  0  0  0  0  0  0  0
  -10.1240  -19.8460  -17.9970 C   0  0  0  0  0  0  0  0  0  0  0  0
  -10.8570  -19.6320  -20.4000 C   0  0  2  0  0  0  0  0  0  0  0  0
   -9.5150  -19.2600  -21.0810 C   0  0  0  0  0  0  0  0  0  0  0  0
   -9.4940  -20.4210  -22.1590 C   0  0  1  0  0  0  0  0  0  0  0  0
  -11.8660  -20.5680  -22.3070 C   0  0  2  0  0  0  0  0  0  0  0  0
  -12.1250  -19.4110  -21.2160 C   0  0  0  0  0  0  0  0  0  0  0  0
  -11.4730  -21.9460  -21.6780 C   0  0  0  0  0  0  0  0  0  0  0  0
   -9.8800  -21.8430  -21.5870 C   0  0  0  0  0  0  0  0  0  0  0  0
  -10.7270  -19.3150  -24.1740 C   0  0  0  0  0  0  0  0  0  0  0  0
   -9.5460  -17.8530  -25.5800 C   0  0  0  0  0  0  0  0  0  0  0  0
  -10.7370  -17.6000  -26.2570 C   0  0  0  0  0  0  0  0  0  0  0  0
  -10.6490  -16.6160  -27.4190 C   0  0  0  0  0  0  0  0  0  0  0  0
  -12.0090  -16.1600  -28.0020 C   0  0  0  0  0  0  0  0  0  0  0  0
  -12.1400  -14.6500  -28.0650 C   0  0  0  0  0  0  0  0  0  0  0  0
  -12.0110  -15.4470  -29.3820 C   0  0  0  0  0  0  0  0  0  0  0  0
  -11.9970  -19.0850  -24.7850 C   0  0  0  0  0  0  0  0  0  0  0  0
  -11.9580  -18.1910  -25.8750 C   0  0  0  0  0  0  0  0  0  0  0  0
  -11.4420  -21.9060  -14.5090 C   0  0  0  0  0  0  0  0  0  0  0  0
  -12.0220  -22.6580  -13.3060 C   0  0  0  0  0  0  0  0  0  0  0  0
  -11.0590  -22.6670  -15.6160 C   0  0  0  0  0  0  0  0  0  0  0  0
  -10.6380  -21.9860  -16.7350 C   0  0  0  0  0  0  0  0  0  0  0  0
  -10.2260  -22.8490  -17.9450 C   0  0  0  0  0  0  0  0  0  0  0  0
  -11.7250  -17.8180  -14.0716 H   0  0  0  0  0  0  0  0  0  0  0  0
  -11.7744  -20.2840  -12.5053 H   0  0  0  0  0  0  0  0  0  0  0  0
  -13.7300  -18.4265  -15.1864 H   0  0  0  0  0  0  0  0  0  0  0  0
  -14.2375  -17.3380  -13.8507 H   0  0  0  0  0  0  0  0  0  0  0  0
  -11.7645  -20.7101  -18.7986 H   0  0  0  0  0  0  0  0  0  0  0  0
  -15.7711  -19.2375  -14.0932 H   0  0  0  0  0  0  0  0  0  0  0  0
  -14.9149  -19.2927  -12.5151 H   0  0  0  0  0  0  0  0  0  0  0  0
  -14.4074  -20.3812  -13.8509 H   0  0  0  0  0  0  0  0  0  0  0  0
  -12.9389  -16.8229  -12.1232 H   0  0  0  0  0  0  0  0  0  0  0  0
  -11.5232  -17.7985  -11.6030 H   0  0  0  0  0  0  0  0  0  0  0  0
  -13.1821  -18.4698  -11.4486 H   0  0  0  0  0  0  0  0  0  0  0  0
  -10.5708  -24.0731  -13.2571 H   0  0  0  0  0  0  0  0  0  0  0  0
  -11.9029  -24.3422  -12.1834 H   0  0  0  0  0  0  0  0  0  0  0  0
  -10.9023  -18.7281  -15.6546 H   0  0  0  0  0  0  0  0  0  0  0  0
  -10.7655  -20.6670  -20.7611 H   0  0  0  0  0  0  0  0  0  0  0  0
   -8.6638  -19.3191  -20.3868 H   0  0  0  0  0  0  0  0  0  0  0  0
   -9.5433  -18.2619  -21.5425 H   0  0  0  0  0  0  0  0  0  0  0  0
   -8.5369  -20.4430  -22.7006 H   0  0  0  0  0  0  0  0  0  0  0  0
  -12.7393  -20.6789  -22.9665 H   0  0  0  0  0  0  0  0  0  0  0  0
  -12.1646  -18.4088  -21.6678 H   0  0  0  0  0  0  0  0  0  0  0  0
  -13.0385  -19.5847  -20.6283 H   0  0  0  0  0  0  0  0  0  0  0  0
  -11.7810  -22.7806  -22.3249 H   0  0  0  0  0  0  0  0  0  0  0  0
  -11.9209  -22.0701  -20.6810 H   0  0  0  0  0  0  0  0  0  0  0  0
   -9.5516  -21.9349  -20.5412 H   0  0  0  0  0  0  0  0  0  0  0  0
   -9.4121  -22.6357  -22.1893 H   0  0  0  0  0  0  0  0  0  0  0  0
   -8.6120  -17.3975  -25.8886 H   0  0  0  0  0  0  0  0  0  0  0  0
  -12.8340  -16.8218  -27.6997 H   0  0  0  0  0  0  0  0  0  0  0  0
  -11.3088  -14.0139  -27.7266 H   0  0  0  0  0  0  0  0  0  0  0  0
  -13.0964  -14.1723  -27.8058 H   0  0  0  0  0  0  0  0  0  0  0  0
  -12.8748  -15.5469  -30.0556 H   0  0  0  0  0  0  0  0  0  0  0  0
  -11.0873  -15.3885  -29.9764 H   0  0  0  0  0  0  0  0  0  0  0  0
  -12.9107  -19.5562  -24.4412 H   0  0  0  0  0  0  0  0  0  0  0  0
  -12.8666  -17.9586  -26.4186 H   0  0  0  0  0  0  0  0  0  0  0  0
  -11.0921  -23.7503  -15.5943 H   0  0  0  0  0  0  0  0  0  0  0  0
   -9.9110  -22.1950  -18.7715 H   0  0  0  0  0  0  0  0  0  0  0  0
  -11.0814  -23.4609  -18.2673 H   0  0  0  0  0  0  0  0  0  0  0  0
   -9.3917  -23.5065  -17.6594 H   0  0  0  0  0  0  0  0  0  0  0  0
  1  4  1  0  0  0  0
  1 10  1  0  0  0  0
  1 38  1  6  0  0  0
  2  1  1  0  0  0  0
  2 39  1  0  0  0  0
  4  7  1  0  0  0  0
  4 40  1  0  0  0  0
  4 41  1  0  0  0  0
  5 17  1  0  0  0  0
  5 42  1  0  0  0  0
  7 43  1  0  0  0  0
  7 44  1  0  0  0  0
  7 45  1  0  0  0  0
  8 24  1  0  0  0  0
 10 46  1  0  0  0  0
 10 47  1  0  0  0  0
 10 48  1  0  0  0  0
 11 25  1  0  0  0  0
 12  2  1  0  0  0  0
 12 14  2  0  0  0  0
 13 49  1  0  0  0  0
 13 50  1  0  0  0  0
 14 15  1  0  0  0  0
 14 51  1  0  0  0  0
 15 16  1  0  0  0  0
 15 36  2  0  0  0  0
 16  3  2  0  0  0  0
 16  5  1  0  0  0  0
 17 18  1  0  0  0  0
 17 21  1  0  0  0  0
 17 52  1  6  0  0  0
 18 19  1  0  0  0  0
 18 53  1  0  0  0  0
 18 54  1  0  0  0  0
 19  8  1  0  0  0  0
 19 23  1  0  0  0  0
 19 55  1  6  0  0  0
 20  8  1  0  0  0  0
 20 22  1  0  0  0  0
 20 56  1  6  0  0  0
 21 20  1  0  0  0  0
 21 57  1  0  0  0  0
 21 58  1  0  0  0  0
 22 23  1  0  0  0  0
 22 59  1  0  0  0  0
 22 60  1  0  0  0  0
 23 61  1  0  0  0  0
 23 62  1  0  0  0  0
 24 11  2  0  0  0  0
 24 31  1  0  0  0  0
 25 26  2  0  0  0  0
 25 63  1  0  0  0  0
 26 27  1  0  0  0  0
 27  6  2  0  0  0  0
 27 28  1  0  0  0  0
 28 29  1  0  0  0  0
 28 30  1  0  0  0  0
 28 64  1  0  0  0  0
 29 65  1  0  0  0  0
 29 66  1  0  0  0  0
 30 29  1  0  0  0  0
 30 67  1  0  0  0  0
 30 68  1  0  0  0  0
 31 32  2  0  0  0  0
 31 69  1  0  0  0  0
 32 26  1  0  0  0  0
 32 70  1  0  0  0  0
 33 12  1  0  0  0  0
 33 34  1  0  0  0  0
 33 35  2  0  0  0  0
 34  9  2  0  0  0  0
 34 13  1  0  0  0  0
 35 36  1  0  0  0  0
 35 71  1  0  0  0  0
 36 37  1  0  0  0  0
 37 72  1  0  0  0  0
 37 73  1  0  0  0  0
 37 74  1  0  0  0  0
M  END
