4axa_ligand
 OpenBabel08222323353D

 39 41  0  0  1  0  0  0  0  0999 V2000
   10.3670    7.2050    3.8540 N   0  3  0  0  0  0  0  0  0  0  0  0
   11.0950    8.1630    2.9800 C   0  0  0  0  0  0  0  0  0  0  0  0
   11.4510   10.5790    2.2470 C   0  0  0  0  0  0  0  0  0  0  0  0
   11.8940   11.8410    2.6190 C   0  0  0  0  0  0  0  0  0  0  0  0
   12.4950   12.6720    1.7070 C   0  0  0  0  0  0  0  0  0  0  0  0
   12.6610   12.2550    0.4180 C   0  0  0  0  0  0  0  0  0  0  0  0
   11.2700    9.9320    4.5830 O   0  0  0  0  0  0  0  0  0  0  0  0
   13.4240   13.3150   -0.7320 Cl  0  0  0  0  0  0  0  0  0  0  0  0
   12.2360   11.0150    0.0160 C   0  0  0  0  0  0  0  0  0  0  0  0
   11.6300   10.1750    0.9290 C   0  0  0  0  0  0  0  0  0  0  0  0
    9.2450    9.7410    3.2550 C   0  0  0  0  0  0  0  0  0  0  0  0
    8.5300    9.4390    2.1050 C   0  0  0  0  0  0  0  0  0  0  0  0
    7.1470    9.5100    2.0910 C   0  0  0  0  0  0  0  0  0  0  0  0
    6.4360    9.8880    3.2290 C   0  0  0  0  0  0  0  0  0  0  0  0
    7.1570   10.1890    4.3810 C   0  0  0  0  0  0  0  0  0  0  0  0
    8.5360   10.1170    4.3920 C   0  0  0  0  0  0  0  0  0  0  0  0
    4.9570    9.9600    3.2070 C   0  0  0  0  0  0  0  0  0  0  0  0
    4.1100   10.0260    4.3000 C   0  0  0  0  0  0  0  0  0  0  0  0
    2.8350   10.0770    3.9340 N   0  0  0  0  0  0  0  0  0  0  0  0
    2.8710   10.0410    2.5840 N   0  0  0  0  0  0  0  0  0  0  0  0
    4.1250    9.9700    2.1200 C   0  0  0  0  0  0  0  0  0  0  0  0
   10.7820    9.6600    3.2710 C   0  0  2  0  0  0  0  0  0  0  0  0
   10.6220    6.2622    3.6046 H   0  0  0  0  0  0  0  0  0  0  0  0
    9.3738    7.3276    3.7329 H   0  0  0  0  0  0  0  0  0  0  0  0
   10.6118    7.3757    4.8168 H   0  0  0  0  0  0  0  0  0  0  0  0
   10.8237    7.9510    1.9353 H   0  0  0  0  0  0  0  0  0  0  0  0
   12.1746    8.0036    3.1181 H   0  0  0  0  0  0  0  0  0  0  0  0
   11.7636   12.1741    3.6423 H   0  0  0  0  0  0  0  0  0  0  0  0
   12.8364   13.6555    2.0091 H   0  0  0  0  0  0  0  0  0  0  0  0
   12.2088    9.7884    4.6066 H   0  0  0  0  0  0  0  0  0  0  0  0
   12.3747   10.6965   -1.0108 H   0  0  0  0  0  0  0  0  0  0  0  0
   11.2916    9.1939    0.6159 H   0  0  0  0  0  0  0  0  0  0  0  0
    9.0602    9.1439    1.2067 H   0  0  0  0  0  0  0  0  0  0  0  0
    6.6092    9.2680    1.1814 H   0  0  0  0  0  0  0  0  0  0  0  0
    6.6293   10.4837    5.2809 H   0  0  0  0  0  0  0  0  0  0  0  0
    9.0751   10.3573    5.3012 H   0  0  0  0  0  0  0  0  0  0  0  0
    4.4487   10.0350    5.3350 H   0  0  0  0  0  0  0  0  0  0  0  0
    2.0343   10.0653    1.9838 H   0  0  0  0  0  0  0  0  0  0  0  0
    4.4264    9.9281    1.0744 H   0  0  0  0  0  0  0  0  0  0  0  0
  1 23  1  0  0  0  0
  1 24  1  0  0  0  0
  1 25  1  0  0  0  0
  2  1  1  0  0  0  0
  2 26  1  0  0  0  0
  2 27  1  0  0  0  0
  3  4  2  0  0  0  0
  3 10  1  0  0  0  0
  4  5  1  0  0  0  0
  4 28  1  0  0  0  0
  5  6  2  0  0  0  0
  5 29  1  0  0  0  0
  6  8  1  0  0  0  0
  7 30  1  0  0  0  0
  9  6  1  0  0  0  0
  9 31  1  0  0  0  0
 10  9  2  0  0  0  0
 10 32  1  0  0  0  0
 11 12  2  0  0  0  0
 11 16  1  0  0  0  0
 11 22  1  0  0  0  0
 12 13  1  0  0  0  0
 12 33  1  0  0  0  0
 13 14  2  0  0  0  0
 13 34  1  0  0  0  0
 14 15  1  0  0  0  0
 14 17  1  0  0  0  0
 15 16  2  0  0  0  0
 15 35  1  0  0  0  0
 16 36  1  0  0  0  0
 17 18  1  0  0  0  0
 17 21  2  0  0  0  0
 18 19  2  0  0  0  0
 18 37  1  0  0  0  0
 19 20  1  0  0  0  0
 20 21  1  0  0  0  0
 20 38  1  0  0  0  0
 21 39  1  0  0  0  0
 22  2  1  0  0  0  0
 22  3  1  0  0  0  0
 22  7  1  1  0  0  0
M  CHG  1   1   1
M  END
