4axm_ligand
 OpenBabel08222323353D

 56 59  0  0  0  0  0  0  0  0999 V2000
  -19.6990    8.2410  -30.4930 C   0  0  0  0  0  0  0  0  0  0  0  0
  -20.6110    7.6650  -31.2570 N   0  0  0  0  0  0  0  0  0  0  0  0
  -19.1890    7.6100  -29.2500 C   0  0  0  0  0  0  0  0  0  0  0  0
  -18.2450    8.2700  -28.5650 N   0  0  0  0  0  0  0  0  0  0  0  0
  -17.7800    7.7640  -27.4250 C   0  0  0  0  0  0  0  0  0  0  0  0
  -16.8100    8.5400  -26.7820 N   0  0  0  0  0  0  0  0  0  0  0  0
  -16.3470    9.8020  -27.3860 C   0  0  0  0  0  0  0  0  0  0  0  0
  -15.6690   10.6790  -26.3370 C   0  0  0  0  0  0  0  0  0  0  0  0
  -14.9110   11.7970  -27.0690 C   0  0  0  0  0  0  0  0  0  0  0  0
  -15.9150   12.6540  -27.8320 C   0  0  0  0  0  0  0  0  0  0  0  0
  -16.7540   11.7620  -28.7510 C   0  0  0  0  0  0  0  0  0  0  0  0
  -17.4570   10.6590  -27.9620 C   0  0  0  0  0  0  0  0  0  0  0  0
  -16.1520    8.1310  -25.5230 C   0  0  0  0  0  0  0  0  0  0  0  0
  -14.8780    7.4890  -25.9840 C   0  0  0  0  0  0  0  0  0  0  0  0
  -13.7760    8.2700  -26.3070 C   0  0  0  0  0  0  0  0  0  0  0  0
  -12.6170    7.6640  -26.7590 C   0  0  0  0  0  0  0  0  0  0  0  0
  -12.5680    6.2720  -26.8940 C   0  0  0  0  0  0  0  0  0  0  0  0
  -11.1080    5.4900  -27.4820 Cl  0  0  0  0  0  0  0  0  0  0  0  0
  -13.6730    5.4860  -26.5730 C   0  0  0  0  0  0  0  0  0  0  0  0
  -14.8270    6.1050  -26.1220 C   0  0  0  0  0  0  0  0  0  0  0  0
  -18.2240    6.6040  -26.9280 N   0  0  0  0  0  0  0  0  0  0  0  0
  -19.1690    5.9710  -27.6390 C   0  0  0  0  0  0  0  0  0  0  0  0
  -19.6780    4.7480  -27.1870 N   0  0  0  0  0  0  0  0  0  0  0  0
  -20.7260    4.0510  -27.9710 C   0  0  0  0  0  0  0  0  0  0  0  0
  -20.5380    2.5270  -27.9190 C   0  0  0  0  0  0  0  0  0  0  0  0
  -20.4180    2.0840  -26.5630 O   0  0  0  0  0  0  0  0  0  0  0  0
  -19.2460    2.5990  -25.9290 C   0  0  0  0  0  0  0  0  0  0  0  0
  -19.1950    4.1380  -25.9250 C   0  0  0  0  0  0  0  0  0  0  0  0
  -19.6660    6.4470  -28.7930 N   0  0  0  0  0  0  0  0  0  0  0  0
  -19.3075    9.2140  -30.7862 H   0  0  0  0  0  0  0  0  0  0  0  0
  -20.9317    8.1263  -32.0939 H   0  0  0  0  0  0  0  0  0  0  0  0
  -15.6322    9.5553  -28.1848 H   0  0  0  0  0  0  0  0  0  0  0  0
  -14.9644   10.0760  -25.7455 H   0  0  0  0  0  0  0  0  0  0  0  0
  -16.4267   11.1166  -25.6703 H   0  0  0  0  0  0  0  0  0  0  0  0
  -14.1911   11.3554  -27.7738 H   0  0  0  0  0  0  0  0  0  0  0  0
  -14.3740   12.4194  -26.3381 H   0  0  0  0  0  0  0  0  0  0  0  0
  -15.3766   13.3991  -28.4361 H   0  0  0  0  0  0  0  0  0  0  0  0
  -16.5751   13.1684  -27.1181 H   0  0  0  0  0  0  0  0  0  0  0  0
  -16.0956   11.3014  -29.5022 H   0  0  0  0  0  0  0  0  0  0  0  0
  -17.5112   12.3795  -29.2563 H   0  0  0  0  0  0  0  0  0  0  0  0
  -18.0662   11.0923  -27.1551 H   0  0  0  0  0  0  0  0  0  0  0  0
  -18.0991   10.0613  -28.6257 H   0  0  0  0  0  0  0  0  0  0  0  0
  -16.7753    7.4136  -24.9690 H   0  0  0  0  0  0  0  0  0  0  0  0
  -15.9441    9.0039  -24.8868 H   0  0  0  0  0  0  0  0  0  0  0  0
  -13.8235    9.3482  -26.2056 H   0  0  0  0  0  0  0  0  0  0  0  0
  -11.7501    8.2654  -27.0076 H   0  0  0  0  0  0  0  0  0  0  0  0
  -13.6301    4.4076  -26.6746 H   0  0  0  0  0  0  0  0  0  0  0  0
  -15.6968    5.5072  -25.8747 H   0  0  0  0  0  0  0  0  0  0  0  0
  -20.6715    4.3836  -29.0181 H   0  0  0  0  0  0  0  0  0  0  0  0
  -21.7127    4.3050  -27.5564 H   0  0  0  0  0  0  0  0  0  0  0  0
  -19.6260    2.2554  -28.4708 H   0  0  0  0  0  0  0  0  0  0  0  0
  -21.4071    2.0387  -28.3840 H   0  0  0  0  0  0  0  0  0  0  0  0
  -18.3624    2.2198  -26.4632 H   0  0  0  0  0  0  0  0  0  0  0  0
  -19.2253    2.2443  -24.8880 H   0  0  0  0  0  0  0  0  0  0  0  0
  -19.8213    4.5051  -25.0986 H   0  0  0  0  0  0  0  0  0  0  0  0
  -18.1532    4.4516  -25.7629 H   0  0  0  0  0  0  0  0  0  0  0  0
  1  2  2  0  0  0  0
  1  3  1  0  0  0  0
  1 30  1  0  0  0  0
  2 31  1  0  0  0  0
  3  4  2  0  0  0  0
  3 29  1  0  0  0  0
  4  5  1  0  0  0  0
  5  6  1  0  0  0  0
  5 21  2  0  0  0  0
  6  7  1  0  0  0  0
  6 13  1  0  0  0  0
  7  8  1  0  0  0  0
  7 12  1  0  0  0  0
  7 32  1  0  0  0  0
  8  9  1  0  0  0  0
  8 33  1  0  0  0  0
  8 34  1  0  0  0  0
  9 10  1  0  0  0  0
  9 35  1  0  0  0  0
  9 36  1  0  0  0  0
 10 11  1  0  0  0  0
 10 37  1  0  0  0  0
 10 38  1  0  0  0  0
 11 12  1  0  0  0  0
 11 39  1  0  0  0  0
 11 40  1  0  0  0  0
 12 41  1  0  0  0  0
 12 42  1  0  0  0  0
 13 14  1  0  0  0  0
 13 43  1  0  0  0  0
 13 44  1  0  0  0  0
 14 15  2  0  0  0  0
 14 20  1  0  0  0  0
 15 16  1  0  0  0  0
 15 45  1  0  0  0  0
 16 17  2  0  0  0  0
 16 46  1  0  0  0  0
 17 18  1  0  0  0  0
 17 19  1  0  0  0  0
 19 20  2  0  0  0  0
 19 47  1  0  0  0  0
 20 48  1  0  0  0  0
 21 22  1  0  0  0  0
 22 23  1  0  0  0  0
 22 29  2  0  0  0  0
 23 24  1  0  0  0  0
 23 28  1  0  0  0  0
 24 25  1  0  0  0  0
 24 49  1  0  0  0  0
 24 50  1  0  0  0  0
 25 26  1  0  0  0  0
 25 51  1  0  0  0  0
 25 52  1  0  0  0  0
 26 27  1  0  0  0  0
 27 28  1  0  0  0  0
 27 53  1  0  0  0  0
 27 54  1  0  0  0  0
 28 55  1  0  0  0  0
 28 56  1  0  0  0  0
M  END
