4ayx_ligand
 OpenBabel08222323353D

 45 47  0  0  1  0  0  0  0  0999 V2000
  -19.8770   21.3900    5.2170 P   0  0  0  0  0  0  0  0  0  0  0  0
  -19.4050   19.9900    4.9820 O   0  0  0  0  0  1  0  0  0  0  0  0
  -18.7220   22.3530    5.5690 O   0  0  0  0  0  1  0  0  0  0  0  0
  -20.9500   21.4940    6.3250 O   0  0  0  0  0  0  0  0  0  0  0  0
  -21.7180   20.8930    3.0970 P   0  0  1  0  0  0  0  0  0  0  0  0
  -21.1650   19.7220    2.3040 O   0  0  0  0  0  1  0  0  0  0  0  0
  -22.8680   20.5980    4.1110 O   0  0  0  0  0  0  0  0  0  0  0  0
  -20.5960   21.9860    3.7600 C   0  0  0  0  0  0  0  0  0  0  0  0
  -23.8100   22.4610    1.7590 P   0  0  2  0  0  0  0  0  0  0  0  0
  -24.0640   23.4290    2.8520 O   0  0  0  0  0  1  0  0  0  0  0  0
  -24.9530   21.5520    1.3010 O   0  0  0  0  0  0  0  0  0  0  0  0
  -22.5280   21.5250    1.8690 O   0  0  0  0  0  0  0  0  0  0  0  0
  -23.7320   23.2350    0.3410 O   0  0  0  0  0  0  0  0  0  0  0  0
  -22.8830   22.9040   -0.7770 C   0  0  0  0  0  0  0  0  0  0  0  0
  -22.5280   24.1850   -1.4890 C   0  0  1  0  0  0  0  0  0  0  0  0
  -23.7230   24.9690   -1.7040 O   0  0  0  0  0  0  0  0  0  0  0  0
  -21.5210   25.0920   -0.7770 C   0  0  1  0  0  0  0  0  0  0  0  0
  -20.4700   25.4890   -1.6530 O   0  0  0  0  0  0  0  0  0  0  0  0
  -22.3880   26.2440   -0.2440 C   0  0  1  0  0  0  0  0  0  0  0  0
  -21.6990   27.4860   -0.1350 O   0  0  0  0  0  0  0  0  0  0  0  0
  -23.5070   26.3020   -1.2870 C   0  0  2  0  0  0  0  0  0  0  0  0
  -24.7760   26.8550   -0.8080 N   0  0  0  0  0  0  0  0  0  0  0  0
  -25.4580   26.5040    0.3280 C   0  0  0  0  0  0  0  0  0  0  0  0
  -26.5560   27.1930    0.5290 N   0  0  0  0  0  0  0  0  0  0  0  0
  -26.6030   28.0580   -0.5560 C   0  0  0  0  0  0  0  0  0  0  0  0
  -27.5220   29.0610   -0.9330 C   0  0  0  0  0  0  0  0  0  0  0  0
  -28.5830   29.4070   -0.1990 N   0  0  0  0  0  0  0  0  0  0  0  0
  -27.2880   29.7290   -2.0890 N   0  0  0  0  0  0  0  0  0  0  0  0
  -26.2000   29.4180   -2.8040 C   0  0  0  0  0  0  0  0  0  0  0  0
  -25.2590   28.5040   -2.5430 N   0  0  0  0  0  0  0  0  0  0  0  0
  -25.5180   27.8540   -1.3940 C   0  0  0  0  0  0  0  0  0  0  0  0
  -19.8007   22.1671    3.0219 H   0  0  0  0  0  0  0  0  0  0  0  0
  -21.1126   22.9314    3.9819 H   0  0  0  0  0  0  0  0  0  0  0  0
  -23.4164   22.2307   -1.4641 H   0  0  0  0  0  0  0  0  0  0  0  0
  -21.9678   22.4110   -0.4174 H   0  0  0  0  0  0  0  0  0  0  0  0
  -22.0997   23.9085   -2.4637 H   0  0  0  0  0  0  0  0  0  0  0  0
  -21.0673   24.5574    0.0705 H   0  0  0  0  0  0  0  0  0  0  0  0
  -19.8629   26.0493   -1.1839 H   0  0  0  0  0  0  0  0  0  0  0  0
  -22.7935   25.9873    0.7458 H   0  0  0  0  0  0  0  0  0  0  0  0
  -21.3812   27.7468   -0.9915 H   0  0  0  0  0  0  0  0  0  0  0  0
  -23.1657   26.9116   -2.1366 H   0  0  0  0  0  0  0  0  0  0  0  0
  -25.1180   25.7214    1.0046 H   0  0  0  0  0  0  0  0  0  0  0  0
  -29.2178   30.1480   -0.5288 H   0  0  0  0  0  0  0  0  0  0  0  0
  -28.7663   28.9328    0.6968 H   0  0  0  0  0  0  0  0  0  0  0  0
  -26.0629   29.9836   -3.7186 H   0  0  0  0  0  0  0  0  0  0  0  0
  1  2  1  0  0  0  0
  1  3  1  0  0  0  0
  1  4  2  0  0  0  0
  5  6  1  6  0  0  0
  5  7  2  0  0  0  0
  5  8  1  0  0  0  0
  8  1  1  0  0  0  0
  8 32  1  0  0  0  0
  8 33  1  0  0  0  0
  9 10  1  1  0  0  0
  9 11  2  0  0  0  0
  9 12  1  0  0  0  0
  9 13  1  0  0  0  0
 12  5  1  0  0  0  0
 13 14  1  0  0  0  0
 14 15  1  0  0  0  0
 14 34  1  0  0  0  0
 14 35  1  0  0  0  0
 15 16  1  0  0  0  0
 15 17  1  0  0  0  0
 15 36  1  6  0  0  0
 16 21  1  0  0  0  0
 17 18  1  0  0  0  0
 17 19  1  0  0  0  0
 17 37  1  1  0  0  0
 18 38  1  0  0  0  0
 19 20  1  0  0  0  0
 19 21  1  0  0  0  0
 19 39  1  1  0  0  0
 20 40  1  0  0  0  0
 21 22  1  0  0  0  0
 21 41  1  6  0  0  0
 22 23  1  0  0  0  0
 22 31  1  0  0  0  0
 23 24  2  0  0  0  0
 23 42  1  0  0  0  0
 24 25  1  0  0  0  0
 25 26  2  0  0  0  0
 25 31  1  0  0  0  0
 26 27  1  0  0  0  0
 26 28  1  0  0  0  0
 27 43  1  0  0  0  0
 27 44  1  0  0  0  0
 28 29  2  0  0  0  0
 29 30  1  0  0  0  0
 29 45  1  0  0  0  0
 30 31  2  0  0  0  0
M  END
