4az0_ligand
 OpenBabel08222323353D

 45 47  0  0  1  0  0  0  0  0999 V2000
  -36.2270    9.5390   15.4780 C   0  0  0  0  0  0  0  0  0  0  0  0
  -35.0660    8.7130   15.9760 C   0  0  0  0  0  0  0  0  0  0  0  0
  -35.2550    7.3440   16.1780 C   0  0  0  0  0  0  0  0  0  0  0  0
  -34.2180    6.5230   16.5810 C   0  0  0  0  0  0  0  0  0  0  0  0
  -32.9710    7.0520   16.7970 C   0  0  0  0  0  0  0  0  0  0  0  0
  -32.7540    8.4080   16.6140 C   0  0  0  0  0  0  0  0  0  0  0  0
  -33.7860    9.2540   16.2070 C   0  0  0  0  0  0  0  0  0  0  0  0
  -33.5220   10.7350   15.9900 C   0  0  2  0  0  0  0  0  0  0  0  0
  -32.0720   11.2100   15.7410 C   0  0  0  0  0  0  0  0  0  0  0  0
  -31.4710   10.7410   14.4370 C   0  0  0  0  0  0  0  0  0  0  0  0
  -30.3230   10.3620   14.3520 O   0  5  0  0  0  0  0  0  0  0  0  0
  -32.2810   10.7940   13.4170 O   0  0  0  0  0  0  0  0  0  0  0  0
  -34.0680   11.4350   17.1510 N   0  0  0  0  0  0  0  0  0  0  0  0
  -34.7000   12.6190   17.1910 C   0  0  0  0  0  0  0  0  0  0  0  0
  -34.9970   13.2620   16.1840 O   0  0  0  0  0  0  0  0  0  0  0  0
  -34.9970   13.1500   18.5480 C   0  0  0  0  0  0  0  0  0  0  0  0
  -34.7850   12.2670   19.5470 N   0  0  0  0  0  0  0  0  0  0  0  0
  -35.4520   14.3870   19.0370 C   0  0  0  0  0  0  0  0  0  0  0  0
  -35.5280   14.2680   20.4140 C   0  0  0  0  0  0  0  0  0  0  0  0
  -35.8900   15.0890   21.4200 O   0  0  0  0  0  0  0  0  0  0  0  0
  -35.1130   12.9690   20.6940 N   0  0  0  0  0  0  0  0  0  0  0  0
  -34.9930   12.3210   21.9540 C   0  0  0  0  0  0  0  0  0  0  0  0
  -33.7530   12.2720   22.5890 C   0  0  0  0  0  0  0  0  0  0  0  0
  -33.6390   11.6950   23.8500 C   0  0  0  0  0  0  0  0  0  0  0  0
  -34.7470   11.1610   24.4860 C   0  0  0  0  0  0  0  0  0  0  0  0
  -35.9890   11.1890   23.8720 C   0  0  0  0  0  0  0  0  0  0  0  0
  -36.0910   11.7630   22.6290 C   0  0  0  0  0  0  0  0  0  0  0  0
  -37.3000   11.8050   22.0260 F   0  0  0  0  0  0  0  0  0  0  0  0
  -36.5533    9.1585   14.5101 H   0  0  0  0  0  0  0  0  0  0  0  0
  -37.0491    9.4749   16.1909 H   0  0  0  0  0  0  0  0  0  0  0  0
  -35.9142   10.5780   15.3747 H   0  0  0  0  0  0  0  0  0  0  0  0
  -36.2426    6.9129   16.0142 H   0  0  0  0  0  0  0  0  0  0  0  0
  -34.3912    5.4568   16.7269 H   0  0  0  0  0  0  0  0  0  0  0  0
  -32.1516    6.4061   17.1123 H   0  0  0  0  0  0  0  0  0  0  0  0
  -31.7608    8.8206   16.7909 H   0  0  0  0  0  0  0  0  0  0  0  0
  -34.0009   10.9657   15.0384 H   0  0  0  0  0  0  0  0  0  0  0  0
  -31.4595   10.7941   16.5410 H   0  0  0  0  0  0  0  0  0  0  0  0
  -32.0959   12.2992   15.7064 H   0  0  0  0  0  0  0  0  0  0  0  0
  -33.9541   10.9625   18.0478 H   0  0  0  0  0  0  0  0  0  0  0  0
  -35.6975   15.2694   18.4460 H   0  0  0  0  0  0  0  0  0  0  0  0
  -35.1492   15.2045   22.0196 H   0  0  0  0  0  0  0  0  0  0  0  0
  -32.8725   12.6858   22.0975 H   0  0  0  0  0  0  0  0  0  0  0  0
  -32.6671   11.6630   24.3424 H   0  0  0  0  0  0  0  0  0  0  0  0
  -34.6417   10.7160   25.4754 H   0  0  0  0  0  0  0  0  0  0  0  0
  -36.8643   10.7653   24.3643 H   0  0  0  0  0  0  0  0  0  0  0  0
  1  2  1  0  0  0  0
  1 29  1  0  0  0  0
  1 30  1  0  0  0  0
  1 31  1  0  0  0  0
  2  3  2  0  0  0  0
  2  7  1  0  0  0  0
  3  4  1  0  0  0  0
  3 32  1  0  0  0  0
  4  5  2  0  0  0  0
  4 33  1  0  0  0  0
  5  6  1  0  0  0  0
  5 34  1  0  0  0  0
  6  7  2  0  0  0  0
  6 35  1  0  0  0  0
  7  8  1  0  0  0  0
  8  9  1  0  0  0  0
  8 13  1  0  0  0  0
  8 36  1  6  0  0  0
  9 10  1  0  0  0  0
  9 37  1  0  0  0  0
  9 38  1  0  0  0  0
 10 11  1  0  0  0  0
 10 12  2  0  0  0  0
 13 14  1  0  0  0  0
 13 39  1  0  0  0  0
 14 15  2  0  0  0  0
 14 16  1  0  0  0  0
 16 17  2  0  0  0  0
 16 18  1  0  0  0  0
 17 21  1  0  0  0  0
 18 19  2  0  0  0  0
 18 40  1  0  0  0  0
 19 20  1  0  0  0  0
 19 21  1  0  0  0  0
 20 41  1  0  0  0  0
 21 22  1  0  0  0  0
 22 23  2  0  0  0  0
 22 27  1  0  0  0  0
 23 24  1  0  0  0  0
 23 42  1  0  0  0  0
 24 25  2  0  0  0  0
 24 43  1  0  0  0  0
 25 26  1  0  0  0  0
 25 44  1  0  0  0  0
 26 27  2  0  0  0  0
 26 45  1  0  0  0  0
 27 28  1  0  0  0  0
M  CHG  1  11  -1
M  END
