4az3_ligand
 OpenBabel08222323353D

 64 66  0  0  1  0  0  0  0  0999 V2000
  -36.2570    9.5860   15.4020 C   0  0  0  0  0  0  0  0  0  0  0  0
  -35.0480    8.7390   15.8270 C   0  0  0  0  0  0  0  0  0  0  0  0
  -35.2460    7.3580   15.9480 C   0  0  0  0  0  0  0  0  0  0  0  0
  -34.1980    6.5160   16.3310 C   0  0  0  0  0  0  0  0  0  0  0  0
  -32.9390    7.0600   16.5960 C   0  0  0  0  0  0  0  0  0  0  0  0
  -32.7350    8.4370   16.4730 C   0  0  0  0  0  0  0  0  0  0  0  0
  -33.7740    9.2990   16.0790 C   0  0  0  0  0  0  0  0  0  0  0  0
  -33.5290   10.8340   15.9660 C   0  0  2  0  0  0  0  0  0  0  0  0
  -32.0610   11.2200   15.6830 C   0  0  0  0  0  0  0  0  0  0  0  0
  -31.5580   10.8240   14.2860 C   0  0  0  0  0  0  0  0  0  0  0  0
  -32.3350   10.9850   13.3220 O   0  5  0  0  0  0  0  0  0  0  0  0
  -30.3800   10.4170   14.2100 O   0  0  0  0  0  0  0  0  0  0  0  0
  -33.9400   11.4910   17.2190 N   0  0  0  0  0  0  0  0  0  0  0  0
  -34.5870   12.6590   17.3070 C   0  0  0  0  0  0  0  0  0  0  0  0
  -34.9460   13.3540   16.3530 O   0  0  0  0  0  0  0  0  0  0  0  0
  -34.8410   13.1040   18.7530 C   0  0  0  0  0  0  0  0  0  0  0  0
  -34.7920   12.2730   19.7910 N   0  0  0  0  0  0  0  0  0  0  0  0
  -35.0910   14.3430   19.1730 C   0  0  0  0  0  0  0  0  0  0  0  0
  -35.2330   14.2080   20.4940 C   0  0  0  0  0  0  0  0  0  0  0  0
  -35.4530   15.2000   21.4170 O   0  0  0  0  0  0  0  0  0  0  0  0
  -36.4210   16.2360   21.0980 C   0  0  0  0  0  0  0  0  0  0  0  0
  -35.7530   17.6350   21.1320 C   0  0  1  0  0  0  0  0  0  0  0  0
  -36.6870   18.8680   21.3740 C   0  0  0  0  0  0  0  0  0  0  0  0
  -35.9900   20.1210   20.8340 C   0  0  0  0  0  0  0  0  0  0  0  0
  -38.0300   18.7430   20.6350 C   0  0  0  0  0  0  0  0  0  0  0  0
  -36.9720   19.0880   22.8700 C   0  0  0  0  0  0  0  0  0  0  0  0
  -34.6310   17.6280   22.0330 O   0  0  0  0  0  0  0  0  0  0  0  0
  -34.9870   12.9340   20.8080 N   0  0  0  0  0  0  0  0  0  0  0  0
  -35.0460   12.3890   22.0230 C   0  0  0  0  0  0  0  0  0  0  0  0
  -33.8760   12.1840   22.7630 C   0  0  0  0  0  0  0  0  0  0  0  0
  -33.9450   11.5770   24.0220 C   0  0  0  0  0  0  0  0  0  0  0  0
  -35.1770   11.1610   24.5370 C   0  0  0  0  0  0  0  0  0  0  0  0
  -36.3450   11.3540   23.7920 C   0  0  0  0  0  0  0  0  0  0  0  0
  -36.2770   11.9570   22.5300 C   0  0  0  0  0  0  0  0  0  0  0  0
  -37.4020   12.1360   21.8080 F   0  0  0  0  0  0  0  0  0  0  0  0
  -37.1319    8.9334   15.2651 H   0  0  0  0  0  0  0  0  0  0  0  0
  -36.0307   10.0992   14.4557 H   0  0  0  0  0  0  0  0  0  0  0  0
  -36.4742   10.3318   16.1808 H   0  0  0  0  0  0  0  0  0  0  0  0
  -36.2235    6.9370   15.7422 H   0  0  0  0  0  0  0  0  0  0  0  0
  -34.3612    5.4482   16.4217 H   0  0  0  0  0  0  0  0  0  0  0  0
  -32.1214    6.4149   16.8966 H   0  0  0  0  0  0  0  0  0  0  0  0
  -31.7553    8.8494   16.6857 H   0  0  0  0  0  0  0  0  0  0  0  0
  -34.1484   11.2146   15.1405 H   0  0  0  0  0  0  0  0  0  0  0  0
  -31.4247   10.7243   16.4309 H   0  0  0  0  0  0  0  0  0  0  0  0
  -31.9662   12.3110   15.7861 H   0  0  0  0  0  0  0  0  0  0  0  0
  -33.7168   11.0252   18.0753 H   0  0  0  0  0  0  0  0  0  0  0  0
  -35.1628   15.2527   18.5786 H   0  0  0  0  0  0  0  0  0  0  0  0
  -37.2376   16.2072   21.8345 H   0  0  0  0  0  0  0  0  0  0  0  0
  -36.8276   16.0538   20.0923 H   0  0  0  0  0  0  0  0  0  0  0  0
  -35.3399   17.7843   20.1235 H   0  0  0  0  0  0  0  0  0  0  0  0
  -36.6342   20.9977   20.9966 H   0  0  0  0  0  0  0  0  0  0  0  0
  -35.8005   19.9999   19.7573 H   0  0  0  0  0  0  0  0  0  0  0  0
  -35.0350   20.2651   21.3605 H   0  0  0  0  0  0  0  0  0  0  0  0
  -38.5649   17.8517   20.9948 H   0  0  0  0  0  0  0  0  0  0  0  0
  -37.8466   18.6492   19.5545 H   0  0  0  0  0  0  0  0  0  0  0  0
  -38.6391   19.6386   20.8272 H   0  0  0  0  0  0  0  0  0  0  0  0
  -36.0208   19.1797   23.4148 H   0  0  0  0  0  0  0  0  0  0  0  0
  -37.5396   18.2325   23.2648 H   0  0  0  0  0  0  0  0  0  0  0  0
  -37.5592   20.0090   22.9999 H   0  0  0  0  0  0  0  0  0  0  0  0
  -34.0892   16.8679   21.8564 H   0  0  0  0  0  0  0  0  0  0  0  0
  -32.9182   12.4948   22.3617 H   0  0  0  0  0  0  0  0  0  0  0  0
  -33.0402   11.4287   24.6003 H   0  0  0  0  0  0  0  0  0  0  0  0
  -35.2266   10.6898   25.5120 H   0  0  0  0  0  0  0  0  0  0  0  0
  -37.3017   11.0371   24.1911 H   0  0  0  0  0  0  0  0  0  0  0  0
  1  2  1  0  0  0  0
  1 36  1  0  0  0  0
  1 37  1  0  0  0  0
  1 38  1  0  0  0  0
  2  3  2  0  0  0  0
  2  7  1  0  0  0  0
  3  4  1  0  0  0  0
  3 39  1  0  0  0  0
  4  5  2  0  0  0  0
  4 40  1  0  0  0  0
  5  6  1  0  0  0  0
  5 41  1  0  0  0  0
  6  7  2  0  0  0  0
  6 42  1  0  0  0  0
  7  8  1  0  0  0  0
  8  9  1  0  0  0  0
  8 13  1  0  0  0  0
  8 43  1  6  0  0  0
  9 10  1  0  0  0  0
  9 44  1  0  0  0  0
  9 45  1  0  0  0  0
 10 11  1  0  0  0  0
 10 12  2  0  0  0  0
 13 14  1  0  0  0  0
 13 46  1  0  0  0  0
 14 15  2  0  0  0  0
 14 16  1  0  0  0  0
 16 17  2  0  0  0  0
 16 18  1  0  0  0  0
 17 28  1  0  0  0  0
 18 19  2  0  0  0  0
 18 47  1  0  0  0  0
 19 20  1  0  0  0  0
 19 28  1  0  0  0  0
 20 21  1  0  0  0  0
 21 22  1  0  0  0  0
 21 48  1  0  0  0  0
 21 49  1  0  0  0  0
 22 23  1  0  0  0  0
 22 27  1  0  0  0  0
 22 50  1  6  0  0  0
 23 24  1  0  0  0  0
 23 25  1  0  0  0  0
 23 26  1  0  0  0  0
 24 51  1  0  0  0  0
 24 52  1  0  0  0  0
 24 53  1  0  0  0  0
 25 54  1  0  0  0  0
 25 55  1  0  0  0  0
 25 56  1  0  0  0  0
 26 57  1  0  0  0  0
 26 58  1  0  0  0  0
 26 59  1  0  0  0  0
 27 60  1  0  0  0  0
 28 29  1  0  0  0  0
 29 30  2  0  0  0  0
 29 34  1  0  0  0  0
 30 31  1  0  0  0  0
 30 61  1  0  0  0  0
 31 32  2  0  0  0  0
 31 62  1  0  0  0  0
 32 33  1  0  0  0  0
 32 63  1  0  0  0  0
 33 34  2  0  0  0  0
 33 64  1  0  0  0  0
 34 35  1  0  0  0  0
M  CHG  1  11  -1
M  END
