4b05_ligand
 OpenBabel08222323353D

 49 53  0  0  1  0  0  0  0  0999 V2000
    8.1610    3.3190  -18.3450 C   0  0  0  0  0  0  0  0  0  0  0  0
    7.6400    2.9580  -19.5770 C   0  0  0  0  0  0  0  0  0  0  0  0
    6.2770    3.0760  -19.7920 C   0  0  0  0  0  0  0  0  0  0  0  0
    5.4800    3.5280  -18.7840 C   0  0  0  0  0  0  0  0  0  0  0  0
    5.9770    3.9060  -17.5480 C   0  0  0  0  0  0  0  0  0  0  0  0
    7.3400    3.7970  -17.3350 C   0  0  0  0  0  0  0  0  0  0  0  0
    5.2130    4.4070  -16.5580 F   0  0  0  0  0  0  0  0  0  0  0  0
    4.1170    3.5120  -19.3240 C   0  0  1  0  0  3  0  0  0  0  0  0
    4.0820    3.0720  -20.5470 N   0  0  0  0  0  0  0  0  0  0  0  0
    5.4540    2.7750  -21.0260 C   0  0  2  0  0  0  0  0  0  0  0  0
    5.6710    1.3070  -21.3290 C   0  0  0  0  0  0  0  0  0  0  0  0
    6.5360    0.9060  -22.3370 C   0  0  0  0  0  0  0  0  0  0  0  0
    6.7260   -0.4340  -22.6020 C   0  0  0  0  0  0  0  0  0  0  0  0
    6.0860   -1.3950  -21.8400 C   0  0  0  0  0  0  0  0  0  0  0  0
    5.2340   -1.0330  -20.8130 C   0  0  0  0  0  0  0  0  0  0  0  0
    5.0460    0.3230  -20.5780 C   0  0  0  0  0  0  0  0  0  0  0  0
    4.6280   -2.0420  -19.9520 C   0  0  0  0  0  0  0  0  0  0  0  0
    5.3190   -3.1660  -19.5380 C   0  0  0  0  0  0  0  0  0  0  0  0
    4.8560   -4.0740  -18.6700 N   0  0  0  0  0  0  0  0  0  0  0  0
    3.6220   -3.8310  -18.2040 C   0  0  0  0  0  0  0  0  0  0  0  0
    2.8260   -2.8090  -18.5430 N   0  0  0  0  0  0  0  0  0  0  0  0
    3.3640   -1.9370  -19.4080 C   0  0  0  0  0  0  0  0  0  0  0  0
    5.7520    3.6940  -22.2230 C   0  0  0  0  0  0  0  0  0  0  0  0
    6.9300    4.4150  -22.1970 C   0  0  0  0  0  0  0  0  0  0  0  0
    7.2710    5.2430  -23.2350 C   0  0  0  0  0  0  0  0  0  0  0  0
    6.5160    5.4010  -24.3230 N   0  0  0  0  0  0  0  0  0  0  0  0
    5.3590    4.7380  -24.3740 C   0  0  0  0  0  0  0  0  0  0  0  0
    4.9460    3.8690  -23.3600 C   0  0  0  0  0  0  0  0  0  0  0  0
    4.5960    4.9460  -25.6540 C   0  0  0  0  0  0  0  0  0  0  0  0
    3.4530    5.7240  -25.6200 F   0  0  0  0  0  0  0  0  0  0  0  0
    4.3210    3.7920  -26.3130 F   0  0  0  0  0  0  0  0  0  0  0  0
    3.0330    3.8580  -18.5610 N   0  0  0  0  0  0  0  0  0  0  0  0
    9.2264    3.2264  -18.1680 H   0  0  0  0  0  0  0  0  0  0  0  0
    8.2902    2.5884  -20.3617 H   0  0  0  0  0  0  0  0  0  0  0  0
    7.7651    4.0848  -16.3803 H   0  0  0  0  0  0  0  0  0  0  0  0
    3.2243    2.9475  -21.1035 H   0  0  0  0  0  0  0  0  0  0  0  0
    7.0658    1.6507  -22.9199 H   0  0  0  0  0  0  0  0  0  0  0  0
    7.3804   -0.7359  -23.4118 H   0  0  0  0  0  0  0  0  0  0  0  0
    6.2546   -2.4449  -22.0507 H   0  0  0  0  0  0  0  0  0  0  0  0
    4.3836    0.6244  -19.7746 H   0  0  0  0  0  0  0  0  0  0  0  0
    6.3103   -3.3238  -19.9472 H   0  0  0  0  0  0  0  0  0  0  0  0
    3.2288   -4.5340  -17.4786 H   0  0  0  0  0  0  0  0  0  0  0  0
    2.7608   -1.0857  -19.7021 H   0  0  0  0  0  0  0  0  0  0  0  0
    7.5935    4.3249  -21.3446 H   0  0  0  0  0  0  0  0  0  0  0  0
    8.2005    5.7968  -23.1682 H   0  0  0  0  0  0  0  0  0  0  0  0
    4.0083    3.3328  -23.4507 H   0  0  0  0  0  0  0  0  0  0  0  0
    5.2969    5.5001  -26.2957 H   0  0  0  0  0  0  0  0  0  0  0  0
    3.1683    4.1975  -17.5980 H   0  0  0  0  0  0  0  0  0  0  0  0
    2.0827    3.7786  -18.9504 H   0  0  0  0  0  0  0  0  0  0  0  0
  1  2  2  0  0  0  0
  1  6  1  0  0  0  0
  1 33  1  0  0  0  0
  2  3  1  0  0  0  0
  2 34  1  0  0  0  0
  3  4  2  0  0  0  0
  3 10  1  0  0  0  0
  4  5  1  0  0  0  0
  4  8  1  0  0  0  0
  5  6  2  0  0  0  0
  5  7  1  0  0  0  0
  6 35  1  0  0  0  0
  8  9  1  0  0  0  0
  8 32  1  1  0  0  0
  9 10  1  0  0  0  0
  9 36  1  0  0  0  0
 10 11  1  6  0  0  0
 10 23  1  0  0  0  0
 11 12  2  0  0  0  0
 11 16  1  0  0  0  0
 12 13  1  0  0  0  0
 12 37  1  0  0  0  0
 13 14  2  0  0  0  0
 13 38  1  0  0  0  0
 14 15  1  0  0  0  0
 14 39  1  0  0  0  0
 15 16  2  0  0  0  0
 15 17  1  0  0  0  0
 16 40  1  0  0  0  0
 17 18  2  0  0  0  0
 17 22  1  0  0  0  0
 18 19  1  0  0  0  0
 18 41  1  0  0  0  0
 19 20  2  0  0  0  0
 20 21  1  0  0  0  0
 20 42  1  0  0  0  0
 21 22  2  0  0  0  0
 22 43  1  0  0  0  0
 23 24  2  0  0  0  0
 23 28  1  0  0  0  0
 24 25  1  0  0  0  0
 24 44  1  0  0  0  0
 25 26  2  0  0  0  0
 25 45  1  0  0  0  0
 26 27  1  0  0  0  0
 27 28  2  0  0  0  0
 27 29  1  0  0  0  0
 28 46  1  0  0  0  0
 29 30  1  0  0  0  0
 29 31  1  0  0  0  0
 29 47  1  0  0  0  0
 32 48  1  0  0  0  0
 32 49  1  0  0  0  0
M  END
