4b0g_ligand
 OpenBabel08222323353D

 51 55  0  0  0  0  0  0  0  0999 V2000
  -22.1310   -6.2510  -15.1940 C   0  0  0  0  0  0  0  0  0  0  0  0
  -22.3150   -7.5290  -14.3330 C   0  0  0  0  0  0  0  0  0  0  0  0
  -21.4680   -8.7010  -14.3080 C   0  0  0  0  0  0  0  0  0  0  0  0
  -22.0780   -9.6650  -13.3310 C   0  0  0  0  0  0  0  0  0  0  0  0
  -21.5800  -11.0920  -13.0040 C   0  0  0  0  0  0  0  0  0  0  0  0
  -22.3330  -11.9630  -13.8890 N   0  3  0  0  0  0  0  0  0  0  0  0
  -23.1520  -12.9770  -13.1960 C   0  0  0  0  0  0  0  0  0  0  0  0
  -24.2660  -13.5150  -14.0870 C   0  0  0  0  0  0  0  0  0  0  0  0
  -23.8690  -13.7010  -15.4840 N   0  0  0  0  0  0  0  0  0  0  0  0
  -24.5800  -14.6880  -16.3660 C   0  0  0  0  0  0  0  0  0  0  0  0
  -24.5170  -14.5700  -17.7430 C   0  0  0  0  0  0  0  0  0  0  0  0
  -23.7670  -12.9990  -18.5960 Br  0  0  0  0  0  0  0  0  0  0  0  0
  -25.1170  -15.5640  -18.6350 C   0  0  0  0  0  0  0  0  0  0  0  0
  -25.7680  -16.6910  -18.0900 N   0  0  0  0  0  0  0  0  0  0  0  0
  -25.8310  -16.8480  -16.6820 C   0  0  0  0  0  0  0  0  0  0  0  0
  -26.3900  -17.8420  -15.9210 N   0  0  0  0  0  0  0  0  0  0  0  0
  -26.1730  -17.5140  -14.5550 C   0  0  0  0  0  0  0  0  0  0  0  0
  -26.6720  -18.2620  -13.4760 C   0  0  0  0  0  0  0  0  0  0  0  0
  -27.6630  -19.2870  -13.6230 C   0  0  0  0  0  0  0  0  0  0  0  0
  -27.9560  -19.7440  -12.3710 N   0  0  0  0  0  0  0  0  0  0  0  0
  -27.1900  -19.0370  -11.4460 C   0  0  0  0  0  0  0  0  0  0  0  0
  -26.3930  -18.1130  -12.1490 N   0  0  0  0  0  0  0  0  0  0  0  0
  -25.4390  -17.1760  -11.5340 C   0  0  0  0  0  0  0  0  0  0  0  0
  -25.4870  -16.3130  -14.5020 N   0  0  0  0  0  0  0  0  0  0  0  0
  -25.2560  -15.8790  -15.8100 C   0  0  0  0  0  0  0  0  0  0  0  0
  -22.3830  -13.6950  -15.7170 C   0  0  0  0  0  0  0  0  0  0  0  0
  -21.6580  -12.4510  -15.0950 C   0  0  0  0  0  0  0  0  0  0  0  0
  -23.2560   -9.0870  -12.7990 N   0  0  0  0  0  0  0  0  0  0  0  0
  -23.4160   -7.7420  -13.4070 O   0  0  0  0  0  0  0  0  0  0  0  0
  -21.2209   -6.3479  -15.8042 H   0  0  0  0  0  0  0  0  0  0  0  0
  -22.0390   -5.3750  -14.5351 H   0  0  0  0  0  0  0  0  0  0  0  0
  -23.0025   -6.1242  -15.8530 H   0  0  0  0  0  0  0  0  0  0  0  0
  -20.5594   -8.8554  -14.8881 H   0  0  0  0  0  0  0  0  0  0  0  0
  -21.7826  -11.3409  -11.9519 H   0  0  0  0  0  0  0  0  0  0  0  0
  -20.5013  -11.1799  -13.2005 H   0  0  0  0  0  0  0  0  0  0  0  0
  -23.0250  -11.3363  -14.2691 H   0  0  0  0  0  0  0  0  0  0  0  0
  -23.6013  -12.5205  -12.3017 H   0  0  0  0  0  0  0  0  0  0  0  0
  -22.5032  -13.8125  -12.8945 H   0  0  0  0  0  0  0  0  0  0  0  0
  -25.1066  -12.8062  -14.0571 H   0  0  0  0  0  0  0  0  0  0  0  0
  -24.5912  -14.4866  -13.6868 H   0  0  0  0  0  0  0  0  0  0  0  0
  -25.0613  -15.4346  -19.7098 H   0  0  0  0  0  0  0  0  0  0  0  0
  -26.8792  -18.6763  -16.2753 H   0  0  0  0  0  0  0  0  0  0  0  0
  -28.0998  -19.6354  -14.5577 H   0  0  0  0  0  0  0  0  0  0  0  0
  -27.2051  -19.1752  -10.3659 H   0  0  0  0  0  0  0  0  0  0  0  0
  -24.9570  -16.5754  -12.3194 H   0  0  0  0  0  0  0  0  0  0  0  0
  -24.6731  -17.7415  -10.9829 H   0  0  0  0  0  0  0  0  0  0  0  0
  -25.9739  -16.5108  -10.8401 H   0  0  0  0  0  0  0  0  0  0  0  0
  -22.2005  -13.6981  -16.8017 H   0  0  0  0  0  0  0  0  0  0  0  0
  -21.9568  -14.6056  -15.2708 H   0  0  0  0  0  0  0  0  0  0  0  0
  -20.6279  -12.7352  -14.8341 H   0  0  0  0  0  0  0  0  0  0  0  0
  -21.6377  -11.6431  -15.8412 H   0  0  0  0  0  0  0  0  0  0  0  0
  1  2  1  0  0  0  0
  1 30  1  0  0  0  0
  1 31  1  0  0  0  0
  1 32  1  0  0  0  0
  2  3  2  0  0  0  0
  2 29  1  0  0  0  0
  3  4  1  0  0  0  0
  3 33  1  0  0  0  0
  4  5  1  0  0  0  0
  4 28  2  0  0  0  0
  5  6  1  0  0  0  0
  5 34  1  0  0  0  0
  5 35  1  0  0  0  0
  6  7  1  0  0  0  0
  6 27  1  0  0  0  0
  6 36  1  0  0  0  0
  7  8  1  0  0  0  0
  7 37  1  0  0  0  0
  7 38  1  0  0  0  0
  8  9  1  0  0  0  0
  8 39  1  0  0  0  0
  8 40  1  0  0  0  0
  9 10  1  0  0  0  0
  9 26  1  0  0  0  0
 10 11  2  0  0  0  0
 10 25  1  0  0  0  0
 11 12  1  0  0  0  0
 11 13  1  0  0  0  0
 13 14  2  0  0  0  0
 13 41  1  0  0  0  0
 14 15  1  0  0  0  0
 15 16  1  0  0  0  0
 15 25  2  0  0  0  0
 16 17  1  0  0  0  0
 16 42  1  0  0  0  0
 17 18  1  0  0  0  0
 17 24  2  0  0  0  0
 18 19  2  0  0  0  0
 18 22  1  0  0  0  0
 19 20  1  0  0  0  0
 19 43  1  0  0  0  0
 20 21  2  0  0  0  0
 21 22  1  0  0  0  0
 21 44  1  0  0  0  0
 22 23  1  0  0  0  0
 23 45  1  0  0  0  0
 23 46  1  0  0  0  0
 23 47  1  0  0  0  0
 24 25  1  0  0  0  0
 26 27  1  0  0  0  0
 26 48  1  0  0  0  0
 26 49  1  0  0  0  0
 27 50  1  0  0  0  0
 27 51  1  0  0  0  0
 28 29  1  0  0  0  0
M  CHG  1   6   1
M  END
