4b3u_ligand
 OpenBabel08222323353D

 36 37  0  0  1  0  0  0  0  0999 V2000
   38.7000    8.1710   12.0700 C   0  0  0  0  0  0  0  0  0  0  0  0
   39.0110    7.1390   11.1840 C   0  0  0  0  0  0  0  0  0  0  0  0
   38.6750    5.8220   11.4980 C   0  0  0  0  0  0  0  0  0  0  0  0
   39.0530    4.7350   10.5070 C   0  0  0  0  0  0  0  0  0  0  0  0
   39.5510    2.5570   12.1210 O   0  0  0  0  0  0  0  0  0  0  0  0
   38.5540    2.4690   11.4010 C   0  0  0  0  0  0  0  0  0  0  0  0
   38.1980    3.5260   10.5520 N   0  0  0  0  0  0  0  0  0  0  0  0
   37.0480    3.4030    9.7370 C   0  0  0  0  0  0  0  0  0  0  0  0
   36.7000    4.3970    8.9100 N   0  0  0  0  0  0  0  0  0  0  0  0
   37.7630    1.3170   11.4300 N   0  0  0  0  0  0  0  0  0  0  0  0
   36.6300    1.1890   10.6300 C   0  0  0  0  0  0  0  0  0  0  0  0
   36.2740    2.2360    9.7830 C   0  0  2  0  0  0  0  0  0  0  0  0
   35.2070    2.1380    8.9860 N   0  3  0  0  0  0  0  0  0  0  0  0
   35.2480    1.2590    7.8060 C   0  0  0  0  0  0  0  0  0  0  0  0
   37.7300    6.5860   13.5900 C   0  0  0  0  0  0  0  0  0  0  0  0
   38.0440    5.5530   12.7080 C   0  0  0  0  0  0  0  0  0  0  0  0
   35.9620    0.1470   10.7090 O   0  0  0  0  0  0  0  0  0  0  0  0
   35.4890    2.1150    6.5570 C   0  0  0  0  0  0  0  0  0  0  0  0
   38.0510    7.8910   13.2670 C   0  0  0  0  0  0  0  0  0  0  0  0
   38.9650    9.1930   11.8245 H   0  0  0  0  0  0  0  0  0  0  0  0
   39.5146    7.3610   10.2501 H   0  0  0  0  0  0  0  0  0  0  0  0
   40.0890    4.4288   10.7141 H   0  0  0  0  0  0  0  0  0  0  0  0
   38.9916    5.1595    9.4941 H   0  0  0  0  0  0  0  0  0  0  0  0
   35.8802    4.3068    8.3305 H   0  0  0  0  0  0  0  0  0  0  0  0
   38.0167    0.5663   12.0400 H   0  0  0  0  0  0  0  0  0  0  0  0
   35.6498    2.6698   10.5781 H   0  0  0  0  0  0  0  0  0  0  0  0
   35.0086    3.0673    8.6498 H   0  0  0  0  0  0  0  0  0  0  0  0
   34.4430    1.8183    9.5606 H   0  0  0  0  0  0  0  0  0  0  0  0
   34.2907    0.7260    7.7092 H   0  0  0  0  0  0  0  0  0  0  0  0
   36.0641    0.5298    7.9169 H   0  0  0  0  0  0  0  0  0  0  0  0
   37.2344    6.3658   14.5286 H   0  0  0  0  0  0  0  0  0  0  0  0
   37.7941    4.5307   12.9676 H   0  0  0  0  0  0  0  0  0  0  0  0
   35.5213    1.4668    5.6689 H   0  0  0  0  0  0  0  0  0  0  0  0
   36.4460    2.6481    6.6568 H   0  0  0  0  0  0  0  0  0  0  0  0
   34.6726    2.8442    6.4491 H   0  0  0  0  0  0  0  0  0  0  0  0
   37.7967    8.6960   13.9470 H   0  0  0  0  0  0  0  0  0  0  0  0
  1 19  1  0  0  0  0
  1 20  1  0  0  0  0
  2  1  2  0  0  0  0
  2 21  1  0  0  0  0
  3  2  1  0  0  0  0
  3 16  2  0  0  0  0
  4  3  1  0  0  0  0
  4 22  1  0  0  0  0
  4 23  1  0  0  0  0
  6  5  2  0  0  0  0
  6  7  1  0  0  0  0
  6 10  1  0  0  0  0
  7  4  1  0  0  0  0
  7  8  1  0  0  0  0
  8  9  2  0  0  0  0
  8 12  1  0  0  0  0
  9 24  1  0  0  0  0
 10 11  1  0  0  0  0
 10 25  1  0  0  0  0
 11 12  1  0  0  0  0
 11 17  2  0  0  0  0
 12 13  1  0  0  0  0
 12 26  1  1  0  0  0
 13 14  1  0  0  0  0
 13 27  1  0  0  0  0
 13 28  1  0  0  0  0
 14 18  1  0  0  0  0
 14 29  1  0  0  0  0
 14 30  1  0  0  0  0
 15 19  2  0  0  0  0
 15 31  1  0  0  0  0
 16 15  1  0  0  0  0
 16 32  1  0  0  0  0
 18 33  1  0  0  0  0
 18 34  1  0  0  0  0
 18 35  1  0  0  0  0
 19 36  1  0  0  0  0
M  CHG  1  13   1
M  END
