4b60_ligand
 OpenBabel08222323353D

198199  0  0  1  0  0  0  0  0999 V2000
  -12.1090   -0.1230  -35.4040 N   0  3  0  0  0  0  0  0  0  0  0  0
  -12.6720   -1.4190  -35.8880 C   0  0  2  0  0  0  0  0  0  0  0  0
  -11.6820   -2.5950  -35.9210 C   0  0  0  0  0  0  0  0  0  0  0  0
  -12.0360   -3.6600  -35.4160 O   0  0  0  0  0  0  0  0  0  0  0  0
  -13.4010   -1.2780  -37.2350 C   0  0  0  0  0  0  0  0  0  0  0  0
  -13.5950   -2.5850  -37.9830 C   0  0  0  0  0  0  0  0  0  0  0  0
  -14.7930   -2.6070  -38.8970 C   0  0  0  0  0  0  0  0  0  0  0  0
  -15.6300   -1.6740  -38.9480 O   0  0  0  0  0  0  0  0  0  0  0  0
  -14.8840   -3.6800  -39.6520 N   0  0  0  0  0  0  0  0  0  0  0  0
  -10.4830   -2.4410  -36.5050 N   0  0  0  0  0  0  0  0  0  0  0  0
   -9.4800   -3.5370  -36.4790 C   0  0  2  0  0  0  0  0  0  0  0  0
   -8.3620   -3.3950  -35.4110 C   0  0  0  0  0  0  0  0  0  0  0  0
   -7.7150   -4.3860  -35.0820 O   0  0  0  0  0  0  0  0  0  0  0  0
   -8.8460   -3.7510  -37.8730 C   0  0  0  0  0  0  0  0  0  0  0  0
   -9.6210   -4.6970  -38.7900 C   0  0  0  0  0  0  0  0  0  0  0  0
   -9.0680   -4.7310  -40.2090 C   0  0  0  0  0  0  0  0  0  0  0  0
   -9.2800   -3.8040  -41.0100 O   0  0  0  0  0  0  0  0  0  0  0  0
   -8.3750   -5.8040  -40.5370 N   0  0  0  0  0  0  0  0  0  0  0  0
   -8.1300   -2.1770  -34.9090 N   0  0  0  0  0  0  0  0  0  0  0  0
   -7.0870   -1.9160  -33.9060 C   0  0  2  0  0  0  0  0  0  0  0  0
   -7.6230   -1.0680  -32.7290 C   0  0  0  0  0  0  0  0  0  0  0  0
   -8.1370    0.0580  -32.9240 O   0  0  0  0  0  0  0  0  0  0  0  0
   -5.8780   -1.2270  -34.5570 C   0  0  0  0  0  0  0  0  0  0  0  0
   -5.4950   -1.7930  -35.8940 C   0  0  0  0  0  0  0  0  0  0  0  0
   -4.6780   -2.8970  -36.0350 N   0  0  0  0  0  0  0  0  0  0  0  0
   -5.8260   -1.4110  -37.1570 C   0  0  0  0  0  0  0  0  0  0  0  0
   -4.5270   -3.1750  -37.3190 C   0  0  0  0  0  0  0  0  0  0  0  0
   -5.2090   -2.2870  -38.0240 N   0  0  0  0  0  0  0  0  0  0  0  0
   -7.4990   -1.5980  -31.5150 N   0  0  0  0  0  0  0  0  0  0  0  0
   -7.9270   -0.9120  -30.2810 C   0  0  2  0  0  0  0  0  0  0  0  0
   -6.7310   -0.7650  -29.3240 C   0  0  0  0  0  0  0  0  0  0  0  0
   -5.8870   -1.6560  -29.2500 O   0  0  0  0  0  0  0  0  0  0  0  0
   -9.0990   -1.6640  -29.6080 C   0  0  0  0  0  0  0  0  0  0  0  0
  -10.2890   -1.8290  -30.5140 C   0  0  0  0  0  0  0  0  0  0  0  0
  -11.2250   -0.8340  -30.7120 N   0  0  0  0  0  0  0  0  0  0  0  0
  -10.6530   -2.8500  -31.3180 C   0  0  0  0  0  0  0  0  0  0  0  0
  -12.1270   -1.2460  -31.5890 C   0  0  0  0  0  0  0  0  0  0  0  0
  -11.7930   -2.4630  -31.9810 N   0  0  0  0  0  0  0  0  0  0  0  0
   -6.6720    0.3640  -28.6250 N   0  0  0  0  0  0  0  0  0  0  0  0
   -5.5460    0.7800  -27.8160 C   0  0  2  0  0  0  0  0  0  0  0  0
   -6.0930    1.3220  -26.5100 C   0  0  0  0  0  0  0  0  0  0  0  0
   -7.0920    2.0910  -26.4930 O   0  0  0  0  0  0  0  0  0  0  0  0
   -4.7720    1.9070  -28.5350 C   0  0  0  0  0  0  0  0  0  0  0  0
   -3.8750    2.7050  -27.5900 C   0  0  0  0  0  0  0  0  0  0  0  0
   -2.6420    1.9270  -27.1870 C   0  0  0  0  0  0  0  0  0  0  0  0
   -3.4890    4.0740  -28.1400 C   0  0  0  0  0  0  0  0  0  0  0  0
   -5.4540    0.9290  -25.3990 N   0  0  0  0  0  0  0  0  0  0  0  0
   -5.8060    1.4790  -24.1070 C   0  0  0  0  0  0  0  0  0  0  0  0
   -4.6270    1.4050  -23.1550 C   0  0  0  0  0  0  0  0  0  0  0  0
   -3.5580    0.9420  -23.5250 O   0  0  0  0  0  0  0  0  0  0  0  0
   -4.8170    1.8510  -21.9250 N   0  0  0  0  0  0  0  0  0  0  0  0
   -3.7720    1.6260  -20.9370 C   0  0  0  0  0  0  0  0  0  0  0  0
   -4.1490    2.0260  -19.5400 C   0  0  0  0  0  0  0  0  0  0  0  0
   -5.2510    2.5070  -19.3110 O   0  0  0  0  0  0  0  0  0  0  0  0
   -3.2120    1.8170  -18.6120 N   0  0  0  0  0  0  0  0  0  0  0  0
   -3.4460    2.0540  -17.2120 C   0  0  2  0  0  0  0  0  0  0  0  0
   -2.1410    2.5140  -16.6090 C   0  0  0  0  0  0  0  0  0  0  0  0
   -1.0860    2.3750  -17.2440 O   0  0  0  0  0  0  0  0  0  0  0  0
   -3.8640    0.7300  -16.5640 C   0  0  0  0  0  0  0  0  0  0  0  0
   -2.2240    3.0630  -15.4010 N   0  0  0  0  0  0  0  0  0  0  0  0
   -1.0890    3.3990  -14.5810 C   0  0  2  0  0  0  0  0  0  0  0  0
   -1.2620    2.8570  -13.1630 C   0  0  0  0  0  0  0  0  0  0  0  0
   -2.3260    2.9910  -12.6010 O   0  0  0  0  0  0  0  0  0  0  0  0
   -0.9830    4.9000  -14.4820 C   0  0  0  0  0  0  0  0  0  0  0  0
   -0.9200    5.5160  -15.8510 C   0  0  0  0  0  0  0  0  0  0  0  0
   -0.4360    6.9370  -15.8040 C   0  0  0  0  0  0  0  0  0  0  0  0
   -0.1130    7.4290  -17.2020 C   0  0  0  0  0  0  0  0  0  0  0  0
   -0.2440    8.9080  -17.2350 N   0  3  0  0  0  0  0  0  0  0  0  0
   -0.2170    2.2440  -12.6090 N   0  0  0  0  0  0  0  0  0  0  0  0
   -0.2360    1.7160  -11.2310 C   0  0  2  0  0  0  0  0  0  0  0  0
    0.4390    2.7870  -10.3210 C   0  0  0  0  0  0  0  0  0  0  0  0
    1.3880    3.4630  -10.7370 O   0  0  0  0  0  0  0  0  0  0  0  0
    0.4980    0.3600  -11.1300 C   0  0  0  0  0  0  0  0  0  0  0  0
   -0.2680   -0.9240  -11.5210 C   0  0  0  0  0  0  0  0  0  0  0  0
   -0.7610   -0.9250  -12.9620 C   0  0  0  0  0  0  0  0  0  0  0  0
   -1.9920   -0.8750  -13.2360 O   0  0  0  0  0  0  0  0  0  0  0  0
    0.1630   -0.9500  -13.8900 N   0  0  0  0  0  0  0  0  0  0  0  0
   -0.0800    2.9450   -9.1070 N   0  0  0  0  0  0  0  0  0  0  0  0
    0.4910    3.8590   -8.1150 C   0  0  2  0  0  0  0  0  0  0  0  0
    1.4730    3.1250   -7.2070 C   0  0  0  0  0  0  0  0  0  0  0  0
    1.2960    1.9230   -6.8770 O   0  0  0  0  0  0  0  0  0  0  0  0
   -0.6250    4.4840   -7.2780 C   0  0  0  0  0  0  0  0  0  0  0  0
    2.5070    3.8330   -6.7670 N   0  0  0  0  0  0  0  0  0  0  0  0
    3.3500    3.3460   -5.6870 C   0  0  0  0  0  0  0  0  0  0  0  0
    4.2240    4.4470   -5.1270 C   0  0  0  0  0  0  0  0  0  0  0  0
    4.1680    5.5730   -5.5690 O   0  0  0  0  0  0  0  0  0  0  0  0
    4.9930    4.1130   -4.1060 N   0  0  0  0  0  0  0  0  0  0  0  0
    5.7790    5.0910   -3.3830 C   0  0  2  0  0  0  0  0  0  0  0  0
    7.0790    5.3160   -4.1440 C   0  0  0  0  0  0  0  0  0  0  0  0
    7.6730    4.3490   -4.6260 O   0  0  0  0  0  0  0  0  0  0  0  0
    6.0820    4.5300   -1.9980 C   0  0  0  0  0  0  0  0  0  0  0  0
    6.9850    5.4280   -1.1680 C   0  0  0  0  0  0  0  0  0  0  0  0
    6.8590    6.6690   -1.1650 O   0  5  0  0  0  0  0  0  0  0  0  0
    7.8520    4.8820   -0.4780 O   0  0  0  0  0  0  0  0  0  0  0  0
    7.4710    6.5840   -4.2690 N   0  0  0  0  0  0  0  0  0  0  0  0
    8.7800    7.0360   -4.7830 C   0  0  2  0  0  0  0  0  0  0  0  0
    8.8410    7.5930   -6.1940 C   0  0  0  0  0  0  0  0  0  0  0  0
    9.6167    8.5564   -6.4346 O   0  5  0  0  0  0  0  0  0  0  0  0
    9.9360    6.0500   -4.4450 C   0  0  0  0  0  0  0  0  0  0  0  0
   11.1880    6.3480   -5.2130 C   0  0  0  0  0  0  0  0  0  0  0  0
   10.1770    6.1570   -2.9560 C   0  0  0  0  0  0  0  0  0  0  0  0
    8.1282    7.1003   -7.1088 O   0  0  0  0  0  0  0  0  0  0  0  0
  -12.8290    0.5823  -35.4184 H   0  0  0  0  0  0  0  0  0  0  0  0
  -11.3503    0.1591  -36.0048 H   0  0  0  0  0  0  0  0  0  0  0  0
  -11.7678   -0.2357  -34.4622 H   0  0  0  0  0  0  0  0  0  0  0  0
  -13.4394   -1.6970  -35.1506 H   0  0  0  0  0  0  0  0  0  0  0  0
  -12.8159   -0.5998  -37.8735 H   0  0  0  0  0  0  0  0  0  0  0  0
  -14.3919   -0.8396  -37.0457 H   0  0  0  0  0  0  0  0  0  0  0  0
  -13.7118   -3.3907  -37.2433 H   0  0  0  0  0  0  0  0  0  0  0  0
  -12.6963   -2.7712  -38.5893 H   0  0  0  0  0  0  0  0  0  0  0  0
  -15.6480   -3.7795  -40.2895 H   0  0  0  0  0  0  0  0  0  0  0  0
  -14.1892   -4.3964  -39.5885 H   0  0  0  0  0  0  0  0  0  0  0  0
  -10.2626   -1.5795  -36.9624 H   0  0  0  0  0  0  0  0  0  0  0  0
  -10.0349   -4.4532  -36.2286 H   0  0  0  0  0  0  0  0  0  0  0  0
   -7.8363   -4.1633  -37.7303 H   0  0  0  0  0  0  0  0  0  0  0  0
   -8.7756   -2.7727  -38.3710 H   0  0  0  0  0  0  0  0  0  0  0  0
  -10.6696   -4.3670  -38.8296 H   0  0  0  0  0  0  0  0  0  0  0  0
   -9.5718   -5.7123  -38.3696 H   0  0  0  0  0  0  0  0  0  0  0  0
   -7.9854   -5.8865  -41.4543 H   0  0  0  0  0  0  0  0  0  0  0  0
   -8.2391   -6.5351  -39.8684 H   0  0  0  0  0  0  0  0  0  0  0  0
   -8.6891   -1.4122  -35.2292 H   0  0  0  0  0  0  0  0  0  0  0  0
   -6.7548   -2.8839  -33.5026 H   0  0  0  0  0  0  0  0  0  0  0  0
   -5.0170   -1.3281  -33.8799 H   0  0  0  0  0  0  0  0  0  0  0  0
   -6.1175   -0.1616  -34.6890 H   0  0  0  0  0  0  0  0  0  0  0  0
   -6.4604   -0.5696  -37.4319 H   0  0  0  0  0  0  0  0  0  0  0  0
   -3.9402   -3.9965  -37.7274 H   0  0  0  0  0  0  0  0  0  0  0  0
   -5.2690   -2.2555  -39.0518 H   0  0  0  0  0  0  0  0  0  0  0  0
   -7.0945   -2.5090  -31.4348 H   0  0  0  0  0  0  0  0  0  0  0  0
   -8.2787    0.0951  -30.5495 H   0  0  0  0  0  0  0  0  0  0  0  0
   -9.4122   -1.0997  -28.7172 H   0  0  0  0  0  0  0  0  0  0  0  0
   -8.7478   -2.6616  -29.3054 H   0  0  0  0  0  0  0  0  0  0  0  0
  -10.1385   -3.8041  -31.4222 H   0  0  0  0  0  0  0  0  0  0  0  0
  -12.9935   -0.6804  -31.9284 H   0  0  0  0  0  0  0  0  0  0  0  0
  -12.3046   -3.0301  -32.6720 H   0  0  0  0  0  0  0  0  0  0  0  0
   -7.4653    0.9718  -28.6607 H   0  0  0  0  0  0  0  0  0  0  0  0
   -4.8781   -0.0734  -27.6275 H   0  0  0  0  0  0  0  0  0  0  0  0
   -5.4978    2.5941  -28.9945 H   0  0  0  0  0  0  0  0  0  0  0  0
   -4.1449    1.4578  -29.3192 H   0  0  0  0  0  0  0  0  0  0  0  0
   -4.4600    2.8815  -26.6754 H   0  0  0  0  0  0  0  0  0  0  0  0
   -2.0281    2.5382  -26.5091 H   0  0  0  0  0  0  0  0  0  0  0  0
   -2.0576    1.6754  -28.0843 H   0  0  0  0  0  0  0  0  0  0  0  0
   -2.9436    1.0016  -26.6744 H   0  0  0  0  0  0  0  0  0  0  0  0
   -4.3978    4.6234  -28.4269 H   0  0  0  0  0  0  0  0  0  0  0  0
   -2.8440    3.9463  -29.0218 H   0  0  0  0  0  0  0  0  0  0  0  0
   -2.9469    4.6398  -27.3680 H   0  0  0  0  0  0  0  0  0  0  0  0
   -4.7251    0.2474  -25.4635 H   0  0  0  0  0  0  0  0  0  0  0  0
   -6.6459    0.9062  -23.6871 H   0  0  0  0  0  0  0  0  0  0  0  0
   -6.1048    2.5303  -24.2310 H   0  0  0  0  0  0  0  0  0  0  0  0
   -5.6588    2.3316  -21.6792 H   0  0  0  0  0  0  0  0  0  0  0  0
   -2.8856    2.2056  -21.2343 H   0  0  0  0  0  0  0  0  0  0  0  0
   -3.5252    0.5541  -20.9340 H   0  0  0  0  0  0  0  0  0  0  0  0
   -2.3145    1.4835  -18.9005 H   0  0  0  0  0  0  0  0  0  0  0  0
   -4.2277    2.8147  -17.0696 H   0  0  0  0  0  0  0  0  0  0  0  0
   -4.0482    0.8889  -15.4912 H   0  0  0  0  0  0  0  0  0  0  0  0
   -3.0610   -0.0107  -16.6923 H   0  0  0  0  0  0  0  0  0  0  0  0
   -4.7830    0.3613  -17.0431 H   0  0  0  0  0  0  0  0  0  0  0  0
   -3.1355    3.2555  -15.0376 H   0  0  0  0  0  0  0  0  0  0  0  0
   -0.1753    2.9827  -15.0302 H   0  0  0  0  0  0  0  0  0  0  0  0
   -0.0714    5.1623  -13.9251 H   0  0  0  0  0  0  0  0  0  0  0  0
   -1.8630    5.2905  -13.9499 H   0  0  0  0  0  0  0  0  0  0  0  0
   -1.9258    5.4975  -16.2959 H   0  0  0  0  0  0  0  0  0  0  0  0
   -0.2321    4.9265  -16.4749 H   0  0  0  0  0  0  0  0  0  0  0  0
    0.4694    6.9917  -15.1818 H   0  0  0  0  0  0  0  0  0  0  0  0
   -1.2199    7.5732  -15.3674 H   0  0  0  0  0  0  0  0  0  0  0  0
   -0.8132    6.9804  -17.9221 H   0  0  0  0  0  0  0  0  0  0  0  0
    0.9163    7.1438  -17.4650 H   0  0  0  0  0  0  0  0  0  0  0  0
   -0.0309    9.2436  -18.1613 H   0  0  0  0  0  0  0  0  0  0  0  0
    0.3974    9.3170  -16.5737 H   0  0  0  0  0  0  0  0  0  0  0  0
   -1.1874    9.1673  -16.9925 H   0  0  0  0  0  0  0  0  0  0  0  0
    0.6168    2.1369  -13.1506 H   0  0  0  0  0  0  0  0  0  0  0  0
   -1.2790    1.5719  -10.9125 H   0  0  0  0  0  0  0  0  0  0  0  0
    0.8184    0.2412  -10.0844 H   0  0  0  0  0  0  0  0  0  0  0  0
    1.3832    0.4207  -11.7802 H   0  0  0  0  0  0  0  0  0  0  0  0
   -1.1381   -1.0261  -10.8558 H   0  0  0  0  0  0  0  0  0  0  0  0
    0.4026   -1.7848  -11.3824 H   0  0  0  0  0  0  0  0  0  0  0  0
   -0.0978   -0.9520  -14.8554 H   0  0  0  0  0  0  0  0  0  0  0  0
    1.1293   -0.9671  -13.6331 H   0  0  0  0  0  0  0  0  0  0  0  0
   -0.8936    2.4181   -8.8611 H   0  0  0  0  0  0  0  0  0  0  0  0
    1.0299    4.6596   -8.6427 H   0  0  0  0  0  0  0  0  0  0  0  0
   -0.1876    5.1684   -6.5362 H   0  0  0  0  0  0  0  0  0  0  0  0
   -1.1833    3.6903   -6.7601 H   0  0  0  0  0  0  0  0  0  0  0  0
   -1.3071    5.0431   -7.9353 H   0  0  0  0  0  0  0  0  0  0  0  0
    2.7096    4.7179   -7.1865 H   0  0  0  0  0  0  0  0  0  0  0  0
    3.9925    2.5398   -6.0706 H   0  0  0  0  0  0  0  0  0  0  0  0
    2.7100    2.9537   -4.8829 H   0  0  0  0  0  0  0  0  0  0  0  0
    5.0336    3.1546   -3.8235 H   0  0  0  0  0  0  0  0  0  0  0  0
    5.2253    6.0373   -3.2940 H   0  0  0  0  0  0  0  0  0  0  0  0
    6.5751    3.5540   -2.1172 H   0  0  0  0  0  0  0  0  0  0  0  0
    5.1319    4.3976   -1.4598 H   0  0  0  0  0  0  0  0  0  0  0  0
    6.8216    7.2916   -3.9902 H   0  0  0  0  0  0  0  0  0  0  0  0
    8.9976    7.9183   -4.1631 H   0  0  0  0  0  0  0  0  0  0  0  0
    9.6177    5.0261   -4.6903 H   0  0  0  0  0  0  0  0  0  0  0  0
   11.9687    5.6241   -4.9366 H   0  0  0  0  0  0  0  0  0  0  0  0
   11.5308    7.3657   -4.9749 H   0  0  0  0  0  0  0  0  0  0  0  0
   10.9835    6.2728   -6.2912 H   0  0  0  0  0  0  0  0  0  0  0  0
    9.2445    5.9341   -2.4167 H   0  0  0  0  0  0  0  0  0  0  0  0
   10.5077    7.1770   -2.7104 H   0  0  0  0  0  0  0  0  0  0  0  0
   10.9540    5.4378   -2.6577 H   0  0  0  0  0  0  0  0  0  0  0  0
  1  2  1  0  0  0  0
  1103  1  0  0  0  0
  1104  1  0  0  0  0
  1105  1  0  0  0  0
  2  3  1  0  0  0  0
  2  5  1  0  0  0  0
  2106  1  1  0  0  0
  3  4  2  0  0  0  0
  3 10  1  0  0  0  0
  5  6  1  0  0  0  0
  5107  1  0  0  0  0
  5108  1  0  0  0  0
  6  7  1  0  0  0  0
  6109  1  0  0  0  0
  6110  1  0  0  0  0
  7  8  2  0  0  0  0
  7  9  1  0  0  0  0
  9111  1  0  0  0  0
  9112  1  0  0  0  0
 10 11  1  0  0  0  0
 10113  1  0  0  0  0
 11 12  1  0  0  0  0
 11 14  1  0  0  0  0
 11114  1  1  0  0  0
 12 13  2  0  0  0  0
 12 19  1  0  0  0  0
 14 15  1  0  0  0  0
 14115  1  0  0  0  0
 14116  1  0  0  0  0
 15 16  1  0  0  0  0
 15117  1  0  0  0  0
 15118  1  0  0  0  0
 16 17  2  0  0  0  0
 16 18  1  0  0  0  0
 18119  1  0  0  0  0
 18120  1  0  0  0  0
 19 20  1  0  0  0  0
 19121  1  0  0  0  0
 20 21  1  0  0  0  0
 20 23  1  0  0  0  0
 20122  1  1  0  0  0
 21 22  2  0  0  0  0
 21 29  1  0  0  0  0
 23 24  1  0  0  0  0
 23123  1  0  0  0  0
 23124  1  0  0  0  0
 24 25  1  0  0  0  0
 24 26  2  0  0  0  0
 25 27  2  0  0  0  0
 26 28  1  0  0  0  0
 26125  1  0  0  0  0
 27 28  1  0  0  0  0
 27126  1  0  0  0  0
 28127  1  0  0  0  0
 29 30  1  0  0  0  0
 29128  1  0  0  0  0
 30 31  1  0  0  0  0
 30 33  1  0  0  0  0
 30129  1  6  0  0  0
 31 32  2  0  0  0  0
 31 39  1  0  0  0  0
 33 34  1  0  0  0  0
 33130  1  0  0  0  0
 33131  1  0  0  0  0
 34 35  1  0  0  0  0
 34 36  2  0  0  0  0
 35 37  2  0  0  0  0
 36 38  1  0  0  0  0
 36132  1  0  0  0  0
 37 38  1  0  0  0  0
 37133  1  0  0  0  0
 38134  1  0  0  0  0
 39 40  1  0  0  0  0
 39135  1  0  0  0  0
 40 41  1  0  0  0  0
 40 43  1  0  0  0  0
 40136  1  1  0  0  0
 41 42  2  0  0  0  0
 41 47  1  0  0  0  0
 43 44  1  0  0  0  0
 43137  1  0  0  0  0
 43138  1  0  0  0  0
 44 45  1  0  0  0  0
 44 46  1  0  0  0  0
 44139  1  0  0  0  0
 45140  1  0  0  0  0
 45141  1  0  0  0  0
 45142  1  0  0  0  0
 46143  1  0  0  0  0
 46144  1  0  0  0  0
 46145  1  0  0  0  0
 47 48  1  0  0  0  0
 47146  1  0  0  0  0
 48 49  1  0  0  0  0
 48147  1  0  0  0  0
 48148  1  0  0  0  0
 49 50  2  0  0  0  0
 49 51  1  0  0  0  0
 51 52  1  0  0  0  0
 51149  1  0  0  0  0
 52 53  1  0  0  0  0
 52150  1  0  0  0  0
 52151  1  0  0  0  0
 53 54  2  0  0  0  0
 53 55  1  0  0  0  0
 55 56  1  0  0  0  0
 55152  1  0  0  0  0
 56 57  1  0  0  0  0
 56 59  1  0  0  0  0
 56153  1  1  0  0  0
 57 58  2  0  0  0  0
 57 60  1  0  0  0  0
 59154  1  0  0  0  0
 59155  1  0  0  0  0
 59156  1  0  0  0  0
 60 61  1  0  0  0  0
 60157  1  0  0  0  0
 61 62  1  0  0  0  0
 61 64  1  0  0  0  0
 61158  1  6  0  0  0
 62 63  2  0  0  0  0
 62 69  1  0  0  0  0
 64 65  1  0  0  0  0
 64159  1  0  0  0  0
 64160  1  0  0  0  0
 65 66  1  0  0  0  0
 65161  1  0  0  0  0
 65162  1  0  0  0  0
 66 67  1  0  0  0  0
 66163  1  0  0  0  0
 66164  1  0  0  0  0
 67 68  1  0  0  0  0
 67165  1  0  0  0  0
 67166  1  0  0  0  0
 68167  1  0  0  0  0
 68168  1  0  0  0  0
 68169  1  0  0  0  0
 69 70  1  0  0  0  0
 69170  1  0  0  0  0
 70 71  1  0  0  0  0
 70 73  1  0  0  0  0
 70171  1  1  0  0  0
 71 72  2  0  0  0  0
 71 78  1  0  0  0  0
 73 74  1  0  0  0  0
 73172  1  0  0  0  0
 73173  1  0  0  0  0
 74 75  1  0  0  0  0
 74174  1  0  0  0  0
 74175  1  0  0  0  0
 75 76  2  0  0  0  0
 75 77  1  0  0  0  0
 77176  1  0  0  0  0
 77177  1  0  0  0  0
 78 79  1  0  0  0  0
 78178  1  0  0  0  0
 79 80  1  0  0  0  0
 79 82  1  0  0  0  0
 79179  1  6  0  0  0
 80 81  2  0  0  0  0
 80 83  1  0  0  0  0
 82180  1  0  0  0  0
 82181  1  0  0  0  0
 82182  1  0  0  0  0
 83 84  1  0  0  0  0
 83183  1  0  0  0  0
 84 85  1  0  0  0  0
 84184  1  0  0  0  0
 84185  1  0  0  0  0
 85 86  2  0  0  0  0
 85 87  1  0  0  0  0
 87 88  1  0  0  0  0
 87186  1  0  0  0  0
 88 89  1  0  0  0  0
 88 91  1  0  0  0  0
 88187  1  1  0  0  0
 89 90  2  0  0  0  0
 89 95  1  0  0  0  0
 91 92  1  0  0  0  0
 91188  1  0  0  0  0
 91189  1  0  0  0  0
 92 93  1  0  0  0  0
 92 94  2  0  0  0  0
 95 96  1  0  0  0  0
 95190  1  0  0  0  0
 96 97  1  0  0  0  0
 96 99  1  0  0  0  0
 96191  1  1  0  0  0
 97 98  1  0  0  0  0
 97102  2  0  0  0  0
 99100  1  0  0  0  0
 99101  1  0  0  0  0
 99192  1  0  0  0  0
100193  1  0  0  0  0
100194  1  0  0  0  0
100195  1  0  0  0  0
101196  1  0  0  0  0
101197  1  0  0  0  0
101198  1  0  0  0  0
M  CHG  4   1   1  68   1  93  -1  98  -1
M  END
