4b6c_ligand
 OpenBabel08222323353D

 71 74  0  0  1  0  0  0  0  0999 V2000
   27.6240   37.1060   78.4500 C   0  0  0  0  0  0  0  0  0  0  0  0
   26.5110   36.1060   78.1910 C   0  0  0  0  0  0  0  0  0  0  0  0
   25.3820   36.1080   79.0190 C   0  0  0  0  0  0  0  0  0  0  0  0
   24.3360   35.2280   78.8120 C   0  0  0  0  0  0  0  0  0  0  0  0
   24.3750   34.2820   77.7800 C   0  0  0  0  0  0  0  0  0  0  0  0
   25.4790   34.2910   76.9250 C   0  0  0  0  0  0  0  0  0  0  0  0
   26.5390   35.1920   77.0940 C   0  0  0  0  0  0  0  0  0  0  0  0
   27.6970   35.1160   76.1360 C   0  0  0  0  0  0  0  0  0  0  0  0
   23.2250   33.3690   77.5340 C   0  0  0  0  0  0  0  0  0  0  0  0
   23.3350   32.1500   76.8340 C   0  0  0  0  0  0  0  0  0  0  0  0
   22.2790   31.3340   76.6280 N   0  0  0  0  0  0  0  0  0  0  0  0
   21.0840   31.7600   77.1030 C   0  0  0  0  0  0  0  0  0  0  0  0
   20.9370   33.0150   77.7810 C   0  0  0  0  0  0  0  0  0  0  0  0
   22.0220   33.7900   77.9930 N   0  0  0  0  0  0  0  0  0  0  0  0
   19.6180   33.4950   78.3890 C   0  0  0  0  0  0  0  0  0  0  0  0
   18.5940   32.8090   78.2930 O   0  0  0  0  0  0  0  0  0  0  0  0
   19.6550   34.6520   79.0390 N   0  0  0  0  0  0  0  0  0  0  0  0
   19.9460   30.9980   76.9060 N   0  0  0  0  0  0  0  0  0  0  0  0
   19.7590   29.6520   76.4950 C   0  0  0  0  0  0  0  0  0  0  0  0
   20.6160   29.0230   75.5810 C   0  0  0  0  0  0  0  0  0  0  0  0
   20.3840   27.7110   75.1860 C   0  0  0  0  0  0  0  0  0  0  0  0
   19.2730   27.0220   75.6740 C   0  0  0  0  0  0  0  0  0  0  0  0
   18.3950   27.6530   76.5630 C   0  0  0  0  0  0  0  0  0  0  0  0
   18.6310   28.9690   76.9560 C   0  0  0  0  0  0  0  0  0  0  0  0
   18.9920   25.7230   75.2820 O   0  0  0  0  0  0  0  0  0  0  0  0
   19.6360   25.1590   74.1220 C   0  0  0  0  0  0  0  0  0  0  0  0
   19.0370   23.8220   73.7660 C   0  0  0  0  0  0  0  0  0  0  0  0
   19.2590   22.6550   74.7280 C   0  0  0  0  0  0  0  0  0  0  0  0
   20.6740   22.3480   75.0580 N   0  3  1  0  0  0  0  0  0  0  0  0
   20.7630   21.6820   76.3720 C   0  0  0  0  0  0  0  0  0  0  0  0
   22.2040   21.3390   76.7200 C   0  0  0  0  0  0  0  0  0  0  0  0
   22.8020   20.4920   75.6920 N   0  3  1  0  0  0  0  0  0  0  0  0
   22.7330   21.1700   74.3980 C   0  0  0  0  0  0  0  0  0  0  0  0
   21.2940   21.4880   74.0350 C   0  0  0  0  0  0  0  0  0  0  0  0
   24.1860   20.1630   76.0320 C   0  0  0  0  0  0  0  0  0  0  0  0
   27.3833   37.6989   79.3447 H   0  0  0  0  0  0  0  0  0  0  0  0
   27.7248   37.7753   77.5829 H   0  0  0  0  0  0  0  0  0  0  0  0
   28.5702   36.5683   78.6101 H   0  0  0  0  0  0  0  0  0  0  0  0
   25.3269   36.8143   79.8395 H   0  0  0  0  0  0  0  0  0  0  0  0
   23.4689   35.2711   79.4611 H   0  0  0  0  0  0  0  0  0  0  0  0
   25.5172   33.5807   76.1071 H   0  0  0  0  0  0  0  0  0  0  0  0
   28.4411   35.8823   76.3988 H   0  0  0  0  0  0  0  0  0  0  0  0
   27.3372   35.2905   75.1113 H   0  0  0  0  0  0  0  0  0  0  0  0
   28.1592   34.1197   76.1977 H   0  0  0  0  0  0  0  0  0  0  0  0
   24.3040   31.8568   76.4465 H   0  0  0  0  0  0  0  0  0  0  0  0
   18.8235   35.0170   79.4578 H   0  0  0  0  0  0  0  0  0  0  0  0
   20.5143   35.1585   79.1098 H   0  0  0  0  0  0  0  0  0  0  0  0
   19.0680   31.5031   77.0930 H   0  0  0  0  0  0  0  0  0  0  0  0
   21.4654   29.5638   75.1797 H   0  0  0  0  0  0  0  0  0  0  0  0
   21.0659   27.2230   74.4990 H   0  0  0  0  0  0  0  0  0  0  0  0
   17.5327   27.1187   76.9452 H   0  0  0  0  0  0  0  0  0  0  0  0
   17.9355   29.4654   77.6230 H   0  0  0  0  0  0  0  0  0  0  0  0
   20.7074   25.0278   74.3339 H   0  0  0  0  0  0  0  0  0  0  0  0
   19.5117   25.8462   73.2721 H   0  0  0  0  0  0  0  0  0  0  0  0
   19.4538   23.5262   72.7919 H   0  0  0  0  0  0  0  0  0  0  0  0
   17.9505   23.9654   73.6717 H   0  0  0  0  0  0  0  0  0  0  0  0
   18.8156   21.7558   74.2754 H   0  0  0  0  0  0  0  0  0  0  0  0
   18.7366   22.8883   75.6675 H   0  0  0  0  0  0  0  0  0  0  0  0
   21.1849   23.2160   75.0992 H   0  0  0  0  0  0  0  0  0  0  0  0
   20.1704   20.7557   76.3454 H   0  0  0  0  0  0  0  0  0  0  0  0
   20.3583   22.3542   77.1429 H   0  0  0  0  0  0  0  0  0  0  0  0
   22.2249   20.8063   77.6822 H   0  0  0  0  0  0  0  0  0  0  0  0
   22.7854   22.2691   76.8030 H   0  0  0  0  0  0  0  0  0  0  0  0
   22.2758   19.6342   75.6349 H   0  0  0  0  0  0  0  0  0  0  0  0
   23.1646   20.5173   73.6249 H   0  0  0  0  0  0  0  0  0  0  0  0
   23.3077   22.1065   74.4499 H   0  0  0  0  0  0  0  0  0  0  0  0
   21.2731   22.0079   73.0659 H   0  0  0  0  0  0  0  0  0  0  0  0
   20.7252   20.5495   73.9600 H   0  0  0  0  0  0  0  0  0  0  0  0
   24.2131   19.6548   77.0072 H   0  0  0  0  0  0  0  0  0  0  0  0
   24.7805   21.0870   76.0835 H   0  0  0  0  0  0  0  0  0  0  0  0
   24.6052   19.4997   75.2611 H   0  0  0  0  0  0  0  0  0  0  0  0
  1  2  1  0  0  0  0
  1 36  1  0  0  0  0
  1 37  1  0  0  0  0
  1 38  1  0  0  0  0
  2  3  2  0  0  0  0
  2  7  1  0  0  0  0
  3  4  1  0  0  0  0
  3 39  1  0  0  0  0
  4  5  2  0  0  0  0
  4 40  1  0  0  0  0
  5  6  1  0  0  0  0
  5  9  1  0  0  0  0
  6  7  2  0  0  0  0
  6 41  1  0  0  0  0
  7  8  1  0  0  0  0
  8 42  1  0  0  0  0
  8 43  1  0  0  0  0
  8 44  1  0  0  0  0
  9 10  2  0  0  0  0
  9 14  1  0  0  0  0
 10 11  1  0  0  0  0
 10 45  1  0  0  0  0
 11 12  2  0  0  0  0
 12 13  1  0  0  0  0
 12 18  1  0  0  0  0
 13 14  2  0  0  0  0
 13 15  1  0  0  0  0
 15 16  2  0  0  0  0
 15 17  1  0  0  0  0
 17 46  1  0  0  0  0
 17 47  1  0  0  0  0
 18 19  1  0  0  0  0
 18 48  1  0  0  0  0
 19 20  2  0  0  0  0
 19 24  1  0  0  0  0
 20 21  1  0  0  0  0
 20 49  1  0  0  0  0
 21 22  2  0  0  0  0
 21 50  1  0  0  0  0
 22 23  1  0  0  0  0
 22 25  1  0  0  0  0
 23 24  2  0  0  0  0
 23 51  1  0  0  0  0
 24 52  1  0  0  0  0
 25 26  1  0  0  0  0
 26 27  1  0  0  0  0
 26 53  1  0  0  0  0
 26 54  1  0  0  0  0
 27 28  1  0  0  0  0
 27 55  1  0  0  0  0
 27 56  1  0  0  0  0
 28 29  1  0  0  0  0
 28 57  1  0  0  0  0
 28 58  1  0  0  0  0
 29 30  1  0  0  0  0
 29 34  1  0  0  0  0
 29 59  1  1  0  0  0
 30 31  1  0  0  0  0
 30 60  1  0  0  0  0
 30 61  1  0  0  0  0
 31 32  1  0  0  0  0
 31 62  1  0  0  0  0
 31 63  1  0  0  0  0
 32 33  1  0  0  0  0
 32 35  1  0  0  0  0
 32 64  1  6  0  0  0
 33 34  1  0  0  0  0
 33 65  1  0  0  0  0
 33 66  1  0  0  0  0
 34 67  1  0  0  0  0
 34 68  1  0  0  0  0
 35 69  1  0  0  0  0
 35 70  1  0  0  0  0
 35 71  1  0  0  0  0
M  CHG  2  29   1  32   1
M  END
