4b70_ligand
 OpenBabel08222323353D

 39 41  0  0  1  0  0  0  0  0999 V2000
    5.1590    3.2290  -22.1330 C   0  0  0  0  0  0  0  0  0  0  0  0
    5.3060    2.4910  -20.8120 C   0  0  2  0  0  0  0  0  0  0  0  0
    4.0000    2.7320  -20.2080 N   0  0  0  0  0  0  0  0  0  0  0  0
    3.9710    3.1560  -18.9830 C   0  0  2  0  0  3  0  0  0  0  0  0
    5.1890    3.3470  -18.1090 C   0  0  0  0  0  0  0  0  0  0  0  0
    6.4300    2.7420  -18.7410 C   0  0  0  0  0  0  0  0  0  0  0  0
    6.4230    3.0850  -20.1310 O   0  0  0  0  0  0  0  0  0  0  0  0
    2.7830    3.4370  -18.3740 N   0  0  0  0  0  0  0  0  0  0  0  0
    5.6270    1.0350  -21.0740 C   0  0  0  0  0  0  0  0  0  0  0  0
    6.5180    0.6920  -22.0750 C   0  0  0  0  0  0  0  0  0  0  0  0
    6.8260   -0.6320  -22.3100 C   0  0  0  0  0  0  0  0  0  0  0  0
    6.2790   -1.6340  -21.5300 C   0  0  0  0  0  0  0  0  0  0  0  0
    5.3790   -1.3330  -20.5230 C   0  0  0  0  0  0  0  0  0  0  0  0
    5.0750    0.0130  -20.3220 C   0  0  0  0  0  0  0  0  0  0  0  0
    4.8630   -2.3730  -19.6370 C   0  0  0  0  0  0  0  0  0  0  0  0
    5.5920   -3.5290  -19.3780 C   0  0  0  0  0  0  0  0  0  0  0  0
    5.1790   -4.4970  -18.4770 C   0  0  0  0  0  0  0  0  0  0  0  0
    3.9940   -4.3350  -17.7880 C   0  0  0  0  0  0  0  0  0  0  0  0
    3.2430   -3.2060  -18.0530 C   0  0  0  0  0  0  0  0  0  0  0  0
    3.6620   -2.2450  -18.9650 C   0  0  0  0  0  0  0  0  0  0  0  0
    1.7800   -2.9500  -17.1960 Cl  0  0  0  0  0  0  0  0  0  0  0  0
    4.3120    2.8090  -22.6953 H   0  0  0  0  0  0  0  0  0  0  0  0
    6.0817    3.1157  -22.7210 H   0  0  0  0  0  0  0  0  0  0  0  0
    4.9768    4.2962  -21.9385 H   0  0  0  0  0  0  0  0  0  0  0  0
    3.1308    2.5708  -20.7366 H   0  0  0  0  0  0  0  0  0  0  0  0
    5.0109    2.8629  -17.1375 H   0  0  0  0  0  0  0  0  0  0  0  0
    5.3544    4.4238  -17.9573 H   0  0  0  0  0  0  0  0  0  0  0  0
    6.4140    1.6482  -18.6252 H   0  0  0  0  0  0  0  0  0  0  0  0
    7.3316    3.1486  -18.2596 H   0  0  0  0  0  0  0  0  0  0  0  0
    2.7702    3.7733  -17.4005 H   0  0  0  0  0  0  0  0  0  0  0  0
    1.8989    3.3128  -18.8877 H   0  0  0  0  0  0  0  0  0  0  0  0
    6.9765    1.4675  -22.6778 H   0  0  0  0  0  0  0  0  0  0  0  0
    7.5045   -0.8897  -23.1152 H   0  0  0  0  0  0  0  0  0  0  0  0
    6.5581   -2.6660  -21.7092 H   0  0  0  0  0  0  0  0  0  0  0  0
    4.3719    0.2713  -19.5384 H   0  0  0  0  0  0  0  0  0  0  0  0
    6.5268   -3.6795  -19.9057 H   0  0  0  0  0  0  0  0  0  0  0  0
    5.7856   -5.3803  -18.3134 H   0  0  0  0  0  0  0  0  0  0  0  0
    3.6634   -5.0696  -17.0627 H   0  0  0  0  0  0  0  0  0  0  0  0
    3.0362   -1.3800  -19.1527 H   0  0  0  0  0  0  0  0  0  0  0  0
  1 22  1  0  0  0  0
  1 23  1  0  0  0  0
  1 24  1  0  0  0  0
  2  1  1  6  0  0  0
  2  3  1  0  0  0  0
  2  7  1  0  0  0  0
  2  9  1  0  0  0  0
  3  4  1  0  0  0  0
  3 25  1  0  0  0  0
  4  5  1  0  0  0  0
  4  8  1  1  0  0  0
  5  6  1  0  0  0  0
  5 26  1  0  0  0  0
  5 27  1  0  0  0  0
  6  7  1  0  0  0  0
  6 28  1  0  0  0  0
  6 29  1  0  0  0  0
  8 30  1  0  0  0  0
  8 31  1  0  0  0  0
  9 10  2  0  0  0  0
  9 14  1  0  0  0  0
 10 11  1  0  0  0  0
 10 32  1  0  0  0  0
 11 12  2  0  0  0  0
 11 33  1  0  0  0  0
 12 13  1  0  0  0  0
 12 34  1  0  0  0  0
 13 14  2  0  0  0  0
 13 15  1  0  0  0  0
 14 35  1  0  0  0  0
 15 16  2  0  0  0  0
 15 20  1  0  0  0  0
 16 17  1  0  0  0  0
 16 36  1  0  0  0  0
 17 18  2  0  0  0  0
 17 37  1  0  0  0  0
 18 19  1  0  0  0  0
 18 38  1  0  0  0  0
 19 20  2  0  0  0  0
 19 21  1  0  0  0  0
 20 39  1  0  0  0  0
M  END
