4b71_ligand
 OpenBabel08222323353D

 35 36  0  0  1  0  0  0  0  0999 V2000
    7.7680   13.4270  -39.4550 C   0  0  0  0  0  0  0  0  0  0  0  0
    7.1580   13.4280  -38.2140 C   0  0  0  0  0  0  0  0  0  0  0  0
    5.8280   13.7970  -38.0940 C   0  0  0  0  0  0  0  0  0  0  0  0
    5.1050   14.1660  -39.2150 C   0  0  0  0  0  0  0  0  0  0  0  0
    5.7170   14.1650  -40.4640 C   0  0  0  0  0  0  0  0  0  0  0  0
    7.0530   13.7940  -40.5790 C   0  0  0  0  0  0  0  0  0  0  0  0
    5.1250   14.5100  -41.6870 O   0  0  0  0  0  0  0  0  0  0  0  0
    3.8310   15.0160  -41.7490 C   0  0  0  0  0  0  0  0  0  0  0  0
    3.4620   16.3190  -41.3980 C   0  0  0  0  0  0  0  0  0  0  0  0
    2.1500   16.7420  -41.4900 C   0  0  0  0  0  0  0  0  0  0  0  0
    1.1700   15.8830  -41.9320 C   0  0  0  0  0  0  0  0  0  0  0  0
    1.4900   14.5790  -42.2910 C   0  0  0  0  0  0  0  0  0  0  0  0
    2.8320   14.1670  -42.1910 C   0  0  0  0  0  0  0  0  0  0  0  0
    4.6360   17.4580  -40.8330 Cl  0  0  0  0  0  0  0  0  0  0  0  0
    0.5340   12.2930  -42.1410 N   0  3  0  0  0  0  0  0  0  0  0  0
    0.1150   14.7410  -45.0340 C   0  0  0  0  0  0  0  0  0  0  0  0
    0.4300   13.4730  -44.2950 C   0  0  0  0  0  0  0  0  0  0  0  0
    3.1500   12.9070  -42.5370 F   0  0  0  0  0  0  0  0  0  0  0  0
    0.4080   13.6340  -42.7790 C   0  0  2  0  0  0  0  0  0  0  0  0
    8.8087   13.1378  -39.5462 H   0  0  0  0  0  0  0  0  0  0  0  0
    7.7212   13.1397  -37.3338 H   0  0  0  0  0  0  0  0  0  0  0  0
    5.3525   13.7967  -37.1198 H   0  0  0  0  0  0  0  0  0  0  0  0
    4.0646   14.4550  -39.1198 H   0  0  0  0  0  0  0  0  0  0  0  0
    7.5332   13.7929  -41.5508 H   0  0  0  0  0  0  0  0  0  0  0  0
    1.8909   17.7572  -41.2122 H   0  0  0  0  0  0  0  0  0  0  0  0
    0.1436   16.2250  -42.0005 H   0  0  0  0  0  0  0  0  0  0  0  0
   -0.1960   11.6881  -42.4834 H   0  0  0  0  0  0  0  0  0  0  0  0
    0.4506   12.3875  -41.1409 H   0  0  0  0  0  0  0  0  0  0  0  0
    1.4326   11.8963  -42.3672 H   0  0  0  0  0  0  0  0  0  0  0  0
    0.1486   14.5521  -46.1171 H   0  0  0  0  0  0  0  0  0  0  0  0
    0.8557   15.5112  -44.7730 H   0  0  0  0  0  0  0  0  0  0  0  0
   -0.8901   15.0889  -44.7535 H   0  0  0  0  0  0  0  0  0  0  0  0
    1.4327   13.1345  -44.5951 H   0  0  0  0  0  0  0  0  0  0  0  0
   -0.3132   12.7121  -44.5756 H   0  0  0  0  0  0  0  0  0  0  0  0
   -0.5644   14.0620  -42.4942 H   0  0  0  0  0  0  0  0  0  0  0  0
  1  2  2  0  0  0  0
  1 20  1  0  0  0  0
  2 21  1  0  0  0  0
  3  2  1  0  0  0  0
  3 22  1  0  0  0  0
  4  3  2  0  0  0  0
  4 23  1  0  0  0  0
  5  4  1  0  0  0  0
  5  6  2  0  0  0  0
  6  1  1  0  0  0  0
  6 24  1  0  0  0  0
  7  5  1  0  0  0  0
  8  7  1  0  0  0  0
  8  9  2  0  0  0  0
  9 14  1  0  0  0  0
 10  9  1  0  0  0  0
 10 25  1  0  0  0  0
 11 10  2  0  0  0  0
 11 26  1  0  0  0  0
 12 11  1  0  0  0  0
 12 13  2  0  0  0  0
 13  8  1  0  0  0  0
 13 18  1  0  0  0  0
 15 27  1  0  0  0  0
 15 28  1  0  0  0  0
 15 29  1  0  0  0  0
 16 30  1  0  0  0  0
 16 31  1  0  0  0  0
 16 32  1  0  0  0  0
 17 16  1  0  0  0  0
 17 19  1  0  0  0  0
 17 33  1  0  0  0  0
 17 34  1  0  0  0  0
 19 12  1  0  0  0  0
 19 15  1  0  0  0  0
 19 35  1  1  0  0  0
M  CHG  1  15   1
M  END
