4b82_ligand
 OpenBabel08222323353D

 38 38  0  0  0  0  0  0  0  0999 V2000
   28.5520   19.2410   12.7780 O   0  0  0  0  0  0  0  0  0  0  0  0
   29.5720   20.1640   13.0440 S   0  0  0  0  0  0  0  0  0  0  0  0
   30.8070   19.6810   13.5840 O   0  0  0  0  0  0  0  0  0  0  0  0
   29.0820   21.3310   14.1590 N   0  0  0  0  0  0  0  0  0  0  0  0
   28.1640   20.9740   15.2820 C   0  0  0  0  0  0  0  0  0  0  0  0
   26.6370   20.9640   15.0200 C   0  0  0  0  0  0  0  0  0  0  0  0
   26.1800   19.5470   14.6750 N   0  3  0  0  0  0  0  0  0  0  0  0
   24.9150   19.6750   13.8520 C   0  0  0  0  0  0  0  0  0  0  0  0
   24.9990   20.6810   12.7110 C   0  0  0  0  0  0  0  0  0  0  0  0
   29.9670   21.1500   11.6840 C   0  0  0  0  0  0  0  0  0  0  0  0
   29.8960   20.7770   10.3150 C   0  0  0  0  0  0  0  0  0  0  0  0
   30.2090   21.6560    9.2840 C   0  0  0  0  0  0  0  0  0  0  0  0
   30.6030   22.9600    9.5260 C   0  0  0  0  0  0  0  0  0  0  0  0
   30.6850   23.3860   10.8430 C   0  0  0  0  0  0  0  0  0  0  0  0
   30.3660   22.4860   11.8740 C   0  0  0  0  0  0  0  0  0  0  0  0
   25.8340   18.7800   15.9350 C   0  0  0  0  0  0  0  0  0  0  0  0
   30.4740   22.9230   13.0770 F   0  0  0  0  0  0  0  0  0  0  0  0
   26.9800   18.0130   16.5980 C   0  0  0  0  0  0  0  0  0  0  0  0
   29.4094   22.2714   14.0673 H   0  0  0  0  0  0  0  0  0  0  0  0
   28.3487   21.6942   16.0927 H   0  0  0  0  0  0  0  0  0  0  0  0
   28.4414   19.9641   15.6184 H   0  0  0  0  0  0  0  0  0  0  0  0
   26.4061   21.6366   14.1808 H   0  0  0  0  0  0  0  0  0  0  0  0
   26.1095   21.3083   15.9218 H   0  0  0  0  0  0  0  0  0  0  0  0
   26.8978   19.0632   14.1586 H   0  0  0  0  0  0  0  0  0  0  0  0
   24.0995   19.9841   14.5224 H   0  0  0  0  0  0  0  0  0  0  0  0
   24.6835   18.6888   13.4233 H   0  0  0  0  0  0  0  0  0  0  0  0
   24.0401   20.7056   12.1725 H   0  0  0  0  0  0  0  0  0  0  0  0
   25.8007   20.3842   12.0188 H   0  0  0  0  0  0  0  0  0  0  0  0
   25.2167   21.6795   13.1178 H   0  0  0  0  0  0  0  0  0  0  0  0
   29.5861   19.7689   10.0646 H   0  0  0  0  0  0  0  0  0  0  0  0
   30.1423   21.3089    8.2592 H   0  0  0  0  0  0  0  0  0  0  0  0
   30.8411   23.6305    8.7082 H   0  0  0  0  0  0  0  0  0  0  0  0
   30.9911   24.3999   11.0742 H   0  0  0  0  0  0  0  0  0  0  0  0
   25.0480   18.0538   15.6802 H   0  0  0  0  0  0  0  0  0  0  0  0
   25.4438   19.5001   16.6692 H   0  0  0  0  0  0  0  0  0  0  0  0
   26.6065   17.5005   17.4968 H   0  0  0  0  0  0  0  0  0  0  0  0
   27.7765   18.7167   16.8815 H   0  0  0  0  0  0  0  0  0  0  0  0
   27.3808   17.2704   15.8924 H   0  0  0  0  0  0  0  0  0  0  0  0
  1  2  2  0  0  0  0
  2  3  2  0  0  0  0
  2  4  1  0  0  0  0
  2 10  1  0  0  0  0
  4  5  1  0  0  0  0
  4 19  1  0  0  0  0
  5  6  1  0  0  0  0
  5 20  1  0  0  0  0
  5 21  1  0  0  0  0
  6  7  1  0  0  0  0
  6 22  1  0  0  0  0
  6 23  1  0  0  0  0
  7  8  1  0  0  0  0
  7 16  1  0  0  0  0
  7 24  1  0  0  0  0
  8  9  1  0  0  0  0
  8 25  1  0  0  0  0
  8 26  1  0  0  0  0
  9 27  1  0  0  0  0
  9 28  1  0  0  0  0
  9 29  1  0  0  0  0
 10 11  2  0  0  0  0
 10 15  1  0  0  0  0
 11 12  1  0  0  0  0
 11 30  1  0  0  0  0
 12 13  2  0  0  0  0
 12 31  1  0  0  0  0
 13 14  1  0  0  0  0
 13 32  1  0  0  0  0
 14 15  2  0  0  0  0
 14 33  1  0  0  0  0
 15 17  1  0  0  0  0
 16 18  1  0  0  0  0
 16 34  1  0  0  0  0
 16 35  1  0  0  0  0
 18 36  1  0  0  0  0
 18 37  1  0  0  0  0
 18 38  1  0  0  0  0
M  CHG  1   7   1
M  END
