4b84_ligand
 OpenBabel08222323353D

 41 41  0  0  0  0  0  0  0  0999 V2000
   30.6880   18.7140   12.0240 O   0  0  0  0  0  0  0  0  0  0  0  0
   29.8860   19.8950   12.0730 S   0  0  0  0  0  0  0  0  0  0  0  0
   29.9630   20.6260   13.6100 N   0  0  0  0  0  0  0  0  0  0  0  0
   28.7700   21.4280   13.8930 C   0  0  0  0  0  0  0  0  0  0  0  0
   27.8370   20.8800   14.9360 C   0  0  0  0  0  0  0  0  0  0  0  0
   26.9160   19.7970   14.5310 N   0  3  0  0  0  0  0  0  0  0  0  0
   25.5610   20.2560   14.2020 C   0  0  0  0  0  0  0  0  0  0  0  0
   25.2780   20.5480   12.7540 C   0  0  0  0  0  0  0  0  0  0  0  0
   26.9220   18.6590   15.4510 C   0  0  0  0  0  0  0  0  0  0  0  0
   27.6230   17.4340   14.9560 C   0  0  0  0  0  0  0  0  0  0  0  0
   30.2930   21.0490   10.8220 C   0  0  0  0  0  0  0  0  0  0  0  0
   31.5290   21.0210   10.1730 C   0  0  0  0  0  0  0  0  0  0  0  0
   31.8180   21.9530    9.1650 C   0  0  0  0  0  0  0  0  0  0  0  0
   33.1440   21.9410    8.4330 C   0  0  0  0  0  0  0  0  0  0  0  0
   33.8060   23.0540    8.7950 F   0  0  0  0  0  0  0  0  0  0  0  0
   32.9500   21.8850    7.0990 F   0  0  0  0  0  0  0  0  0  0  0  0
   33.8400   20.8670    8.7970 F   0  0  0  0  0  0  0  0  0  0  0  0
   30.8610   22.9260    8.8190 C   0  0  0  0  0  0  0  0  0  0  0  0
   29.6280   22.9510    9.4710 C   0  0  0  0  0  0  0  0  0  0  0  0
   29.3430   22.0160   10.4680 C   0  0  0  0  0  0  0  0  0  0  0  0
   28.6070   19.3090   11.7770 O   0  0  0  0  0  0  0  0  0  0  0  0
   30.7301   20.5204   14.2428 H   0  0  0  0  0  0  0  0  0  0  0  0
   28.2035   21.5300   12.9557 H   0  0  0  0  0  0  0  0  0  0  0  0
   29.1043   22.4205   14.2293 H   0  0  0  0  0  0  0  0  0  0  0  0
   27.2216   21.7164   15.2988 H   0  0  0  0  0  0  0  0  0  0  0  0
   28.4551   20.4949   15.7604 H   0  0  0  0  0  0  0  0  0  0  0  0
   27.2921   19.4423   13.6657 H   0  0  0  0  0  0  0  0  0  0  0  0
   25.3750   21.1792   14.7704 H   0  0  0  0  0  0  0  0  0  0  0  0
   24.8569   19.4764   14.5282 H   0  0  0  0  0  0  0  0  0  0  0  0
   24.2353   20.8808   12.6441 H   0  0  0  0  0  0  0  0  0  0  0  0
   25.4368   19.6370   12.1584 H   0  0  0  0  0  0  0  0  0  0  0  0
   25.9548   21.3398   12.4005 H   0  0  0  0  0  0  0  0  0  0  0  0
   25.8769   18.3890   15.6628 H   0  0  0  0  0  0  0  0  0  0  0  0
   27.4141   18.9782   16.3816 H   0  0  0  0  0  0  0  0  0  0  0  0
   27.5675   16.6455   15.7210 H   0  0  0  0  0  0  0  0  0  0  0  0
   28.6771   17.6723   14.7509 H   0  0  0  0  0  0  0  0  0  0  0  0
   27.1399   17.0832   14.0321 H   0  0  0  0  0  0  0  0  0  0  0  0
   32.2675   20.2769   10.4488 H   0  0  0  0  0  0  0  0  0  0  0  0
   31.0819   23.6545    8.0473 H   0  0  0  0  0  0  0  0  0  0  0  0
   28.8896   23.6980    9.2030 H   0  0  0  0  0  0  0  0  0  0  0  0
   28.3826   22.0384   10.9703 H   0  0  0  0  0  0  0  0  0  0  0  0
  1  2  2  0  0  0  0
  2  3  1  0  0  0  0
  2 11  1  0  0  0  0
  2 21  2  0  0  0  0
  3  4  1  0  0  0  0
  3 22  1  0  0  0  0
  4  5  1  0  0  0  0
  4 23  1  0  0  0  0
  4 24  1  0  0  0  0
  5  6  1  0  0  0  0
  5 25  1  0  0  0  0
  5 26  1  0  0  0  0
  6  7  1  0  0  0  0
  6  9  1  0  0  0  0
  6 27  1  0  0  0  0
  7  8  1  0  0  0  0
  7 28  1  0  0  0  0
  7 29  1  0  0  0  0
  8 30  1  0  0  0  0
  8 31  1  0  0  0  0
  8 32  1  0  0  0  0
  9 10  1  0  0  0  0
  9 33  1  0  0  0  0
  9 34  1  0  0  0  0
 10 35  1  0  0  0  0
 10 36  1  0  0  0  0
 10 37  1  0  0  0  0
 11 12  2  0  0  0  0
 11 20  1  0  0  0  0
 12 13  1  0  0  0  0
 12 38  1  0  0  0  0
 13 14  1  0  0  0  0
 13 18  2  0  0  0  0
 14 15  1  0  0  0  0
 14 16  1  0  0  0  0
 14 17  1  0  0  0  0
 18 19  1  0  0  0  0
 18 39  1  0  0  0  0
 19 20  2  0  0  0  0
 19 40  1  0  0  0  0
 20 41  1  0  0  0  0
M  CHG  1   6   1
M  END
