4b9w_ligand
 OpenBabel08222323353D

136136  0  0  1  0  0  0  0  0999 V2000
   32.6690   21.8530   43.5440 N   0  3  0  0  0  0  0  0  0  0  0  0
   33.9450   22.2290   42.8360 C   0  0  2  0  0  0  0  0  0  0  0  0
   33.6790   22.7030   41.3870 C   0  0  0  0  0  0  0  0  0  0  0  0
   34.3110   23.6490   40.9050 O   0  0  0  0  0  0  0  0  0  0  0  0
   34.9340   21.0640   42.8670 C   0  0  0  0  0  0  0  0  0  0  0  0
   32.7560   22.0180   40.7040 N   0  0  0  0  0  0  0  0  0  0  0  0
   32.1090   22.5140   39.4790 C   0  0  0  0  0  0  0  0  0  0  0  0
   30.8020   23.1690   39.9080 C   0  0  0  0  0  0  0  0  0  0  0  0
   30.8270   24.1800   40.6090 O   0  0  0  0  0  0  0  0  0  0  0  0
   29.6560   22.5990   39.5160 N   0  0  0  0  0  0  0  0  0  0  0  0
   28.3500   23.0790   40.0290 C   0  0  1  0  0  0  0  0  0  0  0  0
   27.2460   23.0680   38.9680 C   0  0  0  0  0  0  0  0  0  0  0  0
   27.3310   24.3700   38.1700 C   0  0  0  0  0  0  0  0  0  0  0  0
   26.5940   24.3110   36.8460 C   0  0  0  0  0  0  0  0  0  0  0  0
   26.9580   25.4450   35.9990 N   0  0  0  0  0  0  0  0  0  0  0  0
   27.5750   25.3530   34.8210 C   0  0  0  0  0  3  0  0  0  0  0  0
   27.8570   26.4840   34.1440 N   0  0  0  0  0  0  0  0  0  0  0  0
   27.5140   27.8240   34.6090 C   0  0  0  0  0  0  0  0  0  0  0  0
   27.9200   24.2140   34.3380 N   0  0  0  0  0  0  0  0  0  0  0  0
   28.6110   23.9020   33.0730 C   0  0  0  0  0  0  0  0  0  0  0  0
   27.9720   22.1800   41.1590 C   0  0  0  0  0  0  0  0  0  0  0  0
   27.1730   21.2700   40.9910 O   0  0  0  0  0  0  0  0  0  0  0  0
   28.5640   22.4220   42.3180 N   0  0  0  0  0  0  0  0  0  0  0  0
   28.3610   21.5580   43.4700 C   0  0  0  0  0  0  0  0  0  0  0  0
   27.1330   21.9970   44.2240 C   0  0  0  0  0  0  0  0  0  0  0  0
   26.7730   23.1700   44.2210 O   0  0  0  0  0  0  0  0  0  0  0  0
   26.5040   21.0570   44.9050 N   0  0  0  0  0  0  0  0  0  0  0  0
   25.3400   21.3650   45.7190 C   0  0  2  0  0  0  0  0  0  0  0  0
   25.7320   22.4280   46.7660 C   0  0  0  0  0  0  0  0  0  0  0  0
   26.8330   22.3980   47.3170 O   0  0  0  0  0  0  0  0  0  0  0  0
   24.8270   20.0800   46.3440 C   0  0  0  0  0  0  0  0  0  0  0  0
   23.6950   20.0400   47.3690 C   0  0  0  0  0  0  0  0  0  0  0  0
   23.1120   18.6310   47.4560 C   0  0  0  0  0  0  0  0  0  0  0  0
   24.1970   20.4940   48.7220 C   0  0  0  0  0  0  0  0  0  0  0  0
   24.8510   23.3990   46.9830 N   0  0  0  0  0  0  0  0  0  0  0  0
   25.0210   24.4020   48.0320 C   0  0  2  0  0  0  0  0  0  0  0  0
   23.8290   24.2770   48.9660 C   0  0  0  0  0  0  0  0  0  0  0  0
   22.7010   24.4570   48.5500 O   0  0  0  0  0  0  0  0  0  0  0  0
   25.0830   25.8340   47.4340 C   0  0  0  0  0  0  0  0  0  0  0  0
   24.9080   26.8850   48.5210 C   0  0  0  0  0  0  0  0  0  0  0  0
   26.3750   26.0490   46.6350 C   0  0  0  0  0  0  0  0  0  0  0  0
   24.0600   23.9650   50.2280 N   0  0  0  0  0  0  0  0  0  0  0  0
   22.9540   23.8700   51.1750 C   0  0  2  0  0  0  0  0  0  0  0  0
   22.3320   25.2560   51.4310 C   0  0  0  0  0  0  0  0  0  0  0  0
   23.0360   26.2130   51.8100 O   0  0  0  0  0  0  0  0  0  0  0  0
   23.4030   23.2210   52.4890 C   0  0  0  0  0  0  0  0  0  0  0  0
   23.8430   21.7860   52.3380 C   0  0  0  0  0  0  0  0  0  0  0  0
   22.9100   20.7630   52.2730 C   0  0  0  0  0  0  0  0  0  0  0  0
   25.1870   21.4590   52.2770 C   0  0  0  0  0  0  0  0  0  0  0  0
   23.3080   19.4460   52.1230 C   0  0  0  0  0  0  0  0  0  0  0  0
   25.5910   20.1450   52.1390 C   0  0  0  0  0  0  0  0  0  0  0  0
   24.6430   19.1340   52.0660 C   0  0  0  0  0  0  0  0  0  0  0  0
   21.0220   25.3410   51.1930 N   0  0  0  0  0  0  0  0  0  0  0  0
   20.2110   26.5260   51.5000 C   0  0  2  0  0  0  0  0  0  0  0  0
   18.9370   26.1340   52.2340 C   0  0  0  0  0  0  0  0  0  0  0  0
   18.2180   27.0180   52.6960 O   0  5  0  0  0  0  0  0  0  0  0  0
   19.7770   27.2190   50.2110 C   0  0  0  0  0  0  0  0  0  0  0  0
   20.5060   28.4900   49.8840 C   0  0  0  0  0  0  0  0  0  0  0  0
   19.9760   29.0570   48.5800 C   0  0  0  0  0  0  0  0  0  0  0  0
   21.0040   29.8560   47.9600 N   0  0  0  0  0  0  0  0  0  0  0  0
   20.9900   30.2960   46.7080 C   0  0  0  0  0  3  0  0  0  0  0  0
   19.9750   30.0360   45.8820 N   0  0  0  0  0  0  0  0  0  0  0  0
   22.0250   31.0030   46.2920 N   0  0  0  0  0  0  0  0  0  0  0  0
   18.5720   24.9410   52.3420 O   0  0  0  0  0  0  0  0  0  0  0  0
   32.8817   21.5504   44.4817 H   0  0  0  0  0  0  0  0  0  0  0  0
   32.2154   21.1044   43.0442 H   0  0  0  0  0  0  0  0  0  0  0  0
   32.0564   22.6527   43.5798 H   0  0  0  0  0  0  0  0  0  0  0  0
   34.3970   23.0696   43.3828 H   0  0  0  0  0  0  0  0  0  0  0  0
   35.8588   21.3542   42.3468 H   0  0  0  0  0  0  0  0  0  0  0  0
   34.4893   20.1920   42.3652 H   0  0  0  0  0  0  0  0  0  0  0  0
   35.1658   20.8074   43.9112 H   0  0  0  0  0  0  0  0  0  0  0  0
   32.4900   21.1165   41.0454 H   0  0  0  0  0  0  0  0  0  0  0  0
   31.9068   21.6788   38.7923 H   0  0  0  0  0  0  0  0  0  0  0  0
   32.7561   23.2505   38.9801 H   0  0  0  0  0  0  0  0  0  0  0  0
   29.6809   21.8381   38.8675 H   0  0  0  0  0  0  0  0  0  0  0  0
   28.4671   24.1086   40.3981 H   0  0  0  0  0  0  0  0  0  0  0  0
   26.2627   22.9946   39.4556 H   0  0  0  0  0  0  0  0  0  0  0  0
   27.3864   22.2097   38.2946 H   0  0  0  0  0  0  0  0  0  0  0  0
   28.3904   24.5887   37.9704 H   0  0  0  0  0  0  0  0  0  0  0  0
   26.8971   25.1795   38.7753 H   0  0  0  0  0  0  0  0  0  0  0  0
   25.5106   24.3350   37.0348 H   0  0  0  0  0  0  0  0  0  0  0  0
   26.8555   23.3760   36.3289 H   0  0  0  0  0  0  0  0  0  0  0  0
   26.7194   26.3878   36.3384 H   0  0  0  0  0  0  0  0  0  0  0  0
   28.3455   26.3969   33.2414 H   0  0  0  0  0  0  0  0  0  0  0  0
   27.8553   28.5662   33.8724 H   0  0  0  0  0  0  0  0  0  0  0  0
   28.0047   28.0137   35.5750 H   0  0  0  0  0  0  0  0  0  0  0  0
   26.4235   27.9022   34.7300 H   0  0  0  0  0  0  0  0  0  0  0  0
   27.6786   23.3988   34.9195 H   0  0  0  0  0  0  0  0  0  0  0  0
   28.7433   22.8134   32.9863 H   0  0  0  0  0  0  0  0  0  0  0  0
   29.5953   24.3930   33.0621 H   0  0  0  0  0  0  0  0  0  0  0  0
   28.0098   24.2668   32.2271 H   0  0  0  0  0  0  0  0  0  0  0  0
   29.1645   23.2171   42.4033 H   0  0  0  0  0  0  0  0  0  0  0  0
   29.2376   21.6190   44.1318 H   0  0  0  0  0  0  0  0  0  0  0  0
   28.2297   20.5201   43.1300 H   0  0  0  0  0  0  0  0  0  0  0  0
   26.8350   20.1144   44.8599 H   0  0  0  0  0  0  0  0  0  0  0  0
   24.5484   21.7816   45.0789 H   0  0  0  0  0  0  0  0  0  0  0  0
   25.6950   19.6158   46.8350 H   0  0  0  0  0  0  0  0  0  0  0  0
   24.4979   19.4475   45.5064 H   0  0  0  0  0  0  0  0  0  0  0  0
   22.9009   20.7275   47.0422 H   0  0  0  0  0  0  0  0  0  0  0  0
   22.2988   18.6158   48.1966 H   0  0  0  0  0  0  0  0  0  0  0  0
   23.8995   17.9265   47.7617 H   0  0  0  0  0  0  0  0  0  0  0  0
   22.7177   18.3359   46.4724 H   0  0  0  0  0  0  0  0  0  0  0  0
   24.6120   21.5092   48.6373 H   0  0  0  0  0  0  0  0  0  0  0  0
   24.9803   19.8057   49.0724 H   0  0  0  0  0  0  0  0  0  0  0  0
   23.3637   20.4973   49.4401 H   0  0  0  0  0  0  0  0  0  0  0  0
   24.0371   23.4452   46.4038 H   0  0  0  0  0  0  0  0  0  0  0  0
   25.9510   24.2040   48.5851 H   0  0  0  0  0  0  0  0  0  0  0  0
   24.2413   25.9390   46.7337 H   0  0  0  0  0  0  0  0  0  0  0  0
   24.9558   27.8881   48.0722 H   0  0  0  0  0  0  0  0  0  0  0  0
   25.7097   26.7784   49.2666 H   0  0  0  0  0  0  0  0  0  0  0  0
   23.9321   26.7481   49.0097 H   0  0  0  0  0  0  0  0  0  0  0  0
   26.4622   25.2707   45.8626 H   0  0  0  0  0  0  0  0  0  0  0  0
   27.2393   25.9912   47.3129 H   0  0  0  0  0  0  0  0  0  0  0  0
   26.3498   27.0391   46.1565 H   0  0  0  0  0  0  0  0  0  0  0  0
   24.9958   23.7933   50.5357 H   0  0  0  0  0  0  0  0  0  0  0  0
   22.1804   23.2282   50.7283 H   0  0  0  0  0  0  0  0  0  0  0  0
   22.5621   23.2535   53.1974 H   0  0  0  0  0  0  0  0  0  0  0  0
   24.2454   23.8017   52.8929 H   0  0  0  0  0  0  0  0  0  0  0  0
   21.8539   20.9978   52.3406 H   0  0  0  0  0  0  0  0  0  0  0  0
   25.9319   22.2441   52.3383 H   0  0  0  0  0  0  0  0  0  0  0  0
   22.5646   18.6604   52.0505 H   0  0  0  0  0  0  0  0  0  0  0  0
   26.6467   19.9041   52.0878 H   0  0  0  0  0  0  0  0  0  0  0  0
   24.9562   18.1012   51.9643 H   0  0  0  0  0  0  0  0  0  0  0  0
   20.5659   24.5518   50.7816 H   0  0  0  0  0  0  0  0  0  0  0  0
   20.8017   27.2177   52.1185 H   0  0  0  0  0  0  0  0  0  0  0  0
   18.7061   27.4550   50.2970 H   0  0  0  0  0  0  0  0  0  0  0  0
   19.9319   26.5159   49.3794 H   0  0  0  0  0  0  0  0  0  0  0  0
   21.5810   28.2802   49.7823 H   0  0  0  0  0  0  0  0  0  0  0  0
   20.3497   29.2203   50.6916 H   0  0  0  0  0  0  0  0  0  0  0  0
   19.0945   29.6833   48.7820 H   0  0  0  0  0  0  0  0  0  0  0  0
   19.6943   28.2332   47.9077 H   0  0  0  0  0  0  0  0  0  0  0  0
   21.8187   30.1066   48.5382 H   0  0  0  0  0  0  0  0  0  0  0  0
   19.9934   30.3917   44.9155 H   0  0  0  0  0  0  0  0  0  0  0  0
   19.1730   29.4796   46.2108 H   0  0  0  0  0  0  0  0  0  0  0  0
   22.8055   31.2004   46.9344 H   0  0  0  0  0  0  0  0  0  0  0  0
   22.0517   31.3570   45.3251 H   0  0  0  0  0  0  0  0  0  0  0  0
  1  2  1  0  0  0  0
  1 65  1  0  0  0  0
  1 66  1  0  0  0  0
  1 67  1  0  0  0  0
  2  3  1  0  0  0  0
  2  5  1  0  0  0  0
  2 68  1  1  0  0  0
  3  4  2  0  0  0  0
  3  6  1  0  0  0  0
  5 69  1  0  0  0  0
  5 70  1  0  0  0  0
  5 71  1  0  0  0  0
  6  7  1  0  0  0  0
  6 72  1  0  0  0  0
  7  8  1  0  0  0  0
  7 73  1  0  0  0  0
  7 74  1  0  0  0  0
  8  9  2  0  0  0  0
  8 10  1  0  0  0  0
 10 11  1  0  0  0  0
 10 75  1  0  0  0  0
 11 12  1  0  0  0  0
 11 21  1  0  0  0  0
 11 76  1  1  0  0  0
 12 13  1  0  0  0  0
 12 77  1  0  0  0  0
 12 78  1  0  0  0  0
 13 14  1  0  0  0  0
 13 79  1  0  0  0  0
 13 80  1  0  0  0  0
 14 15  1  0  0  0  0
 14 81  1  0  0  0  0
 14 82  1  0  0  0  0
 15 16  1  0  0  0  0
 15 83  1  0  0  0  0
 16 17  1  0  0  0  0
 16 19  1  0  0  0  0
 17 18  1  0  0  0  0
 17 84  1  0  0  0  0
 18 85  1  0  0  0  0
 18 86  1  0  0  0  0
 18 87  1  0  0  0  0
 19 20  1  0  0  0  0
 19 88  1  0  0  0  0
 20 89  1  0  0  0  0
 20 90  1  0  0  0  0
 20 91  1  0  0  0  0
 21 22  2  0  0  0  0
 21 23  1  0  0  0  0
 23 24  1  0  0  0  0
 23 92  1  0  0  0  0
 24 25  1  0  0  0  0
 24 93  1  0  0  0  0
 24 94  1  0  0  0  0
 25 26  2  0  0  0  0
 25 27  1  0  0  0  0
 27 28  1  0  0  0  0
 27 95  1  0  0  0  0
 28 29  1  0  0  0  0
 28 31  1  0  0  0  0
 28 96  1  6  0  0  0
 29 30  2  0  0  0  0
 29 35  1  0  0  0  0
 31 32  1  0  0  0  0
 31 97  1  0  0  0  0
 31 98  1  0  0  0  0
 32 33  1  0  0  0  0
 32 34  1  0  0  0  0
 32 99  1  0  0  0  0
 33100  1  0  0  0  0
 33101  1  0  0  0  0
 33102  1  0  0  0  0
 34103  1  0  0  0  0
 34104  1  0  0  0  0
 34105  1  0  0  0  0
 35 36  1  0  0  0  0
 35106  1  0  0  0  0
 36 37  1  0  0  0  0
 36 39  1  0  0  0  0
 36107  1  1  0  0  0
 37 38  2  0  0  0  0
 37 42  1  0  0  0  0
 39 40  1  0  0  0  0
 39 41  1  0  0  0  0
 39108  1  0  0  0  0
 40109  1  0  0  0  0
 40110  1  0  0  0  0
 40111  1  0  0  0  0
 41112  1  0  0  0  0
 41113  1  0  0  0  0
 41114  1  0  0  0  0
 42 43  1  0  0  0  0
 42115  1  0  0  0  0
 43 44  1  0  0  0  0
 43 46  1  0  0  0  0
 43116  1  6  0  0  0
 44 45  2  0  0  0  0
 44 53  1  0  0  0  0
 46 47  1  0  0  0  0
 46117  1  0  0  0  0
 46118  1  0  0  0  0
 47 48  2  0  0  0  0
 47 49  1  0  0  0  0
 48 50  1  0  0  0  0
 48119  1  0  0  0  0
 49 51  2  0  0  0  0
 49120  1  0  0  0  0
 50 52  2  0  0  0  0
 50121  1  0  0  0  0
 51 52  1  0  0  0  0
 51122  1  0  0  0  0
 52123  1  0  0  0  0
 53 54  1  0  0  0  0
 53124  1  0  0  0  0
 54 55  1  0  0  0  0
 54 57  1  0  0  0  0
 54125  1  1  0  0  0
 55 56  1  0  0  0  0
 55 64  2  0  0  0  0
 57 58  1  0  0  0  0
 57126  1  0  0  0  0
 57127  1  0  0  0  0
 58 59  1  0  0  0  0
 58128  1  0  0  0  0
 58129  1  0  0  0  0
 59 60  1  0  0  0  0
 59130  1  0  0  0  0
 59131  1  0  0  0  0
 60 61  1  0  0  0  0
 60132  1  0  0  0  0
 61 62  1  0  0  0  0
 61 63  1  0  0  0  0
 62133  1  0  0  0  0
 62134  1  0  0  0  0
 63135  1  0  0  0  0
 63136  1  0  0  0  0
M  CHG  2   1   1  56  -1
M  END
