4ba3_ligand
 OpenBabel08222323353D

118118  0  0  1  0  0  0  0  0999 V2000
    2.0970   12.1970    5.7940 N   0  3  0  0  0  0  0  0  0  0  0  0
    1.9300   12.2890    4.3430 C   0  0  2  0  0  0  0  0  0  0  0  0
    0.8160   11.3200    3.8870 C   0  0  0  0  0  0  0  0  0  0  0  0
    0.9790   10.5360    2.9450 O   0  0  0  0  0  0  0  0  0  0  0  0
    3.2660   12.0420    3.5980 C   0  0  0  0  0  0  0  0  0  0  0  0
    4.4070   13.0600    3.8440 C   0  0  0  0  0  0  0  0  0  0  0  0
    5.7460   12.5070    3.3730 C   0  0  0  0  0  0  0  0  0  0  0  0
    4.1210   14.4180    3.1870 C   0  0  0  0  0  0  0  0  0  0  0  0
   -0.3170   11.4280    4.5750 N   0  0  0  0  0  0  0  0  0  0  0  0
   -1.5270   10.6560    4.3360 C   0  0  0  0  0  0  0  0  0  0  0  0
   -1.7780    9.6970    5.4750 C   0  0  0  0  0  0  0  0  0  0  0  0
   -2.3680   10.0630    6.4970 O   0  0  0  0  0  0  0  0  0  0  0  0
   -1.3070    8.4640    5.2930 N   0  0  0  0  0  0  0  0  0  0  0  0
   -1.4490    7.3490    6.2250 C   0  0  2  0  0  0  0  0  0  0  0  0
   -0.1050    6.6590    6.4170 C   0  0  0  0  0  0  0  0  0  0  0  0
    0.7420    6.6830    5.5160 O   0  0  0  0  0  0  0  0  0  0  0  0
   -2.4950    6.3370    5.7170 C   0  0  0  0  0  0  0  0  0  0  0  0
   -3.9160    6.8800    5.6400 C   0  0  0  0  0  0  0  0  0  0  0  0
   -4.8200    5.9090    4.9020 C   0  0  0  0  0  0  0  0  0  0  0  0
   -6.1810    6.5120    4.6640 C   0  0  0  0  0  0  0  0  0  0  0  0
   -7.0630    5.6360    3.8470 N   0  3  0  0  0  0  0  0  0  0  0  0
    0.1010    6.0700    7.6010 N   0  0  0  0  0  0  0  0  0  0  0  0
    1.3380    5.3620    7.9440 C   0  0  2  0  0  0  0  0  0  0  0  0
    1.0300    4.1310    8.7740 C   0  0  0  0  0  0  0  0  0  0  0  0
    0.2440    4.1950    9.7290 O   0  0  0  0  0  0  0  0  0  0  0  0
    2.3440    6.2620    8.7250 C   0  0  0  0  0  0  0  0  0  0  0  0
    2.4440    7.7430    8.3160 C   0  0  0  0  0  0  0  0  0  0  0  0
    3.4460    8.0010    7.2060 C   0  0  0  0  0  0  0  0  0  0  0  0
    3.6400    9.4350    6.9650 N   0  0  0  0  0  0  0  0  0  0  0  0
    4.5060   10.2030    7.6250 C   0  0  0  0  0  3  0  0  0  0  0  0
    5.2640    9.6890    8.5880 N   0  0  0  0  0  0  0  0  0  0  0  0
    4.6160   11.4930    7.3320 N   0  0  0  0  0  0  0  0  0  0  0  0
    1.6550    3.0100    8.4140 N   0  0  0  0  0  0  0  0  0  0  0  0
    1.5470    1.7690    9.1780 C   0  0  2  0  0  0  0  0  0  0  0  0
    2.6980    1.7530   10.2120 C   0  0  0  0  0  0  0  0  0  0  0  0
    3.7160    2.4160    9.9940 O   0  0  0  0  0  0  0  0  0  0  0  0
    1.5490    0.5280    8.2560 C   0  0  0  0  0  0  0  0  0  0  0  0
    2.8370    0.2840    7.4550 C   0  0  0  0  0  0  0  0  0  0  0  0
    2.7380   -0.9410    6.5220 C   0  0  0  0  0  0  0  0  0  0  0  0
    2.8160   -2.2800    7.2340 C   0  0  0  0  0  0  0  0  0  0  0  0
    3.0770   -3.3970    6.2870 N   0  3  0  0  0  0  0  0  0  0  0  0
    2.5120    1.0430   11.3430 N   0  0  0  0  0  0  0  0  0  0  0  0
    3.4930    0.9030   12.4240 C   0  0  2  0  0  0  0  0  0  0  0  0
    4.2420   -0.4290   12.2770 C   0  0  0  0  0  0  0  0  0  0  0  0
    3.6263   -1.4730   11.9328 O   0  5  0  0  0  0  0  0  0  0  0  0
    2.7650    1.0090   13.7850 C   0  0  0  0  0  0  0  0  0  0  0  0
    3.5760    0.9090   15.0690 C   0  0  0  0  0  0  0  0  0  0  0  0
    4.9640    1.0330   15.0600 C   0  0  0  0  0  0  0  0  0  0  0  0
    2.9490    0.7410   16.2980 C   0  0  0  0  0  0  0  0  0  0  0  0
    5.7070    0.9350   16.2400 C   0  0  0  0  0  0  0  0  0  0  0  0
    3.6790    0.6420   17.4810 C   0  0  0  0  0  0  0  0  0  0  0  0
    5.0560    0.7500   17.4510 C   0  0  0  0  0  0  0  0  0  0  0  0
    5.7560    0.6590   18.6300 O   0  0  0  0  0  0  0  0  0  0  0  0
    5.4807   -0.4786   12.5021 O   0  0  0  0  0  0  0  0  0  0  0  0
    2.8240   12.8297    6.0893 H   0  0  0  0  0  0  0  0  0  0  0  0
    2.3504   11.2540    6.0440 H   0  0  0  0  0  0  0  0  0  0  0  0
    1.2317   12.4440    6.2482 H   0  0  0  0  0  0  0  0  0  0  0  0
    1.6043   13.3121    4.1037 H   0  0  0  0  0  0  0  0  0  0  0  0
    3.0493   12.0408    2.5196 H   0  0  0  0  0  0  0  0  0  0  0  0
    3.6354   11.0505    3.8989 H   0  0  0  0  0  0  0  0  0  0  0  0
    4.4749   13.2242    4.9295 H   0  0  0  0  0  0  0  0  0  0  0  0
    6.5356   13.2497    3.5599 H   0  0  0  0  0  0  0  0  0  0  0  0
    5.6946   12.2897    2.2959 H   0  0  0  0  0  0  0  0  0  0  0  0
    5.9748   11.5824    3.9231 H   0  0  0  0  0  0  0  0  0  0  0  0
    3.1513   14.7991    3.5399 H   0  0  0  0  0  0  0  0  0  0  0  0
    4.0918   14.2977    2.0940 H   0  0  0  0  0  0  0  0  0  0  0  0
    4.9149   15.1302    3.4564 H   0  0  0  0  0  0  0  0  0  0  0  0
   -0.3392   12.0958    5.3190 H   0  0  0  0  0  0  0  0  0  0  0  0
   -1.4140   10.0863    3.4018 H   0  0  0  0  0  0  0  0  0  0  0  0
   -2.3820   11.3422    4.2459 H   0  0  0  0  0  0  0  0  0  0  0  0
   -0.8122    8.2864    4.4423 H   0  0  0  0  0  0  0  0  0  0  0  0
   -1.7859    7.7435    7.1950 H   0  0  0  0  0  0  0  0  0  0  0  0
   -2.4944    5.4722    6.3968 H   0  0  0  0  0  0  0  0  0  0  0  0
   -2.1968    6.0116    4.7094 H   0  0  0  0  0  0  0  0  0  0  0  0
   -3.9070    7.8420    5.1067 H   0  0  0  0  0  0  0  0  0  0  0  0
   -4.3016    7.0294    6.6593 H   0  0  0  0  0  0  0  0  0  0  0  0
   -4.9320    4.9943    5.5027 H   0  0  0  0  0  0  0  0  0  0  0  0
   -4.3635    5.6579    3.9332 H   0  0  0  0  0  0  0  0  0  0  0  0
   -6.0542    7.4706    4.1396 H   0  0  0  0  0  0  0  0  0  0  0  0
   -6.6632    6.6872    5.6370 H   0  0  0  0  0  0  0  0  0  0  0  0
   -7.9564    6.0848    3.7185 H   0  0  0  0  0  0  0  0  0  0  0  0
   -7.1942    4.7559    4.3205 H   0  0  0  0  0  0  0  0  0  0  0  0
   -6.6362    5.4738    2.9484 H   0  0  0  0  0  0  0  0  0  0  0  0
   -0.6257    6.1152    8.2864 H   0  0  0  0  0  0  0  0  0  0  0  0
    1.8174    5.0434    7.0066 H   0  0  0  0  0  0  0  0  0  0  0  0
    3.3437    5.8193    8.6040 H   0  0  0  0  0  0  0  0  0  0  0  0
    2.0560    6.2328    9.7862 H   0  0  0  0  0  0  0  0  0  0  0  0
    2.7441    8.3278    9.1980 H   0  0  0  0  0  0  0  0  0  0  0  0
    1.4532    8.0770    7.9744 H   0  0  0  0  0  0  0  0  0  0  0  0
    3.0803    7.5315    6.2809 H   0  0  0  0  0  0  0  0  0  0  0  0
    4.4110    7.5542    7.4874 H   0  0  0  0  0  0  0  0  0  0  0  0
    3.0663    9.8795    6.2341 H   0  0  0  0  0  0  0  0  0  0  0  0
    5.9312   10.2890    9.0938 H   0  0  0  0  0  0  0  0  0  0  0  0
    5.1843    8.6907    8.8286 H   0  0  0  0  0  0  0  0  0  0  0  0
    4.0342   11.9035    6.5878 H   0  0  0  0  0  0  0  0  0  0  0  0
    5.2832   12.0835    7.8489 H   0  0  0  0  0  0  0  0  0  0  0  0
    2.2199    3.0186    7.5889 H   0  0  0  0  0  0  0  0  0  0  0  0
    0.5918    1.7752    9.7235 H   0  0  0  0  0  0  0  0  0  0  0  0
    0.7231    0.6410    7.5383 H   0  0  0  0  0  0  0  0  0  0  0  0
    1.3707   -0.3575    8.8837 H   0  0  0  0  0  0  0  0  0  0  0  0
    3.6647    0.1219    8.1612 H   0  0  0  0  0  0  0  0  0  0  0  0
    3.0452    1.1749    6.8443 H   0  0  0  0  0  0  0  0  0  0  0  0
    3.5633   -0.8886    5.7966 H   0  0  0  0  0  0  0  0  0  0  0  0
    1.7773   -0.8905    5.9887 H   0  0  0  0  0  0  0  0  0  0  0  0
    1.8615   -2.4655    7.7484 H   0  0  0  0  0  0  0  0  0  0  0  0
    3.6298   -2.2429    7.9732 H   0  0  0  0  0  0  0  0  0  0  0  0
    3.1216   -4.2657    6.7963 H   0  0  0  0  0  0  0  0  0  0  0  0
    3.9533   -3.2392    5.8145 H   0  0  0  0  0  0  0  0  0  0  0  0
    2.3330   -3.4431    5.6085 H   0  0  0  0  0  0  0  0  0  0  0  0
    1.6354    0.5746   11.4535 H   0  0  0  0  0  0  0  0  0  0  0  0
    4.2234    1.7224   12.3529 H   0  0  0  0  0  0  0  0  0  0  0  0
    2.0171    0.2029   13.8134 H   0  0  0  0  0  0  0  0  0  0  0  0
    2.2548    1.9834   13.8019 H   0  0  0  0  0  0  0  0  0  0  0  0
    5.4767    1.2086   14.1212 H   0  0  0  0  0  0  0  0  0  0  0  0
    1.8671    0.6857   16.3373 H   0  0  0  0  0  0  0  0  0  0  0  0
    6.7884    1.0033   16.2089 H   0  0  0  0  0  0  0  0  0  0  0  0
    3.1674    0.4806   18.4229 H   0  0  0  0  0  0  0  0  0  0  0  0
    6.6849    0.7510   18.4534 H   0  0  0  0  0  0  0  0  0  0  0  0
  1  2  1  0  0  0  0
  1 55  1  0  0  0  0
  1 56  1  0  0  0  0
  1 57  1  0  0  0  0
  2  3  1  0  0  0  0
  2  5  1  0  0  0  0
  2 58  1  6  0  0  0
  3  4  2  0  0  0  0
  3  9  1  0  0  0  0
  5  6  1  0  0  0  0
  5 59  1  0  0  0  0
  5 60  1  0  0  0  0
  6  7  1  0  0  0  0
  6  8  1  0  0  0  0
  6 61  1  0  0  0  0
  7 62  1  0  0  0  0
  7 63  1  0  0  0  0
  7 64  1  0  0  0  0
  8 65  1  0  0  0  0
  8 66  1  0  0  0  0
  8 67  1  0  0  0  0
  9 10  1  0  0  0  0
  9 68  1  0  0  0  0
 10 11  1  0  0  0  0
 10 69  1  0  0  0  0
 10 70  1  0  0  0  0
 11 12  2  0  0  0  0
 11 13  1  0  0  0  0
 13 14  1  0  0  0  0
 13 71  1  0  0  0  0
 14 15  1  0  0  0  0
 14 17  1  0  0  0  0
 14 72  1  1  0  0  0
 15 16  2  0  0  0  0
 15 22  1  0  0  0  0
 17 18  1  0  0  0  0
 17 73  1  0  0  0  0
 17 74  1  0  0  0  0
 18 19  1  0  0  0  0
 18 75  1  0  0  0  0
 18 76  1  0  0  0  0
 19 20  1  0  0  0  0
 19 77  1  0  0  0  0
 19 78  1  0  0  0  0
 20 21  1  0  0  0  0
 20 79  1  0  0  0  0
 20 80  1  0  0  0  0
 21 81  1  0  0  0  0
 21 82  1  0  0  0  0
 21 83  1  0  0  0  0
 22 23  1  0  0  0  0
 22 84  1  0  0  0  0
 23 24  1  0  0  0  0
 23 26  1  0  0  0  0
 23 85  1  6  0  0  0
 24 25  2  0  0  0  0
 24 33  1  0  0  0  0
 26 27  1  0  0  0  0
 26 86  1  0  0  0  0
 26 87  1  0  0  0  0
 27 28  1  0  0  0  0
 27 88  1  0  0  0  0
 27 89  1  0  0  0  0
 28 29  1  0  0  0  0
 28 90  1  0  0  0  0
 28 91  1  0  0  0  0
 29 30  1  0  0  0  0
 29 92  1  0  0  0  0
 30 31  1  0  0  0  0
 30 32  1  0  0  0  0
 31 93  1  0  0  0  0
 31 94  1  0  0  0  0
 32 95  1  0  0  0  0
 32 96  1  0  0  0  0
 33 34  1  0  0  0  0
 33 97  1  0  0  0  0
 34 35  1  0  0  0  0
 34 37  1  0  0  0  0
 34 98  1  1  0  0  0
 35 36  2  0  0  0  0
 35 42  1  0  0  0  0
 37 38  1  0  0  0  0
 37 99  1  0  0  0  0
 37100  1  0  0  0  0
 38 39  1  0  0  0  0
 38101  1  0  0  0  0
 38102  1  0  0  0  0
 39 40  1  0  0  0  0
 39103  1  0  0  0  0
 39104  1  0  0  0  0
 40 41  1  0  0  0  0
 40105  1  0  0  0  0
 40106  1  0  0  0  0
 41107  1  0  0  0  0
 41108  1  0  0  0  0
 41109  1  0  0  0  0
 42 43  1  0  0  0  0
 42110  1  0  0  0  0
 43 44  1  0  0  0  0
 43 46  1  0  0  0  0
 43111  1  6  0  0  0
 44 45  1  0  0  0  0
 44 54  2  0  0  0  0
 46 47  1  0  0  0  0
 46112  1  0  0  0  0
 46113  1  0  0  0  0
 47 48  2  0  0  0  0
 47 49  1  0  0  0  0
 48 50  1  0  0  0  0
 48114  1  0  0  0  0
 49 51  2  0  0  0  0
 49115  1  0  0  0  0
 50 52  2  0  0  0  0
 50116  1  0  0  0  0
 51 52  1  0  0  0  0
 51117  1  0  0  0  0
 52 53  1  0  0  0  0
 53118  1  0  0  0  0
M  CHG  4   1   1  21   1  41   1  45  -1
M  END
