4bb4_ligand
 OpenBabel08222323353D

 51 54  0  0  0  0  0  0  0  0999 V2000
   14.1650   14.6920   10.0410 O   0  0  0  0  0  0  0  0  0  0  0  0
   13.3530   14.0190   10.6730 C   0  0  0  0  0  0  0  0  0  0  0  0
   12.2400   14.5460   11.1980 N   0  0  0  0  0  0  0  0  0  0  0  0
   11.8750   15.9530   11.0590 C   0  0  0  0  0  0  0  0  0  0  0  0
   12.3970   16.8110   12.1760 C   0  0  0  0  0  0  0  0  0  0  0  0
   11.8160   16.3560   13.3820 O   0  0  0  0  0  0  0  0  0  0  0  0
   12.2640   17.0930   14.5080 C   0  0  0  0  0  0  0  0  0  0  0  0
   13.5850   12.5560   10.9070 C   0  0  0  0  0  0  0  0  0  0  0  0
   14.8840   12.0490   10.9030 C   0  0  0  0  0  0  0  0  0  0  0  0
   15.1150   10.6990   11.1060 C   0  0  0  0  0  0  0  0  0  0  0  0
   14.0470    9.8120   11.1800 C   0  0  0  0  0  0  0  0  0  0  0  0
   12.7570   10.3220   11.2900 C   0  0  0  0  0  0  0  0  0  0  0  0
   12.5240   11.6720   11.0920 C   0  0  0  0  0  0  0  0  0  0  0  0
   14.3250    8.4760   11.5280 N   0  0  0  0  0  0  0  0  0  0  0  0
   13.5590    7.3910   11.8030 C   0  0  0  0  0  0  0  0  0  0  0  0
   12.1820    7.4260   11.4960 N   0  0  0  0  0  0  0  0  0  0  0  0
   11.4950    6.2700   11.7650 C   0  0  0  0  0  0  0  0  0  0  0  0
   12.1380    5.1120   12.2700 C   0  0  0  0  0  0  0  0  0  0  0  0
   13.5440    5.2200   12.4340 C   0  0  0  0  0  0  0  0  0  0  0  0
   14.2370    6.3240   12.2610 N   0  0  0  0  0  0  0  0  0  0  0  0
   10.1060    6.2200   11.4910 C   0  0  0  0  0  0  0  0  0  0  0  0
    9.3800    5.0960   11.7630 C   0  0  0  0  0  0  0  0  0  0  0  0
    9.9810    3.9380   12.2660 C   0  0  0  0  0  0  0  0  0  0  0  0
   11.3490    3.9570   12.5030 C   0  0  0  0  0  0  0  0  0  0  0  0
    9.1720    2.7720   12.6840 C   0  0  0  0  0  0  0  0  0  0  0  0
    8.7130    1.8340   11.7660 C   0  0  0  0  0  0  0  0  0  0  0  0
    7.9660    0.7610   12.2140 C   0  0  0  0  0  0  0  0  0  0  0  0
    7.6680    0.5450   13.5000 N   0  0  0  0  0  0  0  0  0  0  0  0
    8.1310    1.4350   14.3820 C   0  0  0  0  0  0  0  0  0  0  0  0
    8.8870    2.5390   14.0300 C   0  0  0  0  0  0  0  0  0  0  0  0
   11.6272   13.9454   11.7116 H   0  0  0  0  0  0  0  0  0  0  0  0
   10.7778   16.0299   11.0421 H   0  0  0  0  0  0  0  0  0  0  0  0
   12.2836   16.3284   10.1092 H   0  0  0  0  0  0  0  0  0  0  0  0
   12.1205   17.8612   12.0010 H   0  0  0  0  0  0  0  0  0  0  0  0
   13.4921   16.7247   12.2330 H   0  0  0  0  0  0  0  0  0  0  0  0
   11.7844   16.7012   15.4171 H   0  0  0  0  0  0  0  0  0  0  0  0
   11.9990   18.1531   14.3815 H   0  0  0  0  0  0  0  0  0  0  0  0
   13.3560   16.9963   14.5988 H   0  0  0  0  0  0  0  0  0  0  0  0
   15.7209   12.7182   10.7394 H   0  0  0  0  0  0  0  0  0  0  0  0
   16.1303   10.3330   11.2074 H   0  0  0  0  0  0  0  0  0  0  0  0
   11.9327    9.6606   11.5313 H   0  0  0  0  0  0  0  0  0  0  0  0
   11.5063   12.0451   11.0808 H   0  0  0  0  0  0  0  0  0  0  0  0
   15.3343    8.2791   11.5867 H   0  0  0  0  0  0  0  0  0  0  0  0
   14.0860    4.3268   12.7230 H   0  0  0  0  0  0  0  0  0  0  0  0
    9.6136    7.0844   11.0603 H   0  0  0  0  0  0  0  0  0  0  0  0
    8.3108    5.1015   11.5845 H   0  0  0  0  0  0  0  0  0  0  0  0
   11.8291    3.0604   12.8781 H   0  0  0  0  0  0  0  0  0  0  0  0
    8.9384    1.9430   10.7113 H   0  0  0  0  0  0  0  0  0  0  0  0
    7.5999    0.0525   11.4798 H   0  0  0  0  0  0  0  0  0  0  0  0
    7.9019    1.2840   15.4307 H   0  0  0  0  0  0  0  0  0  0  0  0
    9.2544    3.2164   14.7924 H   0  0  0  0  0  0  0  0  0  0  0  0
  1  2  2  0  0  0  0
  2  3  1  0  0  0  0
  2  8  1  0  0  0  0
  3  4  1  0  0  0  0
  3 31  1  0  0  0  0
  4  5  1  0  0  0  0
  4 32  1  0  0  0  0
  4 33  1  0  0  0  0
  5  6  1  0  0  0  0
  5 34  1  0  0  0  0
  5 35  1  0  0  0  0
  6  7  1  0  0  0  0
  7 36  1  0  0  0  0
  7 37  1  0  0  0  0
  7 38  1  0  0  0  0
  8  9  2  0  0  0  0
  8 13  1  0  0  0  0
  9 10  1  0  0  0  0
  9 39  1  0  0  0  0
 10 11  2  0  0  0  0
 10 40  1  0  0  0  0
 11 12  1  0  0  0  0
 11 14  1  0  0  0  0
 12 13  2  0  0  0  0
 12 41  1  0  0  0  0
 13 42  1  0  0  0  0
 14 15  1  0  0  0  0
 14 43  1  0  0  0  0
 15 16  2  0  0  0  0
 15 20  1  0  0  0  0
 16 17  1  0  0  0  0
 17 18  2  0  0  0  0
 17 21  1  0  0  0  0
 18 19  1  0  0  0  0
 18 24  1  0  0  0  0
 19 20  2  0  0  0  0
 19 44  1  0  0  0  0
 21 22  2  0  0  0  0
 21 45  1  0  0  0  0
 22 23  1  0  0  0  0
 22 46  1  0  0  0  0
 23 24  2  0  0  0  0
 23 25  1  0  0  0  0
 24 47  1  0  0  0  0
 25 26  2  0  0  0  0
 25 30  1  0  0  0  0
 26 27  1  0  0  0  0
 26 48  1  0  0  0  0
 27 28  2  0  0  0  0
 27 49  1  0  0  0  0
 28 29  1  0  0  0  0
 29 30  2  0  0  0  0
 29 50  1  0  0  0  0
 30 51  1  0  0  0  0
M  END
