4bbf_ligand
 OpenBabel08222323353D

 62 66  0  0  1  0  0  0  0  0999 V2000
   -1.3500  -26.8590  -32.1030 O   0  0  0  0  0  0  0  0  0  0  0  0
   -1.8570  -25.8660  -31.5760 C   0  0  0  0  0  0  0  0  0  0  0  0
   -1.1160  -25.1280  -30.5140 C   0  0  1  0  0  0  0  0  0  0  0  0
   -1.6610  -25.6520  -29.1790 C   0  0  0  0  0  0  0  0  0  0  0  0
   -0.8600  -26.9320  -28.9120 C   0  0  0  0  0  0  0  0  0  0  0  0
    0.4980  -26.6410  -29.5170 C   0  0  0  0  0  0  0  0  0  0  0  0
    0.2640  -25.5430  -30.4660 N   0  3  0  0  0  0  0  0  0  0  0  0
   -3.1000  -25.4040  -31.7760 N   0  0  0  0  0  0  0  0  0  0  0  0
   -4.0890  -25.8690  -32.6570 C   0  0  0  0  0  0  0  0  0  0  0  0
   -3.9360  -27.0530  -33.3960 C   0  0  0  0  0  0  0  0  0  0  0  0
   -5.2650  -25.1050  -32.7280 C   0  0  0  0  0  0  0  0  0  0  0  0
   -6.3400  -25.5260  -33.5280 C   0  0  0  0  0  0  0  0  0  0  0  0
   -6.1710  -26.7120  -34.2750 C   0  0  0  0  0  0  0  0  0  0  0  0
   -5.0000  -27.4500  -34.2170 C   0  0  0  0  0  0  0  0  0  0  0  0
   -7.2250  -27.1730  -35.2020 C   0  0  0  0  0  0  0  0  0  0  0  0
   -6.8070  -28.0420  -36.1570 N   0  0  0  0  0  0  0  0  0  0  0  0
   -7.6990  -28.5560  -37.0220 C   0  0  0  0  0  0  0  0  0  0  0  0
   -8.9470  -28.1300  -36.9750 N   0  0  0  0  0  0  0  0  0  0  0  0
   -9.4340  -27.2370  -36.0740 C   0  0  0  0  0  0  0  0  0  0  0  0
   -8.5740  -26.7360  -35.1040 C   0  0  0  0  0  0  0  0  0  0  0  0
   -7.4000  -29.3640  -38.0600 N   0  0  0  0  0  0  0  0  0  0  0  0
   -6.2160  -30.0380  -38.3500 C   0  0  0  0  0  0  0  0  0  0  0  0
   -4.9810  -29.7400  -37.7480 C   0  0  0  0  0  0  0  0  0  0  0  0
   -3.8460  -30.4820  -38.0600 C   0  0  0  0  0  0  0  0  0  0  0  0
   -3.9660  -31.5420  -38.9540 C   0  0  0  0  0  0  0  0  0  0  0  0
   -5.1840  -31.8540  -39.5390 C   0  0  0  0  0  0  0  0  0  0  0  0
   -6.3060  -31.1060  -39.2330 C   0  0  0  0  0  0  0  0  0  0  0  0
   -2.8620  -32.3230  -39.2560 N   0  0  0  0  0  0  0  0  0  0  0  0
   -1.8720  -32.6030  -38.1750 C   0  0  0  0  0  0  0  0  0  0  0  0
   -0.7540  -33.5720  -38.5840 C   0  0  0  0  0  0  0  0  0  0  0  0
   -0.7980  -33.9930  -39.9560 O   0  0  0  0  0  0  0  0  0  0  0  0
   -2.1180  -34.2200  -40.4710 C   0  0  0  0  0  0  0  0  0  0  0  0
   -2.7840  -32.8670  -40.6180 C   0  0  0  0  0  0  0  0  0  0  0  0
   -1.2203  -24.0392  -30.6302 H   0  0  0  0  0  0  0  0  0  0  0  0
   -2.7352  -25.8753  -29.2585 H   0  0  0  0  0  0  0  0  0  0  0  0
   -1.4976  -24.9170  -28.3771 H   0  0  0  0  0  0  0  0  0  0  0  0
   -1.3298  -27.7977  -29.4018 H   0  0  0  0  0  0  0  0  0  0  0  0
   -0.7751  -27.1231  -27.8321 H   0  0  0  0  0  0  0  0  0  0  0  0
    0.8865  -27.5275  -30.0396 H   0  0  0  0  0  0  0  0  0  0  0  0
    1.2106  -26.3332  -28.7376 H   0  0  0  0  0  0  0  0  0  0  0  0
    0.8278  -24.7541  -30.1906 H   0  0  0  0  0  0  0  0  0  0  0  0
    0.5402  -25.8486  -31.3860 H   0  0  0  0  0  0  0  0  0  0  0  0
   -3.3593  -24.6158  -31.2179 H   0  0  0  0  0  0  0  0  0  0  0  0
   -3.0265  -27.6396  -33.3336 H   0  0  0  0  0  0  0  0  0  0  0  0
   -5.3437  -24.1841  -32.1616 H   0  0  0  0  0  0  0  0  0  0  0  0
   -7.2645  -24.9616  -33.5703 H   0  0  0  0  0  0  0  0  0  0  0  0
   -4.9053  -28.3485  -34.8160 H   0  0  0  0  0  0  0  0  0  0  0  0
  -10.4706  -26.9223  -36.1110 H   0  0  0  0  0  0  0  0  0  0  0  0
   -8.9088  -26.0589  -34.3265 H   0  0  0  0  0  0  0  0  0  0  0  0
   -8.1611  -29.5034  -38.7399 H   0  0  0  0  0  0  0  0  0  0  0  0
   -4.9124  -28.9260  -37.0354 H   0  0  0  0  0  0  0  0  0  0  0  0
   -2.8875  -30.2393  -37.6157 H   0  0  0  0  0  0  0  0  0  0  0  0
   -5.2563  -32.6823  -40.2345 H   0  0  0  0  0  0  0  0  0  0  0  0
   -7.2598  -31.3543  -39.6843 H   0  0  0  0  0  0  0  0  0  0  0  0
   -2.4091  -33.0371  -37.3188 H   0  0  0  0  0  0  0  0  0  0  0  0
   -1.4107  -31.6508  -37.8740 H   0  0  0  0  0  0  0  0  0  0  0  0
   -0.8264  -34.4669  -37.9484 H   0  0  0  0  0  0  0  0  0  0  0  0
    0.2115  -33.0750  -38.4088 H   0  0  0  0  0  0  0  0  0  0  0  0
   -2.6914  -34.8478  -39.7731 H   0  0  0  0  0  0  0  0  0  0  0  0
   -2.0595  -34.7189  -41.4496 H   0  0  0  0  0  0  0  0  0  0  0  0
   -2.1817  -32.2091  -41.2617 H   0  0  0  0  0  0  0  0  0  0  0  0
   -3.7909  -32.9779  -41.0468 H   0  0  0  0  0  0  0  0  0  0  0  0
  1  2  2  0  0  0  0
  2  3  1  0  0  0  0
  2  8  1  0  0  0  0
  3  4  1  0  0  0  0
  3  7  1  0  0  0  0
  3 34  1  6  0  0  0
  4  5  1  0  0  0  0
  4 35  1  0  0  0  0
  4 36  1  0  0  0  0
  5  6  1  0  0  0  0
  5 37  1  0  0  0  0
  5 38  1  0  0  0  0
  6  7  1  0  0  0  0
  6 39  1  0  0  0  0
  6 40  1  0  0  0  0
  7 41  1  0  0  0  0
  7 42  1  0  0  0  0
  8  9  1  0  0  0  0
  8 43  1  0  0  0  0
  9 10  2  0  0  0  0
  9 11  1  0  0  0  0
 10 14  1  0  0  0  0
 10 44  1  0  0  0  0
 11 12  2  0  0  0  0
 11 45  1  0  0  0  0
 12 13  1  0  0  0  0
 12 46  1  0  0  0  0
 13 14  2  0  0  0  0
 13 15  1  0  0  0  0
 14 47  1  0  0  0  0
 15 16  2  0  0  0  0
 15 20  1  0  0  0  0
 16 17  1  0  0  0  0
 17 18  2  0  0  0  0
 17 21  1  0  0  0  0
 18 19  1  0  0  0  0
 19 20  2  0  0  0  0
 19 48  1  0  0  0  0
 20 49  1  0  0  0  0
 21 22  1  0  0  0  0
 21 50  1  0  0  0  0
 22 23  2  0  0  0  0
 22 27  1  0  0  0  0
 23 24  1  0  0  0  0
 23 51  1  0  0  0  0
 24 25  2  0  0  0  0
 24 52  1  0  0  0  0
 25 26  1  0  0  0  0
 25 28  1  0  0  0  0
 26 27  2  0  0  0  0
 26 53  1  0  0  0  0
 27 54  1  0  0  0  0
 28 29  1  0  0  0  0
 28 33  1  0  0  0  0
 29 30  1  0  0  0  0
 29 55  1  0  0  0  0
 29 56  1  0  0  0  0
 30 31  1  0  0  0  0
 30 57  1  0  0  0  0
 30 58  1  0  0  0  0
 31 32  1  0  0  0  0
 32 33  1  0  0  0  0
 32 59  1  0  0  0  0
 32 60  1  0  0  0  0
 33 61  1  0  0  0  0
 33 62  1  0  0  0  0
M  CHG  1   7   1
M  END
