4bbg_ligand
 OpenBabel08222323353D

 52 54  0  0  1  0  0  0  0  0999 V2000
   18.9120   33.6420  -23.6650 C   0  0  0  0  0  0  0  0  0  0  0  0
   17.8190   33.0290  -22.8690 C   0  0  0  0  0  0  0  0  0  0  0  0
   16.9460   32.2600  -23.7840 C   0  0  0  0  0  0  0  0  0  0  0  0
   16.7170   30.9520  -23.4950 C   0  0  0  0  0  0  0  0  0  0  0  0
   16.3990   32.8540  -24.8830 C   0  0  0  0  0  0  0  0  0  0  0  0
   15.5890   32.1000  -25.6870 C   0  0  0  0  0  0  0  0  0  0  0  0
   15.3630   30.7870  -25.3970 C   0  0  0  0  0  0  0  0  0  0  0  0
   15.9130   30.2050  -24.2980 C   0  0  0  0  0  0  0  0  0  0  0  0
   14.8970   32.6380  -26.9260 C   0  0  1  0  0  0  0  0  0  0  0  0
   15.3910   34.6160  -28.2610 C   0  0  0  0  0  0  0  0  0  0  0  0
   15.3610   35.9570  -28.5250 C   0  0  0  0  0  0  0  0  0  0  0  0
   14.7460   36.7930  -27.6330 C   0  0  0  0  0  0  0  0  0  0  0  0
   14.1580   36.2900  -26.4980 C   0  0  0  0  0  0  0  0  0  0  0  0
   14.1880   34.9450  -26.2380 C   0  0  0  0  0  0  0  0  0  0  0  0
   14.8210   34.1190  -27.1200 C   0  0  0  0  0  0  0  0  0  0  0  0
   15.9130   32.2250  -28.3200 S   0  0  0  0  0  0  0  0  0  0  0  0
   17.5720   32.2060  -27.5400 C   0  0  0  0  0  0  0  0  0  0  0  0
   18.7110   32.7760  -28.3880 C   0  0  0  0  0  0  0  0  0  0  0  0
   19.5250   31.6750  -28.8810 N   0  3  0  0  0  0  0  0  0  0  0  0
   11.3700   31.4120  -26.6220 C   0  0  0  0  0  0  0  0  0  0  0  0
   12.5560   32.0110  -26.3040 C   0  0  0  0  0  0  0  0  0  0  0  0
   13.5800   31.9940  -27.2050 C   0  0  0  0  0  0  0  0  0  0  0  0
   13.4180   31.3890  -28.4120 C   0  0  0  0  0  0  0  0  0  0  0  0
   12.2330   30.7870  -28.7260 C   0  0  0  0  0  0  0  0  0  0  0  0
   11.2020   30.7970  -27.8360 C   0  0  0  0  0  0  0  0  0  0  0  0
   12.0820   30.1950  -29.9130 O   0  0  0  0  0  0  0  0  0  0  0  0
   19.5715   34.2183  -22.9994 H   0  0  0  0  0  0  0  0  0  0  0  0
   18.4816   34.3115  -24.4242 H   0  0  0  0  0  0  0  0  0  0  0  0
   19.4928   32.8504  -24.1610 H   0  0  0  0  0  0  0  0  0  0  0  0
   17.2338   33.8175  -22.3732 H   0  0  0  0  0  0  0  0  0  0  0  0
   18.2450   32.3564  -22.1100 H   0  0  0  0  0  0  0  0  0  0  0  0
   17.1765   30.5029  -22.6220 H   0  0  0  0  0  0  0  0  0  0  0  0
   16.6004   33.8940  -25.1128 H   0  0  0  0  0  0  0  0  0  0  0  0
   14.7341   30.1970  -26.0538 H   0  0  0  0  0  0  0  0  0  0  0  0
   15.7142   29.1649  -24.0663 H   0  0  0  0  0  0  0  0  0  0  0  0
   15.8700   33.9408  -28.9608 H   0  0  0  0  0  0  0  0  0  0  0  0
   15.8168   36.3516  -29.4259 H   0  0  0  0  0  0  0  0  0  0  0  0
   14.7227   37.8599  -27.8235 H   0  0  0  0  0  0  0  0  0  0  0  0
   13.6669   36.9617  -25.8033 H   0  0  0  0  0  0  0  0  0  0  0  0
   13.7172   34.5445  -25.3475 H   0  0  0  0  0  0  0  0  0  0  0  0
   17.8201   31.1618  -27.2990 H   0  0  0  0  0  0  0  0  0  0  0  0
   17.5156   32.7932  -26.6115 H   0  0  0  0  0  0  0  0  0  0  0  0
   19.3295   33.4467  -27.7735 H   0  0  0  0  0  0  0  0  0  0  0  0
   18.2944   33.3370  -29.2375 H   0  0  0  0  0  0  0  0  0  0  0  0
   20.2793   32.0396  -29.4416 H   0  0  0  0  0  0  0  0  0  0  0  0
   18.9556   31.0612  -29.4423 H   0  0  0  0  0  0  0  0  0  0  0  0
   19.9041   31.1617  -28.1007 H   0  0  0  0  0  0  0  0  0  0  0  0
   10.5544   31.4230  -25.9081 H   0  0  0  0  0  0  0  0  0  0  0  0
   12.6823   32.4961  -25.3429 H   0  0  0  0  0  0  0  0  0  0  0  0
   14.2323   31.3845  -29.1275 H   0  0  0  0  0  0  0  0  0  0  0  0
   10.2589   30.3239  -28.0847 H   0  0  0  0  0  0  0  0  0  0  0  0
   12.8871   30.2760  -30.4107 H   0  0  0  0  0  0  0  0  0  0  0  0
  1 27  1  0  0  0  0
  1 28  1  0  0  0  0
  1 29  1  0  0  0  0
  2  1  1  0  0  0  0
  2 30  1  0  0  0  0
  2 31  1  0  0  0  0
  3  2  1  0  0  0  0
  3  4  2  0  0  0  0
  4 32  1  0  0  0  0
  5  3  1  0  0  0  0
  5 33  1  0  0  0  0
  6  5  2  0  0  0  0
  6  7  1  0  0  0  0
  7  8  2  0  0  0  0
  7 34  1  0  0  0  0
  8  4  1  0  0  0  0
  8 35  1  0  0  0  0
  9  6  1  0  0  0  0
  9 15  1  0  0  0  0
  9 16  1  6  0  0  0
 10 11  2  0  0  0  0
 10 36  1  0  0  0  0
 11 12  1  0  0  0  0
 11 37  1  0  0  0  0
 12 38  1  0  0  0  0
 13 12  2  0  0  0  0
 13 39  1  0  0  0  0
 14 13  1  0  0  0  0
 14 40  1  0  0  0  0
 15 10  1  0  0  0  0
 15 14  2  0  0  0  0
 16 17  1  0  0  0  0
 17 18  1  0  0  0  0
 17 41  1  0  0  0  0
 17 42  1  0  0  0  0
 18 19  1  0  0  0  0
 18 43  1  0  0  0  0
 18 44  1  0  0  0  0
 19 45  1  0  0  0  0
 19 46  1  0  0  0  0
 19 47  1  0  0  0  0
 20 25  1  0  0  0  0
 20 48  1  0  0  0  0
 21 20  2  0  0  0  0
 21 22  1  0  0  0  0
 21 49  1  0  0  0  0
 22  9  1  0  0  0  0
 22 23  2  0  0  0  0
 23 24  1  0  0  0  0
 23 50  1  0  0  0  0
 24 25  2  0  0  0  0
 24 26  1  0  0  0  0
 25 51  1  0  0  0  0
 26 52  1  0  0  0  0
M  CHG  1  19   1
M  END
