4bcd_ligand
 OpenBabel08222323353D

 65 69  0  0  1  0  0  0  0  0999 V2000
   42.7490   37.6400   86.5450 C   0  0  0  0  0  0  0  0  0  0  0  0
   44.1820   37.9120   86.0560 C   0  0  0  0  0  0  0  0  0  0  0  0
   45.2600   37.8390   87.1530 C   0  0  0  0  0  0  0  0  0  0  0  0
   45.3870   36.4340   87.7660 C   0  0  0  0  0  0  0  0  0  0  0  0
   45.6020   35.3310   86.9580 C   0  0  0  0  0  0  0  0  0  0  0  0
   45.3150   36.3010   89.1400 C   0  0  0  0  0  0  0  0  0  0  0  0
   45.7180   34.0590   87.5160 C   0  0  0  0  0  0  0  0  0  0  0  0
   45.4190   35.0230   89.7220 C   0  0  0  0  0  0  0  0  0  0  0  0
   45.6260   33.9000   88.9050 C   0  0  0  0  0  0  0  0  0  0  0  0
   41.7980   37.2600   85.4110 C   0  0  0  0  0  0  0  0  0  0  0  0
   42.2140   37.1100   84.2470 O   0  0  0  0  0  0  0  0  0  0  0  0
   33.2450   42.1010   91.8400 F   0  0  0  0  0  0  0  0  0  0  0  0
   33.9950   41.1550   91.2410 C   0  0  0  0  0  0  0  0  0  0  0  0
   35.0640   41.5440   90.4340 C   0  0  0  0  0  0  0  0  0  0  0  0
   35.8480   40.5720   89.8100 C   0  0  0  0  0  0  0  0  0  0  0  0
   33.7090   39.7960   91.4210 C   0  0  0  0  0  0  0  0  0  0  0  0
   34.5010   38.8240   90.7930 C   0  0  0  0  0  0  0  0  0  0  0  0
   35.5800   39.2090   89.9920 C   0  0  0  0  0  0  0  0  0  0  0  0
   36.4380   38.1840   89.3000 C   0  0  0  0  0  0  0  0  0  0  0  0
   36.5160   36.9620   89.8650 N   0  0  0  0  0  0  0  0  0  0  0  0
   37.3460   36.1710   89.0430 N   0  0  0  0  0  0  0  0  0  0  0  0
   37.2130   38.2500   88.1620 C   0  0  0  0  0  0  0  0  0  0  0  0
   37.7220   37.0290   87.9950 N   0  0  0  0  0  0  0  0  0  0  0  0
   38.6460   36.4510   86.9730 C   0  0  2  0  0  0  0  0  0  0  0  0
   39.9230   37.2530   87.0930 C   0  0  0  0  0  0  0  0  0  0  0  0
   38.1770   36.6100   85.5260 C   0  0  0  0  0  0  0  0  0  0  0  0
   39.4810   36.7340   84.7400 C   0  0  1  0  0  0  0  0  0  0  0  0
   39.4000   37.7860   83.6440 C   0  0  0  0  0  0  0  0  0  0  0  0
   39.7200   38.9680   83.8730 O   0  0  0  0  0  0  0  0  0  0  0  0
   40.5000   37.1040   85.7370 N   0  0  0  0  0  0  0  0  0  0  0  0
   38.9760   37.4040   82.4450 N   0  0  0  0  0  0  0  0  0  0  0  0
   38.8990   38.3780   81.3470 C   0  0  0  0  0  0  0  0  0  0  0  0
   38.4340   37.5290   80.1780 C   0  0  0  0  0  0  0  0  0  0  0  0
   37.7060   36.3580   80.8660 C   0  0  0  0  0  0  0  0  0  0  0  0
   38.5400   36.0370   82.1090 C   0  0  0  0  0  0  0  0  0  0  0  0
   42.3667   38.5476   87.0349 H   0  0  0  0  0  0  0  0  0  0  0  0
   42.7764   36.8148   87.2719 H   0  0  0  0  0  0  0  0  0  0  0  0
   44.2086   38.9198   85.6159 H   0  0  0  0  0  0  0  0  0  0  0  0
   44.4278   37.1681   85.2839 H   0  0  0  0  0  0  0  0  0  0  0  0
   44.9987   38.5492   87.9513 H   0  0  0  0  0  0  0  0  0  0  0  0
   46.2286   38.1206   86.7142 H   0  0  0  0  0  0  0  0  0  0  0  0
   45.6807   35.4572   85.8842 H   0  0  0  0  0  0  0  0  0  0  0  0
   45.1792   37.1756   89.7659 H   0  0  0  0  0  0  0  0  0  0  0  0
   45.8786   33.1971   86.8785 H   0  0  0  0  0  0  0  0  0  0  0  0
   45.3395   34.9066   90.7968 H   0  0  0  0  0  0  0  0  0  0  0  0
   45.7143   32.9142   89.3470 H   0  0  0  0  0  0  0  0  0  0  0  0
   35.2849   42.5957   90.2921 H   0  0  0  0  0  0  0  0  0  0  0  0
   36.6740   40.8755   89.1771 H   0  0  0  0  0  0  0  0  0  0  0  0
   32.8756   39.4955   92.0456 H   0  0  0  0  0  0  0  0  0  0  0  0
   34.2761   37.7723   90.9289 H   0  0  0  0  0  0  0  0  0  0  0  0
   37.3761   39.1210   87.5290 H   0  0  0  0  0  0  0  0  0  0  0  0
   38.8180   35.3861   87.1886 H   0  0  0  0  0  0  0  0  0  0  0  0
   40.5896   36.8331   87.8607 H   0  0  0  0  0  0  0  0  0  0  0  0
   39.7138   38.3075   87.3260 H   0  0  0  0  0  0  0  0  0  0  0  0
   37.5604   37.5134   85.4096 H   0  0  0  0  0  0  0  0  0  0  0  0
   37.6034   35.7300   85.1996 H   0  0  0  0  0  0  0  0  0  0  0  0
   39.7328   35.7660   84.2823 H   0  0  0  0  0  0  0  0  0  0  0  0
   39.8830   38.8261   81.1448 H   0  0  0  0  0  0  0  0  0  0  0  0
   38.1733   39.1733   81.5727 H   0  0  0  0  0  0  0  0  0  0  0  0
   39.2886   37.1697   79.5860 H   0  0  0  0  0  0  0  0  0  0  0  0
   37.7488   38.0929   79.5280 H   0  0  0  0  0  0  0  0  0  0  0  0
   37.6608   35.4861   80.1969 H   0  0  0  0  0  0  0  0  0  0  0  0
   36.6859   36.6536   81.1525 H   0  0  0  0  0  0  0  0  0  0  0  0
   37.9335   35.5879   82.9093 H   0  0  0  0  0  0  0  0  0  0  0  0
   39.3892   35.3770   81.8781 H   0  0  0  0  0  0  0  0  0  0  0  0
  1  2  1  0  0  0  0
  1 36  1  0  0  0  0
  1 37  1  0  0  0  0
  2  3  1  0  0  0  0
  2 38  1  0  0  0  0
  2 39  1  0  0  0  0
  3  4  1  0  0  0  0
  3 40  1  0  0  0  0
  3 41  1  0  0  0  0
  4  5  2  0  0  0  0
  4  6  1  0  0  0  0
  5  7  1  0  0  0  0
  5 42  1  0  0  0  0
  6  8  2  0  0  0  0
  6 43  1  0  0  0  0
  7  9  2  0  0  0  0
  7 44  1  0  0  0  0
  8  9  1  0  0  0  0
  8 45  1  0  0  0  0
  9 46  1  0  0  0  0
 10  1  1  0  0  0  0
 10 11  2  0  0  0  0
 13 12  1  0  0  0  0
 14 13  2  0  0  0  0
 14 47  1  0  0  0  0
 15 14  1  0  0  0  0
 15 48  1  0  0  0  0
 16 13  1  0  0  0  0
 16 49  1  0  0  0  0
 17 16  2  0  0  0  0
 17 50  1  0  0  0  0
 18 15  2  0  0  0  0
 18 17  1  0  0  0  0
 19 18  1  0  0  0  0
 19 20  1  0  0  0  0
 21 20  2  0  0  0  0
 22 19  2  0  0  0  0
 22 51  1  0  0  0  0
 23 21  1  0  0  0  0
 23 22  1  0  0  0  0
 24 23  1  0  0  0  0
 24 26  1  0  0  0  0
 24 52  1  1  0  0  0
 25 24  1  0  0  0  0
 25 30  1  0  0  0  0
 25 53  1  0  0  0  0
 25 54  1  0  0  0  0
 26 27  1  0  0  0  0
 26 55  1  0  0  0  0
 26 56  1  0  0  0  0
 27 28  1  0  0  0  0
 27 30  1  0  0  0  0
 27 57  1  6  0  0  0
 28 29  2  0  0  0  0
 28 31  1  0  0  0  0
 30 10  1  0  0  0  0
 31 32  1  0  0  0  0
 31 35  1  0  0  0  0
 32 33  1  0  0  0  0
 32 58  1  0  0  0  0
 32 59  1  0  0  0  0
 33 34  1  0  0  0  0
 33 60  1  0  0  0  0
 33 61  1  0  0  0  0
 34 35  1  0  0  0  0
 34 62  1  0  0  0  0
 34 63  1  0  0  0  0
 35 64  1  0  0  0  0
 35 65  1  0  0  0  0
M  END
