4bcw_ligand
 OpenBabel08222323353D

 20 20  0  0  0  0  0  0  0  0999 V2000
   -7.4380    7.1050   12.1310 Br  0  0  0  0  0  0  0  0  0  0  0  0
   -5.9200    6.2530   12.8710 C   0  0  0  0  0  0  0  0  0  0  0  0
   -4.6620    6.6880   12.4580 C   0  0  0  0  0  0  0  0  0  0  0  0
   -3.5150    6.0950   12.9780 C   0  0  0  0  0  0  0  0  0  0  0  0
   -6.0960    5.2280   13.8060 C   0  0  0  0  0  0  0  0  0  0  0  0
   -4.9850    4.6090   14.3670 C   0  0  0  0  0  0  0  0  0  0  0  0
   -3.6500    5.0750   13.9210 C   0  0  0  0  0  0  0  0  0  0  0  0
   -2.5330    4.5170   14.4180 O   0  0  0  0  0  0  0  0  0  0  0  0
   -5.0810    3.4810   15.3470 C   0  0  0  0  0  0  0  0  0  0  0  0
   -6.0920    3.2360   16.1850 C   0  0  0  0  0  0  0  0  0  0  0  0
   -6.0840    1.9800   17.1730 S   0  0  0  0  0  0  0  0  0  0  0  0
   -7.0460    0.9840   16.6210 O   0  0  0  0  0  1  0  0  0  0  0  0
   -6.5400    2.4350   18.5050 O   0  0  0  0  0  1  0  0  0  0  0  0
   -4.7010    1.4410   17.2720 O   0  0  0  0  0  1  0  0  0  0  0  0
   -4.5767    7.4882   11.7317 H   0  0  0  0  0  0  0  0  0  0  0  0
   -2.5325    6.4203   12.6556 H   0  0  0  0  0  0  0  0  0  0  0  0
   -7.0945    4.9176   14.0920 H   0  0  0  0  0  0  0  0  0  0  0  0
   -1.7726    4.9313   14.0273 H   0  0  0  0  0  0  0  0  0  0  0  0
   -4.2404    2.7894   15.3800 H   0  0  0  0  0  0  0  0  0  0  0  0
   -6.9461    3.9115   16.1952 H   0  0  0  0  0  0  0  0  0  0  0  0
  1  2  1  0  0  0  0
  2  3  2  0  0  0  0
  2  5  1  0  0  0  0
  3  4  1  0  0  0  0
  3 15  1  0  0  0  0
  4  7  2  0  0  0  0
  4 16  1  0  0  0  0
  5  6  2  0  0  0  0
  5 17  1  0  0  0  0
  6  7  1  0  0  0  0
  6  9  1  0  0  0  0
  7  8  1  0  0  0  0
  8 18  1  0  0  0  0
  9 10  2  0  0  0  0
  9 19  1  0  0  0  0
 10 11  1  0  0  0  0
 10 20  1  0  0  0  0
 11 12  1  0  0  0  0
 11 13  1  0  0  0  0
 11 14  1  0  0  0  0
M  END
