4bdb_ligand
 OpenBabel08222323353D

 21 21  0  0  0  0  0  0  0  0999 V2000
  -35.1630   35.0470   10.2520 O   0  0  0  0  0  0  0  0  0  0  0  0
  -36.3080   36.2210    8.1200 C   0  0  0  0  0  0  0  0  0  0  0  0
  -36.5730   34.7940    8.5210 C   0  0  0  0  0  0  0  0  0  0  0  0
  -37.5160   33.9530    7.7490 C   0  0  0  0  0  0  0  0  0  0  0  0
  -37.1380   35.1290    5.6550 O   0  0  0  0  0  0  0  0  0  0  0  0
  -37.6580   34.0810    6.3450 C   0  0  0  0  0  0  0  0  0  0  0  0
  -38.3620   33.1360    5.6110 C   0  0  0  0  0  0  0  0  0  0  0  0
  -38.9380   32.0490    6.2570 C   0  0  0  0  0  0  0  0  0  0  0  0
  -39.5500   31.0720    5.5220 O   0  0  0  0  0  0  0  0  0  0  0  0
  -38.8500   31.9280    7.6350 C   0  0  0  0  0  0  0  0  0  0  0  0
  -38.1550   32.8740    8.3670 C   0  0  0  0  0  0  0  0  0  0  0  0
  -36.0500   34.2180    9.5410 N   0  0  0  0  0  0  0  0  0  0  0  0
  -34.8089   34.5686   10.9924 H   0  0  0  0  0  0  0  0  0  0  0  0
  -35.5835   36.6689    8.8160 H   0  0  0  0  0  0  0  0  0  0  0  0
  -37.2480   36.7915    8.1519 H   0  0  0  0  0  0  0  0  0  0  0  0
  -35.8989   36.2451    7.0992 H   0  0  0  0  0  0  0  0  0  0  0  0
  -37.3405   35.0308    4.7320 H   0  0  0  0  0  0  0  0  0  0  0  0
  -38.4620   33.2458    4.5372 H   0  0  0  0  0  0  0  0  0  0  0  0
  -39.8904   30.4044    6.1059 H   0  0  0  0  0  0  0  0  0  0  0  0
  -39.3249   31.0936    8.1382 H   0  0  0  0  0  0  0  0  0  0  0  0
  -38.1047   32.7763    9.4454 H   0  0  0  0  0  0  0  0  0  0  0  0
  1 13  1  0  0  0  0
  2 14  1  0  0  0  0
  2 15  1  0  0  0  0
  2 16  1  0  0  0  0
  3  2  1  0  0  0  0
  3  4  1  0  0  0  0
  3 12  2  0  0  0  0
  4  6  2  0  0  0  0
  4 11  1  0  0  0  0
  5 17  1  0  0  0  0
  6  5  1  0  0  0  0
  6  7  1  0  0  0  0
  7  8  2  0  0  0  0
  7 18  1  0  0  0  0
  8  9  1  0  0  0  0
  8 10  1  0  0  0  0
  9 19  1  0  0  0  0
 10 11  2  0  0  0  0
 10 20  1  0  0  0  0
 11 21  1  0  0  0  0
 12  1  1  0  0  0  0
M  END
