4bdg_ligand
 OpenBabel08222323353D

 20 21  0  0  0  0  0  0  0  0999 V2000
  -36.4030   35.0950    7.1750 C   0  0  0  0  0  0  0  0  0  0  0  0
  -37.0160   33.9730    7.7600 C   0  0  0  0  0  0  0  0  0  0  0  0
  -35.7330   36.0430    7.8180 N   0  0  0  0  0  0  0  0  0  0  0  0
  -36.6190   35.0640    5.8160 N   0  0  0  0  0  0  0  0  0  0  0  0
  -38.4410   31.2160    7.9380 C   0  0  0  0  0  0  0  0  0  0  0  0
  -38.3540   31.9790    6.7810 C   0  0  0  0  0  0  0  0  0  0  0  0
  -37.6110   33.2530    6.7480 C   0  0  0  0  0  0  0  0  0  0  0  0
  -39.1130   30.0580    8.0200 N   0  0  0  0  0  0  0  0  0  0  0  0
  -39.7310   29.6240    6.9160 C   0  0  0  0  0  0  0  0  0  0  0  0
  -39.7060   30.3060    5.7130 C   0  0  0  0  0  0  0  0  0  0  0  0
  -39.0040   31.4970    5.6500 C   0  0  0  0  0  0  0  0  0  0  0  0
  -37.3580   33.9350    5.6100 N   0  0  0  0  0  0  0  0  0  0  0  0
  -37.0196   33.7198    8.8191 H   0  0  0  0  0  0  0  0  0  0  0  0
  -35.3198   36.8275    7.2938 H   0  0  0  0  0  0  0  0  0  0  0  0
  -35.6262   35.9943    8.8413 H   0  0  0  0  0  0  0  0  0  0  0  0
  -36.2951   35.7418    5.1113 H   0  0  0  0  0  0  0  0  0  0  0  0
  -37.9364   31.5773    8.8268 H   0  0  0  0  0  0  0  0  0  0  0  0
  -40.2793   28.6903    6.9667 H   0  0  0  0  0  0  0  0  0  0  0  0
  -40.2226   29.9179    4.8426 H   0  0  0  0  0  0  0  0  0  0  0  0
  -38.9609   32.0533    4.7206 H   0  0  0  0  0  0  0  0  0  0  0  0
  1  3  1  0  0  0  0
  1  4  1  0  0  0  0
  2  1  2  0  0  0  0
  2 13  1  0  0  0  0
  3 14  1  0  0  0  0
  3 15  1  0  0  0  0
  4 12  1  0  0  0  0
  4 16  1  0  0  0  0
  5  8  1  0  0  0  0
  5 17  1  0  0  0  0
  6  5  2  0  0  0  0
  6  7  1  0  0  0  0
  6 11  1  0  0  0  0
  7  2  1  0  0  0  0
  7 12  2  0  0  0  0
  8  9  2  0  0  0  0
  9 10  1  0  0  0  0
  9 18  1  0  0  0  0
 10 11  2  0  0  0  0
 10 19  1  0  0  0  0
 11 20  1  0  0  0  0
M  END
