4bfp_ligand
 OpenBabel08222323353D

 61 66  0  0  0  0  0  0  0  0999 V2000
  -37.4660   -3.5100    5.6330 O   0  0  0  0  0  0  0  0  0  0  0  0
  -37.4310   -2.3170    5.8820 C   0  0  0  0  0  0  0  0  0  0  0  0
  -36.5810   -1.4780    5.1090 C   0  0  0  0  0  0  0  0  0  0  0  0
  -36.5240   -0.1190    5.3690 C   0  0  0  0  0  0  0  0  0  0  0  0
  -35.8010   -2.0140    4.0860 C   0  0  0  0  0  0  0  0  0  0  0  0
  -34.9680   -1.1900    3.3320 C   0  0  0  0  0  0  0  0  0  0  0  0
  -34.9140    0.1720    3.5970 C   0  0  0  0  0  0  0  0  0  0  0  0
  -35.6870    0.7070    4.6090 C   0  0  0  0  0  0  0  0  0  0  0  0
  -35.6300    2.0720    4.8700 C   0  0  0  0  0  0  0  0  0  0  0  0
  -36.3990    2.6130    5.8800 C   0  0  0  0  0  0  0  0  0  0  0  0
  -37.2290    1.7950    6.6330 C   0  0  0  0  0  0  0  0  0  0  0  0
  -37.2890    0.4170    6.3700 C   0  0  0  0  0  0  0  0  0  0  0  0
  -38.1320   -0.4090    7.1330 C   0  0  0  0  0  0  0  0  0  0  0  0
  -38.8090    0.0850    8.0310 O   0  0  0  0  0  0  0  0  0  0  0  0
  -38.1970   -1.7840    6.8840 N   0  0  0  0  0  0  0  0  0  0  0  0
  -39.0960   -2.6200    7.7040 C   0  0  0  0  0  0  0  0  0  0  0  0
  -38.4990   -3.0130    9.0800 C   0  0  0  0  0  0  0  0  0  0  0  0
  -37.1990   -3.7910    8.8850 C   0  0  0  0  0  0  0  0  0  0  0  0
  -37.4010   -5.3350    7.9010 S   0  0  0  0  0  0  0  0  0  0  0  0
  -38.2190   -6.4270    9.0620 C   0  0  0  0  0  0  0  0  0  0  0  0
  -39.1350   -6.0690   10.1080 N   0  0  0  0  0  0  0  0  0  0  0  0
  -39.4830   -7.2690   10.7140 N   0  0  0  0  0  0  0  0  0  0  0  0
  -38.8540   -8.1670   10.1010 C   0  0  0  0  0  0  0  0  0  0  0  0
  -39.0130   -9.5010   10.4920 C   0  0  0  0  0  0  0  0  0  0  0  0
  -38.2650  -10.0190   11.5240 C   0  0  0  0  0  0  0  0  0  0  0  0
  -38.4420  -11.3490   11.9070 C   0  0  0  0  0  0  0  0  0  0  0  0
  -39.3490  -12.1230   11.2690 N   0  0  0  0  0  0  0  0  0  0  0  0
  -40.0960  -11.6070   10.2450 C   0  0  0  0  0  0  0  0  0  0  0  0
  -39.9250  -10.2820    9.8570 C   0  0  0  0  0  0  0  0  0  0  0  0
  -38.0880   -7.7920    9.1160 N   0  0  0  0  0  0  0  0  0  0  0  0
  -37.2820   -8.5420    8.2740 C   0  0  0  0  0  0  0  0  0  0  0  0
  -36.0670   -9.0580    8.7400 C   0  0  0  0  0  0  0  0  0  0  0  0
  -35.2510   -9.8020    7.8870 C   0  0  0  0  0  0  0  0  0  0  0  0
  -35.6410  -10.0280    6.5620 C   0  0  0  0  0  0  0  0  0  0  0  0
  -34.8210  -10.7770    5.7130 O   0  0  0  0  0  0  0  0  0  0  0  0
  -34.2880   -9.9750    4.7020 C   0  0  0  0  0  0  0  0  0  0  0  0
  -36.8440   -9.5120    6.0970 C   0  0  0  0  0  0  0  0  0  0  0  0
  -37.6660   -8.7630    6.9470 C   0  0  0  0  0  0  0  0  0  0  0  0
  -35.8425   -3.0767    3.8760 H   0  0  0  0  0  0  0  0  0  0  0  0
  -34.3621   -1.6122    2.5385 H   0  0  0  0  0  0  0  0  0  0  0  0
  -34.2665    0.8141    3.0109 H   0  0  0  0  0  0  0  0  0  0  0  0
  -34.9820    2.7104    4.2804 H   0  0  0  0  0  0  0  0  0  0  0  0
  -36.3547    3.6765    6.0850 H   0  0  0  0  0  0  0  0  0  0  0  0
  -37.8327    2.2208    7.4263 H   0  0  0  0  0  0  0  0  0  0  0  0
  -39.3184   -3.5415    7.1460 H   0  0  0  0  0  0  0  0  0  0  0  0
  -40.0280   -2.0618    7.8765 H   0  0  0  0  0  0  0  0  0  0  0  0
  -39.2204   -3.6405    9.6238 H   0  0  0  0  0  0  0  0  0  0  0  0
  -38.2941   -2.1019    9.6613 H   0  0  0  0  0  0  0  0  0  0  0  0
  -36.8031   -4.0597    9.8755 H   0  0  0  0  0  0  0  0  0  0  0  0
  -36.4793   -3.1404    8.3666 H   0  0  0  0  0  0  0  0  0  0  0  0
  -37.5412   -9.3965   12.0374 H   0  0  0  0  0  0  0  0  0  0  0  0
  -37.8518  -11.7623   12.7169 H   0  0  0  0  0  0  0  0  0  0  0  0
  -40.8215  -12.2311    9.7359 H   0  0  0  0  0  0  0  0  0  0  0  0
  -40.5195   -9.8730    9.0481 H   0  0  0  0  0  0  0  0  0  0  0  0
  -35.7599   -8.8795    9.7641 H   0  0  0  0  0  0  0  0  0  0  0  0
  -34.3132  -10.2057    8.2513 H   0  0  0  0  0  0  0  0  0  0  0  0
  -33.6479  -10.5859    4.0485 H   0  0  0  0  0  0  0  0  0  0  0  0
  -33.6899   -9.1683    5.1508 H   0  0  0  0  0  0  0  0  0  0  0  0
  -35.1062   -9.5391    4.1100 H   0  0  0  0  0  0  0  0  0  0  0  0
  -37.1474   -9.6901    5.0717 H   0  0  0  0  0  0  0  0  0  0  0  0
  -38.5995   -8.3544    6.5773 H   0  0  0  0  0  0  0  0  0  0  0  0
  1  2  2  0  0  0  0
  2  3  1  0  0  0  0
  2 15  1  0  0  0  0
  3  4  2  0  0  0  0
  3  5  1  0  0  0  0
  4  8  1  0  0  0  0
  4 12  1  0  0  0  0
  5  6  2  0  0  0  0
  5 39  1  0  0  0  0
  6  7  1  0  0  0  0
  6 40  1  0  0  0  0
  7  8  2  0  0  0  0
  7 41  1  0  0  0  0
  8  9  1  0  0  0  0
  9 10  2  0  0  0  0
  9 42  1  0  0  0  0
 10 11  1  0  0  0  0
 10 43  1  0  0  0  0
 11 12  2  0  0  0  0
 11 44  1  0  0  0  0
 12 13  1  0  0  0  0
 13 14  2  0  0  0  0
 13 15  1  0  0  0  0
 15 16  1  0  0  0  0
 16 17  1  0  0  0  0
 16 45  1  0  0  0  0
 16 46  1  0  0  0  0
 17 18  1  0  0  0  0
 17 47  1  0  0  0  0
 17 48  1  0  0  0  0
 18 19  1  0  0  0  0
 18 49  1  0  0  0  0
 18 50  1  0  0  0  0
 19 20  1  0  0  0  0
 20 21  2  0  0  0  0
 20 30  1  0  0  0  0
 21 22  1  0  0  0  0
 22 23  2  0  0  0  0
 23 24  1  0  0  0  0
 23 30  1  0  0  0  0
 24 25  2  0  0  0  0
 24 29  1  0  0  0  0
 25 26  1  0  0  0  0
 25 51  1  0  0  0  0
 26 27  2  0  0  0  0
 26 52  1  0  0  0  0
 27 28  1  0  0  0  0
 28 29  2  0  0  0  0
 28 53  1  0  0  0  0
 29 54  1  0  0  0  0
 30 31  1  0  0  0  0
 31 32  2  0  0  0  0
 31 38  1  0  0  0  0
 32 33  1  0  0  0  0
 32 55  1  0  0  0  0
 33 34  2  0  0  0  0
 33 56  1  0  0  0  0
 34 35  1  0  0  0  0
 34 37  1  0  0  0  0
 35 36  1  0  0  0  0
 36 57  1  0  0  0  0
 36 58  1  0  0  0  0
 36 59  1  0  0  0  0
 37 38  2  0  0  0  0
 37 60  1  0  0  0  0
 38 61  1  0  0  0  0
M  END
