4bg1_ligand
 OpenBabel08222323353D

 29 29  0  0  0  0  0  0  0  0999 V2000
   21.9340   33.1590   87.3770 C   0  0  0  0  0  0  0  0  0  0  0  0
   22.8010   33.1980   86.1520 C   0  0  0  0  0  0  0  0  0  0  0  0
   23.8190   32.0870   86.2900 C   0  0  0  0  0  0  0  0  0  0  0  0
   23.9090   31.8790   87.7860 C   0  0  0  0  0  0  0  0  0  0  0  0
   22.5100   32.5920   89.6990 C   0  0  0  0  0  0  0  0  0  0  0  0
   21.5730   31.0740   88.0260 C   0  0  0  0  0  0  0  0  0  0  0  0
   21.8110   29.7500   88.6350 C   0  0  0  0  0  0  0  0  0  0  0  0
   21.1390   28.7540   87.6630 C   0  0  0  0  0  0  0  0  0  0  0  0
   21.6300   27.4540   88.1920 C   0  0  0  0  0  0  0  0  0  0  0  0
   22.5310   32.1420   88.2900 N   0  3  0  0  0  0  0  0  0  0  0  0
   20.8920   26.5750   88.5800 O   0  5  0  0  0  0  0  0  0  0  0  0
   22.9340   27.3330   88.2630 O   0  0  0  0  0  0  0  0  0  0  0  0
   20.9077   32.8700   87.1065 H   0  0  0  0  0  0  0  0  0  0  0  0
   21.9210   34.1451   87.8642 H   0  0  0  0  0  0  0  0  0  0  0  0
   23.3110   34.1701   86.0818 H   0  0  0  0  0  0  0  0  0  0  0  0
   22.1892   33.0390   85.2518 H   0  0  0  0  0  0  0  0  0  0  0  0
   24.7917   32.3904   85.8755 H   0  0  0  0  0  0  0  0  0  0  0  0
   23.4745   31.1723   85.7853 H   0  0  0  0  0  0  0  0  0  0  0  0
   24.6261   32.5833   88.2328 H   0  0  0  0  0  0  0  0  0  0  0  0
   24.2157   30.8480   88.0162 H   0  0  0  0  0  0  0  0  0  0  0  0
   21.4704   32.7690   90.0119 H   0  0  0  0  0  0  0  0  0  0  0  0
   23.0855   33.5245   89.7947 H   0  0  0  0  0  0  0  0  0  0  0  0
   22.9584   31.8171   90.3381 H   0  0  0  0  0  0  0  0  0  0  0  0
   20.5916   31.4229   88.3797 H   0  0  0  0  0  0  0  0  0  0  0  0
   21.5397   30.9293   86.9361 H   0  0  0  0  0  0  0  0  0  0  0  0
   21.3504   29.6916   89.6322 H   0  0  0  0  0  0  0  0  0  0  0  0
   22.8890   29.5471   88.7166 H   0  0  0  0  0  0  0  0  0  0  0  0
   21.4695   28.9176   86.6267 H   0  0  0  0  0  0  0  0  0  0  0  0
   20.0422   28.8205   87.7129 H   0  0  0  0  0  0  0  0  0  0  0  0
  1  2  1  0  0  0  0
  1 13  1  0  0  0  0
  1 14  1  0  0  0  0
  2 15  1  0  0  0  0
  2 16  1  0  0  0  0
  3  2  1  0  0  0  0
  3 17  1  0  0  0  0
  3 18  1  0  0  0  0
  4  3  1  0  0  0  0
  4 19  1  0  0  0  0
  4 20  1  0  0  0  0
  5 21  1  0  0  0  0
  5 22  1  0  0  0  0
  5 23  1  0  0  0  0
  6  7  1  0  0  0  0
  6 10  1  0  0  0  0
  6 24  1  0  0  0  0
  6 25  1  0  0  0  0
  7  8  1  0  0  0  0
  7 26  1  0  0  0  0
  7 27  1  0  0  0  0
  8  9  1  0  0  0  0
  8 28  1  0  0  0  0
  8 29  1  0  0  0  0
  9 11  1  0  0  0  0
  9 12  2  0  0  0  0
 10  1  1  0  0  0  0
 10  4  1  0  0  0  0
 10  5  1  0  0  0  0
M  CHG  2  10   1  11  -1
M  END
