4bgk_ligand
 OpenBabel08222323353D

 26 25  0  0  0  0  0  0  0  0999 V2000
   20.6950   26.5190   88.1610 O   0  0  0  0  0  1  0  0  0  0  0  0
   21.5610   27.6810   87.7730 P   0  0  2  0  0  0  0  0  0  0  0  0
   22.9950   27.2710   87.4950 O   0  0  0  0  0  0  0  0  0  0  0  0
   21.4330   28.9260   89.0800 C   0  0  0  0  0  0  0  0  0  0  0  0
   22.3920   30.0910   88.8530 C   0  0  0  0  0  0  0  0  0  0  0  0
   21.9370   30.9200   87.6610 C   0  0  0  0  0  0  0  0  0  0  0  0
   22.7000   32.1780   87.4370 N   0  3  0  0  0  0  0  0  0  0  0  0
   24.1220   31.9360   87.0900 C   0  0  0  0  0  0  0  0  0  0  0  0
   22.6270   33.0900   88.6030 C   0  0  0  0  0  0  0  0  0  0  0  0
   22.0420   32.8190   86.2770 C   0  0  0  0  0  0  0  0  0  0  0  0
   21.1932   28.0782   86.9227 H   0  0  0  0  0  0  0  0  0  0  0  0
   21.6693   28.4539   90.0450 H   0  0  0  0  0  0  0  0  0  0  0  0
   20.4034   29.3125   89.1032 H   0  0  0  0  0  0  0  0  0  0  0  0
   23.4012   29.6987   88.6590 H   0  0  0  0  0  0  0  0  0  0  0  0
   22.4118   30.7259   89.7510 H   0  0  0  0  0  0  0  0  0  0  0  0
   20.8805   31.1853   87.8141 H   0  0  0  0  0  0  0  0  0  0  0  0
   22.0320   30.2989   86.7581 H   0  0  0  0  0  0  0  0  0  0  0  0
   24.6311   32.8990   86.9372 H   0  0  0  0  0  0  0  0  0  0  0  0
   24.1780   31.3411   86.1665 H   0  0  0  0  0  0  0  0  0  0  0  0
   24.6113   31.3886   87.9091 H   0  0  0  0  0  0  0  0  0  0  0  0
   21.5732   33.2706   88.8618 H   0  0  0  0  0  0  0  0  0  0  0  0
   23.1119   34.0450   88.3525 H   0  0  0  0  0  0  0  0  0  0  0  0
   23.1416   32.6312   89.4602 H   0  0  0  0  0  0  0  0  0  0  0  0
   22.0933   32.1461   85.4084 H   0  0  0  0  0  0  0  0  0  0  0  0
   22.5545   33.7631   86.0402 H   0  0  0  0  0  0  0  0  0  0  0  0
   20.9890   33.0243   86.5200 H   0  0  0  0  0  0  0  0  0  0  0  0
  1  2  1  0  0  0  0
  2  3  2  0  0  0  0
  2  4  1  0  0  0  0
  2 11  1  6  0  0  0
  4  5  1  0  0  0  0
  4 12  1  0  0  0  0
  4 13  1  0  0  0  0
  5  6  1  0  0  0  0
  5 14  1  0  0  0  0
  5 15  1  0  0  0  0
  6  7  1  0  0  0  0
  6 16  1  0  0  0  0
  6 17  1  0  0  0  0
  7  8  1  0  0  0  0
  7  9  1  0  0  0  0
  7 10  1  0  0  0  0
  8 18  1  0  0  0  0
  8 19  1  0  0  0  0
  8 20  1  0  0  0  0
  9 21  1  0  0  0  0
  9 22  1  0  0  0  0
  9 23  1  0  0  0  0
 10 24  1  0  0  0  0
 10 25  1  0  0  0  0
 10 26  1  0  0  0  0
M  CHG  1   7   1
M  END
