4bgy_ligand
 OpenBabel08222323353D

 87 89  0  0  1  0  0  0  0  0999 V2000
  -23.0570   29.6730   96.2540 C   0  0  0  0  0  0  0  0  0  0  0  0
  -23.1970   29.1360   97.6530 C   0  0  1  0  0  0  0  0  0  0  0  0
  -22.3010   29.9820   98.5510 C   0  0  0  0  0  0  0  0  0  0  0  0
  -22.8170   31.4160   98.5060 C   0  0  1  0  0  0  0  0  0  0  0  0
  -24.2550   31.4240   98.9760 C   0  0  2  0  0  0  0  0  0  0  0  0
  -25.0910   30.5180   98.0860 C   0  0  2  0  0  0  0  0  0  0  0  0
  -26.5540   30.4860   98.4720 C   0  0  1  0  0  0  0  0  0  0  0  0
  -27.2590   29.2710   97.8960 C   0  0  1  0  0  0  0  0  0  0  0  0
  -28.7700   29.4700   97.9120 C   0  0  0  0  0  0  0  0  0  0  0  0
  -25.7580   33.2900   99.3570 C   0  0  0  0  0  0  0  0  0  0  0  0
  -26.1010   34.7130   99.0290 C   0  0  0  0  0  0  0  0  0  0  0  0
  -24.6960   32.7860   98.7440 N   0  0  0  0  0  0  0  0  0  0  0  0
  -21.9030   29.8390   95.7930 O   0  5  0  0  0  0  0  0  0  0  0  0
  -24.0970   29.9320   95.6140 O   0  0  0  0  0  0  0  0  0  0  0  0
  -22.0290   32.2820   99.3200 O   0  0  0  0  0  0  0  0  0  0  0  0
  -24.5530   29.1970   98.1070 O   0  0  0  0  0  0  0  0  0  0  0  0
  -26.6610   30.4870   99.8870 O   0  0  0  0  0  0  0  0  0  0  0  0
  -26.8120   29.0690   96.5510 O   0  0  0  0  0  0  0  0  0  0  0  0
  -29.4080   28.3620   97.2830 O   0  0  0  0  0  0  0  0  0  0  0  0
  -26.4180   32.6330  100.1370 O   0  0  0  0  0  0  0  0  0  0  0  0
  -22.0520   25.1370  100.0930 C   0  0  1  0  0  0  0  0  0  0  0  0
  -21.8050   26.1350   98.9770 C   0  0  1  0  0  0  0  0  0  0  0  0
  -22.9570   27.1130   98.8440 C   0  0  2  0  0  0  0  0  0  0  0  0
  -24.2830   26.3870   98.8000 C   0  0  2  0  0  0  0  0  0  0  0  0
  -24.4020   25.4450   99.9880 C   0  0  1  0  0  0  0  0  0  0  0  0
  -25.7300   24.6900   99.9960 C   0  0  0  0  0  0  0  0  0  0  0  0
  -20.5860   26.8260   99.2520 O   0  0  0  0  0  0  0  0  0  0  0  0
  -22.7580   27.7900   97.6180 O   0  0  0  0  0  0  0  0  0  0  0  0
  -24.3150   25.6400   97.5890 O   0  0  0  0  0  0  0  0  0  0  0  0
  -23.3240   24.5130   99.9350 O   0  0  0  0  0  0  0  0  0  0  0  0
  -25.5120   23.3310  100.3900 O   0  0  0  0  0  0  0  0  0  0  0  0
  -19.8440   20.7600  101.8610 C   0  0  2  0  0  0  0  0  0  0  0  0
  -21.3310   20.8170  101.5490 C   0  0  1  0  0  0  0  0  0  0  0  0
  -21.6130   21.9250  100.5500 C   0  0  2  0  0  0  0  0  0  0  0  0
  -21.0270   23.2330  101.0550 C   0  0  1  0  0  0  0  0  0  0  0  0
  -19.5860   23.0840  101.5490 C   0  0  1  0  0  0  0  0  0  0  0  0
  -19.0880   24.3650  102.2140 C   0  0  0  0  0  0  0  0  0  0  0  0
  -21.7980   18.4630  101.6830 C   0  0  0  0  0  0  0  0  0  0  0  0
  -22.0820   17.1740  100.9730 C   0  0  0  0  0  0  0  0  0  0  0  0
  -21.6220   19.5400  100.9200 N   0  0  0  0  0  0  0  0  0  0  0  0
  -19.5730   19.6570  102.7300 O   0  0  0  0  0  0  0  0  0  0  0  0
  -23.0230   22.0840  100.3660 O   0  0  0  0  0  0  0  0  0  0  0  0
  -21.0310   24.1600   99.9790 O   0  0  0  0  0  0  0  0  0  0  0  0
  -19.4770   21.9960  102.4690 O   0  0  0  0  0  0  0  0  0  0  0  0
  -20.1440   24.9550  102.9770 O   0  0  0  0  0  0  0  0  0  0  0  0
  -21.7300   18.5220  102.9000 O   0  0  0  0  0  0  0  0  0  0  0  0
  -21.2640   29.9459   98.1858 H   0  0  0  0  0  0  0  0  0  0  0  0
  -22.3399   29.6026   99.5827 H   0  0  0  0  0  0  0  0  0  0  0  0
  -22.7746   31.7771   97.4678 H   0  0  0  0  0  0  0  0  0  0  0  0
  -24.3412   31.1317  100.0329 H   0  0  0  0  0  0  0  0  0  0  0  0
  -25.0249   30.9038   97.0580 H   0  0  0  0  0  0  0  0  0  0  0  0
  -27.0410   31.3898   98.0770 H   0  0  0  0  0  0  0  0  0  0  0  0
  -27.0075   28.3870   98.5003 H   0  0  0  0  0  0  0  0  0  0  0  0
  -29.0228   30.3932   97.3700 H   0  0  0  0  0  0  0  0  0  0  0  0
  -29.1172   29.5490   98.9528 H   0  0  0  0  0  0  0  0  0  0  0  0
  -26.9943   35.0148   99.5956 H   0  0  0  0  0  0  0  0  0  0  0  0
  -26.3028   34.8025   97.9514 H   0  0  0  0  0  0  0  0  0  0  0  0
  -25.2576   35.3652   99.2996 H   0  0  0  0  0  0  0  0  0  0  0  0
  -24.1852   33.3605   98.1044 H   0  0  0  0  0  0  0  0  0  0  0  0
  -21.1291   32.2688   99.0157 H   0  0  0  0  0  0  0  0  0  0  0  0
  -26.2169   31.2507  100.2365 H   0  0  0  0  0  0  0  0  0  0  0  0
  -27.2351   28.2988   96.1902 H   0  0  0  0  0  0  0  0  0  0  0  0
  -29.1086   28.2941   96.3839 H   0  0  0  0  0  0  0  0  0  0  0  0
  -22.0026   25.6367  101.0717 H   0  0  0  0  0  0  0  0  0  0  0  0
  -21.7012   25.5889   98.0278 H   0  0  0  0  0  0  0  0  0  0  0  0
  -22.9521   27.8232   99.6840 H   0  0  0  0  0  0  0  0  0  0  0  0
  -25.1106   27.1113   98.8199 H   0  0  0  0  0  0  0  0  0  0  0  0
  -24.3285   26.0333  100.9145 H   0  0  0  0  0  0  0  0  0  0  0  0
  -26.1689   24.7120   98.9876 H   0  0  0  0  0  0  0  0  0  0  0  0
  -26.4190   25.1702  100.7064 H   0  0  0  0  0  0  0  0  0  0  0  0
  -19.8781   26.1975   99.3316 H   0  0  0  0  0  0  0  0  0  0  0  0
  -24.2404   26.2329   96.8504 H   0  0  0  0  0  0  0  0  0  0  0  0
  -24.9175   22.9160   99.7761 H   0  0  0  0  0  0  0  0  0  0  0  0
  -19.2753   20.6291  100.9286 H   0  0  0  0  0  0  0  0  0  0  0  0
  -21.9254   20.9626  102.4631 H   0  0  0  0  0  0  0  0  0  0  0  0
  -21.1496   21.6665   99.5865 H   0  0  0  0  0  0  0  0  0  0  0  0
  -21.6506   23.6110  101.8785 H   0  0  0  0  0  0  0  0  0  0  0  0
  -18.9459   22.8726  100.6798 H   0  0  0  0  0  0  0  0  0  0  0  0
  -18.7563   25.0732  101.4405 H   0  0  0  0  0  0  0  0  0  0  0  0
  -18.2450   24.1274  102.8795 H   0  0  0  0  0  0  0  0  0  0  0  0
  -22.2061   16.3683  101.7115 H   0  0  0  0  0  0  0  0  0  0  0  0
  -21.2436   16.9317  100.3034 H   0  0  0  0  0  0  0  0  0  0  0  0
  -23.0048   17.2759  100.3830 H   0  0  0  0  0  0  0  0  0  0  0  0
  -21.6894   19.4707   99.9247 H   0  0  0  0  0  0  0  0  0  0  0  0
  -19.8262   18.8480  102.3014 H   0  0  0  0  0  0  0  0  0  0  0  0
  -23.1827   22.7726   99.7313 H   0  0  0  0  0  0  0  0  0  0  0  0
  -19.8292   25.7513  103.3885 H   0  0  0  0  0  0  0  0  0  0  0  0
  1 13  1  0  0  0  0
  1 14  2  0  0  0  0
  2  1  1  6  0  0  0
  2  3  1  0  0  0  0
  2 16  1  0  0  0  0
  3  4  1  0  0  0  0
  3 47  1  0  0  0  0
  3 48  1  0  0  0  0
  4  5  1  0  0  0  0
  4 15  1  0  0  0  0
  4 49  1  6  0  0  0
  5 12  1  0  0  0  0
  5 50  1  1  0  0  0
  6  5  1  0  0  0  0
  6  7  1  0  0  0  0
  6 51  1  6  0  0  0
  7  8  1  0  0  0  0
  7 17  1  0  0  0  0
  7 52  1  6  0  0  0
  8  9  1  0  0  0  0
  8 18  1  0  0  0  0
  8 53  1  1  0  0  0
  9 19  1  0  0  0  0
  9 54  1  0  0  0  0
  9 55  1  0  0  0  0
 10 11  1  0  0  0  0
 10 20  2  0  0  0  0
 11 56  1  0  0  0  0
 11 57  1  0  0  0  0
 11 58  1  0  0  0  0
 12 10  1  0  0  0  0
 12 59  1  0  0  0  0
 15 60  1  0  0  0  0
 16  6  1  0  0  0  0
 17 61  1  0  0  0  0
 18 62  1  0  0  0  0
 19 63  1  0  0  0  0
 21 22  1  0  0  0  0
 21 30  1  0  0  0  0
 21 64  1  1  0  0  0
 22 23  1  0  0  0  0
 22 27  1  0  0  0  0
 22 65  1  6  0  0  0
 23 24  1  0  0  0  0
 23 28  1  0  0  0  0
 23 66  1  1  0  0  0
 24 29  1  0  0  0  0
 24 67  1  1  0  0  0
 25 24  1  0  0  0  0
 25 26  1  0  0  0  0
 25 68  1  1  0  0  0
 26 31  1  0  0  0  0
 26 69  1  0  0  0  0
 26 70  1  0  0  0  0
 27 71  1  0  0  0  0
 28  2  1  0  0  0  0
 29 72  1  0  0  0  0
 30 25  1  0  0  0  0
 31 73  1  0  0  0  0
 32 41  1  0  0  0  0
 32 44  1  0  0  0  0
 32 74  1  6  0  0  0
 33 32  1  0  0  0  0
 33 34  1  0  0  0  0
 33 75  1  1  0  0  0
 34 35  1  0  0  0  0
 34 42  1  0  0  0  0
 34 76  1  6  0  0  0
 35 36  1  0  0  0  0
 35 43  1  0  0  0  0
 35 77  1  1  0  0  0
 36 37  1  0  0  0  0
 36 78  1  6  0  0  0
 37 45  1  0  0  0  0
 37 79  1  0  0  0  0
 37 80  1  0  0  0  0
 38 39  1  0  0  0  0
 38 40  1  0  0  0  0
 38 46  2  0  0  0  0
 39 81  1  0  0  0  0
 39 82  1  0  0  0  0
 39 83  1  0  0  0  0
 40 33  1  0  0  0  0
 40 84  1  0  0  0  0
 41 85  1  0  0  0  0
 42 86  1  0  0  0  0
 43 21  1  0  0  0  0
 44 36  1  0  0  0  0
 45 87  1  0  0  0  0
M  CHG  1  13  -1
M  END
