4bh4_ligand
 OpenBabel08222323353D

 87 89  0  0  1  0  0  0  0  0999 V2000
   28.3080    2.4600  -13.1450 C   0  0  0  0  0  0  0  0  0  0  0  0
   28.2450    2.2250  -11.6420 C   0  0  1  0  0  0  0  0  0  0  0  0
   28.9550    3.3400  -10.8720 C   0  0  0  0  0  0  0  0  0  0  0  0
   28.1780    4.6430  -10.8990 C   0  0  1  0  0  0  0  0  0  0  0  0
   26.7530    4.4100  -10.4160 C   0  0  2  0  0  0  0  0  0  0  0  0
   26.0920    3.3110  -11.2550 C   0  0  2  0  0  0  0  0  0  0  0  0
   24.6430    3.0170  -10.8450 C   0  0  1  0  0  0  0  0  0  0  0  0
   24.0100    1.8160  -11.5690 C   0  0  1  0  0  0  0  0  0  0  0  0
   22.4880    1.8700  -11.4540 C   0  0  0  0  0  0  0  0  0  0  0  0
   25.1040    6.1460   -9.8520 C   0  0  0  0  0  0  0  0  0  0  0  0
   24.4600    7.4210  -10.3020 C   0  0  0  0  0  0  0  0  0  0  0  0
   26.0300    5.6500  -10.6730 N   0  0  0  0  0  0  0  0  0  0  0  0
   29.4130    2.7470  -13.6480 O   0  5  0  0  0  0  0  0  0  0  0  0
   27.2680    2.3530  -13.8420 O   0  0  0  0  0  0  0  0  0  0  0  0
   28.8490    5.6070  -10.0840 O   0  0  0  0  0  0  0  0  0  0  0  0
   26.8860    2.1120  -11.1830 O   0  0  0  0  0  0  0  0  0  0  0  0
   24.6000    2.7860   -9.4340 O   0  0  0  0  0  0  0  0  0  0  0  0
   24.3510    1.7810  -12.9640 O   0  0  0  0  0  0  0  0  0  0  0  0
   21.8800    0.7140  -12.0480 O   0  0  0  0  0  0  0  0  0  0  0  0
   24.7690    5.6060   -8.8120 O   0  0  0  0  0  0  0  0  0  0  0  0
   27.9950   -2.5350  -11.3000 C   0  0  1  0  0  0  0  0  0  0  0  0
   28.2660   -1.1450  -10.7420 C   0  0  1  0  0  0  0  0  0  0  0  0
   28.5590   -0.1800  -11.8800 C   0  0  2  0  0  0  0  0  0  0  0  0
   29.6540   -0.7160  -12.7980 C   0  0  2  0  0  0  0  0  0  0  0  0
   29.3550   -2.1490  -13.2200 C   0  0  1  0  0  0  0  0  0  0  0  0
   30.4970   -2.7460  -14.0310 C   0  0  0  0  0  0  0  0  0  0  0  0
   27.1390   -0.6710  -10.0000 O   0  0  0  0  0  0  0  0  0  0  0  0
   28.9890    1.0530  -11.3130 O   0  0  0  0  0  0  0  0  0  0  0  0
   30.9160   -0.6790  -12.1220 O   0  0  0  0  0  0  0  0  0  0  0  0
   29.1260   -2.9560  -12.0650 O   0  0  0  0  0  0  0  0  0  0  0  0
   30.0220   -3.9190  -14.7000 O   0  0  0  0  0  0  0  0  0  0  0  0
   27.2870   -7.4560   -9.5720 C   0  0  2  0  0  0  0  0  0  0  0  0
   28.2930   -7.1450  -10.6720 C   0  0  1  0  0  0  0  0  0  0  0  0
   28.5960   -5.6530  -10.7820 C   0  0  2  0  0  0  0  0  0  0  0  0
   27.3620   -4.7540  -10.6310 C   0  0  1  0  0  0  0  0  0  0  0  0
   26.3580   -5.2670   -9.5980 C   0  0  1  0  0  0  0  0  0  0  0  0
   25.0320   -4.5170   -9.7090 C   0  0  0  0  0  0  0  0  0  0  0  0
   30.0550   -8.9260  -10.7250 C   0  0  0  0  0  0  0  0  0  0  0  0
   29.2940   -9.6990  -11.7690 C   0  0  0  0  0  0  0  0  0  0  0  0
   29.5490   -7.7740  -10.2660 N   0  0  0  0  0  0  0  0  0  0  0  0
   26.9350   -8.8410   -9.6220 O   0  0  0  0  0  0  0  0  0  0  0  0
   29.1940   -5.4270  -12.0660 O   0  0  0  0  0  0  0  0  0  0  0  0
   27.7720   -3.4430  -10.2230 O   0  0  0  0  0  0  0  0  0  0  0  0
   26.1180   -6.6640   -9.7730 O   0  0  0  0  0  0  0  0  0  0  0  0
   24.2110   -4.8120   -8.5730 O   0  0  0  0  0  0  0  0  0  0  0  0
   31.1240   -9.3380  -10.3000 O   0  0  0  0  0  0  0  0  0  0  0  0
   29.9436    3.5082  -11.3241 H   0  0  0  0  0  0  0  0  0  0  0  0
   29.0792    3.0238   -9.8258 H   0  0  0  0  0  0  0  0  0  0  0  0
   28.1416    5.0173  -11.9327 H   0  0  0  0  0  0  0  0  0  0  0  0
   26.7367    4.1478   -9.3479 H   0  0  0  0  0  0  0  0  0  0  0  0
   26.0767    3.6527  -12.3005 H   0  0  0  0  0  0  0  0  0  0  0  0
   24.0397    3.9066  -11.0789 H   0  0  0  0  0  0  0  0  0  0  0  0
   24.3750    0.8940  -11.0929 H   0  0  0  0  0  0  0  0  0  0  0  0
   22.1214    2.7713  -11.9670 H   0  0  0  0  0  0  0  0  0  0  0  0
   22.2101    1.9147  -10.3906 H   0  0  0  0  0  0  0  0  0  0  0  0
   23.7170    7.7396   -9.5561 H   0  0  0  0  0  0  0  0  0  0  0  0
   23.9621    7.2588  -11.2694 H   0  0  0  0  0  0  0  0  0  0  0  0
   25.2278    8.2011  -10.4110 H   0  0  0  0  0  0  0  0  0  0  0  0
   26.2400    6.1554  -11.5099 H   0  0  0  0  0  0  0  0  0  0  0  0
   29.7335    5.7325  -10.4071 H   0  0  0  0  0  0  0  0  0  0  0  0
   24.9897    3.5247   -8.9813 H   0  0  0  0  0  0  0  0  0  0  0  0
   25.2958    1.7471  -13.0571 H   0  0  0  0  0  0  0  0  0  0  0  0
   22.1132    0.6724  -12.9680 H   0  0  0  0  0  0  0  0  0  0  0  0
   27.1045   -2.5070  -11.9452 H   0  0  0  0  0  0  0  0  0  0  0  0
   29.1395   -1.1929  -10.0751 H   0  0  0  0  0  0  0  0  0  0  0  0
   27.6426   -0.0206  -12.4672 H   0  0  0  0  0  0  0  0  0  0  0  0
   29.7064   -0.0825  -13.6957 H   0  0  0  0  0  0  0  0  0  0  0  0
   28.4470   -2.1476  -13.8409 H   0  0  0  0  0  0  0  0  0  0  0  0
   31.3269   -3.0132  -13.3603 H   0  0  0  0  0  0  0  0  0  0  0  0
   30.8466   -2.0130  -14.7729 H   0  0  0  0  0  0  0  0  0  0  0  0
   27.3330    0.1893   -9.6467 H   0  0  0  0  0  0  0  0  0  0  0  0
   31.1061    0.2134  -11.8571 H   0  0  0  0  0  0  0  0  0  0  0  0
   29.7195   -4.5487  -14.0563 H   0  0  0  0  0  0  0  0  0  0  0  0
   27.7279   -7.2232   -8.5915 H   0  0  0  0  0  0  0  0  0  0  0  0
   27.9362   -7.5356  -11.6364 H   0  0  0  0  0  0  0  0  0  0  0  0
   29.3134   -5.3842   -9.9927 H   0  0  0  0  0  0  0  0  0  0  0  0
   26.8598   -4.6922  -11.6077 H   0  0  0  0  0  0  0  0  0  0  0  0
   26.7761   -5.1018   -8.5941 H   0  0  0  0  0  0  0  0  0  0  0  0
   24.5116   -4.8291  -10.6265 H   0  0  0  0  0  0  0  0  0  0  0  0
   25.2266   -3.4350   -9.7478 H   0  0  0  0  0  0  0  0  0  0  0  0
   29.8510  -10.6115  -12.0281 H   0  0  0  0  0  0  0  0  0  0  0  0
   29.1703   -9.0773  -12.6680 H   0  0  0  0  0  0  0  0  0  0  0  0
   28.3048   -9.9731  -11.3737 H   0  0  0  0  0  0  0  0  0  0  0  0
   30.0866   -7.2937   -9.5729 H   0  0  0  0  0  0  0  0  0  0  0  0
   27.7131   -9.3694   -9.4882 H   0  0  0  0  0  0  0  0  0  0  0  0
   29.4534   -4.5158  -12.1374 H   0  0  0  0  0  0  0  0  0  0  0  0
   24.0422   -5.7463   -8.5398 H   0  0  0  0  0  0  0  0  0  0  0  0
  1 13  1  0  0  0  0
  1 14  2  0  0  0  0
  2  1  1  6  0  0  0
  2  3  1  0  0  0  0
  2 16  1  0  0  0  0
  3  4  1  0  0  0  0
  3 47  1  0  0  0  0
  3 48  1  0  0  0  0
  4  5  1  0  0  0  0
  4 15  1  0  0  0  0
  4 49  1  6  0  0  0
  5 12  1  0  0  0  0
  5 50  1  1  0  0  0
  6  5  1  0  0  0  0
  6  7  1  0  0  0  0
  6 51  1  6  0  0  0
  7  8  1  0  0  0  0
  7 17  1  0  0  0  0
  7 52  1  6  0  0  0
  8  9  1  0  0  0  0
  8 18  1  0  0  0  0
  8 53  1  1  0  0  0
  9 19  1  0  0  0  0
  9 54  1  0  0  0  0
  9 55  1  0  0  0  0
 10 11  1  0  0  0  0
 10 20  2  0  0  0  0
 11 56  1  0  0  0  0
 11 57  1  0  0  0  0
 11 58  1  0  0  0  0
 12 10  1  0  0  0  0
 12 59  1  0  0  0  0
 15 60  1  0  0  0  0
 16  6  1  0  0  0  0
 17 61  1  0  0  0  0
 18 62  1  0  0  0  0
 19 63  1  0  0  0  0
 21 22  1  0  0  0  0
 21 30  1  0  0  0  0
 21 64  1  6  0  0  0
 22 23  1  0  0  0  0
 22 27  1  0  0  0  0
 22 65  1  1  0  0  0
 23 24  1  0  0  0  0
 23 28  1  0  0  0  0
 23 66  1  6  0  0  0
 24 29  1  0  0  0  0
 24 67  1  6  0  0  0
 25 24  1  0  0  0  0
 25 26  1  0  0  0  0
 25 68  1  6  0  0  0
 26 31  1  0  0  0  0
 26 69  1  0  0  0  0
 26 70  1  0  0  0  0
 27 71  1  0  0  0  0
 28  2  1  0  0  0  0
 29 72  1  0  0  0  0
 30 25  1  0  0  0  0
 31 73  1  0  0  0  0
 32 41  1  0  0  0  0
 32 44  1  0  0  0  0
 32 74  1  1  0  0  0
 33 32  1  0  0  0  0
 33 34  1  0  0  0  0
 33 75  1  6  0  0  0
 34 35  1  0  0  0  0
 34 42  1  0  0  0  0
 34 76  1  1  0  0  0
 35 36  1  0  0  0  0
 35 43  1  0  0  0  0
 35 77  1  6  0  0  0
 36 37  1  0  0  0  0
 36 78  1  1  0  0  0
 37 45  1  0  0  0  0
 37 79  1  0  0  0  0
 37 80  1  0  0  0  0
 38 39  1  0  0  0  0
 38 40  1  0  0  0  0
 38 46  2  0  0  0  0
 39 81  1  0  0  0  0
 39 82  1  0  0  0  0
 39 83  1  0  0  0  0
 40 33  1  0  0  0  0
 40 84  1  0  0  0  0
 41 85  1  0  0  0  0
 42 86  1  0  0  0  0
 43 21  1  0  0  0  0
 44 36  1  0  0  0  0
 45 87  1  0  0  0  0
M  CHG  1  13  -1
M  END
