4bhf_ligand
 OpenBabel08222323353D

 28 27  0  0  1  0  0  0  0  0999 V2000
   22.5500   31.9450   87.7140 N   0  3  0  0  0  0  0  0  0  0  0  0
   22.5610   32.8600   88.8680 C   0  0  0  0  0  0  0  0  0  0  0  0
   22.7790   27.1630   87.8820 O   0  5  0  0  0  0  0  0  0  0  0  0
   21.5490   27.3470   87.9330 C   0  0  0  0  0  0  0  0  0  0  0  0
   20.8480   26.5400   88.5310 O   0  0  0  0  0  0  0  0  0  0  0  0
   20.8100   28.5060   87.2660 C   0  0  0  0  0  0  0  0  0  0  0  0
   21.7520   30.7110   88.0550 C   0  0  1  0  0  0  0  0  0  0  0  0
   21.9110   32.6670   86.6090 C   0  0  0  0  0  0  0  0  0  0  0  0
   23.9400   31.6640   87.3010 C   0  0  0  0  0  0  0  0  0  0  0  0
   21.6870   29.7040   86.9090 C   0  0  0  0  0  0  0  0  0  0  0  0
   22.2220   29.9820   89.3010 C   0  0  0  0  0  0  0  0  0  0  0  0
   23.1432   33.7590   88.6175 H   0  0  0  0  0  0  0  0  0  0  0  0
   23.0189   32.3555   89.7316 H   0  0  0  0  0  0  0  0  0  0  0  0
   21.5292   33.1489   89.1167 H   0  0  0  0  0  0  0  0  0  0  0  0
   20.0231   28.8507   87.9530 H   0  0  0  0  0  0  0  0  0  0  0  0
   20.3499   28.1308   86.3400 H   0  0  0  0  0  0  0  0  0  0  0  0
   20.7252   31.0545   88.2492 H   0  0  0  0  0  0  0  0  0  0  0  0
   22.4999   33.5643   86.3681 H   0  0  0  0  0  0  0  0  0  0  0  0
   20.8941   32.9644   86.9047 H   0  0  0  0  0  0  0  0  0  0  0  0
   21.8597   32.0140   85.7253 H   0  0  0  0  0  0  0  0  0  0  0  0
   24.4585   31.1207   88.1047 H   0  0  0  0  0  0  0  0  0  0  0  0
   24.4623   32.6116   87.1028 H   0  0  0  0  0  0  0  0  0  0  0  0
   23.9344   31.0504   86.3881 H   0  0  0  0  0  0  0  0  0  0  0  0
   21.2698   30.2003   86.0204 H   0  0  0  0  0  0  0  0  0  0  0  0
   22.7042   29.3489   86.6871 H   0  0  0  0  0  0  0  0  0  0  0  0
   21.5864   29.1006   89.4718 H   0  0  0  0  0  0  0  0  0  0  0  0
   22.1546   30.6561   90.1676 H   0  0  0  0  0  0  0  0  0  0  0  0
   23.2655   29.6610   89.1664 H   0  0  0  0  0  0  0  0  0  0  0  0
  1  2  1  0  0  0  0
  1  8  1  0  0  0  0
  1  9  1  0  0  0  0
  2 12  1  0  0  0  0
  2 13  1  0  0  0  0
  2 14  1  0  0  0  0
  4  3  1  0  0  0  0
  4  5  2  0  0  0  0
  6  4  1  0  0  0  0
  6 15  1  0  0  0  0
  6 16  1  0  0  0  0
  7  1  1  0  0  0  0
  7 10  1  0  0  0  0
  7 11  1  0  0  0  0
  7 17  1  1  0  0  0
  8 18  1  0  0  0  0
  8 19  1  0  0  0  0
  8 20  1  0  0  0  0
  9 21  1  0  0  0  0
  9 22  1  0  0  0  0
  9 23  1  0  0  0  0
 10  6  1  0  0  0  0
 10 24  1  0  0  0  0
 10 25  1  0  0  0  0
 11 26  1  0  0  0  0
 11 27  1  0  0  0  0
 11 28  1  0  0  0  0
M  CHG  2   1   1   3  -1
M  END
