4bhi_ligand
 OpenBabel08222323353D

 28 27  0  0  1  0  0  0  0  0999 V2000
   20.8580   26.8470   88.3870 O   0  5  0  0  0  0  0  0  0  0  0  0
   21.7620   27.4390   87.7690 C   0  0  0  0  0  0  0  0  0  0  0  0
   22.9620   27.0540   87.8180 O   0  0  0  0  0  0  0  0  0  0  0  0
   21.4390   28.6160   86.8530 C   0  0  0  0  0  0  0  0  0  0  0  0
   20.9320   29.8880   87.4820 C   0  0  0  0  0  0  0  0  0  0  0  0
   21.9950   30.6770   88.1100 N   0  3  2  0  0  0  0  0  0  0  0  0
   22.4810   30.0590   89.3340 C   0  0  0  0  0  0  0  0  0  0  0  0
   22.4760   31.8990   87.6630 N   0  3  0  0  0  0  0  0  0  0  0  0
   23.8620   31.7800   87.1510 C   0  0  0  0  0  0  0  0  0  0  0  0
   21.6430   32.5010   86.5980 C   0  0  0  0  0  0  0  0  0  0  0  0
   22.5010   32.8770   88.7590 C   0  0  0  0  0  0  0  0  0  0  0  0
   20.6720   28.2753   86.1419 H   0  0  0  0  0  0  0  0  0  0  0  0
   22.3602   28.8668   86.3066 H   0  0  0  0  0  0  0  0  0  0  0  0
   20.1881   29.6278   88.2494 H   0  0  0  0  0  0  0  0  0  0  0  0
   20.4554   30.4996   86.7018 H   0  0  0  0  0  0  0  0  0  0  0  0
   22.6966   30.2130   87.5545 H   0  0  0  0  0  0  0  0  0  0  0  0
   21.9633   29.1013   89.4918 H   0  0  0  0  0  0  0  0  0  0  0  0
   22.2838   30.7270   90.1854 H   0  0  0  0  0  0  0  0  0  0  0  0
   23.5633   29.8813   89.2504 H   0  0  0  0  0  0  0  0  0  0  0  0
   24.2111   32.7644   86.8058 H   0  0  0  0  0  0  0  0  0  0  0  0
   23.8833   31.0686   86.3123 H   0  0  0  0  0  0  0  0  0  0  0  0
   24.5202   31.4188   87.9550 H   0  0  0  0  0  0  0  0  0  0  0  0
   22.0791   33.4632   86.2913 H   0  0  0  0  0  0  0  0  0  0  0  0
   20.6239   32.6649   86.9782 H   0  0  0  0  0  0  0  0  0  0  0  0
   21.6070   31.8224   85.7330 H   0  0  0  0  0  0  0  0  0  0  0  0
   22.8848   33.8375   88.3846 H   0  0  0  0  0  0  0  0  0  0  0  0
   23.1549   32.5095   89.5636 H   0  0  0  0  0  0  0  0  0  0  0  0
   21.4821   33.0164   89.1494 H   0  0  0  0  0  0  0  0  0  0  0  0
  1  2  1  0  0  0  0
  2  3  2  0  0  0  0
  2  4  1  0  0  0  0
  4  5  1  0  0  0  0
  4 12  1  0  0  0  0
  4 13  1  0  0  0  0
  5  6  1  0  0  0  0
  5 14  1  0  0  0  0
  5 15  1  0  0  0  0
  6  7  1  0  0  0  0
  6  8  1  0  0  0  0
  6 16  1  6  0  0  0
  7 17  1  0  0  0  0
  7 18  1  0  0  0  0
  7 19  1  0  0  0  0
  8  9  1  0  0  0  0
  8 10  1  0  0  0  0
  8 11  1  0  0  0  0
  9 20  1  0  0  0  0
  9 21  1  0  0  0  0
  9 22  1  0  0  0  0
 10 23  1  0  0  0  0
 10 24  1  0  0  0  0
 10 25  1  0  0  0  0
 11 26  1  0  0  0  0
 11 27  1  0  0  0  0
 11 28  1  0  0  0  0
M  CHG  3   1  -1   6   1   8   1
M  END
