4bi2_ligand
 OpenBabel08222323353D

 19 21  0  0  0  0  0  0  0  0999 V2000
   -0.7210   42.1430   17.0310 C   0  0  0  0  0  0  0  0  0  0  0  0
   -0.8360   42.5490   18.3940 C   0  0  0  0  0  0  0  0  0  0  0  0
   -1.7300   41.8230   19.2070 C   0  0  0  0  0  0  0  0  0  0  0  0
   -2.3460   40.4460   17.4970 C   0  0  0  0  0  0  0  0  0  0  0  0
   -1.5190   41.0510   16.6040 C   0  0  0  0  0  0  0  0  0  0  0  0
    1.3610   43.7010   14.3320 C   0  0  0  0  0  0  0  0  0  0  0  0
    0.5160   42.7290   14.7320 C   0  0  0  0  0  0  0  0  0  0  0  0
    0.1470   42.8850   16.1480 C   0  0  0  0  0  0  0  0  0  0  0  0
    0.7870   44.0140   16.7640 C   0  0  0  0  0  0  0  0  0  0  0  0
    0.6940   44.3970   18.0430 N   0  0  0  0  0  0  0  0  0  0  0  0
    1.7580   44.8220   15.5790 S   0  0  0  0  0  0  0  0  0  0  0  0
   -0.0870   43.6730   18.8210 C   0  0  0  0  0  0  0  0  0  0  0  0
   -2.4680   40.8000   18.7840 N   0  0  0  0  0  0  0  0  0  0  0  0
   -1.8223   42.1179   20.2460 H   0  0  0  0  0  0  0  0  0  0  0  0
   -2.9499   39.6183   17.1432 H   0  0  0  0  0  0  0  0  0  0  0  0
   -1.4700   40.7033   15.5784 H   0  0  0  0  0  0  0  0  0  0  0  0
    1.7544   43.7707   13.3189 H   0  0  0  0  0  0  0  0  0  0  0  0
    0.1525   41.9294   14.0882 H   0  0  0  0  0  0  0  0  0  0  0  0
   -0.1612   43.9591   19.8639 H   0  0  0  0  0  0  0  0  0  0  0  0
  1  2  1  0  0  0  0
  1  5  2  0  0  0  0
  2  3  2  0  0  0  0
  2 12  1  0  0  0  0
  3 13  1  0  0  0  0
  3 14  1  0  0  0  0
  4 13  2  0  0  0  0
  4 15  1  0  0  0  0
  5  4  1  0  0  0  0
  5 16  1  0  0  0  0
  6 11  1  0  0  0  0
  6 17  1  0  0  0  0
  7  6  2  0  0  0  0
  7  8  1  0  0  0  0
  7 18  1  0  0  0  0
  8  1  1  0  0  0  0
  8  9  2  0  0  0  0
  9 10  1  0  0  0  0
  9 11  1  0  0  0  0
 10 12  2  0  0  0  0
 12 19  1  0  0  0  0
M  END
