4bis_ligand
 OpenBabel08222323353D

 20 21  0  0  0  0  0  0  0  0999 V2000
   24.3040  -22.8030   -3.0310 O   0  5  0  0  0  0  0  0  0  0  0  0
   23.3010  -22.0400   -4.7910 O   0  0  0  0  0  0  0  0  0  0  0  0
   28.4320  -19.9740   -7.8870 O   0  0  0  0  0  0  0  0  0  0  0  0
   26.5980  -23.1480   -4.5890 C   0  0  0  0  0  0  0  0  0  0  0  0
   27.8160  -23.0070   -5.2420 C   0  0  0  0  0  0  0  0  0  0  0  0
   26.2040  -19.1240   -7.5580 C   0  0  0  0  0  0  0  0  0  0  0  0
   24.9800  -19.2520   -6.9120 C   0  0  0  0  0  0  0  0  0  0  0  0
   25.5790  -22.2400   -4.8450 C   0  0  0  0  0  0  0  0  0  0  0  0
   28.0050  -21.9560   -6.1480 N   0  0  0  0  0  0  0  0  0  0  0  0
   27.2120  -20.0420   -7.2900 C   0  0  0  0  0  0  0  0  0  0  0  0
   24.7750  -20.2910   -6.0090 C   0  0  0  0  0  0  0  0  0  0  0  0
   24.3530  -22.3650   -4.2000 C   0  0  0  0  0  0  0  0  0  0  0  0
   25.7900  -21.2050   -5.7480 C   0  0  0  0  0  0  0  0  0  0  0  0
   27.0170  -21.0820   -6.3910 C   0  0  0  0  0  0  0  0  0  0  0  0
   28.9769  -20.6862   -7.5734 H   0  0  0  0  0  0  0  0  0  0  0  0
   26.4445  -23.9590   -3.8864 H   0  0  0  0  0  0  0  0  0  0  0  0
   28.6190  -23.7095   -5.0505 H   0  0  0  0  0  0  0  0  0  0  0  0
   26.3703  -18.3173   -8.2628 H   0  0  0  0  0  0  0  0  0  0  0  0
   24.1850  -18.5426   -7.1115 H   0  0  0  0  0  0  0  0  0  0  0  0
   23.8194  -20.3883   -5.5066 H   0  0  0  0  0  0  0  0  0  0  0  0
  3 15  1  0  0  0  0
  4  8  1  0  0  0  0
  4 16  1  0  0  0  0
  5  4  2  0  0  0  0
  5 17  1  0  0  0  0
  6  7  1  0  0  0  0
  6 18  1  0  0  0  0
  7 11  2  0  0  0  0
  7 19  1  0  0  0  0
  8 12  1  0  0  0  0
  8 13  2  0  0  0  0
  9  5  1  0  0  0  0
 10  3  1  0  0  0  0
 10  6  2  0  0  0  0
 10 14  1  0  0  0  0
 11 13  1  0  0  0  0
 11 20  1  0  0  0  0
 12  1  1  0  0  0  0
 12  2  2  0  0  0  0
 13 14  1  0  0  0  0
 14  9  2  0  0  0  0
M  CHG  1   1  -1
M  END
