4bj9_ligand
 OpenBabel08222323353D

 67 72  0  0  1  0  0  0  0  0999 V2000
  -39.1070  -13.1260   16.1370 C   0  0  0  0  0  0  0  0  0  0  0  0
  -40.1500  -14.1740   16.0990 C   0  0  0  0  0  0  0  0  0  0  0  0
  -40.7960  -14.5070   14.8250 C   0  0  0  0  0  0  0  0  0  0  0  0
  -40.4200  -13.7560   13.5770 C   0  0  0  0  0  0  0  0  0  0  0  0
  -39.3270  -12.7120   13.6230 C   0  0  0  0  0  0  0  0  0  0  0  0
  -38.6970  -12.4090   14.8780 C   0  0  0  0  0  0  0  0  0  0  0  0
  -37.6910  -11.3820   14.6420 C   0  0  0  0  0  0  0  0  0  0  0  0
  -38.7230  -11.8430   12.5980 C   0  0  0  0  0  0  0  0  0  0  0  0
  -37.7190  -11.0440   13.2430 N   0  0  0  0  0  0  0  0  0  0  0  0
  -36.9660  -10.8970   15.4660 O   0  0  0  0  0  0  0  0  0  0  0  0
  -41.0940  -14.1200   12.3630 N   0  0  0  0  0  0  0  0  0  0  0  0
  -41.5470  -13.2230   11.3090 C   0  0  0  0  0  0  0  0  0  0  0  0
  -41.3890  -12.0050   11.3760 O   0  0  0  0  0  0  0  0  0  0  0  0
  -42.2400  -13.9360   10.0940 C   0  0  0  0  0  0  0  0  0  0  0  0
  -42.7430  -12.9510    9.1320 N   0  3  2  0  0  0  0  0  0  0  0  0
  -41.6030  -12.5690    8.2900 C   0  0  0  0  0  0  0  0  0  0  0  0
  -41.8420  -11.4470    7.2860 C   0  0  0  0  0  0  0  0  0  0  0  0
  -42.7310  -10.4050    7.7660 N   0  0  0  0  0  0  0  0  0  0  0  0
  -43.9600  -10.9700    8.1920 C   0  0  0  0  0  0  0  0  0  0  0  0
  -43.7530  -11.9460    9.3240 C   0  0  0  0  0  0  0  0  0  0  0  0
  -42.3960   -8.9750    7.8400 C   0  0  0  0  0  0  0  0  0  0  0  0
  -41.0700   -8.4540    7.3730 C   0  0  2  0  0  0  0  0  0  0  0  0
  -40.0110   -8.5320    8.4560 C   0  0  2  0  0  0  0  0  0  0  0  0
  -39.7140   -7.1500    8.7590 C   0  0  2  0  0  0  0  0  0  0  0  0
  -39.9860   -6.4940    7.4760 C   0  0  1  0  0  0  0  0  0  0  0  0
  -41.2100   -7.0780    6.9960 O   0  0  0  0  0  0  0  0  0  0  0  0
  -43.2050   -8.1570    8.2880 O   0  0  0  0  0  0  0  0  0  0  0  0
  -38.9140   -9.2450    8.0070 O   0  0  0  0  0  0  0  0  0  0  0  0
  -38.3640   -6.9700    9.2720 O   0  0  0  0  0  0  0  0  0  0  0  0
  -40.0950   -5.0860    7.5180 N   0  0  0  0  0  0  0  0  0  0  0  0
  -39.8220   -2.9680    6.8920 C   0  0  0  0  0  0  0  0  0  0  0  0
  -39.5590   -4.2500    6.5470 C   0  0  0  0  0  0  0  0  0  0  0  0
  -40.6990   -4.3120    8.4520 C   0  0  0  0  0  0  0  0  0  0  0  0
  -40.5310   -3.0010    8.0840 N   0  0  0  0  0  0  0  0  0  0  0  0
  -38.6220   -2.1140    4.7970 N   0  0  0  0  0  0  0  0  0  0  0  0
  -38.3470   -3.4590    4.4440 C   0  0  0  0  0  0  0  0  0  0  0  0
  -38.8190   -4.5400    5.3130 N   0  0  0  0  0  0  0  0  0  0  0  0
  -39.3280   -1.8290    5.9780 C   0  0  0  0  0  0  0  0  0  0  0  0
  -39.5760   -0.4930    6.3130 N   0  0  0  0  0  0  0  0  0  0  0  0
  -38.6340  -12.8721   17.0787 H   0  0  0  0  0  0  0  0  0  0  0  0
  -40.4352  -14.6928   17.0071 H   0  0  0  0  0  0  0  0  0  0  0  0
  -41.5423  -15.2921   14.7829 H   0  0  0  0  0  0  0  0  0  0  0  0
  -39.4927  -11.1932   12.1561 H   0  0  0  0  0  0  0  0  0  0  0  0
  -38.2641  -12.4567   11.8089 H   0  0  0  0  0  0  0  0  0  0  0  0
  -37.1364  -10.3659   12.7949 H   0  0  0  0  0  0  0  0  0  0  0  0
  -41.2716  -15.0946   12.2263 H   0  0  0  0  0  0  0  0  0  0  0  0
  -43.0806  -14.5421   10.4628 H   0  0  0  0  0  0  0  0  0  0  0  0
  -41.5092  -14.5884    9.5937 H   0  0  0  0  0  0  0  0  0  0  0  0
  -43.2652  -13.5600    8.5217 H   0  0  0  0  0  0  0  0  0  0  0  0
  -41.2909  -13.4605    7.7262 H   0  0  0  0  0  0  0  0  0  0  0  0
  -40.7871  -12.2523    8.9564 H   0  0  0  0  0  0  0  0  0  0  0  0
  -42.2805  -11.8840    6.3767 H   0  0  0  0  0  0  0  0  0  0  0  0
  -40.8722  -10.9889    7.0418 H   0  0  0  0  0  0  0  0  0  0  0  0
  -44.4245  -11.4969    7.3454 H   0  0  0  0  0  0  0  0  0  0  0  0
  -44.6262  -10.1634    8.5320 H   0  0  0  0  0  0  0  0  0  0  0  0
  -43.4811  -11.3664   10.2185 H   0  0  0  0  0  0  0  0  0  0  0  0
  -44.7085  -12.4624    9.4981 H   0  0  0  0  0  0  0  0  0  0  0  0
  -40.7419   -9.0449    6.5051 H   0  0  0  0  0  0  0  0  0  0  0  0
  -40.4119   -9.0318    9.3501 H   0  0  0  0  0  0  0  0  0  0  0  0
  -40.4110   -6.7715    9.5211 H   0  0  0  0  0  0  0  0  0  0  0  0
  -39.1680   -6.7392    6.7826 H   0  0  0  0  0  0  0  0  0  0  0  0
  -38.2382   -9.2380    8.6747 H   0  0  0  0  0  0  0  0  0  0  0  0
  -37.7400   -7.3232    8.6489 H   0  0  0  0  0  0  0  0  0  0  0  0
  -41.2243   -4.6674    9.3373 H   0  0  0  0  0  0  0  0  0  0  0  0
  -37.7930   -3.6855    3.5402 H   0  0  0  0  0  0  0  0  0  0  0  0
  -39.2429    0.2627    5.6975 H   0  0  0  0  0  0  0  0  0  0  0  0
  -40.0916   -0.2654    7.1751 H   0  0  0  0  0  0  0  0  0  0  0  0
  1 40  1  0  0  0  0
  2  1  2  0  0  0  0
  2 41  1  0  0  0  0
  3  2  1  0  0  0  0
  3 42  1  0  0  0  0
  4  3  2  0  0  0  0
  4  5  1  0  0  0  0
  5  6  2  0  0  0  0
  5  8  1  0  0  0  0
  6  1  1  0  0  0  0
  6  7  1  0  0  0  0
  7 10  2  0  0  0  0
  8  9  1  0  0  0  0
  8 43  1  0  0  0  0
  8 44  1  0  0  0  0
  9  7  1  0  0  0  0
  9 45  1  0  0  0  0
 11  4  1  0  0  0  0
 11 46  1  0  0  0  0
 12 11  1  0  0  0  0
 12 13  2  0  0  0  0
 14 12  1  0  0  0  0
 14 47  1  0  0  0  0
 14 48  1  0  0  0  0
 15 14  1  0  0  0  0
 15 49  1  6  0  0  0
 16 15  1  0  0  0  0
 16 50  1  0  0  0  0
 16 51  1  0  0  0  0
 17 16  1  0  0  0  0
 17 52  1  0  0  0  0
 17 53  1  0  0  0  0
 18 17  1  0  0  0  0
 18 19  1  0  0  0  0
 19 20  1  0  0  0  0
 19 54  1  0  0  0  0
 19 55  1  0  0  0  0
 20 15  1  0  0  0  0
 20 56  1  0  0  0  0
 20 57  1  0  0  0  0
 21 18  1  0  0  0  0
 21 27  2  0  0  0  0
 22 21  1  0  0  0  0
 22 23  1  0  0  0  0
 22 58  1  6  0  0  0
 23 28  1  0  0  0  0
 23 59  1  1  0  0  0
 24 23  1  0  0  0  0
 24 29  1  0  0  0  0
 24 60  1  1  0  0  0
 25 24  1  0  0  0  0
 25 26  1  0  0  0  0
 25 61  1  6  0  0  0
 26 22  1  0  0  0  0
 28 62  1  0  0  0  0
 29 63  1  0  0  0  0
 30 25  1  0  0  0  0
 31 32  2  0  0  0  0
 31 34  1  0  0  0  0
 32 30  1  0  0  0  0
 32 37  1  0  0  0  0
 33 30  1  0  0  0  0
 33 64  1  0  0  0  0
 34 33  2  0  0  0  0
 35 36  1  0  0  0  0
 35 38  2  0  0  0  0
 36 37  2  0  0  0  0
 36 65  1  0  0  0  0
 38 31  1  0  0  0  0
 38 39  1  0  0  0  0
 39 66  1  0  0  0  0
 39 67  1  0  0  0  0
M  CHG  1  15   1
M  END
