4bjb_ligand
 OpenBabel08222323353D

 40 42  0  0  0  0  0  0  0  0999 V2000
   10.5980   10.5460   22.3960 C   0  0  0  0  0  0  0  0  0  0  0  0
   11.6630    9.9240   21.6110 N   0  3  0  0  0  0  0  0  0  0  0  0
   12.9940    9.8840   22.2250 C   0  0  0  0  0  0  0  0  0  0  0  0
   11.2170    8.5020   21.6640 C   0  0  0  0  0  0  0  0  0  0  0  0
   11.7380    7.6880   20.4560 C   0  0  0  0  0  0  0  0  0  0  0  0
   12.5470    8.1790   19.6690 O   0  0  0  0  0  0  0  0  0  0  0  0
   11.2160    6.4410   20.4010 N   0  0  0  0  0  0  0  0  0  0  0  0
   11.4850    5.5260   19.4410 C   0  0  0  0  0  0  0  0  0  0  0  0
   11.7160    5.8110   18.0830 C   0  0  0  0  0  0  0  0  0  0  0  0
   11.9550    4.7810   17.1460 C   0  0  0  0  0  0  0  0  0  0  0  0
   12.2030    5.0240   15.7750 C   0  0  0  0  0  0  0  0  0  0  0  0
   12.2310    6.3270   15.2540 C   0  0  0  0  0  0  0  0  0  0  0  0
   12.4730    6.5600   13.9060 C   0  0  0  0  0  0  0  0  0  0  0  0
   12.6860    5.4930   13.0460 C   0  0  0  0  0  0  0  0  0  0  0  0
   12.6610    4.1890   13.5360 C   0  0  0  0  0  0  0  0  0  0  0  0
   12.4220    3.9440   14.8910 C   0  0  0  0  0  0  0  0  0  0  0  0
   12.4000    2.6260   15.3630 C   0  0  0  0  0  0  0  0  0  0  0  0
   12.5850    1.6620   14.6260 O   0  0  0  0  0  0  0  0  0  0  0  0
   12.1560    2.3850   16.7130 N   0  0  0  0  0  0  0  0  0  0  0  0
   11.9320    3.4530   17.5970 C   0  0  0  0  0  0  0  0  0  0  0  0
   11.6900    3.1650   18.9390 C   0  0  0  0  0  0  0  0  0  0  0  0
   11.4630    4.1920   19.8490 C   0  0  0  0  0  0  0  0  0  0  0  0
   10.7749   11.6298   22.4601 H   0  0  0  0  0  0  0  0  0  0  0  0
   10.5892   10.1154   23.4082 H   0  0  0  0  0  0  0  0  0  0  0  0
    9.6285   10.3609   21.9103 H   0  0  0  0  0  0  0  0  0  0  0  0
   11.7095   10.3103   20.6811 H   0  0  0  0  0  0  0  0  0  0  0  0
   13.7001    9.3946   21.5380 H   0  0  0  0  0  0  0  0  0  0  0  0
   12.9465    9.3176   23.1667 H   0  0  0  0  0  0  0  0  0  0  0  0
   13.3339   10.9097   22.4307 H   0  0  0  0  0  0  0  0  0  0  0  0
   10.1174    8.4740   21.6638 H   0  0  0  0  0  0  0  0  0  0  0  0
   11.5953    8.0450   22.5903 H   0  0  0  0  0  0  0  0  0  0  0  0
   10.5816    6.1746   21.1267 H   0  0  0  0  0  0  0  0  0  0  0  0
   11.7105    6.8421   17.7486 H   0  0  0  0  0  0  0  0  0  0  0  0
   12.0605    7.1680   15.9164 H   0  0  0  0  0  0  0  0  0  0  0  0
   12.4953    7.5752   13.5266 H   0  0  0  0  0  0  0  0  0  0  0  0
   12.8718    5.6734   11.9934 H   0  0  0  0  0  0  0  0  0  0  0  0
   12.8283    3.3577   12.8607 H   0  0  0  0  0  0  0  0  0  0  0  0
   12.1402    1.4454   17.0550 H   0  0  0  0  0  0  0  0  0  0  0  0
   11.6786    2.1346   19.2755 H   0  0  0  0  0  0  0  0  0  0  0  0
   11.2666    3.9531   20.8879 H   0  0  0  0  0  0  0  0  0  0  0  0
  1  2  1  0  0  0  0
  1 23  1  0  0  0  0
  1 24  1  0  0  0  0
  1 25  1  0  0  0  0
  2  3  1  0  0  0  0
  2  4  1  0  0  0  0
  2 26  1  0  0  0  0
  3 27  1  0  0  0  0
  3 28  1  0  0  0  0
  3 29  1  0  0  0  0
  4  5  1  0  0  0  0
  4 30  1  0  0  0  0
  4 31  1  0  0  0  0
  5  6  2  0  0  0  0
  5  7  1  0  0  0  0
  7  8  1  0  0  0  0
  7 32  1  0  0  0  0
  8  9  2  0  0  0  0
  8 22  1  0  0  0  0
  9 10  1  0  0  0  0
  9 33  1  0  0  0  0
 10 11  1  0  0  0  0
 10 20  2  0  0  0  0
 11 12  2  0  0  0  0
 11 16  1  0  0  0  0
 12 13  1  0  0  0  0
 12 34  1  0  0  0  0
 13 14  2  0  0  0  0
 13 35  1  0  0  0  0
 14 15  1  0  0  0  0
 14 36  1  0  0  0  0
 15 16  2  0  0  0  0
 15 37  1  0  0  0  0
 16 17  1  0  0  0  0
 17 18  2  0  0  0  0
 17 19  1  0  0  0  0
 19 20  1  0  0  0  0
 19 38  1  0  0  0  0
 20 21  1  0  0  0  0
 21 22  2  0  0  0  0
 21 39  1  0  0  0  0
 22 40  1  0  0  0  0
M  CHG  1   2   1
M  END
