4bjx_ligand
 OpenBabel08222323353D

 53 56  0  0  1  0  0  0  0  0999 V2000
   15.0320    6.0240   10.0040 C   0  0  0  0  0  0  0  0  0  0  0  0
   14.0090    5.1520    9.2570 C   0  0  1  0  0  0  0  0  0  0  0  0
   14.6530    4.2700    8.1860 C   0  0  0  0  0  0  0  0  0  0  0  0
   14.0000    2.9070    8.1410 C   0  0  1  0  0  0  0  0  0  0  0  0
   14.5630    2.0190    7.1420 N   0  0  0  0  0  0  0  0  0  0  0  0
   13.8410    1.0320    6.4880 C   0  0  0  0  0  0  0  0  0  0  0  0
   14.2550    0.5760    5.2570 C   0  0  0  0  0  0  0  0  0  0  0  0
   13.5710   -0.4260    4.6150 C   0  0  0  0  0  0  0  0  0  0  0  0
   12.5050   -0.9940    5.2300 C   0  0  0  0  0  0  0  0  0  0  0  0
   11.6630   -2.3020    4.4280 Cl  0  0  0  0  0  0  0  0  0  0  0  0
   12.0910   -0.5760    6.4440 C   0  0  0  0  0  0  0  0  0  0  0  0
   12.7700    0.4320    7.0840 C   0  0  0  0  0  0  0  0  0  0  0  0
   13.9780    2.3010    9.5210 C   0  0  0  0  0  0  0  0  0  0  0  0
   14.5050    1.0590    9.8420 C   0  0  0  0  0  0  0  0  0  0  0  0
   14.4410    0.5820   11.1440 C   0  0  0  0  0  0  0  0  0  0  0  0
   13.9660    1.4250   12.1300 C   0  0  0  0  0  0  0  0  0  0  0  0
   13.5050    2.6820   11.8430 C   0  0  0  0  0  0  0  0  0  0  0  0
   13.5190    3.1270   10.5440 C   0  0  0  0  0  0  0  0  0  0  0  0
   13.1060    4.4410   10.1930 N   0  0  0  0  0  0  0  0  0  0  0  0
   11.9960    5.0490   10.6430 C   0  0  0  0  0  0  0  0  0  0  0  0
   11.1180    4.2820   11.5830 C   0  0  0  0  0  0  0  0  0  0  0  0
   11.7470    6.1620   10.3290 O   0  0  0  0  0  0  0  0  0  0  0  0
   14.9370   -0.7580   11.5120 C   0  0  0  0  0  0  0  0  0  0  0  0
   14.4280   -1.4020   12.6130 C   0  0  0  0  0  0  0  0  0  0  0  0
   14.8880   -2.6390   13.0010 C   0  0  0  0  0  0  0  0  0  0  0  0
   15.8780   -3.2790   12.2890 C   0  0  0  0  0  0  0  0  0  0  0  0
   16.4070   -2.6360   11.1850 C   0  0  0  0  0  0  0  0  0  0  0  0
   15.9430   -1.3870   10.8080 C   0  0  0  0  0  0  0  0  0  0  0  0
   16.3820   -4.6180   12.7120 C   0  0  0  0  0  0  0  0  0  0  0  0
   17.3860   -5.0350   12.2300 O   0  5  0  0  0  0  0  0  0  0  0  0
   15.7230   -5.2520   13.6010 O   0  0  0  0  0  0  0  0  0  0  0  0
   15.6809    6.5329    9.2760 H   0  0  0  0  0  0  0  0  0  0  0  0
   15.6450    5.3891   10.6606 H   0  0  0  0  0  0  0  0  0  0  0  0
   14.5019    6.7738   10.6096 H   0  0  0  0  0  0  0  0  0  0  0  0
   13.3646    5.8519    8.7049 H   0  0  0  0  0  0  0  0  0  0  0  0
   15.7221    4.1491    8.4148 H   0  0  0  0  0  0  0  0  0  0  0  0
   14.5405    4.7551    7.2052 H   0  0  0  0  0  0  0  0  0  0  0  0
   12.9523    3.0693    7.8480 H   0  0  0  0  0  0  0  0  0  0  0  0
   15.5592    2.1280    6.9039 H   0  0  0  0  0  0  0  0  0  0  0  0
   15.1302    1.0127    4.7898 H   0  0  0  0  0  0  0  0  0  0  0  0
   13.8789   -0.7583    3.6302 H   0  0  0  0  0  0  0  0  0  0  0  0
   11.2268   -1.0333    6.9121 H   0  0  0  0  0  0  0  0  0  0  0  0
   12.4528    0.7532    8.0696 H   0  0  0  0  0  0  0  0  0  0  0  0
   14.9703    0.4563    9.0705 H   0  0  0  0  0  0  0  0  0  0  0  0
   13.9580    1.0822   13.1583 H   0  0  0  0  0  0  0  0  0  0  0  0
   13.1318    3.3209   12.6352 H   0  0  0  0  0  0  0  0  0  0  0  0
   10.2537    4.9012   11.8651 H   0  0  0  0  0  0  0  0  0  0  0  0
   11.6894    4.0173   12.4849 H   0  0  0  0  0  0  0  0  0  0  0  0
   10.7659    3.3642   11.0894 H   0  0  0  0  0  0  0  0  0  0  0  0
   13.6448   -0.9240   13.1902 H   0  0  0  0  0  0  0  0  0  0  0  0
   14.4660   -3.1160   13.8782 H   0  0  0  0  0  0  0  0  0  0  0  0
   17.1917   -3.1138   10.6097 H   0  0  0  0  0  0  0  0  0  0  0  0
   16.3775   -0.8952    9.9452 H   0  0  0  0  0  0  0  0  0  0  0  0
  1  2  1  0  0  0  0
  1 32  1  0  0  0  0
  1 33  1  0  0  0  0
  1 34  1  0  0  0  0
  2  3  1  0  0  0  0
  2 19  1  0  0  0  0
  2 35  1  6  0  0  0
  3  4  1  0  0  0  0
  3 36  1  0  0  0  0
  3 37  1  0  0  0  0
  4  5  1  0  0  0  0
  4 13  1  0  0  0  0
  4 38  1  6  0  0  0
  5  6  1  0  0  0  0
  5 39  1  0  0  0  0
  6  7  2  0  0  0  0
  6 12  1  0  0  0  0
  7  8  1  0  0  0  0
  7 40  1  0  0  0  0
  8  9  2  0  0  0  0
  8 41  1  0  0  0  0
  9 10  1  0  0  0  0
  9 11  1  0  0  0  0
 11 12  2  0  0  0  0
 11 42  1  0  0  0  0
 12 43  1  0  0  0  0
 13 14  2  0  0  0  0
 13 18  1  0  0  0  0
 14 15  1  0  0  0  0
 14 44  1  0  0  0  0
 15 16  2  0  0  0  0
 15 23  1  0  0  0  0
 16 17  1  0  0  0  0
 16 45  1  0  0  0  0
 17 18  2  0  0  0  0
 17 46  1  0  0  0  0
 18 19  1  0  0  0  0
 19 20  1  0  0  0  0
 20 21  1  0  0  0  0
 20 22  2  0  0  0  0
 21 47  1  0  0  0  0
 21 48  1  0  0  0  0
 21 49  1  0  0  0  0
 23 24  2  0  0  0  0
 23 28  1  0  0  0  0
 24 25  1  0  0  0  0
 24 50  1  0  0  0  0
 25 26  2  0  0  0  0
 25 51  1  0  0  0  0
 26 27  1  0  0  0  0
 26 29  1  0  0  0  0
 27 28  2  0  0  0  0
 27 52  1  0  0  0  0
 28 53  1  0  0  0  0
 29 30  1  0  0  0  0
 29 31  2  0  0  0  0
M  CHG  1  30  -1
M  END
