4bky_ligand
 OpenBabel08222323353D

 67 72  0  0  1  0  0  0  0  0999 V2000
   15.5470    9.6500    8.8210 O   0  0  0  0  0  0  0  0  0  0  0  0
   15.0570    9.8760    7.7200 C   0  0  0  0  0  0  0  0  0  0  0  0
   14.1390   10.8320    7.5760 N   0  0  0  0  0  0  0  0  0  0  0  0
   13.5530   11.5350    8.7050 C   0  0  1  0  0  0  0  0  0  0  0  0
   14.4290   12.6650    9.1020 C   0  0  0  0  0  0  0  0  0  0  0  0
   14.7710   13.6590    8.1750 C   0  0  0  0  0  0  0  0  0  0  0  0
   15.5670   14.7270    8.5810 C   0  0  0  0  0  0  0  0  0  0  0  0
   16.0260   14.8110    9.8970 C   0  0  0  0  0  0  0  0  0  0  0  0
   15.6830   13.8200   10.8210 C   0  0  0  0  0  0  0  0  0  0  0  0
   14.8770   12.7540   10.4230 C   0  0  0  0  0  0  0  0  0  0  0  0
   12.1830   12.0280    8.2350 C   0  0  0  0  0  0  0  0  0  0  0  0
   11.3770   12.7450    9.2310 N   0  3  0  0  0  0  0  0  0  0  0  0
   10.0690   12.2200    9.5920 C   0  0  0  0  0  0  0  0  0  0  0  0
    9.4070   13.4090   10.2790 C   0  0  0  0  0  0  0  0  0  0  0  0
   10.3600   14.6020   10.1690 C   0  0  0  0  0  0  0  0  0  0  0  0
   11.7310   14.0520    9.7890 C   0  0  0  0  0  0  0  0  0  0  0  0
   15.3600    9.1870    6.6120 N   0  0  0  0  0  0  0  0  0  0  0  0
   16.0770    7.8930    6.6130 C   0  0  0  0  0  0  0  0  0  0  0  0
   17.5000    8.0580    7.1760 C   0  0  0  0  0  0  0  0  0  0  0  0
   16.6830    6.8600    7.6270 C   0  0  0  0  0  0  0  0  0  0  0  0
   14.8250    9.5310    5.2560 C   0  0  0  0  0  0  0  0  0  0  0  0
   15.2920    8.3720    4.4120 C   0  0  0  0  0  0  0  0  0  0  0  0
   16.1060    7.5240    5.1910 C   0  0  0  0  0  0  0  0  0  0  0  0
   16.5060    6.4270    4.5290 N   0  0  0  0  0  0  0  0  0  0  0  0
   15.3460    7.7730    3.1630 C   0  0  0  0  0  0  0  0  0  0  0  0
   16.0410    6.6030    3.2030 N   0  0  0  0  0  0  0  0  0  0  0  0
   14.7310    8.1660    1.9980 N   0  0  0  0  0  0  0  0  0  0  0  0
   13.9170    9.2160    1.9060 C   0  0  0  0  0  0  0  0  0  0  0  0
   13.6860    9.9570    2.8430 O   0  0  0  0  0  0  0  0  0  0  0  0
   13.3030    9.5270    0.5870 C   0  0  0  0  0  0  0  0  0  0  0  0
   12.3820   10.5000    0.3530 N   0  0  0  0  0  0  0  0  0  0  0  0
   11.8010   11.4420    1.3430 C   0  0  0  0  0  0  0  0  0  0  0  0
   12.0400   10.5150   -0.9410 C   0  0  0  0  0  0  0  0  0  0  0  0
   12.7900    9.5110   -1.4730 C   0  0  0  0  0  0  0  0  0  0  0  0
   12.7110    9.0620   -3.3960 Br  0  0  0  0  0  0  0  0  0  0  0  0
   13.5970    8.8480   -0.5900 C   0  0  0  0  0  0  0  0  0  0  0  0
   13.8413   11.0755    6.6529 H   0  0  0  0  0  0  0  0  0  0  0  0
   13.4332   10.8521    9.5590 H   0  0  0  0  0  0  0  0  0  0  0  0
   14.4192   13.5970    7.1516 H   0  0  0  0  0  0  0  0  0  0  0  0
   15.8327   15.5000    7.8690 H   0  0  0  0  0  0  0  0  0  0  0  0
   16.6482   15.6446   10.2020 H   0  0  0  0  0  0  0  0  0  0  0  0
   16.0418   13.8798   11.8421 H   0  0  0  0  0  0  0  0  0  0  0  0
   14.5968   11.9915   11.1408 H   0  0  0  0  0  0  0  0  0  0  0  0
   11.6062   11.1519    7.9038 H   0  0  0  0  0  0  0  0  0  0  0  0
   12.3437   12.7047    7.3828 H   0  0  0  0  0  0  0  0  0  0  0  0
   11.8366   12.2612    9.9864 H   0  0  0  0  0  0  0  0  0  0  0  0
   10.1605   11.3658   10.2790 H   0  0  0  0  0  0  0  0  0  0  0  0
    9.5046   11.9135    8.6990 H   0  0  0  0  0  0  0  0  0  0  0  0
    9.2218   13.1742   11.3376 H   0  0  0  0  0  0  0  0  0  0  0  0
    8.4537   13.6446    9.7834 H   0  0  0  0  0  0  0  0  0  0  0  0
   10.4191   15.1272   11.1337 H   0  0  0  0  0  0  0  0  0  0  0  0
   10.0052   15.2974    9.3941 H   0  0  0  0  0  0  0  0  0  0  0  0
   12.2256   14.6880    9.0401 H   0  0  0  0  0  0  0  0  0  0  0  0
   12.3813   13.9499   10.6703 H   0  0  0  0  0  0  0  0  0  0  0  0
   17.7144    8.8701    7.8863 H   0  0  0  0  0  0  0  0  0  0  0  0
   18.3678    7.9089    6.5166 H   0  0  0  0  0  0  0  0  0  0  0  0
   16.9541    5.8494    7.2876 H   0  0  0  0  0  0  0  0  0  0  0  0
   16.3008    6.8106    8.6573 H   0  0  0  0  0  0  0  0  0  0  0  0
   15.2450   10.4806    4.8930 H   0  0  0  0  0  0  0  0  0  0  0  0
   13.7270    9.5962    5.2675 H   0  0  0  0  0  0  0  0  0  0  0  0
   17.0372    5.6285    4.9048 H   0  0  0  0  0  0  0  0  0  0  0  0
   14.9052    7.6319    1.1707 H   0  0  0  0  0  0  0  0  0  0  0  0
   11.0839   12.1069    0.8394 H   0  0  0  0  0  0  0  0  0  0  0  0
   12.6049   12.0432    1.7928 H   0  0  0  0  0  0  0  0  0  0  0  0
   11.2838   10.8738    2.1301 H   0  0  0  0  0  0  0  0  0  0  0  0
   11.3329   11.1714   -1.4460 H   0  0  0  0  0  0  0  0  0  0  0  0
   14.2807    8.0179   -0.7614 H   0  0  0  0  0  0  0  0  0  0  0  0
  1  2  2  0  0  0  0
  2  3  1  0  0  0  0
  2 17  1  0  0  0  0
  3  4  1  0  0  0  0
  3 37  1  0  0  0  0
  4  5  1  0  0  0  0
  4 11  1  0  0  0  0
  4 38  1  1  0  0  0
  5  6  2  0  0  0  0
  5 10  1  0  0  0  0
  6  7  1  0  0  0  0
  6 39  1  0  0  0  0
  7  8  2  0  0  0  0
  7 40  1  0  0  0  0
  8  9  1  0  0  0  0
  8 41  1  0  0  0  0
  9 10  2  0  0  0  0
  9 42  1  0  0  0  0
 10 43  1  0  0  0  0
 11 12  1  0  0  0  0
 11 44  1  0  0  0  0
 11 45  1  0  0  0  0
 12 13  1  0  0  0  0
 12 16  1  0  0  0  0
 12 46  1  0  0  0  0
 13 14  1  0  0  0  0
 13 47  1  0  0  0  0
 13 48  1  0  0  0  0
 14 15  1  0  0  0  0
 14 49  1  0  0  0  0
 14 50  1  0  0  0  0
 15 16  1  0  0  0  0
 15 51  1  0  0  0  0
 15 52  1  0  0  0  0
 16 53  1  0  0  0  0
 16 54  1  0  0  0  0
 17 18  1  0  0  0  0
 17 21  1  0  0  0  0
 18 19  1  0  0  0  0
 18 20  1  0  0  0  0
 18 23  1  0  0  0  0
 19 20  1  0  0  0  0
 19 55  1  0  0  0  0
 19 56  1  0  0  0  0
 20 57  1  0  0  0  0
 20 58  1  0  0  0  0
 21 22  1  0  0  0  0
 21 59  1  0  0  0  0
 21 60  1  0  0  0  0
 22 23  2  0  0  0  0
 22 25  1  0  0  0  0
 23 24  1  0  0  0  0
 24 26  1  0  0  0  0
 24 61  1  0  0  0  0
 25 26  2  0  0  0  0
 25 27  1  0  0  0  0
 27 28  1  0  0  0  0
 27 62  1  0  0  0  0
 28 29  2  0  0  0  0
 28 30  1  0  0  0  0
 30 31  1  0  0  0  0
 30 36  2  0  0  0  0
 31 32  1  0  0  0  0
 31 33  1  0  0  0  0
 32 63  1  0  0  0  0
 32 64  1  0  0  0  0
 32 65  1  0  0  0  0
 33 34  2  0  0  0  0
 33 66  1  0  0  0  0
 34 35  1  0  0  0  0
 34 36  1  0  0  0  0
 36 67  1  0  0  0  0
M  CHG  1  12   1
M  END
