4blb_ligand
 OpenBabel08222323353D

115116  0  0  1  0  0  0  0  0999 V2000
   46.2930   -6.1420  -55.1900 N   0  3  0  0  0  0  0  0  0  0  0  0
   47.3430   -5.9910  -54.1830 C   0  0  2  0  0  0  0  0  0  0  0  0
   48.5930   -6.8010  -54.5580 C   0  0  0  0  0  0  0  0  0  0  0  0
   49.5900   -6.7840  -53.8300 O   0  0  0  0  0  0  0  0  0  0  0  0
   46.8390   -6.4310  -52.7920 C   0  0  0  0  0  0  0  0  0  0  0  0
   45.8620   -5.5460  -52.2720 O   0  0  0  0  0  0  0  0  0  0  0  0
   48.5380   -7.4950  -55.6950 N   0  0  0  0  0  0  0  0  0  0  0  0
   49.6560   -8.3220  -56.1650 C   0  0  2  0  0  0  0  0  0  0  0  0
   49.8790   -8.2550  -57.6780 C   0  0  0  0  0  0  0  0  0  0  0  0
   48.9360   -8.0780  -58.4470 O   0  0  0  0  0  0  0  0  0  0  0  0
   49.4360   -9.7780  -55.7540 C   0  0  0  0  0  0  0  0  0  0  0  0
   50.7010  -10.6030  -55.7260 C   0  0  0  0  0  0  0  0  0  0  0  0
   51.5410  -10.6000  -54.6250 C   0  0  0  0  0  0  0  0  0  0  0  0
   51.0520  -11.3950  -56.8090 C   0  0  0  0  0  0  0  0  0  0  0  0
   52.7000  -11.3650  -54.6100 C   0  0  0  0  0  0  0  0  0  0  0  0
   52.2050  -12.1610  -56.8020 C   0  0  0  0  0  0  0  0  0  0  0  0
   53.0250  -12.1420  -55.6980 C   0  0  0  0  0  0  0  0  0  0  0  0
   54.1750  -12.8950  -55.6680 O   0  0  0  0  0  0  0  0  0  0  0  0
   51.1390   -8.3940  -58.0910 N   0  0  0  0  0  0  0  0  0  0  0  0
   51.5140   -8.3010  -59.4940 C   0  0  0  0  0  0  0  0  0  0  0  0
   52.1830   -9.5490  -60.0580 C   0  0  0  0  0  0  0  0  0  0  0  0
   52.9580  -10.2180  -59.3700 O   0  0  0  0  0  0  0  0  0  0  0  0
   51.8770   -9.8570  -61.3170 N   0  0  0  0  0  0  0  0  0  0  0  0
   52.5070  -10.9660  -62.0340 C   0  0  2  0  0  0  0  0  0  0  0  0
   53.0320  -10.4800  -63.3880 C   0  0  0  0  0  0  0  0  0  0  0  0
   52.2530  -10.0620  -64.2390 O   0  0  0  0  0  0  0  0  0  0  0  0
   51.5110  -12.1050  -62.2430 C   0  0  0  0  0  0  0  0  0  0  0  0
   50.6470  -12.3790  -61.0520 C   0  0  0  0  0  0  0  0  0  0  0  0
   50.8930  -13.4010  -60.1640 N   0  0  0  0  0  0  0  0  0  0  0  0
   49.5290  -11.7550  -60.6090 C   0  0  0  0  0  0  0  0  0  0  0  0
   49.9670  -13.4010  -59.2240 C   0  0  0  0  0  0  0  0  0  0  0  0
   49.1240  -12.4100  -59.4710 N   0  0  0  0  0  0  0  0  0  0  0  0
   54.3410  -10.5660  -63.6020 N   0  0  0  0  0  0  0  0  0  0  0  0
   54.9630   -9.9240  -64.7650 C   0  0  2  0  0  0  0  0  0  0  0  0
   55.5850  -10.8730  -65.7820 C   0  0  0  0  0  0  0  0  0  0  0  0
   56.3660  -11.7590  -65.4330 O   0  0  0  0  0  0  0  0  0  0  0  0
   56.0160   -8.9180  -64.3020 C   0  0  0  0  0  0  0  0  0  0  0  0
   55.5440   -7.8780  -63.2800 C   0  0  0  0  0  0  0  0  0  0  0  0
   56.4670   -7.8150  -62.0980 C   0  0  0  0  0  0  0  0  0  0  0  0
   55.4750   -6.5230  -63.9680 C   0  0  0  0  0  0  0  0  0  0  0  0
   55.2150  -10.6600  -67.0460 N   0  0  0  0  0  0  0  0  0  0  0  0
   55.7650  -11.3840  -68.1960 C   0  0  2  0  0  0  0  0  0  0  0  0
   55.5450  -12.8840  -68.0840 C   0  0  0  0  0  0  0  0  0  0  0  0
   56.4080  -13.6810  -68.4370 O   0  0  0  0  0  0  0  0  0  0  0  0
   57.2540  -11.0830  -68.3580 C   0  0  0  0  0  0  0  0  0  0  0  0
   57.4620   -9.7170  -68.6850 O   0  0  0  0  0  0  0  0  0  0  0  0
   54.3720  -13.2570  -67.5890 N   0  0  0  0  0  0  0  0  0  0  0  0
   54.0490  -14.6510  -67.3320 C   0  0  2  0  0  0  0  0  0  0  0  0
   54.0150  -15.4410  -68.6360 C   0  0  0  0  0  0  0  0  0  0  0  0
   54.2490  -16.6480  -68.6430 O   0  0  0  0  0  0  0  0  0  0  0  0
   52.6940  -14.8010  -66.6330 C   0  0  2  0  0  0  0  0  0  0  0  0
   51.5680  -14.2820  -67.5250 C   0  0  0  0  0  0  0  0  0  0  0  0
   52.6990  -14.0210  -65.3190 C   0  0  0  0  0  0  0  0  0  0  0  0
   50.2380  -14.6350  -67.0300 C   0  0  0  0  0  0  0  0  0  0  0  0
   53.6570  -14.7600  -69.7200 N   0  0  0  0  0  0  0  0  0  0  0  0
   53.7020  -15.3420  -71.0500 C   0  0  0  0  0  0  0  0  0  0  0  0
   54.9660  -14.9460  -71.8020 C   0  0  0  0  0  0  0  0  0  0  0  0
   55.5007  -13.8175  -71.6340 O   0  5  0  0  0  0  0  0  0  0  0  0
   55.4870  -15.7627  -72.6077 O   0  0  0  0  0  0  0  0  0  0  0  0
   45.4869   -5.6011  -54.9186 H   0  0  0  0  0  0  0  0  0  0  0  0
   46.0359   -7.1138  -55.2643 H   0  0  0  0  0  0  0  0  0  0  0  0
   46.6325   -5.8151  -56.0810 H   0  0  0  0  0  0  0  0  0  0  0  0
   47.6200   -4.9276  -54.1331 H   0  0  0  0  0  0  0  0  0  0  0  0
   47.6930   -6.4623  -52.0994 H   0  0  0  0  0  0  0  0  0  0  0  0
   46.3982   -7.4353  -52.8763 H   0  0  0  0  0  0  0  0  0  0  0  0
   46.2358   -4.6765  -52.1896 H   0  0  0  0  0  0  0  0  0  0  0  0
   47.7055   -7.4506  -56.2473 H   0  0  0  0  0  0  0  0  0  0  0  0
   50.5699   -7.9552  -55.6749 H   0  0  0  0  0  0  0  0  0  0  0  0
   48.7380  -10.2382  -56.4689 H   0  0  0  0  0  0  0  0  0  0  0  0
   48.9918   -9.7907  -54.7478 H   0  0  0  0  0  0  0  0  0  0  0  0
   51.2904   -9.9922  -53.7631 H   0  0  0  0  0  0  0  0  0  0  0  0
   50.4086  -11.4147  -57.6812 H   0  0  0  0  0  0  0  0  0  0  0  0
   53.3484  -11.3500  -53.7414 H   0  0  0  0  0  0  0  0  0  0  0  0
   52.4598  -12.7716  -57.6607 H   0  0  0  0  0  0  0  0  0  0  0  0
   54.7465  -12.6266  -56.3777 H   0  0  0  0  0  0  0  0  0  0  0  0
   51.8522   -8.5685  -57.4121 H   0  0  0  0  0  0  0  0  0  0  0  0
   52.2110   -7.4576  -59.6073 H   0  0  0  0  0  0  0  0  0  0  0  0
   50.6037   -8.1057  -60.0799 H   0  0  0  0  0  0  0  0  0  0  0  0
   51.1888   -9.3081  -61.7915 H   0  0  0  0  0  0  0  0  0  0  0  0
   53.3520  -11.3393  -61.4368 H   0  0  0  0  0  0  0  0  0  0  0  0
   52.0747  -13.0194  -62.4800 H   0  0  0  0  0  0  0  0  0  0  0  0
   50.8602  -11.8453  -63.0909 H   0  0  0  0  0  0  0  0  0  0  0  0
   49.0427  -10.8958  -61.0685 H   0  0  0  0  0  0  0  0  0  0  0  0
   49.9064  -14.0967  -58.3884 H   0  0  0  0  0  0  0  0  0  0  0  0
   48.2993  -12.1694  -58.9028 H   0  0  0  0  0  0  0  0  0  0  0  0
   54.9115  -11.0771  -62.9592 H   0  0  0  0  0  0  0  0  0  0  0  0
   54.1684   -9.3705  -65.2867 H   0  0  0  0  0  0  0  0  0  0  0  0
   56.3795   -8.3782  -65.1888 H   0  0  0  0  0  0  0  0  0  0  0  0
   56.8455   -9.4820  -63.8504 H   0  0  0  0  0  0  0  0  0  0  0  0
   54.5399   -8.1549  -62.9264 H   0  0  0  0  0  0  0  0  0  0  0  0
   56.1001   -7.0610  -61.3861 H   0  0  0  0  0  0  0  0  0  0  0  0
   57.4770   -7.5396  -62.4357 H   0  0  0  0  0  0  0  0  0  0  0  0
   56.5003   -8.7982  -61.6059 H   0  0  0  0  0  0  0  0  0  0  0  0
   54.7959   -6.5842  -64.8311 H   0  0  0  0  0  0  0  0  0  0  0  0
   56.4794   -6.2346  -64.3115 H   0  0  0  0  0  0  0  0  0  0  0  0
   55.0998   -5.7704  -63.2589 H   0  0  0  0  0  0  0  0  0  0  0  0
   54.5192   -9.9631  -67.2198 H   0  0  0  0  0  0  0  0  0  0  0  0
   55.2426  -11.0313  -69.0975 H   0  0  0  0  0  0  0  0  0  0  0  0
   57.6633  -11.7122  -69.1621 H   0  0  0  0  0  0  0  0  0  0  0  0
   57.7722  -11.3104  -67.4147 H   0  0  0  0  0  0  0  0  0  0  0  0
   57.1129   -9.1698  -67.9914 H   0  0  0  0  0  0  0  0  0  0  0  0
   53.6878  -12.5565  -67.3861 H   0  0  0  0  0  0  0  0  0  0  0  0
   54.8293  -15.0716  -66.6807 H   0  0  0  0  0  0  0  0  0  0  0  0
   52.5195  -15.8659  -66.4196 H   0  0  0  0  0  0  0  0  0  0  0  0
   51.6924  -14.7094  -68.5309 H   0  0  0  0  0  0  0  0  0  0  0  0
   51.6417  -13.1859  -67.5806 H   0  0  0  0  0  0  0  0  0  0  0  0
   53.5093  -14.3931  -64.6748 H   0  0  0  0  0  0  0  0  0  0  0  0
   51.7338  -14.1558  -64.8089 H   0  0  0  0  0  0  0  0  0  0  0  0
   52.8576  -12.9526  -65.5274 H   0  0  0  0  0  0  0  0  0  0  0  0
   49.4744  -14.2344  -67.7129 H   0  0  0  0  0  0  0  0  0  0  0  0
   50.0942  -14.2063  -66.0272 H   0  0  0  0  0  0  0  0  0  0  0  0
   50.1449  -15.7298  -66.9776 H   0  0  0  0  0  0  0  0  0  0  0  0
   53.3462  -13.8152  -69.6163 H   0  0  0  0  0  0  0  0  0  0  0  0
   52.8267  -14.9959  -71.6192 H   0  0  0  0  0  0  0  0  0  0  0  0
   53.6708  -16.4378  -70.9597 H   0  0  0  0  0  0  0  0  0  0  0  0
  1  2  1  0  0  0  0
  1 60  1  0  0  0  0
  1 61  1  0  0  0  0
  1 62  1  0  0  0  0
  2  3  1  0  0  0  0
  2  5  1  0  0  0  0
  2 63  1  1  0  0  0
  3  4  2  0  0  0  0
  3  7  1  0  0  0  0
  5  6  1  0  0  0  0
  5 64  1  0  0  0  0
  5 65  1  0  0  0  0
  6 66  1  0  0  0  0
  7  8  1  0  0  0  0
  7 67  1  0  0  0  0
  8  9  1  0  0  0  0
  8 11  1  0  0  0  0
  8 68  1  1  0  0  0
  9 10  2  0  0  0  0
  9 19  1  0  0  0  0
 11 12  1  0  0  0  0
 11 69  1  0  0  0  0
 11 70  1  0  0  0  0
 12 13  2  0  0  0  0
 12 14  1  0  0  0  0
 13 15  1  0  0  0  0
 13 71  1  0  0  0  0
 14 16  2  0  0  0  0
 14 72  1  0  0  0  0
 15 17  2  0  0  0  0
 15 73  1  0  0  0  0
 16 17  1  0  0  0  0
 16 74  1  0  0  0  0
 17 18  1  0  0  0  0
 18 75  1  0  0  0  0
 19 20  1  0  0  0  0
 19 76  1  0  0  0  0
 20 21  1  0  0  0  0
 20 77  1  0  0  0  0
 20 78  1  0  0  0  0
 21 22  2  0  0  0  0
 21 23  1  0  0  0  0
 23 24  1  0  0  0  0
 23 79  1  0  0  0  0
 24 25  1  0  0  0  0
 24 27  1  0  0  0  0
 24 80  1  1  0  0  0
 25 26  2  0  0  0  0
 25 33  1  0  0  0  0
 27 28  1  0  0  0  0
 27 81  1  0  0  0  0
 27 82  1  0  0  0  0
 28 29  1  0  0  0  0
 28 30  2  0  0  0  0
 29 31  2  0  0  0  0
 30 32  1  0  0  0  0
 30 83  1  0  0  0  0
 31 32  1  0  0  0  0
 31 84  1  0  0  0  0
 32 85  1  0  0  0  0
 33 34  1  0  0  0  0
 33 86  1  0  0  0  0
 34 35  1  0  0  0  0
 34 37  1  0  0  0  0
 34 87  1  6  0  0  0
 35 36  2  0  0  0  0
 35 41  1  0  0  0  0
 37 38  1  0  0  0  0
 37 88  1  0  0  0  0
 37 89  1  0  0  0  0
 38 39  1  0  0  0  0
 38 40  1  0  0  0  0
 38 90  1  0  0  0  0
 39 91  1  0  0  0  0
 39 92  1  0  0  0  0
 39 93  1  0  0  0  0
 40 94  1  0  0  0  0
 40 95  1  0  0  0  0
 40 96  1  0  0  0  0
 41 42  1  0  0  0  0
 41 97  1  0  0  0  0
 42 43  1  0  0  0  0
 42 45  1  0  0  0  0
 42 98  1  6  0  0  0
 43 44  2  0  0  0  0
 43 47  1  0  0  0  0
 45 46  1  0  0  0  0
 45 99  1  0  0  0  0
 45100  1  0  0  0  0
 46101  1  0  0  0  0
 47 48  1  0  0  0  0
 47102  1  0  0  0  0
 48 49  1  0  0  0  0
 48 51  1  0  0  0  0
 48103  1  1  0  0  0
 49 50  2  0  0  0  0
 49 55  1  0  0  0  0
 51 52  1  0  0  0  0
 51 53  1  0  0  0  0
 51104  1  1  0  0  0
 52 54  1  0  0  0  0
 52105  1  0  0  0  0
 52106  1  0  0  0  0
 53107  1  0  0  0  0
 53108  1  0  0  0  0
 53109  1  0  0  0  0
 54110  1  0  0  0  0
 54111  1  0  0  0  0
 54112  1  0  0  0  0
 55 56  1  0  0  0  0
 55113  1  0  0  0  0
 56 57  1  0  0  0  0
 56114  1  0  0  0  0
 56115  1  0  0  0  0
 57 58  1  0  0  0  0
 57 59  2  0  0  0  0
M  CHG  2   1   1  58  -1
M  END
