4bnz_ligand
 OpenBabel08222323353D

 33 35  0  0  0  0  0  0  0  0999 V2000
  -11.6930   -3.7300  -32.1410 C   0  0  0  0  0  0  0  0  0  0  0  0
  -10.5020   -4.4120  -32.1580 C   0  0  0  0  0  0  0  0  0  0  0  0
   -9.4190   -3.7950  -32.6160 C   0  0  0  0  0  0  0  0  0  0  0  0
   -9.4140   -2.5370  -33.0700 C   0  0  0  0  0  0  0  0  0  0  0  0
  -10.5290   -1.8340  -33.0860 C   0  0  0  0  0  0  0  0  0  0  0  0
  -11.7010   -2.4170  -32.6180 C   0  0  0  0  0  0  0  0  0  0  0  0
   -7.4020   -3.3350  -33.2670 C   0  0  0  0  0  0  0  0  0  0  0  0
   -7.6290   -5.6600  -32.4060 C   0  0  0  0  0  0  0  0  0  0  0  0
   -8.1820   -4.2820  -32.7570 N   0  0  0  0  0  0  0  0  0  0  0  0
   -4.5080   -0.2150  -35.3210 C   0  0  0  0  0  0  0  0  0  0  0  0
   -3.8490    0.8890  -35.8670 C   0  0  0  0  0  0  0  0  0  0  0  0
   -4.4370    2.1750  -35.8300 C   0  0  0  0  0  0  0  0  0  0  0  0
   -5.6780    2.3910  -35.2460 C   0  0  0  0  0  0  0  0  0  0  0  0
   -6.3380    1.2860  -34.7130 C   0  0  0  0  0  0  0  0  0  0  0  0
   -5.7550   -0.0130  -34.7480 C   0  0  0  0  0  0  0  0  0  0  0  0
   -7.7000   -1.1060  -33.9300 C   0  0  0  0  0  0  0  0  0  0  0  0
   -6.3460   -1.1150  -34.2710 N   0  0  0  0  0  0  0  0  0  0  0  0
   -8.4120   -0.0930  -33.8420 O   0  0  0  0  0  0  0  0  0  0  0  0
   -8.1690   -2.2660  -33.4650 C   0  0  0  0  0  0  0  0  0  0  0  0
  -12.5987   -4.1954  -31.7692 H   0  0  0  0  0  0  0  0  0  0  0  0
  -10.4465   -5.4351  -31.8042 H   0  0  0  0  0  0  0  0  0  0  0  0
  -10.5320   -0.8161  -33.4587 H   0  0  0  0  0  0  0  0  0  0  0  0
  -12.6251   -1.8503  -32.6232 H   0  0  0  0  0  0  0  0  0  0  0  0
   -6.3377   -3.4180  -33.4820 H   0  0  0  0  0  0  0  0  0  0  0  0
   -8.4369   -6.2870  -32.0008 H   0  0  0  0  0  0  0  0  0  0  0  0
   -6.8337   -5.5551  -31.6533 H   0  0  0  0  0  0  0  0  0  0  0  0
   -7.2178   -6.1314  -33.3108 H   0  0  0  0  0  0  0  0  0  0  0  0
   -4.0580   -1.2009  -35.3444 H   0  0  0  0  0  0  0  0  0  0  0  0
   -2.8750    0.7586  -36.3247 H   0  0  0  0  0  0  0  0  0  0  0  0
   -3.9058    3.0122  -36.2682 H   0  0  0  0  0  0  0  0  0  0  0  0
   -6.1165    3.3815  -35.2063 H   0  0  0  0  0  0  0  0  0  0  0  0
   -7.3151    1.4175  -34.2625 H   0  0  0  0  0  0  0  0  0  0  0  0
   -5.8126   -1.9532  -34.1577 H   0  0  0  0  0  0  0  0  0  0  0  0
  1 20  1  0  0  0  0
  2  1  2  0  0  0  0
  2 21  1  0  0  0  0
  3  2  1  0  0  0  0
  4  3  2  0  0  0  0
  4  5  1  0  0  0  0
  5  6  2  0  0  0  0
  5 22  1  0  0  0  0
  6  1  1  0  0  0  0
  6 23  1  0  0  0  0
  7  9  1  0  0  0  0
  7 24  1  0  0  0  0
  8 25  1  0  0  0  0
  8 26  1  0  0  0  0
  8 27  1  0  0  0  0
  9  3  1  0  0  0  0
  9  8  1  0  0  0  0
 10 11  2  0  0  0  0
 10 28  1  0  0  0  0
 11 12  1  0  0  0  0
 11 29  1  0  0  0  0
 12 30  1  0  0  0  0
 13 12  2  0  0  0  0
 13 31  1  0  0  0  0
 14 13  1  0  0  0  0
 14 32  1  0  0  0  0
 15 10  1  0  0  0  0
 15 14  2  0  0  0  0
 16 17  1  0  0  0  0
 16 18  2  0  0  0  0
 16 19  1  0  0  0  0
 17 15  1  0  0  0  0
 17 33  1  0  0  0  0
 19  4  1  0  0  0  0
 19  7  2  0  0  0  0
M  END
