4bo2_ligand
 OpenBabel08222323353D

 41 43  0  0  0  0  0  0  0  0999 V2000
    9.6790  102.0330  183.2980 C   0  0  0  0  0  0  0  0  0  0  0  0
   10.1140  102.8690  182.0550 C   0  0  0  0  0  0  0  0  0  0  0  0
   11.0720  103.9870  182.4300 N   0  0  0  0  0  0  0  0  0  0  0  0
   12.3720  103.8540  182.1710 C   0  0  0  0  0  0  0  0  0  0  0  0
   13.0320  102.8810  181.6140 C   0  0  0  0  0  0  0  0  0  0  0  0
   14.3840  103.0300  181.4430 C   0  0  0  0  0  0  0  0  0  0  0  0
   15.0590  104.1400  181.8750 C   0  0  0  0  0  0  0  0  0  0  0  0
   14.3210  105.1110  182.4450 C   0  0  0  0  0  0  0  0  0  0  0  0
   13.0320  104.9460  182.5680 C   0  0  0  0  0  0  0  0  0  0  0  0
   12.1820  105.7740  183.0780 N   0  0  0  0  0  0  0  0  0  0  0  0
   10.9830  105.1820  183.0160 C   0  0  0  0  0  0  0  0  0  0  0  0
    9.9230  105.8420  183.4990 N   0  0  0  0  0  0  0  0  0  0  0  0
    8.7560  105.2200  183.7510 C   0  0  0  0  0  0  0  0  0  0  0  0
    8.5510  104.0200  183.5220 O   0  0  0  0  0  0  0  0  0  0  0  0
    7.8240  106.0230  184.2880 N   0  0  0  0  0  0  0  0  0  0  0  0
    8.1260  107.3120  184.4550 C   0  0  0  0  0  0  0  0  0  0  0  0
    9.3040  107.8840  184.0420 C   0  0  0  0  0  0  0  0  0  0  0  0
    9.5030  109.2340  184.2590 C   0  0  0  0  0  0  0  0  0  0  0  0
    8.5240  110.0140  184.8880 C   0  0  0  0  0  0  0  0  0  0  0  0
    7.3360  109.4460  185.3150 C   0  0  0  0  0  0  0  0  0  0  0  0
    7.1660  108.0850  185.0770 C   0  0  0  0  0  0  0  0  0  0  0  0
    6.0550  107.4230  185.4450 O   0  0  0  0  0  0  0  0  0  0  0  0
    6.3880  106.0190  185.5130 C   0  0  0  0  0  0  0  0  0  0  0  0
    8.9882  101.2376  182.9814 H   0  0  0  0  0  0  0  0  0  0  0  0
    9.1751  102.6890  184.0231 H   0  0  0  0  0  0  0  0  0  0  0  0
   10.5668  101.5827  183.7660 H   0  0  0  0  0  0  0  0  0  0  0  0
    9.2187  103.3088  181.5914 H   0  0  0  0  0  0  0  0  0  0  0  0
   10.6103  102.2025  181.3343 H   0  0  0  0  0  0  0  0  0  0  0  0
   12.5266  101.9771  181.2938 H   0  0  0  0  0  0  0  0  0  0  0  0
   14.9384  102.2408  180.9481 H   0  0  0  0  0  0  0  0  0  0  0  0
   16.1333  104.2324  181.7637 H   0  0  0  0  0  0  0  0  0  0  0  0
   14.7925  106.0209  182.7983 H   0  0  0  0  0  0  0  0  0  0  0  0
   10.0002  106.8230  183.6773 H   0  0  0  0  0  0  0  0  0  0  0  0
    6.9291  105.6655  184.5552 H   0  0  0  0  0  0  0  0  0  0  0  0
   10.0653  107.2863  183.5538 H   0  0  0  0  0  0  0  0  0  0  0  0
   10.4296  109.6960  183.9380 H   0  0  0  0  0  0  0  0  0  0  0  0
    8.6985  111.0728  185.0419 H   0  0  0  0  0  0  0  0  0  0  0  0
    6.5730  110.0341  185.8120 H   0  0  0  0  0  0  0  0  0  0  0  0
    5.4985  105.4453  185.8125 H   0  0  0  0  0  0  0  0  0  0  0  0
    7.1882  105.8673  186.2524 H   0  0  0  0  0  0  0  0  0  0  0  0
    6.7308  105.6752  184.5259 H   0  0  0  0  0  0  0  0  0  0  0  0
  1  2  1  0  0  0  0
  1 24  1  0  0  0  0
  1 25  1  0  0  0  0
  1 26  1  0  0  0  0
  2  3  1  0  0  0  0
  2 27  1  0  0  0  0
  2 28  1  0  0  0  0
  3  4  1  0  0  0  0
  3 11  1  0  0  0  0
  4  5  2  0  0  0  0
  4  9  1  0  0  0  0
  5  6  1  0  0  0  0
  5 29  1  0  0  0  0
  6  7  2  0  0  0  0
  6 30  1  0  0  0  0
  7  8  1  0  0  0  0
  7 31  1  0  0  0  0
  8  9  2  0  0  0  0
  8 32  1  0  0  0  0
  9 10  1  0  0  0  0
 10 11  2  0  0  0  0
 11 12  1  0  0  0  0
 12 13  1  0  0  0  0
 12 33  1  0  0  0  0
 13 14  2  0  0  0  0
 13 15  1  0  0  0  0
 15 16  1  0  0  0  0
 15 34  1  0  0  0  0
 16 17  2  0  0  0  0
 16 21  1  0  0  0  0
 17 18  1  0  0  0  0
 17 35  1  0  0  0  0
 18 19  2  0  0  0  0
 18 36  1  0  0  0  0
 19 20  1  0  0  0  0
 19 37  1  0  0  0  0
 20 21  2  0  0  0  0
 20 38  1  0  0  0  0
 21 22  1  0  0  0  0
 22 23  1  0  0  0  0
 23 39  1  0  0  0  0
 23 40  1  0  0  0  0
 23 41  1  0  0  0  0
M  END
