4bpj_ligand
 OpenBabel08222323353D

297297  0  0  1  0  0  0  0  0999 V2000
   -1.9180   20.8810   20.4110 N   0  3  0  0  0  0  0  0  0  0  0  0
   -1.6850   19.6520   19.6560 C   0  0  2  0  0  0  0  0  0  0  0  0
   -0.3210   19.6660   18.9800 C   0  0  0  0  0  0  0  0  0  0  0  0
    0.2770   20.7320   18.7870 O   0  0  0  0  0  0  0  0  0  0  0  0
   -2.7830   19.4440   18.6320 C   0  0  0  0  0  0  0  0  0  0  0  0
    0.1670   18.4800   18.6190 N   0  0  0  0  0  0  0  0  0  0  0  0
    1.4840   18.3510   18.0060 C   0  0  2  0  0  0  0  0  0  0  0  0
    1.5820   19.1180   16.6890 C   0  0  0  0  0  0  0  0  0  0  0  0
    2.5510   19.8330   16.4470 O   0  0  0  0  0  0  0  0  0  0  0  0
    1.8720   16.8790   17.7790 C   0  0  2  0  0  0  0  0  0  0  0  0
    3.0560   16.7990   16.8160 C   0  0  0  0  0  0  0  0  0  0  0  0
    0.6820   16.0940   17.2510 C   0  0  0  0  0  0  0  0  0  0  0  0
    3.6600   15.4430   16.6440 C   0  0  0  0  0  0  0  0  0  0  0  0
    0.5530   18.9740   15.8590 N   0  0  0  0  0  0  0  0  0  0  0  0
    0.5180   19.6160   14.5430 C   0  0  2  0  0  0  0  0  0  0  0  0
    1.4970   18.9490   13.5870 C   0  0  0  0  0  0  0  0  0  0  0  0
    0.7500   21.1270   14.5990 C   0  0  0  0  0  0  0  0  0  0  0  0
    1.7580   21.6290   14.0780 O   0  0  0  0  0  0  0  0  0  0  0  0
   -0.1880   21.8310   15.2350 N   0  0  0  0  0  0  0  0  0  0  0  0
   -0.1750   23.2930   15.3510 C   0  0  2  0  0  0  0  0  0  0  0  0
    0.9850   23.7700   16.2120 C   0  0  0  0  0  0  0  0  0  0  0  0
    1.5780   24.8340   15.9520 O   0  0  0  0  0  0  0  0  0  0  0  0
   -1.4930   23.7850   15.9300 C   0  0  0  0  0  0  0  0  0  0  0  0
    1.2320   23.0070   17.2730 N   0  0  0  0  0  0  0  0  0  0  0  0
    2.1660   23.6340   18.2120 C   0  0  1  0  0  0  0  0  0  0  0  0
    1.5350   23.8750   19.5910 C   0  0  0  0  0  0  0  0  0  0  0  0
    3.4150   22.7780   18.3520 C   0  0  0  0  0  0  0  0  0  0  0  0
    4.3750   22.9870   17.1860 C   0  0  0  0  0  0  0  0  0  0  0  0
    5.0740   23.9970   17.1530 O   0  0  0  0  0  0  0  0  0  0  0  0
    0.3740   24.8640   19.6190 C   0  0  0  0  0  0  0  0  0  0  0  0
    0.7280   26.2600   19.1200 C   0  0  0  0  0  0  0  0  0  0  0  0
   -0.2370   26.9420   18.5260 N   0  0  0  0  0  0  0  0  0  0  0  0
    1.8610   26.7190   19.2520 O   0  0  0  0  0  0  0  0  0  0  0  0
    4.4040   22.0680   16.2170 N   0  0  0  0  0  0  0  0  0  0  0  0
    5.3800   22.1590   15.1500 C   0  0  2  0  0  0  0  0  0  0  0  0
    5.1700   23.3390   14.2220 C   0  0  0  0  0  0  0  0  0  0  0  0
    6.1330   24.0060   13.8500 O   0  0  0  0  0  0  0  0  0  0  0  0
    5.3810   20.8800   14.3120 C   0  0  0  0  0  0  0  0  0  0  0  0
    5.9740   19.7020   15.0730 C   0  0  0  0  0  0  0  0  0  0  0  0
    5.7280   18.4240   14.2910 C   0  0  0  0  0  0  0  0  0  0  0  0
    7.4640   19.8890   15.2680 C   0  0  0  0  0  0  0  0  0  0  0  0
    3.9220   23.5760   13.8260 N   0  0  0  0  0  0  0  0  0  0  0  0
    3.6440   24.5910   12.8080 C   0  0  2  0  0  0  0  0  0  0  0  0
    3.9620   25.9800   13.3520 C   0  0  0  0  0  0  0  0  0  0  0  0
    4.6350   26.7630   12.6810 O   0  0  0  0  0  0  0  0  0  0  0  0
    2.2020   24.5210   12.3360 C   0  0  0  0  0  0  0  0  0  0  0  0
    1.8920   25.5180   11.2220 C   0  0  0  0  0  0  0  0  0  0  0  0
    0.4060   25.5930   10.9990 C   0  0  0  0  0  0  0  0  0  0  0  0
   -0.0870   24.4450   10.2290 N   0  0  0  0  0  0  0  0  0  0  0  0
   -1.3570   24.0490   10.1960 C   0  0  0  0  0  3  0  0  0  0  0  0
   -2.2890   24.6890   10.8990 N   0  0  0  0  0  0  0  0  0  0  0  0
   -1.7080   22.9940    9.4640 N   0  0  0  0  0  0  0  0  0  0  0  0
    3.3940   26.2690   14.5250 N   0  0  0  0  0  0  0  0  0  0  0  0
    3.4820   27.6500   14.9970 C   0  0  1  0  0  0  0  0  0  0  0  0
    2.0870   28.1490   15.3840 C   0  0  0  0  0  0  0  0  0  0  0  0
    1.1000   28.0030   14.2330 C   0  0  0  0  0  0  0  0  0  0  0  0
    0.0400   29.0900   14.2920 C   0  0  0  0  0  0  0  0  0  0  0  0
   -0.7100   29.0730   15.5400 N   0  0  0  0  0  0  0  0  0  0  0  0
   -1.7960   29.8060   15.7430 C   0  0  0  0  0  3  0  0  0  0  0  0
   -2.2320   30.6080   14.7800 N   0  0  0  0  0  0  0  0  0  0  0  0
   -2.4350   29.7420   16.9030 N   0  0  0  0  0  0  0  0  0  0  0  0
    5.8440   27.7700   15.9110 C   0  0  0  0  0  0  0  0  0  0  0  0
    6.3000   28.7700   15.3690 O   0  0  0  0  0  0  0  0  0  0  0  0
    4.3580   27.7090   16.2420 C   0  0  0  0  0  0  0  0  0  0  0  0
    6.5720   26.7020   16.2310 N   0  0  0  0  0  0  0  0  0  0  0  0
    8.0220   26.6510   16.0480 C   0  0  2  0  0  0  0  0  0  0  0  0
    8.4570   27.0570   14.6460 C   0  0  0  0  0  0  0  0  0  0  0  0
    9.3190   27.9120   14.4690 O   0  0  0  0  0  0  0  0  0  0  0  0
    8.5370   25.2390   16.3230 C   0  0  0  0  0  0  0  0  0  0  0  0
    8.1800   24.7180   17.6890 C   0  0  0  0  0  0  0  0  0  0  0  0
    8.6470   23.0010   17.8820 S   0  0  0  0  0  0  0  0  0  0  0  0
    7.7710   22.6350   19.3840 C   0  0  0  0  0  0  0  0  0  0  0  0
    7.8410   26.4320   13.6560 N   0  0  0  0  0  0  0  0  0  0  0  0
    8.2600   26.5810   12.2660 C   0  0  2  0  0  0  0  0  0  0  0  0
    8.0280   27.9680   11.6890 C   0  0  0  0  0  0  0  0  0  0  0  0
    8.9370   28.5410   11.0720 O   0  0  0  0  0  0  0  0  0  0  0  0
    7.5650   25.5410   11.4010 C   0  0  0  0  0  0  0  0  0  0  0  0
    6.8100   28.4870   11.8560 N   0  0  0  0  0  0  0  0  0  0  0  0
    6.4390   29.7780   11.2570 C   0  0  2  0  0  0  0  0  0  0  0  0
    7.0560   30.9040   12.0610 C   0  0  0  0  0  0  0  0  0  0  0  0
    7.3590   31.9700   11.5070 O   0  0  0  0  0  0  0  0  0  0  0  0
    4.9230   29.9480   11.2080 C   0  0  0  0  0  0  0  0  0  0  0  0
    4.2700   29.1160   10.1180 C   0  0  0  0  0  0  0  0  0  0  0  0
    4.9890   28.5090    9.2750 O   0  5  0  0  0  0  0  0  0  0  0  0
    3.0210   29.0920   10.0910 O   0  0  0  0  0  0  0  0  0  0  0  0
    6.9970   33.1890   17.2300 O   0  5  0  0  0  0  0  0  0  0  0  0
    6.7630   33.3850   16.0280 C   0  0  0  0  0  0  0  0  0  0  0  0
    6.8040   34.5220   15.5050 O   0  0  0  0  0  0  0  0  0  0  0  0
    6.4110   32.1750   15.1820 C   0  0  0  0  0  0  0  0  0  0  0  0
    7.4980   31.8320   14.1590 C   0  0  2  0  0  0  0  0  0  0  0  0
    7.1330   30.6540   13.3690 N   0  0  0  0  0  0  0  0  0  0  0  0
    8.7810   31.5430   14.9210 C   0  0  0  0  0  0  0  0  0  0  0  0
    9.9840   31.5780   14.0180 C   0  0  0  0  0  0  0  0  0  0  0  0
   10.4690   32.6640   13.6980 O   0  0  0  0  0  0  0  0  0  0  0  0
   10.4560   30.4120   13.5870 N   0  0  0  0  0  0  0  0  0  0  0  0
   11.6900   30.3500   12.8060 C   0  0  2  0  0  0  0  0  0  0  0  0
   11.5980   31.1000   11.4720 C   0  0  0  0  0  0  0  0  0  0  0  0
   12.4780   31.9000   11.1480 O   0  0  0  0  0  0  0  0  0  0  0  0
   12.1340   28.9010   12.5770 C   0  0  0  0  0  0  0  0  0  0  0  0
   13.5000   28.7310   11.9030 C   0  0  0  0  0  0  0  0  0  0  0  0
   14.6100   29.3700   12.7210 C   0  0  0  0  0  0  0  0  0  0  0  0
   13.7860   27.2650   11.6730 C   0  0  0  0  0  0  0  0  0  0  0  0
   10.5500   30.8370   10.6990 N   0  0  0  0  0  0  0  0  0  0  0  0
   10.4440   31.4300    9.3670 C   0  0  2  0  0  0  0  0  0  0  0  0
   10.3260   32.9270    9.4900 C   0  0  0  0  0  0  0  0  0  0  0  0
   10.9330   33.6690    8.7160 O   0  0  0  0  0  0  0  0  0  0  0  0
    9.2750   30.8510    8.5780 C   0  0  0  0  0  0  0  0  0  0  0  0
    9.4670   31.0240    7.0830 C   0  0  0  0  0  0  0  0  0  0  0  0
   10.2720   30.3160    6.4800 O   0  0  0  0  0  0  0  0  0  0  0  0
    8.7440   31.9640    6.4850 N   0  0  0  0  0  0  0  0  0  0  0  0
    7.8580   35.1270    9.9760 C   0  0  0  0  0  0  0  0  0  0  0  0
    9.2960   34.7750   10.3350 C   0  0  2  0  0  0  0  0  0  0  0  0
    9.4840   33.3320   10.4390 N   0  0  0  0  0  0  0  0  0  0  0  0
    9.6440   35.3900   11.6630 C   0  0  0  0  0  0  0  0  0  0  0  0
   11.1080   35.7240   11.7210 C   0  0  0  0  0  0  0  0  0  0  0  0
   11.5000   36.7800   11.2310 O   0  0  0  0  0  0  0  0  0  0  0  0
   11.9170   34.8440   12.3050 N   0  0  0  0  0  0  0  0  0  0  0  0
   13.3400   35.1350   12.4870 C   0  0  2  0  0  0  0  0  0  0  0  0
   14.0450   35.3900   11.1660 C   0  0  0  0  0  0  0  0  0  0  0  0
   14.8580   36.3040   11.0620 O   0  0  0  0  0  0  0  0  0  0  0  0
   14.0460   33.9970   13.2210 C   0  0  0  0  0  0  0  0  0  0  0  0
   13.5680   33.7710   14.6370 C   0  0  0  0  0  0  0  0  0  0  0  0
   14.3670   32.6910   15.3390 C   0  0  0  0  0  0  0  0  0  0  0  0
   15.5730   32.5680   15.1330 O   0  0  0  0  0  0  0  0  0  0  0  0
   13.6960   31.8980   16.1660 N   0  0  0  0  0  0  0  0  0  0  0  0
   13.7290   34.5880   10.1530 N   0  0  0  0  0  0  0  0  0  0  0  0
   14.4130   34.7070    8.8650 C   0  0  2  0  0  0  0  0  0  0  0  0
   13.6640   35.5160    7.8020 C   0  0  0  0  0  0  0  0  0  0  0  0
   14.0220   35.4840    6.6240 O   0  0  0  0  0  0  0  0  0  0  0  0
   14.8180   33.3260    8.3380 C   0  0  0  0  0  0  0  0  0  0  0  0
   16.0190   32.7870    9.0690 C   0  0  0  0  0  0  0  0  0  0  0  0
   17.3040   33.0960    8.6420 C   0  0  0  0  0  0  0  0  0  0  0  0
   15.8730   32.0030   10.2040 C   0  0  0  0  0  0  0  0  0  0  0  0
   18.4090   32.6270    9.3100 C   0  0  0  0  0  0  0  0  0  0  0  0
   16.9800   31.5270   10.8870 C   0  0  0  0  0  0  0  0  0  0  0  0
   18.2450   31.8440   10.4280 C   0  0  0  0  0  0  0  0  0  0  0  0
   19.3580   31.3870   11.0890 O   0  0  0  0  0  0  0  0  0  0  0  0
   12.6420   36.2510    8.2320 N   0  0  0  0  0  0  0  0  0  0  0  0
   11.8550   37.0990    7.3300 C   0  0  2  0  0  0  0  0  0  0  0  0
   11.3390   36.3640    6.0880 C   0  0  0  0  0  0  0  0  0  0  0  0
   11.4870   36.8470    4.9630 O   0  0  0  0  0  0  0  0  0  0  0  0
   12.6590   38.3490    6.9430 C   0  0  0  0  0  0  0  0  0  0  0  0
   13.0740   39.1700    8.1490 C   0  0  0  0  0  0  0  0  0  0  0  0
   13.7180   40.4970    7.7830 C   0  0  0  0  0  0  0  0  0  0  0  0
   14.5770   40.5180    6.8790 O   0  5  0  0  0  0  0  0  0  0  0  0
   13.3660   41.5200    8.4030 O   0  0  0  0  0  0  0  0  0  0  0  0
   10.7330   35.1980    6.3000 N   0  0  0  0  0  0  0  0  0  0  0  0
   -2.8267   20.8412   20.8455 H   0  0  0  0  0  0  0  0  0  0  0  0
   -1.8784   21.6715   19.7868 H   0  0  0  0  0  0  0  0  0  0  0  0
   -1.2098   20.9782   21.1216 H   0  0  0  0  0  0  0  0  0  0  0  0
   -1.7075   18.8084   20.3615 H   0  0  0  0  0  0  0  0  0  0  0  0
   -2.5923   18.5158   18.0734 H   0  0  0  0  0  0  0  0  0  0  0  0
   -2.8001   20.2946   17.9347 H   0  0  0  0  0  0  0  0  0  0  0  0
   -3.7534   19.3706   19.1447 H   0  0  0  0  0  0  0  0  0  0  0  0
   -0.3828   17.6588   18.7720 H   0  0  0  0  0  0  0  0  0  0  0  0
    2.2141   18.7872   18.7036 H   0  0  0  0  0  0  0  0  0  0  0  0
    2.1755   16.4427   18.7421 H   0  0  0  0  0  0  0  0  0  0  0  0
    3.8408   17.4739   17.1882 H   0  0  0  0  0  0  0  0  0  0  0  0
    2.7133   17.1440   15.8294 H   0  0  0  0  0  0  0  0  0  0  0  0
   -0.1526   16.1699   17.9635 H   0  0  0  0  0  0  0  0  0  0  0  0
    0.9645   15.0380   17.1284 H   0  0  0  0  0  0  0  0  0  0  0  0
    0.3729   16.5061   16.2791 H   0  0  0  0  0  0  0  0  0  0  0  0
    4.4982   15.5023   15.9341 H   0  0  0  0  0  0  0  0  0  0  0  0
    2.8995   14.7493   16.2562 H   0  0  0  0  0  0  0  0  0  0  0  0
    4.0270   15.0792   17.6150 H   0  0  0  0  0  0  0  0  0  0  0  0
   -0.2219   18.4091   16.1425 H   0  0  0  0  0  0  0  0  0  0  0  0
   -0.4933   19.4623   14.1384 H   0  0  0  0  0  0  0  0  0  0  0  0
    1.4515   19.4486   12.6080 H   0  0  0  0  0  0  0  0  0  0  0  0
    1.2303   17.8883   13.4701 H   0  0  0  0  0  0  0  0  0  0  0  0
    2.5166   19.0283   13.9920 H   0  0  0  0  0  0  0  0  0  0  0  0
   -0.9448   21.3323   15.6577 H   0  0  0  0  0  0  0  0  0  0  0  0
   -0.0552   23.7182   14.3436 H   0  0  0  0  0  0  0  0  0  0  0  0
   -1.4708   24.8817   16.0119 H   0  0  0  0  0  0  0  0  0  0  0  0
   -1.6421   23.3458   16.9274 H   0  0  0  0  0  0  0  0  0  0  0  0
   -2.3191   23.4834   15.2693 H   0  0  0  0  0  0  0  0  0  0  0  0
    0.8250   22.1046   17.4144 H   0  0  0  0  0  0  0  0  0  0  0  0
    2.4586   24.6103   17.7981 H   0  0  0  0  0  0  0  0  0  0  0  0
    2.3201   24.2553   20.2610 H   0  0  0  0  0  0  0  0  0  0  0  0
    1.1668   22.9096   19.9684 H   0  0  0  0  0  0  0  0  0  0  0  0
    3.1196   21.7189   18.3851 H   0  0  0  0  0  0  0  0  0  0  0  0
    3.9274   23.0453   19.2880 H   0  0  0  0  0  0  0  0  0  0  0  0
    0.0184   24.9488   20.6565 H   0  0  0  0  0  0  0  0  0  0  0  0
   -0.4330   24.4662   18.9861 H   0  0  0  0  0  0  0  0  0  0  0  0
   -0.0583   27.8630   18.1799 H   0  0  0  0  0  0  0  0  0  0  0  0
   -1.1453   26.5366   18.4230 H   0  0  0  0  0  0  0  0  0  0  0  0
    3.7484   21.3130   16.2281 H   0  0  0  0  0  0  0  0  0  0  0  0
    6.3693   22.2706   15.6178 H   0  0  0  0  0  0  0  0  0  0  0  0
    5.9757   21.0513   13.4026 H   0  0  0  0  0  0  0  0  0  0  0  0
    4.3452   20.6374   14.0325 H   0  0  0  0  0  0  0  0  0  0  0  0
    5.4882   19.6274   16.0571 H   0  0  0  0  0  0  0  0  0  0  0  0
    6.1555   17.5711   14.8386 H   0  0  0  0  0  0  0  0  0  0  0  0
    6.2048   18.5013   13.3027 H   0  0  0  0  0  0  0  0  0  0  0  0
    4.6456   18.2736   14.1652 H   0  0  0  0  0  0  0  0  0  0  0  0
    7.6464   20.8142   15.8344 H   0  0  0  0  0  0  0  0  0  0  0  0
    7.9566   19.9566   14.2868 H   0  0  0  0  0  0  0  0  0  0  0  0
    7.8714   19.0321   15.8246 H   0  0  0  0  0  0  0  0  0  0  0  0
    3.1675   23.0565   14.2271 H   0  0  0  0  0  0  0  0  0  0  0  0
    4.2968   24.3991   11.9437 H   0  0  0  0  0  0  0  0  0  0  0  0
    1.5424   24.7332   13.1903 H   0  0  0  0  0  0  0  0  0  0  0  0
    2.0037   23.5053   11.9631 H   0  0  0  0  0  0  0  0  0  0  0  0
    2.3838   25.1919   10.2937 H   0  0  0  0  0  0  0  0  0  0  0  0
    2.2684   26.5116   11.5069 H   0  0  0  0  0  0  0  0  0  0  0  0
    0.1745   26.5169   10.4488 H   0  0  0  0  0  0  0  0  0  0  0  0
   -0.1004   25.6110   11.9753 H   0  0  0  0  0  0  0  0  0  0  0  0
    0.5970   23.9090    9.6761 H   0  0  0  0  0  0  0  0  0  0  0  0
   -3.2684   24.3720   10.8645 H   0  0  0  0  0  0  0  0  0  0  0  0
   -2.0307   25.5012   11.4774 H   0  0  0  0  0  0  0  0  0  0  0  0
   -0.9979   22.4889    8.9149 H   0  0  0  0  0  0  0  0  0  0  0  0
   -2.6897   22.6828    9.4467 H   0  0  0  0  0  0  0  0  0  0  0  0
    2.9256   25.5668   15.0611 H   0  0  0  0  0  0  0  0  0  0  0  0
    3.9055   28.2867   14.2063 H   0  0  0  0  0  0  0  0  0  0  0  0
    2.1528   29.2104   15.6653 H   0  0  0  0  0  0  0  0  0  0  0  0
    1.7239   27.5641   16.2419 H   0  0  0  0  0  0  0  0  0  0  0  0
    0.6121   27.0193   14.2985 H   0  0  0  0  0  0  0  0  0  0  0  0
    1.6433   28.0801   13.2797 H   0  0  0  0  0  0  0  0  0  0  0  0
   -0.6614   28.9439   13.4574 H   0  0  0  0  0  0  0  0  0  0  0  0
    0.5324   30.0683   14.1902 H   0  0  0  0  0  0  0  0  0  0  0  0
   -0.3811   28.4623   16.3015 H   0  0  0  0  0  0  0  0  0  0  0  0
   -3.0748   31.1810   14.9292 H   0  0  0  0  0  0  0  0  0  0  0  0
   -1.7276   30.6576   13.8833 H   0  0  0  0  0  0  0  0  0  0  0  0
   -2.0914   29.1174   17.6465 H   0  0  0  0  0  0  0  0  0  0  0  0
   -3.2750   30.3169   17.0607 H   0  0  0  0  0  0  0  0  0  0  0  0
    4.1689   26.8111   16.8486 H   0  0  0  0  0  0  0  0  0  0  0  0
    4.0888   28.6054   16.8199 H   0  0  0  0  0  0  0  0  0  0  0  0
    6.1083   25.9021   16.6120 H   0  0  0  0  0  0  0  0  0  0  0  0
    8.4808   27.3447   16.7679 H   0  0  0  0  0  0  0  0  0  0  0  0
    9.6330   25.2452   16.2297 H   0  0  0  0  0  0  0  0  0  0  0  0
    8.1087   24.5608   15.5703 H   0  0  0  0  0  0  0  0  0  0  0  0
    7.0935   24.8108   17.8338 H   0  0  0  0  0  0  0  0  0  0  0  0
    8.7037   25.3178   18.4479 H   0  0  0  0  0  0  0  0  0  0  0  0
    7.9473   21.5862   19.6650 H   0  0  0  0  0  0  0  0  0  0  0  0
    6.6941   22.7970   19.2292 H   0  0  0  0  0  0  0  0  0  0  0  0
    8.1293   23.2951   20.1876 H   0  0  0  0  0  0  0  0  0  0  0  0
    7.0639   25.8389   13.8667 H   0  0  0  0  0  0  0  0  0  0  0  0
    9.3425   26.3888   12.2293 H   0  0  0  0  0  0  0  0  0  0  0  0
    7.8859   25.6599   10.3556 H   0  0  0  0  0  0  0  0  0  0  0  0
    6.4755   25.6772   11.4678 H   0  0  0  0  0  0  0  0  0  0  0  0
    7.8309   24.5336   11.7538 H   0  0  0  0  0  0  0  0  0  0  0  0
    6.1354   27.9877   12.3998 H   0  0  0  0  0  0  0  0  0  0  0  0
    6.8304   29.8157   10.2297 H   0  0  0  0  0  0  0  0  0  0  0  0
    4.6944   31.0082   11.0247 H   0  0  0  0  0  0  0  0  0  0  0  0
    4.5042   29.6452   12.1790 H   0  0  0  0  0  0  0  0  0  0  0  0
    5.4743   32.3824   14.6438 H   0  0  0  0  0  0  0  0  0  0  0  0
    6.2682   31.3104   15.8468 H   0  0  0  0  0  0  0  0  0  0  0  0
    7.6485   32.6874   13.4841 H   0  0  0  0  0  0  0  0  0  0  0  0
    6.9593   29.7542   13.7693 H   0  0  0  0  0  0  0  0  0  0  0  0
    8.7072   30.5452   15.3780 H   0  0  0  0  0  0  0  0  0  0  0  0
    8.9053   32.2994   15.7099 H   0  0  0  0  0  0  0  0  0  0  0  0
    9.9617   29.5690   13.7993 H   0  0  0  0  0  0  0  0  0  0  0  0
   12.4714   30.8443   13.4019 H   0  0  0  0  0  0  0  0  0  0  0  0
   11.3798   28.4109   11.9438 H   0  0  0  0  0  0  0  0  0  0  0  0
   12.1735   28.3994   13.5552 H   0  0  0  0  0  0  0  0  0  0  0  0
   13.4645   29.2341   10.9254 H   0  0  0  0  0  0  0  0  0  0  0  0
   15.5723   29.2281   12.2073 H   0  0  0  0  0  0  0  0  0  0  0  0
   14.6516   28.8987   13.7140 H   0  0  0  0  0  0  0  0  0  0  0  0
   14.4097   30.4457   12.8337 H   0  0  0  0  0  0  0  0  0  0  0  0
   12.9725   26.8214   11.0802 H   0  0  0  0  0  0  0  0  0  0  0  0
   13.8572   26.7489   12.6418 H   0  0  0  0  0  0  0  0  0  0  0  0
   14.7363   27.1576   11.1296 H   0  0  0  0  0  0  0  0  0  0  0  0
    9.8286   30.2291   11.0307 H   0  0  0  0  0  0  0  0  0  0  0  0
   11.3681   31.2008    8.8161 H   0  0  0  0  0  0  0  0  0  0  0  0
    8.3510   31.3653    8.8806 H   0  0  0  0  0  0  0  0  0  0  0  0
    9.1885   29.7781    8.8045 H   0  0  0  0  0  0  0  0  0  0  0  0
    8.8361   32.1152    5.5008 H   0  0  0  0  0  0  0  0  0  0  0  0
    8.1075   32.5206    7.0189 H   0  0  0  0  0  0  0  0  0  0  0  0
    7.7545   36.2199    9.9065 H   0  0  0  0  0  0  0  0  0  0  0  0
    7.1814   34.7433   10.7538 H   0  0  0  0  0  0  0  0  0  0  0  0
    7.5997   34.6720    9.0084 H   0  0  0  0  0  0  0  0  0  0  0  0
    9.9655   35.1717    9.5576 H   0  0  0  0  0  0  0  0  0  0  0  0
    9.0487   32.7396   11.1169 H   0  0  0  0  0  0  0  0  0  0  0  0
    9.4032   34.6778   12.4660 H   0  0  0  0  0  0  0  0  0  0  0  0
    9.0571   36.3101   11.8007 H   0  0  0  0  0  0  0  0  0  0  0  0
   11.5477   33.9712   12.6242 H   0  0  0  0  0  0  0  0  0  0  0  0
   13.4208   36.0449   13.0998 H   0  0  0  0  0  0  0  0  0  0  0  0
   15.1216   34.2248   13.2540 H   0  0  0  0  0  0  0  0  0  0  0  0
   13.8849   33.0694   12.6521 H   0  0  0  0  0  0  0  0  0  0  0  0
   12.5102   33.4704   14.6113 H   0  0  0  0  0  0  0  0  0  0  0  0
   13.6687   34.7104   15.2003 H   0  0  0  0  0  0  0  0  0  0  0  0
   14.1729   31.1682   16.6559 H   0  0  0  0  0  0  0  0  0  0  0  0
   12.7138   32.0305   16.2989 H   0  0  0  0  0  0  0  0  0  0  0  0
   13.0166   33.8966   10.2729 H   0  0  0  0  0  0  0  0  0  0  0  0
   15.3442   35.2578    9.0636 H   0  0  0  0  0  0  0  0  0  0  0  0
   15.0582   33.4081    7.2677 H   0  0  0  0  0  0  0  0  0  0  0  0
   13.9761   32.6310    8.4726 H   0  0  0  0  0  0  0  0  0  0  0  0
   17.4375   33.7190    7.7650 H   0  0  0  0  0  0  0  0  0  0  0  0
   14.8790   31.7595   10.5613 H   0  0  0  0  0  0  0  0  0  0  0  0
   19.4042   32.8728    8.9577 H   0  0  0  0  0  0  0  0  0  0  0  0
   16.8559   30.9128   11.7715 H   0  0  0  0  0  0  0  0  0  0  0  0
   19.3515   30.4371   11.0986 H   0  0  0  0  0  0  0  0  0  0  0  0
   12.4022   36.2246    9.2025 H   0  0  0  0  0  0  0  0  0  0  0  0
   10.9709   37.4345    7.8920 H   0  0  0  0  0  0  0  0  0  0  0  0
   12.0400   38.9768    6.2852 H   0  0  0  0  0  0  0  0  0  0  0  0
   13.5639   38.0331    6.4032 H   0  0  0  0  0  0  0  0  0  0  0  0
   13.7941   38.5839    8.7388 H   0  0  0  0  0  0  0  0  0  0  0  0
   12.1802   39.3723    8.7574 H   0  0  0  0  0  0  0  0  0  0  0  0
   10.3755   34.6727    5.5279 H   0  0  0  0  0  0  0  0  0  0  0  0
   10.6353   34.8473    7.2314 H   0  0  0  0  0  0  0  0  0  0  0  0
  1148  1  0  0  0  0
  1149  1  0  0  0  0
  1150  1  0  0  0  0
  2  1  1  0  0  0  0
  2  5  1  0  0  0  0
  2151  1  1  0  0  0
  3  2  1  0  0  0  0
  3  4  2  0  0  0  0
  5152  1  0  0  0  0
  5153  1  0  0  0  0
  5154  1  0  0  0  0
  6  3  1  0  0  0  0
  6155  1  0  0  0  0
  7  6  1  0  0  0  0
  7 10  1  0  0  0  0
  7156  1  1  0  0  0
  8  7  1  0  0  0  0
  8  9  2  0  0  0  0
 10 11  1  0  0  0  0
 10 12  1  0  0  0  0
 10157  1  1  0  0  0
 11 13  1  0  0  0  0
 11158  1  0  0  0  0
 11159  1  0  0  0  0
 12160  1  0  0  0  0
 12161  1  0  0  0  0
 12162  1  0  0  0  0
 13163  1  0  0  0  0
 13164  1  0  0  0  0
 13165  1  0  0  0  0
 14  8  1  0  0  0  0
 14166  1  0  0  0  0
 15 14  1  0  0  0  0
 15 16  1  0  0  0  0
 15167  1  6  0  0  0
 16168  1  0  0  0  0
 16169  1  0  0  0  0
 16170  1  0  0  0  0
 17 15  1  0  0  0  0
 17 18  2  0  0  0  0
 19 17  1  0  0  0  0
 19171  1  0  0  0  0
 20 19  1  0  0  0  0
 20 23  1  0  0  0  0
 20172  1  6  0  0  0
 21 20  1  0  0  0  0
 21 22  2  0  0  0  0
 23173  1  0  0  0  0
 23174  1  0  0  0  0
 23175  1  0  0  0  0
 24 21  1  0  0  0  0
 24176  1  0  0  0  0
 25 24  1  0  0  0  0
 25 26  1  0  0  0  0
 25177  1  6  0  0  0
 26 30  1  0  0  0  0
 26178  1  0  0  0  0
 26179  1  0  0  0  0
 27 25  1  0  0  0  0
 27180  1  0  0  0  0
 27181  1  0  0  0  0
 28 27  1  0  0  0  0
 28 29  2  0  0  0  0
 30 31  1  0  0  0  0
 30182  1  0  0  0  0
 30183  1  0  0  0  0
 31 32  1  0  0  0  0
 31 33  2  0  0  0  0
 32184  1  0  0  0  0
 32185  1  0  0  0  0
 34 28  1  0  0  0  0
 34186  1  0  0  0  0
 35 34  1  0  0  0  0
 35 38  1  0  0  0  0
 35187  1  1  0  0  0
 36 35  1  0  0  0  0
 36 37  2  0  0  0  0
 38 39  1  0  0  0  0
 38188  1  0  0  0  0
 38189  1  0  0  0  0
 39 40  1  0  0  0  0
 39 41  1  0  0  0  0
 39190  1  0  0  0  0
 40191  1  0  0  0  0
 40192  1  0  0  0  0
 40193  1  0  0  0  0
 41194  1  0  0  0  0
 41195  1  0  0  0  0
 41196  1  0  0  0  0
 42 36  1  0  0  0  0
 42197  1  0  0  0  0
 43 42  1  0  0  0  0
 43 46  1  0  0  0  0
 43198  1  6  0  0  0
 44 43  1  0  0  0  0
 44 45  2  0  0  0  0
 46 47  1  0  0  0  0
 46199  1  0  0  0  0
 46200  1  0  0  0  0
 47 48  1  0  0  0  0
 47201  1  0  0  0  0
 47202  1  0  0  0  0
 48 49  1  0  0  0  0
 48203  1  0  0  0  0
 48204  1  0  0  0  0
 49 50  1  0  0  0  0
 49205  1  0  0  0  0
 50 51  1  0  0  0  0
 50 52  1  0  0  0  0
 51206  1  0  0  0  0
 51207  1  0  0  0  0
 52208  1  0  0  0  0
 52209  1  0  0  0  0
 53 44  1  0  0  0  0
 53210  1  0  0  0  0
 54 53  1  0  0  0  0
 54 55  1  0  0  0  0
 54211  1  6  0  0  0
 55 56  1  0  0  0  0
 55212  1  0  0  0  0
 55213  1  0  0  0  0
 56 57  1  0  0  0  0
 56214  1  0  0  0  0
 56215  1  0  0  0  0
 57 58  1  0  0  0  0
 57216  1  0  0  0  0
 57217  1  0  0  0  0
 58 59  1  0  0  0  0
 58218  1  0  0  0  0
 59 60  1  0  0  0  0
 59 61  1  0  0  0  0
 60219  1  0  0  0  0
 60220  1  0  0  0  0
 61221  1  0  0  0  0
 61222  1  0  0  0  0
 62 63  2  0  0  0  0
 62 64  1  0  0  0  0
 64 54  1  0  0  0  0
 64223  1  0  0  0  0
 64224  1  0  0  0  0
 65 62  1  0  0  0  0
 65225  1  0  0  0  0
 66 65  1  0  0  0  0
 66 69  1  0  0  0  0
 66226  1  1  0  0  0
 67 66  1  0  0  0  0
 67 68  2  0  0  0  0
 69 70  1  0  0  0  0
 69227  1  0  0  0  0
 69228  1  0  0  0  0
 70 71  1  0  0  0  0
 70229  1  0  0  0  0
 70230  1  0  0  0  0
 71 72  1  0  0  0  0
 72231  1  0  0  0  0
 72232  1  0  0  0  0
 72233  1  0  0  0  0
 73 67  1  0  0  0  0
 73234  1  0  0  0  0
 74 73  1  0  0  0  0
 74 77  1  0  0  0  0
 74235  1  6  0  0  0
 75 74  1  0  0  0  0
 75 76  2  0  0  0  0
 77236  1  0  0  0  0
 77237  1  0  0  0  0
 77238  1  0  0  0  0
 78 75  1  0  0  0  0
 78239  1  0  0  0  0
 79 78  1  0  0  0  0
 79 82  1  0  0  0  0
 79240  1  6  0  0  0
 80 79  1  0  0  0  0
 80 81  2  0  0  0  0
 82 83  1  0  0  0  0
 82241  1  0  0  0  0
 82242  1  0  0  0  0
 83 84  1  0  0  0  0
 83 85  2  0  0  0  0
 87 86  1  0  0  0  0
 87 88  2  0  0  0  0
 89 87  1  0  0  0  0
 89243  1  0  0  0  0
 89244  1  0  0  0  0
 90 89  1  0  0  0  0
 90 91  1  0  0  0  0
 90245  1  6  0  0  0
 91 80  1  0  0  0  0
 91246  1  0  0  0  0
 92 90  1  0  0  0  0
 92247  1  0  0  0  0
 92248  1  0  0  0  0
 93 92  1  0  0  0  0
 93 94  2  0  0  0  0
 95 93  1  0  0  0  0
 95249  1  0  0  0  0
 96 95  1  0  0  0  0
 96 99  1  0  0  0  0
 96250  1  1  0  0  0
 97 96  1  0  0  0  0
 97 98  2  0  0  0  0
 99100  1  0  0  0  0
 99251  1  0  0  0  0
 99252  1  0  0  0  0
100101  1  0  0  0  0
100102  1  0  0  0  0
100253  1  0  0  0  0
101254  1  0  0  0  0
101255  1  0  0  0  0
101256  1  0  0  0  0
102257  1  0  0  0  0
102258  1  0  0  0  0
102259  1  0  0  0  0
103 97  1  0  0  0  0
103260  1  0  0  0  0
104103  1  0  0  0  0
104107  1  0  0  0  0
104261  1  6  0  0  0
105104  1  0  0  0  0
105106  2  0  0  0  0
107108  1  0  0  0  0
107262  1  0  0  0  0
107263  1  0  0  0  0
108109  2  0  0  0  0
108110  1  0  0  0  0
110264  1  0  0  0  0
110265  1  0  0  0  0
111266  1  0  0  0  0
111267  1  0  0  0  0
111268  1  0  0  0  0
112111  1  0  0  0  0
112113  1  0  0  0  0
112114  1  0  0  0  0
112269  1  6  0  0  0
113105  1  0  0  0  0
113270  1  0  0  0  0
114115  1  0  0  0  0
114271  1  0  0  0  0
114272  1  0  0  0  0
115116  2  0  0  0  0
115117  1  0  0  0  0
117118  1  0  0  0  0
117273  1  0  0  0  0
118119  1  0  0  0  0
118121  1  0  0  0  0
118274  1  1  0  0  0
119120  2  0  0  0  0
119126  1  0  0  0  0
121122  1  0  0  0  0
121275  1  0  0  0  0
121276  1  0  0  0  0
122123  1  0  0  0  0
122277  1  0  0  0  0
122278  1  0  0  0  0
123124  2  0  0  0  0
123125  1  0  0  0  0
125279  1  0  0  0  0
125280  1  0  0  0  0
126127  1  0  0  0  0
126281  1  0  0  0  0
127128  1  0  0  0  0
127130  1  0  0  0  0
127282  1  1  0  0  0
128129  2  0  0  0  0
128138  1  0  0  0  0
130131  1  0  0  0  0
130283  1  0  0  0  0
130284  1  0  0  0  0
131132  2  0  0  0  0
131133  1  0  0  0  0
132134  1  0  0  0  0
132285  1  0  0  0  0
133135  2  0  0  0  0
133286  1  0  0  0  0
134136  2  0  0  0  0
134287  1  0  0  0  0
135136  1  0  0  0  0
135288  1  0  0  0  0
136137  1  0  0  0  0
137289  1  0  0  0  0
138139  1  0  0  0  0
138290  1  0  0  0  0
139140  1  0  0  0  0
139142  1  0  0  0  0
139291  1  1  0  0  0
140141  2  0  0  0  0
140147  1  0  0  0  0
142143  1  0  0  0  0
142292  1  0  0  0  0
142293  1  0  0  0  0
143144  1  0  0  0  0
143294  1  0  0  0  0
143295  1  0  0  0  0
144145  1  0  0  0  0
144146  2  0  0  0  0
147296  1  0  0  0  0
147297  1  0  0  0  0
M  CHG  4   1   1  84  -1  86  -1 145  -1
M  END
