4brx_ligand
 OpenBabel08222323353D

 57 60  0  0  0  0  0  0  0  0999 V2000
  -10.4060    3.0680   -1.1270 C   0  0  0  0  0  0  0  0  0  0  0  0
   -9.4360    2.0920   -0.4360 C   0  0  0  0  0  0  0  0  0  0  0  0
   -8.0290    2.3360   -0.8170 O   0  0  0  0  0  0  0  0  0  0  0  0
   -7.7180    2.2780   -2.1980 C   0  0  0  0  0  0  0  0  0  0  0  0
   -8.5580    3.3080   -2.9820 C   0  0  0  0  0  0  0  0  0  0  0  0
   -9.9410    3.5130   -2.4760 N   0  0  0  0  0  0  0  0  0  0  0  0
  -10.8530    4.3310   -3.2650 C   0  0  0  0  0  0  0  0  0  0  0  0
  -12.1740    4.5700   -2.8470 C   0  0  0  0  0  0  0  0  0  0  0  0
  -13.0060    5.3980   -3.6230 C   0  0  0  0  0  0  0  0  0  0  0  0
  -14.2890    5.6360   -3.2880 O   0  0  0  0  0  0  0  0  0  0  0  0
  -14.5970    4.9820   -1.9540 C   0  0  0  0  0  0  0  0  0  0  0  0
  -10.3880    4.9470   -4.4340 C   0  0  0  0  0  0  0  0  0  0  0  0
  -11.2420    5.7570   -5.1890 C   0  0  0  0  0  0  0  0  0  0  0  0
  -12.5480    5.9920   -4.7920 C   0  0  0  0  0  0  0  0  0  0  0  0
  -13.4230    6.7610   -5.4880 N   0  0  0  0  0  0  0  0  0  0  0  0
  -13.1570    7.8440   -6.2600 C   0  0  0  0  0  0  0  0  0  0  0  0
  -11.9210    8.3250   -6.4160 N   0  0  0  0  0  0  0  0  0  0  0  0
  -14.1820    8.4690   -6.8980 N   0  0  0  0  0  0  0  0  0  0  0  0
  -13.9550    9.5430   -7.6620 C   0  0  0  0  0  0  0  0  0  0  0  0
  -11.6920    9.4010   -7.2020 C   0  0  0  0  0  0  0  0  0  0  0  0
  -10.4600    9.8600   -7.4290 N   0  0  0  0  0  0  0  0  0  0  0  0
   -9.3200    9.3200   -6.9750 C   0  0  0  0  0  0  0  0  0  0  0  0
   -9.2420    9.0360   -5.5990 C   0  0  0  0  0  0  0  0  0  0  0  0
   -8.0780    8.5050   -5.0780 C   0  0  0  0  0  0  0  0  0  0  0  0
   -6.9850    8.2550   -5.9300 C   0  0  0  0  0  0  0  0  0  0  0  0
   -7.0470    8.5680   -7.2950 C   0  0  0  0  0  0  0  0  0  0  0  0
   -8.2180    9.1210   -7.8260 C   0  0  0  0  0  0  0  0  0  0  0  0
   -8.2440    9.4030   -9.3440 C   0  0  0  0  0  0  0  0  0  0  0  0
   -9.0550   10.2010   -9.8520 O   0  0  0  0  0  0  0  0  0  0  0  0
   -7.4290    8.6130  -10.0680 N   0  0  0  0  0  0  0  0  0  0  0  0
  -12.7040   10.0120   -7.8160 N   0  0  0  0  0  0  0  0  0  0  0  0
   -7.3660    8.8450  -11.5430 C   0  0  0  0  0  0  0  0  0  0  0  0
  -10.5213    3.9558   -0.4878 H   0  0  0  0  0  0  0  0  0  0  0  0
  -11.3798    2.5693   -1.2411 H   0  0  0  0  0  0  0  0  0  0  0  0
   -9.7062    1.0642   -0.7200 H   0  0  0  0  0  0  0  0  0  0  0  0
   -9.5328    2.2089    0.6535 H   0  0  0  0  0  0  0  0  0  0  0  0
   -7.9364    1.2686   -2.5767 H   0  0  0  0  0  0  0  0  0  0  0  0
   -6.6497    2.4992   -2.3386 H   0  0  0  0  0  0  0  0  0  0  0  0
   -8.6244    2.9689   -4.0263 H   0  0  0  0  0  0  0  0  0  0  0  0
   -8.0345    4.2747   -2.9429 H   0  0  0  0  0  0  0  0  0  0  0  0
  -12.5484    4.1202   -1.9346 H   0  0  0  0  0  0  0  0  0  0  0  0
  -15.6449    5.1778   -1.6829 H   0  0  0  0  0  0  0  0  0  0  0  0
  -13.9344    5.3973   -1.1804 H   0  0  0  0  0  0  0  0  0  0  0  0
  -14.4350    3.8968   -2.0316 H   0  0  0  0  0  0  0  0  0  0  0  0
   -9.3635    4.7954   -4.7542 H   0  0  0  0  0  0  0  0  0  0  0  0
  -10.8747    6.2098   -6.1028 H   0  0  0  0  0  0  0  0  0  0  0  0
  -14.4139    6.4879   -5.4217 H   0  0  0  0  0  0  0  0  0  0  0  0
  -14.7821   10.0371   -8.1588 H   0  0  0  0  0  0  0  0  0  0  0  0
  -10.3770   10.7085   -8.0070 H   0  0  0  0  0  0  0  0  0  0  0  0
  -10.0895    9.2325   -4.9523 H   0  0  0  0  0  0  0  0  0  0  0  0
   -8.0064    8.2821   -4.0196 H   0  0  0  0  0  0  0  0  0  0  0  0
   -6.0819    7.8138   -5.5241 H   0  0  0  0  0  0  0  0  0  0  0  0
   -6.1926    8.3827   -7.9359 H   0  0  0  0  0  0  0  0  0  0  0  0
   -6.8844    7.8955   -9.6337 H   0  0  0  0  0  0  0  0  0  0  0  0
   -6.6643    8.1298  -11.9970 H   0  0  0  0  0  0  0  0  0  0  0  0
   -7.0213    9.8711  -11.7384 H   0  0  0  0  0  0  0  0  0  0  0  0
   -8.3660    8.7047  -11.9793 H   0  0  0  0  0  0  0  0  0  0  0  0
  1  2  1  0  0  0  0
  1  6  1  0  0  0  0
  1 33  1  0  0  0  0
  1 34  1  0  0  0  0
  2  3  1  0  0  0  0
  2 35  1  0  0  0  0
  2 36  1  0  0  0  0
  3  4  1  0  0  0  0
  4  5  1  0  0  0  0
  4 37  1  0  0  0  0
  4 38  1  0  0  0  0
  5  6  1  0  0  0  0
  5 39  1  0  0  0  0
  5 40  1  0  0  0  0
  6  7  1  0  0  0  0
  7  8  2  0  0  0  0
  7 12  1  0  0  0  0
  8  9  1  0  0  0  0
  8 41  1  0  0  0  0
  9 10  1  0  0  0  0
  9 14  2  0  0  0  0
 10 11  1  0  0  0  0
 11 42  1  0  0  0  0
 11 43  1  0  0  0  0
 11 44  1  0  0  0  0
 12 13  2  0  0  0  0
 12 45  1  0  0  0  0
 13 14  1  0  0  0  0
 13 46  1  0  0  0  0
 14 15  1  0  0  0  0
 15 16  1  0  0  0  0
 15 47  1  0  0  0  0
 16 17  2  0  0  0  0
 16 18  1  0  0  0  0
 17 20  1  0  0  0  0
 18 19  2  0  0  0  0
 19 31  1  0  0  0  0
 19 48  1  0  0  0  0
 20 21  1  0  0  0  0
 20 31  2  0  0  0  0
 21 22  1  0  0  0  0
 21 49  1  0  0  0  0
 22 23  2  0  0  0  0
 22 27  1  0  0  0  0
 23 24  1  0  0  0  0
 23 50  1  0  0  0  0
 24 25  2  0  0  0  0
 24 51  1  0  0  0  0
 25 26  1  0  0  0  0
 25 52  1  0  0  0  0
 26 27  2  0  0  0  0
 26 53  1  0  0  0  0
 27 28  1  0  0  0  0
 28 29  2  0  0  0  0
 28 30  1  0  0  0  0
 30 32  1  0  0  0  0
 30 54  1  0  0  0  0
 32 55  1  0  0  0  0
 32 56  1  0  0  0  0
 32 57  1  0  0  0  0
M  END
