4bsq_ligand
 OpenBabel08222323353D

 53 55  0  0  1  0  0  0  0  0999 V2000
   -3.6760   -7.6530   24.4880 O   0  0  0  0  0  0  0  0  0  0  0  0
   -3.7860   -6.4100   25.2560 S   0  0  0  0  0  0  0  0  0  0  0  0
   -2.9840   -5.3130   24.6950 O   0  0  0  0  0  0  0  0  0  0  0  0
   -5.5140   -6.0230   25.5830 C   0  0  0  0  0  0  0  0  0  0  0  0
   -5.9490   -4.7060   25.8230 C   0  0  0  0  0  0  0  0  0  0  0  0
   -7.3100   -4.4220   26.0540 C   0  0  0  0  0  0  0  0  0  0  0  0
   -8.2690   -5.4490   26.0560 C   0  0  0  0  0  0  0  0  0  0  0  0
   -7.8610   -6.7700   25.8120 C   0  0  0  0  0  0  0  0  0  0  0  0
   -6.4950   -7.0460   25.5820 C   0  0  0  0  0  0  0  0  0  0  0  0
   -3.0560   -6.7350   26.8390 C   0  0  2  0  0  0  0  0  0  0  0  0
   -1.6340   -7.2700   26.6260 C   0  0  0  0  0  0  0  0  0  0  0  0
   -3.8790   -7.7820   27.6100 C   0  0  0  0  0  0  0  0  0  0  0  0
   -2.7930   -8.6420   28.2630 C   0  0  2  0  0  0  0  0  0  0  0  0
   -1.6860   -8.6940   27.1890 C   0  0  2  0  0  0  0  0  0  0  0  0
   -0.3800   -9.2320   27.7110 C   0  0  0  0  0  0  0  0  0  0  0  0
    0.2060  -10.2520   26.9980 N   0  0  0  0  0  0  0  0  0  0  0  0
    1.4680  -10.9070   27.4070 C   0  0  0  0  0  0  0  0  0  0  0  0
    2.6340  -10.1700   26.8060 C   0  0  0  0  0  0  0  0  0  0  0  0
    3.8460  -10.5960   26.7650 N   0  0  0  0  0  0  0  0  0  0  0  0
    0.1570   -8.8380   28.7480 O   0  0  0  0  0  0  0  0  0  0  0  0
   -3.2770   -9.9810   28.7950 C   0  0  0  0  0  0  0  0  0  0  0  0
   -3.0100  -11.0280   28.2070 O   0  0  0  0  0  0  0  0  0  0  0  0
   -4.0240  -10.0420   29.9800 N   0  0  0  0  0  0  0  0  0  0  0  0
   -4.2410   -8.8620   30.8450 C   0  0  0  0  0  0  0  0  0  0  0  0
   -4.0800   -9.2830   32.3100 C   0  0  0  0  0  0  0  0  0  0  0  0
   -4.9280  -10.4070   32.5860 O   0  0  0  0  0  0  0  0  0  0  0  0
   -4.6570  -11.5690   31.7910 C   0  0  0  0  0  0  0  0  0  0  0  0
   -4.8400  -11.2410   30.3020 C   0  0  0  0  0  0  0  0  0  0  0  0
   -5.2263   -3.8981   25.8303 H   0  0  0  0  0  0  0  0  0  0  0  0
   -7.6207   -3.3989   26.2323 H   0  0  0  0  0  0  0  0  0  0  0  0
   -9.3126   -5.2238   26.2439 H   0  0  0  0  0  0  0  0  0  0  0  0
   -8.5894   -7.5727   25.8002 H   0  0  0  0  0  0  0  0  0  0  0  0
   -6.1881   -8.0695   25.3995 H   0  0  0  0  0  0  0  0  0  0  0  0
   -3.0173   -5.8026   27.4213 H   0  0  0  0  0  0  0  0  0  0  0  0
   -0.9005   -6.6597   27.1732 H   0  0  0  0  0  0  0  0  0  0  0  0
   -1.3766   -7.2815   25.5566 H   0  0  0  0  0  0  0  0  0  0  0  0
   -4.5020   -8.3790   26.9277 H   0  0  0  0  0  0  0  0  0  0  0  0
   -4.5181   -7.3057   28.3680 H   0  0  0  0  0  0  0  0  0  0  0  0
   -2.3974   -8.0981   29.1334 H   0  0  0  0  0  0  0  0  0  0  0  0
   -2.0058   -9.3719   26.3839 H   0  0  0  0  0  0  0  0  0  0  0  0
   -0.2433  -10.5664   26.1617 H   0  0  0  0  0  0  0  0  0  0  0  0
    1.4715  -11.9488   27.0539 H   0  0  0  0  0  0  0  0  0  0  0  0
    1.5505  -10.8913   28.5038 H   0  0  0  0  0  0  0  0  0  0  0  0
    2.4341   -9.1929   26.3687 H   0  0  0  0  0  0  0  0  0  0  0  0
    4.5647  -10.0310   26.3403 H   0  0  0  0  0  0  0  0  0  0  0  0
   -5.2551   -8.4675   30.6837 H   0  0  0  0  0  0  0  0  0  0  0  0
   -3.5020   -8.0846   30.6011 H   0  0  0  0  0  0  0  0  0  0  0  0
   -4.3600   -8.4443   32.9644 H   0  0  0  0  0  0  0  0  0  0  0  0
   -3.0323   -9.5606   32.4977 H   0  0  0  0  0  0  0  0  0  0  0  0
   -5.3507  -12.3742   32.0745 H   0  0  0  0  0  0  0  0  0  0  0  0
   -3.6221  -11.8976   31.9671 H   0  0  0  0  0  0  0  0  0  0  0  0
   -4.5060  -12.0923   29.6907 H   0  0  0  0  0  0  0  0  0  0  0  0
   -5.9005  -11.0347   30.0951 H   0  0  0  0  0  0  0  0  0  0  0  0
  1  2  2  0  0  0  0
  2  3  2  0  0  0  0
  2  4  1  0  0  0  0
  2 10  1  0  0  0  0
  4  5  2  0  0  0  0
  4  9  1  0  0  0  0
  5  6  1  0  0  0  0
  5 29  1  0  0  0  0
  6  7  2  0  0  0  0
  6 30  1  0  0  0  0
  7  8  1  0  0  0  0
  7 31  1  0  0  0  0
  8  9  2  0  0  0  0
  8 32  1  0  0  0  0
  9 33  1  0  0  0  0
 10 11  1  0  0  0  0
 10 12  1  0  0  0  0
 10 34  1  1  0  0  0
 11 14  1  0  0  0  0
 11 35  1  0  0  0  0
 11 36  1  0  0  0  0
 12 13  1  0  0  0  0
 12 37  1  0  0  0  0
 12 38  1  0  0  0  0
 13 14  1  0  0  0  0
 13 21  1  0  0  0  0
 13 39  1  1  0  0  0
 14 15  1  0  0  0  0
 14 40  1  6  0  0  0
 15 16  1  0  0  0  0
 15 20  2  0  0  0  0
 16 17  1  0  0  0  0
 16 41  1  0  0  0  0
 17 18  1  0  0  0  0
 17 42  1  0  0  0  0
 17 43  1  0  0  0  0
 18 19  2  0  0  0  0
 18 44  1  0  0  0  0
 19 45  1  0  0  0  0
 21 22  2  0  0  0  0
 21 23  1  0  0  0  0
 23 24  1  0  0  0  0
 23 28  1  0  0  0  0
 24 25  1  0  0  0  0
 24 46  1  0  0  0  0
 24 47  1  0  0  0  0
 25 26  1  0  0  0  0
 25 48  1  0  0  0  0
 25 49  1  0  0  0  0
 26 27  1  0  0  0  0
 27 28  1  0  0  0  0
 27 50  1  0  0  0  0
 27 51  1  0  0  0  0
 28 52  1  0  0  0  0
 28 53  1  0  0  0  0
M  END
