4bvb_ligand
 OpenBabel08222323353D

 30 32  0  0  1  0  0  0  0  0999 V2000
    5.3730  -15.6230    0.9110 N   0  0  0  0  0  0  0  0  0  0  0  0
    6.9950  -16.2250    2.3200 O   0  0  0  0  0  0  0  0  0  0  0  0
    6.4230  -15.3480    1.6730 C   0  0  0  0  0  0  0  0  0  0  0  0
    9.3650  -13.9460    2.3000 N   0  0  0  0  0  0  0  0  0  0  0  0
    6.6770  -12.5900    4.4030 C   0  0  0  0  0  0  0  0  0  0  0  0
   11.3910  -13.5720    3.6200 C   0  0  0  0  0  0  0  0  0  0  0  0
   11.9350  -13.0100    4.7490 C   0  0  0  0  0  0  0  0  0  0  0  0
   10.0730  -13.4840    3.3650 C   0  0  0  0  0  0  0  0  0  0  0  0
   11.8330  -11.6950    7.1870 Cl  0  0  0  0  0  0  0  0  0  0  0  0
    9.2160  -12.9580    4.2830 C   0  0  0  0  0  0  0  0  0  0  0  0
    9.6980  -12.3980    5.4180 C   0  0  0  0  0  0  0  0  0  0  0  0
    7.9540  -13.0920    3.8180 C   0  0  0  0  0  0  0  0  0  0  0  0
    8.0450  -13.6990    2.5690 C   0  0  0  0  0  0  0  0  0  0  0  0
   11.0860  -12.4180    5.6910 C   0  0  0  0  0  0  0  0  0  0  0  0
    5.4040  -13.0460    3.5050 C   0  0  0  0  0  0  0  0  0  0  0  0
    6.8870  -13.9510    1.7020 C   0  0  2  0  0  0  0  0  0  0  0  0
    5.7450  -12.8840    2.0340 C   0  0  0  0  0  0  0  0  0  0  0  0
    4.9251  -14.8931    0.3946 H   0  0  0  0  0  0  0  0  0  0  0  0
    5.0292  -16.5602    0.8528 H   0  0  0  0  0  0  0  0  0  0  0  0
    9.7471  -14.3945    1.4552 H   0  0  0  0  0  0  0  0  0  0  0  0
    6.7098  -11.4914    4.4480 H   0  0  0  0  0  0  0  0  0  0  0  0
    6.5634  -12.9954    5.4192 H   0  0  0  0  0  0  0  0  0  0  0  0
   12.0347  -14.0955    2.9224 H   0  0  0  0  0  0  0  0  0  0  0  0
   13.0071  -13.0248    4.9082 H   0  0  0  0  0  0  0  0  0  0  0  0
    9.0168  -11.9321    6.1208 H   0  0  0  0  0  0  0  0  0  0  0  0
    4.5356  -12.4177    3.7524 H   0  0  0  0  0  0  0  0  0  0  0  0
    5.1657  -14.0995    3.7132 H   0  0  0  0  0  0  0  0  0  0  0  0
    7.2203  -13.7374    0.6757 H   0  0  0  0  0  0  0  0  0  0  0  0
    6.1116  -11.8651    1.8407 H   0  0  0  0  0  0  0  0  0  0  0  0
    4.8557  -13.0772    1.4160 H   0  0  0  0  0  0  0  0  0  0  0  0
  1 18  1  0  0  0  0
  1 19  1  0  0  0  0
  3  1  1  0  0  0  0
  3  2  2  0  0  0  0
  4  8  1  0  0  0  0
  4 20  1  0  0  0  0
  5 15  1  0  0  0  0
  5 21  1  0  0  0  0
  5 22  1  0  0  0  0
  6  7  2  0  0  0  0
  6 23  1  0  0  0  0
  7 24  1  0  0  0  0
  8  6  1  0  0  0  0
 10  8  2  0  0  0  0
 10 11  1  0  0  0  0
 11 14  2  0  0  0  0
 11 25  1  0  0  0  0
 12  5  1  0  0  0  0
 12 10  1  0  0  0  0
 13  4  1  0  0  0  0
 13 12  2  0  0  0  0
 13 16  1  0  0  0  0
 14  7  1  0  0  0  0
 14  9  1  0  0  0  0
 15 17  1  0  0  0  0
 15 26  1  0  0  0  0
 15 27  1  0  0  0  0
 16  3  1  0  0  0  0
 16 17  1  0  0  0  0
 16 28  1  6  0  0  0
 17 29  1  0  0  0  0
 17 30  1  0  0  0  0
M  END
