4bw2_ligand
 OpenBabel08222323353D

 54 57  0  0  0  0  0  0  0  0999 V2000
   11.4140    5.6450   12.6060 C   0  0  0  0  0  0  0  0  0  0  0  0
   12.3490    6.6330   11.9990 C   0  0  0  0  0  0  0  0  0  0  0  0
   12.1260    7.9090   12.1630 N   0  0  0  0  0  0  0  0  0  0  0  0
   13.1700    8.5850   11.4770 O   0  0  0  0  0  0  0  0  0  0  0  0
   13.9700    7.6640   10.9260 C   0  0  0  0  0  0  0  0  0  0  0  0
   15.1320    8.1760   10.1600 C   0  0  0  0  0  0  0  0  0  0  0  0
   13.5040    6.4240   11.2170 C   0  0  0  0  0  0  0  0  0  0  0  0
   14.0590    5.1180   10.8010 C   0  0  0  0  0  0  0  0  0  0  0  0
   14.3530    4.8670    9.4670 C   0  0  0  0  0  0  0  0  0  0  0  0
   14.8540    3.6550    9.1230 C   0  0  0  0  0  0  0  0  0  0  0  0
   15.0610    2.6670   10.1100 C   0  0  0  0  0  0  0  0  0  0  0  0
   15.5980    1.3650    9.8230 C   0  0  0  0  0  0  0  0  0  0  0  0
   15.9190    0.8990    8.5440 N   0  0  0  0  0  0  0  0  0  0  0  0
   16.2890    1.6630    7.3760 C   0  0  0  0  0  0  0  0  0  0  0  0
   17.5690    2.2130    7.3440 C   0  0  0  0  0  0  0  0  0  0  0  0
   17.9910    2.9520    6.2520 C   0  0  0  0  0  0  0  0  0  0  0  0
   17.1540    3.1540    5.1790 C   0  0  0  0  0  0  0  0  0  0  0  0
   15.8780    2.6200    5.1730 C   0  0  0  0  0  0  0  0  0  0  0  0
   15.4040    1.8760    6.2490 C   0  0  0  0  0  0  0  0  0  0  0  0
   13.9680    1.2950    6.1670 C   0  0  0  0  0  0  0  0  0  0  0  0
   13.1340    2.0010    5.0800 C   0  0  0  0  0  0  0  0  0  0  0  0
   13.1660    1.4280    7.4640 C   0  0  0  0  0  0  0  0  0  0  0  0
   14.0170   -0.1790    5.7880 C   0  0  0  0  0  0  0  0  0  0  0  0
   15.7240    0.5090   10.9520 C   0  0  0  0  0  0  0  0  0  0  0  0
   15.3700    0.9720   12.2140 C   0  0  0  0  0  0  0  0  0  0  0  0
   14.8780    2.1510   12.4910 N   0  0  0  0  0  0  0  0  0  0  0  0
   14.7290    3.0130   11.4440 C   0  0  0  0  0  0  0  0  0  0  0  0
   16.2880   -0.8680   10.8760 C   0  0  0  0  0  0  0  0  0  0  0  0
   16.6760   -1.2260    9.6910 O   0  5  0  0  0  0  0  0  0  0  0  0
   16.4470   -1.5570   11.8760 O   0  0  0  0  0  0  0  0  0  0  0  0
   14.2230    4.2340   11.7880 N   0  0  0  0  0  0  0  0  0  0  0  0
   11.7528    4.6258   12.3686 H   0  0  0  0  0  0  0  0  0  0  0  0
   10.4033    5.7993   12.2002 H   0  0  0  0  0  0  0  0  0  0  0  0
   11.3955    5.7802   13.6975 H   0  0  0  0  0  0  0  0  0  0  0  0
   15.7088    7.3294    9.7593 H   0  0  0  0  0  0  0  0  0  0  0  0
   15.7731    8.7753   10.8232 H   0  0  0  0  0  0  0  0  0  0  0  0
   14.7761    8.8030    9.3292 H   0  0  0  0  0  0  0  0  0  0  0  0
   14.1847    5.6276    8.7132 H   0  0  0  0  0  0  0  0  0  0  0  0
   15.0962    3.4441    8.0877 H   0  0  0  0  0  0  0  0  0  0  0  0
   15.8873   -0.1229    8.4189 H   0  0  0  0  0  0  0  0  0  0  0  0
   18.2402    2.0609    8.1815 H   0  0  0  0  0  0  0  0  0  0  0  0
   18.9891    3.3749    6.2423 H   0  0  0  0  0  0  0  0  0  0  0  0
   17.4972    3.7363    4.3315 H   0  0  0  0  0  0  0  0  0  0  0  0
   15.2361    2.7840    4.3150 H   0  0  0  0  0  0  0  0  0  0  0  0
   12.1249    1.5642    5.0507 H   0  0  0  0  0  0  0  0  0  0  0  0
   13.6193    1.8687    4.1018 H   0  0  0  0  0  0  0  0  0  0  0  0
   13.0625    3.0739    5.3117 H   0  0  0  0  0  0  0  0  0  0  0  0
   13.7124    0.9402    8.2846 H   0  0  0  0  0  0  0  0  0  0  0  0
   12.1849    0.9464    7.3395 H   0  0  0  0  0  0  0  0  0  0  0  0
   13.0244    2.4930    7.7000 H   0  0  0  0  0  0  0  0  0  0  0  0
   14.5897   -0.2992    4.8566 H   0  0  0  0  0  0  0  0  0  0  0  0
   12.9935   -0.5538    5.6400 H   0  0  0  0  0  0  0  0  0  0  0  0
   14.5032   -0.7488    6.5935 H   0  0  0  0  0  0  0  0  0  0  0  0
   15.5155    0.2922   13.0457 H   0  0  0  0  0  0  0  0  0  0  0  0
  1  2  1  0  0  0  0
  1 32  1  0  0  0  0
  1 33  1  0  0  0  0
  1 34  1  0  0  0  0
  2  3  2  0  0  0  0
  2  7  1  0  0  0  0
  3  4  1  0  0  0  0
  4  5  1  0  0  0  0
  5  6  1  0  0  0  0
  5  7  2  0  0  0  0
  6 35  1  0  0  0  0
  6 36  1  0  0  0  0
  6 37  1  0  0  0  0
  7  8  1  0  0  0  0
  8  9  2  0  0  0  0
  8 31  1  0  0  0  0
  9 10  1  0  0  0  0
  9 38  1  0  0  0  0
 10 11  2  0  0  0  0
 10 39  1  0  0  0  0
 11 12  1  0  0  0  0
 11 27  1  0  0  0  0
 12 13  1  0  0  0  0
 12 24  2  0  0  0  0
 13 14  1  0  0  0  0
 13 40  1  0  0  0  0
 14 15  2  0  0  0  0
 14 19  1  0  0  0  0
 15 16  1  0  0  0  0
 15 41  1  0  0  0  0
 16 17  2  0  0  0  0
 16 42  1  0  0  0  0
 17 18  1  0  0  0  0
 17 43  1  0  0  0  0
 18 19  2  0  0  0  0
 18 44  1  0  0  0  0
 19 20  1  0  0  0  0
 20 21  1  0  0  0  0
 20 22  1  0  0  0  0
 20 23  1  0  0  0  0
 21 45  1  0  0  0  0
 21 46  1  0  0  0  0
 21 47  1  0  0  0  0
 22 48  1  0  0  0  0
 22 49  1  0  0  0  0
 22 50  1  0  0  0  0
 23 51  1  0  0  0  0
 23 52  1  0  0  0  0
 23 53  1  0  0  0  0
 24 25  1  0  0  0  0
 24 28  1  0  0  0  0
 25 26  2  0  0  0  0
 25 54  1  0  0  0  0
 26 27  1  0  0  0  0
 27 31  2  0  0  0  0
 28 29  1  0  0  0  0
 28 30  2  0  0  0  0
M  CHG  1  29  -1
M  END
