4bw3_ligand
 OpenBabel08222323353D

 58 61  0  0  0  0  0  0  0  0999 V2000
    9.9490    5.0650   12.2350 C   0  0  0  0  0  0  0  0  0  0  0  0
   10.9040    6.0860   11.7150 C   0  0  0  0  0  0  0  0  0  0  0  0
   10.5820    7.3480   11.7790 N   0  0  0  0  0  0  0  0  0  0  0  0
   11.6720    8.0620   11.2160 O   0  0  0  0  0  0  0  0  0  0  0  0
   12.6050    7.1750   10.8450 C   0  0  0  0  0  0  0  0  0  0  0  0
   13.8330    7.7350   10.2290 C   0  0  0  0  0  0  0  0  0  0  0  0
   12.1760    5.9190   11.1230 C   0  0  0  0  0  0  0  0  0  0  0  0
   12.8920    4.6530   10.8520 C   0  0  0  0  0  0  0  0  0  0  0  0
   13.2560    4.3230    9.5370 C   0  0  0  0  0  0  0  0  0  0  0  0
   14.2120    2.3740   10.1070 C   0  0  0  0  0  0  0  0  0  0  0  0
   14.9140    1.1830    9.7550 C   0  0  0  0  0  0  0  0  0  0  0  0
   15.2200    0.8880    8.4320 N   0  0  0  0  0  0  0  0  0  0  0  0
   15.4610    1.7800    7.3520 C   0  0  0  0  0  0  0  0  0  0  0  0
   16.6500    2.5100    7.3350 C   0  0  0  0  0  0  0  0  0  0  0  0
   16.9260    3.3740    6.2900 C   0  0  0  0  0  0  0  0  0  0  0  0
   16.0390    3.5150    5.2470 C   0  0  0  0  0  0  0  0  0  0  0  0
   14.8560    2.7950    5.2290 C   0  0  0  0  0  0  0  0  0  0  0  0
   14.5290    1.9230    6.2650 C   0  0  0  0  0  0  0  0  0  0  0  0
   13.1950    1.1370    6.1760 C   0  0  0  0  0  0  0  0  0  0  0  0
   12.2090    1.8040    5.2010 C   0  0  0  0  0  0  0  0  0  0  0  0
   13.4520   -0.2810    5.6690 C   0  0  0  0  0  0  0  0  0  0  0  0
   12.4560    1.0290    7.5140 C   0  0  0  0  0  0  0  0  0  0  0  0
   15.2290    0.2900   10.8000 C   0  0  0  0  0  0  0  0  0  0  0  0
   14.8570    0.6380   12.1060 C   0  0  0  0  0  0  0  0  0  0  0  0
   14.2210    1.7250   12.4690 N   0  0  0  0  0  0  0  0  0  0  0  0
   13.8860    2.6190   11.4830 C   0  0  0  0  0  0  0  0  0  0  0  0
   13.2040    3.7930   11.8670 C   0  0  0  0  0  0  0  0  0  0  0  0
   15.9620   -0.9910   10.5830 C   0  0  0  0  0  0  0  0  0  0  0  0
   13.6420    5.3540    7.4310 C   0  0  0  0  0  0  0  0  0  0  0  0
   16.3740   -1.3060    9.4730 O   0  5  0  0  0  0  0  0  0  0  0  0
   16.1450   -1.7230   11.6440 O   0  0  0  0  0  0  0  0  0  0  0  0
   12.8790    5.2530    8.6370 O   0  0  0  0  0  0  0  0  0  0  0  0
   13.8830    3.2620    9.1150 N   0  0  0  0  0  0  0  0  0  0  0  0
   10.3780    4.0608   12.1028 H   0  0  0  0  0  0  0  0  0  0  0  0
    9.0008    5.1344   11.6817 H   0  0  0  0  0  0  0  0  0  0  0  0
    9.7639    5.2468   13.3040 H   0  0  0  0  0  0  0  0  0  0  0  0
   14.5190    6.9155    9.9686 H   0  0  0  0  0  0  0  0  0  0  0  0
   14.3251    8.4123   10.9425 H   0  0  0  0  0  0  0  0  0  0  0  0
   13.5655    8.2923    9.3192 H   0  0  0  0  0  0  0  0  0  0  0  0
   15.2804   -0.1143    8.2026 H   0  0  0  0  0  0  0  0  0  0  0  0
   17.3617    2.3996    8.1452 H   0  0  0  0  0  0  0  0  0  0  0  0
   17.8479    3.9442    6.2928 H   0  0  0  0  0  0  0  0  0  0  0  0
   16.2680    4.1944    4.4339 H   0  0  0  0  0  0  0  0  0  0  0  0
   14.1734    2.9119    4.3951 H   0  0  0  0  0  0  0  0  0  0  0  0
   11.2776    1.2199    5.1646 H   0  0  0  0  0  0  0  0  0  0  0  0
   12.6564    1.8435    4.1969 H   0  0  0  0  0  0  0  0  0  0  0  0
   11.9880    2.8254    5.5445 H   0  0  0  0  0  0  0  0  0  0  0  0
   14.1555   -0.7900    6.3444 H   0  0  0  0  0  0  0  0  0  0  0  0
   13.8820   -0.2365    4.6575 H   0  0  0  0  0  0  0  0  0  0  0  0
   12.5037   -0.8376    5.6401 H   0  0  0  0  0  0  0  0  0  0  0  0
   12.2564    2.0376    7.9051 H   0  0  0  0  0  0  0  0  0  0  0  0
   13.0771    0.4736    8.2322 H   0  0  0  0  0  0  0  0  0  0  0  0
   11.5040    0.4984    7.3653 H   0  0  0  0  0  0  0  0  0  0  0  0
   15.1211   -0.0599   12.8923 H   0  0  0  0  0  0  0  0  0  0  0  0
   12.9447    3.9991   12.8991 H   0  0  0  0  0  0  0  0  0  0  0  0
   13.2220    6.1487    6.7969 H   0  0  0  0  0  0  0  0  0  0  0  0
   13.6039    4.3960    6.8917 H   0  0  0  0  0  0  0  0  0  0  0  0
   14.6867    5.5950    7.6771 H   0  0  0  0  0  0  0  0  0  0  0  0
  1 34  1  0  0  0  0
  1 35  1  0  0  0  0
  1 36  1  0  0  0  0
  2  1  1  0  0  0  0
  2  3  2  0  0  0  0
  4  3  1  0  0  0  0
  5  4  1  0  0  0  0
  5  6  1  0  0  0  0
  6 37  1  0  0  0  0
  6 38  1  0  0  0  0
  6 39  1  0  0  0  0
  7  2  1  0  0  0  0
  7  5  2  0  0  0  0
  8  7  1  0  0  0  0
  8 27  1  0  0  0  0
  9  8  2  0  0  0  0
  9 32  1  0  0  0  0
 10 11  1  0  0  0  0
 10 26  1  0  0  0  0
 10 33  2  0  0  0  0
 11 12  1  0  0  0  0
 11 23  2  0  0  0  0
 12 13  1  0  0  0  0
 12 40  1  0  0  0  0
 13 14  2  0  0  0  0
 13 18  1  0  0  0  0
 14 15  1  0  0  0  0
 14 41  1  0  0  0  0
 15 16  2  0  0  0  0
 15 42  1  0  0  0  0
 16 17  1  0  0  0  0
 16 43  1  0  0  0  0
 17 18  2  0  0  0  0
 17 44  1  0  0  0  0
 18 19  1  0  0  0  0
 19 20  1  0  0  0  0
 19 21  1  0  0  0  0
 19 22  1  0  0  0  0
 20 45  1  0  0  0  0
 20 46  1  0  0  0  0
 20 47  1  0  0  0  0
 21 48  1  0  0  0  0
 21 49  1  0  0  0  0
 21 50  1  0  0  0  0
 22 51  1  0  0  0  0
 22 52  1  0  0  0  0
 22 53  1  0  0  0  0
 23 24  1  0  0  0  0
 23 28  1  0  0  0  0
 24 25  2  0  0  0  0
 24 54  1  0  0  0  0
 25 26  1  0  0  0  0
 26 27  2  0  0  0  0
 27 55  1  0  0  0  0
 28 30  1  0  0  0  0
 28 31  2  0  0  0  0
 29 56  1  0  0  0  0
 29 57  1  0  0  0  0
 29 58  1  0  0  0  0
 32 29  1  0  0  0  0
 33  9  1  0  0  0  0
M  CHG  1  30  -1
M  END
