4bzo_ligand
 OpenBabel08222323353D

 53 56  0  0  1  0  0  0  0  0999 V2000
   20.8970  -34.3990    4.6090 O   0  0  0  0  0  0  0  0  0  0  0  0
   22.0050  -33.8930    4.7990 C   0  0  0  0  0  0  0  0  0  0  0  0
   22.9420  -34.4680    5.5750 N   0  0  0  0  0  0  0  0  0  0  0  0
   22.7330  -35.7070    6.3460 C   0  0  1  0  0  0  0  0  0  0  0  0
   23.2280  -36.9710    5.7190 C   0  0  0  0  0  0  0  0  0  0  0  0
   24.0800  -36.9720    4.6140 C   0  0  0  0  0  0  0  0  0  0  0  0
   24.5230  -38.1790    4.0710 C   0  0  0  0  0  0  0  0  0  0  0  0
   24.1340  -39.4110    4.6350 C   0  0  0  0  0  0  0  0  0  0  0  0
   23.2810  -39.4200    5.7470 C   0  0  0  0  0  0  0  0  0  0  0  0
   22.8340  -38.2020    6.2830 C   0  0  0  0  0  0  0  0  0  0  0  0
   23.5180  -35.5150    7.6650 C   0  0  0  0  0  0  0  0  0  0  0  0
   22.9000  -34.4860    8.4980 N   0  3  0  0  0  0  0  0  0  0  0  0
   22.3760  -32.5930    4.0990 C   0  0  0  0  0  0  0  0  0  0  0  0
   21.6140  -32.3540    2.7750 C   0  0  2  0  0  0  0  0  0  0  0  0
   22.2320  -33.1060    1.6580 N   0  0  0  0  0  0  0  0  0  0  0  0
   22.5140  -34.5090    1.6910 C   0  0  0  0  0  0  0  0  0  0  0  0
   21.8490  -30.8650    2.4880 C   0  0  0  0  0  0  0  0  0  0  0  0
   21.4830  -30.5400    1.1140 N   0  0  0  0  0  0  0  0  0  0  0  0
   21.6390  -31.3240    0.0380 C   0  0  0  0  0  0  0  0  0  0  0  0
   21.4880  -30.9230   -1.1130 O   0  0  0  0  0  0  0  0  0  0  0  0
   22.0020  -32.7410    0.2840 C   0  0  0  0  0  0  0  0  0  0  0  0
   22.3010  -33.8340   -0.5010 C   0  0  0  0  0  0  0  0  0  0  0  0
   22.5970  -34.9080    0.3490 C   0  0  0  0  0  0  0  0  0  0  0  0
   23.0220  -36.2680   -0.1150 C   0  0  0  0  0  0  0  0  0  0  0  0
   23.1080  -37.3610    0.7460 C   0  0  0  0  0  0  0  0  0  0  0  0
   23.5850  -38.5770    0.2380 C   0  0  0  0  0  0  0  0  0  0  0  0
   23.6430  -39.6580    1.0360 F   0  0  0  0  0  0  0  0  0  0  0  0
   24.0040  -38.6960   -1.0570 N   0  0  0  0  0  0  0  0  0  0  0  0
   23.9590  -37.6370   -1.8940 C   0  0  0  0  0  0  0  0  0  0  0  0
   23.4790  -36.4160   -1.4260 C   0  0  0  0  0  0  0  0  0  0  0  0
   23.8375  -34.0266    5.6323 H   0  0  0  0  0  0  0  0  0  0  0  0
   21.6576  -35.8183    6.5490 H   0  0  0  0  0  0  0  0  0  0  0  0
   24.3986  -36.0329    4.1762 H   0  0  0  0  0  0  0  0  0  0  0  0
   25.1744  -38.1690    3.2046 H   0  0  0  0  0  0  0  0  0  0  0  0
   24.4914  -40.3431    4.2124 H   0  0  0  0  0  0  0  0  0  0  0  0
   22.9692  -40.3592    6.1893 H   0  0  0  0  0  0  0  0  0  0  0  0
   22.1755  -38.2078    7.1441 H   0  0  0  0  0  0  0  0  0  0  0  0
   24.5496  -35.2149    7.4291 H   0  0  0  0  0  0  0  0  0  0  0  0
   23.5301  -36.4658    8.2179 H   0  0  0  0  0  0  0  0  0  0  0  0
   23.4292  -34.3804    9.3494 H   0  0  0  0  0  0  0  0  0  0  0  0
   21.9551  -34.7570    8.7211 H   0  0  0  0  0  0  0  0  0  0  0  0
   22.8894  -33.6107    7.9982 H   0  0  0  0  0  0  0  0  0  0  0  0
   23.4536  -32.6133    3.8794 H   0  0  0  0  0  0  0  0  0  0  0  0
   22.1563  -31.7579    4.7804 H   0  0  0  0  0  0  0  0  0  0  0  0
   20.5465  -32.6008    2.8724 H   0  0  0  0  0  0  0  0  0  0  0  0
   22.6381  -35.1353    2.5732 H   0  0  0  0  0  0  0  0  0  0  0  0
   22.9125  -30.6309    2.6432 H   0  0  0  0  0  0  0  0  0  0  0  0
   21.2370  -30.2637    3.1764 H   0  0  0  0  0  0  0  0  0  0  0  0
   21.0740  -29.6407    0.9589 H   0  0  0  0  0  0  0  0  0  0  0  0
   22.3062  -33.8585   -1.5897 H   0  0  0  0  0  0  0  0  0  0  0  0
   22.8125  -37.2724    1.7852 H   0  0  0  0  0  0  0  0  0  0  0  0
   24.2933  -37.7363   -2.9204 H   0  0  0  0  0  0  0  0  0  0  0  0
   23.4599  -35.5624   -2.0939 H   0  0  0  0  0  0  0  0  0  0  0  0
  1  2  2  0  0  0  0
  2  3  1  0  0  0  0
  2 13  1  0  0  0  0
  3  4  1  0  0  0  0
  3 31  1  0  0  0  0
  4  5  1  0  0  0  0
  4 11  1  0  0  0  0
  4 32  1  1  0  0  0
  5  6  2  0  0  0  0
  5 10  1  0  0  0  0
  6  7  1  0  0  0  0
  6 33  1  0  0  0  0
  7  8  2  0  0  0  0
  7 34  1  0  0  0  0
  8  9  1  0  0  0  0
  8 35  1  0  0  0  0
  9 10  2  0  0  0  0
  9 36  1  0  0  0  0
 10 37  1  0  0  0  0
 11 12  1  0  0  0  0
 11 38  1  0  0  0  0
 11 39  1  0  0  0  0
 12 40  1  0  0  0  0
 12 41  1  0  0  0  0
 12 42  1  0  0  0  0
 13 14  1  0  0  0  0
 13 43  1  0  0  0  0
 13 44  1  0  0  0  0
 14 15  1  0  0  0  0
 14 17  1  0  0  0  0
 14 45  1  1  0  0  0
 15 16  1  0  0  0  0
 15 21  1  0  0  0  0
 16 23  2  0  0  0  0
 16 46  1  0  0  0  0
 17 18  1  0  0  0  0
 17 47  1  0  0  0  0
 17 48  1  0  0  0  0
 18 19  1  0  0  0  0
 18 49  1  0  0  0  0
 19 20  2  0  0  0  0
 19 21  1  0  0  0  0
 21 22  2  0  0  0  0
 22 23  1  0  0  0  0
 22 50  1  0  0  0  0
 23 24  1  0  0  0  0
 24 25  2  0  0  0  0
 24 30  1  0  0  0  0
 25 26  1  0  0  0  0
 25 51  1  0  0  0  0
 26 27  1  0  0  0  0
 26 28  2  0  0  0  0
 28 29  1  0  0  0  0
 29 30  2  0  0  0  0
 29 52  1  0  0  0  0
 30 53  1  0  0  0  0
M  CHG  1  12   1
M  END
