4bzr_ligand
 OpenBabel08222323353D

 69 70  0  0  1  0  0  0  0  0999 V2000
  -10.5120   -7.5920   15.7370 C   0  0  0  0  0  0  0  0  0  0  0  0
   -9.7960   -7.3710   14.5540 C   0  0  0  0  0  0  0  0  0  0  0  0
   -9.3100   -6.0930   14.2710 C   0  0  0  0  0  0  0  0  0  0  0  0
   -8.6110   -5.8630   13.1260 O   0  0  0  0  0  0  0  0  0  0  0  0
   -9.5410   -5.0350   15.1530 C   0  0  0  0  0  0  0  0  0  0  0  0
  -10.2520   -5.2610   16.3360 C   0  0  0  0  0  0  0  0  0  0  0  0
  -10.7370   -6.5410   16.6310 C   0  0  0  0  0  0  0  0  0  0  0  0
  -11.5300   -6.7850   17.9270 C   0  0  0  0  0  0  0  0  0  0  0  0
  -13.0230   -6.4420   17.7690 C   0  0  1  0  0  0  0  0  0  0  0  0
  -13.9100   -6.5420   19.3610 P   0  0  0  0  0  0  0  0  0  0  0  0
  -15.4730   -6.3730   18.9790 O   0  0  0  0  0  1  0  0  0  0  0  0
  -13.7510   -8.0480   19.9080 O   0  0  0  0  0  1  0  0  0  0  0  0
  -13.4940   -5.4590   20.2660 O   0  0  0  0  0  0  0  0  0  0  0  0
  -13.0810   -5.0740   17.2480 N   0  0  0  0  0  0  0  0  0  0  0  0
  -13.6580   -4.7880   16.0910 C   0  0  0  0  0  0  0  0  0  0  0  0
  -14.2510   -5.6030   15.3940 O   0  0  0  0  0  0  0  0  0  0  0  0
  -13.5110   -3.3540   15.6160 C   0  0  1  0  0  0  0  0  0  0  0  0
  -13.4980   -3.4270   14.1420 N   0  0  0  0  0  0  0  0  0  0  0  0
  -12.5340   -2.8760   13.4160 C   0  0  0  0  0  0  0  0  0  0  0  0
  -11.6200   -2.1960   13.8830 O   0  0  0  0  0  0  0  0  0  0  0  0
  -12.6600   -3.0870   11.9000 C   0  0  2  0  0  0  0  0  0  0  0  0
  -11.5600   -4.0480   11.4190 C   0  0  1  0  0  0  0  0  0  0  0  0
  -11.8710   -5.4840   11.8770 C   0  0  0  0  0  0  0  0  0  0  0  0
  -11.3470   -4.0210    9.9000 C   0  0  0  0  0  0  0  0  0  0  0  0
  -10.0920   -4.8140    9.5220 C   0  0  0  0  0  0  0  0  0  0  0  0
  -12.6150   -1.7610   11.2430 N   0  0  0  0  0  0  0  0  0  0  0  0
  -13.4730   -1.4290   10.2810 C   0  0  0  0  0  0  0  0  0  0  0  0
  -13.3460   -0.0030    9.7330 C   0  0  0  0  0  0  0  0  0  0  0  0
  -14.3160   -2.1990    9.8310 O   0  0  0  0  0  0  0  0  0  0  0  0
  -14.6450   -2.4590   16.1110 C   0  0  0  0  0  0  0  0  0  0  0  0
  -14.3260   -1.0010   15.7700 C   0  0  0  0  0  0  0  0  0  0  0  0
  -13.6780   -0.1840   16.7010 C   0  0  0  0  0  0  0  0  0  0  0  0
  -13.3890    1.1440   16.3710 C   0  0  0  0  0  0  0  0  0  0  0  0
  -13.7480    1.6430   15.1150 C   0  0  0  0  0  0  0  0  0  0  0  0
  -13.4750    2.9380   14.7800 O   0  0  0  0  0  0  0  0  0  0  0  0
  -14.3880    0.8260   14.1890 C   0  0  0  0  0  0  0  0  0  0  0  0
  -14.6790   -0.4960   14.5170 C   0  0  0  0  0  0  0  0  0  0  0  0
  -10.8933   -8.5818   15.9604 H   0  0  0  0  0  0  0  0  0  0  0  0
   -9.6202   -8.1869   13.8623 H   0  0  0  0  0  0  0  0  0  0  0  0
   -8.3563   -4.9485   13.0901 H   0  0  0  0  0  0  0  0  0  0  0  0
   -9.1708   -4.0428   14.9216 H   0  0  0  0  0  0  0  0  0  0  0  0
  -10.4280   -4.4436   17.0259 H   0  0  0  0  0  0  0  0  0  0  0  0
  -11.1053   -6.1587   18.7254 H   0  0  0  0  0  0  0  0  0  0  0  0
  -11.4377   -7.8454   18.2045 H   0  0  0  0  0  0  0  0  0  0  0  0
  -13.4894   -7.1370   17.0553 H   0  0  0  0  0  0  0  0  0  0  0  0
  -12.6725   -4.3339   17.7822 H   0  0  0  0  0  0  0  0  0  0  0  0
  -12.5577   -2.9415   15.9780 H   0  0  0  0  0  0  0  0  0  0  0  0
  -14.2403   -3.9076   13.6751 H   0  0  0  0  0  0  0  0  0  0  0  0
  -13.6344   -3.5480   11.6808 H   0  0  0  0  0  0  0  0  0  0  0  0
  -10.6176   -3.7337   11.8913 H   0  0  0  0  0  0  0  0  0  0  0  0
  -11.0774   -6.1605   11.5268 H   0  0  0  0  0  0  0  0  0  0  0  0
  -12.8362   -5.8022   11.4561 H   0  0  0  0  0  0  0  0  0  0  0  0
  -11.9216   -5.5157   12.9754 H   0  0  0  0  0  0  0  0  0  0  0  0
  -11.2302   -2.9785    9.5689 H   0  0  0  0  0  0  0  0  0  0  0  0
  -12.2210   -4.4677    9.4035 H   0  0  0  0  0  0  0  0  0  0  0  0
   -9.9544   -4.7844    8.4310 H   0  0  0  0  0  0  0  0  0  0  0  0
  -10.2056   -5.8581    9.8490 H   0  0  0  0  0  0  0  0  0  0  0  0
   -9.2148   -4.3689   10.0144 H   0  0  0  0  0  0  0  0  0  0  0  0
  -11.9228   -1.0983   11.5290 H   0  0  0  0  0  0  0  0  0  0  0  0
  -14.1006    0.1570    8.9488 H   0  0  0  0  0  0  0  0  0  0  0  0
  -12.3409    0.1388    9.3091 H   0  0  0  0  0  0  0  0  0  0  0  0
  -13.5055    0.7185   10.5478 H   0  0  0  0  0  0  0  0  0  0  0  0
  -14.7491   -2.5669   17.2007 H   0  0  0  0  0  0  0  0  0  0  0  0
  -15.5853   -2.7532   15.6219 H   0  0  0  0  0  0  0  0  0  0  0  0
  -13.4013   -0.5773   17.6725 H   0  0  0  0  0  0  0  0  0  0  0  0
  -12.8878    1.7850   17.0872 H   0  0  0  0  0  0  0  0  0  0  0  0
  -13.7844    3.1077   13.8980 H   0  0  0  0  0  0  0  0  0  0  0  0
  -14.6595    1.2169   13.2151 H   0  0  0  0  0  0  0  0  0  0  0  0
  -15.1804   -1.1340   13.7982 H   0  0  0  0  0  0  0  0  0  0  0  0
  1  2  2  0  0  0  0
  1  7  1  0  0  0  0
  1 38  1  0  0  0  0
  2  3  1  0  0  0  0
  2 39  1  0  0  0  0
  3  4  1  0  0  0  0
  3  5  2  0  0  0  0
  4 40  1  0  0  0  0
  5  6  1  0  0  0  0
  5 41  1  0  0  0  0
  6  7  2  0  0  0  0
  6 42  1  0  0  0  0
  7  8  1  0  0  0  0
  8  9  1  0  0  0  0
  8 43  1  0  0  0  0
  8 44  1  0  0  0  0
  9 10  1  0  0  0  0
  9 14  1  0  0  0  0
  9 45  1  6  0  0  0
 10 11  1  0  0  0  0
 10 12  1  0  0  0  0
 10 13  2  0  0  0  0
 14 15  1  0  0  0  0
 14 46  1  0  0  0  0
 15 16  2  0  0  0  0
 15 17  1  0  0  0  0
 17 18  1  0  0  0  0
 17 30  1  0  0  0  0
 17 47  1  1  0  0  0
 18 19  1  0  0  0  0
 18 48  1  0  0  0  0
 19 20  2  0  0  0  0
 19 21  1  0  0  0  0
 21 22  1  0  0  0  0
 21 26  1  0  0  0  0
 21 49  1  6  0  0  0
 22 23  1  0  0  0  0
 22 24  1  0  0  0  0
 22 50  1  1  0  0  0
 23 51  1  0  0  0  0
 23 52  1  0  0  0  0
 23 53  1  0  0  0  0
 24 25  1  0  0  0  0
 24 54  1  0  0  0  0
 24 55  1  0  0  0  0
 25 56  1  0  0  0  0
 25 57  1  0  0  0  0
 25 58  1  0  0  0  0
 26 27  1  0  0  0  0
 26 59  1  0  0  0  0
 27 28  1  0  0  0  0
 27 29  2  0  0  0  0
 28 60  1  0  0  0  0
 28 61  1  0  0  0  0
 28 62  1  0  0  0  0
 30 31  1  0  0  0  0
 30 63  1  0  0  0  0
 30 64  1  0  0  0  0
 31 32  2  0  0  0  0
 31 37  1  0  0  0  0
 32 33  1  0  0  0  0
 32 65  1  0  0  0  0
 33 34  2  0  0  0  0
 33 66  1  0  0  0  0
 34 35  1  0  0  0  0
 34 36  1  0  0  0  0
 35 67  1  0  0  0  0
 36 37  2  0  0  0  0
 36 68  1  0  0  0  0
 37 69  1  0  0  0  0
M  END
